AV-unprocessed.smi:3285|AV-procd|sdf|12584|dock7
  -GOLD-   2272018503D 1   1.00000     0.00000
 Structure written by MMmdl.
 45 46  0  0  0  0  0  0  0  0  2 V2000
  147.4710  140.1074  157.0636 C   0  0  0  0  0  0  0  0  0  0  0  0
  146.7127  141.0686  156.1937 C   0  0  0  0  0  0  0  0  0  0  0  0
  145.4523  141.3428  156.4825 N   0  0  0  0  0  0  0  0  0  0  0  0
  145.0237  142.2497  155.5091 O   0  0  0  0  0  0  0  0  0  0  0  0
  146.0551  142.4896  154.6613 C   0  0  0  0  0  0  0  0  0  0  0  0
  145.7865  143.4468  153.5489 C   0  0  0  0  0  0  0  0  0  0  0  0
  147.1597  141.7750  155.0394 C   0  0  0  0  0  0  0  0  0  0  0  0
  148.5259  141.7377  154.4016 C   0  0  0  0  0  0  0  0  0  0  0  0
  149.6313  141.4212  155.4204 C   0  0  0  0  0  0  0  0  0  0  0  0
  149.7206  142.4706  156.4584 N   0  3  0  0  0  0  0  0  0  0  0  0
  150.9690  142.4798  157.2511 C   0  0  2  0  0  0  0  0  0  0  0  0
  151.2106  141.0843  157.8461 C   0  0  0  0  0  0  0  0  0  0  0  0
  152.4918  141.0545  158.6900 C   0  0  0  0  0  0  0  0  0  0  0  0
  152.4638  142.1037  159.8194 C   0  0  1  0  0  0  0  0  0  0  0  0
  153.7643  142.0230  160.6383 C   0  0  0  0  0  0  0  0  0  0  0  0
  152.1987  143.5198  159.2428 C   0  0  2  0  0  0  0  0  0  0  0  0
  152.0993  144.6013  160.3334 C   0  0  0  0  0  0  0  0  0  0  0  0
  150.9201  143.5299  158.3782 C   0  0  0  0  0  0  0  0  0  0  0  0
  148.5450  140.1738  156.8917 H   0  0  0  0  0  0  0  0  0  0  0  0
  147.1668  139.0794  156.8660 H   0  0  0  0  0  0  0  0  0  0  0  0
  147.2955  140.3083  158.1208 H   0  0  0  0  0  0  0  0  0  0  0  0
  146.6626  143.5710  152.9128 H   0  0  0  0  0  0  0  0  0  0  0  0
  145.5146  144.4268  153.9410 H   0  0  0  0  0  0  0  0  0  0  0  0
  144.9655  143.0931  152.9250 H   0  0  0  0  0  0  0  0  0  0  0  0
  148.5538  140.9888  153.6095 H   0  0  0  0  0  0  0  0  0  0  0  0
  148.7506  142.6837  153.9080 H   0  0  0  0  0  0  0  0  0  0  0  0
  149.4339  140.4572  155.8913 H   0  0  0  0  0  0  0  0  0  0  0  0
  150.5871  141.3355  154.9035 H   0  0  0  0  0  0  0  0  0  0  0  0
  149.5931  143.3767  156.0311 H   0  0  0  0  0  0  0  0  0  0  0  0
  151.7983  142.7104  156.5803 H   0  0  0  0  0  0  0  0  0  0  0  0
  150.3614  140.7893  158.4646 H   0  0  0  0  0  0  0  0  0  0  0  0
  151.2833  140.3446  157.0477 H   0  0  0  0  0  0  0  0  0  0  0  0
  152.6205  140.0571  159.1122 H   0  0  0  0  0  0  0  0  0  0  0  0
  153.3552  141.2281  158.0458 H   0  0  0  0  0  0  0  0  0  0  0  0
  151.6396  141.8486  160.4876 H   0  0  0  0  0  0  0  0  0  0  0  0
  154.6245  142.3432  160.0496 H   0  0  0  0  0  0  0  0  0  0  0  0
  153.9535  141.0023  160.9720 H   0  0  0  0  0  0  0  0  0  0  0  0
  153.7190  142.6435  161.5329 H   0  0  0  0  0  0  0  0  0  0  0  0
  153.0366  143.7841  158.5957 H   0  0  0  0  0  0  0  0  0  0  0  0
  151.3263  144.3595  161.0637 H   0  0  0  0  0  0  0  0  0  0  0  0
  151.8539  145.5719  159.9013 H   0  0  0  0  0  0  0  0  0  0  0  0
  153.0404  144.7243  160.8687 H   0  0  0  0  0  0  0  0  0  0  0  0
  150.7869  144.5254  157.9546 H   0  0  0  0  0  0  0  0  0  0  0  0
  150.0503  143.3476  159.0116 H   0  0  0  0  0  0  0  0  0  0  0  0
  148.9573  142.3117  157.1008 H   0  0  0  0  0  0  0  0  0  0  0  0
  1  2  1  0  0  0  0
  1 19  1  0  0  0  0
  1 20  1  0  0  0  0
  1 21  1  0  0  0  0
  2  7  1  0  0  0  0
  2  3  2  0  0  0  0
  3  4  1  0  0  0  0
  4  5  1  0  0  0  0
  5  6  1  0  0  0  0
  5  7  2  0  0  0  0
  6 22  1  0  0  0  0
  6 23  1  0  0  0  0
  6 24  1  0  0  0  0
  7  8  1  0  0  0  0
  8  9  1  0  0  0  0
  8 25  1  0  0  0  0
  8 26  1  0  0  0  0
  9 10  1  0  0  0  0
  9 27  1  0  0  0  0
  9 28  1  0  0  0  0
 10 11  1  0  0  0  0
 10 29  1  0  0  0  0
 10 45  1  0  0  0  0
 11 18  1  0  0  0  0
 11 12  1  0  0  0  0
 11 30  1  0  0  0  0
 12 13  1  0  0  0  0
 12 31  1  0  0  0  0
 12 32  1  0  0  0  0
 13 14  1  0  0  0  0
 13 33  1  0  0  0  0
 13 34  1  0  0  0  0
 14 15  1  0  0  0  0
 14 16  1  0  0  0  0
 14 35  1  0  0  0  0
 15 36  1  0  0  0  0
 15 37  1  0  0  0  0
 15 38  1  0  0  0  0
 16 17  1  0  0  0  0
 16 18  1  0  0  0  0
 16 39  1  0  0  0  0
 17 40  1  0  0  0  0
 17 41  1  0  0  0  0
 17 42  1  0  0  0  0
 18 43  1  0  0  0  0
 18 44  1  0  0  0  0
M  CHG  1  10   1
M  END
> <s_m_source_file>
AV-unprocessed.smi

> <i_m_source_file_index>
3285

> <i_lp_mmshare_version>
43012

> <i_f3d_flags>
0

> <s_epik_input>
W0NIM11jMW5vYyhbQ0gzXSljMVtDSDJdW0NIMl1bTkhdW0NAQEhdMltDSDJdW0NIMl1bQ0BASF0oW0NIM10pW0NAQEhdKFtDSDNdKVtDSDJdMg==

> <s_epik_cmdline>
J2VwaWtfcHl0aG9uJywgJy1waCcsICc3LjAnLCAnLXRuJywgJzgnLCAnLW1hJywgJzIwMCcsICctbWV0YWxfYmluZGluZycsICctaW1hZScsICc8aW5maWxlLm1hZT4nLCAnLW9tYWUnLCAnPG91dGZpbGUubWFlPic=

> <r_lp_tautomer_probability>
1

> <r_epik_Ionization_Penalty>
0.000204615

> <r_epik_Ionization_Penalty_Charging>
0.000204615

> <r_epik_Ionization_Penalty_Neutral>
9.28663e-11

> <r_epik_State_Penalty>
-0

> <r_epik_Charging_Adjusted_Penalty>
0.000204615

> <i_epik_Tot_Q>
1

> <i_epik_Tot_abs_Q>
1

> <r_epik_Metal_State_Penalty>
-0

> <b_epik_Metal_Only>
0

> <s_lp_Force_Field>
OPLS_2005

> <r_lp_Energy>
12.3139

> <b_lp_Chiralities_Consistent>
1

> <s_lp_Variant>
AV-unprocessed.smi:3285-5

> <Gold.Version>
5.8.1

> <Gold.Id.Protein>
6NUR|6NUR_protein|mol2

> <Gold.PLP.Fitness>
45.7436

> <Gold.PLP.PLP>
-40.6564

> <Gold.PLP.part.hbond>
-0.9132

> <Gold.PLP.part.metal>
0.0000

> <Gold.PLP.part.buried>
-5.0471

> <Gold.PLP.part.nonpolar>
-34.0288

> <Gold.PLP.part.repulsive>
0.2585

> <Gold.PLP.ligand.clash>
0.0000

> <Gold.PLP.ligand.torsion>
0.4575

> <Gold.PLP.Chemscore.Hbond>
2.0000

> <Gold.PLP.Chemscore.CHOScore>
0.0000

> <Gold.PLP.Chemscore.Metal>
0.0000

> <Gold.Chemscore.Hbonds>
donor molecule, donor type, donor heavy atom, donor atom, acceptor molecule, acceptor atom, score
      L1  H    10    29       P1  8028  2.00

> <Gold.PLP.Chemscore.Internal.Correction>
0.0023

> <Gold.Rescore>
     Score         DG    S(hbond)    S(metal)    S(lipo)     H(rot)  DE(clash)    DE(int)     intcor
     17.81     -18.34       0.94        0.00     112.52       1.35       0.08       0.45       ----

> <Gold.Chemscore.Fitness>
17.8125

> <Gold.Chemscore.DG>
-18.3422

> <Gold.Chemscore.ZeroCoef>
-5.4800

> <Gold.Chemscore.Hbond>
0.9413

> <Gold.Chemscore.Metal>
0.0000

> <Gold.Chemscore.Lipo>
112.5232

> <Gold.Chemscore.Internal_Hbond>
0.0000

> <Gold.Chemscore.DEClash>
0.0786

> <Gold.Chemscore.DEInternal>
0.4510

> <Gold.Chemscore.Rot>
1.3465

> <Gold.Chemscore.Internal.Correction>
   9.000000E+99

> <Gold.Chemscore.Hbonds>
donor molecule, donor type, donor heavy atom, donor atom, acceptor molecule, acceptor atom, score
      L1  H    10    29       P1  8028  0.95

> <Gold.Chemscore.Hbond.Weighted>
-3.1440

> <Gold.Chemscore.Metal.Weighted>
-0.0000

> <Gold.Chemscore.Lipo.Weighted>
-13.1652

> <Gold.Chemscore.Internal_Hbond.Weighted>
0.0000

> <Gold.Chemscore.DEClash.Weighted>
0.0786

> <Gold.Chemscore.DEInternal.Weighted>
0.4510

> <Gold.Chemscore.Rot.Weighted>
3.4470

> <Gold.Chemscore.Internal.Correction.Weighted>
   9.000000E+99

> <Gold.Protein.RotatedTorsions>
[ 6907 6896 6895 6894 ] final -143.46 input  -60.11 | X-H torsion
[ 7974 7965 7964 7962 ] final  175.19 input  175.53 | X-H torsion
[ 8008 7997 7996 7995 ] final  121.60 input   59.86 | X-H torsion
[ 10167 10162 10161 10158 ] final   37.00 input  -65.29 | X-H torsion
[ 10718 10713 10712 10709 ] final   26.21 input   66.30 | X-H torsion
[ 10763 10752 10751 10750 ] final   34.01 input  -60.55 | X-H torsion
[ 11005 11000 10999 10996 ] final   20.29 input  -57.11 | X-H torsion

> <Gold.Protein.ActiveResidues>
 VAL166  LYS551  ARG553  GLY616  TRP617  ASP618  TYR619  PRO620  LYS621  CYS622 
 ASP623  PHE694  ASN695  SER759  ASP760  ASP761  ALA762  ILE779  LEU786  VAL792 
 PHE793  MET794  SER795  GLU796  ALA797  LYS798  CYS799  TRP800  GLU811  SER814 

> <Gold.Protein.RotatedAtoms>
  151.1007  133.5245  159.2609 H   0  0  0  0  0  0  0  0  0  0  0  0  # atno 6907 bound_to 6896
  151.2077  135.0468  159.8908 H   0  0  0  0  0  0  0  0  0  0  0  0  # atno 6908 bound_to 6896
  152.5442  134.0827  159.8296 H   0  0  0  0  0  0  0  0  0  0  0  0  # atno 6909 bound_to 6896
  144.7206  139.9910  143.6440 H   0  0  0  0  0  0  0  0  0  0  0  0  # atno 7974 bound_to 7965
  156.2693  140.2805  156.1334 H   0  0  0  0  0  0  0  0  0  0  0  0  # atno 8008 bound_to 7997
  155.1030  140.0390  157.2720 H   0  0  0  0  0  0  0  0  0  0  0  0  # atno 8009 bound_to 7997
  154.6801  140.2607  155.6923 H   0  0  0  0  0  0  0  0  0  0  0  0  # atno 8010 bound_to 7997
  140.4074  144.1640  150.6137 H   0  0  0  0  0  0  0  0  0  0  0  0  # atno 10167 bound_to 10162
  157.2038  130.6902  149.6199 H   0  0  0  0  0  0  0  0  0  0  0  0  # atno 10718 bound_to 10713
  153.0184  135.6372  154.1601 H   0  0  0  0  0  0  0  0  0  0  0  0  # atno 10763 bound_to 10752
  154.1337  135.2839  155.3180 H   0  0  0  0  0  0  0  0  0  0  0  0  # atno 10764 bound_to 10752
  154.6175  135.5536  153.7601 H   0  0  0  0  0  0  0  0  0  0  0  0  # atno 10765 bound_to 10752
  140.4042  134.1686  155.7665 H   0  0  0  0  0  0  0  0  0  0  0  0  # atno 11005 bound_to 11000
  146.0412  139.3423  143.0696 LP  0  0  0  0  0  0  0  0  0  0  0  0  # atno 17320 bound_to 7965
  145.8333  140.9619  143.0838 LP  0  0  0  0  0  0  0  0  0  0  0  0  # atno 17321 bound_to 7965
  140.4675  143.2425  151.9135 LP  0  0  0  0  0  0  0  0  0  0  0  0  # atno 17342 bound_to 10162
  139.4783  144.5404  151.8536 LP  0  0  0  0  0  0  0  0  0  0  0  0  # atno 17343 bound_to 10162
  155.9697  130.4574  150.5960 LP  0  0  0  0  0  0  0  0  0  0  0  0  # atno 17370 bound_to 10713
  157.3741  131.0770  151.1533 LP  0  0  0  0  0  0  0  0  0  0  0  0  # atno 17371 bound_to 10713
  141.1845  133.8342  157.1136 LP  0  0  0  0  0  0  0  0  0  0  0  0  # atno 17394 bound_to 11000
  140.0314  134.9899  157.0787 LP  0  0  0  0  0  0  0  0  0  0  0  0  # atno 17395 bound_to 11000

$$$$
