AV-unprocessed.smi:249|AV-procd|sdf|1900|dock1
  -GOLD-   2262020573D 1   1.00000     0.00000
 Structure written by MMmdl.
 64 67  0  0  0  0  0  0  0  0  2 V2000
  146.6700  132.1177  152.3000 C   0  0  0  0  0  0  0  0  0  0  0  0
  147.4870  133.2695  152.9078 C   0  0  0  0  0  0  0  0  0  0  0  0
  147.8813  133.0391  154.3282 N   0  3  2  0  0  0  0  0  0  0  0  0
  147.9243  134.3124  155.1039 C   0  0  0  0  0  0  0  0  0  0  0  0
  148.2554  134.0817  156.5872 C   0  0  0  0  0  0  0  0  0  0  0  0
  149.6030  133.3523  156.7596 C   0  0  2  0  0  0  0  0  0  0  0  0
  150.7659  134.1548  156.3457 N   0  0  0  0  0  0  0  0  0  0  0  0
  152.0802  133.5264  156.4416 C   0  0  0  0  0  0  0  0  0  0  0  0
  150.8047  135.4051  156.8587 C   0  0  0  0  0  0  0  0  0  0  0  0
  150.3387  135.5756  158.1201 N   0  0  0  0  0  0  0  0  0  0  0  0
  150.3580  136.7900  158.6785 C   0  0  0  0  0  0  0  0  0  0  0  0
  150.7890  137.9417  158.1587 N   0  0  0  0  0  0  0  0  0  0  0  0
  151.2532  137.7714  156.8875 C   0  0  0  0  0  0  0  0  0  0  0  0
  151.2987  136.5460  156.1660 C   0  0  0  0  0  0  0  0  0  0  0  0
  151.8348  136.7568  154.9017 N   0  0  0  0  0  0  0  0  0  0  0  0
  152.0881  138.0371  154.8748 C   0  0  0  0  0  0  0  0  0  0  0  0
  151.7753  138.7216  156.0273 N   0  0  0  0  0  0  0  0  0  0  0  0
  151.9514  140.1442  156.2625 C   0  0  0  0  0  0  0  0  0  0  0  0
  150.7427  140.7998  156.9752 C   0  0  2  0  0  0  0  0  0  0  0  0
  149.6887  141.3470  155.9820 C   0  0  0  0  0  0  0  0  0  0  0  0
  148.6739  142.0678  156.6506 O   0  0  0  0  0  0  0  0  0  0  0  0
  151.1947  141.8713  157.9999 C   0  0  2  0  0  0  0  0  0  0  0  0
  151.7320  143.1535  157.3888 C   0  0  0  0  0  0  0  0  0  0  0  0
  152.4947  143.7670  158.5565 C   0  0  0  0  0  0  0  0  0  0  0  0
  153.0283  142.6646  159.2798 O   0  0  0  0  0  0  0  0  0  0  0  0
  152.3825  141.4599  158.8776 C   0  0  0  0  0  0  0  0  0  0  0  0
  149.4867  132.0329  155.9738 C   0  0  0  0  0  0  0  0  0  0  0  0
  149.1477  132.2500  154.4805 C   0  0  1  0  0  0  0  0  0  0  0  0
  149.0903  130.8731  153.7866 C   0  0  0  0  0  0  0  0  0  0  0  0
  146.5530  132.2622  151.2255 H   0  0  0  0  0  0  0  0  0  0  0  0
  145.6659  132.0547  152.7183 H   0  0  0  0  0  0  0  0  0  0  0  0
  147.1655  131.1580  152.4497 H   0  0  0  0  0  0  0  0  0  0  0  0
  148.3709  133.3670  152.2820 H   0  0  0  0  0  0  0  0  0  0  0  0
  146.9396  134.2093  152.8218 H   0  0  0  0  0  0  0  0  0  0  0  0
  148.6520  134.9885  154.6530 H   0  0  0  0  0  0  0  0  0  0  0  0
  146.9609  134.8176  155.0609 H   0  0  0  0  0  0  0  0  0  0  0  0
  148.2398  135.0284  157.1278 H   0  0  0  0  0  0  0  0  0  0  0  0
  147.4634  133.4817  157.0372 H   0  0  0  0  0  0  0  0  0  0  0  0
  149.7312  133.1071  157.8144 H   0  0  0  0  0  0  0  0  0  0  0  0
  152.8886  134.2584  156.3954 H   0  0  0  0  0  0  0  0  0  0  0  0
  152.2267  132.8320  155.6143 H   0  0  0  0  0  0  0  0  0  0  0  0
  152.1774  132.9719  157.3758 H   0  0  0  0  0  0  0  0  0  0  0  0
  149.9720  136.8488  159.6855 H   0  0  0  0  0  0  0  0  0  0  0  0
  152.5151  138.5217  154.0086 H   0  0  0  0  0  0  0  0  0  0  0  0
  152.8579  140.2651  156.8556 H   0  0  0  0  0  0  0  0  0  0  0  0
  152.1414  140.6373  155.3085 H   0  0  0  0  0  0  0  0  0  0  0  0
  150.2468  140.0090  157.5401 H   0  0  0  0  0  0  0  0  0  0  0  0
  150.1495  141.9984  155.2393 H   0  0  0  0  0  0  0  0  0  0  0  0
  149.2263  140.5350  155.4212 H   0  0  0  0  0  0  0  0  0  0  0  0
  148.5860  142.9149  156.2412 H   0  0  0  0  0  0  0  0  0  0  0  0
  150.3578  142.1314  158.6503 H   0  0  0  0  0  0  0  0  0  0  0  0
  152.4172  142.9301  156.5698 H   0  0  0  0  0  0  0  0  0  0  0  0
  150.9498  143.8133  157.0122 H   0  0  0  0  0  0  0  0  0  0  0  0
  153.2785  144.4518  158.2323 H   0  0  0  0  0  0  0  0  0  0  0  0
  151.8137  144.3144  159.2093 H   0  0  0  0  0  0  0  0  0  0  0  0
  152.0743  140.8747  159.7445 H   0  0  0  0  0  0  0  0  0  0  0  0
  153.0991  140.8661  158.3085 H   0  0  0  0  0  0  0  0  0  0  0  0
  150.4007  131.4475  156.0758 H   0  0  0  0  0  0  0  0  0  0  0  0
  148.7061  131.4212  156.4288 H   0  0  0  0  0  0  0  0  0  0  0  0
  149.9568  132.8217  154.0226 H   0  0  0  0  0  0  0  0  0  0  0  0
  149.9593  130.2689  154.0491 H   0  0  0  0  0  0  0  0  0  0  0  0
  149.1003  130.9525  152.7002 H   0  0  0  0  0  0  0  0  0  0  0  0
  148.2024  130.3132  154.0826 H   0  0  0  0  0  0  0  0  0  0  0  0
  147.1504  132.4765  154.7399 H   0  0  0  0  0  0  0  0  0  0  0  0
  1  2  1  0  0  0  0
  1 30  1  0  0  0  0
  1 31  1  0  0  0  0
  1 32  1  0  0  0  0
  2  3  1  0  0  0  0
  2 33  1  0  0  0  0
  2 34  1  0  0  0  0
  3 28  1  0  0  0  0
  3  4  1  0  0  0  0
  3 64  1  0  0  0  0
  4  5  1  0  0  0  0
  4 35  1  0  0  0  0
  4 36  1  0  0  0  0
  5  6  1  0  0  0  0
  5 37  1  0  0  0  0
  5 38  1  0  0  0  0
  6  7  1  0  0  0  0
  6 27  1  0  0  0  0
  6 39  1  0  0  0  0
  7  8  1  0  0  0  0
  7  9  1  0  0  0  0
  8 40  1  0  0  0  0
  8 41  1  0  0  0  0
  8 42  1  0  0  0  0
  9 14  1  0  0  0  0
  9 10  2  0  0  0  0
 10 11  1  0  0  0  0
 11 12  2  0  0  0  0
 11 43  1  0  0  0  0
 12 13  1  0  0  0  0
 13 17  1  0  0  0  0
 13 14  2  0  0  0  0
 14 15  1  0  0  0  0
 15 16  2  0  0  0  0
 16 17  1  0  0  0  0
 16 44  1  0  0  0  0
 17 18  1  0  0  0  0
 18 19  1  0  0  0  0
 18 45  1  0  0  0  0
 18 46  1  0  0  0  0
 19 20  1  0  0  0  0
 19 22  1  0  0  0  0
 19 47  1  0  0  0  0
 20 21  1  0  0  0  0
 20 48  1  0  0  0  0
 20 49  1  0  0  0  0
 21 50  1  0  0  0  0
 22 26  1  0  0  0  0
 22 23  1  0  0  0  0
 22 51  1  0  0  0  0
 23 24  1  0  0  0  0
 23 52  1  0  0  0  0
 23 53  1  0  0  0  0
 24 25  1  0  0  0  0
 24 54  1  0  0  0  0
 24 55  1  0  0  0  0
 25 26  1  0  0  0  0
 26 56  1  0  0  0  0
 26 57  1  0  0  0  0
 27 28  1  0  0  0  0
 27 58  1  0  0  0  0
 27 59  1  0  0  0  0
 28 29  1  0  0  0  0
 28 60  1  0  0  0  0
 29 61  1  0  0  0  0
 29 62  1  0  0  0  0
 29 63  1  0  0  0  0
M  CHG  1   3   1
M  END
> <s_m_source_file>
AV-unprocessed.smi

> <i_m_source_file_index>
249

> <i_lp_mmshare_version>
43012

> <i_f3d_flags>
0

> <s_epik_input>
W0NIM11bQ0gyXU4xW0NIMl1bQ0gyXVtDQEhdKFtDSDJdW0NASF0xW0NIM10pTihbQ0gzXSljKG5bY0hdbjIpYyhjMjMpbltjSF1uM1tDSDJdW0NASF0oW0NIMl1bT0hdKVtDQEBIXTRbQ0gyXVtDSDJdT1tDSDJdNA==

> <s_epik_cmdline>
J2VwaWtfcHl0aG9uJywgJy1waCcsICc3LjAnLCAnLXRuJywgJzgnLCAnLW1hJywgJzIwMCcsICctbWV0YWxfYmluZGluZycsICctaW1hZScsICc8aW5maWxlLm1hZT4nLCAnLW9tYWUnLCAnPG91dGZpbGUubWFlPic=

> <r_lp_tautomer_probability>
1

> <r_epik_Ionization_Penalty>
0.00294688

> <r_epik_Ionization_Penalty_Charging>
0.00169971

> <r_epik_Ionization_Penalty_Neutral>
0.00124717

> <r_epik_State_Penalty>
-0

> <r_epik_Charging_Adjusted_Penalty>
0.00169971

> <i_epik_Tot_Q>
1

> <i_epik_Tot_abs_Q>
1

> <r_epik_Metal_State_Penalty>
-0

> <b_epik_Metal_Only>
0

> <s_lp_Force_Field>
OPLS_2005

> <r_lp_Energy>
57.7525

> <b_lp_Chiralities_Consistent>
1

> <s_lp_Variant>
AV-unprocessed.smi:249-3

> <Gold.Version>
5.8.1

> <Gold.Id.Protein>
6NUR|6NUR_protein|mol2

> <Gold.PLP.Fitness>
46.4312

> <Gold.PLP.PLP>
-40.5969

> <Gold.PLP.part.hbond>
-3.0000

> <Gold.PLP.part.metal>
0.0000

> <Gold.PLP.part.buried>
-5.5163

> <Gold.PLP.part.nonpolar>
-32.7533

> <Gold.PLP.part.repulsive>
0.1235

> <Gold.PLP.ligand.clash>
0.0000

> <Gold.PLP.ligand.torsion>
1.9101

> <Gold.PLP.Chemscore.Hbond>
2.8406

> <Gold.PLP.Chemscore.CHOScore>
0.0000

> <Gold.PLP.Chemscore.Metal>
0.0000

> <Gold.Chemscore.Hbonds>
donor molecule, donor type, donor heavy atom, donor atom, acceptor molecule, acceptor atom, score
      L1  H    21    50       P1  8028  1.00
      P1  H  6896  6909       L1    10  0.74
      P1  H 10752 10765       L1    15  1.00

> <Gold.PLP.Chemscore.Internal.Correction>
1.1327

> <Gold.Rescore>
     Score         DG    S(hbond)    S(metal)    S(lipo)     H(rot)  DE(clash)    DE(int)     intcor
     14.28     -17.13       2.27        0.00      98.20       2.90       0.01       2.84       ----

> <Gold.Chemscore.Fitness>
14.2768

> <Gold.Chemscore.DG>
-17.1298

> <Gold.Chemscore.ZeroCoef>
-5.4800

> <Gold.Chemscore.Hbond>
2.2712

> <Gold.Chemscore.Metal>
0.0000

> <Gold.Chemscore.Lipo>
98.2010

> <Gold.Chemscore.Internal_Hbond>
0.0000

> <Gold.Chemscore.DEClash>
0.0117

> <Gold.Chemscore.DEInternal>
2.8413

> <Gold.Chemscore.Rot>
2.9006

> <Gold.Chemscore.Internal.Correction>
   9.000000E+99

> <Gold.Chemscore.Hbonds>
donor molecule, donor type, donor heavy atom, donor atom, acceptor molecule, acceptor atom, score
      L1  H    21    50       P1  8028  0.96
      P1  H  6896  6909       L1    10  0.19
      P1  H 10752 10765       L1    15  0.54

> <Gold.Chemscore.Hbond.Weighted>
-7.5859

> <Gold.Chemscore.Metal.Weighted>
-0.0000

> <Gold.Chemscore.Lipo.Weighted>
-11.4895

> <Gold.Chemscore.Internal_Hbond.Weighted>
0.0000

> <Gold.Chemscore.DEClash.Weighted>
0.0117

> <Gold.Chemscore.DEInternal.Weighted>
2.8413

> <Gold.Chemscore.Rot.Weighted>
7.4256

> <Gold.Chemscore.Internal.Correction.Weighted>
   9.000000E+99

> <Gold.Protein.RotatedTorsions>
[ 6907 6896 6895 6894 ] final   49.99 input  -60.11 | X-H torsion
[ 7974 7965 7964 7962 ] final  -85.94 input  175.53 | X-H torsion
[ 8008 7997 7996 7995 ] final   49.11 input   59.86 | X-H torsion
[ 10167 10162 10161 10158 ] final   -7.05 input  -65.29 | X-H torsion
[ 10718 10713 10712 10709 ] final -112.17 input   66.30 | X-H torsion
[ 10763 10752 10751 10750 ] final -174.08 input  -60.55 | X-H torsion
[ 11005 11000 10999 10996 ] final -107.92 input  -57.11 | X-H torsion

> <Gold.Protein.ActiveResidues>
 VAL166  LYS551  ARG553  GLY616  TRP617  ASP618  TYR619  PRO620  LYS621  CYS622 
 ASP623  PHE694  ASN695  SER759  ASP760  ASP761  ALA762  ILE779  LEU786  VAL792 
 PHE793  MET794  SER795  GLU796  ALA797  LYS798  CYS799  TRP800  GLU811  SER814 

> <Gold.Protein.RotatedAtoms>
  152.2969  134.7656  160.0365 H   0  0  0  0  0  0  0  0  0  0  0  0  # atno 6907 bound_to 6896
  151.8183  133.3386  159.3584 H   0  0  0  0  0  0  0  0  0  0  0  0  # atno 6908 bound_to 6896
  150.7256  134.5527  159.5847 H   0  0  0  0  0  0  0  0  0  0  0  0  # atno 6909 bound_to 6896
  145.4865  140.9555  143.1836 H   0  0  0  0  0  0  0  0  0  0  0  0  # atno 7974 bound_to 7965
  155.3968  140.3436  155.4254 H   0  0  0  0  0  0  0  0  0  0  0  0  # atno 8008 bound_to 7997
  156.1526  140.1576  156.8777 H   0  0  0  0  0  0  0  0  0  0  0  0  # atno 8009 bound_to 7997
  154.5066  140.0800  156.7888 H   0  0  0  0  0  0  0  0  0  0  0  0  # atno 8010 bound_to 7997
  140.7016  143.6124  150.8691 H   0  0  0  0  0  0  0  0  0  0  0  0  # atno 10167 bound_to 10162
  156.0689  130.5906  150.8472 H   0  0  0  0  0  0  0  0  0  0  0  0  # atno 10718 bound_to 10713
  154.6004  135.2854  155.0541 H   0  0  0  0  0  0  0  0  0  0  0  0  # atno 10763 bound_to 10752
  154.1809  135.6457  153.5037 H   0  0  0  0  0  0  0  0  0  0  0  0  # atno 10764 bound_to 10752
  153.0154  135.5423  154.6721 H   0  0  0  0  0  0  0  0  0  0  0  0  # atno 10765 bound_to 10752
  141.0929  133.9024  157.2034 H   0  0  0  0  0  0  0  0  0  0  0  0  # atno 11005 bound_to 11000
  144.7858  139.6429  143.7134 LP  0  0  0  0  0  0  0  0  0  0  0  0  # atno 17320 bound_to 7965
  146.2310  139.5813  142.9555 LP  0  0  0  0  0  0  0  0  0  0  0  0  # atno 17321 bound_to 7965
  139.9847  143.5912  152.2931 LP  0  0  0  0  0  0  0  0  0  0  0  0  # atno 17342 bound_to 10162
  139.6546  144.7662  151.2081 LP  0  0  0  0  0  0  0  0  0  0  0  0  # atno 17343 bound_to 10162
  157.5749  131.0946  150.9361 LP  0  0  0  0  0  0  0  0  0  0  0  0  # atno 17370 bound_to 10713
  156.9570  130.5441  149.5284 LP  0  0  0  0  0  0  0  0  0  0  0  0  # atno 17371 bound_to 10713
  139.9758  135.0114  156.9628 LP  0  0  0  0  0  0  0  0  0  0  0  0  # atno 17394 bound_to 11000
  140.5210  134.0907  155.7292 LP  0  0  0  0  0  0  0  0  0  0  0  0  # atno 17395 bound_to 11000

$$$$
