AV-unprocessed.smi:3331|AV-procd|sdf|12823|dock3
  -GOLD-   2272019193D 1   1.00000     0.00000
 Structure written by MMmdl.
 46 47  0  0  0  0  0  0  0  0  1 V2000
  148.2474  140.3431  154.3581 C   0  0  0  0  0  0  0  0  0  0  0  0
  149.4304  139.5955  154.9888 C   0  0  2  0  0  0  0  0  0  0  0  0
  150.6700  140.5102  155.1262 C   0  0  0  0  0  0  0  0  0  0  0  0
  151.9250  139.7573  155.6245 C   0  0  1  0  0  0  0  0  0  0  0  0
  151.8776  139.4907  157.1395 C   0  0  0  0  0  0  0  0  0  0  0  0
  152.1280  138.4708  154.7941 C   0  0  0  0  0  0  0  0  0  0  0  0
  150.9122  137.6471  154.8544 N   0  0  0  0  0  0  0  0  0  0  0  0
  150.7689  136.4613  155.4997 C   0  0  0  0  0  0  0  0  0  0  0  0
  151.6890  135.9607  156.1501 O   0  0  0  0  0  0  0  0  0  0  0  0
  149.4305  135.6877  155.4308 C   0  0  2  0  0  0  0  0  0  0  0  0
  149.3404  134.6910  156.5968 C   0  0  0  0  0  0  0  0  0  0  0  0
  149.2345  134.9739  154.1550 N   0  0  0  0  0  0  0  0  0  0  0  0
  147.9724  134.2448  154.0836 C   0  0  0  0  0  0  0  0  0  0  0  0
  148.1199  133.0615  153.1179 C   0  0  0  0  0  0  0  0  0  0  0  0
  146.9818  132.9613  152.2255 N   0  0  0  0  0  0  0  0  0  0  0  0
  146.0442  131.9537  152.1440 C   0  0  0  0  0  0  0  0  0  0  0  0
  145.1701  132.2920  151.1510 C   0  0  0  0  0  0  0  0  0  0  0  0
  145.6641  133.5395  150.6768 C   0  0  0  0  0  0  0  0  0  0  0  0
  146.7495  133.9371  151.3213 N   0  0  0  0  0  0  0  0  0  0  0  0
  149.7879  138.3227  154.1920 C   0  0  0  0  0  0  0  0  0  0  0  0
  148.4802  140.6724  153.3450 H   0  0  0  0  0  0  0  0  0  0  0  0
  147.9840  141.2248  154.9430 H   0  0  0  0  0  0  0  0  0  0  0  0
  147.3635  139.7069  154.3060 H   0  0  0  0  0  0  0  0  0  0  0  0
  149.1222  139.2882  155.9893 H   0  0  0  0  0  0  0  0  0  0  0  0
  150.8940  140.9427  154.1499 H   0  0  0  0  0  0  0  0  0  0  0  0
  150.4494  141.3532  155.7822 H   0  0  0  0  0  0  0  0  0  0  0  0
  152.7867  140.4025  155.4489 H   0  0  0  0  0  0  0  0  0  0  0  0
  151.0313  138.8630  157.4173 H   0  0  0  0  0  0  0  0  0  0  0  0
  151.7914  140.4229  157.6977 H   0  0  0  0  0  0  0  0  0  0  0  0
  152.7857  138.9912  157.4777 H   0  0  0  0  0  0  0  0  0  0  0  0
  152.3083  138.7415  153.7527 H   0  0  0  0  0  0  0  0  0  0  0  0
  153.0355  137.9509  155.0940 H   0  0  0  0  0  0  0  0  0  0  0  0
  148.5949  136.3793  155.5139 H   0  0  0  0  0  0  0  0  0  0  0  0
  149.4329  135.1941  157.5601 H   0  0  0  0  0  0  0  0  0  0  0  0
  150.1255  133.9360  156.5396 H   0  0  0  0  0  0  0  0  0  0  0  0
  148.3815  134.1716  156.5932 H   0  0  0  0  0  0  0  0  0  0  0  0
  149.3187  135.5982  153.3654 H   0  0  0  0  0  0  0  0  0  0  0  0
  147.7008  133.8840  155.0768 H   0  0  0  0  0  0  0  0  0  0  0  0
  147.1655  134.8928  153.7403 H   0  0  0  0  0  0  0  0  0  0  0  0
  149.0216  133.1722  152.5135 H   0  0  0  0  0  0  0  0  0  0  0  0
  148.2190  132.1241  153.6676 H   0  0  0  0  0  0  0  0  0  0  0  0
  146.0781  131.0893  152.7906 H   0  0  0  0  0  0  0  0  0  0  0  0
  144.3100  131.7331  150.8139 H   0  0  0  0  0  0  0  0  0  0  0  0
  145.2694  134.1633  149.8884 H   0  0  0  0  0  0  0  0  0  0  0  0
  148.9074  137.6855  154.0984 H   0  0  0  0  0  0  0  0  0  0  0  0
  150.0705  138.5816  153.1705 H   0  0  0  0  0  0  0  0  0  0  0  0
  1  2  1  0  0  0  0
  1 21  1  0  0  0  0
  1 22  1  0  0  0  0
  1 23  1  0  0  0  0
  2 20  1  0  0  0  0
  2  3  1  0  0  0  0
  2 24  1  0  0  0  0
  3  4  1  0  0  0  0
  3 25  1  0  0  0  0
  3 26  1  0  0  0  0
  4  5  1  0  0  0  0
  4  6  1  0  0  0  0
  4 27  1  0  0  0  0
  5 28  1  0  0  0  0
  5 29  1  0  0  0  0
  5 30  1  0  0  0  0
  6  7  1  0  0  0  0
  6 31  1  0  0  0  0
  6 32  1  0  0  0  0
  7  8  1  0  0  0  0
  7 20  1  0  0  0  0
  8  9  2  0  0  0  0
  8 10  1  0  0  0  0
 10 11  1  0  0  0  0
 10 12  1  0  0  0  0
 10 33  1  0  0  0  0
 11 34  1  0  0  0  0
 11 35  1  0  0  0  0
 11 36  1  0  0  0  0
 12 13  1  0  0  0  0
 12 37  1  0  0  0  0
 13 14  1  0  0  0  0
 13 38  1  0  0  0  0
 13 39  1  0  0  0  0
 14 15  1  0  0  0  0
 14 40  1  0  0  0  0
 14 41  1  0  0  0  0
 15 19  1  0  0  0  0
 15 16  1  0  0  0  0
 16 17  2  0  0  0  0
 16 42  1  0  0  0  0
 17 18  1  0  0  0  0
 17 43  1  0  0  0  0
 18 19  2  0  0  0  0
 18 44  1  0  0  0  0
 20 45  1  0  0  0  0
 20 46  1  0  0  0  0
M  END
> <s_m_source_file>
AV-unprocessed.smi

> <i_m_source_file_index>
3331

> <i_lp_mmshare_version>
43012

> <i_f3d_flags>
0

> <s_epik_input>
W0NIM11bQ0BASF0xW0NIMl1bQ0BASF0oW0NIM10pW0NIMl1OKFtDSDJdMSlDKD1PKVtDQEhdKFtDSDNdKVtOSF1bQ0gyXVtDSDJdbjJbY0hdW2NIXVtjSF1uMg==

> <s_epik_cmdline>
J2VwaWtfcHl0aG9uJywgJy1waCcsICc3LjAnLCAnLXRuJywgJzgnLCAnLW1hJywgJzIwMCcsICctbWV0YWxfYmluZGluZycsICctaW1hZScsICc8aW5maWxlLm1hZT4nLCAnLW9tYWUnLCAnPG91dGZpbGUubWFlPic=

> <r_lp_tautomer_probability>
1

> <r_epik_Ionization_Penalty>
0.767994

> <r_epik_Ionization_Penalty_Charging>
0

> <r_epik_Ionization_Penalty_Neutral>
0.767994

> <r_epik_State_Penalty>
0.795453

> <r_epik_Charging_Adjusted_Penalty>
0.795453

> <i_epik_Tot_Q>
0

> <i_epik_Tot_abs_Q>
0

> <r_epik_Metal_State_Penalty>
0.794784

> <b_epik_Metal_Only>
0

> <s_lp_Force_Field>
OPLS_2005

> <r_lp_Energy>
29.1229

> <b_lp_Chiralities_Consistent>
1

> <s_lp_Variant>
AV-unprocessed.smi:3331-7

> <Gold.Version>
5.8.1

> <Gold.Id.Protein>
6NUR|6NUR_protein|mol2

> <Gold.PLP.Fitness>
41.1794

> <Gold.PLP.PLP>
-34.2020

> <Gold.PLP.part.hbond>
-2.0000

> <Gold.PLP.part.metal>
0.0000

> <Gold.PLP.part.buried>
-0.5433

> <Gold.PLP.part.nonpolar>
-32.0981

> <Gold.PLP.part.repulsive>
0.2376

> <Gold.PLP.ligand.clash>
0.0000

> <Gold.PLP.ligand.torsion>
1.0348

> <Gold.PLP.Chemscore.Hbond>
2.0000

> <Gold.PLP.Chemscore.CHOScore>
1.0000

> <Gold.PLP.Chemscore.Metal>
0.0000

> <Gold.Chemscore.Hbonds>
donor molecule, donor type, donor heavy atom, donor atom, acceptor molecule, acceptor atom, score
      L1  H    12    37       P1  7948  1.00
      P1  H 10752 10764       L1     9  1.00
      L1  C    18    44       P1  7921  1.00

> <Gold.PLP.Chemscore.Internal.Correction>
0.0470

> <Gold.Rescore>
     Score         DG    S(hbond)    S(metal)    S(lipo)     H(rot)  DE(clash)    DE(int)     intcor
     15.14     -16.21       1.83        0.00      75.76       1.66       0.09       0.98       ----

> <Gold.Chemscore.Fitness>
15.1362

> <Gold.Chemscore.DG>
-16.2061

> <Gold.Chemscore.ZeroCoef>
-5.4800

> <Gold.Chemscore.Hbond>
1.8335

> <Gold.Chemscore.Metal>
0.0000

> <Gold.Chemscore.Lipo>
75.7645

> <Gold.Chemscore.Internal_Hbond>
0.0000

> <Gold.Chemscore.DEClash>
0.0939

> <Gold.Chemscore.DEInternal>
0.9760

> <Gold.Chemscore.Rot>
1.6649

> <Gold.Chemscore.Internal.Correction>
   9.000000E+99

> <Gold.Chemscore.Hbonds>
donor molecule, donor type, donor heavy atom, donor atom, acceptor molecule, acceptor atom, score
      L1  H    12    37       P1  7948  0.30
      P1  H 10752 10764       L1     9  0.93

> <Gold.Chemscore.Hbond.Weighted>
-6.1238

> <Gold.Chemscore.Metal.Weighted>
-0.0000

> <Gold.Chemscore.Lipo.Weighted>
-8.8644

> <Gold.Chemscore.Internal_Hbond.Weighted>
0.0000

> <Gold.Chemscore.DEClash.Weighted>
0.0939

> <Gold.Chemscore.DEInternal.Weighted>
0.9760

> <Gold.Chemscore.Rot.Weighted>
4.2621

> <Gold.Chemscore.Internal.Correction.Weighted>
   9.000000E+99

> <Gold.Protein.RotatedTorsions>
[ 6907 6896 6895 6894 ] final  161.90 input  -60.11 | X-H torsion
[ 7974 7965 7964 7962 ] final  167.20 input  175.53 | X-H torsion
[ 8008 7997 7996 7995 ] final  162.24 input   59.86 | X-H torsion
[ 10167 10162 10161 10158 ] final -131.57 input  -65.29 | X-H torsion
[ 10718 10713 10712 10709 ] final   63.35 input   66.30 | X-H torsion
[ 10763 10752 10751 10750 ] final  -17.73 input  -60.55 | X-H torsion
[ 11005 11000 10999 10996 ] final  114.27 input  -57.11 | X-H torsion

> <Gold.Protein.ActiveResidues>
 VAL166  LYS551  ARG553  GLY616  TRP617  ASP618  TYR619  PRO620  LYS621  CYS622 
 ASP623  PHE694  ASN695  SER759  ASP760  ASP761  ALA762  ILE779  LEU786  VAL792 
 PHE793  MET794  SER795  GLU796  ALA797  LYS798  CYS799  TRP800  GLU811  SER814 

> <Gold.Protein.RotatedAtoms>
  151.9485  133.3659  159.3991 H   0  0  0  0  0  0  0  0  0  0  0  0  # atno 6907 bound_to 6896
  150.6985  134.4364  159.5281 H   0  0  0  0  0  0  0  0  0  0  0  0  # atno 6908 bound_to 6896
  152.2034  134.8567  160.0556 H   0  0  0  0  0  0  0  0  0  0  0  0  # atno 6909 bound_to 6896
  144.7433  139.8727  143.6390 H   0  0  0  0  0  0  0  0  0  0  0  0  # atno 7974 bound_to 7965
  156.2045  140.1755  156.7828 H   0  0  0  0  0  0  0  0  0  0  0  0  # atno 8008 bound_to 7997
  154.5637  140.0695  156.8889 H   0  0  0  0  0  0  0  0  0  0  0  0  # atno 8009 bound_to 7997
  155.2801  140.3348  155.4261 H   0  0  0  0  0  0  0  0  0  0  0  0  # atno 8010 bound_to 7997
  139.9175  143.6421  152.2561 H   0  0  0  0  0  0  0  0  0  0  0  0  # atno 10167 bound_to 10162
  157.5965  130.9100  149.9705 H   0  0  0  0  0  0  0  0  0  0  0  0  # atno 10718 bound_to 10713
  153.5784  135.7006  153.5474 H   0  0  0  0  0  0  0  0  0  0  0  0  # atno 10763 bound_to 10752
  153.3283  135.4054  155.1474 H   0  0  0  0  0  0  0  0  0  0  0  0  # atno 10764 bound_to 10752
  154.8621  135.3712  154.5310 H   0  0  0  0  0  0  0  0  0  0  0  0  # atno 10765 bound_to 10752
  139.8976  134.9565  156.6867 H   0  0  0  0  0  0  0  0  0  0  0  0  # atno 11005 bound_to 11000
  146.1269  139.4296  143.0193 LP  0  0  0  0  0  0  0  0  0  0  0  0  # atno 17320 bound_to 7965
  145.7222  141.0071  143.1396 LP  0  0  0  0  0  0  0  0  0  0  0  0  # atno 17321 bound_to 7965
  139.6890  144.7649  151.1473 LP  0  0  0  0  0  0  0  0  0  0  0  0  # atno 17342 bound_to 10162
  140.7670  143.5616  150.9092 LP  0  0  0  0  0  0  0  0  0  0  0  0  # atno 17343 bound_to 10162
  156.1029  130.3654  150.0186 LP  0  0  0  0  0  0  0  0  0  0  0  0  # atno 17370 bound_to 10713
  156.8298  130.9388  151.3637 LP  0  0  0  0  0  0  0  0  0  0  0  0  # atno 17371 bound_to 10713
  140.7257  133.9102  155.8177 LP  0  0  0  0  0  0  0  0  0  0  0  0  # atno 17394 bound_to 11000
  141.0193  134.0912  157.4138 LP  0  0  0  0  0  0  0  0  0  0  0  0  # atno 17395 bound_to 11000

$$$$
