AV-unprocessed.smi:1886|AV-procd|sdf|7654|dock6
  -GOLD-   22720 9383D 1   1.00000     0.00000
 Structure written by MMmdl.
 39 40  0  0  0  0  0  0  0  0  1 V2000
  148.5963  141.2416  158.7568 O   0  0  0  0  0  0  0  0  0  0  0  0
  148.5140  142.3431  158.2135 C   0  0  0  0  0  0  0  0  0  0  0  0
  149.3255  142.7620  157.2330 N   0  0  0  0  0  0  0  0  0  0  0  0
  150.3994  141.9724  156.6398 C   0  0  0  0  0  0  0  0  0  0  0  0
  151.5198  141.6809  157.6283 C   0  0  0  0  0  0  0  0  0  0  0  0
  151.9476  142.6906  158.5164 C   0  0  0  0  0  0  0  0  0  0  0  0
  152.9783  142.4088  159.4314 C   0  0  0  0  0  0  0  0  0  0  0  0
  153.5439  141.1203  159.4236 C   0  0  0  0  0  0  0  0  0  0  0  0
  153.1462  140.1441  158.5817 N   0  0  0  0  0  0  0  0  0  0  0  0
  152.1526  140.4126  157.7000 C   0  0  0  0  0  0  0  0  0  0  0  0
  151.7596  139.3777  156.8370 N   0  0  0  0  0  0  0  0  0  0  0  0
  152.0608  139.6411  155.4362 C   0  0  0  0  0  0  0  0  0  0  0  0
  151.4429  138.5423  154.5559 C   0  0  0  0  0  0  0  0  0  0  0  0
  151.9126  137.2665  154.9828 O   0  0  0  0  0  0  0  0  0  0  0  0
  151.5529  136.9883  156.3336 C   0  0  0  0  0  0  0  0  0  0  0  0
  152.1744  138.0469  157.2609 C   0  0  0  0  0  0  0  0  0  0  0  0
  147.6026  143.2711  158.5339 N   0  0  0  0  0  0  0  0  0  0  0  0
  146.5933  143.1320  159.5791 C   0  0  0  0  0  0  0  0  0  0  0  0
  146.6162  144.3018  160.5782 C   0  0  0  0  0  0  0  0  0  0  0  0
  145.9575  143.9450  161.6799 F   0  0  0  0  0  0  0  0  0  0  0  0
  147.8721  144.6024  160.9108 F   0  0  0  0  0  0  0  0  0  0  0  0
  146.0259  145.3810  160.0657 F   0  0  0  0  0  0  0  0  0  0  0  0
  149.1800  143.6868  156.8552 H   0  0  0  0  0  0  0  0  0  0  0  0
  149.9755  141.0387  156.2688 H   0  0  0  0  0  0  0  0  0  0  0  0
  150.8317  142.4788  155.7752 H   0  0  0  0  0  0  0  0  0  0  0  0
  151.4934  143.6704  158.4992 H   0  0  0  0  0  0  0  0  0  0  0  0
  153.3260  143.1611  160.1236 H   0  0  0  0  0  0  0  0  0  0  0  0
  154.3363  140.8664  160.1122 H   0  0  0  0  0  0  0  0  0  0  0  0
  151.6677  140.6169  155.1485 H   0  0  0  0  0  0  0  0  0  0  0  0
  153.1416  139.6713  155.2906 H   0  0  0  0  0  0  0  0  0  0  0  0
  150.3544  138.5741  154.6087 H   0  0  0  0  0  0  0  0  0  0  0  0
  151.7175  138.6948  153.5122 H   0  0  0  0  0  0  0  0  0  0  0  0
  150.4663  136.9718  156.4356 H   0  0  0  0  0  0  0  0  0  0  0  0
  151.9142  135.9954  156.6009 H   0  0  0  0  0  0  0  0  0  0  0  0
  153.2624  137.9710  157.2320 H   0  0  0  0  0  0  0  0  0  0  0  0
  151.8639  137.8734  158.2921 H   0  0  0  0  0  0  0  0  0  0  0  0
  147.6112  144.1429  158.0251 H   0  0  0  0  0  0  0  0  0  0  0  0
  145.6001  143.0267  159.1387 H   0  0  0  0  0  0  0  0  0  0  0  0
  146.7943  142.1992  160.1067 H   0  0  0  0  0  0  0  0  0  0  0  0
  1  2  2  0  0  0  0
  2  3  1  0  0  0  0
  2 17  1  0  0  0  0
  3  4  1  0  0  0  0
  3 23  1  0  0  0  0
  4  5  1  0  0  0  0
  4 24  1  0  0  0  0
  4 25  1  0  0  0  0
  5 10  1  0  0  0  0
  5  6  2  0  0  0  0
  6  7  1  0  0  0  0
  6 26  1  0  0  0  0
  7  8  2  0  0  0  0
  7 27  1  0  0  0  0
  8  9  1  0  0  0  0
  8 28  1  0  0  0  0
  9 10  2  0  0  0  0
 10 11  1  0  0  0  0
 11 16  1  0  0  0  0
 11 12  1  0  0  0  0
 12 13  1  0  0  0  0
 12 29  1  0  0  0  0
 12 30  1  0  0  0  0
 13 14  1  0  0  0  0
 13 31  1  0  0  0  0
 13 32  1  0  0  0  0
 14 15  1  0  0  0  0
 15 16  1  0  0  0  0
 15 33  1  0  0  0  0
 15 34  1  0  0  0  0
 16 35  1  0  0  0  0
 16 36  1  0  0  0  0
 17 18  1  0  0  0  0
 17 37  1  0  0  0  0
 18 19  1  0  0  0  0
 18 38  1  0  0  0  0
 18 39  1  0  0  0  0
 19 20  1  0  0  0  0
 19 21  1  0  0  0  0
 19 22  1  0  0  0  0
M  END
> <s_m_source_file>
AV-unprocessed.smi

> <i_m_source_file_index>
1886

> <i_lp_mmshare_version>
43012

> <i_f3d_flags>
0

> <s_epik_input>
RkMoRikoRilbQ0gyXVtOSF1DKD1PKVtOSF1bQ0gyXWMxW2NIXVtjSF1bY0hdbmMxTjJbQ0gyXVtDSDJdT1tDSDJdW0NIMl0y

> <s_epik_cmdline>
J2VwaWtfcHl0aG9uJywgJy1waCcsICc3LjAnLCAnLXRuJywgJzgnLCAnLW1hJywgJzIwMCcsICctbWV0YWxfYmluZGluZycsICctaW1hZScsICc8aW5maWxlLm1hZT4nLCAnLW9tYWUnLCAnPG91dGZpbGUubWFlPic=

> <r_lp_tautomer_probability>
1

> <r_epik_Ionization_Penalty>
0.00288023

> <r_epik_Ionization_Penalty_Charging>
0

> <r_epik_Ionization_Penalty_Neutral>
0.00288023

> <r_epik_State_Penalty>
0.00199456

> <r_epik_Charging_Adjusted_Penalty>
0.00199456

> <i_epik_Tot_Q>
0

> <i_epik_Tot_abs_Q>
0

> <r_epik_Metal_State_Penalty>
-0

> <b_epik_Metal_Only>
0

> <s_lp_Force_Field>
OPLS_2005

> <r_lp_Energy>
16.0982

> <b_lp_Chiralities_Consistent>
1

> <s_lp_Variant>
AV-unprocessed.smi:1886-1

> <Gold.Version>
5.8.1

> <Gold.Id.Protein>
6NUR|6NUR_protein|mol2

> <Gold.PLP.Fitness>
48.3021

> <Gold.PLP.PLP>
-38.6515

> <Gold.PLP.part.hbond>
-5.9583

> <Gold.PLP.part.metal>
0.0000

> <Gold.PLP.part.buried>
-4.1530

> <Gold.PLP.part.nonpolar>
-29.2849

> <Gold.PLP.part.repulsive>
0.2367

> <Gold.PLP.ligand.clash>
0.0000

> <Gold.PLP.ligand.torsion>
0.7899

> <Gold.PLP.Chemscore.Hbond>
3.6939

> <Gold.PLP.Chemscore.CHOScore>
0.0000

> <Gold.PLP.Chemscore.Metal>
0.0000

> <Gold.Chemscore.Hbonds>
donor molecule, donor type, donor heavy atom, donor atom, acceptor molecule, acceptor atom, score
      L1  H     3    23       P1  8028  1.00
      L1  H    17    37       P1  8029  0.95
      P1  H  7997  8010       L1     9  0.59
      P1  H 10752 10765       L1    14  0.94

> <Gold.PLP.Chemscore.Internal.Correction>
0.1487

> <Gold.Rescore>
     Score         DG    S(hbond)    S(metal)    S(lipo)     H(rot)  DE(clash)    DE(int)     intcor
     14.20     -15.19       1.91        0.00      74.11       2.09       0.03       0.96       ----

> <Gold.Chemscore.Fitness>
14.1991

> <Gold.Chemscore.DG>
-15.1902

> <Gold.Chemscore.ZeroCoef>
-5.4800

> <Gold.Chemscore.Hbond>
1.9131

> <Gold.Chemscore.Metal>
0.0000

> <Gold.Chemscore.Lipo>
74.1088

> <Gold.Chemscore.Internal_Hbond>
0.0000

> <Gold.Chemscore.DEClash>
0.0336

> <Gold.Chemscore.DEInternal>
0.9576

> <Gold.Chemscore.Rot>
2.0899

> <Gold.Chemscore.Internal.Correction>
   9.000000E+99

> <Gold.Chemscore.Hbonds>
donor molecule, donor type, donor heavy atom, donor atom, acceptor molecule, acceptor atom, score
      L1  H     3    23       P1  8028  0.76
      L1  H    17    37       P1  8029  0.21
      P1  H  7997  8010       L1     9  0.04
      P1  H 10752 10765       L1    14  0.23

> <Gold.Chemscore.Hbond.Weighted>
-6.3897

> <Gold.Chemscore.Metal.Weighted>
-0.0000

> <Gold.Chemscore.Lipo.Weighted>
-8.6707

> <Gold.Chemscore.Internal_Hbond.Weighted>
0.0000

> <Gold.Chemscore.DEClash.Weighted>
0.0336

> <Gold.Chemscore.DEInternal.Weighted>
0.9576

> <Gold.Chemscore.Rot.Weighted>
5.3502

> <Gold.Chemscore.Internal.Correction.Weighted>
   9.000000E+99

> <Gold.Protein.RotatedTorsions>
[ 6907 6896 6895 6894 ] final  105.97 input  -60.11 | X-H torsion
[ 7974 7965 7964 7962 ] final  -89.78 input  175.53 | X-H torsion
[ 8008 7997 7996 7995 ] final   20.30 input   59.86 | X-H torsion
[ 10167 10162 10161 10158 ] final -114.77 input  -65.29 | X-H torsion
[ 10718 10713 10712 10709 ] final   67.30 input   66.30 | X-H torsion
[ 10763 10752 10751 10750 ] final  176.93 input  -60.55 | X-H torsion
[ 11005 11000 10999 10996 ] final -109.58 input  -57.11 | X-H torsion

> <Gold.Protein.ActiveResidues>
 VAL166  LYS551  ARG553  GLY616  TRP617  ASP618  TYR619  PRO620  LYS621  CYS622 
 ASP623  PHE694  ASN695  SER759  ASP760  ASP761  ALA762  ILE779  LEU786  VAL792 
 PHE793  MET794  SER795  GLU796  ALA797  LYS798  CYS799  TRP800  GLU811  SER814 

> <Gold.Protein.RotatedAtoms>
  152.5211  133.9450  159.7644 H   0  0  0  0  0  0  0  0  0  0  0  0  # atno 6907 bound_to 6896
  150.9772  133.6274  159.2735 H   0  0  0  0  0  0  0  0  0  0  0  0  # atno 6908 bound_to 6896
  151.3465  135.0881  159.9441 H   0  0  0  0  0  0  0  0  0  0  0  0  # atno 6909 bound_to 6896
  145.4353  140.9557  143.2105 H   0  0  0  0  0  0  0  0  0  0  0  0  # atno 7974 bound_to 7965
  154.9335  140.3043  155.5156 H   0  0  0  0  0  0  0  0  0  0  0  0  # atno 8008 bound_to 7997
  156.3001  140.2349  156.4335 H   0  0  0  0  0  0  0  0  0  0  0  0  # atno 8009 bound_to 7997
  154.8214  140.0423  157.1402 H   0  0  0  0  0  0  0  0  0  0  0  0  # atno 8010 bound_to 7997
  140.0973  143.4644  152.1833 H   0  0  0  0  0  0  0  0  0  0  0  0  # atno 10167 bound_to 10162
  157.6222  130.9313  150.0224 H   0  0  0  0  0  0  0  0  0  0  0  0  # atno 10718 bound_to 10713
  154.4877  135.2777  155.1521 H   0  0  0  0  0  0  0  0  0  0  0  0  # atno 10763 bound_to 10752
  154.3205  135.6210  153.5509 H   0  0  0  0  0  0  0  0  0  0  0  0  # atno 10764 bound_to 10752
  152.9883  135.5741  154.5292 H   0  0  0  0  0  0  0  0  0  0  0  0  # atno 10765 bound_to 10752
  141.0840  133.9171  157.2227 H   0  0  0  0  0  0  0  0  0  0  0  0  # atno 11005 bound_to 11000
  144.8156  139.5882  143.7010 LP  0  0  0  0  0  0  0  0  0  0  0  0  # atno 17320 bound_to 7965
  146.2585  139.6357  142.9378 LP  0  0  0  0  0  0  0  0  0  0  0  0  # atno 17321 bound_to 7965
  139.5690  144.7452  151.3941 LP  0  0  0  0  0  0  0  0  0  0  0  0  # atno 17342 bound_to 10162
  140.6996  143.7663  150.7382 LP  0  0  0  0  0  0  0  0  0  0  0  0  # atno 17343 bound_to 10162
  156.1373  130.3642  149.9636 LP  0  0  0  0  0  0  0  0  0  0  0  0  # atno 17370 bound_to 10713
  156.7685  130.9177  151.3643 LP  0  0  0  0  0  0  0  0  0  0  0  0  # atno 17371 bound_to 10713
  139.9656  135.0143  156.9377 LP  0  0  0  0  0  0  0  0  0  0  0  0  # atno 17394 bound_to 11000
  140.5405  134.0724  155.7340 LP  0  0  0  0  0  0  0  0  0  0  0  0  # atno 17395 bound_to 11000

$$$$
