AV-unprocessed.smi:1744|AV-procd|sdf|7024|dock1
  -GOLD-   22720 8243D 1   1.00000     0.00000
 Structure written by MMmdl.
 43 44  0  0  0  0  0  0  0  0  1 V2000
  152.9777  143.1573  162.1746 C   0  0  0  0  0  0  0  0  0  0  0  0
  153.2307  142.3121  160.9198 C   0  0  0  0  0  0  0  0  0  0  0  0
  152.5651  142.8588  159.7528 N   0  0  0  0  0  0  0  0  0  0  0  0
  151.6461  142.2425  158.9266 C   0  0  0  0  0  0  0  0  0  0  0  0
  151.3289  143.1616  157.9723 C   0  0  0  0  0  0  0  0  0  0  0  0
  150.4174  142.9424  156.9094 N   0  0  0  0  0  0  0  0  0  0  0  0
  150.2947  141.8350  156.1600 C   0  0  0  0  0  0  0  0  0  0  0  0
  150.9977  140.8296  156.2615 O   0  0  0  0  0  0  0  0  0  0  0  0
  149.2988  141.9575  155.2710 N   0  0  0  0  0  0  0  0  0  0  0  0
  148.8913  140.9314  154.3161 C   0  0  0  0  0  0  0  0  0  0  0  0
  147.5814  141.3221  153.6130 C   0  0  0  0  0  0  0  0  0  0  0  0
  147.0770  140.1828  152.7103 C   0  0  0  0  0  0  0  0  0  0  0  0
  146.8715  138.9566  153.4887 N   0  0  0  0  0  0  0  0  0  0  0  0
  146.2661  137.9220  152.6191 C   0  0  0  0  0  0  0  0  0  0  0  0
  144.8797  137.4446  153.0691 C   0  0  0  0  0  0  0  0  0  0  0  0
  143.8928  137.5029  152.1715 N   0  0  0  0  0  0  0  0  0  0  0  0
  144.7047  137.0238  154.2107 O   0  0  0  0  0  0  0  0  0  0  0  0
  148.1396  138.5173  154.0894 C   0  0  0  0  0  0  0  0  0  0  0  0
  148.6870  139.5947  155.0424 C   0  0  0  0  0  0  0  0  0  0  0  0
  152.0956  144.3212  158.2791 C   0  0  0  0  0  0  0  0  0  0  0  0
  152.8417  144.1259  159.3558 N   0  0  0  0  0  0  0  0  0  0  0  0
  153.4671  142.7162  163.0430 H   0  0  0  0  0  0  0  0  0  0  0  0
  151.9117  143.2281  162.3931 H   0  0  0  0  0  0  0  0  0  0  0  0
  153.3641  144.1700  162.0551 H   0  0  0  0  0  0  0  0  0  0  0  0
  154.2998  142.2475  160.7139 H   0  0  0  0  0  0  0  0  0  0  0  0
  152.8762  141.2928  161.0780 H   0  0  0  0  0  0  0  0  0  0  0  0
  151.3090  141.2287  159.0861 H   0  0  0  0  0  0  0  0  0  0  0  0
  149.7814  143.7006  156.7103 H   0  0  0  0  0  0  0  0  0  0  0  0
  148.7773  142.8217  155.2575 H   0  0  0  0  0  0  0  0  0  0  0  0
  149.6750  140.7998  153.5674 H   0  0  0  0  0  0  0  0  0  0  0  0
  146.8171  141.5630  154.3537 H   0  0  0  0  0  0  0  0  0  0  0  0
  147.7289  142.2234  153.0168 H   0  0  0  0  0  0  0  0  0  0  0  0
  146.1371  140.4906  152.2498 H   0  0  0  0  0  0  0  0  0  0  0  0
  147.7841  140.0040  151.8980 H   0  0  0  0  0  0  0  0  0  0  0  0
  146.1503  138.3209  151.6104 H   0  0  0  0  0  0  0  0  0  0  0  0
  146.9429  137.0690  152.5378 H   0  0  0  0  0  0  0  0  0  0  0  0
  142.9630  137.2004  152.4225 H   0  0  0  0  0  0  0  0  0  0  0  0
  144.0821  137.8515  151.2431 H   0  0  0  0  0  0  0  0  0  0  0  0
  148.0031  137.6003  154.6623 H   0  0  0  0  0  0  0  0  0  0  0  0
  148.8694  138.2958  153.3084 H   0  0  0  0  0  0  0  0  0  0  0  0
  149.6296  139.2578  155.4753 H   0  0  0  0  0  0  0  0  0  0  0  0
  147.9935  139.7241  155.8751 H   0  0  0  0  0  0  0  0  0  0  0  0
  152.1446  145.2752  157.7758 H   0  0  0  0  0  0  0  0  0  0  0  0
  1  2  1  0  0  0  0
  1 22  1  0  0  0  0
  1 23  1  0  0  0  0
  1 24  1  0  0  0  0
  2  3  1  0  0  0  0
  2 25  1  0  0  0  0
  2 26  1  0  0  0  0
  3 21  1  0  0  0  0
  3  4  1  0  0  0  0
  4  5  2  0  0  0  0
  4 27  1  0  0  0  0
  5  6  1  0  0  0  0
  5 20  1  0  0  0  0
  6  7  1  0  0  0  0
  6 28  1  0  0  0  0
  7  8  2  0  0  0  0
  7  9  1  0  0  0  0
  9 10  1  0  0  0  0
  9 29  1  0  0  0  0
 10 19  1  0  0  0  0
 10 11  1  0  0  0  0
 10 30  1  0  0  0  0
 11 12  1  0  0  0  0
 11 31  1  0  0  0  0
 11 32  1  0  0  0  0
 12 13  1  0  0  0  0
 12 33  1  0  0  0  0
 12 34  1  0  0  0  0
 13 14  1  0  0  0  0
 13 18  1  0  0  0  0
 14 15  1  0  0  0  0
 14 35  1  0  0  0  0
 14 36  1  0  0  0  0
 15 16  1  0  0  0  0
 15 17  2  0  0  0  0
 16 37  1  0  0  0  0
 16 38  1  0  0  0  0
 18 19  1  0  0  0  0
 18 39  1  0  0  0  0
 18 40  1  0  0  0  0
 19 41  1  0  0  0  0
 19 42  1  0  0  0  0
 20 21  2  0  0  0  0
 20 43  1  0  0  0  0
M  END
> <s_m_source_file>
AV-unprocessed.smi

> <i_m_source_file_index>
1744

> <i_lp_mmshare_version>
43012

> <i_f3d_flags>
0

> <s_epik_input>
W0NIM11bQ0gyXW4xW2NIXWMoW2NIXW4xKVtOSF1DKD1PKVtOSF1bQ0hdMltDSDJdW0NIMl1OKFtDSDJdW0NIMl0yKVtDSDJdQyg9TylbTkgyXQ==

> <s_epik_cmdline>
J2VwaWtfcHl0aG9uJywgJy1waCcsICc3LjAnLCAnLXRuJywgJzgnLCAnLW1hJywgJzIwMCcsICctbWV0YWxfYmluZGluZycsICctaW1hZScsICc8aW5maWxlLm1hZT4nLCAnLW9tYWUnLCAnPG91dGZpbGUubWFlPic=

> <r_lp_tautomer_probability>
1

> <r_epik_Ionization_Penalty>
0.164921

> <r_epik_Ionization_Penalty_Charging>
0

> <r_epik_Ionization_Penalty_Neutral>
0.164921

> <r_epik_State_Penalty>
0.154069

> <r_epik_Charging_Adjusted_Penalty>
0.154069

> <i_epik_Tot_Q>
0

> <i_epik_Tot_abs_Q>
0

> <r_epik_Metal_State_Penalty>
0.171357

> <b_epik_Metal_Only>
0

> <s_lp_Force_Field>
OPLS_2005

> <r_lp_Energy>
15.5637

> <b_lp_Chiralities_Consistent>
1

> <s_lp_Variant>
AV-unprocessed.smi:1744-1

> <Gold.Version>
5.8.1

> <Gold.Id.Protein>
6NUR|6NUR_protein|mol2

> <Gold.PLP.Fitness>
49.4612

> <Gold.PLP.PLP>
-43.0517

> <Gold.PLP.part.hbond>
-3.8962

> <Gold.PLP.part.metal>
0.0000

> <Gold.PLP.part.buried>
-4.6383

> <Gold.PLP.part.nonpolar>
-35.4497

> <Gold.PLP.part.repulsive>
0.5682

> <Gold.PLP.ligand.clash>
0.0000

> <Gold.PLP.ligand.torsion>
1.2035

> <Gold.PLP.Chemscore.Hbond>
2.9120

> <Gold.PLP.Chemscore.CHOScore>
0.0000

> <Gold.PLP.Chemscore.Metal>
0.0000

> <Gold.Chemscore.Hbonds>
donor molecule, donor type, donor heavy atom, donor atom, acceptor molecule, acceptor atom, score
      L1  H     6    28       P1  8028  1.00
      L1  H     9    29       P1  8028  0.90
      L1  H    16    38       P1 10171  1.00

> <Gold.PLP.Chemscore.Internal.Correction>
0.0805

> <Gold.Rescore>
     Score         DG    S(hbond)    S(metal)    S(lipo)     H(rot)  DE(clash)    DE(int)     intcor
     17.73     -20.29       2.93        0.00      90.78       2.19       0.08       2.48       ----

> <Gold.Chemscore.Fitness>
17.7299

> <Gold.Chemscore.DG>
-20.2906

> <Gold.Chemscore.ZeroCoef>
-5.4800

> <Gold.Chemscore.Hbond>
2.9317

> <Gold.Chemscore.Metal>
0.0000

> <Gold.Chemscore.Lipo>
90.7754

> <Gold.Chemscore.Internal_Hbond>
0.0000

> <Gold.Chemscore.DEClash>
0.0757

> <Gold.Chemscore.DEInternal>
2.4850

> <Gold.Chemscore.Rot>
2.1883

> <Gold.Chemscore.Internal.Correction>
   9.000000E+99

> <Gold.Chemscore.Hbonds>
donor molecule, donor type, donor heavy atom, donor atom, acceptor molecule, acceptor atom, score
      L1  H     6    28       P1  8028  0.97
      L1  H     9    29       P1  8028  0.88
      L1  H    16    38       P1 10171  0.99

> <Gold.Chemscore.Hbond.Weighted>
-9.7919

> <Gold.Chemscore.Metal.Weighted>
-0.0000

> <Gold.Chemscore.Lipo.Weighted>
-10.6207

> <Gold.Chemscore.Internal_Hbond.Weighted>
0.0000

> <Gold.Chemscore.DEClash.Weighted>
0.0757

> <Gold.Chemscore.DEInternal.Weighted>
2.4850

> <Gold.Chemscore.Rot.Weighted>
5.6020

> <Gold.Chemscore.Internal.Correction.Weighted>
   9.000000E+99

> <Gold.Protein.RotatedTorsions>
[ 6907 6896 6895 6894 ] final  -14.97 input  -60.11 | X-H torsion
[ 7974 7965 7964 7962 ] final   71.18 input  175.53 | X-H torsion
[ 8008 7997 7996 7995 ] final  -32.76 input   59.86 | X-H torsion
[ 10167 10162 10161 10158 ] final  178.65 input  -65.29 | X-H torsion
[ 10718 10713 10712 10709 ] final  -55.71 input   66.30 | X-H torsion
[ 10763 10752 10751 10750 ] final  -73.61 input  -60.55 | X-H torsion
[ 11005 11000 10999 10996 ] final   26.35 input  -57.11 | X-H torsion

> <Gold.Protein.ActiveResidues>
 VAL166  LYS551  ARG553  GLY616  TRP617  ASP618  TYR619  PRO620  LYS621  CYS622 
 ASP623  PHE694  ASN695  SER759  ASP760  ASP761  ALA762  ILE779  LEU786  VAL792 
 PHE793  MET794  SER795  GLU796  ALA797  LYS798  CYS799  TRP800  GLU811  SER814 

> <Gold.Protein.RotatedAtoms>
  151.3312  135.0842  159.9339 H   0  0  0  0  0  0  0  0  0  0  0  0  # atno 6907 bound_to 6896
  152.5234  133.9540  159.7696 H   0  0  0  0  0  0  0  0  0  0  0  0  # atno 6908 bound_to 6896
  150.9880  133.6126  159.2742 H   0  0  0  0  0  0  0  0  0  0  0  0  # atno 6909 bound_to 6896
  145.7690  139.2835  143.1332 H   0  0  0  0  0  0  0  0  0  0  0  0  # atno 7974 bound_to 7965
  154.4170  140.1729  156.1778 H   0  0  0  0  0  0  0  0  0  0  0  0  # atno 8008 bound_to 7997
  155.9707  140.3386  155.6549 H   0  0  0  0  0  0  0  0  0  0  0  0  # atno 8009 bound_to 7997
  155.6629  140.0703  157.2538 H   0  0  0  0  0  0  0  0  0  0  0  0  # atno 8010 bound_to 7997
  139.5303  144.2654  152.0672 H   0  0  0  0  0  0  0  0  0  0  0  0  # atno 10167 bound_to 10162
  156.1346  130.4157  150.0208 H   0  0  0  0  0  0  0  0  0  0  0  0  # atno 10718 bound_to 10713
  154.4619  135.5891  153.6261 H   0  0  0  0  0  0  0  0  0  0  0  0  # atno 10763 bound_to 10752
  152.9824  135.6046  154.3476 H   0  0  0  0  0  0  0  0  0  0  0  0  # atno 10764 bound_to 10752
  154.3348  135.2842  155.2432 H   0  0  0  0  0  0  0  0  0  0  0  0  # atno 10765 bound_to 10752
  140.3380  134.2365  155.7693 H   0  0  0  0  0  0  0  0  0  0  0  0  # atno 11005 bound_to 11000
  146.0188  140.8367  142.9933 LP  0  0  0  0  0  0  0  0  0  0  0  0  # atno 17320 bound_to 7965
  144.6816  140.2598  143.7320 LP  0  0  0  0  0  0  0  0  0  0  0  0  # atno 17321 bound_to 7965
  140.2117  144.4556  150.6383 LP  0  0  0  0  0  0  0  0  0  0  0  0  # atno 17342 bound_to 10162
  140.6476  143.2217  151.6150 LP  0  0  0  0  0  0  0  0  0  0  0  0  # atno 17343 bound_to 10162
  156.8111  130.9325  151.3644 LP  0  0  0  0  0  0  0  0  0  0  0  0  # atno 17370 bound_to 10713
  157.6520  130.8892  149.9653 LP  0  0  0  0  0  0  0  0  0  0  0  0  # atno 17371 bound_to 10713
  141.2046  133.7882  157.0278 LP  0  0  0  0  0  0  0  0  0  0  0  0  # atno 17394 bound_to 11000
  140.0805  134.9651  157.1616 LP  0  0  0  0  0  0  0  0  0  0  0  0  # atno 17395 bound_to 11000

$$$$
