AV-unprocessed.smi:2868|AV-procd|sdf|11027|dock10
  -GOLD-   2272015493D 1   1.00000     0.00000
 Structure written by MMmdl.
 49 50  0  0  0  0  0  0  0  0  1 V2000
  147.3208  134.6632  162.5057 C   0  0  0  0  0  0  0  0  0  0  0  0
  146.7144  136.0238  162.1202 C   0  0  0  0  0  0  0  0  0  0  0  0
  145.1769  135.9316  162.2159 C   0  0  0  0  0  0  0  0  0  0  0  0
  147.2564  137.1033  163.0809 C   0  0  0  0  0  0  0  0  0  0  0  0
  147.1319  136.2999  160.7404 N   0  0  0  0  0  0  0  0  0  0  0  0
  148.3632  136.5814  160.2714 C   0  0  0  0  0  0  0  0  0  0  0  0
  149.3558  136.6303  160.9988 O   0  0  0  0  0  0  0  0  0  0  0  0
  148.4204  136.7913  158.9312 N   0  0  0  0  0  0  0  0  0  0  0  0
  147.3476  137.3408  158.0846 C   0  0  0  0  0  0  0  0  0  0  0  0
  147.7030  138.7924  157.7162 C   0  0  0  0  0  0  0  0  0  0  0  0
  149.0807  138.8747  157.0231 C   0  0  0  0  0  0  0  0  0  0  0  0
  149.4625  140.2738  156.8600 N   0  0  0  0  0  0  0  0  0  0  0  0
  150.4681  140.7193  156.0908 C   0  0  0  0  0  0  0  0  0  0  0  0
  151.1987  139.9808  155.4309 O   0  0  0  0  0  0  0  0  0  0  0  0
  150.6799  142.2328  156.0556 C   0  0  0  0  0  0  0  0  0  0  0  0
  151.3531  142.6986  157.3338 C   0  0  0  0  0  0  0  0  0  0  0  0
  151.8143  141.7709  158.2910 C   0  0  0  0  0  0  0  0  0  0  0  0
  152.4303  142.2534  159.4616 C   0  0  0  0  0  0  0  0  0  0  0  0
  152.5603  143.6471  159.6255 C   0  0  0  0  0  0  0  0  0  0  0  0
  152.1234  144.5445  158.7159 N   0  0  0  0  0  0  0  0  0  0  0  0
  151.5328  144.0736  157.5965 C   0  0  0  0  0  0  0  0  0  0  0  0
  150.1598  138.1006  157.8160 C   0  0  0  0  0  0  0  0  0  0  0  0
  149.6776  136.6849  158.1810 C   0  0  0  0  0  0  0  0  0  0  0  0
  147.0612  134.3879  163.5286 H   0  0  0  0  0  0  0  0  0  0  0  0
  148.4093  134.6783  162.4374 H   0  0  0  0  0  0  0  0  0  0  0  0
  146.9616  133.8672  161.8519 H   0  0  0  0  0  0  0  0  0  0  0  0
  144.7786  135.1978  161.5143 H   0  0  0  0  0  0  0  0  0  0  0  0
  144.6941  136.8858  162.0047 H   0  0  0  0  0  0  0  0  0  0  0  0
  144.8635  135.6314  163.2163 H   0  0  0  0  0  0  0  0  0  0  0  0
  147.0406  136.8487  164.1193 H   0  0  0  0  0  0  0  0  0  0  0  0
  146.8110  138.0803  162.8942 H   0  0  0  0  0  0  0  0  0  0  0  0
  148.3377  137.2104  162.9882 H   0  0  0  0  0  0  0  0  0  0  0  0
  146.3910  136.2788  160.0548 H   0  0  0  0  0  0  0  0  0  0  0  0
  147.2642  136.7391  157.1784 H   0  0  0  0  0  0  0  0  0  0  0  0
  146.3590  137.3057  158.5419 H   0  0  0  0  0  0  0  0  0  0  0  0
  146.9330  139.2109  157.0670 H   0  0  0  0  0  0  0  0  0  0  0  0
  147.7058  139.3993  158.6231 H   0  0  0  0  0  0  0  0  0  0  0  0
  148.9819  138.4153  156.0375 H   0  0  0  0  0  0  0  0  0  0  0  0
  148.9166  140.9561  157.3655 H   0  0  0  0  0  0  0  0  0  0  0  0
  151.2852  142.5129  155.1922 H   0  0  0  0  0  0  0  0  0  0  0  0
  149.7174  142.7327  155.9402 H   0  0  0  0  0  0  0  0  0  0  0  0
  151.6959  140.7088  158.1334 H   0  0  0  0  0  0  0  0  0  0  0  0
  152.7941  141.5720  160.2164 H   0  0  0  0  0  0  0  0  0  0  0  0
  153.0278  144.0519  160.5109 H   0  0  0  0  0  0  0  0  0  0  0  0
  151.1922  144.8167  156.8905 H   0  0  0  0  0  0  0  0  0  0  0  0
  151.0822  138.0383  157.2378 H   0  0  0  0  0  0  0  0  0  0  0  0
  150.4055  138.6409  158.7317 H   0  0  0  0  0  0  0  0  0  0  0  0
  150.4563  136.1566  158.7327 H   0  0  0  0  0  0  0  0  0  0  0  0
  149.5127  136.1002  157.2747 H   0  0  0  0  0  0  0  0  0  0  0  0
  1  2  1  0  0  0  0
  1 24  1  0  0  0  0
  1 25  1  0  0  0  0
  1 26  1  0  0  0  0
  2  3  1  0  0  0  0
  2  4  1  0  0  0  0
  2  5  1  0  0  0  0
  3 27  1  0  0  0  0
  3 28  1  0  0  0  0
  3 29  1  0  0  0  0
  4 30  1  0  0  0  0
  4 31  1  0  0  0  0
  4 32  1  0  0  0  0
  5  6  1  0  0  0  0
  5 33  1  0  0  0  0
  6  7  2  0  0  0  0
  6  8  1  0  0  0  0
  8 23  1  0  0  0  0
  8  9  1  0  0  0  0
  9 10  1  0  0  0  0
  9 34  1  0  0  0  0
  9 35  1  0  0  0  0
 10 11  1  0  0  0  0
 10 36  1  0  0  0  0
 10 37  1  0  0  0  0
 11 12  1  0  0  0  0
 11 22  1  0  0  0  0
 11 38  1  0  0  0  0
 12 13  1  0  0  0  0
 12 39  1  0  0  0  0
 13 14  2  0  0  0  0
 13 15  1  0  0  0  0
 15 16  1  0  0  0  0
 15 40  1  0  0  0  0
 15 41  1  0  0  0  0
 16 21  1  0  0  0  0
 16 17  2  0  0  0  0
 17 18  1  0  0  0  0
 17 42  1  0  0  0  0
 18 19  2  0  0  0  0
 18 43  1  0  0  0  0
 19 20  1  0  0  0  0
 19 44  1  0  0  0  0
 20 21  2  0  0  0  0
 21 45  1  0  0  0  0
 22 23  1  0  0  0  0
 22 46  1  0  0  0  0
 22 47  1  0  0  0  0
 23 48  1  0  0  0  0
 23 49  1  0  0  0  0
M  END
> <s_m_source_file>
AV-unprocessed.smi

> <i_m_source_file_index>
2868

> <i_lp_mmshare_version>
43012

> <i_f3d_flags>
0

> <s_epik_input>
W0NIM11DKFtDSDNdKShbQ0gzXSlbTkhdQyg9TylOMVtDSDJdW0NIMl1bQ0hdKFtDSDJdW0NIMl0xKVtOSF1DKD1PKVtDSDJdYzJbY0hdW2NIXVtjSF1uW2NIXTI=

> <s_epik_cmdline>
J2VwaWtfcHl0aG9uJywgJy1waCcsICc3LjAnLCAnLXRuJywgJzgnLCAnLW1hJywgJzIwMCcsICctbWV0YWxfYmluZGluZycsICctaW1hZScsICc8aW5maWxlLm1hZT4nLCAnLW9tYWUnLCAnPG91dGZpbGUubWFlPic=

> <r_epik_Ionization_Penalty>
0.00419782

> <r_epik_Ionization_Penalty_Charging>
0

> <r_epik_Ionization_Penalty_Neutral>
0.00419782

> <r_epik_State_Penalty>
0.0029617

> <r_epik_Charging_Adjusted_Penalty>
0.0029617

> <i_epik_Tot_Q>
0

> <i_epik_Tot_abs_Q>
0

> <r_epik_Metal_State_Penalty>
-0

> <b_epik_Metal_Only>
0

> <s_lp_Force_Field>
OPLS_2005

> <r_lp_Energy>
29.348

> <b_lp_Chiralities_Consistent>
1

> <s_lp_Variant>
AV-unprocessed.smi:2868-1

> <Gold.Version>
5.8.1

> <Gold.Id.Protein>
6NUR|6NUR_protein|mol2

> <Gold.PLP.Fitness>
43.4817

> <Gold.PLP.PLP>
-36.8628

> <Gold.PLP.part.hbond>
-2.0000

> <Gold.PLP.part.metal>
0.0000

> <Gold.PLP.part.buried>
-1.5777

> <Gold.PLP.part.nonpolar>
-32.8510

> <Gold.PLP.part.repulsive>
0.2278

> <Gold.PLP.ligand.clash>
0.0000

> <Gold.PLP.ligand.torsion>
0.7380

> <Gold.PLP.Chemscore.Hbond>
1.7930

> <Gold.PLP.Chemscore.CHOScore>
0.8816

> <Gold.PLP.Chemscore.Metal>
0.0000

> <Gold.Chemscore.Hbonds>
donor molecule, donor type, donor heavy atom, donor atom, acceptor molecule, acceptor atom, score
      P1  H  6931  6943       L1     7  0.83
      P1  H  7989  7998       L1    14  0.65
      L1  C    21    45       P1  8028  0.81

> <Gold.PLP.Chemscore.Internal.Correction>
0.0712

> <Gold.Rescore>
     Score         DG    S(hbond)    S(metal)    S(lipo)     H(rot)  DE(clash)    DE(int)     intcor
     18.21     -19.74       1.95        0.00      99.39       1.52       0.45       1.08       ----

> <Gold.Chemscore.Fitness>
18.2147

> <Gold.Chemscore.DG>
-19.7406

> <Gold.Chemscore.ZeroCoef>
-5.4800

> <Gold.Chemscore.Hbond>
1.9530

> <Gold.Chemscore.Metal>
0.0000

> <Gold.Chemscore.Lipo>
99.3852

> <Gold.Chemscore.Internal_Hbond>
0.0000

> <Gold.Chemscore.DEClash>
0.4499

> <Gold.Chemscore.DEInternal>
1.0760

> <Gold.Chemscore.Rot>
1.5197

> <Gold.Chemscore.Internal.Correction>
   9.000000E+99

> <Gold.Chemscore.Hbonds>
donor molecule, donor type, donor heavy atom, donor atom, acceptor molecule, acceptor atom, score
      P1  H  6931  6943       L1     7  0.29
      P1  H  7989  7998       L1    14  0.50

> <Gold.Chemscore.Hbond.Weighted>
-6.5229

> <Gold.Chemscore.Metal.Weighted>
-0.0000

> <Gold.Chemscore.Lipo.Weighted>
-11.6281

> <Gold.Chemscore.Internal_Hbond.Weighted>
0.0000

> <Gold.Chemscore.DEClash.Weighted>
0.4499

> <Gold.Chemscore.DEInternal.Weighted>
1.0760

> <Gold.Chemscore.Rot.Weighted>
3.8904

> <Gold.Chemscore.Internal.Correction.Weighted>
   9.000000E+99

> <Gold.Protein.RotatedTorsions>
[ 6907 6896 6895 6894 ] final -158.28 input  -60.11 | X-H torsion
[ 7974 7965 7964 7962 ] final  -10.99 input  175.53 | X-H torsion
[ 8008 7997 7996 7995 ] final   68.13 input   59.86 | X-H torsion
[ 10167 10162 10161 10158 ] final -140.05 input  -65.29 | X-H torsion
[ 10718 10713 10712 10709 ] final  -14.41 input   66.30 | X-H torsion
[ 10763 10752 10751 10750 ] final   56.34 input  -60.55 | X-H torsion
[ 11005 11000 10999 10996 ] final  116.76 input  -57.11 | X-H torsion

> <Gold.Protein.ActiveResidues>
 VAL166  LYS551  ARG553  GLY616  TRP617  ASP618  TYR619  PRO620  LYS621  CYS622 
 ASP623  PHE694  ASN695  SER759  ASP760  ASP761  ALA762  ILE779  LEU786  VAL792 
 PHE793  MET794  SER795  GLU796  ALA797  LYS798  CYS799  TRP800  GLU811  SER814 

> <Gold.Protein.RotatedAtoms>
  151.3158  133.4061  159.2650 H   0  0  0  0  0  0  0  0  0  0  0  0  # atno 6907 bound_to 6896
  151.0076  134.9372  159.7999 H   0  0  0  0  0  0  0  0  0  0  0  0  # atno 6908 bound_to 6896
  152.5292  134.3122  159.9170 H   0  0  0  0  0  0  0  0  0  0  0  0  # atno 6909 bound_to 6896
  146.2202  140.2846  142.8364 H   0  0  0  0  0  0  0  0  0  0  0  0  # atno 7974 bound_to 7965
  155.7036  140.3495  155.4943 H   0  0  0  0  0  0  0  0  0  0  0  0  # atno 8008 bound_to 7997
  155.9418  140.1103  157.1071 H   0  0  0  0  0  0  0  0  0  0  0  0  # atno 8009 bound_to 7997
  154.4104  140.1211  156.4924 H   0  0  0  0  0  0  0  0  0  0  0  0  # atno 8010 bound_to 7997
  139.8319  143.7435  152.2665 H   0  0  0  0  0  0  0  0  0  0  0  0  # atno 10167 bound_to 10162
  156.6164  130.4863  149.6181 H   0  0  0  0  0  0  0  0  0  0  0  0  # atno 10718 bound_to 10713
  152.9830  135.5679  154.5213 H   0  0  0  0  0  0  0  0  0  0  0  0  # atno 10763 bound_to 10752
  154.4700  135.2784  155.1651 H   0  0  0  0  0  0  0  0  0  0  0  0  # atno 10764 bound_to 10752
  154.3203  135.6270  153.5558 H   0  0  0  0  0  0  0  0  0  0  0  0  # atno 10765 bound_to 10752
  139.9052  134.9602  156.7248 H   0  0  0  0  0  0  0  0  0  0  0  0  # atno 11005 bound_to 11000
  144.9172  140.7826  143.5771 LP  0  0  0  0  0  0  0  0  0  0  0  0  # atno 17320 bound_to 7965
  145.2780  139.1929  143.4806 LP  0  0  0  0  0  0  0  0  0  0  0  0  # atno 17321 bound_to 7965
  139.7645  144.7496  151.0314 LP  0  0  0  0  0  0  0  0  0  0  0  0  # atno 17342 bound_to 10162
  140.7806  143.4713  151.0142 LP  0  0  0  0  0  0  0  0  0  0  0  0  # atno 17343 bound_to 10162
  156.2347  130.6816  151.1498 LP  0  0  0  0  0  0  0  0  0  0  0  0  # atno 17370 bound_to 10713
  157.7240  131.0663  150.6014 LP  0  0  0  0  0  0  0  0  0  0  0  0  # atno 17371 bound_to 10713
  140.6972  133.9338  155.8002 LP  0  0  0  0  0  0  0  0  0  0  0  0  # atno 17394 bound_to 11000
  141.0398  134.0637  157.3915 LP  0  0  0  0  0  0  0  0  0  0  0  0  # atno 17395 bound_to 11000

$$$$
