AV-unprocessed.smi:2985|AV-procd|sdf|11379|dock2
  -GOLD-   2272016303D 1   1.00000     0.00000
 Structure written by MMmdl.
 33 34  0  0  0  0  0  0  0  0  1 V2000
  156.5861  139.9010  159.7315 C   0  0  0  0  0  0  0  0  0  0  0  0
  155.2674  139.7209  159.2456 O   0  0  0  0  0  0  0  0  0  0  0  0
  154.3670  140.6917  159.7502 C   0  0  0  0  0  0  0  0  0  0  0  0
  152.9515  140.3587  159.2620 C   0  0  0  0  0  0  0  0  0  0  0  0
  152.2823  141.5332  158.7267 N   0  0  0  0  0  0  0  0  0  0  0  0
  151.7053  141.6766  157.5092 C   0  0  0  0  0  0  0  0  0  0  0  0
  151.6807  140.3639  156.3338 S   0  0  0  0  0  0  0  0  0  0  0  0
  149.8843  140.2833  156.0846 C   0  0  0  0  0  0  0  0  0  0  0  0
  149.3882  141.2929  155.0525 C   0  0  0  0  0  0  0  0  0  0  0  0
  148.6715  142.3249  155.5061 N   0  0  0  0  0  0  0  0  0  0  0  0
  149.6380  141.1398  153.8590 O   0  0  0  0  0  0  0  0  0  0  0  0
  151.1688  142.8715  157.2609 N   0  0  0  0  0  0  0  0  0  0  0  0
  151.4243  143.5686  158.4257 C   0  0  0  0  0  0  0  0  0  0  0  0
  151.1089  144.8975  158.7891 C   0  0  0  0  0  0  0  0  0  0  0  0
  151.4838  145.3997  160.0525 C   0  0  0  0  0  0  0  0  0  0  0  0
  152.1784  144.5830  160.9682 C   0  0  0  0  0  0  0  0  0  0  0  0
  152.5018  143.2557  160.6264 C   0  0  0  0  0  0  0  0  0  0  0  0
  152.1235  142.7588  159.3648 C   0  0  0  0  0  0  0  0  0  0  0  0
  157.2373  139.1303  159.3195 H   0  0  0  0  0  0  0  0  0  0  0  0
  156.6199  139.8240  160.8190 H   0  0  0  0  0  0  0  0  0  0  0  0
  156.9854  140.8722  159.4368 H   0  0  0  0  0  0  0  0  0  0  0  0
  154.3958  140.6976  160.8411 H   0  0  0  0  0  0  0  0  0  0  0  0
  154.6617  141.6849  159.4074 H   0  0  0  0  0  0  0  0  0  0  0  0
  152.9803  139.5829  158.4965 H   0  0  0  0  0  0  0  0  0  0  0  0
  152.3561  139.9579  160.0828 H   0  0  0  0  0  0  0  0  0  0  0  0
  149.6098  139.2738  155.7760 H   0  0  0  0  0  0  0  0  0  0  0  0
  149.3828  140.4759  157.0340 H   0  0  0  0  0  0  0  0  0  0  0  0
  148.3113  143.0116  154.8594 H   0  0  0  0  0  0  0  0  0  0  0  0
  148.4821  142.4072  156.4944 H   0  0  0  0  0  0  0  0  0  0  0  0
  150.5786  145.5316  158.0940 H   0  0  0  0  0  0  0  0  0  0  0  0
  151.2384  146.4171  160.3196 H   0  0  0  0  0  0  0  0  0  0  0  0
  152.4632  144.9759  161.9333 H   0  0  0  0  0  0  0  0  0  0  0  0
  153.0352  142.6291  161.3256 H   0  0  0  0  0  0  0  0  0  0  0  0
  1  2  1  0  0  0  0
  1 19  1  0  0  0  0
  1 20  1  0  0  0  0
  1 21  1  0  0  0  0
  2  3  1  0  0  0  0
  3  4  1  0  0  0  0
  3 22  1  0  0  0  0
  3 23  1  0  0  0  0
  4  5  1  0  0  0  0
  4 24  1  0  0  0  0
  4 25  1  0  0  0  0
  5 18  1  0  0  0  0
  5  6  1  0  0  0  0
  6  7  1  0  0  0  0
  6 12  2  0  0  0  0
  7  8  1  0  0  0  0
  8  9  1  0  0  0  0
  8 26  1  0  0  0  0
  8 27  1  0  0  0  0
  9 10  1  0  0  0  0
  9 11  2  0  0  0  0
 10 28  1  0  0  0  0
 10 29  1  0  0  0  0
 12 13  1  0  0  0  0
 13 18  2  0  0  0  0
 13 14  1  0  0  0  0
 14 15  2  0  0  0  0
 14 30  1  0  0  0  0
 15 16  1  0  0  0  0
 15 31  1  0  0  0  0
 16 17  2  0  0  0  0
 16 32  1  0  0  0  0
 17 18  1  0  0  0  0
 17 33  1  0  0  0  0
M  END
> <s_m_source_file>
AV-unprocessed.smi

> <i_m_source_file_index>
2985

> <i_lp_mmshare_version>
43012

> <i_f3d_flags>
0

> <s_epik_input>
W2NIXTFbY0hdW2NIXVtjSF1jKGMxMiluKFtDSDJdW0NIMl1PW0NIM10pYyhuMilTW0NIMl1DKD1PKVtOSDJd

> <s_epik_cmdline>
J2VwaWtfcHl0aG9uJywgJy1waCcsICc3LjAnLCAnLXRuJywgJzgnLCAnLW1hJywgJzIwMCcsICctbWV0YWxfYmluZGluZycsICctaW1hZScsICc8aW5maWxlLm1hZT4nLCAnLW9tYWUnLCAnPG91dGZpbGUubWFlPic=

> <r_epik_Ionization_Penalty>
0.0273334

> <r_epik_Ionization_Penalty_Charging>
0

> <r_epik_Ionization_Penalty_Neutral>
0.0273334

> <r_epik_State_Penalty>
0.0223655

> <r_epik_Charging_Adjusted_Penalty>
0.0223655

> <i_epik_Tot_Q>
0

> <i_epik_Tot_abs_Q>
0

> <r_epik_Metal_State_Penalty>
0.0213644

> <b_epik_Metal_Only>
0

> <s_lp_Force_Field>
OPLS_2005

> <r_lp_Energy>
5.41897

> <b_lp_Chiralities_Consistent>
1

> <s_lp_Variant>
AV-unprocessed.smi:2985-1

> <Gold.Version>
5.8.1

> <Gold.Id.Protein>
6NUR|6NUR_protein|mol2

> <Gold.PLP.Fitness>
45.9290

> <Gold.PLP.PLP>
-40.2077

> <Gold.PLP.part.hbond>
-3.6561

> <Gold.PLP.part.metal>
0.0000

> <Gold.PLP.part.buried>
-6.3040

> <Gold.PLP.part.nonpolar>
-31.2208

> <Gold.PLP.part.repulsive>
1.7495

> <Gold.PLP.ligand.clash>
0.0000

> <Gold.PLP.ligand.torsion>
0.6327

> <Gold.PLP.Chemscore.Hbond>
2.3192

> <Gold.PLP.Chemscore.CHOScore>
0.0000

> <Gold.PLP.Chemscore.Metal>
0.0000

> <Gold.Chemscore.Hbonds>
donor molecule, donor type, donor heavy atom, donor atom, acceptor molecule, acceptor atom, score
      L1  H    10    28       P1  8028  0.10
      P1  H  7989  7998       L1    11  0.34
      P1  H  7997  8010       L1     2  1.00
      P1  H  8011  8017       L1    11  0.86

> <Gold.PLP.Chemscore.Internal.Correction>
0.0290

> <Gold.Rescore>
     Score         DG    S(hbond)    S(metal)    S(lipo)     H(rot)  DE(clash)    DE(int)     intcor
     15.86     -17.02       1.89        0.00     103.39       2.68       0.48       0.67       ----

> <Gold.Chemscore.Fitness>
15.8631

> <Gold.Chemscore.DG>
-17.0168

> <Gold.Chemscore.ZeroCoef>
-5.4800

> <Gold.Chemscore.Hbond>
1.8877

> <Gold.Chemscore.Metal>
0.0000

> <Gold.Chemscore.Lipo>
103.3861

> <Gold.Chemscore.Internal_Hbond>
0.0000

> <Gold.Chemscore.DEClash>
0.4842

> <Gold.Chemscore.DEInternal>
0.6695

> <Gold.Chemscore.Rot>
2.6814

> <Gold.Chemscore.Internal.Correction>
   9.000000E+99

> <Gold.Chemscore.Hbonds>
donor molecule, donor type, donor heavy atom, donor atom, acceptor molecule, acceptor atom, score
      L1  H    10    28       P1  8028  0.12
      P1  H  7989  7998       L1    11  0.29
      P1  H  7997  8010       L1     2  0.27
      P1  H  8011  8017       L1    11  0.82

> <Gold.Chemscore.Hbond.Weighted>
-6.3050

> <Gold.Chemscore.Metal.Weighted>
-0.0000

> <Gold.Chemscore.Lipo.Weighted>
-12.0962

> <Gold.Chemscore.Internal_Hbond.Weighted>
0.0000

> <Gold.Chemscore.DEClash.Weighted>
0.4842

> <Gold.Chemscore.DEInternal.Weighted>
0.6695

> <Gold.Chemscore.Rot.Weighted>
6.8644

> <Gold.Chemscore.Internal.Correction.Weighted>
   9.000000E+99

> <Gold.Protein.RotatedTorsions>
[ 6907 6896 6895 6894 ] final   42.94 input  -60.11 | X-H torsion
[ 7974 7965 7964 7962 ] final  132.93 input  175.53 | X-H torsion
[ 8008 7997 7996 7995 ] final   -3.08 input   59.86 | X-H torsion
[ 10167 10162 10161 10158 ] final  -12.77 input  -65.29 | X-H torsion
[ 10718 10713 10712 10709 ] final   -6.13 input   66.30 | X-H torsion
[ 10763 10752 10751 10750 ] final  -17.97 input  -60.55 | X-H torsion
[ 11005 11000 10999 10996 ] final  -75.49 input  -57.11 | X-H torsion

> <Gold.Protein.ActiveResidues>
 VAL166  LYS551  ARG553  GLY616  TRP617  ASP618  TYR619  PRO620  LYS621  CYS622 
 ASP623  PHE694  ASN695  SER759  ASP760  ASP761  ALA762  ILE779  LEU786  VAL792 
 PHE793  MET794  SER795  GLU796  ALA797  LYS798  CYS799  TRP800  GLU811  SER814 

> <Gold.Protein.RotatedAtoms>
  152.2141  134.8474  160.0493 H   0  0  0  0  0  0  0  0  0  0  0  0  # atno 6907 bound_to 6896
  151.9281  133.3598  159.3929 H   0  0  0  0  0  0  0  0  0  0  0  0  # atno 6908 bound_to 6896
  150.6983  134.4490  159.5371 H   0  0  0  0  0  0  0  0  0  0  0  0  # atno 6909 bound_to 6896
  144.9918  139.4399  143.5335 H   0  0  0  0  0  0  0  0  0  0  0  0  # atno 7974 bound_to 7965
  154.6288  140.2518  155.7459 H   0  0  0  0  0  0  0  0  0  0  0  0  # atno 8008 bound_to 7997
  156.2468  140.2911  156.0549 H   0  0  0  0  0  0  0  0  0  0  0  0  # atno 8009 bound_to 7997
  155.1779  140.0388  157.2866 H   0  0  0  0  0  0  0  0  0  0  0  0  # atno 8010 bound_to 7997
  140.7168  143.5497  150.9315 H   0  0  0  0  0  0  0  0  0  0  0  0  # atno 10167 bound_to 10162
  156.7363  130.5196  149.5834 H   0  0  0  0  0  0  0  0  0  0  0  0  # atno 10718 bound_to 10713
  153.5820  135.7005  153.5459 H   0  0  0  0  0  0  0  0  0  0  0  0  # atno 10763 bound_to 10752
  153.3252  135.4063  155.1450 H   0  0  0  0  0  0  0  0  0  0  0  0  # atno 10764 bound_to 10752
  154.8615  135.3705  154.5348 H   0  0  0  0  0  0  0  0  0  0  0  0  # atno 10765 bound_to 10752
  141.1646  133.6948  156.7524 H   0  0  0  0  0  0  0  0  0  0  0  0  # atno 11005 bound_to 11000
  146.3433  139.9254  142.8761 LP  0  0  0  0  0  0  0  0  0  0  0  0  # atno 17320 bound_to 7965
  145.2275  140.9960  143.4010 LP  0  0  0  0  0  0  0  0  0  0  0  0  # atno 17321 bound_to 7965
  139.9221  143.6593  152.3094 LP  0  0  0  0  0  0  0  0  0  0  0  0  # atno 17342 bound_to 10162
  139.7014  144.7634  151.1267 LP  0  0  0  0  0  0  0  0  0  0  0  0  # atno 17343 bound_to 10162
  156.1494  130.6300  151.0576 LP  0  0  0  0  0  0  0  0  0  0  0  0  # atno 17370 bound_to 10713
  157.6837  131.0831  150.7300 LP  0  0  0  0  0  0  0  0  0  0  0  0  # atno 17371 bound_to 10713
  140.2594  134.8478  157.3744 LP  0  0  0  0  0  0  0  0  0  0  0  0  # atno 17394 bound_to 11000
  140.1626  134.4710  155.7885 LP  0  0  0  0  0  0  0  0  0  0  0  0  # atno 17395 bound_to 11000

$$$$
