AV-unprocessed.smi:61|AV-procd|sdf|598|dock3
  -GOLD-   2262016493D 1   1.00000     0.00000
 Structure written by MMmdl.
 28 29  0  0  0  0  0  0  0  0  1 V2000
  149.2411  142.0335  154.7822 N   0  0  0  0  0  0  0  0  0  0  0  0
  150.2014  141.4739  155.5892 C   0  0  0  0  0  0  0  0  0  0  0  0
  150.8552  140.4211  155.0972 N   0  0  0  0  0  0  0  0  0  0  0  0
  151.7984  139.8722  155.8921 C   0  0  0  0  0  0  0  0  0  0  0  0
  152.0793  140.3841  157.1750 C   0  0  0  0  0  0  0  0  0  0  0  0
  151.3239  141.5040  157.5970 C   0  0  0  0  0  0  0  0  0  0  0  0
  151.5440  142.0798  158.8659 N   0  0  0  0  0  0  0  0  0  0  0  0
  152.5514  141.4487  159.7126 C   0  0  0  0  0  0  0  0  0  0  0  0
  153.2847  142.5861  160.4327 C   0  0  0  0  0  0  0  0  0  0  0  0
  152.2878  143.7404  160.4011 C   0  0  0  0  0  0  0  0  0  0  0  0
  151.5829  143.5289  159.0566 C   0  0  2  0  0  0  0  0  0  0  0  0
  150.2080  144.2214  158.9200 C   0  0  0  0  0  0  0  0  0  0  0  0
  150.3259  145.6295  158.9058 O   0  0  0  0  0  0  0  0  0  0  0  0
  150.3814  142.0406  156.7836 N   0  0  0  0  0  0  0  0  0  0  0  0
  148.7114  142.8325  155.0986 H   0  0  0  0  0  0  0  0  0  0  0  0
  149.0935  141.6839  153.8467 H   0  0  0  0  0  0  0  0  0  0  0  0
  152.3318  139.0173  155.5034 H   0  0  0  0  0  0  0  0  0  0  0  0
  152.8327  139.9294  157.8012 H   0  0  0  0  0  0  0  0  0  0  0  0
  152.0438  140.8053  160.4321 H   0  0  0  0  0  0  0  0  0  0  0  0
  153.2519  140.8340  159.1457 H   0  0  0  0  0  0  0  0  0  0  0  0
  153.5952  142.3172  161.4427 H   0  0  0  0  0  0  0  0  0  0  0  0
  154.1776  142.8610  159.8693 H   0  0  0  0  0  0  0  0  0  0  0  0
  151.5925  143.6371  161.2349 H   0  0  0  0  0  0  0  0  0  0  0  0
  152.7653  144.7174  160.4792 H   0  0  0  0  0  0  0  0  0  0  0  0
  152.2381  143.9319  158.2827 H   0  0  0  0  0  0  0  0  0  0  0  0
  149.7386  143.9152  157.9848 H   0  0  0  0  0  0  0  0  0  0  0  0
  149.5260  143.9313  159.7181 H   0  0  0  0  0  0  0  0  0  0  0  0
  149.5965  145.9867  158.4226 H   0  0  0  0  0  0  0  0  0  0  0  0
  1  2  1  0  0  0  0
  1 15  1  0  0  0  0
  1 16  1  0  0  0  0
  2 14  1  0  0  0  0
  2  3  2  0  0  0  0
  3  4  1  0  0  0  0
  4  5  2  0  0  0  0
  4 17  1  0  0  0  0
  5  6  1  0  0  0  0
  5 18  1  0  0  0  0
  6  7  1  0  0  0  0
  6 14  2  0  0  0  0
  7 11  1  0  0  0  0
  7  8  1  0  0  0  0
  8  9  1  0  0  0  0
  8 19  1  0  0  0  0
  8 20  1  0  0  0  0
  9 10  1  0  0  0  0
  9 21  1  0  0  0  0
  9 22  1  0  0  0  0
 10 11  1  0  0  0  0
 10 23  1  0  0  0  0
 10 24  1  0  0  0  0
 11 12  1  0  0  0  0
 11 25  1  0  0  0  0
 12 13  1  0  0  0  0
 12 26  1  0  0  0  0
 12 27  1  0  0  0  0
 13 28  1  0  0  0  0
M  END
> <s_m_source_file>
AV-unprocessed.smi

> <i_m_source_file_index>
61

> <i_lp_mmshare_version>
43012

> <i_f3d_flags>
0

> <s_epik_input>
W05IMl1jMW5bY0hdW2NIXWMobjEpTjJbQ0gyXVtDSDJdW0NIMl1bQ0BIXTJbQ0gyXVtPSF0=

> <s_epik_cmdline>
J2VwaWtfcHl0aG9uJywgJy1waCcsICc3LjAnLCAnLXRuJywgJzgnLCAnLW1hJywgJzIwMCcsICctbWV0YWxfYmluZGluZycsICctaW1hZScsICc8aW5maWxlLm1hZT4nLCAnLW9tYWUnLCAnPG91dGZpbGUubWFlPic=

> <r_lp_tautomer_probability>
1

> <r_epik_Ionization_Penalty>
0.76024

> <r_epik_Ionization_Penalty_Charging>
0

> <r_epik_Ionization_Penalty_Neutral>
0.76024

> <r_epik_State_Penalty>
0.587668

> <r_epik_Charging_Adjusted_Penalty>
0.587668

> <i_epik_Tot_Q>
0

> <i_epik_Tot_abs_Q>
0

> <r_epik_Metal_State_Penalty>
0.307814

> <b_epik_Metal_Only>
0

> <s_lp_Force_Field>
OPLS_2005

> <r_lp_Energy>
26.7573

> <b_lp_Chiralities_Consistent>
1

> <s_lp_Variant>
AV-unprocessed.smi:61-4

> <Gold.Version>
5.8.1

> <Gold.Id.Protein>
6NUR|6NUR_protein|mol2

> <Gold.PLP.Fitness>
37.3135

> <Gold.PLP.PLP>
-28.8838

> <Gold.PLP.part.hbond>
-4.8596

> <Gold.PLP.part.metal>
0.0000

> <Gold.PLP.part.buried>
-2.9030

> <Gold.PLP.part.nonpolar>
-22.1759

> <Gold.PLP.part.repulsive>
0.6183

> <Gold.PLP.ligand.clash>
0.0000

> <Gold.PLP.ligand.torsion>
0.2777

> <Gold.PLP.Chemscore.Hbond>
2.8800

> <Gold.PLP.Chemscore.CHOScore>
0.0000

> <Gold.PLP.Chemscore.Metal>
0.0000

> <Gold.Chemscore.Hbonds>
donor molecule, donor type, donor heavy atom, donor atom, acceptor molecule, acceptor atom, score
      L1  H     1    15       P1  8028  0.88
      L1  H    13    28       P1  8029  1.00
      P1  H  7989  7998       L1     3  1.00

> <Gold.PLP.Chemscore.Internal.Correction>
0.3451

> <Gold.Rescore>
     Score         DG    S(hbond)    S(metal)    S(lipo)     H(rot)  DE(clash)    DE(int)     intcor
     13.17     -15.97       2.40        0.00      63.96       1.96       1.74       1.06       ----

> <Gold.Chemscore.Fitness>
13.1678

> <Gold.Chemscore.DG>
-15.9658

> <Gold.Chemscore.ZeroCoef>
-5.4800

> <Gold.Chemscore.Hbond>
2.3983

> <Gold.Chemscore.Metal>
0.0000

> <Gold.Chemscore.Lipo>
63.9600

> <Gold.Chemscore.Internal_Hbond>
0.0000

> <Gold.Chemscore.DEClash>
1.7387

> <Gold.Chemscore.DEInternal>
1.0594

> <Gold.Chemscore.Rot>
1.9561

> <Gold.Chemscore.Internal.Correction>
   9.000000E+99

> <Gold.Chemscore.Hbonds>
donor molecule, donor type, donor heavy atom, donor atom, acceptor molecule, acceptor atom, score
      L1  H     1    15       P1  8028  0.85
      L1  H    13    28       P1  8029  0.84
      P1  H  7989  7998       L1     3  0.47

> <Gold.Chemscore.Hbond.Weighted>
-8.0102

> <Gold.Chemscore.Metal.Weighted>
-0.0000

> <Gold.Chemscore.Lipo.Weighted>
-7.4833

> <Gold.Chemscore.Internal_Hbond.Weighted>
0.0000

> <Gold.Chemscore.DEClash.Weighted>
1.7387

> <Gold.Chemscore.DEInternal.Weighted>
1.0594

> <Gold.Chemscore.Rot.Weighted>
5.0077

> <Gold.Chemscore.Internal.Correction.Weighted>
   9.000000E+99

> <Gold.Protein.RotatedTorsions>
[ 6907 6896 6895 6894 ] final  -88.28 input  -60.11 | X-H torsion
[ 7974 7965 7964 7962 ] final   71.81 input  175.53 | X-H torsion
[ 8008 7997 7996 7995 ] final -175.58 input   59.86 | X-H torsion
[ 10167 10162 10161 10158 ] final  -46.39 input  -65.29 | X-H torsion
[ 10718 10713 10712 10709 ] final   59.38 input   66.30 | X-H torsion
[ 10763 10752 10751 10750 ] final  157.84 input  -60.55 | X-H torsion
[ 11005 11000 10999 10996 ] final  -29.36 input  -57.11 | X-H torsion

> <Gold.Protein.ActiveResidues>
 VAL166  LYS551  ARG553  GLY616  TRP617  ASP618  TYR619  PRO620  LYS621  CYS622 
 ASP623  PHE694  ASN695  SER759  ASP760  ASP761  ALA762  ILE779  LEU786  VAL792 
 PHE793  MET794  SER795  GLU796  ALA797  LYS798  CYS799  TRP800  GLU811  SER814 

> <Gold.Protein.RotatedAtoms>
  150.6868  134.2766  159.4609 H   0  0  0  0  0  0  0  0  0  0  0  0  # atno 6907 bound_to 6896
  152.0684  134.9547  160.0584 H   0  0  0  0  0  0  0  0  0  0  0  0  # atno 6908 bound_to 6896
  152.0946  133.4183  159.4596 H   0  0  0  0  0  0  0  0  0  0  0  0  # atno 6909 bound_to 6896
  145.7611  139.2801  143.1375 H   0  0  0  0  0  0  0  0  0  0  0  0  # atno 7974 bound_to 7965
  155.9844  140.1188  157.0697 H   0  0  0  0  0  0  0  0  0  0  0  0  # atno 8008 bound_to 7997
  154.4192  140.1138  156.5547 H   0  0  0  0  0  0  0  0  0  0  0  0  # atno 8009 bound_to 7997
  155.6428  140.3473  155.4723 H   0  0  0  0  0  0  0  0  0  0  0  0  # atno 8010 bound_to 7997
  140.6819  143.2833  151.3775 H   0  0  0  0  0  0  0  0  0  0  0  0  # atno 10167 bound_to 10162
  157.5671  130.8879  149.9205 H   0  0  0  0  0  0  0  0  0  0  0  0  # atno 10718 bound_to 10713
  154.2065  135.2788  155.2973 H   0  0  0  0  0  0  0  0  0  0  0  0  # atno 10763 bound_to 10752
  154.5812  135.5588  153.7191 H   0  0  0  0  0  0  0  0  0  0  0  0  # atno 10764 bound_to 10752
  153.0074  135.6345  154.2204 H   0  0  0  0  0  0  0  0  0  0  0  0  # atno 10765 bound_to 10752
  140.9289  133.7350  156.0908 H   0  0  0  0  0  0  0  0  0  0  0  0  # atno 11005 bound_to 11000
  146.0263  140.8301  142.9898 LP  0  0  0  0  0  0  0  0  0  0  0  0  # atno 17320 bound_to 7965
  144.6830  140.2702  143.7307 LP  0  0  0  0  0  0  0  0  0  0  0  0  # atno 17321 bound_to 7965
  139.6148  144.1024  152.2335 LP  0  0  0  0  0  0  0  0  0  0  0  0  # atno 17342 bound_to 10162
  140.0450  144.5977  150.7381 LP  0  0  0  0  0  0  0  0  0  0  0  0  # atno 17343 bound_to 10162
  156.0719  130.3684  150.0758 LP  0  0  0  0  0  0  0  0  0  0  0  0  # atno 17370 bound_to 10713
  156.8916  130.9590  151.3588 LP  0  0  0  0  0  0  0  0  0  0  0  0  # atno 17371 bound_to 10713
  140.7888  134.3641  157.5469 LP  0  0  0  0  0  0  0  0  0  0  0  0  # atno 17394 bound_to 11000
  139.8792  134.9128  156.3068 LP  0  0  0  0  0  0  0  0  0  0  0  0  # atno 17395 bound_to 11000

$$$$
