AV-unprocessed.smi:2335|AV-procd|sdf|9324|dock1
  -GOLD-   2272012543D 1   1.00000     0.00000
 Structure written by MMmdl.
 42 43  0  0  0  0  0  0  0  0  1 V2000
  145.8030  129.7123  152.0324 C   0  0  0  0  0  0  0  0  0  0  0  0
  146.8030  129.4488  153.1631 C   0  0  0  0  0  0  0  0  0  0  0  0
  147.5619  130.6729  153.5534 C   0  0  0  0  0  0  0  0  0  0  0  0
  148.5477  130.6554  154.4592 N   0  0  0  0  0  0  0  0  0  0  0  0
  149.1238  131.9060  154.6345 N   0  0  0  0  0  0  0  0  0  0  0  0
  148.5640  132.8295  153.8411 C   0  0  0  0  0  0  0  0  0  0  0  0
  148.9612  134.1922  153.8126 N   0  0  0  0  0  0  0  0  0  0  0  0
  149.6644  134.8756  154.7324 C   0  0  0  0  0  0  0  0  0  0  0  0
  150.1042  134.4104  155.7839 O   0  0  0  0  0  0  0  0  0  0  0  0
  149.8300  136.1527  154.3614 N   0  0  0  0  0  0  0  0  0  0  0  0
  150.5212  137.1751  155.1448 C   0  0  1  0  0  0  0  0  0  0  0  0
  150.6095  138.4885  154.3931 C   0  0  0  0  0  0  0  0  0  0  0  0
  150.7779  139.5208  155.5145 C   0  0  0  0  0  0  0  0  0  0  0  0
  152.2578  139.7588  155.8611 C   0  0  0  0  0  0  0  0  0  0  0  0
  150.0671  140.8452  155.1977 C   0  0  0  0  0  0  0  0  0  0  0  0
  150.1618  138.9387  156.6622 O   0  0  0  0  0  0  0  0  0  0  0  0
  149.7812  137.5814  156.4385 C   0  0  0  0  0  0  0  0  0  0  0  0
  148.2426  137.5735  156.3204 C   0  0  0  0  0  0  0  0  0  0  0  0
  150.2371  136.7575  157.6530 C   0  0  0  0  0  0  0  0  0  0  0  0
  147.2737  132.2403  152.8073 S   0  0  0  0  0  0  0  0  0  0  0  0
  145.2648  128.8016  151.7696 H   0  0  0  0  0  0  0  0  0  0  0  0
  146.3090  130.0713  151.1358 H   0  0  0  0  0  0  0  0  0  0  0  0
  145.0674  130.4621  152.3251 H   0  0  0  0  0  0  0  0  0  0  0  0
  146.2795  129.0682  154.0405 H   0  0  0  0  0  0  0  0  0  0  0  0
  147.5101  128.6750  152.8620 H   0  0  0  0  0  0  0  0  0  0  0  0
  148.6705  134.7099  152.9968 H   0  0  0  0  0  0  0  0  0  0  0  0
  149.4349  136.4477  153.4808 H   0  0  0  0  0  0  0  0  0  0  0  0
  151.5375  136.8517  155.3787 H   0  0  0  0  0  0  0  0  0  0  0  0
  151.4226  138.5074  153.6662 H   0  0  0  0  0  0  0  0  0  0  0  0
  149.6812  138.6695  153.8485 H   0  0  0  0  0  0  0  0  0  0  0  0
  152.7969  140.1874  155.0158 H   0  0  0  0  0  0  0  0  0  0  0  0
  152.7588  138.8308  156.1377 H   0  0  0  0  0  0  0  0  0  0  0  0
  152.3584  140.4465  156.7014 H   0  0  0  0  0  0  0  0  0  0  0  0
  150.4874  141.3155  154.3083 H   0  0  0  0  0  0  0  0  0  0  0  0
  150.1624  141.5507  156.0238 H   0  0  0  0  0  0  0  0  0  0  0  0
  149.0020  140.6907  155.0215 H   0  0  0  0  0  0  0  0  0  0  0  0
  147.8543  136.5630  156.1910 H   0  0  0  0  0  0  0  0  0  0  0  0
  147.9008  138.1732  155.4766 H   0  0  0  0  0  0  0  0  0  0  0  0
  147.7810  137.9843  157.2185 H   0  0  0  0  0  0  0  0  0  0  0  0
  149.9638  135.7080  157.5445 H   0  0  0  0  0  0  0  0  0  0  0  0
  149.7803  137.1241  158.5726 H   0  0  0  0  0  0  0  0  0  0  0  0
  151.3187  136.8082  157.7816 H   0  0  0  0  0  0  0  0  0  0  0  0
  1  2  1  0  0  0  0
  1 21  1  0  0  0  0
  1 22  1  0  0  0  0
  1 23  1  0  0  0  0
  2  3  1  0  0  0  0
  2 24  1  0  0  0  0
  2 25  1  0  0  0  0
  3 20  1  0  0  0  0
  3  4  2  0  0  0  0
  4  5  1  0  0  0  0
  5  6  2  0  0  0  0
  6  7  1  0  0  0  0
  6 20  1  0  0  0  0
  7  8  1  0  0  0  0
  7 26  1  0  0  0  0
  8  9  2  0  0  0  0
  8 10  1  0  0  0  0
 10 11  1  0  0  0  0
 10 27  1  0  0  0  0
 11 17  1  0  0  0  0
 11 12  1  0  0  0  0
 11 28  1  0  0  0  0
 12 13  1  0  0  0  0
 12 29  1  0  0  0  0
 12 30  1  0  0  0  0
 13 14  1  0  0  0  0
 13 15  1  0  0  0  0
 13 16  1  0  0  0  0
 14 31  1  0  0  0  0
 14 32  1  0  0  0  0
 14 33  1  0  0  0  0
 15 34  1  0  0  0  0
 15 35  1  0  0  0  0
 15 36  1  0  0  0  0
 16 17  1  0  0  0  0
 17 18  1  0  0  0  0
 17 19  1  0  0  0  0
 18 37  1  0  0  0  0
 18 38  1  0  0  0  0
 18 39  1  0  0  0  0
 19 40  1  0  0  0  0
 19 41  1  0  0  0  0
 19 42  1  0  0  0  0
M  END
> <s_m_source_file>
AV-unprocessed.smi

> <i_m_source_file_index>
2335

> <i_lp_mmshare_version>
43012

> <i_f3d_flags>
0

> <s_epik_input>
W0NIM11bQ0gyXWMxbm5jKHMxKVtOSF1DKD1PKVtOSF1bQ0BASF0oQyhPMikoW0NIM10pW0NIM10pW0NIMl1DMihbQ0gzXSlbQ0gzXQ==

> <s_epik_cmdline>
J2VwaWtfcHl0aG9uJywgJy1waCcsICc3LjAnLCAnLXRuJywgJzgnLCAnLW1hJywgJzIwMCcsICctbWV0YWxfYmluZGluZycsICctaW1hZScsICc8aW5maWxlLm1hZT4nLCAnLW9tYWUnLCAnPG91dGZpbGUubWFlPic=

> <r_lp_tautomer_probability>
1

> <r_epik_Ionization_Penalty>
0.000542824

> <r_epik_Ionization_Penalty_Charging>
0

> <r_epik_Ionization_Penalty_Neutral>
0.000542824

> <r_epik_State_Penalty>
-0

> <r_epik_Charging_Adjusted_Penalty>
0

> <i_epik_Tot_Q>
0

> <i_epik_Tot_abs_Q>
0

> <r_epik_Metal_State_Penalty>
0.227439

> <b_epik_Metal_Only>
0

> <s_lp_Force_Field>
OPLS_2005

> <r_lp_Energy>
12.5908

> <b_lp_Chiralities_Consistent>
1

> <s_lp_Variant>
AV-unprocessed.smi:2335-2

> <Gold.Version>
5.8.1

> <Gold.Id.Protein>
6NUR|6NUR_protein|mol2

> <Gold.PLP.Fitness>
34.4768

> <Gold.PLP.PLP>
-28.9254

> <Gold.PLP.part.hbond>
-2.5583

> <Gold.PLP.part.metal>
0.0000

> <Gold.PLP.part.buried>
-1.6906

> <Gold.PLP.part.nonpolar>
-24.2890

> <Gold.PLP.part.repulsive>
0.1696

> <Gold.PLP.ligand.clash>
0.0000

> <Gold.PLP.ligand.torsion>
0.1269

> <Gold.PLP.Chemscore.Hbond>
1.9280

> <Gold.PLP.Chemscore.CHOScore>
0.0000

> <Gold.PLP.Chemscore.Metal>
0.0000

> <Gold.Chemscore.Hbonds>
donor molecule, donor type, donor heavy atom, donor atom, acceptor molecule, acceptor atom, score
      L1  H     7    26       P1  7948  0.90
      L1  H    10    27       P1  7948  1.00

> <Gold.PLP.Chemscore.Internal.Correction>
0.0212

> <Gold.Rescore>
     Score         DG    S(hbond)    S(metal)    S(lipo)     H(rot)  DE(clash)    DE(int)     intcor
     12.08     -13.56       1.14        0.00      62.95       1.21       0.05       1.43       ----

> <Gold.Chemscore.Fitness>
12.0831

> <Gold.Chemscore.DG>
-13.5644

> <Gold.Chemscore.ZeroCoef>
-5.4800

> <Gold.Chemscore.Hbond>
1.1403

> <Gold.Chemscore.Metal>
0.0000

> <Gold.Chemscore.Lipo>
62.9522

> <Gold.Chemscore.Internal_Hbond>
0.0000

> <Gold.Chemscore.DEClash>
0.0510

> <Gold.Chemscore.DEInternal>
1.4302

> <Gold.Chemscore.Rot>
1.2068

> <Gold.Chemscore.Internal.Correction>
   9.000000E+99

> <Gold.Chemscore.Hbonds>
donor molecule, donor type, donor heavy atom, donor atom, acceptor molecule, acceptor atom, score
      L1  H     7    26       P1  7948  0.20
      L1  H    10    27       P1  7948  0.76

> <Gold.Chemscore.Hbond.Weighted>
-3.8085

> <Gold.Chemscore.Metal.Weighted>
-0.0000

> <Gold.Chemscore.Lipo.Weighted>
-7.3654

> <Gold.Chemscore.Internal_Hbond.Weighted>
0.0000

> <Gold.Chemscore.DEClash.Weighted>
0.0510

> <Gold.Chemscore.DEInternal.Weighted>
1.4302

> <Gold.Chemscore.Rot.Weighted>
3.0895

> <Gold.Chemscore.Internal.Correction.Weighted>
   9.000000E+99

> <Gold.Protein.RotatedTorsions>
[ 6907 6896 6895 6894 ] final -166.54 input  -60.11 | X-H torsion
[ 7974 7965 7964 7962 ] final   65.19 input  175.53 | X-H torsion
[ 8008 7997 7996 7995 ] final -113.99 input   59.86 | X-H torsion
[ 10167 10162 10161 10158 ] final   54.36 input  -65.29 | X-H torsion
[ 10718 10713 10712 10709 ] final  115.45 input   66.30 | X-H torsion
[ 10763 10752 10751 10750 ] final  -47.56 input  -60.55 | X-H torsion
[ 11005 11000 10999 10996 ] final  139.93 input  -57.11 | X-H torsion

> <Gold.Protein.ActiveResidues>
 VAL166  LYS551  ARG553  GLY616  TRP617  ASP618  TYR619  PRO620  LYS621  CYS622 
 ASP623  PHE694  ASN695  SER759  ASP760  ASP761  ALA762  ILE779  LEU786  VAL792 
 PHE793  MET794  SER795  GLU796  ALA797  LYS798  CYS799  TRP800  GLU811  SER814 

> <Gold.Protein.RotatedAtoms>
  151.4452  133.3632  159.2787 H   0  0  0  0  0  0  0  0  0  0  0  0  # atno 6907 bound_to 6896
  150.9130  134.8548  159.7448 H   0  0  0  0  0  0  0  0  0  0  0  0  # atno 6908 bound_to 6896
  152.4942  134.4383  159.9587 H   0  0  0  0  0  0  0  0  0  0  0  0  # atno 6909 bound_to 6896
  145.8414  139.3198  143.0929 H   0  0  0  0  0  0  0  0  0  0  0  0  # atno 7974 bound_to 7965
  155.0294  140.0393  157.2468 H   0  0  0  0  0  0  0  0  0  0  0  0  # atno 8008 bound_to 7997
  154.7310  140.2730  155.6433 H   0  0  0  0  0  0  0  0  0  0  0  0  # atno 8009 bound_to 7997
  156.2841  140.2684  156.2010 H   0  0  0  0  0  0  0  0  0  0  0  0  # atno 8010 bound_to 7997
  140.2310  144.3687  150.6414 H   0  0  0  0  0  0  0  0  0  0  0  0  # atno 10167 bound_to 10162
  157.6221  131.1012  150.7331 H   0  0  0  0  0  0  0  0  0  0  0  0  # atno 10718 bound_to 10713
  154.0634  135.6615  153.4815 H   0  0  0  0  0  0  0  0  0  0  0  0  # atno 10763 bound_to 10752
  153.0418  135.5140  154.7637 H   0  0  0  0  0  0  0  0  0  0  0  0  # atno 10764 bound_to 10752
  154.6680  135.3025  154.9746 H   0  0  0  0  0  0  0  0  0  0  0  0  # atno 10765 bound_to 10752
  140.0290  134.9361  157.0626 H   0  0  0  0  0  0  0  0  0  0  0  0  # atno 11005 bound_to 11000
  145.9461  140.8944  143.0283 LP  0  0  0  0  0  0  0  0  0  0  0  0  # atno 17320 bound_to 7965
  144.6733  140.1615  143.7422 LP  0  0  0  0  0  0  0  0  0  0  0  0  # atno 17321 bound_to 7965
  140.6185  143.2174  151.6742 LP  0  0  0  0  0  0  0  0  0  0  0  0  # atno 17342 bound_to 10162
  139.5110  144.3524  152.0640 LP  0  0  0  0  0  0  0  0  0  0  0  0  # atno 17343 bound_to 10162
  156.7686  130.4821  149.5423 LP  0  0  0  0  0  0  0  0  0  0  0  0  # atno 17370 bound_to 10713
  156.1373  130.6220  151.0417 LP  0  0  0  0  0  0  0  0  0  0  0  0  # atno 17371 bound_to 10713
  140.4257  134.1834  155.7166 LP  0  0  0  0  0  0  0  0  0  0  0  0  # atno 17394 bound_to 11000
  141.1820  133.8394  157.1224 LP  0  0  0  0  0  0  0  0  0  0  0  0  # atno 17395 bound_to 11000

$$$$
