AV-unprocessed.smi:1046|AV-procd|sdf|4554|dock1
  -GOLD-   22720 2583D 1   1.00000     0.00000
 Structure written by MMmdl.
 54 56  0  0  0  0  0  0  0  0  3 V2000
  152.9859  143.2935  161.4228 C   0  0  0  0  0  0  0  0  0  0  0  0
  152.3751  142.7921  160.1260 C   0  0  0  0  0  0  0  0  0  0  0  0
  152.6014  141.4539  159.7320 C   0  0  0  0  0  0  0  0  0  0  0  0
  152.0519  140.9495  158.5331 C   0  0  0  0  0  0  0  0  0  0  0  0
  152.1416  139.6920  157.9612 N   0  0  0  0  0  0  0  0  0  0  0  0
  151.4215  139.8478  156.8543 C   0  0  0  0  0  0  0  0  0  0  0  0
  150.8686  141.0582  156.6446 N   0  0  0  0  0  0  0  0  0  0  0  0
  150.0461  141.4661  155.5200 C   0  0  0  0  0  0  0  0  0  0  0  0
  149.4702  140.2635  154.7482 C   0  0  2  0  0  0  0  0  0  0  0  0
  150.4621  139.7476  153.8812 O   0  0  0  0  0  0  0  0  0  0  0  0
  148.2373  140.6602  153.9122 C   0  0  0  0  0  0  0  0  0  0  0  0
  147.5289  139.4876  153.3365 N   0  3  2  0  0  0  0  0  0  0  0  0
  146.9249  139.7884  152.0148 C   0  0  0  0  0  0  0  0  0  0  0  0
  146.2831  138.5349  151.3939 C   0  0  0  0  0  0  0  0  0  0  0  0
  145.2804  137.9358  152.3111 N   0  3  1  0  0  0  0  0  0  0  0  0
  144.5698  136.7662  151.7327 C   0  0  0  0  0  0  0  0  0  0  0  0
  145.5321  135.7231  151.1384 C   0  0  0  0  0  0  0  0  0  0  0  0
  144.8665  134.9562  150.1574 O   0  0  0  0  0  0  0  0  0  0  0  0
  145.8849  137.6333  153.6317 C   0  0  0  0  0  0  0  0  0  0  0  0
  146.5262  138.8870  154.2533 C   0  0  0  0  0  0  0  0  0  0  0  0
  151.2641  141.8275  157.7331 C   0  0  0  0  0  0  0  0  0  0  0  0
  151.0326  143.1610  158.1134 C   0  0  0  0  0  0  0  0  0  0  0  0
  151.5878  143.6485  159.3151 C   0  0  0  0  0  0  0  0  0  0  0  0
  151.3319  145.0899  159.7182 C   0  0  0  0  0  0  0  0  0  0  0  0
  153.5657  142.5141  161.9182 H   0  0  0  0  0  0  0  0  0  0  0  0
  152.2062  143.6189  162.1117 H   0  0  0  0  0  0  0  0  0  0  0  0
  153.6523  144.1349  161.2308 H   0  0  0  0  0  0  0  0  0  0  0  0
  153.2017  140.8018  160.3493 H   0  0  0  0  0  0  0  0  0  0  0  0
  151.2836  139.0333  156.1579 H   0  0  0  0  0  0  0  0  0  0  0  0
  149.2384  142.0914  155.9025 H   0  0  0  0  0  0  0  0  0  0  0  0
  150.6429  142.0970  154.8591 H   0  0  0  0  0  0  0  0  0  0  0  0
  149.2090  139.4864  155.4655 H   0  0  0  0  0  0  0  0  0  0  0  0
  150.0611  139.5567  153.0458 H   0  0  0  0  0  0  0  0  0  0  0  0
  147.5385  141.2437  154.5137 H   0  0  0  0  0  0  0  0  0  0  0  0
  148.5673  141.3185  153.1066 H   0  0  0  0  0  0  0  0  0  0  0  0
  146.1778  140.5759  152.1268 H   0  0  0  0  0  0  0  0  0  0  0  0
  147.6903  140.1713  151.3386 H   0  0  0  0  0  0  0  0  0  0  0  0
  145.8174  138.8073  150.4475 H   0  0  0  0  0  0  0  0  0  0  0  0
  147.0541  137.7972  151.1652 H   0  0  0  0  0  0  0  0  0  0  0  0
  143.9388  136.3088  152.4961 H   0  0  0  0  0  0  0  0  0  0  0  0
  143.8960  137.0980  150.9411 H   0  0  0  0  0  0  0  0  0  0  0  0
  146.4223  136.1798  150.7075 H   0  0  0  0  0  0  0  0  0  0  0  0
  145.8742  135.0490  151.9241 H   0  0  0  0  0  0  0  0  0  0  0  0
  145.3825  134.9662  149.3645 H   0  0  0  0  0  0  0  0  0  0  0  0
  145.1200  137.2487  154.3075 H   0  0  0  0  0  0  0  0  0  0  0  0
  146.6330  136.8468  153.5180 H   0  0  0  0  0  0  0  0  0  0  0  0
  146.9902  138.6111  155.1994 H   0  0  0  0  0  0  0  0  0  0  0  0
  145.7553  139.6243  154.4839 H   0  0  0  0  0  0  0  0  0  0  0  0
  150.4333  143.8036  157.4859 H   0  0  0  0  0  0  0  0  0  0  0  0
  150.6844  145.5954  159.0011 H   0  0  0  0  0  0  0  0  0  0  0  0
  152.2701  145.6427  159.7696 H   0  0  0  0  0  0  0  0  0  0  0  0
  150.8486  145.1353  160.6943 H   0  0  0  0  0  0  0  0  0  0  0  0
  148.2396  138.7882  153.1716 H   0  0  0  0  0  0  0  0  0  0  0  0
  144.5711  138.6361  152.4775 H   0  0  0  0  0  0  0  0  0  0  0  0
  1  2  1  0  0  0  0
  1 25  1  0  0  0  0
  1 26  1  0  0  0  0
  1 27  1  0  0  0  0
  2 23  1  0  0  0  0
  2  3  2  0  0  0  0
  3  4  1  0  0  0  0
  3 28  1  0  0  0  0
  4 21  2  0  0  0  0
  4  5  1  0  0  0  0
  5  6  2  0  0  0  0
  6  7  1  0  0  0  0
  6 29  1  0  0  0  0
  7  8  1  0  0  0  0
  7 21  1  0  0  0  0
  8  9  1  0  0  0  0
  8 30  1  0  0  0  0
  8 31  1  0  0  0  0
  9 10  1  0  0  0  0
  9 11  1  0  0  0  0
  9 32  1  0  0  0  0
 10 33  1  0  0  0  0
 11 12  1  0  0  0  0
 11 34  1  0  0  0  0
 11 35  1  0  0  0  0
 12 20  1  0  0  0  0
 12 13  1  0  0  0  0
 12 53  1  0  0  0  0
 13 14  1  0  0  0  0
 13 36  1  0  0  0  0
 13 37  1  0  0  0  0
 14 15  1  0  0  0  0
 14 38  1  0  0  0  0
 14 39  1  0  0  0  0
 15 16  1  0  0  0  0
 15 19  1  0  0  0  0
 15 54  1  0  0  0  0
 16 17  1  0  0  0  0
 16 40  1  0  0  0  0
 16 41  1  0  0  0  0
 17 18  1  0  0  0  0
 17 42  1  0  0  0  0
 17 43  1  0  0  0  0
 18 44  1  0  0  0  0
 19 20  1  0  0  0  0
 19 45  1  0  0  0  0
 19 46  1  0  0  0  0
 20 47  1  0  0  0  0
 20 48  1  0  0  0  0
 21 22  1  0  0  0  0
 22 23  2  0  0  0  0
 22 49  1  0  0  0  0
 23 24  1  0  0  0  0
 24 50  1  0  0  0  0
 24 51  1  0  0  0  0
 24 52  1  0  0  0  0
M  CHG  1  12   1
M  CHG  1  15   1
M  END
> <s_m_source_file>
AV-unprocessed.smi

> <i_m_source_file_index>
1046

> <i_lp_mmshare_version>
43012

> <i_f3d_flags>
0

> <s_epik_input>
W0NIM11jKFtjSF0xKWMoW0NIM10pW2NIXWMoYzEyKW4oW2NIXW4yKVtDSDJdW0NASF0oW09IXSlbQ0gyXU4zW0NIMl1bQ0gyXU4oW0NIMl1bQ0gyXTMpW0NIMl1bQ0gyXVtPSF0=

> <s_epik_cmdline>
J2VwaWtfcHl0aG9uJywgJy1waCcsICc3LjAnLCAnLXRuJywgJzgnLCAnLW1hJywgJzIwMCcsICctbWV0YWxfYmluZGluZycsICctaW1hZScsICc8aW5maWxlLm1hZT4nLCAnLW9tYWUnLCAnPG91dGZpbGUubWFlPic=

> <r_epik_Ionization_Penalty>
3.17398

> <r_epik_Ionization_Penalty_Charging>
3.09061

> <r_epik_Ionization_Penalty_Neutral>
0.0833726

> <r_epik_State_Penalty>
2.17606

> <r_epik_Charging_Adjusted_Penalty>
5.26667

> <i_epik_Tot_Q>
2

> <i_epik_Tot_abs_Q>
2

> <r_epik_Metal_State_Penalty>
2.08587

> <b_epik_Metal_Only>
0

> <s_lp_Force_Field>
OPLS_2005

> <r_lp_Energy>
27.9633

> <b_lp_Chiralities_Consistent>
1

> <s_lp_Variant>
AV-unprocessed.smi:1046-7

> <Gold.Version>
5.8.1

> <Gold.Id.Protein>
6NUR|6NUR_protein|mol2

> <Gold.PLP.Fitness>
61.4368

> <Gold.PLP.PLP>
-48.2375

> <Gold.PLP.part.hbond>
-5.9716

> <Gold.PLP.part.metal>
0.0000

> <Gold.PLP.part.buried>
1.7644

> <Gold.PLP.part.nonpolar>
-45.7793

> <Gold.PLP.part.repulsive>
0.0375

> <Gold.PLP.ligand.clash>
0.0000

> <Gold.PLP.ligand.torsion>
1.0659

> <Gold.PLP.Chemscore.Hbond>
4.9588

> <Gold.PLP.Chemscore.CHOScore>
0.0000

> <Gold.PLP.Chemscore.Metal>
0.0000

> <Gold.Chemscore.Hbonds>
donor molecule, donor type, donor heavy atom, donor atom, acceptor molecule, acceptor atom, score
      L1  H    10    33       P1  7957  1.00
      L1  H    15    54       P1 10175  2.00
      L1  H    18    44       P1  7921  1.00
      P1  H  7989  7998       L1    10  1.00

> <Gold.PLP.Chemscore.Internal.Correction>
0.4548

> <Gold.Rescore>
     Score         DG    S(hbond)    S(metal)    S(lipo)     H(rot)  DE(clash)    DE(int)     intcor
     19.11     -24.10       3.21        0.00     139.48       3.28       4.06       0.93       ----

> <Gold.Chemscore.Fitness>
19.1128

> <Gold.Chemscore.DG>
-24.1003

> <Gold.Chemscore.ZeroCoef>
-5.4800

> <Gold.Chemscore.Hbond>
3.2052

> <Gold.Chemscore.Metal>
0.0000

> <Gold.Chemscore.Lipo>
139.4778

> <Gold.Chemscore.Internal_Hbond>
0.0000

> <Gold.Chemscore.DEClash>
4.0596

> <Gold.Chemscore.DEInternal>
0.9280

> <Gold.Chemscore.Rot>
3.2828

> <Gold.Chemscore.Internal.Correction>
   9.000000E+99

> <Gold.Chemscore.Hbonds>
donor molecule, donor type, donor heavy atom, donor atom, acceptor molecule, acceptor atom, score
      L1  H    10    33       P1  7957  0.92
      L1  H    15    54       P1 10175  0.94
      L1  H    18    44       P1  7921  1.00
      P1  H  7989  7998       L1    10  0.28

> <Gold.Chemscore.Hbond.Weighted>
-10.7054

> <Gold.Chemscore.Metal.Weighted>
-0.0000

> <Gold.Chemscore.Lipo.Weighted>
-16.3189

> <Gold.Chemscore.Internal_Hbond.Weighted>
0.0000

> <Gold.Chemscore.DEClash.Weighted>
4.0596

> <Gold.Chemscore.DEInternal.Weighted>
0.9280

> <Gold.Chemscore.Rot.Weighted>
8.4039

> <Gold.Chemscore.Internal.Correction.Weighted>
   9.000000E+99

> <Gold.Protein.RotatedTorsions>
[ 6907 6896 6895 6894 ] final  -96.41 input  -60.11 | X-H torsion
[ 7974 7965 7964 7962 ] final   74.39 input  175.53 | X-H torsion
[ 8008 7997 7996 7995 ] final  -78.91 input   59.86 | X-H torsion
[ 10167 10162 10161 10158 ] final  132.56 input  -65.29 | X-H torsion
[ 10718 10713 10712 10709 ] final   51.80 input   66.30 | X-H torsion
[ 10763 10752 10751 10750 ] final -104.94 input  -60.55 | X-H torsion
[ 11005 11000 10999 10996 ] final -128.01 input  -57.11 | X-H torsion

> <Gold.Protein.ActiveResidues>
 VAL166  LYS551  ARG553  GLY616  TRP617  ASP618  TYR619  PRO620  LYS621  CYS622 
 ASP623  PHE694  ASN695  SER759  ASP760  ASP761  ALA762  ILE779  LEU786  VAL792 
 PHE793  MET794  SER795  GLU796  ALA797  LYS798  CYS799  TRP800  GLU811  SER814 

> <Gold.Protein.RotatedAtoms>
  150.6988  134.1507  159.4139 H   0  0  0  0  0  0  0  0  0  0  0  0  # atno 6907 bound_to 6896
  151.9490  135.0175  160.0550 H   0  0  0  0  0  0  0  0  0  0  0  0  # atno 6908 bound_to 6896
  152.2027  133.4818  159.5104 H   0  0  0  0  0  0  0  0  0  0  0  0  # atno 6909 bound_to 6896
  145.7289  139.2676  143.1553 H   0  0  0  0  0  0  0  0  0  0  0  0  # atno 7974 bound_to 7965
  154.5734  140.0687  156.8999 H   0  0  0  0  0  0  0  0  0  0  0  0  # atno 8008 bound_to 7997
  155.2592  140.3357  155.4256 H   0  0  0  0  0  0  0  0  0  0  0  0  # atno 8009 bound_to 7997
  156.2136  140.1769  156.7625 H   0  0  0  0  0  0  0  0  0  0  0  0  # atno 8010 bound_to 7997
  139.5334  144.6656  151.4869 H   0  0  0  0  0  0  0  0  0  0  0  0  # atno 10167 bound_to 10162
  157.5015  130.8441  149.8323 H   0  0  0  0  0  0  0  0  0  0  0  0  # atno 10718 bound_to 10713
  154.7913  135.4767  154.0058 H   0  0  0  0  0  0  0  0  0  0  0  0  # atno 10763 bound_to 10752
  153.1635  135.6813  153.8716 H   0  0  0  0  0  0  0  0  0  0  0  0  # atno 10764 bound_to 10752
  153.8322  135.3190  155.3397 H   0  0  0  0  0  0  0  0  0  0  0  0  # atno 10765 bound_to 10752
  140.9552  134.1012  157.4023 H   0  0  0  0  0  0  0  0  0  0  0  0  # atno 11005 bound_to 11000
  146.0556  140.8024  142.9760 LP  0  0  0  0  0  0  0  0  0  0  0  0  # atno 17320 bound_to 7965
  144.6898  140.3119  143.7246 LP  0  0  0  0  0  0  0  0  0  0  0  0  # atno 17321 bound_to 7965
  140.6527  143.8664  150.6802 LP  0  0  0  0  0  0  0  0  0  0  0  0  # atno 17342 bound_to 10162
  140.2034  143.3941  152.1774 LP  0  0  0  0  0  0  0  0  0  0  0  0  # atno 17343 bound_to 10162
  156.0232  130.3788  150.1899 LP  0  0  0  0  0  0  0  0  0  0  0  0  # atno 17370 bound_to 10713
  157.0089  130.9945  151.3371 LP  0  0  0  0  0  0  0  0  0  0  0  0  # atno 17371 bound_to 10713
  139.8860  135.0077  156.6469 LP  0  0  0  0  0  0  0  0  0  0  0  0  # atno 17394 bound_to 11000
  140.7546  133.8868  155.8373 LP  0  0  0  0  0  0  0  0  0  0  0  0  # atno 17395 bound_to 11000

$$$$
