AV-unprocessed.smi:2040|AV-procd|sdf|8286|dock6
  -GOLD-   2272010553D 1   1.00000     0.00000
 Structure written by MMmdl.
 38 39  0  0  0  0  0  0  0  0  1 V2000
  150.5629  142.0980  156.1773 C   0  0  0  0  0  0  0  0  0  0  0  0
  150.2923  140.8474  155.3942 C   0  0  0  0  0  0  0  0  0  0  0  0
  149.0654  140.4334  154.7991 C   0  0  0  0  0  0  0  0  0  0  0  0
  149.3975  139.2366  154.2251 C   0  0  0  0  0  0  0  0  0  0  0  0
  148.6158  138.3852  153.5094 N   0  0  0  0  0  0  0  0  0  0  0  0
  147.2782  138.2523  153.5330 C   0  0  0  0  0  0  0  0  0  0  0  0
  146.5112  138.8881  154.2561 O   0  0  0  0  0  0  0  0  0  0  0  0
  146.8717  137.3219  152.6569 N   0  0  0  0  0  0  0  0  0  0  0  0
  145.4857  136.9279  152.4103 C   0  0  2  0  0  0  0  0  0  0  0  0
  144.8821  136.3567  153.7023 C   0  0  0  0  0  0  0  0  0  0  0  0
  145.4274  135.9194  151.2467 C   0  0  2  0  0  0  0  0  0  0  0  0
  144.0481  135.2963  151.0140 C   0  0  0  0  0  0  0  0  0  0  0  0
  144.4079  133.9883  150.3492 C   0  0  0  0  0  0  0  0  0  0  0  0
  145.6627  133.5900  151.1181 C   0  0  0  0  0  0  0  0  0  0  0  0
  146.2906  134.8116  151.4988 O   0  0  0  0  0  0  0  0  0  0  0  0
  150.7281  138.9796  154.4707 N   0  0  0  0  0  0  0  0  0  0  0  0
  151.5360  137.8446  154.0693 C   0  0  0  0  0  0  0  0  0  0  0  0
  151.2770  139.9780  155.1961 N   0  0  0  0  0  0  0  0  0  0  0  0
  149.6893  142.7500  156.1922 H   0  0  0  0  0  0  0  0  0  0  0  0
  151.3896  142.6624  155.7449 H   0  0  0  0  0  0  0  0  0  0  0  0
  150.8206  141.8653  157.2106 H   0  0  0  0  0  0  0  0  0  0  0  0
  148.1146  140.9449  154.8038 H   0  0  0  0  0  0  0  0  0  0  0  0
  149.1115  137.7772  152.8745 H   0  0  0  0  0  0  0  0  0  0  0  0
  147.5762  136.8507  152.1086 H   0  0  0  0  0  0  0  0  0  0  0  0
  144.8978  137.8004  152.1201 H   0  0  0  0  0  0  0  0  0  0  0  0
  143.8376  136.0789  153.5597 H   0  0  0  0  0  0  0  0  0  0  0  0
  144.9178  137.0892  154.5094 H   0  0  0  0  0  0  0  0  0  0  0  0
  145.4202  135.4681  154.0339 H   0  0  0  0  0  0  0  0  0  0  0  0
  145.7612  136.3921  150.3213 H   0  0  0  0  0  0  0  0  0  0  0  0
  143.5467  135.1049  151.9642 H   0  0  0  0  0  0  0  0  0  0  0  0
  143.3954  135.9207  150.4031 H   0  0  0  0  0  0  0  0  0  0  0  0
  143.6154  133.2419  150.4086 H   0  0  0  0  0  0  0  0  0  0  0  0
  144.6460  134.1546  149.2977 H   0  0  0  0  0  0  0  0  0  0  0  0
  145.3960  133.0425  152.0229 H   0  0  0  0  0  0  0  0  0  0  0  0
  146.3319  132.9636  150.5279 H   0  0  0  0  0  0  0  0  0  0  0  0
  151.1497  136.9379  154.5352 H   0  0  0  0  0  0  0  0  0  0  0  0
  152.5740  137.9842  154.3739 H   0  0  0  0  0  0  0  0  0  0  0  0
  151.4986  137.7331  152.9854 H   0  0  0  0  0  0  0  0  0  0  0  0
  1  2  1  0  0  0  0
  1 19  1  0  0  0  0
  1 20  1  0  0  0  0
  1 21  1  0  0  0  0
  2 18  2  0  0  0  0
  2  3  1  0  0  0  0
  3  4  2  0  0  0  0
  3 22  1  0  0  0  0
  4  5  1  0  0  0  0
  4 16  1  0  0  0  0
  5  6  1  0  0  0  0
  5 23  1  0  0  0  0
  6  7  2  0  0  0  0
  6  8  1  0  0  0  0
  8  9  1  0  0  0  0
  8 24  1  0  0  0  0
  9 10  1  0  0  0  0
  9 11  1  0  0  0  0
  9 25  1  0  0  0  0
 10 26  1  0  0  0  0
 10 27  1  0  0  0  0
 10 28  1  0  0  0  0
 11 15  1  0  0  0  0
 11 12  1  0  0  0  0
 11 29  1  0  0  0  0
 12 13  1  0  0  0  0
 12 30  1  0  0  0  0
 12 31  1  0  0  0  0
 13 14  1  0  0  0  0
 13 32  1  0  0  0  0
 13 33  1  0  0  0  0
 14 15  1  0  0  0  0
 14 34  1  0  0  0  0
 14 35  1  0  0  0  0
 16 17  1  0  0  0  0
 16 18  1  0  0  0  0
 17 36  1  0  0  0  0
 17 37  1  0  0  0  0
 17 38  1  0  0  0  0
M  END
> <s_m_source_file>
AV-unprocessed.smi

> <i_m_source_file_index>
2040

> <i_lp_mmshare_version>
43012

> <i_f3d_flags>
0

> <s_epik_input>
W0NIM11jMVtjSF1jKG4objEpW0NIM10pW05IXUMoPU8pW05IXVtDQEhdKFtDSDNdKVtDQEBIXTJbQ0gyXVtDSDJdW0NIMl1PMg==

> <s_epik_cmdline>
J2VwaWtfcHl0aG9uJywgJy1waCcsICc3LjAnLCAnLXRuJywgJzgnLCAnLW1hJywgJzIwMCcsICctbWV0YWxfYmluZGluZycsICctaW1hZScsICc8aW5maWxlLm1hZT4nLCAnLW9tYWUnLCAnPG91dGZpbGUubWFlPic=

> <r_lp_tautomer_probability>
1

> <r_epik_Ionization_Penalty>
9.09088e-05

> <r_epik_Ionization_Penalty_Charging>
0

> <r_epik_Ionization_Penalty_Neutral>
9.09088e-05

> <r_epik_State_Penalty>
-0

> <r_epik_Charging_Adjusted_Penalty>
0

> <i_epik_Tot_Q>
0

> <i_epik_Tot_abs_Q>
0

> <r_epik_Metal_State_Penalty>
-0

> <b_epik_Metal_Only>
0

> <s_lp_Force_Field>
OPLS_2005

> <r_lp_Energy>
18.8843

> <b_lp_Chiralities_Consistent>
1

> <s_lp_Variant>
AV-unprocessed.smi:2040-1

> <Gold.Version>
5.8.1

> <Gold.Id.Protein>
6NUR|6NUR_protein|mol2

> <Gold.PLP.Fitness>
37.0866

> <Gold.PLP.PLP>
-31.3014

> <Gold.PLP.part.hbond>
-3.8507

> <Gold.PLP.part.metal>
0.0000

> <Gold.PLP.part.buried>
-1.8898

> <Gold.PLP.part.nonpolar>
-26.8121

> <Gold.PLP.part.repulsive>
1.1539

> <Gold.PLP.ligand.clash>
0.0000

> <Gold.PLP.ligand.torsion>
0.1913

> <Gold.PLP.Chemscore.Hbond>
2.0520

> <Gold.PLP.Chemscore.CHOScore>
0.0000

> <Gold.PLP.Chemscore.Metal>
0.0000

> <Gold.Chemscore.Hbonds>
donor molecule, donor type, donor heavy atom, donor atom, acceptor molecule, acceptor atom, score
      L1  H     5    23       P1  7948  0.90
      L1  H     8    24       P1  7948  0.96
      P1  H  7989  7998       L1    18  0.14

> <Gold.PLP.Chemscore.Internal.Correction>
0.0119

> <Gold.Rescore>
     Score         DG    S(hbond)    S(metal)    S(lipo)     H(rot)  DE(clash)    DE(int)     intcor
     15.31     -15.79       1.92        0.00      60.41       1.23       0.12       0.36       ----

> <Gold.Chemscore.Fitness>
15.3149

> <Gold.Chemscore.DG>
-15.7939

> <Gold.Chemscore.ZeroCoef>
-5.4800

> <Gold.Chemscore.Hbond>
1.9175

> <Gold.Chemscore.Metal>
0.0000

> <Gold.Chemscore.Lipo>
60.4100

> <Gold.Chemscore.Internal_Hbond>
0.0000

> <Gold.Chemscore.DEClash>
0.1236

> <Gold.Chemscore.DEInternal>
0.3554

> <Gold.Chemscore.Rot>
1.2338

> <Gold.Chemscore.Internal.Correction>
   9.000000E+99

> <Gold.Chemscore.Hbonds>
donor molecule, donor type, donor heavy atom, donor atom, acceptor molecule, acceptor atom, score
      L1  H     5    23       P1  7948  0.87
      L1  H     8    24       P1  7948  0.90

> <Gold.Chemscore.Hbond.Weighted>
-6.4043

> <Gold.Chemscore.Metal.Weighted>
-0.0000

> <Gold.Chemscore.Lipo.Weighted>
-7.0680

> <Gold.Chemscore.Internal_Hbond.Weighted>
0.0000

> <Gold.Chemscore.DEClash.Weighted>
0.1236

> <Gold.Chemscore.DEInternal.Weighted>
0.3554

> <Gold.Chemscore.Rot.Weighted>
3.1584

> <Gold.Chemscore.Internal.Correction.Weighted>
   9.000000E+99

> <Gold.Protein.RotatedTorsions>
[ 6907 6896 6895 6894 ] final  -56.44 input  -60.11 | X-H torsion
[ 7974 7965 7964 7962 ] final  169.12 input  175.53 | X-H torsion
[ 8008 7997 7996 7995 ] final  -34.87 input   59.86 | X-H torsion
[ 10167 10162 10161 10158 ] final -102.42 input  -65.29 | X-H torsion
[ 10718 10713 10712 10709 ] final   76.77 input   66.30 | X-H torsion
[ 10763 10752 10751 10750 ] final   98.30 input  -60.55 | X-H torsion
[ 11005 11000 10999 10996 ] final -119.34 input  -57.11 | X-H torsion

> <Gold.Protein.ActiveResidues>
 VAL166  LYS551  ARG553  GLY616  TRP617  ASP618  TYR619  PRO620  LYS621  CYS622 
 ASP623  PHE694  ASN695  SER759  ASP760  ASP761  ALA762  ILE779  LEU786  VAL792 
 PHE793  MET794  SER795  GLU796  ALA797  LYS798  CYS799  TRP800  GLU811  SER814 

> <Gold.Protein.RotatedAtoms>
  150.8167  134.7353  159.6736 H   0  0  0  0  0  0  0  0  0  0  0  0  # atno 6907 bound_to 6896
  152.4285  134.5819  159.9960 H   0  0  0  0  0  0  0  0  0  0  0  0  # atno 6908 bound_to 6896
  151.6013  133.3319  159.3084 H   0  0  0  0  0  0  0  0  0  0  0  0  # atno 6909 bound_to 6896
  144.7365  139.9008  143.6409 H   0  0  0  0  0  0  0  0  0  0  0  0  # atno 7974 bound_to 7965
  154.4109  140.1672  156.2119 H   0  0  0  0  0  0  0  0  0  0  0  0  # atno 8008 bound_to 7997
  155.9436  140.3406  155.6325 H   0  0  0  0  0  0  0  0  0  0  0  0  # atno 8009 bound_to 7997
  155.6957  140.0739  157.2421 H   0  0  0  0  0  0  0  0  0  0  0  0  # atno 8010 bound_to 7997
  140.2309  143.3607  152.0887 H   0  0  0  0  0  0  0  0  0  0  0  0  # atno 10167 bound_to 10162
  157.6686  130.9790  150.1544 H   0  0  0  0  0  0  0  0  0  0  0  0  # atno 10718 bound_to 10713
  153.2874  135.4153  155.1135 H   0  0  0  0  0  0  0  0  0  0  0  0  # atno 10763 bound_to 10752
  154.8509  135.3510  154.6029 H   0  0  0  0  0  0  0  0  0  0  0  0  # atno 10764 bound_to 10752
  153.6450  135.7055  153.5286 H   0  0  0  0  0  0  0  0  0  0  0  0  # atno 10765 bound_to 10752
  141.0222  134.0106  157.3265 H   0  0  0  0  0  0  0  0  0  0  0  0  # atno 11005 bound_to 11000
  146.1073  139.4074  143.0309 LP  0  0  0  0  0  0  0  0  0  0  0  0  # atno 17320 bound_to 7965
  145.7493  140.9978  143.1259 LP  0  0  0  0  0  0  0  0  0  0  0  0  # atno 17321 bound_to 7965
  139.5110  144.6894  151.5801 LP  0  0  0  0  0  0  0  0  0  0  0  0  # atno 17342 bound_to 10162
  140.6186  143.9302  150.6508 LP  0  0  0  0  0  0  0  0  0  0  0  0  # atno 17343 bound_to 10162
  156.2335  130.3684  149.8417 LP  0  0  0  0  0  0  0  0  0  0  0  0  # atno 17370 bound_to 10713
  156.6237  130.8637  151.3481 LP  0  0  0  0  0  0  0  0  0  0  0  0  # atno 17371 bound_to 10713
  139.9153  135.0196  156.7858 LP  0  0  0  0  0  0  0  0  0  0  0  0  # atno 17394 bound_to 11000
  140.6552  133.9695  155.7776 LP  0  0  0  0  0  0  0  0  0  0  0  0  # atno 17395 bound_to 11000

$$$$
