AV-unprocessed.smi:1289|AV-procd|sdf|5387|dock4
  -GOLD-   22720 4533D 1   1.00000     0.00000
 Structure written by MMmdl.
 38 40  0  0  0  0  0  0  0  0  2 V2000
  149.4497  130.3153  154.6850 N   0  0  0  0  0  0  0  0  0  0  0  0
  149.7956  131.3885  154.9445 C   0  0  0  0  0  0  0  0  0  0  0  0
  150.2299  132.7366  155.2703 C   0  0  0  0  0  0  0  0  0  0  0  0
  149.7116  133.8382  154.5615 C   0  0  0  0  0  0  0  0  0  0  0  0
  150.1329  135.1432  154.8819 C   0  0  0  0  0  0  0  0  0  0  0  0
  151.0725  135.3681  155.9088 C   0  0  0  0  0  0  0  0  0  0  0  0
  151.4267  136.6769  156.1551 O   0  0  0  0  0  0  0  0  0  0  0  0
  151.3725  137.6056  155.0790 C   0  0  0  0  0  0  0  0  0  0  0  0
  151.9174  138.9692  155.5350 C   0  0  2  0  0  0  0  0  0  0  0  0
  153.3303  138.9322  155.5282 O   0  0  0  0  0  0  0  0  0  0  0  0
  151.3636  139.4306  156.8983 C   0  0  0  0  0  0  0  0  0  0  0  0
  151.1715  140.8858  156.9714 N   0  0  0  0  0  0  0  0  0  0  0  0
  150.4111  141.7007  156.1908 C   0  0  0  0  0  0  0  0  0  0  0  0
  150.5557  142.9714  156.6585 N   0  3  0  0  0  0  0  0  0  0  0  0
  151.4199  142.9693  157.7554 C   0  0  0  0  0  0  0  0  0  0  0  0
  151.8708  144.0100  158.5616 C   0  0  0  0  0  0  0  0  0  0  0  0
  152.7552  143.6652  159.6046 C   0  0  0  0  0  0  0  0  0  0  0  0
  153.1593  142.3305  159.8140 C   0  0  0  0  0  0  0  0  0  0  0  0
  152.6958  141.2833  158.9906 C   0  0  0  0  0  0  0  0  0  0  0  0
  151.8201  141.6320  157.9626 C   0  0  0  0  0  0  0  0  0  0  0  0
  151.5911  134.2540  156.6164 C   0  0  0  0  0  0  0  0  0  0  0  0
  151.1710  132.9478  156.2974 C   0  0  0  0  0  0  0  0  0  0  0  0
  148.9900  133.6900  153.7710 H   0  0  0  0  0  0  0  0  0  0  0  0
  149.7295  135.9819  154.3334 H   0  0  0  0  0  0  0  0  0  0  0  0
  151.9337  137.2419  154.2163 H   0  0  0  0  0  0  0  0  0  0  0  0
  150.3333  137.7302  154.7702 H   0  0  0  0  0  0  0  0  0  0  0  0
  151.6338  139.7054  154.7819 H   0  0  0  0  0  0  0  0  0  0  0  0
  153.6071  138.1249  155.1226 H   0  0  0  0  0  0  0  0  0  0  0  0
  150.3910  138.9701  157.0759 H   0  0  0  0  0  0  0  0  0  0  0  0
  152.0046  139.1143  157.7213 H   0  0  0  0  0  0  0  0  0  0  0  0
  149.8014  141.3944  155.3527 H   0  0  0  0  0  0  0  0  0  0  0  0
  151.5634  145.0332  158.4028 H   0  0  0  0  0  0  0  0  0  0  0  0
  153.1317  144.4400  160.2568 H   0  0  0  0  0  0  0  0  0  0  0  0
  153.8396  142.1049  160.6224 H   0  0  0  0  0  0  0  0  0  0  0  0
  153.0160  140.2652  159.1576 H   0  0  0  0  0  0  0  0  0  0  0  0
  152.3131  134.3739  157.4096 H   0  0  0  0  0  0  0  0  0  0  0  0
  151.5762  132.1104  156.8473 H   0  0  0  0  0  0  0  0  0  0  0  0
  150.0960  143.7789  156.2571 H   0  0  0  0  0  0  0  0  0  0  0  0
  1  2  3  0  0  0  0
  2  3  1  0  0  0  0
  3 22  1  0  0  0  0
  3  4  2  0  0  0  0
  4  5  1  0  0  0  0
  4 23  1  0  0  0  0
  5  6  2  0  0  0  0
  5 24  1  0  0  0  0
  6  7  1  0  0  0  0
  6 21  1  0  0  0  0
  7  8  1  0  0  0  0
  8  9  1  0  0  0  0
  8 25  1  0  0  0  0
  8 26  1  0  0  0  0
  9 10  1  0  0  0  0
  9 11  1  0  0  0  0
  9 27  1  0  0  0  0
 10 28  1  0  0  0  0
 11 12  1  0  0  0  0
 11 29  1  0  0  0  0
 11 30  1  0  0  0  0
 12 20  1  0  0  0  0
 12 13  1  0  0  0  0
 13 14  2  0  0  0  0
 13 31  1  0  0  0  0
 14 15  1  0  0  0  0
 14 38  1  0  0  0  0
 15 20  2  0  0  0  0
 15 16  1  0  0  0  0
 16 17  2  0  0  0  0
 16 32  1  0  0  0  0
 17 18  1  0  0  0  0
 17 33  1  0  0  0  0
 18 19  2  0  0  0  0
 18 34  1  0  0  0  0
 19 20  1  0  0  0  0
 19 35  1  0  0  0  0
 21 22  2  0  0  0  0
 21 36  1  0  0  0  0
 22 37  1  0  0  0  0
M  CHG  1  14   1
M  END
> <s_m_source_file>
AV-unprocessed.smi

> <i_m_source_file_index>
1289

> <i_lp_mmshare_version>
43012

> <i_f3d_flags>
0

> <s_epik_input>
TiNDYzFbY0hdW2NIXWMoW2NIXVtjSF0xKU9bQ0gyXVtDQEhdKFtPSF0pW0NIMl1uKFtjSF1uMiljKGMyMylbY0hdW2NIXVtjSF1bY0hdMw==

> <s_epik_cmdline>
J2VwaWtfcHl0aG9uJywgJy1waCcsICc3LjAnLCAnLXRuJywgJzgnLCAnLW1hJywgJzIwMCcsICctbWV0YWxfYmluZGluZycsICctaW1hZScsICc8aW5maWxlLm1hZT4nLCAnLW9tYWUnLCAnPG91dGZpbGUubWFlPic=

> <r_epik_Ionization_Penalty>
1.39523

> <r_epik_Ionization_Penalty_Charging>
1.39523

> <r_epik_Ionization_Penalty_Neutral>
2.3993e-06

> <r_epik_State_Penalty>
1.47691

> <r_epik_Charging_Adjusted_Penalty>
2.87215

> <i_epik_Tot_Q>
1

> <i_epik_Tot_abs_Q>
1

> <r_epik_Metal_State_Penalty>
5.51858

> <b_epik_Metal_Only>
0

> <s_lp_Force_Field>
OPLS_2005

> <r_lp_Energy>
21.3748

> <b_lp_Chiralities_Consistent>
1

> <s_lp_Variant>
AV-unprocessed.smi:1289-3

> <Gold.Version>
5.8.1

> <Gold.Id.Protein>
6NUR|6NUR_protein|mol2

> <Gold.PLP.Fitness>
53.3162

> <Gold.PLP.PLP>
-46.3274

> <Gold.PLP.part.hbond>
-2.0000

> <Gold.PLP.part.metal>
0.0000

> <Gold.PLP.part.buried>
-5.4766

> <Gold.PLP.part.nonpolar>
-39.4627

> <Gold.PLP.part.repulsive>
0.1306

> <Gold.PLP.ligand.clash>
0.0000

> <Gold.PLP.ligand.torsion>
0.9517

> <Gold.PLP.Chemscore.Hbond>
2.9280

> <Gold.PLP.Chemscore.CHOScore>
0.0000

> <Gold.PLP.Chemscore.Metal>
0.0000

> <Gold.Chemscore.Hbonds>
donor molecule, donor type, donor heavy atom, donor atom, acceptor molecule, acceptor atom, score
      L1  H    14    38       P1  8028  2.00
      P1  H  7997  8008       L1    10  0.93

> <Gold.PLP.Chemscore.Internal.Correction>
0.1083

> <Gold.Rescore>
     Score         DG    S(hbond)    S(metal)    S(lipo)     H(rot)  DE(clash)    DE(int)     intcor
     17.71     -18.54       1.95        0.00     112.44       2.58       0.03       0.81       ----

> <Gold.Chemscore.Fitness>
17.7059

> <Gold.Chemscore.DG>
-18.5385

> <Gold.Chemscore.ZeroCoef>
-5.4800

> <Gold.Chemscore.Hbond>
1.9484

> <Gold.Chemscore.Metal>
0.0000

> <Gold.Chemscore.Lipo>
112.4383

> <Gold.Chemscore.Internal_Hbond>
0.0000

> <Gold.Chemscore.DEClash>
0.0251

> <Gold.Chemscore.DEInternal>
0.8075

> <Gold.Chemscore.Rot>
2.5798

> <Gold.Chemscore.Internal.Correction>
   9.000000E+99

> <Gold.Chemscore.Hbonds>
donor molecule, donor type, donor heavy atom, donor atom, acceptor molecule, acceptor atom, score
      L1  H    14    38       P1  8028  0.99
      P1  H  7997  8008       L1    10  0.89

> <Gold.Chemscore.Hbond.Weighted>
-6.5075

> <Gold.Chemscore.Metal.Weighted>
-0.0000

> <Gold.Chemscore.Lipo.Weighted>
-13.1553

> <Gold.Chemscore.Internal_Hbond.Weighted>
0.0000

> <Gold.Chemscore.DEClash.Weighted>
0.0251

> <Gold.Chemscore.DEInternal.Weighted>
0.8075

> <Gold.Chemscore.Rot.Weighted>
6.6043

> <Gold.Chemscore.Internal.Correction.Weighted>
   9.000000E+99

> <Gold.Protein.RotatedTorsions>
[ 6907 6896 6895 6894 ] final -146.48 input  -60.11 | X-H torsion
[ 7974 7965 7964 7962 ] final -119.02 input  175.53 | X-H torsion
[ 8008 7997 7996 7995 ] final  -42.63 input   59.86 | X-H torsion
[ 10167 10162 10161 10158 ] final  -59.87 input  -65.29 | X-H torsion
[ 10718 10713 10712 10709 ] final  -49.75 input   66.30 | X-H torsion
[ 10763 10752 10751 10750 ] final -168.26 input  -60.55 | X-H torsion
[ 11005 11000 10999 10996 ] final -141.37 input  -57.11 | X-H torsion

> <Gold.Protein.ActiveResidues>
 VAL166  LYS551  ARG553  GLY616  TRP617  ASP618  TYR619  PRO620  LYS621  CYS622 
 ASP623  PHE694  ASN695  SER759  ASP760  ASP761  ALA762  ILE779  LEU786  VAL792 
 PHE793  MET794  SER795  GLU796  ALA797  LYS798  CYS799  TRP800  GLU811  SER814 

> <Gold.Protein.RotatedAtoms>
  151.1423  133.4963  159.2596 H   0  0  0  0  0  0  0  0  0  0  0  0  # atno 6907 bound_to 6896
  151.1642  135.0287  159.8733 H   0  0  0  0  0  0  0  0  0  0  0  0  # atno 6908 bound_to 6896
  152.5462  134.1293  159.8485 H   0  0  0  0  0  0  0  0  0  0  0  0  # atno 6909 bound_to 6896
  145.0672  140.8333  143.4117 H   0  0  0  0  0  0  0  0  0  0  0  0  # atno 7974 bound_to 7965
  154.3998  140.1468  156.3387 H   0  0  0  0  0  0  0  0  0  0  0  0  # atno 8008 bound_to 7997
  155.8377  140.3463  155.5591 H   0  0  0  0  0  0  0  0  0  0  0  0  # atno 8009 bound_to 7997
  155.8121  140.0885  157.1888 H   0  0  0  0  0  0  0  0  0  0  0  0  # atno 8010 bound_to 7997
  140.6108  143.2386  151.5714 H   0  0  0  0  0  0  0  0  0  0  0  0  # atno 10167 bound_to 10162
  156.1864  130.4151  149.9433 H   0  0  0  0  0  0  0  0  0  0  0  0  # atno 10718 bound_to 10713
  154.6647  135.2930  154.9821 H   0  0  0  0  0  0  0  0  0  0  0  0  # atno 10763 bound_to 10752
  154.0869  135.6596  153.4850 H   0  0  0  0  0  0  0  0  0  0  0  0  # atno 10764 bound_to 10752
  153.0450  135.5210  154.7614 H   0  0  0  0  0  0  0  0  0  0  0  0  # atno 10765 bound_to 10752
  140.8331  134.2493  157.4847 H   0  0  0  0  0  0  0  0  0  0  0  0  # atno 11005 bound_to 11000
  145.1336  139.2616  143.5526 LP  0  0  0  0  0  0  0  0  0  0  0  0  # atno 17320 bound_to 7965
  146.3527  140.0994  142.8608 LP  0  0  0  0  0  0  0  0  0  0  0  0  # atno 17321 bound_to 7965
  139.5359  144.2781  152.1251 LP  0  0  0  0  0  0  0  0  0  0  0  0  # atno 17342 bound_to 10162
  140.1980  144.4686  150.6445 LP  0  0  0  0  0  0  0  0  0  0  0  0  # atno 17343 bound_to 10162
  156.7187  130.8998  151.3616 LP  0  0  0  0  0  0  0  0  0  0  0  0  # atno 17370 bound_to 10713
  157.6901  130.9225  150.0492 LP  0  0  0  0  0  0  0  0  0  0  0  0  # atno 17371 bound_to 10713
  139.8704  134.9596  156.4338 LP  0  0  0  0  0  0  0  0  0  0  0  0  # atno 17394 bound_to 11000
  140.8977  133.7802  155.9643 LP  0  0  0  0  0  0  0  0  0  0  0  0  # atno 17395 bound_to 11000

$$$$
