AV-unprocessed.smi:3281|AV-procd|sdf|12559|dock2
  -GOLD-   2272018483D 1   1.00000     0.00000
 Structure written by MMmdl.
 36 37  0  0  0  0  0  0  0  0  1 V2000
  144.7252  145.1287  153.1272 C   0  0  0  0  0  0  0  0  0  0  0  0
  144.2470  144.3366  154.3488 C   0  0  0  0  0  0  0  0  0  0  0  0
  145.2921  143.4290  154.9087 C   0  0  0  0  0  0  0  0  0  0  0  0
  145.3289  142.8666  156.1606 C   0  0  0  0  0  0  0  0  0  0  0  0
  146.4409  142.0512  156.3820 N   0  0  0  0  0  0  0  0  0  0  0  0
  147.2530  141.9970  155.3236 C   0  0  0  0  0  0  0  0  0  0  0  0
  148.4941  141.1643  155.2816 C   0  0  0  0  0  0  0  0  0  0  0  0
  149.3736  141.3212  156.5324 C   0  0  0  0  0  0  0  0  0  0  0  0
  150.2904  142.4422  156.3718 N   0  0  0  0  0  0  0  0  0  0  0  0
  150.9076  142.8329  157.6325 C   0  0  1  0  0  0  0  0  0  0  0  0
  151.7644  141.6719  158.1855 C   0  0  0  0  0  0  0  0  0  0  0  0
  152.4541  142.0267  159.5128 C   0  0  0  0  0  0  0  0  0  0  0  0
  153.4082  143.2211  159.3783 C   0  0  0  0  0  0  0  0  0  0  0  0
  152.5145  144.7185  158.8834 S   0  0  0  0  0  0  0  0  0  0  0  0
  151.7601  144.0854  157.3608 C   0  0  0  0  0  0  0  0  0  0  0  0
  146.6769  142.9510  153.9605 S   0  0  0  0  0  0  0  0  0  0  0  0
  143.9354  145.7812  152.7548 H   0  0  0  0  0  0  0  0  0  0  0  0
  145.0179  144.4638  152.3142 H   0  0  0  0  0  0  0  0  0  0  0  0
  145.5837  145.7530  153.3758 H   0  0  0  0  0  0  0  0  0  0  0  0
  143.9178  145.0328  155.1210 H   0  0  0  0  0  0  0  0  0  0  0  0
  143.3683  143.7506  154.0781 H   0  0  0  0  0  0  0  0  0  0  0  0
  144.6052  142.9890  156.9531 H   0  0  0  0  0  0  0  0  0  0  0  0
  148.2132  140.1194  155.1436 H   0  0  0  0  0  0  0  0  0  0  0  0
  149.0671  141.4461  154.3974 H   0  0  0  0  0  0  0  0  0  0  0  0
  148.7443  141.5027  157.4045 H   0  0  0  0  0  0  0  0  0  0  0  0
  149.9165  140.3941  156.7146 H   0  0  0  0  0  0  0  0  0  0  0  0
  149.7798  143.2262  155.9911 H   0  0  0  0  0  0  0  0  0  0  0  0
  150.1279  143.0970  158.3486 H   0  0  0  0  0  0  0  0  0  0  0  0
  151.1484  140.7876  158.3478 H   0  0  0  0  0  0  0  0  0  0  0  0
  152.5182  141.3840  157.4509 H   0  0  0  0  0  0  0  0  0  0  0  0
  151.7028  142.2392  160.2743 H   0  0  0  0  0  0  0  0  0  0  0  0
  153.0126  141.1606  159.8687 H   0  0  0  0  0  0  0  0  0  0  0  0
  153.9114  143.4114  160.3263 H   0  0  0  0  0  0  0  0  0  0  0  0
  154.1832  143.0083  158.6412 H   0  0  0  0  0  0  0  0  0  0  0  0
  152.5505  143.8664  156.6414 H   0  0  0  0  0  0  0  0  0  0  0  0
  151.1474  144.8793  156.9316 H   0  0  0  0  0  0  0  0  0  0  0  0
  1  2  1  0  0  0  0
  1 17  1  0  0  0  0
  1 18  1  0  0  0  0
  1 19  1  0  0  0  0
  2  3  1  0  0  0  0
  2 20  1  0  0  0  0
  2 21  1  0  0  0  0
  3 16  1  0  0  0  0
  3  4  2  0  0  0  0
  4  5  1  0  0  0  0
  4 22  1  0  0  0  0
  5  6  2  0  0  0  0
  6  7  1  0  0  0  0
  6 16  1  0  0  0  0
  7  8  1  0  0  0  0
  7 23  1  0  0  0  0
  7 24  1  0  0  0  0
  8  9  1  0  0  0  0
  8 25  1  0  0  0  0
  8 26  1  0  0  0  0
  9 10  1  0  0  0  0
  9 27  1  0  0  0  0
 10 15  1  0  0  0  0
 10 11  1  0  0  0  0
 10 28  1  0  0  0  0
 11 12  1  0  0  0  0
 11 29  1  0  0  0  0
 11 30  1  0  0  0  0
 12 13  1  0  0  0  0
 12 31  1  0  0  0  0
 12 32  1  0  0  0  0
 13 14  1  0  0  0  0
 13 33  1  0  0  0  0
 13 34  1  0  0  0  0
 14 15  1  0  0  0  0
 15 35  1  0  0  0  0
 15 36  1  0  0  0  0
M  END
> <s_m_source_file>
AV-unprocessed.smi

> <i_m_source_file_index>
3281

> <i_lp_mmshare_version>
43012

> <i_f3d_flags>
0

> <s_epik_input>
W0NIM11bQ0gyXWMxW2NIXW5jKHMxKVtDSDJdW0NIMl1bTkhdW0NAQEhdMltDSDJdW0NIMl1bQ0gyXVNbQ0gyXTI=

> <s_epik_cmdline>
J2VwaWtfcHl0aG9uJywgJy1waCcsICc3LjAnLCAnLXRuJywgJzgnLCAnLW1hJywgJzIwMCcsICctbWV0YWxfYmluZGluZycsICctaW1hZScsICc8aW5maWxlLm1hZT4nLCAnLW9tYWUnLCAnPG91dGZpbGUubWFlPic=

> <r_epik_Ionization_Penalty>
2.53829

> <r_epik_Ionization_Penalty_Charging>
0

> <r_epik_Ionization_Penalty_Neutral>
2.53829

> <r_epik_State_Penalty>
2.70274

> <r_epik_Charging_Adjusted_Penalty>
2.70274

> <i_epik_Tot_Q>
0

> <i_epik_Tot_abs_Q>
0

> <r_epik_Metal_State_Penalty>
2.69977

> <b_epik_Metal_Only>
0

> <s_lp_Force_Field>
OPLS_2005

> <r_lp_Energy>
0.42492

> <b_lp_Chiralities_Consistent>
1

> <s_lp_Variant>
AV-unprocessed.smi:3281-4

> <Gold.Version>
5.8.1

> <Gold.Id.Protein>
6NUR|6NUR_protein|mol2

> <Gold.PLP.Fitness>
40.4057

> <Gold.PLP.PLP>
-38.6503

> <Gold.PLP.part.hbond>
-1.0000

> <Gold.PLP.part.metal>
0.0000

> <Gold.PLP.part.buried>
-4.1515

> <Gold.PLP.part.nonpolar>
-34.0929

> <Gold.PLP.part.repulsive>
0.1094

> <Gold.PLP.ligand.clash>
0.0000

> <Gold.PLP.ligand.torsion>
0.6410

> <Gold.PLP.Chemscore.Hbond>
1.0000

> <Gold.PLP.Chemscore.CHOScore>
0.0000

> <Gold.PLP.Chemscore.Metal>
0.0000

> <Gold.Chemscore.Hbonds>
donor molecule, donor type, donor heavy atom, donor atom, acceptor molecule, acceptor atom, score
      L1  H     9    27       P1  8028  1.00

> <Gold.PLP.Chemscore.Internal.Correction>
0.0375

> <Gold.Rescore>
     Score         DG    S(hbond)    S(metal)    S(lipo)     H(rot)  DE(clash)    DE(int)     intcor
     18.25     -18.88       0.99        0.00     114.64       1.30       0.03       0.60       ----

> <Gold.Chemscore.Fitness>
18.2453

> <Gold.Chemscore.DG>
-18.8766

> <Gold.Chemscore.ZeroCoef>
-5.4800

> <Gold.Chemscore.Hbond>
0.9893

> <Gold.Chemscore.Metal>
0.0000

> <Gold.Chemscore.Lipo>
114.6417

> <Gold.Chemscore.Internal_Hbond>
0.0000

> <Gold.Chemscore.DEClash>
0.0274

> <Gold.Chemscore.DEInternal>
0.6039

> <Gold.Chemscore.Rot>
1.2972

> <Gold.Chemscore.Internal.Correction>
   9.000000E+99

> <Gold.Chemscore.Hbonds>
donor molecule, donor type, donor heavy atom, donor atom, acceptor molecule, acceptor atom, score
      L1  H     9    27       P1  8028  1.00

> <Gold.Chemscore.Hbond.Weighted>
-3.3044

> <Gold.Chemscore.Metal.Weighted>
-0.0000

> <Gold.Chemscore.Lipo.Weighted>
-13.4131

> <Gold.Chemscore.Internal_Hbond.Weighted>
0.0000

> <Gold.Chemscore.DEClash.Weighted>
0.0274

> <Gold.Chemscore.DEInternal.Weighted>
0.6039

> <Gold.Chemscore.Rot.Weighted>
3.3208

> <Gold.Chemscore.Internal.Correction.Weighted>
   9.000000E+99

> <Gold.Protein.RotatedTorsions>
[ 6907 6896 6895 6894 ] final -161.46 input  -60.11 | X-H torsion
[ 7974 7965 7964 7962 ] final  -19.81 input  175.53 | X-H torsion
[ 8008 7997 7996 7995 ] final  136.53 input   59.86 | X-H torsion
[ 10167 10162 10161 10158 ] final  -21.80 input  -65.29 | X-H torsion
[ 10718 10713 10712 10709 ] final  -36.61 input   66.30 | X-H torsion
[ 10763 10752 10751 10750 ] final   71.98 input  -60.55 | X-H torsion
[ 11005 11000 10999 10996 ] final -114.85 input  -57.11 | X-H torsion

> <Gold.Protein.ActiveResidues>
 VAL166  LYS551  ARG553  GLY616  TRP617  ASP618  TYR619  PRO620  LYS621  CYS622 
 ASP623  PHE694  ASN695  SER759  ASP760  ASP761  ALA762  ILE779  LEU786  VAL792 
 PHE793  MET794  SER795  GLU796  ALA797  LYS798  CYS799  TRP800  GLU811  SER814 

> <Gold.Protein.RotatedAtoms>
  151.3649  133.3876  159.2693 H   0  0  0  0  0  0  0  0  0  0  0  0  # atno 6907 bound_to 6896
  150.9696  134.9072  159.7790 H   0  0  0  0  0  0  0  0  0  0  0  0  # atno 6908 bound_to 6896
  152.5179  134.3611  159.9337 H   0  0  0  0  0  0  0  0  0  0  0  0  # atno 6909 bound_to 6896
  146.1821  140.4114  142.8490 H   0  0  0  0  0  0  0  0  0  0  0  0  # atno 7974 bound_to 7965
  156.3004  140.2443  156.3761 H   0  0  0  0  0  0  0  0  0  0  0  0  # atno 8008 bound_to 7997
  154.8744  140.0415  157.1764 H   0  0  0  0  0  0  0  0  0  0  0  0  # atno 8009 bound_to 7997
  154.8761  140.2942  155.5456 H   0  0  0  0  0  0  0  0  0  0  0  0  # atno 8010 bound_to 7997
  140.7283  143.4594  151.0402 H   0  0  0  0  0  0  0  0  0  0  0  0  # atno 10167 bound_to 10162
  156.3248  130.4271  149.7926 H   0  0  0  0  0  0  0  0  0  0  0  0  # atno 10718 bound_to 10713
  153.0431  135.5117  154.7675 H   0  0  0  0  0  0  0  0  0  0  0  0  # atno 10763 bound_to 10752
  154.6596  135.2937  154.9885 H   0  0  0  0  0  0  0  0  0  0  0  0  # atno 10764 bound_to 10752
  154.0741  135.6673  153.4881 H   0  0  0  0  0  0  0  0  0  0  0  0  # atno 10765 bound_to 10752
  141.0526  133.9664  157.2810 H   0  0  0  0  0  0  0  0  0  0  0  0  # atno 11005 bound_to 11000
  144.8334  140.6743  143.6276 LP  0  0  0  0  0  0  0  0  0  0  0  0  # atno 17320 bound_to 7965
  145.4045  139.1591  143.4159 LP  0  0  0  0  0  0  0  0  0  0  0  0  # atno 17321 bound_to 7965
  139.8277  143.7733  152.3179 LP  0  0  0  0  0  0  0  0  0  0  0  0  # atno 17342 bound_to 10162
  139.7838  144.7435  151.0051 LP  0  0  0  0  0  0  0  0  0  0  0  0  # atno 17343 bound_to 10162
  156.5221  130.8219  151.3207 LP  0  0  0  0  0  0  0  0  0  0  0  0  # atno 17370 bound_to 10713
  157.7419  130.9879  150.2478 LP  0  0  0  0  0  0  0  0  0  0  0  0  # atno 17371 bound_to 10713
  139.9363  135.0196  156.8565 LP  0  0  0  0  0  0  0  0  0  0  0  0  # atno 17394 bound_to 11000
  140.6027  134.0157  155.7544 LP  0  0  0  0  0  0  0  0  0  0  0  0  # atno 17395 bound_to 11000

$$$$
