AV-unprocessed.smi:2355|AV-procd|sdf|9391|dock5
  -GOLD-   2272013 23D 1   1.00000     0.00000
 Structure written by MMmdl.
 49 50  0  0  0  0  0  0  0  0  2 V2000
  152.0587  145.3171  159.1561 C   0  0  0  0  0  0  0  0  0  0  0  0
  152.1907  143.8101  159.2230 C   0  0  0  0  0  0  0  0  0  0  0  0
  152.9882  143.1979  160.2084 C   0  0  0  0  0  0  0  0  0  0  0  0
  153.0709  141.7918  160.2177 C   0  0  0  0  0  0  0  0  0  0  0  0
  153.9141  141.0687  161.2464 C   0  0  0  0  0  0  0  0  0  0  0  0
  152.4242  141.0097  159.3269 N   0  0  0  0  0  0  0  0  0  0  0  0
  151.6532  141.5882  158.3732 C   0  0  0  0  0  0  0  0  0  0  0  0
  150.9340  140.8555  157.3914 N   0  0  0  0  0  0  0  0  0  0  0  0
  151.1228  139.5819  157.0034 C   0  0  0  0  0  0  0  0  0  0  0  0
  151.9818  138.8196  157.4479 O   0  0  0  0  0  0  0  0  0  0  0  0
  150.2434  139.2253  156.0552 N   0  0  0  0  0  0  0  0  0  0  0  0
  150.1779  137.9098  155.4195 C   0  0  2  0  0  0  0  0  0  0  0  0
  150.9774  137.9562  154.1054 C   0  0  0  0  0  0  0  0  0  0  0  0
  148.7042  137.4300  155.2314 C   0  0  1  0  0  0  0  0  0  0  0  0
  147.8491  138.4985  154.5034 C   0  0  0  0  0  0  0  0  0  0  0  0
  148.6490  136.0747  154.5880 N   0  3  0  0  0  0  0  0  0  0  0  0
  149.6761  135.1401  155.1257 C   0  0  0  0  0  0  0  0  0  0  0  0
  149.6397  133.7887  154.3941 C   0  0  0  0  0  0  0  0  0  0  0  0
  148.3432  133.2217  154.5067 O   0  0  0  0  0  0  0  0  0  0  0  0
  147.3619  134.0477  153.8989 C   0  0  0  0  0  0  0  0  0  0  0  0
  147.3153  135.4119  154.6080 C   0  0  0  0  0  0  0  0  0  0  0  0
  151.5144  142.9924  158.2949 C   0  0  0  0  0  0  0  0  0  0  0  0
  152.6869  145.8033  159.9032 H   0  0  0  0  0  0  0  0  0  0  0  0
  151.0251  145.6141  159.3342 H   0  0  0  0  0  0  0  0  0  0  0  0
  152.3571  145.6801  158.1723 H   0  0  0  0  0  0  0  0  0  0  0  0
  153.5229  143.7895  160.9373 H   0  0  0  0  0  0  0  0  0  0  0  0
  154.2336  141.7447  162.0402 H   0  0  0  0  0  0  0  0  0  0  0  0
  154.8037  140.6488  160.7760 H   0  0  0  0  0  0  0  0  0  0  0  0
  153.3486  140.2551  161.7018 H   0  0  0  0  0  0  0  0  0  0  0  0
  150.1900  141.3606  156.9334 H   0  0  0  0  0  0  0  0  0  0  0  0
  149.5727  139.9139  155.7464 H   0  0  0  0  0  0  0  0  0  0  0  0
  150.7064  137.2275  156.0841 H   0  0  0  0  0  0  0  0  0  0  0  0
  151.0071  136.9803  153.6204 H   0  0  0  0  0  0  0  0  0  0  0  0
  152.0098  138.2551  154.2897 H   0  0  0  0  0  0  0  0  0  0  0  0
  150.5541  138.6688  153.3972 H   0  0  0  0  0  0  0  0  0  0  0  0
  148.2571  137.3194  156.2206 H   0  0  0  0  0  0  0  0  0  0  0  0
  147.9437  139.4798  154.9676 H   0  0  0  0  0  0  0  0  0  0  0  0
  146.7862  138.2595  154.5392 H   0  0  0  0  0  0  0  0  0  0  0  0
  148.1349  138.6031  153.4566 H   0  0  0  0  0  0  0  0  0  0  0  0
  150.6776  135.5524  155.0230 H   0  0  0  0  0  0  0  0  0  0  0  0
  149.5056  134.9851  156.1923 H   0  0  0  0  0  0  0  0  0  0  0  0
  149.9143  133.9039  153.3444 H   0  0  0  0  0  0  0  0  0  0  0  0
  150.3621  133.1034  154.8378 H   0  0  0  0  0  0  0  0  0  0  0  0
  147.5769  134.1679  152.8358 H   0  0  0  0  0  0  0  0  0  0  0  0
  146.3923  133.5545  153.9722 H   0  0  0  0  0  0  0  0  0  0  0  0
  146.9827  135.2863  155.6397 H   0  0  0  0  0  0  0  0  0  0  0  0
  146.5707  136.0193  154.0945 H   0  0  0  0  0  0  0  0  0  0  0  0
  150.8967  143.4413  157.5304 H   0  0  0  0  0  0  0  0  0  0  0  0
  148.8675  136.2191  153.6126 H   0  0  0  0  0  0  0  0  0  0  0  0
  1  2  1  0  0  0  0
  1 23  1  0  0  0  0
  1 24  1  0  0  0  0
  1 25  1  0  0  0  0
  2 22  1  0  0  0  0
  2  3  2  0  0  0  0
  3  4  1  0  0  0  0
  3 26  1  0  0  0  0
  4  5  1  0  0  0  0
  4  6  2  0  0  0  0
  5 27  1  0  0  0  0
  5 28  1  0  0  0  0
  5 29  1  0  0  0  0
  6  7  1  0  0  0  0
  7  8  1  0  0  0  0
  7 22  2  0  0  0  0
  8  9  1  0  0  0  0
  8 30  1  0  0  0  0
  9 10  2  0  0  0  0
  9 11  1  0  0  0  0
 11 12  1  0  0  0  0
 11 31  1  0  0  0  0
 12 13  1  0  0  0  0
 12 14  1  0  0  0  0
 12 32  1  0  0  0  0
 13 33  1  0  0  0  0
 13 34  1  0  0  0  0
 13 35  1  0  0  0  0
 14 15  1  0  0  0  0
 14 16  1  0  0  0  0
 14 36  1  0  0  0  0
 15 37  1  0  0  0  0
 15 38  1  0  0  0  0
 15 39  1  0  0  0  0
 16 21  1  0  0  0  0
 16 17  1  0  0  0  0
 16 49  1  0  0  0  0
 17 18  1  0  0  0  0
 17 40  1  0  0  0  0
 17 41  1  0  0  0  0
 18 19  1  0  0  0  0
 18 42  1  0  0  0  0
 18 43  1  0  0  0  0
 19 20  1  0  0  0  0
 20 21  1  0  0  0  0
 20 44  1  0  0  0  0
 20 45  1  0  0  0  0
 21 46  1  0  0  0  0
 21 47  1  0  0  0  0
 22 48  1  0  0  0  0
M  CHG  1  16   1
M  END
> <s_m_source_file>
AV-unprocessed.smi

> <i_m_source_file_index>
2355

> <i_lp_mmshare_version>
43012

> <i_f3d_flags>
0

> <s_epik_input>
W0NIM11jMVtjSF1jKFtDSDNdKW5jKFtjSF0xKVtOSF1DKD1PKVtOSF1bQ0BIXShbQ0gzXSlbQ0BIXShbQ0gzXSlOMltDSDJdW0NIMl1PW0NIMl1bQ0gyXTI=

> <s_epik_cmdline>
J2VwaWtfcHl0aG9uJywgJy1waCcsICc3LjAnLCAnLXRuJywgJzgnLCAnLW1hJywgJzIwMCcsICctbWV0YWxfYmluZGluZycsICctaW1hZScsICc8aW5maWxlLm1hZT4nLCAnLW9tYWUnLCAnPG91dGZpbGUubWFlPic=

> <r_epik_Ionization_Penalty>
0.602711

> <r_epik_Ionization_Penalty_Charging>
0.602531

> <r_epik_Ionization_Penalty_Neutral>
0.000180055

> <r_epik_State_Penalty>
0.617039

> <r_epik_Charging_Adjusted_Penalty>
1.21957

> <i_epik_Tot_Q>
1

> <i_epik_Tot_abs_Q>
1

> <r_epik_Metal_State_Penalty>
0.617075

> <b_epik_Metal_Only>
0

> <s_lp_Force_Field>
OPLS_2005

> <r_lp_Energy>
24.3328

> <b_lp_Chiralities_Consistent>
1

> <s_lp_Variant>
AV-unprocessed.smi:2355-7

> <Gold.Version>
5.8.1

> <Gold.Id.Protein>
6NUR|6NUR_protein|mol2

> <Gold.PLP.Fitness>
43.4817

> <Gold.PLP.PLP>
-38.5238

> <Gold.PLP.part.hbond>
-1.0000

> <Gold.PLP.part.metal>
0.0000

> <Gold.PLP.part.buried>
-5.6842

> <Gold.PLP.part.nonpolar>
-32.6198

> <Gold.PLP.part.repulsive>
0.1441

> <Gold.PLP.ligand.clash>
0.0000

> <Gold.PLP.ligand.torsion>
0.5779

> <Gold.PLP.Chemscore.Hbond>
2.0000

> <Gold.PLP.Chemscore.CHOScore>
0.0000

> <Gold.PLP.Chemscore.Metal>
0.0000

> <Gold.Chemscore.Hbonds>
donor molecule, donor type, donor heavy atom, donor atom, acceptor molecule, acceptor atom, score
      L1  H    16    49       P1  7948  2.00

> <Gold.PLP.Chemscore.Internal.Correction>
0.1136

> <Gold.Rescore>
     Score         DG    S(hbond)    S(metal)    S(lipo)     H(rot)  DE(clash)    DE(int)     intcor
     15.82     -17.63       0.99        0.00     107.13       1.45       0.01       1.80       ----

> <Gold.Chemscore.Fitness>
15.8156

> <Gold.Chemscore.DG>
-17.6277

> <Gold.Chemscore.ZeroCoef>
-5.4800

> <Gold.Chemscore.Hbond>
0.9929

> <Gold.Chemscore.Metal>
0.0000

> <Gold.Chemscore.Lipo>
107.1251

> <Gold.Chemscore.Internal_Hbond>
0.0000

> <Gold.Chemscore.DEClash>
0.0103

> <Gold.Chemscore.DEInternal>
1.8018

> <Gold.Chemscore.Rot>
1.4462

> <Gold.Chemscore.Internal.Correction>
   9.000000E+99

> <Gold.Chemscore.Hbonds>
donor molecule, donor type, donor heavy atom, donor atom, acceptor molecule, acceptor atom, score
      L1  H    16    49       P1  7948  1.00

> <Gold.Chemscore.Hbond.Weighted>
-3.3163

> <Gold.Chemscore.Metal.Weighted>
-0.0000

> <Gold.Chemscore.Lipo.Weighted>
-12.5336

> <Gold.Chemscore.Internal_Hbond.Weighted>
0.0000

> <Gold.Chemscore.DEClash.Weighted>
0.0103

> <Gold.Chemscore.DEInternal.Weighted>
1.8018

> <Gold.Chemscore.Rot.Weighted>
3.7023

> <Gold.Chemscore.Internal.Correction.Weighted>
   9.000000E+99

> <Gold.Protein.RotatedTorsions>
[ 6907 6896 6895 6894 ] final  135.32 input  -60.11 | X-H torsion
[ 7974 7965 7964 7962 ] final  -98.27 input  175.53 | X-H torsion
[ 8008 7997 7996 7995 ] final  -11.53 input   59.86 | X-H torsion
[ 10167 10162 10161 10158 ] final  125.93 input  -65.29 | X-H torsion
[ 10718 10713 10712 10709 ] final    1.29 input   66.30 | X-H torsion
[ 10763 10752 10751 10750 ] final   -0.67 input  -60.55 | X-H torsion
[ 11005 11000 10999 10996 ] final  167.96 input  -57.11 | X-H torsion

> <Gold.Protein.ActiveResidues>
 VAL166  LYS551  ARG553  GLY616  TRP617  ASP618  TYR619  PRO620  LYS621  CYS622 
 ASP623  PHE694  ASN695  SER759  ASP760  ASP761  ALA762  ILE779  LEU786  VAL792 
 PHE793  MET794  SER795  GLU796  ALA797  LYS798  CYS799  TRP800  GLU811  SER814 

> <Gold.Protein.RotatedAtoms>
  152.3017  133.5662  159.5622 H   0  0  0  0  0  0  0  0  0  0  0  0  # atno 6907 bound_to 6896
  150.7281  134.0281  159.3733 H   0  0  0  0  0  0  0  0  0  0  0  0  # atno 6908 bound_to 6896
  151.8181  135.0660  160.0472 H   0  0  0  0  0  0  0  0  0  0  0  0  # atno 6909 bound_to 6896
  145.3228  140.9425  143.2706 H   0  0  0  0  0  0  0  0  0  0  0  0  # atno 7974 bound_to 7965
  154.5456  140.2300  155.8568 H   0  0  0  0  0  0  0  0  0  0  0  0  # atno 8008 bound_to 7997
  156.1900  140.3079  155.9275 H   0  0  0  0  0  0  0  0  0  0  0  0  # atno 8009 bound_to 7997
  155.3170  140.0438  157.3028 H   0  0  0  0  0  0  0  0  0  0  0  0  # atno 8010 bound_to 7997
  139.5658  144.6910  151.3914 H   0  0  0  0  0  0  0  0  0  0  0  0  # atno 10167 bound_to 10162
  156.8460  130.5537  149.5673 H   0  0  0  0  0  0  0  0  0  0  0  0  # atno 10718 bound_to 10713
  153.3349  135.6977  153.6916 H   0  0  0  0  0  0  0  0  0  0  0  0  # atno 10763 bound_to 10752
  153.5704  135.3517  155.2836 H   0  0  0  0  0  0  0  0  0  0  0  0  # atno 10764 bound_to 10752
  154.8625  135.4271  154.2547 H   0  0  0  0  0  0  0  0  0  0  0  0  # atno 10765 bound_to 10752
  140.2823  134.7741  157.3768 H   0  0  0  0  0  0  0  0  0  0  0  0  # atno 11005 bound_to 11000
  144.8925  139.4755  143.6671 LP  0  0  0  0  0  0  0  0  0  0  0  0  # atno 17320 bound_to 7965
  146.3075  139.7632  142.9045 LP  0  0  0  0  0  0  0  0  0  0  0  0  # atno 17321 bound_to 7965
  140.6942  143.7790  150.7300 LP  0  0  0  0  0  0  0  0  0  0  0  0  # atno 17342 bound_to 10162
  140.1281  143.4551  152.2271 LP  0  0  0  0  0  0  0  0  0  0  0  0  # atno 17343 bound_to 10162
  156.0854  130.5854  150.9639 LP  0  0  0  0  0  0  0  0  0  0  0  0  # atno 17370 bound_to 10713
  157.6329  131.0919  150.8405 LP  0  0  0  0  0  0  0  0  0  0  0  0  # atno 17371 bound_to 10713
  140.1272  134.5142  155.8135 LP  0  0  0  0  0  0  0  0  0  0  0  0  # atno 17394 bound_to 11000
  141.2160  133.6777  156.6974 LP  0  0  0  0  0  0  0  0  0  0  0  0  # atno 17395 bound_to 11000

$$$$
