AV-unprocessed.smi:2737|AV-procd|sdf|10547|dock5
  -GOLD-   2272014593D 1   1.00000     0.00000
 Structure written by MMmdl.
 43 44  0  0  0  0  0  0  0  0  1 V2000
  152.8376  142.5999  161.1658 C   0  0  0  0  0  0  0  0  0  0  0  0
  151.6233  142.9436  160.5046 O   0  0  0  0  0  0  0  0  0  0  0  0
  151.6666  143.1431  159.0862 C   0  0  0  0  0  0  0  0  0  0  0  0
  150.3611  143.7879  158.5708 C   0  0  0  0  0  0  0  0  0  0  0  0
  152.8507  144.0946  158.8540 C   0  0  0  0  0  0  0  0  0  0  0  0
  151.9424  141.8135  158.4349 C   0  0  0  0  0  0  0  0  0  0  0  0
  151.3716  141.3321  157.3311 N   0  0  0  0  0  0  0  0  0  0  0  0
  152.1000  140.2004  157.1234 C   0  0  0  0  0  0  0  0  0  0  0  0
  151.8297  139.2576  155.9950 C   0  0  0  0  0  0  0  0  0  0  0  0
  150.4987  139.5954  155.3217 C   0  0  0  0  0  0  0  0  0  0  0  0
  150.3296  140.7038  154.8137 O   0  0  0  0  0  0  0  0  0  0  0  0
  149.5635  138.6320  155.3249 N   0  0  0  0  0  0  0  0  0  0  0  0
  148.2229  138.7543  154.7602 C   0  0  0  0  0  0  0  0  0  0  0  0
  147.5411  137.3729  154.7475 C   0  0  0  0  0  0  0  0  0  0  0  0
  146.1417  137.4426  154.1143 C   0  0  0  0  0  0  0  0  0  0  0  0
  146.1997  138.0380  152.6985 C   0  0  0  0  0  0  0  0  0  0  0  0
  146.8773  139.4172  152.7042 C   0  0  0  0  0  0  0  0  0  0  0  0
  148.2766  139.3494  153.3370 C   0  0  0  0  0  0  0  0  0  0  0  0
  153.0813  139.9781  157.9887 N   0  0  0  0  0  0  0  0  0  0  0  0
  153.0085  141.0825  158.8487 O   0  0  0  0  0  0  0  0  0  0  0  0
  152.6739  142.6221  162.2431 H   0  0  0  0  0  0  0  0  0  0  0  0
  153.6466  143.2955  160.9422 H   0  0  0  0  0  0  0  0  0  0  0  0
  153.1619  141.5910  160.9108 H   0  0  0  0  0  0  0  0  0  0  0  0
  150.4387  144.0362  157.5118 H   0  0  0  0  0  0  0  0  0  0  0  0
  150.1397  144.7109  159.1070 H   0  0  0  0  0  0  0  0  0  0  0  0
  149.5036  143.1233  158.6778 H   0  0  0  0  0  0  0  0  0  0  0  0
  152.9993  144.2914  157.7918 H   0  0  0  0  0  0  0  0  0  0  0  0
  153.7780  143.6734  159.2446 H   0  0  0  0  0  0  0  0  0  0  0  0
  152.6900  145.0527  159.3493 H   0  0  0  0  0  0  0  0  0  0  0  0
  152.6364  139.3152  155.2626 H   0  0  0  0  0  0  0  0  0  0  0  0
  151.8142  138.2326  156.3679 H   0  0  0  0  0  0  0  0  0  0  0  0
  149.7916  137.7532  155.7668 H   0  0  0  0  0  0  0  0  0  0  0  0
  147.6328  139.4162  155.3974 H   0  0  0  0  0  0  0  0  0  0  0  0
  148.1538  136.6627  154.1900 H   0  0  0  0  0  0  0  0  0  0  0  0
  147.4650  136.9835  155.7637 H   0  0  0  0  0  0  0  0  0  0  0  0
  145.6983  136.4470  154.0817 H   0  0  0  0  0  0  0  0  0  0  0  0
  145.4880  138.0515  154.7403 H   0  0  0  0  0  0  0  0  0  0  0  0
  146.7492  137.3637  152.0405 H   0  0  0  0  0  0  0  0  0  0  0  0
  145.1932  138.1196  152.2874 H   0  0  0  0  0  0  0  0  0  0  0  0
  146.9479  139.8011  151.6861 H   0  0  0  0  0  0  0  0  0  0  0  0
  146.2603  140.1250  153.2589 H   0  0  0  0  0  0  0  0  0  0  0  0
  148.7126  140.3488  153.3602 H   0  0  0  0  0  0  0  0  0  0  0  0
  148.9290  138.7430  152.7070 H   0  0  0  0  0  0  0  0  0  0  0  0
  1  2  1  0  0  0  0
  1 21  1  0  0  0  0
  1 22  1  0  0  0  0
  1 23  1  0  0  0  0
  2  3  1  0  0  0  0
  3  4  1  0  0  0  0
  3  5  1  0  0  0  0
  3  6  1  0  0  0  0
  4 24  1  0  0  0  0
  4 25  1  0  0  0  0
  4 26  1  0  0  0  0
  5 27  1  0  0  0  0
  5 28  1  0  0  0  0
  5 29  1  0  0  0  0
  6 20  1  0  0  0  0
  6  7  2  0  0  0  0
  7  8  1  0  0  0  0
  8  9  1  0  0  0  0
  8 19  2  0  0  0  0
  9 10  1  0  0  0  0
  9 30  1  0  0  0  0
  9 31  1  0  0  0  0
 10 11  2  0  0  0  0
 10 12  1  0  0  0  0
 12 13  1  0  0  0  0
 12 32  1  0  0  0  0
 13 18  1  0  0  0  0
 13 14  1  0  0  0  0
 13 33  1  0  0  0  0
 14 15  1  0  0  0  0
 14 34  1  0  0  0  0
 14 35  1  0  0  0  0
 15 16  1  0  0  0  0
 15 36  1  0  0  0  0
 15 37  1  0  0  0  0
 16 17  1  0  0  0  0
 16 38  1  0  0  0  0
 16 39  1  0  0  0  0
 17 18  1  0  0  0  0
 17 40  1  0  0  0  0
 17 41  1  0  0  0  0
 18 42  1  0  0  0  0
 18 43  1  0  0  0  0
 19 20  1  0  0  0  0
M  END
> <s_m_source_file>
AV-unprocessed.smi

> <i_m_source_file_index>
2737

> <i_lp_mmshare_version>
43012

> <i_f3d_flags>
0

> <s_epik_input>
W0NIM11PQyhbQ0gzXSkoW0NIM10pYzFuYyhubzEpW0NIMl1DKD1PKVtOSF1bQ0hdMltDSDJdW0NIMl1bQ0gyXVtDSDJdW0NIMl0y

> <s_epik_cmdline>
J2VwaWtfcHl0aG9uJywgJy1waCcsICc3LjAnLCAnLXRuJywgJzgnLCAnLW1hJywgJzIwMCcsICctbWV0YWxfYmluZGluZycsICctaW1hZScsICc8aW5maWxlLm1hZT4nLCAnLW9tYWUnLCAnPG91dGZpbGUubWFlPic=

> <r_lp_tautomer_probability>
1

> <r_epik_Ionization_Penalty>
6.23621e-08

> <r_epik_Ionization_Penalty_Charging>
0

> <r_epik_Ionization_Penalty_Neutral>
6.23621e-08

> <r_epik_State_Penalty>
-0

> <r_epik_Charging_Adjusted_Penalty>
0

> <i_epik_Tot_Q>
0

> <i_epik_Tot_abs_Q>
0

> <r_epik_Metal_State_Penalty>
-0

> <b_epik_Metal_Only>
0

> <s_lp_Force_Field>
OPLS_2005

> <r_lp_Energy>
12.1287

> <b_lp_Chiralities_Consistent>
1

> <s_lp_Variant>
AV-unprocessed.smi:2737-1

> <Gold.Version>
5.8.1

> <Gold.Id.Protein>
6NUR|6NUR_protein|mol2

> <Gold.PLP.Fitness>
34.8435

> <Gold.PLP.PLP>
-30.2493

> <Gold.PLP.part.hbond>
-3.0000

> <Gold.PLP.part.metal>
0.0000

> <Gold.PLP.part.buried>
0.1776

> <Gold.PLP.part.nonpolar>
-27.7648

> <Gold.PLP.part.repulsive>
0.1991

> <Gold.PLP.ligand.clash>
0.0000

> <Gold.PLP.ligand.torsion>
0.6352

> <Gold.PLP.Chemscore.Hbond>
1.8800

> <Gold.PLP.Chemscore.CHOScore>
0.0000

> <Gold.PLP.Chemscore.Metal>
0.0000

> <Gold.Chemscore.Hbonds>
donor molecule, donor type, donor heavy atom, donor atom, acceptor molecule, acceptor atom, score
      P1  H  7989  7998       L1    11  0.86
      P1  H  7997  8009       L1    19  0.99

> <Gold.PLP.Chemscore.Internal.Correction>
0.2246

> <Gold.Rescore>
     Score         DG    S(hbond)    S(metal)    S(lipo)     H(rot)  DE(clash)    DE(int)     intcor
      9.39     -13.84       1.42        0.00      71.54       1.86       0.29       4.16       ----

> <Gold.Chemscore.Fitness>
9.3927

> <Gold.Chemscore.DG>
-13.8361

> <Gold.Chemscore.ZeroCoef>
-5.4800

> <Gold.Chemscore.Hbond>
1.4212

> <Gold.Chemscore.Metal>
0.0000

> <Gold.Chemscore.Lipo>
71.5361

> <Gold.Chemscore.Internal_Hbond>
0.0000

> <Gold.Chemscore.DEClash>
0.2878

> <Gold.Chemscore.DEInternal>
4.1557

> <Gold.Chemscore.Rot>
1.8596

> <Gold.Chemscore.Internal.Correction>
   9.000000E+99

> <Gold.Chemscore.Hbonds>
donor molecule, donor type, donor heavy atom, donor atom, acceptor molecule, acceptor atom, score
      P1  H  7989  7998       L1    11  0.51
      P1  H  7997  8009       L1    19  0.43

> <Gold.Chemscore.Hbond.Weighted>
-4.7469

> <Gold.Chemscore.Metal.Weighted>
-0.0000

> <Gold.Chemscore.Lipo.Weighted>
-8.3697

> <Gold.Chemscore.Internal_Hbond.Weighted>
0.0000

> <Gold.Chemscore.DEClash.Weighted>
0.2878

> <Gold.Chemscore.DEInternal.Weighted>
4.1557

> <Gold.Chemscore.Rot.Weighted>
4.7605

> <Gold.Chemscore.Internal.Correction.Weighted>
   9.000000E+99

> <Gold.Protein.RotatedTorsions>
[ 6907 6896 6895 6894 ] final   55.83 input  -60.11 | X-H torsion
[ 7974 7965 7964 7962 ] final   21.83 input  175.53 | X-H torsion
[ 8008 7997 7996 7995 ] final  148.51 input   59.86 | X-H torsion
[ 10167 10162 10161 10158 ] final   90.43 input  -65.29 | X-H torsion
[ 10718 10713 10712 10709 ] final  115.97 input   66.30 | X-H torsion
[ 10763 10752 10751 10750 ] final   19.14 input  -60.55 | X-H torsion
[ 11005 11000 10999 10996 ] final -105.26 input  -57.11 | X-H torsion

> <Gold.Protein.ActiveResidues>
 VAL166  LYS551  ARG553  GLY616  TRP617  ASP618  TYR619  PRO620  LYS621  CYS622 
 ASP623  PHE694  ASN695  SER759  ASP760  ASP761  ALA762  ILE779  LEU786  VAL792 
 PHE793  MET794  SER795  GLU796  ALA797  LYS798  CYS799  TRP800  GLU811  SER814 

> <Gold.Protein.RotatedAtoms>
  152.3577  134.6916  160.0216 H   0  0  0  0  0  0  0  0  0  0  0  0  # atno 6907 bound_to 6896
  151.7250  133.3310  159.3333 H   0  0  0  0  0  0  0  0  0  0  0  0  # atno 6908 bound_to 6896
  150.7583  134.6348  159.6250 H   0  0  0  0  0  0  0  0  0  0  0  0  # atno 6909 bound_to 6896
  146.2055  139.7971  142.8729 H   0  0  0  0  0  0  0  0  0  0  0  0  # atno 7974 bound_to 7965
  156.2788  140.2126  156.5710 H   0  0  0  0  0  0  0  0  0  0  0  0  # atno 8008 bound_to 7997
  154.7135  140.0510  157.0596 H   0  0  0  0  0  0  0  0  0  0  0  0  # atno 8009 bound_to 7997
  155.0573  140.3163  155.4675 H   0  0  0  0  0  0  0  0  0  0  0  0  # atno 8010 bound_to 7997
  139.8473  144.6611  150.9211 H   0  0  0  0  0  0  0  0  0  0  0  0  # atno 10167 bound_to 10162
  157.6189  131.1019  150.7406 H   0  0  0  0  0  0  0  0  0  0  0  0  # atno 10718 bound_to 10713
  153.1187  135.6714  153.9372 H   0  0  0  0  0  0  0  0  0  0  0  0  # atno 10763 bound_to 10752
  153.8894  135.3049  155.3448 H   0  0  0  0  0  0  0  0  0  0  0  0  # atno 10764 bound_to 10752
  154.7601  135.4992  153.9527 H   0  0  0  0  0  0  0  0  0  0  0  0  # atno 10765 bound_to 10752
  141.1061  133.8793  157.1713 H   0  0  0  0  0  0  0  0  0  0  0  0  # atno 11005 bound_to 11000
  145.3335  141.0272  143.3433 LP  0  0  0  0  0  0  0  0  0  0  0  0  # atno 17320 bound_to 7965
  144.8782  139.4941  143.6735 LP  0  0  0  0  0  0  0  0  0  0  0  0  # atno 17321 bound_to 7965
  140.7791  143.3858  151.1396 LP  0  0  0  0  0  0  0  0  0  0  0  0  # atno 17342 bound_to 10162
  139.7499  143.8794  152.3074 LP  0  0  0  0  0  0  0  0  0  0  0  0  # atno 17343 bound_to 10162
  156.7767  130.4846  149.5408 LP  0  0  0  0  0  0  0  0  0  0  0  0  # atno 17370 bound_to 10713
  156.1325  130.6188  151.0353 LP  0  0  0  0  0  0  0  0  0  0  0  0  # atno 17371 bound_to 10713
  139.9933  135.0056  157.0024 LP  0  0  0  0  0  0  0  0  0  0  0  0  # atno 17394 bound_to 11000
  140.4897  134.1205  155.7230 LP  0  0  0  0  0  0  0  0  0  0  0  0  # atno 17395 bound_to 11000

$$$$
