AV-unprocessed.smi:320|AV-procd|sdf|2332|dock3
  -GOLD-   2262022233D 1   1.00000     0.00000
 Structure written by MMmdl.
 49 52  0  0  0  0  0  0  0  0  1 V2000
  147.4129  137.0254  156.7796 C   0  0  0  0  0  0  0  0  0  0  0  0
  148.7554  137.4045  157.4377 C   0  0  2  0  0  0  0  0  0  0  0  0
  148.5837  137.3814  158.8911 N   0  0  0  0  0  0  0  0  0  0  0  0
  148.5785  136.2863  159.6663 C   0  0  0  0  0  0  0  0  0  0  0  0
  148.7379  135.1461  159.2279 O   0  0  0  0  0  0  0  0  0  0  0  0
  148.3727  136.5339  161.1677 C   0  0  0  0  0  0  0  0  0  0  0  0
  147.1752  135.8722  161.7121 N   0  0  0  0  0  0  0  0  0  0  0  0
  147.2745  134.4934  161.9856 C   0  0  0  0  0  0  0  0  0  0  0  0
  146.2418  133.7909  162.4774 C   0  0  0  0  0  0  0  0  0  0  0  0
  145.0012  134.4854  162.7275 C   0  0  0  0  0  0  0  0  0  0  0  0
  144.8940  135.8035  162.4658 C   0  0  0  0  0  0  0  0  0  0  0  0
  146.0196  136.5748  161.9255 C   0  0  0  0  0  0  0  0  0  0  0  0
  145.9293  137.7781  161.6794 O   0  0  0  0  0  0  0  0  0  0  0  0
  149.3698  138.7624  156.9698 C   0  0  0  0  0  0  0  0  0  0  0  0
  148.3360  139.9060  157.1939 C   0  0  0  0  0  0  0  0  0  0  0  0
  148.9159  141.2693  156.7636 C   0  0  2  0  0  0  0  0  0  0  0  0
  149.2823  141.2212  155.2661 C   0  0  0  0  0  0  0  0  0  0  0  0
  150.3346  140.1170  155.0373 C   0  0  1  0  0  0  0  0  0  0  0  0
  151.5970  140.4267  155.8680 C   0  0  0  0  0  0  0  0  0  0  0  0
  151.2206  140.4767  157.3633 C   0  0  1  0  0  0  0  0  0  0  0  0
  150.1730  141.5821  157.5988 C   0  0  0  0  0  0  0  0  0  0  0  0
  150.6420  139.1120  157.7945 C   0  0  0  0  0  0  0  0  0  0  0  0
  149.7553  138.7495  155.4617 C   0  0  0  0  0  0  0  0  0  0  0  0
  147.5046  136.9090  155.7006 H   0  0  0  0  0  0  0  0  0  0  0  0
  146.6381  137.7658  156.9761 H   0  0  0  0  0  0  0  0  0  0  0  0
  147.0505  136.0713  157.1639 H   0  0  0  0  0  0  0  0  0  0  0  0
  149.4695  136.6262  157.1616 H   0  0  0  0  0  0  0  0  0  0  0  0
  148.4517  138.2751  159.3419 H   0  0  0  0  0  0  0  0  0  0  0  0
  149.2672  136.1974  161.6937 H   0  0  0  0  0  0  0  0  0  0  0  0
  148.3222  137.6092  161.3509 H   0  0  0  0  0  0  0  0  0  0  0  0
  148.2335  134.0482  161.7639 H   0  0  0  0  0  0  0  0  0  0  0  0
  146.3356  132.7334  162.6764 H   0  0  0  0  0  0  0  0  0  0  0  0
  144.1544  133.9457  163.1253 H   0  0  0  0  0  0  0  0  0  0  0  0
  143.9572  136.3061  162.6573 H   0  0  0  0  0  0  0  0  0  0  0  0
  147.4204  139.7199  156.6317 H   0  0  0  0  0  0  0  0  0  0  0  0
  148.0419  139.9467  158.2436 H   0  0  0  0  0  0  0  0  0  0  0  0
  148.1705  142.0479  156.9286 H   0  0  0  0  0  0  0  0  0  0  0  0
  148.3932  141.0269  154.6650 H   0  0  0  0  0  0  0  0  0  0  0  0
  149.6701  142.1873  154.9407 H   0  0  0  0  0  0  0  0  0  0  0  0
  150.5981  140.0841  153.9797 H   0  0  0  0  0  0  0  0  0  0  0  0
  152.3601  139.6671  155.6943 H   0  0  0  0  0  0  0  0  0  0  0  0
  152.0311  141.3773  155.5556 H   0  0  0  0  0  0  0  0  0  0  0  0
  152.1122  140.6936  157.9525 H   0  0  0  0  0  0  0  0  0  0  0  0
  150.5797  142.5554  157.3211 H   0  0  0  0  0  0  0  0  0  0  0  0
  149.9192  141.6436  158.6580 H   0  0  0  0  0  0  0  0  0  0  0  0
  150.4097  139.1270  158.8603 H   0  0  0  0  0  0  0  0  0  0  0  0
  151.4131  138.3540  157.6600 H   0  0  0  0  0  0  0  0  0  0  0  0
  150.4916  137.9714  155.2598 H   0  0  0  0  0  0  0  0  0  0  0  0
  148.8890  138.5174  154.8413 H   0  0  0  0  0  0  0  0  0  0  0  0
  1  2  1  0  0  0  0
  1 24  1  0  0  0  0
  1 25  1  0  0  0  0
  1 26  1  0  0  0  0
  2  3  1  0  0  0  0
  2 14  1  0  0  0  0
  2 27  1  0  0  0  0
  3  4  1  0  0  0  0
  3 28  1  0  0  0  0
  4  5  2  0  0  0  0
  4  6  1  0  0  0  0
  6  7  1  0  0  0  0
  6 29  1  0  0  0  0
  6 30  1  0  0  0  0
  7 12  1  0  0  0  0
  7  8  1  0  0  0  0
  8  9  2  0  0  0  0
  8 31  1  0  0  0  0
  9 10  1  0  0  0  0
  9 32  1  0  0  0  0
 10 11  2  0  0  0  0
 10 33  1  0  0  0  0
 11 12  1  0  0  0  0
 11 34  1  0  0  0  0
 12 13  2  0  0  0  0
 14 22  1  0  0  0  0
 14 23  1  0  0  0  0
 14 15  1  0  0  0  0
 15 16  1  0  0  0  0
 15 35  1  0  0  0  0
 15 36  1  0  0  0  0
 16 21  1  0  0  0  0
 16 17  1  0  0  0  0
 16 37  1  0  0  0  0
 17 18  1  0  0  0  0
 17 38  1  0  0  0  0
 17 39  1  0  0  0  0
 18 19  1  0  0  0  0
 18 23  1  0  0  0  0
 18 40  1  0  0  0  0
 19 20  1  0  0  0  0
 19 41  1  0  0  0  0
 19 42  1  0  0  0  0
 20 21  1  0  0  0  0
 20 22  1  0  0  0  0
 20 43  1  0  0  0  0
 21 44  1  0  0  0  0
 21 45  1  0  0  0  0
 22 46  1  0  0  0  0
 22 47  1  0  0  0  0
 23 48  1  0  0  0  0
 23 49  1  0  0  0  0
M  END
> <s_m_source_file>
AV-unprocessed.smi

> <i_m_source_file_index>
320

> <i_lp_mmshare_version>
43012

> <i_f3d_flags>
0

> <s_epik_input>
W0NIMl0xW0NAQEhdKFtDSDJdMilbQ0gyXVtDQEBIXShbQ0gyXTMpW0NIMl1bQ0BIXTFbQ0gyXUMyM1tDQEhdKFtDSDNdKVtOSF1DKD1PKVtDSDJdbjRbY0hdW2NIXVtjSF1bY0hdYzQ9Tw==

> <s_epik_cmdline>
J2VwaWtfcHl0aG9uJywgJy1waCcsICc3LjAnLCAnLXRuJywgJzgnLCAnLW1hJywgJzIwMCcsICctbWV0YWxfYmluZGluZycsICctaW1hZScsICc8aW5maWxlLm1hZT4nLCAnLW9tYWUnLCAnPG91dGZpbGUubWFlPic=

> <r_lp_tautomer_probability>
1

> <r_epik_Ionization_Penalty>
4.15949e-07

> <r_epik_Ionization_Penalty_Charging>
3.97363e-07

> <r_epik_Ionization_Penalty_Neutral>
1.85865e-08

> <r_epik_State_Penalty>
-0

> <r_epik_Charging_Adjusted_Penalty>
3.97363e-07

> <i_epik_Tot_Q>
0

> <i_epik_Tot_abs_Q>
0

> <r_epik_Metal_State_Penalty>
-0

> <b_epik_Metal_Only>
0

> <s_lp_Force_Field>
OPLS_2005

> <r_lp_Energy>
45.4177

> <b_lp_Chiralities_Consistent>
1

> <s_lp_Variant>
AV-unprocessed.smi:320-1

> <Gold.Version>
5.8.1

> <Gold.Id.Protein>
6NUR|6NUR_protein|mol2

> <Gold.PLP.Fitness>
41.0389

> <Gold.PLP.PLP>
-36.8060

> <Gold.PLP.part.hbond>
-2.0000

> <Gold.PLP.part.metal>
0.0000

> <Gold.PLP.part.buried>
-2.3727

> <Gold.PLP.part.nonpolar>
-31.9587

> <Gold.PLP.part.repulsive>
0.1768

> <Gold.PLP.ligand.clash>
0.0000

> <Gold.PLP.ligand.torsion>
0.6574

> <Gold.PLP.Chemscore.Hbond>
1.8320

> <Gold.PLP.Chemscore.CHOScore>
0.0000

> <Gold.PLP.Chemscore.Metal>
0.0000

> <Gold.Chemscore.Hbonds>
donor molecule, donor type, donor heavy atom, donor atom, acceptor molecule, acceptor atom, score
      P1  H  6896  6909       L1     5  0.99
      P1  H  6934  6947       L1    13  0.83

> <Gold.PLP.Chemscore.Internal.Correction>
0.0516

> <Gold.Rescore>
     Score         DG    S(hbond)    S(metal)    S(lipo)     H(rot)  DE(clash)    DE(int)     intcor
     16.76     -17.84       1.93        0.00      83.89       1.52       0.35       0.73       ----

> <Gold.Chemscore.Fitness>
16.7574

> <Gold.Chemscore.DG>
-17.8394

> <Gold.Chemscore.ZeroCoef>
-5.4800

> <Gold.Chemscore.Hbond>
1.9271

> <Gold.Chemscore.Metal>
0.0000

> <Gold.Chemscore.Lipo>
83.8855

> <Gold.Chemscore.Internal_Hbond>
0.0000

> <Gold.Chemscore.DEClash>
0.3499

> <Gold.Chemscore.DEInternal>
0.7322

> <Gold.Chemscore.Rot>
1.5202

> <Gold.Chemscore.Internal.Correction>
   9.000000E+99

> <Gold.Chemscore.Hbonds>
donor molecule, donor type, donor heavy atom, donor atom, acceptor molecule, acceptor atom, score
      P1  H  6896  6909       L1     5  0.79
      P1  H  6934  6947       L1    13  0.81

> <Gold.Chemscore.Hbond.Weighted>
-6.4365

> <Gold.Chemscore.Metal.Weighted>
-0.0000

> <Gold.Chemscore.Lipo.Weighted>
-9.8146

> <Gold.Chemscore.Internal_Hbond.Weighted>
0.0000

> <Gold.Chemscore.DEClash.Weighted>
0.3499

> <Gold.Chemscore.DEInternal.Weighted>
0.7322

> <Gold.Chemscore.Rot.Weighted>
3.8916

> <Gold.Chemscore.Internal.Correction.Weighted>
   9.000000E+99

> <Gold.Protein.RotatedTorsions>
[ 6907 6896 6895 6894 ] final   41.73 input  -60.11 | X-H torsion
[ 7974 7965 7964 7962 ] final    3.03 input  175.53 | X-H torsion
[ 8008 7997 7996 7995 ] final -166.58 input   59.86 | X-H torsion
[ 10167 10162 10161 10158 ] final  151.47 input  -65.29 | X-H torsion
[ 10718 10713 10712 10709 ] final  -62.45 input   66.30 | X-H torsion
[ 10763 10752 10751 10750 ] final  132.48 input  -60.55 | X-H torsion
[ 11005 11000 10999 10996 ] final  -37.82 input  -57.11 | X-H torsion

> <Gold.Protein.ActiveResidues>
 VAL166  LYS551  ARG553  GLY616  TRP617  ASP618  TYR619  PRO620  LYS621  CYS622 
 ASP623  PHE694  ASN695  SER759  ASP760  ASP761  ALA762  ILE779  LEU786  VAL792 
 PHE793  MET794  SER795  GLU796  ALA797  LYS798  CYS799  TRP800  GLU811  SER814 

> <Gold.Protein.RotatedAtoms>
  152.1989  134.8605  160.0509 H   0  0  0  0  0  0  0  0  0  0  0  0  # atno 6907 bound_to 6896
  151.9466  133.3648  159.3993 H   0  0  0  0  0  0  0  0  0  0  0  0  # atno 6908 bound_to 6896
  150.6950  134.4308  159.5291 H   0  0  0  0  0  0  0  0  0  0  0  0  # atno 6909 bound_to 6896
  146.2445  140.0747  142.8360 H   0  0  0  0  0  0  0  0  0  0  0  0  # atno 7974 bound_to 7965
  155.8658  140.0985  157.1583 H   0  0  0  0  0  0  0  0  0  0  0  0  # atno 8008 bound_to 7997
  154.3993  140.1356  156.4080 H   0  0  0  0  0  0  0  0  0  0  0  0  # atno 8009 bound_to 7997
  155.7805  140.3458  155.5297 H   0  0  0  0  0  0  0  0  0  0  0  0  # atno 8010 bound_to 7997
  139.4840  144.5438  151.7519 H   0  0  0  0  0  0  0  0  0  0  0  0  # atno 10167 bound_to 10162
  156.0854  130.4209  150.1137 H   0  0  0  0  0  0  0  0  0  0  0  0  # atno 10718 bound_to 10713
  153.7915  135.3154  155.3379 H   0  0  0  0  0  0  0  0  0  0  0  0  # atno 10763 bound_to 10752
  154.8124  135.4658  154.0554 H   0  0  0  0  0  0  0  0  0  0  0  0  # atno 10764 bound_to 10752
  153.1874  135.6903  153.8484 H   0  0  0  0  0  0  0  0  0  0  0  0  # atno 10765 bound_to 10752
  140.9981  133.6969  156.1972 H   0  0  0  0  0  0  0  0  0  0  0  0  # atno 11005 bound_to 11000
  145.0785  140.9205  143.4839 LP  0  0  0  0  0  0  0  0  0  0  0  0  # atno 17320 bound_to 7965
  145.0895  139.2900  143.5742 LP  0  0  0  0  0  0  0  0  0  0  0  0  # atno 17321 bound_to 7965
  140.4981  144.1210  150.5965 LP  0  0  0  0  0  0  0  0  0  0  0  0  # atno 17342 bound_to 10162
  140.4094  143.2664  151.9852 LP  0  0  0  0  0  0  0  0  0  0  0  0  # atno 17343 bound_to 10162
  156.9159  130.9667  151.3556 LP  0  0  0  0  0  0  0  0  0  0  0  0  # atno 17370 bound_to 10713
  157.5987  130.8496  149.8768 LP  0  0  0  0  0  0  0  0  0  0  0  0  # atno 17371 bound_to 10713
  140.6933  134.4642  157.5588 LP  0  0  0  0  0  0  0  0  0  0  0  0  # atno 17394 bound_to 11000
  139.9025  134.8524  156.1839 LP  0  0  0  0  0  0  0  0  0  0  0  0  # atno 17395 bound_to 11000

$$$$
