AV-unprocessed.smi:305|AV-procd|sdf|2281|dock6
  -GOLD-   2262022183D 1   1.00000     0.00000
 Structure written by MMmdl.
 46 48  0  0  0  0  0  0  0  0  2 V2000
  150.0864  133.3757  155.2352 C   0  0  0  0  0  0  0  0  0  0  0  0
  148.8168  134.1901  154.9776 C   0  0  0  0  0  0  0  0  0  0  0  0
  148.6331  135.1053  156.0441 O   0  0  0  0  0  0  0  0  0  0  0  0
  147.3609  135.7297  156.0140 C   0  0  0  0  0  0  0  0  0  0  0  0
  147.2460  136.6781  157.2143 C   0  0  0  0  0  0  0  0  0  0  0  0
  148.5446  137.2161  157.6054 N   0  0  0  0  0  0  0  0  0  0  0  0
  149.1402  137.1396  158.8227 C   0  0  0  0  0  0  0  0  0  0  0  0
  148.5148  136.4902  159.9081 N   0  0  0  0  0  0  0  0  0  0  0  0
  148.2963  137.1567  161.0604 N   0  0  0  0  0  0  0  0  0  0  0  0
  147.7097  136.2784  161.8554 C   0  0  0  0  0  0  0  0  0  0  0  0
  147.3088  136.6981  163.2403 C   0  0  0  0  0  0  0  0  0  0  0  0
  147.5496  135.0053  161.2347 C   0  0  0  0  0  0  0  0  0  0  0  0
  146.9367  133.7668  161.8282 C   0  0  0  0  0  0  0  0  0  0  0  0
  148.0766  135.1812  159.9835 C   0  0  0  0  0  0  0  0  0  0  0  0
  148.2039  134.2276  158.8388 C   0  0  0  0  0  0  0  0  0  0  0  0
  150.3471  137.7039  158.8969 N   0  0  0  0  0  0  0  0  0  0  0  0
  150.5299  138.1972  157.6125 C   0  0  0  0  0  0  0  0  0  0  0  0
  149.4605  137.9185  156.8186 C   0  0  0  0  0  0  0  0  0  0  0  0
  149.3603  138.3167  155.3984 C   0  0  0  0  0  0  0  0  0  0  0  0
  148.3652  138.0409  154.7314 O   0  0  0  0  0  0  0  0  0  0  0  0
  150.4726  138.9963  154.9739 N   0  5  0  0  0  0  0  0  0  0  0  0
  151.5778  139.3007  155.7400 C   0  0  0  0  0  0  0  0  0  0  0  0
  152.5381  139.9191  155.2787 O   0  0  0  0  0  0  0  0  0  0  0  0
  151.6247  138.9117  157.0534 N   0  0  0  0  0  0  0  0  0  0  0  0
  152.7852  139.2244  157.8918 C   0  0  0  0  0  0  0  0  0  0  0  0
  150.2573  132.6571  154.4334 H   0  0  0  0  0  0  0  0  0  0  0  0
  150.0130  132.8222  156.1714 H   0  0  0  0  0  0  0  0  0  0  0  0
  150.9608  134.0240  155.2958 H   0  0  0  0  0  0  0  0  0  0  0  0
  148.9048  134.7269  154.0317 H   0  0  0  0  0  0  0  0  0  0  0  0
  147.9567  133.5233  154.9014 H   0  0  0  0  0  0  0  0  0  0  0  0
  147.2364  136.2807  155.0809 H   0  0  0  0  0  0  0  0  0  0  0  0
  146.5758  134.9737  156.0538 H   0  0  0  0  0  0  0  0  0  0  0  0
  146.5712  137.5006  156.9767 H   0  0  0  0  0  0  0  0  0  0  0  0
  146.7972  136.1700  158.0671 H   0  0  0  0  0  0  0  0  0  0  0  0
  146.3890  136.2023  163.5508 H   0  0  0  0  0  0  0  0  0  0  0  0
  147.1373  137.7736  163.2994 H   0  0  0  0  0  0  0  0  0  0  0  0
  148.0841  136.4440  163.9631 H   0  0  0  0  0  0  0  0  0  0  0  0
  147.4171  132.8596  161.4617 H   0  0  0  0  0  0  0  0  0  0  0  0
  145.8761  133.6904  161.5881 H   0  0  0  0  0  0  0  0  0  0  0  0
  147.0220  133.7520  162.9148 H   0  0  0  0  0  0  0  0  0  0  0  0
  147.6036  133.3328  159.0019 H   0  0  0  0  0  0  0  0  0  0  0  0
  149.2410  133.9186  158.7078 H   0  0  0  0  0  0  0  0  0  0  0  0
  147.8673  134.6871  157.9090 H   0  0  0  0  0  0  0  0  0  0  0  0
  152.9190  140.3044  157.9687 H   0  0  0  0  0  0  0  0  0  0  0  0
  153.6934  138.7973  157.4638 H   0  0  0  0  0  0  0  0  0  0  0  0
  152.6899  138.8346  158.9049 H   0  0  0  0  0  0  0  0  0  0  0  0
  1  2  1  0  0  0  0
  1 26  1  0  0  0  0
  1 27  1  0  0  0  0
  1 28  1  0  0  0  0
  2  3  1  0  0  0  0
  2 29  1  0  0  0  0
  2 30  1  0  0  0  0
  3  4  1  0  0  0  0
  4  5  1  0  0  0  0
  4 31  1  0  0  0  0
  4 32  1  0  0  0  0
  5  6  1  0  0  0  0
  5 33  1  0  0  0  0
  5 34  1  0  0  0  0
  6 18  1  0  0  0  0
  6  7  1  0  0  0  0
  7  8  1  0  0  0  0
  7 16  2  0  0  0  0
  8 14  1  0  0  0  0
  8  9  1  0  0  0  0
  9 10  2  0  0  0  0
 10 11  1  0  0  0  0
 10 12  1  0  0  0  0
 11 35  1  0  0  0  0
 11 36  1  0  0  0  0
 11 37  1  0  0  0  0
 12 13  1  0  0  0  0
 12 14  2  0  0  0  0
 13 38  1  0  0  0  0
 13 39  1  0  0  0  0
 13 40  1  0  0  0  0
 14 15  1  0  0  0  0
 15 41  1  0  0  0  0
 15 42  1  0  0  0  0
 15 43  1  0  0  0  0
 16 17  1  0  0  0  0
 17 24  1  0  0  0  0
 17 18  2  0  0  0  0
 18 19  1  0  0  0  0
 19 20  2  0  0  0  0
 19 21  1  0  0  0  0
 21 22  1  0  0  0  0
 22 23  2  0  0  0  0
 22 24  1  0  0  0  0
 24 25  1  0  0  0  0
 25 44  1  0  0  0  0
 25 45  1  0  0  0  0
 25 46  1  0  0  0  0
M  CHG  1  21  -1
M  END
> <s_m_source_file>
AV-unprocessed.smi

> <i_m_source_file_index>
305

> <i_lp_mmshare_version>
43012

> <i_f3d_flags>
0

> <s_epik_input>
W0NIM11uMWMoPU8pW25IXWMoPU8pYyhjMTIpbihbQ0gyXVtDSDJdT1tDSDJdW0NIM10pYyhuMiktbjNuYyhbQ0gzXSljKFtDSDNdKWMzW0NIM10=

> <s_epik_cmdline>
J2VwaWtfcHl0aG9uJywgJy1waCcsICc3LjAnLCAnLXRuJywgJzgnLCAnLW1hJywgJzIwMCcsICctbWV0YWxfYmluZGluZycsICctaW1hZScsICc8aW5maWxlLm1hZT4nLCAnLW9tYWUnLCAnPG91dGZpbGUubWFlPic=

> <r_lp_tautomer_probability>
1

> <r_epik_Ionization_Penalty>
4

> <r_epik_Ionization_Penalty_Charging>
0.0169474

> <r_epik_Ionization_Penalty_Neutral>
3.98305

> <r_epik_State_Penalty>
3.98062

> <r_epik_Charging_Adjusted_Penalty>
3.99756

> <i_epik_Tot_Q>
-1

> <i_epik_Tot_abs_Q>
1

> <r_epik_Metal_State_Penalty>
0.616488

> <b_epik_Metal_Only>
1

> <s_lp_Force_Field>
OPLS_2005

> <r_lp_Energy>
29.8012

> <b_lp_Chiralities_Consistent>
1

> <s_lp_Variant>
AV-unprocessed.smi:305-2

> <Gold.Version>
5.8.1

> <Gold.Id.Protein>
6NUR|6NUR_protein|mol2

> <Gold.PLP.Fitness>
38.5086

> <Gold.PLP.PLP>
-31.9745

> <Gold.PLP.part.hbond>
-3.8506

> <Gold.PLP.part.metal>
0.0000

> <Gold.PLP.part.buried>
-2.8093

> <Gold.PLP.part.nonpolar>
-24.9532

> <Gold.PLP.part.repulsive>
0.2974

> <Gold.PLP.ligand.clash>
0.0000

> <Gold.PLP.ligand.torsion>
1.2982

> <Gold.PLP.Chemscore.Hbond>
2.8523

> <Gold.PLP.Chemscore.CHOScore>
0.0000

> <Gold.PLP.Chemscore.Metal>
0.0000

> <Gold.Chemscore.Hbonds>
donor molecule, donor type, donor heavy atom, donor atom, acceptor molecule, acceptor atom, score
      P1  H  6931  6943       L1     9  1.00
      P1  H  6934  6947       L1     9  0.39
      P1  H  7989  7998       L1    23  0.38
      P1  H  7997  8010       L1    23  1.00

> <Gold.PLP.Chemscore.Internal.Correction>
0.5737

> <Gold.Rescore>
     Score         DG    S(hbond)    S(metal)    S(lipo)     H(rot)  DE(clash)    DE(int)     intcor
     12.49     -16.55       2.47        0.00      59.58       1.62       0.19       3.88       ----

> <Gold.Chemscore.Fitness>
12.4873

> <Gold.Chemscore.DG>
-16.5516

> <Gold.Chemscore.ZeroCoef>
-5.4800

> <Gold.Chemscore.Hbond>
2.4698

> <Gold.Chemscore.Metal>
0.0000

> <Gold.Chemscore.Lipo>
59.5770

> <Gold.Chemscore.Internal_Hbond>
0.0000

> <Gold.Chemscore.DEClash>
0.1864

> <Gold.Chemscore.DEInternal>
3.8779

> <Gold.Chemscore.Rot>
1.6204

> <Gold.Chemscore.Internal.Correction>
   9.000000E+99

> <Gold.Chemscore.Hbonds>
donor molecule, donor type, donor heavy atom, donor atom, acceptor molecule, acceptor atom, score
      P1  H  6931  6943       L1     9  0.72
      P1  H  6934  6947       L1     9  0.32
      P1  H  7989  7998       L1    23  0.14
      P1  H  7997  8010       L1    23  0.94

> <Gold.Chemscore.Hbond.Weighted>
-8.2492

> <Gold.Chemscore.Metal.Weighted>
-0.0000

> <Gold.Chemscore.Lipo.Weighted>
-6.9705

> <Gold.Chemscore.Internal_Hbond.Weighted>
0.0000

> <Gold.Chemscore.DEClash.Weighted>
0.1864

> <Gold.Chemscore.DEInternal.Weighted>
3.8779

> <Gold.Chemscore.Rot.Weighted>
4.1481

> <Gold.Chemscore.Internal.Correction.Weighted>
   9.000000E+99

> <Gold.Protein.RotatedTorsions>
[ 6907 6896 6895 6894 ] final  139.12 input  -60.11 | X-H torsion
[ 7974 7965 7964 7962 ] final -132.25 input  175.53 | X-H torsion
[ 8008 7997 7996 7995 ] final  103.54 input   59.86 | X-H torsion
[ 10167 10162 10161 10158 ] final    7.31 input  -65.29 | X-H torsion
[ 10718 10713 10712 10709 ] final -172.35 input   66.30 | X-H torsion
[ 10763 10752 10751 10750 ] final   69.05 input  -60.55 | X-H torsion
[ 11005 11000 10999 10996 ] final  113.50 input  -57.11 | X-H torsion

> <Gold.Protein.ActiveResidues>
 VAL166  LYS551  ARG553  GLY616  TRP617  ASP618  TYR619  PRO620  LYS621  CYS622 
 ASP623  PHE694  ASN695  SER759  ASP760  ASP761  ALA762  ILE779  LEU786  VAL792 
 PHE793  MET794  SER795  GLU796  ALA797  LYS798  CYS799  TRP800  GLU811  SER814 

> <Gold.Protein.RotatedAtoms>
  152.2586  133.5277  159.5367 H   0  0  0  0  0  0  0  0  0  0  0  0  # atno 6907 bound_to 6896
  150.7117  134.0861  159.3924 H   0  0  0  0  0  0  0  0  0  0  0  0  # atno 6908 bound_to 6896
  151.8779  135.0465  160.0536 H   0  0  0  0  0  0  0  0  0  0  0  0  # atno 6909 bound_to 6896
  144.9303  140.7120  143.4910 H   0  0  0  0  0  0  0  0  0  0  0  0  # atno 7974 bound_to 7965
  156.1493  140.3163  155.8622 H   0  0  0  0  0  0  0  0  0  0  0  0  # atno 8008 bound_to 7997
  155.4002  140.0499  157.3054 H   0  0  0  0  0  0  0  0  0  0  0  0  # atno 8009 bound_to 7997
  154.5044  140.2141  155.9292 H   0  0  0  0  0  0  0  0  0  0  0  0  # atno 8010 bound_to 7997
  140.6379  143.7843  150.7386 H   0  0  0  0  0  0  0  0  0  0  0  0  # atno 10167 bound_to 10162
  156.7543  130.9390  151.3116 H   0  0  0  0  0  0  0  0  0  0  0  0  # atno 10718 bound_to 10713
  153.0267  135.5225  154.7228 H   0  0  0  0  0  0  0  0  0  0  0  0  # atno 10763 bound_to 10752
  154.6279  135.2896  155.0253 H   0  0  0  0  0  0  0  0  0  0  0  0  # atno 10764 bound_to 10752
  154.1216  135.6607  153.4956 H   0  0  0  0  0  0  0  0  0  0  0  0  # atno 10765 bound_to 10752
  139.8955  134.9551  156.6749 H   0  0  0  0  0  0  0  0  0  0  0  0  # atno 11005 bound_to 11000
  145.3153  139.1805  143.4617 LP  0  0  0  0  0  0  0  0  0  0  0  0  # atno 17320 bound_to 7965
  146.3244  140.3163  142.8630 LP  0  0  0  0  0  0  0  0  0  0  0  0  # atno 17321 bound_to 7965
  140.1468  143.4392  152.2157 LP  0  0  0  0  0  0  0  0  0  0  0  0  # atno 17342 bound_to 10162
  139.5589  144.7392  151.4213 LP  0  0  0  0  0  0  0  0  0  0  0  0  # atno 17343 bound_to 10162
  157.6763  130.9097  150.0158 LP  0  0  0  0  0  0  0  0  0  0  0  0  # atno 17370 bound_to 10713
  156.1381  130.3642  149.9626 LP  0  0  0  0  0  0  0  0  0  0  0  0  # atno 17371 bound_to 10713
  140.7344  133.9031  155.8234 LP  0  0  0  0  0  0  0  0  0  0  0  0  # atno 17394 bound_to 11000
  141.0127  134.0998  157.4204 LP  0  0  0  0  0  0  0  0  0  0  0  0  # atno 17395 bound_to 11000

$$$$
