AV-unprocessed.smi:2451|AV-procd|sdf|9674|dock4
  -GOLD-   2272013313D 1   1.00000     0.00000
 Structure written by MMmdl.
 38 39  0  0  0  0  0  0  0  0  1 V2000
  152.1232  144.6934  160.7187 C   0  0  0  0  0  0  0  0  0  0  0  0
  152.5124  143.4598  159.8836 C   0  0  1  0  0  0  0  0  0  0  0  0
  152.5679  142.2171  160.7946 C   0  0  0  0  0  0  0  0  0  0  0  0
  152.9885  140.9635  160.0204 C   0  0  0  0  0  0  0  0  0  0  0  0
  152.0240  140.7029  158.8607 C   0  0  0  0  0  0  0  0  0  0  0  0
  151.9377  141.9176  157.9204 C   0  0  1  0  0  0  0  0  0  0  0  0
  150.9412  141.6300  156.8836 N   0  0  0  0  0  0  0  0  0  0  0  0
  151.1103  140.1947  155.9430 S   0  0  0  0  0  0  0  0  0  0  0  0
  150.3943  140.4057  154.6751 O   0  0  0  0  0  0  0  0  0  0  0  0
  152.5371  139.8380  155.9298 O   0  0  0  0  0  0  0  0  0  0  0  0
  150.1829  138.9562  156.9418 C   0  0  0  0  0  0  0  0  0  0  0  0
  150.3553  137.5918  156.3393 C   0  0  0  0  0  0  0  0  0  0  0  0
  149.3504  136.6990  155.8741 C   0  0  0  0  0  0  0  0  0  0  0  0
  150.0615  135.6195  155.4357 C   0  0  0  0  0  0  0  0  0  0  0  0
  151.3912  135.8215  155.6162 O   0  0  0  0  0  0  0  0  0  0  0  0
  151.5689  137.0830  156.1959 N   0  0  0  0  0  0  0  0  0  0  0  0
  151.5712  143.2278  158.6669 C   0  0  2  0  0  0  0  0  0  0  0  0
  151.5921  144.4291  157.6963 C   0  0  0  0  0  0  0  0  0  0  0  0
  151.0879  144.6336  161.0557 H   0  0  0  0  0  0  0  0  0  0  0  0
  152.2418  145.6196  160.1575 H   0  0  0  0  0  0  0  0  0  0  0  0
  152.7539  144.7817  161.6038 H   0  0  0  0  0  0  0  0  0  0  0  0
  153.5206  143.6285  159.5021 H   0  0  0  0  0  0  0  0  0  0  0  0
  153.2690  142.3853  161.6130 H   0  0  0  0  0  0  0  0  0  0  0  0
  151.5925  142.0517  161.2548 H   0  0  0  0  0  0  0  0  0  0  0  0
  154.0028  141.0862  159.6385 H   0  0  0  0  0  0  0  0  0  0  0  0
  153.0090  140.1021  160.6886 H   0  0  0  0  0  0  0  0  0  0  0  0
  152.3470  139.8211  158.3059 H   0  0  0  0  0  0  0  0  0  0  0  0
  151.0356  140.4720  159.2607 H   0  0  0  0  0  0  0  0  0  0  0  0
  152.9124  142.0529  157.4492 H   0  0  0  0  0  0  0  0  0  0  0  0
  149.9926  141.7282  157.2447 H   0  0  0  0  0  0  0  0  0  0  0  0
  150.5483  138.9936  157.9683 H   0  0  0  0  0  0  0  0  0  0  0  0
  149.1319  139.2444  156.9517 H   0  0  0  0  0  0  0  0  0  0  0  0
  148.2789  136.8320  155.8604 H   0  0  0  0  0  0  0  0  0  0  0  0
  149.7803  134.6756  154.9925 H   0  0  0  0  0  0  0  0  0  0  0  0
  150.5537  143.1232  159.0476 H   0  0  0  0  0  0  0  0  0  0  0  0
  152.5992  144.6187  157.3237 H   0  0  0  0  0  0  0  0  0  0  0  0
  151.2315  145.3411  158.1698 H   0  0  0  0  0  0  0  0  0  0  0  0
  150.9502  144.2621  156.8314 H   0  0  0  0  0  0  0  0  0  0  0  0
  1  2  1  0  0  0  0
  1 19  1  0  0  0  0
  1 20  1  0  0  0  0
  1 21  1  0  0  0  0
  2 17  1  0  0  0  0
  2  3  1  0  0  0  0
  2 22  1  0  0  0  0
  3  4  1  0  0  0  0
  3 23  1  0  0  0  0
  3 24  1  0  0  0  0
  4  5  1  0  0  0  0
  4 25  1  0  0  0  0
  4 26  1  0  0  0  0
  5  6  1  0  0  0  0
  5 27  1  0  0  0  0
  5 28  1  0  0  0  0
  6  7  1  0  0  0  0
  6 17  1  0  0  0  0
  6 29  1  0  0  0  0
  7  8  1  0  0  0  0
  7 30  1  0  0  0  0
  8  9  2  0  0  0  0
  8 10  2  0  0  0  0
  8 11  1  0  0  0  0
 11 12  1  0  0  0  0
 11 31  1  0  0  0  0
 11 32  1  0  0  0  0
 12 16  2  0  0  0  0
 12 13  1  0  0  0  0
 13 14  2  0  0  0  0
 13 33  1  0  0  0  0
 14 15  1  0  0  0  0
 14 34  1  0  0  0  0
 15 16  1  0  0  0  0
 17 18  1  0  0  0  0
 17 35  1  0  0  0  0
 18 36  1  0  0  0  0
 18 37  1  0  0  0  0
 18 38  1  0  0  0  0
M  END
> <s_m_source_file>
AV-unprocessed.smi

> <i_m_source_file_index>
2451

> <i_lp_mmshare_version>
43012

> <i_f3d_flags>
0

> <s_epik_input>
W0NIM11bQ0BASF0xW0NIMl1bQ0gyXVtDSDJdW0NASF0oW0NASF0xW0NIM10pW05IXVMoPU8pKD1PKVtDSDJdYzJbY0hdW2NIXW9uMg==

> <s_epik_cmdline>
J2VwaWtfcHl0aG9uJywgJy1waCcsICc3LjAnLCAnLXRuJywgJzgnLCAnLW1hJywgJzIwMCcsICctbWV0YWxfYmluZGluZycsICctaW1hZScsICc8aW5maWxlLm1hZT4nLCAnLW9tYWUnLCAnPG91dGZpbGUubWFlPic=

> <r_lp_tautomer_probability>
1

> <r_epik_Ionization_Penalty>
8.73668e-05

> <r_epik_Ionization_Penalty_Charging>
0

> <r_epik_Ionization_Penalty_Neutral>
8.73668e-05

> <r_epik_State_Penalty>
-0

> <r_epik_Charging_Adjusted_Penalty>
0

> <i_epik_Tot_Q>
0

> <i_epik_Tot_abs_Q>
0

> <r_epik_Metal_State_Penalty>
0.0716439

> <b_epik_Metal_Only>
0

> <s_lp_Force_Field>
OPLS_2005

> <r_lp_Energy>
6.58047

> <b_lp_Chiralities_Consistent>
1

> <s_lp_Variant>
AV-unprocessed.smi:2451-6

> <Gold.Version>
5.8.1

> <Gold.Id.Protein>
6NUR|6NUR_protein|mol2

> <Gold.PLP.Fitness>
41.6724

> <Gold.PLP.PLP>
-33.7935

> <Gold.PLP.part.hbond>
-3.0000

> <Gold.PLP.part.metal>
0.0000

> <Gold.PLP.part.buried>
-5.6898

> <Gold.PLP.part.nonpolar>
-24.8713

> <Gold.PLP.part.repulsive>
0.1689

> <Gold.PLP.ligand.clash>
0.0000

> <Gold.PLP.ligand.torsion>
0.6331

> <Gold.PLP.Chemscore.Hbond>
3.0000

> <Gold.PLP.Chemscore.CHOScore>
0.0000

> <Gold.PLP.Chemscore.Metal>
0.0000

> <Gold.Chemscore.Hbonds>
donor molecule, donor type, donor heavy atom, donor atom, acceptor molecule, acceptor atom, score
      P1  H  7989  7998       L1     9  1.00
      P1  H  7997  8010       L1    10  1.00
      P1  H 10752 10764       L1    15  1.00

> <Gold.PLP.Chemscore.Internal.Correction>
0.1452

> <Gold.Rescore>
     Score         DG    S(hbond)    S(metal)    S(lipo)     H(rot)  DE(clash)    DE(int)     intcor
     19.72     -21.99       2.80        0.00      97.46       1.66       0.15       2.11       ----

> <Gold.Chemscore.Fitness>
19.7234

> <Gold.Chemscore.DG>
-21.9893

> <Gold.Chemscore.ZeroCoef>
-5.4800

> <Gold.Chemscore.Hbond>
2.8003

> <Gold.Chemscore.Metal>
0.0000

> <Gold.Chemscore.Lipo>
97.4618

> <Gold.Chemscore.Internal_Hbond>
0.0000

> <Gold.Chemscore.DEClash>
0.1539

> <Gold.Chemscore.DEInternal>
2.1120

> <Gold.Chemscore.Rot>
1.6588

> <Gold.Chemscore.Internal.Correction>
   9.000000E+99

> <Gold.Chemscore.Hbonds>
donor molecule, donor type, donor heavy atom, donor atom, acceptor molecule, acceptor atom, score
      P1  H  7989  7998       L1     9  0.53
      P1  H  7997  8010       L1    10  1.00
      P1  H 10752 10764       L1    15  0.25

> <Gold.Chemscore.Hbond.Weighted>
-9.3529

> <Gold.Chemscore.Metal.Weighted>
-0.0000

> <Gold.Chemscore.Lipo.Weighted>
-11.4030

> <Gold.Chemscore.Internal_Hbond.Weighted>
0.0000

> <Gold.Chemscore.DEClash.Weighted>
0.1539

> <Gold.Chemscore.DEInternal.Weighted>
2.1120

> <Gold.Chemscore.Rot.Weighted>
4.2466

> <Gold.Chemscore.Internal.Correction.Weighted>
   9.000000E+99

> <Gold.Protein.RotatedTorsions>
[ 6907 6896 6895 6894 ] final  179.19 input  -60.11 | X-H torsion
[ 7974 7965 7964 7962 ] final -140.60 input  175.53 | X-H torsion
[ 8008 7997 7996 7995 ] final   93.56 input   59.86 | X-H torsion
[ 10167 10162 10161 10158 ] final -126.27 input  -65.29 | X-H torsion
[ 10718 10713 10712 10709 ] final  111.02 input   66.30 | X-H torsion
[ 10763 10752 10751 10750 ] final  -26.96 input  -60.55 | X-H torsion
[ 11005 11000 10999 10996 ] final  155.78 input  -57.11 | X-H torsion

> <Gold.Protein.ActiveResidues>
 VAL166  LYS551  ARG553  GLY616  TRP617  ASP618  TYR619  PRO620  LYS621  CYS622 
 ASP623  PHE694  ASN695  SER759  ASP760  ASP761  ALA762  ILE779  LEU786  VAL792 
 PHE793  MET794  SER795  GLU796  ALA797  LYS798  CYS799  TRP800  GLU811  SER814 

> <Gold.Protein.RotatedAtoms>
  151.6756  133.3313  159.3206 H   0  0  0  0  0  0  0  0  0  0  0  0  # atno 6907 bound_to 6896
  150.7847  134.6825  159.6461 H   0  0  0  0  0  0  0  0  0  0  0  0  # atno 6908 bound_to 6896
  152.3913  134.6439  160.0158 H   0  0  0  0  0  0  0  0  0  0  0  0  # atno 6909 bound_to 6896
  144.8584  140.6180  143.5344 H   0  0  0  0  0  0  0  0  0  0  0  0  # atno 7974 bound_to 7965
  156.0481  140.3311  155.7320 H   0  0  0  0  0  0  0  0  0  0  0  0  # atno 8008 bound_to 7997
  155.5643  140.0622  157.2839 H   0  0  0  0  0  0  0  0  0  0  0  0  # atno 8009 bound_to 7997
  154.4423  140.1872  156.0802 H   0  0  0  0  0  0  0  0  0  0  0  0  # atno 8010 bound_to 7997
  139.9732  143.5823  152.2405 H   0  0  0  0  0  0  0  0  0  0  0  0  # atno 10167 bound_to 10162
  157.6465  131.0943  150.6688 H   0  0  0  0  0  0  0  0  0  0  0  0  # atno 10718 bound_to 10713
  153.7243  135.6943  153.5005 H   0  0  0  0  0  0  0  0  0  0  0  0  # atno 10763 bound_to 10752
  153.2181  135.4379  155.0457 H   0  0  0  0  0  0  0  0  0  0  0  0  # atno 10764 bound_to 10752
  154.8274  135.3453  154.6775 H   0  0  0  0  0  0  0  0  0  0  0  0  # atno 10765 bound_to 10752
  140.1613  134.8607  157.2578 H   0  0  0  0  0  0  0  0  0  0  0  0  # atno 11005 bound_to 11000
  145.4360  139.1542  143.3996 LP  0  0  0  0  0  0  0  0  0  0  0  0  # atno 17320 bound_to 7965
  146.2841  140.4479  142.8765 LP  0  0  0  0  0  0  0  0  0  0  0  0  # atno 17321 bound_to 7965
  139.6465  144.7658  151.2233 LP  0  0  0  0  0  0  0  0  0  0  0  0  # atno 17342 bound_to 10162
  140.7515  143.6230  150.8495 LP  0  0  0  0  0  0  0  0  0  0  0  0  # atno 17343 bound_to 10162
  156.7004  130.4621  149.5574 LP  0  0  0  0  0  0  0  0  0  0  0  0  # atno 17370 bound_to 10713
  156.1799  130.6492  151.0939 LP  0  0  0  0  0  0  0  0  0  0  0  0  # atno 17371 bound_to 10713
  140.2486  134.3710  155.7451 LP  0  0  0  0  0  0  0  0  0  0  0  0  # atno 17394 bound_to 11000
  141.2209  133.7304  156.8900 LP  0  0  0  0  0  0  0  0  0  0  0  0  # atno 17395 bound_to 11000

$$$$
