AV-unprocessed.smi:21|AV-procd|sdf|125|dock1
  -GOLD-   2262015303D 1   1.00000     0.00000
 Structure written by MMmdl.
 62 65  0  0  0  0  0  0  0  0  2 V2000
  145.8652  132.1372  149.6216 C   0  0  0  0  0  0  0  0  0  0  0  0
  146.3259  132.4053  150.9362 O   0  0  0  0  0  0  0  0  0  0  0  0
  145.6605  133.4946  151.5580 C   0  0  1  0  0  0  0  0  0  0  0  0
  146.1488  133.6727  152.9892 C   0  0  0  0  0  0  0  0  0  0  0  0
  145.8031  135.1334  153.2921 C   0  0  1  0  0  0  0  0  0  0  0  0
  146.6652  135.7448  154.4169 C   0  0  0  0  0  0  0  0  0  0  0  0
  145.8829  136.4054  155.4601 N   0  0  0  0  0  0  0  0  0  0  0  0
  145.1520  135.5236  156.3585 C   0  0  0  0  0  0  0  0  0  0  0  0
  146.5306  137.3782  156.1379 C   0  0  0  0  0  0  0  0  0  0  0  0
  146.4100  137.3769  157.4877 N   0  0  0  0  0  0  0  0  0  0  0  0
  147.0227  138.3177  158.2131 C   0  0  0  0  0  0  0  0  0  0  0  0
  147.7887  139.3282  157.7947 N   0  0  0  0  0  0  0  0  0  0  0  0
  147.9154  139.3263  156.4367 C   0  0  0  0  0  0  0  0  0  0  0  0
  147.3222  138.3973  155.5370 C   0  0  0  0  0  0  0  0  0  0  0  0
  147.6701  138.7146  154.2293 N   0  0  0  0  0  0  0  0  0  0  0  0
  148.4297  139.7692  154.3495 C   0  0  0  0  0  0  0  0  0  0  0  0
  148.6357  140.1994  155.6411 N   0  0  0  0  0  0  0  0  0  0  0  0
  149.4333  141.3379  156.0636 C   0  0  0  0  0  0  0  0  0  0  0  0
  150.6326  140.9447  156.9672 C   0  0  1  0  0  0  0  0  0  0  0  0
  151.8344  140.4216  156.1428 C   0  0  0  0  0  0  0  0  0  0  0  0
  151.4059  139.6360  155.0500 O   0  0  0  0  0  0  0  0  0  0  0  0
  151.0629  142.0639  157.9575 C   0  0  2  0  0  0  0  0  0  0  0  0
  151.5160  143.3784  157.3484 C   0  0  0  0  0  0  0  0  0  0  0  0
  152.1553  144.0585  158.5541 C   0  0  0  0  0  0  0  0  0  0  0  0
  152.7592  143.0082  159.3034 O   0  0  0  0  0  0  0  0  0  0  0  0
  152.2281  141.7472  158.9012 C   0  0  0  0  0  0  0  0  0  0  0  0
  146.0006  135.8492  152.0096 N   0  3  2  0  0  0  0  0  0  0  0  0
  145.0712  136.9811  151.8009 C   0  0  0  0  0  0  0  0  0  0  0  0
  145.9840  134.8496  150.9151 C   0  0  0  0  0  0  0  0  0  0  0  0
  144.5806  133.3342  151.5738 H   0  0  0  0  0  0  0  0  0  0  0  0
  144.7428  135.1867  153.5468 H   0  0  0  0  0  0  0  0  0  0  0  0
  146.4049  131.2828  149.2133 H   0  0  0  0  0  0  0  0  0  0  0  0
  146.0319  132.9851  148.9566 H   0  0  0  0  0  0  0  0  0  0  0  0
  144.8022  131.8938  149.6185 H   0  0  0  0  0  0  0  0  0  0  0  0
  145.6841  132.9728  153.6845 H   0  0  0  0  0  0  0  0  0  0  0  0
  147.2288  133.5234  153.0343 H   0  0  0  0  0  0  0  0  0  0  0  0
  147.2641  134.9594  154.8796 H   0  0  0  0  0  0  0  0  0  0  0  0
  147.3778  136.4550  153.9977 H   0  0  0  0  0  0  0  0  0  0  0  0
  144.5637  136.0956  157.0777 H   0  0  0  0  0  0  0  0  0  0  0  0
  145.8334  134.8742  156.9098 H   0  0  0  0  0  0  0  0  0  0  0  0
  144.4647  134.8943  155.7925 H   0  0  0  0  0  0  0  0  0  0  0  0
  146.8805  138.2506  159.2817 H   0  0  0  0  0  0  0  0  0  0  0  0
  148.8696  140.2614  153.4941 H   0  0  0  0  0  0  0  0  0  0  0  0
  149.7770  141.8563  155.1691 H   0  0  0  0  0  0  0  0  0  0  0  0
  148.7614  142.0211  156.5810 H   0  0  0  0  0  0  0  0  0  0  0  0
  150.2919  140.1098  157.5816 H   0  0  0  0  0  0  0  0  0  0  0  0
  152.4181  141.2427  155.7279 H   0  0  0  0  0  0  0  0  0  0  0  0
  152.5105  139.8364  156.7666 H   0  0  0  0  0  0  0  0  0  0  0  0
  150.8123  138.9738  155.3700 H   0  0  0  0  0  0  0  0  0  0  0  0
  150.2019  142.3058  158.5830 H   0  0  0  0  0  0  0  0  0  0  0  0
  152.2741  143.2303  156.5808 H   0  0  0  0  0  0  0  0  0  0  0  0
  150.6985  143.9571  156.9176 H   0  0  0  0  0  0  0  0  0  0  0  0
  152.8843  144.8180  158.2701 H   0  0  0  0  0  0  0  0  0  0  0  0
  151.3925  144.5343  159.1718 H   0  0  0  0  0  0  0  0  0  0  0  0
  151.9104  141.1631  159.7653 H   0  0  0  0  0  0  0  0  0  0  0  0
  153.0223  141.1970  158.3989 H   0  0  0  0  0  0  0  0  0  0  0  0
  144.0372  136.6372  151.7476 H   0  0  0  0  0  0  0  0  0  0  0  0
  145.3075  137.5007  150.8720 H   0  0  0  0  0  0  0  0  0  0  0  0
  145.1521  137.7000  152.6169 H   0  0  0  0  0  0  0  0  0  0  0  0
  146.9805  134.8311  150.4717 H   0  0  0  0  0  0  0  0  0  0  0  0
  145.2773  135.0966  150.1215 H   0  0  0  0  0  0  0  0  0  0  0  0
  146.9365  136.2288  152.0283 H   0  0  0  0  0  0  0  0  0  0  0  0
  1  2  1  0  0  0  0
  1 32  1  0  0  0  0
  1 33  1  0  0  0  0
  1 34  1  0  0  0  0
  2  3  1  0  0  0  0
  3 30  1  0  0  0  0
  3 29  1  0  0  0  0
  3  4  1  0  0  0  0
  4  5  1  0  0  0  0
  4 35  1  0  0  0  0
  4 36  1  0  0  0  0
  5 31  1  0  0  0  0
  5  6  1  0  0  0  0
  5 27  1  0  0  0  0
  6  7  1  0  0  0  0
  6 37  1  0  0  0  0
  6 38  1  0  0  0  0
  7  8  1  0  0  0  0
  7  9  1  0  0  0  0
  8 39  1  0  0  0  0
  8 40  1  0  0  0  0
  8 41  1  0  0  0  0
  9 14  1  0  0  0  0
  9 10  2  0  0  0  0
 10 11  1  0  0  0  0
 11 12  2  0  0  0  0
 11 42  1  0  0  0  0
 12 13  1  0  0  0  0
 13 17  1  0  0  0  0
 13 14  2  0  0  0  0
 14 15  1  0  0  0  0
 15 16  2  0  0  0  0
 16 17  1  0  0  0  0
 16 43  1  0  0  0  0
 17 18  1  0  0  0  0
 18 19  1  0  0  0  0
 18 44  1  0  0  0  0
 18 45  1  0  0  0  0
 19 20  1  0  0  0  0
 19 22  1  0  0  0  0
 19 46  1  0  0  0  0
 20 21  1  0  0  0  0
 20 47  1  0  0  0  0
 20 48  1  0  0  0  0
 21 49  1  0  0  0  0
 22 26  1  0  0  0  0
 22 23  1  0  0  0  0
 22 50  1  0  0  0  0
 23 24  1  0  0  0  0
 23 51  1  0  0  0  0
 23 52  1  0  0  0  0
 24 25  1  0  0  0  0
 24 53  1  0  0  0  0
 24 54  1  0  0  0  0
 25 26  1  0  0  0  0
 26 55  1  0  0  0  0
 26 56  1  0  0  0  0
 27 28  1  0  0  0  0
 27 29  1  0  0  0  0
 27 62  1  0  0  0  0
 28 57  1  0  0  0  0
 28 58  1  0  0  0  0
 28 59  1  0  0  0  0
 29 60  1  0  0  0  0
 29 61  1  0  0  0  0
M  CHG  1  27   1
M  END
> <s_m_source_file>
AV-unprocessed.smi

> <i_m_source_file_index>
21

> <i_lp_mmshare_version>
43012

> <i_f3d_flags>
0

> <s_epik_input>
W0NIM11PW0NASF0xW0NIMl1bQ0BIXShOKFtDSDNdKVtDSDJdMSlbQ0gyXU4oW0NIM10pYyhuW2NIXW4yKWMoYzIzKW5bY0hdbjNbQ0gyXVtDQEhdKFtDSDJdW09IXSlbQ0BASF00W0NIMl1bQ0gyXU9bQ0gyXTQ=

> <s_epik_cmdline>
J2VwaWtfcHl0aG9uJywgJy1waCcsICc3LjAnLCAnLXRuJywgJzgnLCAnLW1hJywgJzIwMCcsICctbWV0YWxfYmluZGluZycsICctaW1hZScsICc8aW5maWxlLm1hZT4nLCAnLW9tYWUnLCAnPG91dGZpbGUubWFlPic=

> <r_lp_tautomer_probability>
1

> <r_epik_Ionization_Penalty>
0.0157465

> <r_epik_Ionization_Penalty_Charging>
0.015354

> <r_epik_Ionization_Penalty_Neutral>
0.000392529

> <r_epik_State_Penalty>
0.0120612

> <r_epik_Charging_Adjusted_Penalty>
0.0274152

> <i_epik_Tot_Q>
1

> <i_epik_Tot_abs_Q>
1

> <r_epik_Metal_State_Penalty>
0.0121253

> <b_epik_Metal_Only>
0

> <s_lp_Force_Field>
OPLS_2005

> <r_lp_Energy>
61.1599

> <b_lp_Chiralities_Consistent>
1

> <s_lp_Variant>
AV-unprocessed.smi:21-5

> <Gold.Version>
5.8.1

> <Gold.Id.Protein>
6NUR|6NUR_protein|mol2

> <Gold.PLP.Fitness>
44.0530

> <Gold.PLP.PLP>
-33.9402

> <Gold.PLP.part.hbond>
-2.1687

> <Gold.PLP.part.metal>
0.0000

> <Gold.PLP.part.buried>
-6.3499

> <Gold.PLP.part.nonpolar>
-26.9262

> <Gold.PLP.part.repulsive>
0.8863

> <Gold.PLP.ligand.clash>
0.0000

> <Gold.PLP.ligand.torsion>
1.5440

> <Gold.PLP.Chemscore.Hbond>
3.0000

> <Gold.PLP.Chemscore.CHOScore>
1.0000

> <Gold.PLP.Chemscore.Metal>
0.0000

> <Gold.Chemscore.Hbonds>
donor molecule, donor type, donor heavy atom, donor atom, acceptor molecule, acceptor atom, score
      L1  H    27    62       P1  7948  2.00
      P1  H  7989  7998       L1    21  1.00
      L1  C    16    43       P1  7957  1.00

> <Gold.PLP.Chemscore.Internal.Correction>
1.2008

> <Gold.Rescore>
     Score         DG    S(hbond)    S(metal)    S(lipo)     H(rot)  DE(clash)    DE(int)     intcor
     11.04     -14.10       1.94        0.00      91.42       3.35       0.44       2.63       ----

> <Gold.Chemscore.Fitness>
11.0351

> <Gold.Chemscore.DG>
-14.0996

> <Gold.Chemscore.ZeroCoef>
-5.4800

> <Gold.Chemscore.Hbond>
1.9422

> <Gold.Chemscore.Metal>
0.0000

> <Gold.Chemscore.Lipo>
91.4222

> <Gold.Chemscore.Internal_Hbond>
0.0000

> <Gold.Chemscore.DEClash>
0.4388

> <Gold.Chemscore.DEInternal>
2.6257

> <Gold.Chemscore.Rot>
3.3452

> <Gold.Chemscore.Internal.Correction>
   9.000000E+99

> <Gold.Chemscore.Hbonds>
donor molecule, donor type, donor heavy atom, donor atom, acceptor molecule, acceptor atom, score
      L1  H    27    62       P1  7948  0.95
      P1  H  7989  7998       L1    21  0.38

> <Gold.Chemscore.Hbond.Weighted>
-6.4869

> <Gold.Chemscore.Metal.Weighted>
-0.0000

> <Gold.Chemscore.Lipo.Weighted>
-10.6964

> <Gold.Chemscore.Internal_Hbond.Weighted>
0.0000

> <Gold.Chemscore.DEClash.Weighted>
0.4388

> <Gold.Chemscore.DEInternal.Weighted>
2.6257

> <Gold.Chemscore.Rot.Weighted>
8.5636

> <Gold.Chemscore.Internal.Correction.Weighted>
   9.000000E+99

> <Gold.Protein.RotatedTorsions>
[ 6907 6896 6895 6894 ] final   71.94 input  -60.11 | X-H torsion
[ 7974 7965 7964 7962 ] final   94.79 input  175.53 | X-H torsion
[ 8008 7997 7996 7995 ] final   35.59 input   59.86 | X-H torsion
[ 10167 10162 10161 10158 ] final  170.57 input  -65.29 | X-H torsion
[ 10718 10713 10712 10709 ] final  122.77 input   66.30 | X-H torsion
[ 10763 10752 10751 10750 ] final  -21.82 input  -60.55 | X-H torsion
[ 11005 11000 10999 10996 ] final  156.19 input  -57.11 | X-H torsion

> <Gold.Protein.ActiveResidues>
 VAL166  LYS551  ARG553  GLY616  TRP617  ASP618  TYR619  PRO620  LYS621  CYS622 
 ASP623  PHE694  ASN695  SER759  ASP760  ASP761  ALA762  ILE779  LEU786  VAL792 
 PHE793  MET794  SER795  GLU796  ALA797  LYS798  CYS799  TRP800  GLU811  SER814 

> <Gold.Protein.RotatedAtoms>
  152.4839  134.4645  159.9615 H   0  0  0  0  0  0  0  0  0  0  0  0  # atno 6907 bound_to 6896
  151.4645  133.3578  159.2822 H   0  0  0  0  0  0  0  0  0  0  0  0  # atno 6908 bound_to 6896
  150.8934  134.8365  159.7370 H   0  0  0  0  0  0  0  0  0  0  0  0  # atno 6909 bound_to 6896
  145.4608  139.2287  143.2988 H   0  0  0  0  0  0  0  0  0  0  0  0  # atno 7974 bound_to 7965
  155.1736  140.3294  155.4388 H   0  0  0  0  0  0  0  0  0  0  0  0  # atno 8008 bound_to 7997
  156.2501  140.1939  156.6788 H   0  0  0  0  0  0  0  0  0  0  0  0  # atno 8009 bound_to 7997
  154.6320  140.0581  156.9730 H   0  0  0  0  0  0  0  0  0  0  0  0  # atno 8010 bound_to 7997
  139.5022  144.3582  151.9852 H   0  0  0  0  0  0  0  0  0  0  0  0  # atno 10167 bound_to 10162
  157.5717  131.1082  150.8355 H   0  0  0  0  0  0  0  0  0  0  0  0  # atno 10718 bound_to 10713
  153.6422  135.6984  153.5237 H   0  0  0  0  0  0  0  0  0  0  0  0  # atno 10763 bound_to 10752
  153.2773  135.4196  155.1045 H   0  0  0  0  0  0  0  0  0  0  0  0  # atno 10764 bound_to 10752
  154.8497  135.3593  154.5966 H   0  0  0  0  0  0  0  0  0  0  0  0  # atno 10765 bound_to 10752
  140.1652  134.8582  157.2623 H   0  0  0  0  0  0  0  0  0  0  0  0  # atno 11005 bound_to 11000
  146.2452  140.5377  142.8917 LP  0  0  0  0  0  0  0  0  0  0  0  0  # atno 17320 bound_to 7965
  144.8004  140.6202  143.6482 LP  0  0  0  0  0  0  0  0  0  0  0  0  # atno 17321 bound_to 7965
  140.3018  144.3637  150.6058 LP  0  0  0  0  0  0  0  0  0  0  0  0  # atno 17342 bound_to 10162
  140.5867  143.2169  151.7329 LP  0  0  0  0  0  0  0  0  0  0  0  0  # atno 17343 bound_to 10162
  156.8825  130.5184  149.5290 LP  0  0  0  0  0  0  0  0  0  0  0  0  # atno 17370 bound_to 10713
  156.0762  130.5783  150.9478 LP  0  0  0  0  0  0  0  0  0  0  0  0  # atno 17371 bound_to 10713
  140.2442  134.3759  155.7468 LP  0  0  0  0  0  0  0  0  0  0  0  0  # atno 17394 bound_to 11000
  141.2213  133.7282  156.8836 LP  0  0  0  0  0  0  0  0  0  0  0  0  # atno 17395 bound_to 11000

$$$$
