AV-unprocessed.smi:2749|AV-procd|sdf|10586|dock7
  -GOLD-   2272015 33D 1   1.00000     0.00000
 Structure written by MMmdl.
 32 34  0  0  0  0  0  0  0  0  1 V2000
  150.4060  140.7604  157.0240 O   0  0  0  0  0  0  0  0  0  0  0  0
  150.0816  141.8988  156.6913 C   0  0  0  0  0  0  0  0  0  0  0  0
  150.3890  142.9663  157.4585 N   0  0  0  0  0  0  0  0  0  0  0  0
  151.0905  143.0612  158.6964 C   0  0  0  0  0  0  0  0  0  0  0  0
  151.2158  144.3755  159.2018 C   0  0  0  0  0  0  0  0  0  0  0  0
  151.8777  144.5906  160.4265 C   0  0  0  0  0  0  0  0  0  0  0  0
  152.3934  143.4812  161.1193 C   0  0  0  0  0  0  0  0  0  0  0  0
  153.0366  143.6376  162.3004 F   0  0  0  0  0  0  0  0  0  0  0  0
  152.2224  142.2046  160.5536 C   0  0  0  0  0  0  0  0  0  0  0  0
  151.5894  141.9984  159.3792 N   0  0  0  0  0  0  0  0  0  0  0  0
  149.3996  142.1590  155.5648 N   0  0  0  0  0  0  0  0  0  0  0  0
  148.9980  141.1670  154.5730 C   0  0  1  0  0  0  0  0  0  0  0  0
  148.2441  139.9965  155.2108 C   0  0  0  0  0  0  0  0  0  0  0  0
  146.9018  140.0385  154.4685 C   0  0  1  0  0  0  0  0  0  0  0  0
  146.0389  141.2302  154.9074 C   0  0  0  0  0  0  0  0  0  0  0  0
  146.7561  142.3997  154.2354 C   0  0  0  0  0  0  0  0  0  0  0  0
  147.9501  141.6937  153.5703 C   0  0  2  0  0  0  0  0  0  0  0  0
  147.3289  140.4773  153.1903 O   0  0  0  0  0  0  0  0  0  0  0  0
  150.0100  143.8412  157.1269 H   0  0  0  0  0  0  0  0  0  0  0  0
  150.8110  145.2167  158.6575 H   0  0  0  0  0  0  0  0  0  0  0  0
  151.9860  145.5880  160.8259 H   0  0  0  0  0  0  0  0  0  0  0  0
  152.6020  141.3265  161.0545 H   0  0  0  0  0  0  0  0  0  0  0  0
  149.1714  143.1226  155.3650 H   0  0  0  0  0  0  0  0  0  0  0  0
  149.8714  140.7861  154.0404 H   0  0  0  0  0  0  0  0  0  0  0  0
  148.7639  139.0589  155.0107 H   0  0  0  0  0  0  0  0  0  0  0  0
  148.1192  140.0881  156.2909 H   0  0  0  0  0  0  0  0  0  0  0  0
  146.3706  139.0863  154.4633 H   0  0  0  0  0  0  0  0  0  0  0  0
  145.0208  141.1367  154.5280 H   0  0  0  0  0  0  0  0  0  0  0  0
  145.9930  141.3295  155.9925 H   0  0  0  0  0  0  0  0  0  0  0  0
  146.1130  142.8505  153.4787 H   0  0  0  0  0  0  0  0  0  0  0  0
  147.0458  143.1841  154.9350 H   0  0  0  0  0  0  0  0  0  0  0  0
  148.3804  142.2512  152.7379 H   0  0  0  0  0  0  0  0  0  0  0  0
  1  2  2  0  0  0  0
  2  3  1  0  0  0  0
  2 11  1  0  0  0  0
  3  4  1  0  0  0  0
  3 19  1  0  0  0  0
  4 10  1  0  0  0  0
  4  5  2  0  0  0  0
  5  6  1  0  0  0  0
  5 20  1  0  0  0  0
  6  7  2  0  0  0  0
  6 21  1  0  0  0  0
  7  8  1  0  0  0  0
  7  9  1  0  0  0  0
  9 10  2  0  0  0  0
  9 22  1  0  0  0  0
 11 12  1  0  0  0  0
 11 23  1  0  0  0  0
 12 17  1  0  0  0  0
 12 13  1  0  0  0  0
 12 24  1  0  0  0  0
 13 14  1  0  0  0  0
 13 25  1  0  0  0  0
 13 26  1  0  0  0  0
 14 18  1  0  0  0  0
 14 15  1  0  0  0  0
 14 27  1  0  0  0  0
 15 16  1  0  0  0  0
 15 28  1  0  0  0  0
 15 29  1  0  0  0  0
 16 17  1  0  0  0  0
 16 30  1  0  0  0  0
 16 31  1  0  0  0  0
 17 18  1  0  0  0  0
 17 32  1  0  0  0  0
M  END
> <s_m_source_file>
AV-unprocessed.smi

> <i_m_source_file_index>
2749

> <i_lp_mmshare_version>
43012

> <i_f3d_flags>
0

> <s_epik_input>
W0NIMl0xW0NIMl1bQ0BIXShPMilbQ0BASF0oW0NIMl1bQ0BASF0xMilbTkhdQyg9TylbTkhdYzNbY0hdW2NIXWMoRilbY0hdbjM=

> <s_epik_cmdline>
J2VwaWtfcHl0aG9uJywgJy1waCcsICc3LjAnLCAnLXRuJywgJzgnLCAnLW1hJywgJzIwMCcsICctbWV0YWxfYmluZGluZycsICctaW1hZScsICc8aW5maWxlLm1hZT4nLCAnLW9tYWUnLCAnPG91dGZpbGUubWFlPic=

> <r_lp_tautomer_probability>
1

> <r_epik_Ionization_Penalty>
3.37159e-05

> <r_epik_Ionization_Penalty_Charging>
0

> <r_epik_Ionization_Penalty_Neutral>
3.37159e-05

> <r_epik_State_Penalty>
-0

> <r_epik_Charging_Adjusted_Penalty>
0

> <i_epik_Tot_Q>
0

> <i_epik_Tot_abs_Q>
0

> <r_epik_Metal_State_Penalty>
-0

> <b_epik_Metal_Only>
0

> <s_lp_Force_Field>
OPLS_2005

> <r_lp_Energy>
40.3406

> <b_lp_Chiralities_Consistent>
1

> <s_lp_Variant>
AV-unprocessed.smi:2749-2

> <Gold.Version>
5.8.1

> <Gold.Id.Protein>
6NUR|6NUR_protein|mol2

> <Gold.PLP.Fitness>
40.0955

> <Gold.PLP.PLP>
-34.5397

> <Gold.PLP.part.hbond>
-2.0000

> <Gold.PLP.part.metal>
0.0000

> <Gold.PLP.part.buried>
-6.0204

> <Gold.PLP.part.nonpolar>
-26.5072

> <Gold.PLP.part.repulsive>
0.6513

> <Gold.PLP.ligand.clash>
0.0000

> <Gold.PLP.ligand.torsion>
0.1117

> <Gold.PLP.Chemscore.Hbond>
1.9199

> <Gold.PLP.Chemscore.CHOScore>
0.0000

> <Gold.PLP.Chemscore.Metal>
0.0000

> <Gold.Chemscore.Hbonds>
donor molecule, donor type, donor heavy atom, donor atom, acceptor molecule, acceptor atom, score
      L1  H     3    19       P1  8028  0.91
      L1  H    11    23       P1  8028  1.00

> <Gold.PLP.Chemscore.Internal.Correction>
0.0196

> <Gold.Rescore>
     Score         DG    S(hbond)    S(metal)    S(lipo)     H(rot)  DE(clash)    DE(int)     intcor
     14.96     -18.33       1.91        0.00      77.15       1.00       0.79       2.58       ----

> <Gold.Chemscore.Fitness>
14.9642

> <Gold.Chemscore.DG>
-18.3262

> <Gold.Chemscore.ZeroCoef>
-5.4800

> <Gold.Chemscore.Hbond>
1.9101

> <Gold.Chemscore.Metal>
0.0000

> <Gold.Chemscore.Lipo>
77.1489

> <Gold.Chemscore.Internal_Hbond>
0.0000

> <Gold.Chemscore.DEClash>
0.7864

> <Gold.Chemscore.DEInternal>
2.5756

> <Gold.Chemscore.Rot>
1.0000

> <Gold.Chemscore.Internal.Correction>
   9.000000E+99

> <Gold.Chemscore.Hbonds>
donor molecule, donor type, donor heavy atom, donor atom, acceptor molecule, acceptor atom, score
      L1  H     3    19       P1  8028  0.79
      L1  H    11    23       P1  8028  0.99

> <Gold.Chemscore.Hbond.Weighted>
-6.3798

> <Gold.Chemscore.Metal.Weighted>
-0.0000

> <Gold.Chemscore.Lipo.Weighted>
-9.0264

> <Gold.Chemscore.Internal_Hbond.Weighted>
0.0000

> <Gold.Chemscore.DEClash.Weighted>
0.7864

> <Gold.Chemscore.DEInternal.Weighted>
2.5756

> <Gold.Chemscore.Rot.Weighted>
2.5600

> <Gold.Chemscore.Internal.Correction.Weighted>
   9.000000E+99

> <Gold.Protein.RotatedTorsions>
[ 6907 6896 6895 6894 ] final   78.46 input  -60.11 | X-H torsion
[ 7974 7965 7964 7962 ] final    1.79 input  175.53 | X-H torsion
[ 8008 7997 7996 7995 ] final -173.14 input   59.86 | X-H torsion
[ 10167 10162 10161 10158 ] final   46.03 input  -65.29 | X-H torsion
[ 10718 10713 10712 10709 ] final   29.68 input   66.30 | X-H torsion
[ 10763 10752 10751 10750 ] final -157.43 input  -60.55 | X-H torsion
[ 11005 11000 10999 10996 ] final  169.54 input  -57.11 | X-H torsion

> <Gold.Protein.ActiveResidues>
 VAL166  LYS551  ARG553  GLY616  TRP617  ASP618  TYR619  PRO620  LYS621  CYS622 
 ASP623  PHE694  ASN695  SER759  ASP760  ASP761  ALA762  ILE779  LEU786  VAL792 
 PHE793  MET794  SER795  GLU796  ALA797  LYS798  CYS799  TRP800  GLU811  SER814 

> <Gold.Protein.RotatedAtoms>
  152.5160  134.3661  159.9301 H   0  0  0  0  0  0  0  0  0  0  0  0  # atno 6907 bound_to 6896
  151.3614  133.3882  159.2698 H   0  0  0  0  0  0  0  0  0  0  0  0  # atno 6908 bound_to 6896
  150.9649  134.9050  159.7811 H   0  0  0  0  0  0  0  0  0  0  0  0  # atno 6909 bound_to 6896
  146.2442  140.0934  142.8351 H   0  0  0  0  0  0  0  0  0  0  0  0  # atno 7974 bound_to 7965
  155.9536  140.1131  157.0955 H   0  0  0  0  0  0  0  0  0  0  0  0  # atno 8008 bound_to 7997
  154.4115  140.1195  156.5152 H   0  0  0  0  0  0  0  0  0  0  0  0  # atno 8009 bound_to 7997
  155.6810  140.3473  155.4857 H   0  0  0  0  0  0  0  0  0  0  0  0  # atno 8010 bound_to 7997
  140.3181  144.2739  150.6187 H   0  0  0  0  0  0  0  0  0  0  0  0  # atno 10167 bound_to 10162
  157.2497  130.7109  149.6399 H   0  0  0  0  0  0  0  0  0  0  0  0  # atno 10718 bound_to 10713
  154.7636  135.3125  154.8329 H   0  0  0  0  0  0  0  0  0  0  0  0  # atno 10763 bound_to 10752
  153.9083  135.6808  153.4756 H   0  0  0  0  0  0  0  0  0  0  0  0  # atno 10764 bound_to 10752
  153.1240  135.4810  154.9174 H   0  0  0  0  0  0  0  0  0  0  0  0  # atno 10765 bound_to 10752
  140.2989  134.7612  157.3900 H   0  0  0  0  0  0  0  0  0  0  0  0  # atno 11005 bound_to 11000
  145.0631  140.9102  143.4927 LP  0  0  0  0  0  0  0  0  0  0  0  0  # atno 17320 bound_to 7965
  145.1053  139.2794  143.5665 LP  0  0  0  0  0  0  0  0  0  0  0  0  # atno 17321 bound_to 7965
  140.5508  143.2207  151.7930 LP  0  0  0  0  0  0  0  0  0  0  0  0  # atno 17342 bound_to 10162
  139.4880  144.4479  151.9689 LP  0  0  0  0  0  0  0  0  0  0  0  0  # atno 17343 bound_to 10162
  155.9666  130.4431  150.5409 LP  0  0  0  0  0  0  0  0  0  0  0  0  # atno 17370 bound_to 10713
  157.3291  131.0696  151.1875 LP  0  0  0  0  0  0  0  0  0  0  0  0  # atno 17371 bound_to 10713
  140.1127  134.5324  155.8252 LP  0  0  0  0  0  0  0  0  0  0  0  0  # atno 17394 bound_to 11000
  141.2132  133.6730  156.6720 LP  0  0  0  0  0  0  0  0  0  0  0  0  # atno 17395 bound_to 11000

$$$$
