AV-unprocessed.smi:2475|AV-procd|sdf|9756|dock8
  -GOLD-   2272013393D 1   1.00000     0.00000
 Structure written by MMmdl.
 37 38  0  0  0  0  0  0  0  0  1 V2000
  151.0543  145.2980  158.8781 C   0  0  0  0  0  0  0  0  0  0  0  0
  151.5508  143.8733  158.7543 C   0  0  0  0  0  0  0  0  0  0  0  0
  151.1559  143.0442  157.6833 C   0  0  0  0  0  0  0  0  0  0  0  0
  151.6769  141.7313  157.6587 C   0  0  0  0  0  0  0  0  0  0  0  0
  151.2595  140.9210  156.5715 N   0  0  0  0  0  0  0  0  0  0  0  0
  151.8250  139.7899  156.1074 C   0  0  0  0  0  0  0  0  0  0  0  0
  152.8568  139.2944  156.5620 O   0  0  0  0  0  0  0  0  0  0  0  0
  151.1287  139.1195  154.9083 C   0  0  1  0  0  0  0  0  0  0  0  0
  150.0556  138.0859  155.3116 C   0  0  0  0  0  0  0  0  0  0  0  0
  148.7719  138.6119  154.6914 C   0  0  0  0  0  0  0  0  0  0  0  0
  149.0641  140.0942  154.5144 C   0  0  0  0  0  0  0  0  0  0  0  0
  150.4299  140.0940  154.1300 O   0  0  0  0  0  0  0  0  0  0  0  0
  152.5189  141.3193  158.6380 N   0  0  0  0  0  0  0  0  0  0  0  0
  152.8304  142.1829  159.6101 C   0  0  0  0  0  0  0  0  0  0  0  0
  153.7832  141.6913  160.6920 C   0  0  0  0  0  0  0  0  0  0  0  0
  154.0681  140.1868  160.5648 C   0  0  0  0  0  0  0  0  0  0  0  0
  153.3166  142.0975  162.0986 C   0  0  0  0  0  0  0  0  0  0  0  0
  152.3900  143.4395  159.7181 N   0  0  0  0  0  0  0  0  0  0  0  0
  150.3274  145.5311  158.0996 H   0  0  0  0  0  0  0  0  0  0  0  0
  151.8859  145.9974  158.7891 H   0  0  0  0  0  0  0  0  0  0  0  0
  150.5768  145.4515  159.8462 H   0  0  0  0  0  0  0  0  0  0  0  0
  150.4832  143.4002  156.9165 H   0  0  0  0  0  0  0  0  0  0  0  0
  150.4225  141.2247  156.0956 H   0  0  0  0  0  0  0  0  0  0  0  0
  151.8930  138.6589  154.2816 H   0  0  0  0  0  0  0  0  0  0  0  0
  150.2943  137.0878  154.9434 H   0  0  0  0  0  0  0  0  0  0  0  0
  149.9365  138.0128  156.3937 H   0  0  0  0  0  0  0  0  0  0  0  0
  148.6142  138.1486  153.7165 H   0  0  0  0  0  0  0  0  0  0  0  0
  147.8906  138.4218  155.3047 H   0  0  0  0  0  0  0  0  0  0  0  0
  148.4324  140.5631  153.7598 H   0  0  0  0  0  0  0  0  0  0  0  0
  148.9420  140.6341  155.4546 H   0  0  0  0  0  0  0  0  0  0  0  0
  154.7378  142.1959  160.5324 H   0  0  0  0  0  0  0  0  0  0  0  0
  154.4699  139.9468  159.5801 H   0  0  0  0  0  0  0  0  0  0  0  0
  153.1626  139.5963  160.7087 H   0  0  0  0  0  0  0  0  0  0  0  0
  154.7970  139.8620  161.3074 H   0  0  0  0  0  0  0  0  0  0  0  0
  153.1952  143.1785  162.1735 H   0  0  0  0  0  0  0  0  0  0  0  0
  154.0403  141.7931  162.8551 H   0  0  0  0  0  0  0  0  0  0  0  0
  152.3612  141.6361  162.3506 H   0  0  0  0  0  0  0  0  0  0  0  0
  1  2  1  0  0  0  0
  1 19  1  0  0  0  0
  1 20  1  0  0  0  0
  1 21  1  0  0  0  0
  2 18  1  0  0  0  0
  2  3  2  0  0  0  0
  3  4  1  0  0  0  0
  3 22  1  0  0  0  0
  4  5  1  0  0  0  0
  4 13  2  0  0  0  0
  5  6  1  0  0  0  0
  5 23  1  0  0  0  0
  6  7  2  0  0  0  0
  6  8  1  0  0  0  0
  8 12  1  0  0  0  0
  8  9  1  0  0  0  0
  8 24  1  0  0  0  0
  9 10  1  0  0  0  0
  9 25  1  0  0  0  0
  9 26  1  0  0  0  0
 10 11  1  0  0  0  0
 10 27  1  0  0  0  0
 10 28  1  0  0  0  0
 11 12  1  0  0  0  0
 11 29  1  0  0  0  0
 11 30  1  0  0  0  0
 13 14  1  0  0  0  0
 14 15  1  0  0  0  0
 14 18  2  0  0  0  0
 15 16  1  0  0  0  0
 15 17  1  0  0  0  0
 15 31  1  0  0  0  0
 16 32  1  0  0  0  0
 16 33  1  0  0  0  0
 16 34  1  0  0  0  0
 17 35  1  0  0  0  0
 17 36  1  0  0  0  0
 17 37  1  0  0  0  0
M  END
> <s_m_source_file>
AV-unprocessed.smi

> <i_m_source_file_index>
2475

> <i_lp_mmshare_version>
43012

> <i_f3d_flags>
0

> <s_epik_input>
W0NIM11bQ0hdKFtDSDNdKWMobjEpbmMoW2NIXWMxW0NIM10pW05IXUMoPU8pW0NAQEhdMltDSDJdW0NIMl1bQ0gyXU8y

> <s_epik_cmdline>
J2VwaWtfcHl0aG9uJywgJy1waCcsICc3LjAnLCAnLXRuJywgJzgnLCAnLW1hJywgJzIwMCcsICctbWV0YWxfYmluZGluZycsICctaW1hZScsICc8aW5maWxlLm1hZT4nLCAnLW9tYWUnLCAnPG91dGZpbGUubWFlPic=

> <r_lp_tautomer_probability>
1

> <r_epik_Ionization_Penalty>
1.42804e-05

> <r_epik_Ionization_Penalty_Charging>
0

> <r_epik_Ionization_Penalty_Neutral>
1.42804e-05

> <r_epik_State_Penalty>
-0

> <r_epik_Charging_Adjusted_Penalty>
0

> <i_epik_Tot_Q>
0

> <i_epik_Tot_abs_Q>
0

> <r_epik_Metal_State_Penalty>
-0

> <b_epik_Metal_Only>
0

> <s_lp_Force_Field>
OPLS_2005

> <r_lp_Energy>
11.5588

> <b_lp_Chiralities_Consistent>
1

> <s_lp_Variant>
AV-unprocessed.smi:2475-2

> <Gold.Version>
5.8.1

> <Gold.Id.Protein>
6NUR|6NUR_protein|mol2

> <Gold.PLP.Fitness>
43.4535

> <Gold.PLP.PLP>
-39.5465

> <Gold.PLP.part.hbond>
-1.8594

> <Gold.PLP.part.metal>
0.0000

> <Gold.PLP.part.buried>
-6.5216

> <Gold.PLP.part.nonpolar>
-32.2247

> <Gold.PLP.part.repulsive>
0.6355

> <Gold.PLP.ligand.clash>
0.0000

> <Gold.PLP.ligand.torsion>
1.0845

> <Gold.PLP.Chemscore.Hbond>
2.0000

> <Gold.PLP.Chemscore.CHOScore>
0.0000

> <Gold.PLP.Chemscore.Metal>
0.0000

> <Gold.Chemscore.Hbonds>
donor molecule, donor type, donor heavy atom, donor atom, acceptor molecule, acceptor atom, score
      P1  H  7989  7998       L1    12  1.00
      P1  H  7997  8009       L1     7  1.00

> <Gold.PLP.Chemscore.Internal.Correction>
0.0760

> <Gold.Rescore>
     Score         DG    S(hbond)    S(metal)    S(lipo)     H(rot)  DE(clash)    DE(int)     intcor
     16.76     -19.01       1.93        0.00      86.42       1.18       0.19       2.05       ----

> <Gold.Chemscore.Fitness>
16.7649

> <Gold.Chemscore.DG>
-19.0053

> <Gold.Chemscore.ZeroCoef>
-5.4800

> <Gold.Chemscore.Hbond>
1.9300

> <Gold.Chemscore.Metal>
0.0000

> <Gold.Chemscore.Lipo>
86.4157

> <Gold.Chemscore.Internal_Hbond>
0.0000

> <Gold.Chemscore.DEClash>
0.1883

> <Gold.Chemscore.DEInternal>
2.0521

> <Gold.Chemscore.Rot>
1.1842

> <Gold.Chemscore.Internal.Correction>
   9.000000E+99

> <Gold.Chemscore.Hbonds>
donor molecule, donor type, donor heavy atom, donor atom, acceptor molecule, acceptor atom, score
      P1  H  7989  7998       L1    12  0.28
      P1  H  7997  8009       L1     7  1.00

> <Gold.Chemscore.Hbond.Weighted>
-6.4461

> <Gold.Chemscore.Metal.Weighted>
-0.0000

> <Gold.Chemscore.Lipo.Weighted>
-10.1106

> <Gold.Chemscore.Internal_Hbond.Weighted>
0.0000

> <Gold.Chemscore.DEClash.Weighted>
0.1883

> <Gold.Chemscore.DEInternal.Weighted>
2.0521

> <Gold.Chemscore.Rot.Weighted>
3.0315

> <Gold.Chemscore.Internal.Correction.Weighted>
   9.000000E+99

> <Gold.Protein.RotatedTorsions>
[ 6907 6896 6895 6894 ] final    4.81 input  -60.11 | X-H torsion
[ 7974 7965 7964 7962 ] final  115.50 input  175.53 | X-H torsion
[ 8008 7997 7996 7995 ] final -178.04 input   59.86 | X-H torsion
[ 10167 10162 10161 10158 ] final  166.31 input  -65.29 | X-H torsion
[ 10718 10713 10712 10709 ] final  109.14 input   66.30 | X-H torsion
[ 10763 10752 10751 10750 ] final   76.59 input  -60.55 | X-H torsion
[ 11005 11000 10999 10996 ] final  110.54 input  -57.11 | X-H torsion

> <Gold.Protein.ActiveResidues>
 VAL166  LYS551  ARG553  GLY616  TRP617  ASP618  TYR619  PRO620  LYS621  CYS622 
 ASP623  PHE694  ASN695  SER759  ASP760  ASP761  ALA762  ILE779  LEU786  VAL792 
 PHE793  MET794  SER795  GLU796  ALA797  LYS798  CYS799  TRP800  GLU811  SER814 

> <Gold.Protein.RotatedAtoms>
  151.6474  135.1005  160.0153 H   0  0  0  0  0  0  0  0  0  0  0  0  # atno 6907 bound_to 6896
  152.4020  133.6828  159.6333 H   0  0  0  0  0  0  0  0  0  0  0  0  # atno 6908 bound_to 6896
  150.7919  133.8691  159.3294 H   0  0  0  0  0  0  0  0  0  0  0  0  # atno 6909 bound_to 6896
  145.1913  139.2999  143.4367 H   0  0  0  0  0  0  0  0  0  0  0  0  # atno 7974 bound_to 7965
  156.0141  140.1247  157.0424 H   0  0  0  0  0  0  0  0  0  0  0  0  # atno 8008 bound_to 7997
  154.4287  140.1082  156.5941 H   0  0  0  0  0  0  0  0  0  0  0  0  # atno 8009 bound_to 7997
  155.6038  140.3471  155.4604 H   0  0  0  0  0  0  0  0  0  0  0  0  # atno 8010 bound_to 7997
  139.4922  144.4041  151.9376 H   0  0  0  0  0  0  0  0  0  0  0  0  # atno 10167 bound_to 10162
  157.6555  131.0908  150.6410 H   0  0  0  0  0  0  0  0  0  0  0  0  # atno 10718 bound_to 10713
  153.0736  135.4946  154.8357 H   0  0  0  0  0  0  0  0  0  0  0  0  # atno 10763 bound_to 10752
  154.7057  135.3010  154.9277 H   0  0  0  0  0  0  0  0  0  0  0  0  # atno 10764 bound_to 10752
  153.9986  135.6769  153.4811 H   0  0  0  0  0  0  0  0  0  0  0  0  # atno 10765 bound_to 10752
  139.8884  134.9486  156.6294 H   0  0  0  0  0  0  0  0  0  0  0  0  # atno 11005 bound_to 11000
  146.3435  140.2126  142.8590 LP  0  0  0  0  0  0  0  0  0  0  0  0  # atno 17320 bound_to 7965
  145.0039  140.8656  143.5265 LP  0  0  0  0  0  0  0  0  0  0  0  0  # atno 17321 bound_to 7965
  140.3481  144.3123  150.5954 LP  0  0  0  0  0  0  0  0  0  0  0  0  # atno 17342 bound_to 10162
  140.5509  143.2206  151.7929 LP  0  0  0  0  0  0  0  0  0  0  0  0  # atno 17343 bound_to 10162
  156.6717  130.4541  149.5655 LP  0  0  0  0  0  0  0  0  0  0  0  0  # atno 17370 bound_to 10713
  156.1993  130.6609  151.1149 LP  0  0  0  0  0  0  0  0  0  0  0  0  # atno 17371 bound_to 10713
  140.7678  133.8763  155.8468 LP  0  0  0  0  0  0  0  0  0  0  0  0  # atno 17394 bound_to 11000
  140.9867  134.1333  157.4445 LP  0  0  0  0  0  0  0  0  0  0  0  0  # atno 17395 bound_to 11000

$$$$
