AV-unprocessed.smi:2959|AV-procd|sdf|11309|dock10
  -GOLD-   2272016213D 1   1.00000     0.00000
 Structure written by MMmdl.
 45 47  0  0  0  0  0  0  0  0  1 V2000
  146.3482  145.1333  160.3014 C   0  0  0  0  0  0  0  0  0  0  0  0
  146.7421  143.8033  159.6666 C   0  0  0  0  0  0  0  0  0  0  0  0
  146.4297  142.7455  160.2116 O   0  0  0  0  0  0  0  0  0  0  0  0
  147.4227  143.8683  158.5141 N   0  0  0  0  0  0  0  0  0  0  0  0
  147.8908  142.7127  157.7587 C   0  0  0  0  0  0  0  0  0  0  0  0
  149.2913  142.9445  157.1596 C   0  0  0  0  0  0  0  0  0  0  0  0
  150.4121  142.4484  158.0321 C   0  0  0  0  0  0  0  0  0  0  0  0
  150.8307  143.1608  159.0798 N   0  0  0  0  0  0  0  0  0  0  0  0
  151.8520  142.3874  159.5916 C   0  0  0  0  0  0  0  0  0  0  0  0
  152.7064  142.6081  160.6954 C   0  0  0  0  0  0  0  0  0  0  0  0
  153.6928  141.6594  161.0352 C   0  0  0  0  0  0  0  0  0  0  0  0
  153.8373  140.4784  160.2786 C   0  0  0  0  0  0  0  0  0  0  0  0
  152.9944  140.2390  159.1762 C   0  0  0  0  0  0  0  0  0  0  0  0
  152.0119  141.1902  158.8398 C   0  0  0  0  0  0  0  0  0  0  0  0
  151.0403  141.2566  157.8447 N   0  0  0  0  0  0  0  0  0  0  0  0
  150.7909  140.2215  156.8489 C   0  0  0  0  0  0  0  0  0  0  0  0
  151.5540  140.4589  155.5379 C   0  0  0  0  0  0  0  0  0  0  0  0
  150.8545  141.4033  154.7407 O   0  0  0  0  0  0  0  0  0  0  0  0
  149.7454  140.9751  154.0437 C   0  0  0  0  0  0  0  0  0  0  0  0
  148.8425  141.9663  153.6060 C   0  0  0  0  0  0  0  0  0  0  0  0
  147.6902  141.6207  152.8749 C   0  0  0  0  0  0  0  0  0  0  0  0
  147.4270  140.2718  152.5746 C   0  0  0  0  0  0  0  0  0  0  0  0
  148.3172  139.2717  153.0078 C   0  0  0  0  0  0  0  0  0  0  0  0
  149.4707  139.6181  153.7386 C   0  0  0  0  0  0  0  0  0  0  0  0
  146.6355  145.1500  161.3528 H   0  0  0  0  0  0  0  0  0  0  0  0
  145.2691  145.2744  160.2379 H   0  0  0  0  0  0  0  0  0  0  0  0
  146.8324  145.9739  159.8024 H   0  0  0  0  0  0  0  0  0  0  0  0
  147.6315  144.7804  158.1336 H   0  0  0  0  0  0  0  0  0  0  0  0
  147.9210  141.8499  158.4263 H   0  0  0  0  0  0  0  0  0  0  0  0
  147.1792  142.4758  156.9668 H   0  0  0  0  0  0  0  0  0  0  0  0
  149.3619  142.4455  156.1927 H   0  0  0  0  0  0  0  0  0  0  0  0
  149.4071  144.0066  156.9553 H   0  0  0  0  0  0  0  0  0  0  0  0
  152.6025  143.5093  161.2813 H   0  0  0  0  0  0  0  0  0  0  0  0
  154.3409  141.8383  161.8807 H   0  0  0  0  0  0  0  0  0  0  0  0
  154.5946  139.7559  160.5456 H   0  0  0  0  0  0  0  0  0  0  0  0
  153.1035  139.3347  158.5963 H   0  0  0  0  0  0  0  0  0  0  0  0
  151.1043  139.2677  157.2744 H   0  0  0  0  0  0  0  0  0  0  0  0
  149.7205  140.1213  156.6723 H   0  0  0  0  0  0  0  0  0  0  0  0
  152.5644  140.8082  155.7567 H   0  0  0  0  0  0  0  0  0  0  0  0
  151.6352  139.5152  154.9963 H   0  0  0  0  0  0  0  0  0  0  0  0
  149.0384  143.0048  153.8292 H   0  0  0  0  0  0  0  0  0  0  0  0
  147.0099  142.3915  152.5437 H   0  0  0  0  0  0  0  0  0  0  0  0
  146.5439  140.0045  152.0130 H   0  0  0  0  0  0  0  0  0  0  0  0
  148.1164  138.2357  152.7778 H   0  0  0  0  0  0  0  0  0  0  0  0
  150.1319  138.8237  154.0492 H   0  0  0  0  0  0  0  0  0  0  0  0
  1  2  1  0  0  0  0
  1 25  1  0  0  0  0
  1 26  1  0  0  0  0
  1 27  1  0  0  0  0
  2  3  2  0  0  0  0
  2  4  1  0  0  0  0
  4  5  1  0  0  0  0
  4 28  1  0  0  0  0
  5  6  1  0  0  0  0
  5 29  1  0  0  0  0
  5 30  1  0  0  0  0
  6  7  1  0  0  0  0
  6 31  1  0  0  0  0
  6 32  1  0  0  0  0
  7 15  1  0  0  0  0
  7  8  2  0  0  0  0
  8  9  1  0  0  0  0
  9 14  2  0  0  0  0
  9 10  1  0  0  0  0
 10 11  2  0  0  0  0
 10 33  1  0  0  0  0
 11 12  1  0  0  0  0
 11 34  1  0  0  0  0
 12 13  2  0  0  0  0
 12 35  1  0  0  0  0
 13 14  1  0  0  0  0
 13 36  1  0  0  0  0
 14 15  1  0  0  0  0
 15 16  1  0  0  0  0
 16 17  1  0  0  0  0
 16 37  1  0  0  0  0
 16 38  1  0  0  0  0
 17 18  1  0  0  0  0
 17 39  1  0  0  0  0
 17 40  1  0  0  0  0
 18 19  1  0  0  0  0
 19 24  1  0  0  0  0
 19 20  2  0  0  0  0
 20 21  1  0  0  0  0
 20 41  1  0  0  0  0
 21 22  2  0  0  0  0
 21 42  1  0  0  0  0
 22 23  1  0  0  0  0
 22 43  1  0  0  0  0
 23 24  2  0  0  0  0
 23 44  1  0  0  0  0
 24 45  1  0  0  0  0
M  END
> <s_m_source_file>
AV-unprocessed.smi

> <i_m_source_file_index>
2959

> <i_lp_mmshare_version>
43012

> <i_f3d_flags>
0

> <s_epik_input>
W0NIM11DKD1PKVtOSF1bQ0gyXVtDSDJdYyhuMSluKGMoYzEyKVtjSF1bY0hdW2NIXVtjSF0yKVtDSDJdW0NIMl1PYzNbY0hdW2NIXVtjSF1bY0hdW2NIXTM=

> <s_epik_cmdline>
J2VwaWtfcHl0aG9uJywgJy1waCcsICc3LjAnLCAnLXRuJywgJzgnLCAnLW1hJywgJzIwMCcsICctbWV0YWxfYmluZGluZycsICctaW1hZScsICc8aW5maWxlLm1hZT4nLCAnLW9tYWUnLCAnPG91dGZpbGUubWFlPic=

> <r_lp_tautomer_probability>
1

> <r_epik_Ionization_Penalty>
0.11099

> <r_epik_Ionization_Penalty_Charging>
0

> <r_epik_Ionization_Penalty_Neutral>
0.11099

> <r_epik_State_Penalty>
0.100724

> <r_epik_Charging_Adjusted_Penalty>
0.100724

> <i_epik_Tot_Q>
0

> <i_epik_Tot_abs_Q>
0

> <r_epik_Metal_State_Penalty>
0.0847

> <b_epik_Metal_Only>
0

> <s_lp_Force_Field>
OPLS_2005

> <r_lp_Energy>
14.3457

> <b_lp_Chiralities_Consistent>
1

> <s_lp_Variant>
AV-unprocessed.smi:2959-1

> <Gold.Version>
5.8.1

> <Gold.Id.Protein>
6NUR|6NUR_protein|mol2

> <Gold.PLP.Fitness>
54.3925

> <Gold.PLP.PLP>
-46.7439

> <Gold.PLP.part.hbond>
-4.0000

> <Gold.PLP.part.metal>
0.0000

> <Gold.PLP.part.buried>
-2.5430

> <Gold.PLP.part.nonpolar>
-40.3789

> <Gold.PLP.part.repulsive>
0.2279

> <Gold.PLP.ligand.clash>
0.0000

> <Gold.PLP.ligand.torsion>
1.4614

> <Gold.PLP.Chemscore.Hbond>
3.5136

> <Gold.PLP.Chemscore.CHOScore>
0.0000

> <Gold.PLP.Chemscore.Metal>
0.0000

> <Gold.Chemscore.Hbonds>
donor molecule, donor type, donor heavy atom, donor atom, acceptor molecule, acceptor atom, score
      L1  H     4    28       P1  8029  0.83
      P1  H  6933  6944       L1     3  0.01
      P1  H  6934  6946       L1     3  1.00
      P1  H  7989  7998       L1    18  0.04

> <Gold.PLP.Chemscore.Internal.Correction>
0.0306

> <Gold.Rescore>
     Score         DG    S(hbond)    S(metal)    S(lipo)     H(rot)  DE(clash)    DE(int)     intcor
     17.51     -20.36       1.95        0.00     118.22       2.14       1.41       1.43       ----

> <Gold.Chemscore.Fitness>
17.5101

> <Gold.Chemscore.DG>
-20.3571

> <Gold.Chemscore.ZeroCoef>
-5.4800

> <Gold.Chemscore.Hbond>
1.9499

> <Gold.Chemscore.Metal>
0.0000

> <Gold.Chemscore.Lipo>
118.2191

> <Gold.Chemscore.Internal_Hbond>
0.0000

> <Gold.Chemscore.DEClash>
1.4147

> <Gold.Chemscore.DEInternal>
1.4324

> <Gold.Chemscore.Rot>
2.1356

> <Gold.Chemscore.Internal.Correction>
   9.000000E+99

> <Gold.Chemscore.Hbonds>
donor molecule, donor type, donor heavy atom, donor atom, acceptor molecule, acceptor atom, score
      L1  H     4    28       P1  8029  0.69
      P1  H  6933  6944       L1     3  0.01
      P1  H  6934  6946       L1     3  0.95

> <Gold.Chemscore.Hbond.Weighted>
-6.5126

> <Gold.Chemscore.Metal.Weighted>
-0.0000

> <Gold.Chemscore.Lipo.Weighted>
-13.8316

> <Gold.Chemscore.Internal_Hbond.Weighted>
0.0000

> <Gold.Chemscore.DEClash.Weighted>
1.4147

> <Gold.Chemscore.DEInternal.Weighted>
1.4324

> <Gold.Chemscore.Rot.Weighted>
5.4671

> <Gold.Chemscore.Internal.Correction.Weighted>
   9.000000E+99

> <Gold.Protein.RotatedTorsions>
[ 6907 6896 6895 6894 ] final  127.50 input  -60.11 | X-H torsion
[ 7974 7965 7964 7962 ] final -154.78 input  175.53 | X-H torsion
[ 8008 7997 7996 7995 ] final  -64.41 input   59.86 | X-H torsion
[ 10167 10162 10161 10158 ] final -134.05 input  -65.29 | X-H torsion
[ 10718 10713 10712 10709 ] final  150.25 input   66.30 | X-H torsion
[ 10763 10752 10751 10750 ] final   30.95 input  -60.55 | X-H torsion
[ 11005 11000 10999 10996 ] final  132.45 input  -57.11 | X-H torsion

> <Gold.Protein.ActiveResidues>
 VAL166  LYS551  ARG553  GLY616  TRP617  ASP618  TYR619  PRO620  LYS621  CYS622 
 ASP623  PHE694  ASN695  SER759  ASP760  ASP761  ALA762  ILE779  LEU786  VAL792 
 PHE793  MET794  SER795  GLU796  ALA797  LYS798  CYS799  TRP800  GLU811  SER814 

> <Gold.Protein.RotatedAtoms>
  152.3807  133.6542  159.6158 H   0  0  0  0  0  0  0  0  0  0  0  0  # atno 6907 bound_to 6896
  150.7738  133.9119  159.3381 H   0  0  0  0  0  0  0  0  0  0  0  0  # atno 6908 bound_to 6896
  151.6925  135.0945  160.0287 H   0  0  0  0  0  0  0  0  0  0  0  0  # atno 6909 bound_to 6896
  144.7672  140.4341  143.5933 H   0  0  0  0  0  0  0  0  0  0  0  0  # atno 7974 bound_to 7965
  154.4610  140.0954  156.6893 H   0  0  0  0  0  0  0  0  0  0  0  0  # atno 8008 bound_to 7997
  155.4994  140.3473  155.4350 H   0  0  0  0  0  0  0  0  0  0  0  0  # atno 8009 bound_to 7997
  156.0870  140.1387  156.9629 H   0  0  0  0  0  0  0  0  0  0  0  0  # atno 8010 bound_to 7997
  139.8920  143.6711  152.2610 H   0  0  0  0  0  0  0  0  0  0  0  0  # atno 10167 bound_to 10162
  157.2858  131.0844  151.1498 H   0  0  0  0  0  0  0  0  0  0  0  0  # atno 10718 bound_to 10713
  153.0342  135.6451  154.1124 H   0  0  0  0  0  0  0  0  0  0  0  0  # atno 10763 bound_to 10752
  154.0842  135.2871  155.3286 H   0  0  0  0  0  0  0  0  0  0  0  0  # atno 10764 bound_to 10752
  154.6509  135.5426  153.7965 H   0  0  0  0  0  0  0  0  0  0  0  0  # atno 10765 bound_to 10752
  139.9791  134.9554  156.9584 H   0  0  0  0  0  0  0  0  0  0  0  0  # atno 11005 bound_to 11000
  145.6433  139.1553  143.2903 LP  0  0  0  0  0  0  0  0  0  0  0  0  # atno 17320 bound_to 7965
  146.1790  140.6528  142.9198 LP  0  0  0  0  0  0  0  0  0  0  0  0  # atno 17321 bound_to 7965
  139.7101  144.7621  151.1126 LP  0  0  0  0  0  0  0  0  0  0  0  0  # atno 17342 bound_to 10162
  140.7724  143.5341  150.9388 LP  0  0  0  0  0  0  0  0  0  0  0  0  # atno 17343 bound_to 10162
  157.2914  130.6798  149.6116 LP  0  0  0  0  0  0  0  0  0  0  0  0  # atno 17370 bound_to 10713
  155.9665  130.4420  150.5362 LP  0  0  0  0  0  0  0  0  0  0  0  0  # atno 17371 bound_to 10713
  140.5133  134.0980  155.7275 LP  0  0  0  0  0  0  0  0  0  0  0  0  # atno 17394 bound_to 11000
  141.1465  133.9046  157.2203 LP  0  0  0  0  0  0  0  0  0  0  0  0  # atno 17395 bound_to 11000

$$$$
