AV-unprocessed.smi:2124|AV-procd|sdf|8658|dock9
  -GOLD-   2272011403D 1   1.00000     0.00000
 Structure written by MMmdl.
 47 49  0  0  0  0  0  0  0  0  1 V2000
  151.2658  143.5107  157.3235 C   0  0  0  0  0  0  0  0  0  0  0  0
  151.1388  142.1753  156.6232 C   0  0  0  0  0  0  0  0  0  0  0  0
  150.0508  142.0965  155.7699 N   0  0  0  0  0  0  0  0  0  0  0  0
  149.8661  140.9214  155.0632 C   0  0  0  0  0  0  0  0  0  0  0  0
  148.6642  140.9277  154.1348 C   0  0  0  0  0  0  0  0  0  0  0  0
  150.7133  139.8713  155.2121 C   0  0  0  0  0  0  0  0  0  0  0  0
  150.5510  138.5626  154.4417 C   0  0  0  0  0  0  0  0  0  0  0  0
  150.4634  137.3002  155.3011 C   0  0  0  0  0  0  0  0  0  0  0  0
  150.8572  137.3210  156.4668 O   0  0  0  0  0  0  0  0  0  0  0  0
  149.9426  136.2116  154.7132 N   0  0  0  0  0  0  0  0  0  0  0  0
  149.7573  134.9070  155.3445 C   0  0  2  0  0  0  0  0  0  0  0  0
  151.0024  134.5608  156.1778 C   0  0  0  0  0  0  0  0  0  0  0  0
  149.4623  133.8501  154.2541 C   0  0  2  0  0  0  0  0  0  0  0  0
  148.0117  133.8606  153.7191 C   0  0  0  0  0  0  0  0  0  0  0  0
  147.6021  132.3782  153.7953 C   0  0  2  0  0  0  0  0  0  0  0  0
  147.3534  132.0017  155.2672 C   0  0  0  0  0  0  0  0  0  0  0  0
  148.7776  131.9637  155.8505 C   0  0  0  0  0  0  0  0  0  0  0  0
  149.6533  132.3626  154.6444 C   0  0  1  0  0  0  0  0  0  0  0  0
  148.9173  131.6638  153.5053 C   0  0  0  0  0  0  0  0  0  0  0  0
  151.8449  140.0062  156.1600 C   0  0  0  0  0  0  0  0  0  0  0  0
  152.6319  139.0819  156.3605 O   0  0  0  0  0  0  0  0  0  0  0  0
  151.9997  141.2271  156.8364 N   0  0  0  0  0  0  0  0  0  0  0  0
  149.3978  142.8536  155.6284 H   0  0  0  0  0  0  0  0  0  0  0  0
  152.1443  143.5307  157.9698 H   0  0  0  0  0  0  0  0  0  0  0  0
  150.3857  143.7033  157.9376 H   0  0  0  0  0  0  0  0  0  0  0  0
  151.3628  144.3145  156.5931 H   0  0  0  0  0  0  0  0  0  0  0  0
  148.9775  140.7793  153.1014 H   0  0  0  0  0  0  0  0  0  0  0  0
  148.1206  141.8717  154.1869 H   0  0  0  0  0  0  0  0  0  0  0  0
  147.9720  140.1308  154.4043 H   0  0  0  0  0  0  0  0  0  0  0  0
  151.3657  138.4312  153.7290 H   0  0  0  0  0  0  0  0  0  0  0  0
  149.6568  138.6381  153.8219 H   0  0  0  0  0  0  0  0  0  0  0  0
  149.6467  136.2935  153.7513 H   0  0  0  0  0  0  0  0  0  0  0  0
  148.8989  134.9693  156.0140 H   0  0  0  0  0  0  0  0  0  0  0  0
  150.8740  133.6184  156.7102 H   0  0  0  0  0  0  0  0  0  0  0  0
  151.2018  135.3287  156.9261 H   0  0  0  0  0  0  0  0  0  0  0  0
  151.8886  134.4709  155.5489 H   0  0  0  0  0  0  0  0  0  0  0  0
  150.1292  134.0508  153.4132 H   0  0  0  0  0  0  0  0  0  0  0  0
  147.3439  134.4898  154.3089 H   0  0  0  0  0  0  0  0  0  0  0  0
  147.9862  134.2240  152.6910 H   0  0  0  0  0  0  0  0  0  0  0  0
  146.7769  132.1173  153.1323 H   0  0  0  0  0  0  0  0  0  0  0  0
  146.7138  132.7228  155.7774 H   0  0  0  0  0  0  0  0  0  0  0  0
  146.8809  131.0217  155.3450 H   0  0  0  0  0  0  0  0  0  0  0  0
  148.9001  132.6165  156.7137 H   0  0  0  0  0  0  0  0  0  0  0  0
  149.0222  130.9520  156.1770 H   0  0  0  0  0  0  0  0  0  0  0  0
  150.6983  132.0692  154.7486 H   0  0  0  0  0  0  0  0  0  0  0  0
  148.8573  130.5805  153.6268 H   0  0  0  0  0  0  0  0  0  0  0  0
  149.3252  131.8904  152.5186 H   0  0  0  0  0  0  0  0  0  0  0  0
  1 24  1  0  0  0  0
  1 25  1  0  0  0  0
  1 26  1  0  0  0  0
  1  2  1  0  0  0  0
  2  3  1  0  0  0  0
  2 22  2  0  0  0  0
  3  4  1  0  0  0  0
  3 23  1  0  0  0  0
  4  6  2  0  0  0  0
  4  5  1  0  0  0  0
  5 27  1  0  0  0  0
  5 28  1  0  0  0  0
  5 29  1  0  0  0  0
  6 20  1  0  0  0  0
  6  7  1  0  0  0  0
  7  8  1  0  0  0  0
  7 30  1  0  0  0  0
  7 31  1  0  0  0  0
  8  9  2  0  0  0  0
  8 10  1  0  0  0  0
 10 11  1  0  0  0  0
 10 32  1  0  0  0  0
 11 12  1  0  0  0  0
 11 13  1  0  0  0  0
 11 33  1  0  0  0  0
 12 34  1  0  0  0  0
 12 35  1  0  0  0  0
 12 36  1  0  0  0  0
 13 18  1  0  0  0  0
 13 14  1  0  0  0  0
 13 37  1  0  0  0  0
 14 15  1  0  0  0  0
 14 38  1  0  0  0  0
 14 39  1  0  0  0  0
 15 19  1  0  0  0  0
 15 16  1  0  0  0  0
 15 40  1  0  0  0  0
 16 17  1  0  0  0  0
 16 41  1  0  0  0  0
 16 42  1  0  0  0  0
 17 18  1  0  0  0  0
 17 43  1  0  0  0  0
 17 44  1  0  0  0  0
 18 19  1  0  0  0  0
 18 45  1  0  0  0  0
 19 46  1  0  0  0  0
 19 47  1  0  0  0  0
 20 21  2  0  0  0  0
 20 22  1  0  0  0  0
M  END
> <s_m_source_file>
AV-unprocessed.smi

> <i_m_source_file_index>
2124

> <i_lp_mmshare_version>
43012

> <i_f3d_flags>
0

> <s_epik_input>
W0NIM11jMW5jKFtDSDNdKWMoYyg9TylbbkhdMSlbQ0gyXUMoPU8pW05IXVtDQEhdKFtDSDNdKVtDQEhdKFtDSDJdW0NASF0yMylbQ0BIXShbQ0gyXTMpW0NIMl1bQ0gyXTI=

> <s_epik_cmdline>
J2VwaWtfcHl0aG9uJywgJy1waCcsICc3LjAnLCAnLXRuJywgJzgnLCAnLW1hJywgJzIwMCcsICctbWV0YWxfYmluZGluZycsICctaW1hZScsICc8aW5maWxlLm1hZT4nLCAnLW9tYWUnLCAnPG91dGZpbGUubWFlPic=

> <r_lp_tautomer_probability>
0.156392

> <r_epik_Ionization_Penalty>
0.0139374

> <r_epik_Ionization_Penalty_Charging>
0.0138122

> <r_epik_Ionization_Penalty_Neutral>
0.000125146

> <r_epik_State_Penalty>
1.15342

> <r_epik_Charging_Adjusted_Penalty>
1.16723

> <i_epik_Tot_Q>
0

> <i_epik_Tot_abs_Q>
0

> <r_epik_Metal_State_Penalty>
1.3173

> <b_epik_Metal_Only>
0

> <s_lp_Force_Field>
OPLS_2005

> <r_lp_Energy>
55.868

> <b_lp_Chiralities_Consistent>
1

> <s_lp_Variant>
AV-unprocessed.smi:2124-9

> <Gold.Version>
5.8.1

> <Gold.Id.Protein>
6NUR|6NUR_protein|mol2

> <Gold.PLP.Fitness>
42.9553

> <Gold.PLP.PLP>
-35.5859

> <Gold.PLP.part.hbond>
-3.0000

> <Gold.PLP.part.metal>
0.0000

> <Gold.PLP.part.buried>
2.0387

> <Gold.PLP.part.nonpolar>
-33.6707

> <Gold.PLP.part.repulsive>
0.2072

> <Gold.PLP.ligand.clash>
0.0000

> <Gold.PLP.ligand.torsion>
0.8141

> <Gold.PLP.Chemscore.Hbond>
2.9920

> <Gold.PLP.Chemscore.CHOScore>
0.0000

> <Gold.PLP.Chemscore.Metal>
0.0000

> <Gold.Chemscore.Hbonds>
donor molecule, donor type, donor heavy atom, donor atom, acceptor molecule, acceptor atom, score
      L1  H     3    23       P1  8028  1.00
      L1  H    10    32       P1  7948  1.00
      P1  H  7997  8010       L1    21  0.95

> <Gold.PLP.Chemscore.Internal.Correction>
0.0216

> <Gold.Rescore>
     Score         DG    S(hbond)    S(metal)    S(lipo)     H(rot)  DE(clash)    DE(int)     intcor
     11.12     -18.26       2.23        0.00      81.84       1.65       0.81       6.33       ----

> <Gold.Chemscore.Fitness>
11.1230

> <Gold.Chemscore.DG>
-18.2619

> <Gold.Chemscore.ZeroCoef>
-5.4800

> <Gold.Chemscore.Hbond>
2.2272

> <Gold.Chemscore.Metal>
0.0000

> <Gold.Chemscore.Lipo>
81.8432

> <Gold.Chemscore.Internal_Hbond>
0.0000

> <Gold.Chemscore.DEClash>
0.8113

> <Gold.Chemscore.DEInternal>
6.3277

> <Gold.Chemscore.Rot>
1.6534

> <Gold.Chemscore.Internal.Correction>
   9.000000E+99

> <Gold.Chemscore.Hbonds>
donor molecule, donor type, donor heavy atom, donor atom, acceptor molecule, acceptor atom, score
      L1  H     3    23       P1  8028  0.96
      L1  H    10    32       P1  7948  0.49
      P1  H  7997  8010       L1    21  0.21

> <Gold.Chemscore.Hbond.Weighted>
-7.4389

> <Gold.Chemscore.Metal.Weighted>
-0.0000

> <Gold.Chemscore.Lipo.Weighted>
-9.5757

> <Gold.Chemscore.Internal_Hbond.Weighted>
0.0000

> <Gold.Chemscore.DEClash.Weighted>
0.8113

> <Gold.Chemscore.DEInternal.Weighted>
6.3277

> <Gold.Chemscore.Rot.Weighted>
4.2326

> <Gold.Chemscore.Internal.Correction.Weighted>
   9.000000E+99

> <Gold.Protein.RotatedTorsions>
[ 6907 6896 6895 6894 ] final  144.74 input  -60.11 | X-H torsion
[ 7974 7965 7964 7962 ] final -103.00 input  175.53 | X-H torsion
[ 8008 7997 7996 7995 ] final   77.79 input   59.86 | X-H torsion
[ 10167 10162 10161 10158 ] final  140.08 input  -65.29 | X-H torsion
[ 10718 10713 10712 10709 ] final  115.26 input   66.30 | X-H torsion
[ 10763 10752 10751 10750 ] final -156.78 input  -60.55 | X-H torsion
[ 11005 11000 10999 10996 ] final  -41.94 input  -57.11 | X-H torsion

> <Gold.Protein.ActiveResidues>
 VAL166  LYS551  ARG553  GLY616  TRP617  ASP618  TYR619  PRO620  LYS621  CYS622 
 ASP623  PHE694  ASN695  SER759  ASP760  ASP761  ALA762  ILE779  LEU786  VAL792 
 PHE793  MET794  SER795  GLU796  ALA797  LYS798  CYS799  TRP800  GLU811  SER814 

> <Gold.Protein.RotatedAtoms>
  152.1898  133.4765  159.5001 H   0  0  0  0  0  0  0  0  0  0  0  0  # atno 6907 bound_to 6896
  150.6949  134.1727  159.4227 H   0  0  0  0  0  0  0  0  0  0  0  0  # atno 6908 bound_to 6896
  151.9641  135.0109  160.0600 H   0  0  0  0  0  0  0  0  0  0  0  0  # atno 6909 bound_to 6896
  145.2615  140.9271  143.3038 H   0  0  0  0  0  0  0  0  0  0  0  0  # atno 7974 bound_to 7965
  155.8465  140.3460  155.5665 H   0  0  0  0  0  0  0  0  0  0  0  0  # atno 8008 bound_to 7997
  155.8084  140.0895  157.1937 H   0  0  0  0  0  0  0  0  0  0  0  0  # atno 8009 bound_to 7997
  154.4006  140.1452  156.3345 H   0  0  0  0  0  0  0  0  0  0  0  0  # atno 8010 bound_to 7997
  139.5059  144.6256  151.5945 H   0  0  0  0  0  0  0  0  0  0  0  0  # atno 10167 bound_to 10162
  157.6233  131.1010  150.7303 H   0  0  0  0  0  0  0  0  0  0  0  0  # atno 10718 bound_to 10713
  154.7687  135.3138  154.8234 H   0  0  0  0  0  0  0  0  0  0  0  0  # atno 10763 bound_to 10752
  153.8976  135.6819  153.4761 H   0  0  0  0  0  0  0  0  0  0  0  0  # atno 10764 bound_to 10752
  153.1297  135.4786  154.9262 H   0  0  0  0  0  0  0  0  0  0  0  0  # atno 10765 bound_to 10752
  141.0281  133.6832  156.2526 H   0  0  0  0  0  0  0  0  0  0  0  0  # atno 11005 bound_to 11000
  144.9414  139.4185  143.6447 LP  0  0  0  0  0  0  0  0  0  0  0  0  # atno 17320 bound_to 7965
  146.3273  139.8375  142.8896 LP  0  0  0  0  0  0  0  0  0  0  0  0  # atno 17321 bound_to 7965
  140.5972  143.9675  150.6362 LP  0  0  0  0  0  0  0  0  0  0  0  0  # atno 17342 bound_to 10162
  140.2875  143.3347  152.1094 LP  0  0  0  0  0  0  0  0  0  0  0  0  # atno 17343 bound_to 10162
  156.7657  130.4812  149.5428 LP  0  0  0  0  0  0  0  0  0  0  0  0  # atno 17370 bound_to 10713
  156.1390  130.6231  151.0441 LP  0  0  0  0  0  0  0  0  0  0  0  0  # atno 17371 bound_to 10713
  140.6456  134.5121  157.5573 LP  0  0  0  0  0  0  0  0  0  0  0  0  # atno 17394 bound_to 11000
  139.9189  134.8189  156.1274 LP  0  0  0  0  0  0  0  0  0  0  0  0  # atno 17395 bound_to 11000

$$$$
