AV-unprocessed.smi:4|AV-procd|sdf|33|dock8
  -GOLD-   2262015143D 1   1.00000     0.00000
 Structure written by MMmdl.
 44 45  0  0  0  0  0  0  0  0  2 V2000
  151.6030  137.9113  156.8094 C   0  0  0  0  0  0  0  0  0  0  0  0
  151.3730  138.0449  155.2813 C   0  0  0  0  0  0  0  0  0  0  0  0
  152.7545  138.4278  154.6899 C   0  0  0  0  0  0  0  0  0  0  0  0
  150.9407  136.6342  154.8040 C   0  0  0  0  0  0  0  0  0  0  0  0
  150.3503  139.0589  154.9470 N   0  0  0  0  0  0  0  0  0  0  0  0
  149.1835  138.7836  154.2297 C   0  0  0  0  0  0  0  0  0  0  0  0
  148.2276  139.6986  153.9258 C   0  0  0  0  0  0  0  0  0  0  0  0
  146.9913  139.3262  153.1147 C   0  0  0  0  0  0  0  0  0  0  0  0
  146.8202  137.8608  153.0054 N   0  3  0  0  0  0  0  0  0  0  0  0
  145.9265  137.4027  151.9193 C   0  0  0  0  0  0  0  0  0  0  0  0
  145.5926  135.9134  152.0569 C   0  0  0  0  0  0  0  0  0  0  0  0
  146.7865  135.2710  152.4557 O   0  0  0  0  0  0  0  0  0  0  0  0
  144.3751  135.5597  152.9307 C   0  0  0  0  0  0  0  0  0  0  0  0
  143.5342  135.4350  151.6599 C   0  0  0  0  0  0  0  0  0  0  0  0
  144.8427  135.2331  150.8952 C   0  0  0  0  0  0  0  0  0  0  0  0
  148.4086  141.0901  154.3399 C   0  0  0  0  0  0  0  0  0  0  0  0
  147.6226  142.0097  154.1193 O   0  0  0  0  0  0  0  0  0  0  0  0
  149.5805  141.3405  155.0494 N   0  0  0  0  0  0  0  0  0  0  0  0
  150.5558  140.4014  155.3767 C   0  0  0  0  0  0  0  0  0  0  0  0
  151.5347  140.7843  156.0146 O   0  0  0  0  0  0  0  0  0  0  0  0
  149.7388  142.2897  155.3563 H   0  0  0  0  0  0  0  0  0  0  0  0
  152.3622  137.1600  157.0317 H   0  0  0  0  0  0  0  0  0  0  0  0
  150.6991  137.5979  157.3337 H   0  0  0  0  0  0  0  0  0  0  0  0
  151.9555  138.8435  157.2530 H   0  0  0  0  0  0  0  0  0  0  0  0
  153.0387  139.4404  154.9784 H   0  0  0  0  0  0  0  0  0  0  0  0
  152.7944  138.3718  153.6037 H   0  0  0  0  0  0  0  0  0  0  0  0
  153.5359  137.7580  155.0506 H   0  0  0  0  0  0  0  0  0  0  0  0
  151.6242  135.8682  155.1720 H   0  0  0  0  0  0  0  0  0  0  0  0
  150.9288  136.5253  153.7212 H   0  0  0  0  0  0  0  0  0  0  0  0
  149.9454  136.3817  155.1713 H   0  0  0  0  0  0  0  0  0  0  0  0
  148.9794  137.7872  153.8738 H   0  0  0  0  0  0  0  0  0  0  0  0
  146.0889  139.7838  153.5228 H   0  0  0  0  0  0  0  0  0  0  0  0
  147.1018  139.7256  152.1061 H   0  0  0  0  0  0  0  0  0  0  0  0
  147.7300  137.4536  152.8419 H   0  0  0  0  0  0  0  0  0  0  0  0
  145.0096  137.9929  151.9235 H   0  0  0  0  0  0  0  0  0  0  0  0
  146.4149  137.5966  150.9635 H   0  0  0  0  0  0  0  0  0  0  0  0
  147.4916  135.6663  151.9651 H   0  0  0  0  0  0  0  0  0  0  0  0
  144.4843  134.6097  153.4575 H   0  0  0  0  0  0  0  0  0  0  0  0
  144.0499  136.3519  153.6059 H   0  0  0  0  0  0  0  0  0  0  0  0
  142.8577  134.5802  151.6418 H   0  0  0  0  0  0  0  0  0  0  0  0
  143.0255  136.3631  151.3949 H   0  0  0  0  0  0  0  0  0  0  0  0
  144.8875  135.7618  149.9427 H   0  0  0  0  0  0  0  0  0  0  0  0
  145.1016  134.1794  150.7762 H   0  0  0  0  0  0  0  0  0  0  0  0
  146.4659  137.5049  153.8818 H   0  0  0  0  0  0  0  0  0  0  0  0
  1  2  1  0  0  0  0
  1 22  1  0  0  0  0
  1 23  1  0  0  0  0
  1 24  1  0  0  0  0
  2  3  1  0  0  0  0
  2  4  1  0  0  0  0
  2  5  1  0  0  0  0
  3 25  1  0  0  0  0
  3 26  1  0  0  0  0
  3 27  1  0  0  0  0
  4 28  1  0  0  0  0
  4 29  1  0  0  0  0
  4 30  1  0  0  0  0
  5 19  1  0  0  0  0
  5  6  1  0  0  0  0
  6  7  2  0  0  0  0
  6 31  1  0  0  0  0
  7  8  1  0  0  0  0
  7 16  1  0  0  0  0
  8  9  1  0  0  0  0
  8 32  1  0  0  0  0
  8 33  1  0  0  0  0
  9 10  1  0  0  0  0
  9 34  1  0  0  0  0
  9 44  1  0  0  0  0
 10 11  1  0  0  0  0
 10 35  1  0  0  0  0
 10 36  1  0  0  0  0
 11 15  1  0  0  0  0
 11 12  1  0  0  0  0
 11 13  1  0  0  0  0
 12 37  1  0  0  0  0
 13 14  1  0  0  0  0
 13 38  1  0  0  0  0
 13 39  1  0  0  0  0
 14 15  1  0  0  0  0
 14 40  1  0  0  0  0
 14 41  1  0  0  0  0
 15 42  1  0  0  0  0
 15 43  1  0  0  0  0
 16 17  2  0  0  0  0
 16 18  1  0  0  0  0
 18 21  1  0  0  0  0
 18 19  1  0  0  0  0
 19 20  2  0  0  0  0
M  CHG  1   9   1
M  END
> <s_m_source_file>
AV-unprocessed.smi

> <i_m_source_file_index>
4

> <i_lp_mmshare_version>
43012

> <i_f3d_flags>
0

> <s_epik_input>
W0NIM11DKFtDSDNdKShbQ0gzXSluMVtjSF1jKGMoPU8pW25IXWMxPU8pW0NIMl1bTkhdW0NIMl1DMihbT0hdKVtDSDJdW0NIMl1bQ0gyXTI=

> <s_epik_cmdline>
J2VwaWtfcHl0aG9uJywgJy1waCcsICc3LjAnLCAnLXRuJywgJzgnLCAnLW1hJywgJzIwMCcsICctbWV0YWxfYmluZGluZycsICctaW1hZScsICc8aW5maWxlLm1hZT4nLCAnLW9tYWUnLCAnPG91dGZpbGUubWFlPic=

> <r_lp_tautomer_probability>
0.999537

> <r_epik_Ionization_Penalty>
0.0188443

> <r_epik_Ionization_Penalty_Charging>
0.0188443

> <r_epik_Ionization_Penalty_Neutral>
1.97485e-08

> <r_epik_State_Penalty>
0.0134361

> <r_epik_Charging_Adjusted_Penalty>
0.0322804

> <i_epik_Tot_Q>
1

> <i_epik_Tot_abs_Q>
1

> <r_epik_Metal_State_Penalty>
0.855907

> <b_epik_Metal_Only>
0

> <s_lp_Force_Field>
OPLS_2005

> <r_lp_Energy>
23.9463

> <b_lp_Chiralities_Consistent>
1

> <s_lp_Variant>
AV-unprocessed.smi:4-1

> <Gold.Version>
5.8.1

> <Gold.Id.Protein>
6NUR|6NUR_protein|mol2

> <Gold.PLP.Fitness>
44.8071

> <Gold.PLP.PLP>
-33.7282

> <Gold.PLP.part.hbond>
-2.0954

> <Gold.PLP.part.metal>
0.0000

> <Gold.PLP.part.buried>
-1.8496

> <Gold.PLP.part.nonpolar>
-30.5033

> <Gold.PLP.part.repulsive>
0.3801

> <Gold.PLP.ligand.clash>
0.0000

> <Gold.PLP.ligand.torsion>
0.5369

> <Gold.PLP.Chemscore.Hbond>
3.0000

> <Gold.PLP.Chemscore.CHOScore>
1.0000

> <Gold.PLP.Chemscore.Metal>
0.0000

> <Gold.Chemscore.Hbonds>
donor molecule, donor type, donor heavy atom, donor atom, acceptor molecule, acceptor atom, score
      L1  H     9    34       P1  7948  2.00
      L1  H    12    37       P1  7948  1.00
      L1  C     6    31       P1  7948  1.00

> <Gold.PLP.Chemscore.Internal.Correction>
0.1527

> <Gold.Rescore>
     Score         DG    S(hbond)    S(metal)    S(lipo)     H(rot)  DE(clash)    DE(int)     intcor
     11.68     -13.84       1.98        0.00      70.34       2.53       0.05       2.11       ----

> <Gold.Chemscore.Fitness>
11.6793

> <Gold.Chemscore.DG>
-13.8367

> <Gold.Chemscore.ZeroCoef>
-5.4800

> <Gold.Chemscore.Hbond>
1.9773

> <Gold.Chemscore.Metal>
0.0000

> <Gold.Chemscore.Lipo>
70.3367

> <Gold.Chemscore.Internal_Hbond>
0.0000

> <Gold.Chemscore.DEClash>
0.0495

> <Gold.Chemscore.DEInternal>
2.1078

> <Gold.Chemscore.Rot>
2.5300

> <Gold.Chemscore.Internal.Correction>
   9.000000E+99

> <Gold.Chemscore.Hbonds>
donor molecule, donor type, donor heavy atom, donor atom, acceptor molecule, acceptor atom, score
      L1  H     9    34       P1  7948  0.94
      L1  H    12    37       P1  7948  0.92

> <Gold.Chemscore.Hbond.Weighted>
-6.6040

> <Gold.Chemscore.Metal.Weighted>
-0.0000

> <Gold.Chemscore.Lipo.Weighted>
-8.2294

> <Gold.Chemscore.Internal_Hbond.Weighted>
0.0000

> <Gold.Chemscore.DEClash.Weighted>
0.0495

> <Gold.Chemscore.DEInternal.Weighted>
2.1078

> <Gold.Chemscore.Rot.Weighted>
6.4768

> <Gold.Chemscore.Internal.Correction.Weighted>
   9.000000E+99

> <Gold.Protein.RotatedTorsions>
[ 6907 6896 6895 6894 ] final  116.50 input  -60.11 | X-H torsion
[ 7974 7965 7964 7962 ] final   16.10 input  175.53 | X-H torsion
[ 8008 7997 7996 7995 ] final  -58.23 input   59.86 | X-H torsion
[ 10167 10162 10161 10158 ] final   70.83 input  -65.29 | X-H torsion
[ 10718 10713 10712 10709 ] final   64.32 input   66.30 | X-H torsion
[ 10763 10752 10751 10750 ] final  101.32 input  -60.55 | X-H torsion
[ 11005 11000 10999 10996 ] final -109.25 input  -57.11 | X-H torsion

> <Gold.Protein.ActiveResidues>
 VAL166  LYS551  ARG553  GLY616  TRP617  ASP618  TYR619  PRO620  LYS621  CYS622 
 ASP623  PHE694  ASN695  SER759  ASP760  ASP761  ALA762  ILE779  LEU786  VAL792 
 PHE793  MET794  SER795  GLU796  ALA797  LYS798  CYS799  TRP800  GLU811  SER814 

> <Gold.Protein.RotatedAtoms>
  152.4674  133.7953  159.6923 H   0  0  0  0  0  0  0  0  0  0  0  0  # atno 6907 bound_to 6896
  150.8645  133.7585  159.2987 H   0  0  0  0  0  0  0  0  0  0  0  0  # atno 6908 bound_to 6896
  151.5140  135.1069  159.9913 H   0  0  0  0  0  0  0  0  0  0  0  0  # atno 6909 bound_to 6896
  146.2259  139.8797  142.8573 H   0  0  0  0  0  0  0  0  0  0  0  0  # atno 7974 bound_to 7965
  154.4300  140.1089  156.5924 H   0  0  0  0  0  0  0  0  0  0  0  0  # atno 8008 bound_to 7997
  155.5997  140.3493  155.4571 H   0  0  0  0  0  0  0  0  0  0  0  0  # atno 8009 bound_to 7997
  156.0183  140.1234  157.0373 H   0  0  0  0  0  0  0  0  0  0  0  0  # atno 8010 bound_to 7997
  140.0527  144.5298  150.7351 H   0  0  0  0  0  0  0  0  0  0  0  0  # atno 10167 bound_to 10162
  157.6032  130.9154  149.9831 H   0  0  0  0  0  0  0  0  0  0  0  0  # atno 10718 bound_to 10713
  153.3252  135.4048  155.1450 H   0  0  0  0  0  0  0  0  0  0  0  0  # atno 10763 bound_to 10752
  154.8610  135.3597  154.5544 H   0  0  0  0  0  0  0  0  0  0  0  0  # atno 10764 bound_to 10752
  153.5979  135.7072  153.5455 H   0  0  0  0  0  0  0  0  0  0  0  0  # atno 10765 bound_to 10752
  141.0858  133.9141  157.2189 H   0  0  0  0  0  0  0  0  0  0  0  0  # atno 11005 bound_to 11000
  145.2525  141.0049  143.3873 LP  0  0  0  0  0  0  0  0  0  0  0  0  # atno 17320 bound_to 7965
  144.9363  139.4240  143.6470 LP  0  0  0  0  0  0  0  0  0  0  0  0  # atno 17321 bound_to 7965
  140.7209  143.2588  151.4281 LP  0  0  0  0  0  0  0  0  0  0  0  0  # atno 17342 bound_to 10162
  139.5943  144.1432  152.2125 LP  0  0  0  0  0  0  0  0  0  0  0  0  # atno 17343 bound_to 10162
  156.1110  130.3650  150.0049 LP  0  0  0  0  0  0  0  0  0  0  0  0  # atno 17370 bound_to 10713
  156.8147  130.9337  151.3643 LP  0  0  0  0  0  0  0  0  0  0  0  0  # atno 17371 bound_to 10713
  139.9676  135.0137  156.9428 LP  0  0  0  0  0  0  0  0  0  0  0  0  # atno 17394 bound_to 11000
  140.5366  134.0761  155.7330 LP  0  0  0  0  0  0  0  0  0  0  0  0  # atno 17395 bound_to 11000

$$$$
