AV-unprocessed.smi:729|AV-procd|sdf|3521|dock3
  -GOLD-   22720 0513D 1   1.00000     0.00000
 Structure written by MMmdl.
 21 21  0  0  0  0  0  0  0  0  2 V2000
  151.0317  141.7055  156.0971 C   0  0  0  0  0  0  0  0  0  0  0  0
  150.0472  140.8562  155.3038 C   0  0  0  0  0  0  0  0  0  0  0  0
  148.9305  141.4290  154.7974 C   0  0  0  0  0  0  0  0  0  0  0  0
  147.9561  140.6358  154.0284 C   0  0  0  0  0  0  0  0  0  0  0  0
  146.9366  141.1343  153.5551 O   0  0  0  0  0  0  0  0  0  0  0  0
  148.2788  139.2120  153.8605 C   0  0  0  0  0  0  0  0  0  0  0  0
  149.4158  138.7304  154.3986 C   0  0  0  0  0  0  0  0  0  0  0  0
  149.7539  137.4384  154.2707 O   0  0  0  0  0  0  0  0  0  0  0  0
  150.3514  139.4880  155.1300 N   0  0  0  0  0  0  0  0  0  0  0  0
  151.5578  138.8780  155.7143 C   0  0  0  0  0  0  0  0  0  0  0  0
  152.6158  138.4340  154.6988 C   0  0  0  0  0  0  0  0  0  0  0  0
  152.3485  137.4313  154.0010 O   0  0  0  0  0  0  0  0  0  0  0  0
  153.6762  139.0947  154.6419 O   0  5  0  0  0  0  0  0  0  0  0  0
  150.6241  142.6977  156.2930 H   0  0  0  0  0  0  0  0  0  0  0  0
  151.9606  141.8357  155.5418 H   0  0  0  0  0  0  0  0  0  0  0  0
  151.2570  141.2589  157.0649 H   0  0  0  0  0  0  0  0  0  0  0  0
  148.7249  142.4791  154.9457 H   0  0  0  0  0  0  0  0  0  0  0  0
  147.5975  138.5812  153.3085 H   0  0  0  0  0  0  0  0  0  0  0  0
  152.0323  139.5619  156.4177 H   0  0  0  0  0  0  0  0  0  0  0  0
  151.2855  138.0243  156.3335 H   0  0  0  0  0  0  0  0  0  0  0  0
  149.4414  137.1441  153.4292 H   0  0  0  0  0  0  0  0  0  0  0  0
  1  2  1  0  0  0  0
  1 14  1  0  0  0  0
  1 15  1  0  0  0  0
  1 16  1  0  0  0  0
  2  9  1  0  0  0  0
  2  3  2  0  0  0  0
  3  4  1  0  0  0  0
  3 17  1  0  0  0  0
  4  5  2  0  0  0  0
  4  6  1  0  0  0  0
  6  7  2  0  0  0  0
  6 18  1  0  0  0  0
  7  8  1  0  0  0  0
  7  9  1  0  0  0  0
  8 21  1  0  0  0  0
  9 10  1  0  0  0  0
 10 11  1  0  0  0  0
 10 19  1  0  0  0  0
 10 20  1  0  0  0  0
 11 12  2  0  0  0  0
 11 13  1  0  0  0  0
M  CHG  1  13  -1
M  END
> <s_m_source_file>
AV-unprocessed.smi

> <i_m_source_file_index>
729

> <i_lp_mmshare_version>
43012

> <i_f3d_flags>
0

> <s_epik_input>
W0NIM11jMVtjSF1jKFtPSF0pW2NIXWMoPU8pbjFbQ0gyXUMoPU8pW09IXQ==

> <s_epik_cmdline>
J2VwaWtfcHl0aG9uJywgJy1waCcsICc3LjAnLCAnLXRuJywgJzgnLCAnLW1hJywgJzIwMCcsICctbWV0YWxfYmluZGluZycsICctaW1hZScsICc8aW5maWxlLm1hZT4nLCAnLW9tYWUnLCAnPG91dGZpbGUubWFlPic=

> <r_epik_Ionization_Penalty>
0.00133656

> <r_epik_Ionization_Penalty_Charging>
0.00133656

> <r_epik_Ionization_Penalty_Neutral>
0

> <r_epik_State_Penalty>
1.59842

> <r_epik_Charging_Adjusted_Penalty>
1.59975

> <i_epik_Tot_Q>
-1

> <i_epik_Tot_abs_Q>
1

> <r_epik_Metal_State_Penalty>
1.59842

> <b_epik_Metal_Only>
0

> <s_lp_Force_Field>
OPLS_2005

> <r_lp_Energy>
2.46832

> <b_lp_Chiralities_Consistent>
1

> <s_lp_Variant>
AV-unprocessed.smi:729-3

> <Gold.Version>
5.8.1

> <Gold.Id.Protein>
6NUR|6NUR_protein|mol2

> <Gold.PLP.Fitness>
39.3701

> <Gold.PLP.PLP>
-26.3362

> <Gold.PLP.part.hbond>
-3.0000

> <Gold.PLP.part.metal>
0.0000

> <Gold.PLP.part.buried>
-3.5864

> <Gold.PLP.part.nonpolar>
-20.7750

> <Gold.PLP.part.repulsive>
0.3442

> <Gold.PLP.ligand.clash>
0.0000

> <Gold.PLP.ligand.torsion>
0.1921

> <Gold.PLP.Chemscore.Hbond>
4.4720

> <Gold.PLP.Chemscore.CHOScore>
0.0000

> <Gold.PLP.Chemscore.Metal>
0.0000

> <Gold.Chemscore.Hbonds>
donor molecule, donor type, donor heavy atom, donor atom, acceptor molecule, acceptor atom, score
      L1  H     8    21       P1  7948  1.00
      P1  H  7997  8008       L1    13  2.00
      P1  H 10752 10765       L1    12  1.54

> <Gold.PLP.Chemscore.Internal.Correction>
0.0022

> <Gold.Rescore>
     Score         DG    S(hbond)    S(metal)    S(lipo)     H(rot)  DE(clash)    DE(int)     intcor
     10.73     -12.59       2.59        0.00      34.86       2.20       0.08       1.77       ----

> <Gold.Chemscore.Fitness>
10.7284

> <Gold.Chemscore.DG>
-12.5874

> <Gold.Chemscore.ZeroCoef>
-5.4800

> <Gold.Chemscore.Hbond>
2.5935

> <Gold.Chemscore.Metal>
0.0000

> <Gold.Chemscore.Lipo>
34.8596

> <Gold.Chemscore.Internal_Hbond>
0.0000

> <Gold.Chemscore.DEClash>
0.0847

> <Gold.Chemscore.DEInternal>
1.7742

> <Gold.Chemscore.Rot>
2.2006

> <Gold.Chemscore.Internal.Correction>
   9.000000E+99

> <Gold.Chemscore.Hbonds>
donor molecule, donor type, donor heavy atom, donor atom, acceptor molecule, acceptor atom, score
      L1  H     8    21       P1  7948  0.93
      P1  H  7997  8008       L1    13  0.99
      P1  H 10752 10765       L1    12  0.76

> <Gold.Chemscore.Hbond.Weighted>
-8.6623

> <Gold.Chemscore.Metal.Weighted>
-0.0000

> <Gold.Chemscore.Lipo.Weighted>
-4.0786

> <Gold.Chemscore.Internal_Hbond.Weighted>
0.0000

> <Gold.Chemscore.DEClash.Weighted>
0.0847

> <Gold.Chemscore.DEInternal.Weighted>
1.7742

> <Gold.Chemscore.Rot.Weighted>
5.6335

> <Gold.Chemscore.Internal.Correction.Weighted>
   9.000000E+99

> <Gold.Protein.RotatedTorsions>
[ 6907 6896 6895 6894 ] final -147.61 input  -60.11 | X-H torsion
[ 7974 7965 7964 7962 ] final -143.56 input  175.53 | X-H torsion
[ 8008 7997 7996 7995 ] final   -2.23 input   59.86 | X-H torsion
[ 10167 10162 10161 10158 ] final -174.79 input  -65.29 | X-H torsion
[ 10718 10713 10712 10709 ] final  134.04 input   66.30 | X-H torsion
[ 10763 10752 10751 10750 ] final  135.39 input  -60.55 | X-H torsion
[ 11005 11000 10999 10996 ] final  156.85 input  -57.11 | X-H torsion

> <Gold.Protein.ActiveResidues>
 VAL166  LYS551  ARG553  GLY616  TRP617  ASP618  TYR619  PRO620  LYS621  CYS622 
 ASP623  PHE694  ASN695  SER759  ASP760  ASP761  ALA762  ILE779  LEU786  VAL792 
 PHE793  MET794  SER795  GLU796  ALA797  LYS798  CYS799  TRP800  GLU811  SER814 

> <Gold.Protein.RotatedAtoms>
  151.1582  133.4863  159.2594 H   0  0  0  0  0  0  0  0  0  0  0  0  # atno 6907 bound_to 6896
  151.1482  135.0214  159.8666 H   0  0  0  0  0  0  0  0  0  0  0  0  # atno 6908 bound_to 6896
  152.5463  134.1468  159.8555 H   0  0  0  0  0  0  0  0  0  0  0  0  # atno 6909 bound_to 6896
  144.8361  140.5820  143.5483 H   0  0  0  0  0  0  0  0  0  0  0  0  # atno 7974 bound_to 7965
  154.6380  140.2539  155.7355 H   0  0  0  0  0  0  0  0  0  0  0  0  # atno 8008 bound_to 7997
  156.2514  140.2893  156.0681 H   0  0  0  0  0  0  0  0  0  0  0  0  # atno 8009 bound_to 7997
  155.1641  140.0385  157.2839 H   0  0  0  0  0  0  0  0  0  0  0  0  # atno 8010 bound_to 7997
  139.5615  144.1859  152.1246 H   0  0  0  0  0  0  0  0  0  0  0  0  # atno 10167 bound_to 10162
  157.4713  131.1080  150.9800 H   0  0  0  0  0  0  0  0  0  0  0  0  # atno 10718 bound_to 10713
  153.8392  135.3093  155.3425 H   0  0  0  0  0  0  0  0  0  0  0  0  # atno 10763 bound_to 10752
  154.7940  135.4766  154.0120 H   0  0  0  0  0  0  0  0  0  0  0  0  # atno 10764 bound_to 10752
  153.1586  135.6857  153.8867 H   0  0  0  0  0  0  0  0  0  0  0  0  # atno 10765 bound_to 10752
  140.1713  134.8541  157.2694 H   0  0  0  0  0  0  0  0  0  0  0  0  # atno 11005 bound_to 11000
  145.4792  139.1497  143.3771 LP  0  0  0  0  0  0  0  0  0  0  0  0  # atno 17320 bound_to 7965
  146.2659  140.4928  142.8834 LP  0  0  0  0  0  0  0  0  0  0  0  0  # atno 17321 bound_to 7965
  140.1373  144.5234  150.6765 LP  0  0  0  0  0  0  0  0  0  0  0  0  # atno 17342 bound_to 10162
  140.6895  143.2368  151.5170 LP  0  0  0  0  0  0  0  0  0  0  0  0  # atno 17343 bound_to 10162
  157.0564  130.5807  149.5378 LP  0  0  0  0  0  0  0  0  0  0  0  0  # atno 17370 bound_to 10713
  156.0074  130.5163  150.7877 LP  0  0  0  0  0  0  0  0  0  0  0  0  # atno 17371 bound_to 10713
  140.2374  134.3837  155.7495 LP  0  0  0  0  0  0  0  0  0  0  0  0  # atno 17394 bound_to 11000
  141.2217  133.7247  156.8735 LP  0  0  0  0  0  0  0  0  0  0  0  0  # atno 17395 bound_to 11000

$$$$
