AV-unprocessed.smi:772|AV-procd|sdf|3687|dock2
  -GOLD-   22720 1103D 1   1.00000     0.00000
 Structure written by MMmdl.
 47 48  0  0  0  0  0  0  0  0  2 V2000
  143.8217  132.5611  149.9796 C   0  0  0  0  0  0  0  0  0  0  0  0
  144.2647  133.7926  150.7401 C   0  0  0  0  0  0  0  0  0  0  0  0
  143.7455  134.1225  152.0101 C   0  0  0  0  0  0  0  0  0  0  0  0
  144.1963  135.2926  152.6551 C   0  0  0  0  0  0  0  0  0  0  0  0
  145.1555  136.1096  152.0180 C   0  0  0  0  0  0  0  0  0  0  0  0
  145.6280  137.3953  152.6735 C   0  0  0  0  0  0  0  0  0  0  0  0
  146.4452  137.1661  153.9600 C   0  0  0  0  0  0  0  0  0  0  0  0
  147.7370  137.8482  153.9295 N   0  0  0  0  0  0  0  0  0  0  0  0
  148.0966  138.8923  154.6973 C   0  0  0  0  0  0  0  0  0  0  0  0
  147.3335  139.3893  155.5270 O   0  0  0  0  0  0  0  0  0  0  0  0
  149.3381  139.3797  154.4470 N   0  0  0  0  0  0  0  0  0  0  0  0
  150.4347  138.6513  153.7895 C   0  0  0  0  0  0  0  0  0  0  0  0
  151.3484  138.0483  154.8671 C   0  0  0  0  0  0  0  0  0  0  0  0
  152.1136  139.3552  155.8751 S   0  0  0  0  0  0  0  0  0  0  0  0
  150.6358  140.3411  156.3074 C   0  0  1  0  0  0  0  0  0  0  0  0
  150.9944  141.6178  157.1093 C   0  0  0  0  0  0  0  0  0  0  0  0
  152.0527  141.3912  158.2054 C   0  0  0  0  0  0  0  0  0  0  0  0
  149.7451  142.3038  157.6876 C   0  0  0  0  0  0  0  0  0  0  0  0
  149.8031  140.6397  155.0402 C   0  0  0  0  0  0  0  0  0  0  0  0
  145.6450  135.7249  150.7510 C   0  0  0  0  0  0  0  0  0  0  0  0
  145.1866  134.5973  150.1656 N   0  3  0  0  0  0  0  0  0  0  0  0
  143.1862  131.9255  150.5970 H   0  0  0  0  0  0  0  0  0  0  0  0
  144.6854  131.9745  149.6654 H   0  0  0  0  0  0  0  0  0  0  0  0
  143.2577  132.8484  149.0918 H   0  0  0  0  0  0  0  0  0  0  0  0
  143.0061  133.4931  152.4838 H   0  0  0  0  0  0  0  0  0  0  0  0
  143.7999  135.5657  153.6223 H   0  0  0  0  0  0  0  0  0  0  0  0
  146.2300  137.9510  151.9536 H   0  0  0  0  0  0  0  0  0  0  0  0
  144.7643  138.0245  152.8937 H   0  0  0  0  0  0  0  0  0  0  0  0
  145.8693  137.4720  154.8349 H   0  0  0  0  0  0  0  0  0  0  0  0
  146.6344  136.0995  154.0825 H   0  0  0  0  0  0  0  0  0  0  0  0
  148.4148  137.5010  153.2666 H   0  0  0  0  0  0  0  0  0  0  0  0
  150.0878  137.8679  153.1156 H   0  0  0  0  0  0  0  0  0  0  0  0
  151.0059  139.3315  153.1561 H   0  0  0  0  0  0  0  0  0  0  0  0
  150.7833  137.3797  155.5173 H   0  0  0  0  0  0  0  0  0  0  0  0
  152.1391  137.4552  154.4076 H   0  0  0  0  0  0  0  0  0  0  0  0
  150.0256  139.7116  156.9569 H   0  0  0  0  0  0  0  0  0  0  0  0
  151.4255  142.3249  156.3996 H   0  0  0  0  0  0  0  0  0  0  0  0
  151.7008  140.7024  158.9733 H   0  0  0  0  0  0  0  0  0  0  0  0
  152.3026  142.3293  158.7017 H   0  0  0  0  0  0  0  0  0  0  0  0
  152.9796  140.9911  157.7961 H   0  0  0  0  0  0  0  0  0  0  0  0
  149.2578  141.6863  158.4423 H   0  0  0  0  0  0  0  0  0  0  0  0
  149.0140  142.5153  156.9069 H   0  0  0  0  0  0  0  0  0  0  0  0
  150.0032  143.2531  158.1579 H   0  0  0  0  0  0  0  0  0  0  0  0
  150.3967  141.1888  154.3090 H   0  0  0  0  0  0  0  0  0  0  0  0
  148.9677  141.2980  155.2833 H   0  0  0  0  0  0  0  0  0  0  0  0
  146.3719  136.2883  150.1844 H   0  0  0  0  0  0  0  0  0  0  0  0
  145.5493  134.3435  149.2463 H   0  0  0  0  0  0  0  0  0  0  0  0
  1  2  1  0  0  0  0
  1 22  1  0  0  0  0
  1 23  1  0  0  0  0
  1 24  1  0  0  0  0
  2 21  1  0  0  0  0
  2  3  2  0  0  0  0
  3  4  1  0  0  0  0
  3 25  1  0  0  0  0
  4  5  2  0  0  0  0
  4 26  1  0  0  0  0
  5  6  1  0  0  0  0
  5 20  1  0  0  0  0
  6  7  1  0  0  0  0
  6 27  1  0  0  0  0
  6 28  1  0  0  0  0
  7  8  1  0  0  0  0
  7 29  1  0  0  0  0
  7 30  1  0  0  0  0
  8  9  1  0  0  0  0
  8 31  1  0  0  0  0
  9 10  2  0  0  0  0
  9 11  1  0  0  0  0
 11 19  1  0  0  0  0
 11 12  1  0  0  0  0
 12 13  1  0  0  0  0
 12 32  1  0  0  0  0
 12 33  1  0  0  0  0
 13 14  1  0  0  0  0
 13 34  1  0  0  0  0
 13 35  1  0  0  0  0
 14 15  1  0  0  0  0
 15 16  1  0  0  0  0
 15 19  1  0  0  0  0
 15 36  1  0  0  0  0
 16 17  1  0  0  0  0
 16 18  1  0  0  0  0
 16 37  1  0  0  0  0
 17 38  1  0  0  0  0
 17 39  1  0  0  0  0
 17 40  1  0  0  0  0
 18 41  1  0  0  0  0
 18 42  1  0  0  0  0
 18 43  1  0  0  0  0
 19 44  1  0  0  0  0
 19 45  1  0  0  0  0
 20 21  2  0  0  0  0
 20 46  1  0  0  0  0
 21 47  1  0  0  0  0
M  CHG  1  21   1
M  END
> <s_m_source_file>
AV-unprocessed.smi

> <i_m_source_file_index>
772

> <i_lp_mmshare_version>
43012

> <i_f3d_flags>
0

> <s_epik_input>
W0NIM11jMVtjSF1bY0hdYyhbY0hdbjEpW0NIMl1bQ0gyXVtOSF1DKD1PKU4yW0NIMl1bQ0gyXVNbQ0BIXShbQ0gyXTIpW0NIXShbQ0gzXSlbQ0gzXQ==

> <s_epik_cmdline>
J2VwaWtfcHl0aG9uJywgJy1waCcsICc3LjAnLCAnLXRuJywgJzgnLCAnLW1hJywgJzIwMCcsICctbWV0YWxfYmluZGluZycsICctaW1hZScsICc8aW5maWxlLm1hZT4nLCAnLW9tYWUnLCAnPG91dGZpbGUubWFlPic=

> <r_epik_Ionization_Penalty>
1.41908

> <r_epik_Ionization_Penalty_Charging>
1.41903

> <r_epik_Ionization_Penalty_Neutral>
4.72921e-05

> <r_epik_State_Penalty>
1.50265

> <r_epik_Charging_Adjusted_Penalty>
2.92168

> <i_epik_Tot_Q>
1

> <i_epik_Tot_abs_Q>
1

> <r_epik_Metal_State_Penalty>
1.55496

> <b_epik_Metal_Only>
0

> <s_lp_Force_Field>
OPLS_2005

> <r_lp_Energy>
32.521

> <b_lp_Chiralities_Consistent>
1

> <s_lp_Variant>
AV-unprocessed.smi:772-3

> <Gold.Version>
5.8.1

> <Gold.Id.Protein>
6NUR|6NUR_protein|mol2

> <Gold.PLP.Fitness>
43.4959

> <Gold.PLP.PLP>
-38.7675

> <Gold.PLP.part.hbond>
-2.0000

> <Gold.PLP.part.metal>
0.0000

> <Gold.PLP.part.buried>
-4.8479

> <Gold.PLP.part.nonpolar>
-32.1302

> <Gold.PLP.part.repulsive>
0.0674

> <Gold.PLP.ligand.clash>
0.0000

> <Gold.PLP.ligand.torsion>
0.6842

> <Gold.PLP.Chemscore.Hbond>
2.0000

> <Gold.PLP.Chemscore.CHOScore>
0.0000

> <Gold.PLP.Chemscore.Metal>
0.0000

> <Gold.Chemscore.Hbonds>
donor molecule, donor type, donor heavy atom, donor atom, acceptor molecule, acceptor atom, score
      L1  H     8    31       P1  7948  1.00
      L1  H    21    47       P1  7921  1.00

> <Gold.PLP.Chemscore.Internal.Correction>
0.0967

> <Gold.Rescore>
     Score         DG    S(hbond)    S(metal)    S(lipo)     H(rot)  DE(clash)    DE(int)     intcor
     19.57     -20.26       1.98        0.00     100.47       1.39       0.04       0.66       ----

> <Gold.Chemscore.Fitness>
19.5652

> <Gold.Chemscore.DG>
-20.2650

> <Gold.Chemscore.ZeroCoef>
-5.4800

> <Gold.Chemscore.Hbond>
1.9762

> <Gold.Chemscore.Metal>
0.0000

> <Gold.Chemscore.Lipo>
100.4737

> <Gold.Chemscore.Internal_Hbond>
0.0000

> <Gold.Chemscore.DEClash>
0.0419

> <Gold.Chemscore.DEInternal>
0.6578

> <Gold.Chemscore.Rot>
1.3949

> <Gold.Chemscore.Internal.Correction>
   9.000000E+99

> <Gold.Chemscore.Hbonds>
donor molecule, donor type, donor heavy atom, donor atom, acceptor molecule, acceptor atom, score
      L1  H     8    31       P1  7948  0.95
      L1  H    21    47       P1  7921  0.86

> <Gold.Chemscore.Hbond.Weighted>
-6.6005

> <Gold.Chemscore.Metal.Weighted>
-0.0000

> <Gold.Chemscore.Lipo.Weighted>
-11.7554

> <Gold.Chemscore.Internal_Hbond.Weighted>
0.0000

> <Gold.Chemscore.DEClash.Weighted>
0.0419

> <Gold.Chemscore.DEInternal.Weighted>
0.6578

> <Gold.Chemscore.Rot.Weighted>
3.5709

> <Gold.Chemscore.Internal.Correction.Weighted>
   9.000000E+99

> <Gold.Protein.RotatedTorsions>
[ 6907 6896 6895 6894 ] final   58.00 input  -60.11 | X-H torsion
[ 7974 7965 7964 7962 ] final   63.87 input  175.53 | X-H torsion
[ 8008 7997 7996 7995 ] final   -0.04 input   59.86 | X-H torsion
[ 10167 10162 10161 10158 ] final  146.85 input  -65.29 | X-H torsion
[ 10718 10713 10712 10709 ] final  -12.38 input   66.30 | X-H torsion
[ 10763 10752 10751 10750 ] final  -21.82 input  -60.55 | X-H torsion
[ 11005 11000 10999 10996 ] final -139.49 input  -57.11 | X-H torsion

> <Gold.Protein.ActiveResidues>
 VAL166  LYS551  ARG553  GLY616  TRP617  ASP618  TYR619  PRO620  LYS621  CYS622 
 ASP623  PHE694  ASN695  SER759  ASP760  ASP761  ALA762  ILE779  LEU786  VAL792 
 PHE793  MET794  SER795  GLU796  ALA797  LYS798  CYS799  TRP800  GLU811  SER814 

> <Gold.Protein.RotatedAtoms>
  152.3783  134.6629  160.0151 H   0  0  0  0  0  0  0  0  0  0  0  0  # atno 6907 bound_to 6896
  151.6900  133.3305  159.3248 H   0  0  0  0  0  0  0  0  0  0  0  0  # atno 6908 bound_to 6896
  150.7727  134.6642  159.6401 H   0  0  0  0  0  0  0  0  0  0  0  0  # atno 6909 bound_to 6896
  145.8568  139.3289  143.0842 H   0  0  0  0  0  0  0  0  0  0  0  0  # atno 7974 bound_to 7965
  154.6626  140.2594  155.7092 H   0  0  0  0  0  0  0  0  0  0  0  0  # atno 8008 bound_to 7997
  156.2625  140.2845  156.1026 H   0  0  0  0  0  0  0  0  0  0  0  0  # atno 8009 bound_to 7997
  155.1285  140.0378  157.2759 H   0  0  0  0  0  0  0  0  0  0  0  0  # atno 8010 bound_to 7997
  139.4900  144.5799  151.6892 H   0  0  0  0  0  0  0  0  0  0  0  0  # atno 10167 bound_to 10162
  156.6455  130.4940  149.6080 H   0  0  0  0  0  0  0  0  0  0  0  0  # atno 10718 bound_to 10713
  153.6421  135.6984  153.5238 H   0  0  0  0  0  0  0  0  0  0  0  0  # atno 10763 bound_to 10752
  153.2774  135.4196  155.1045 H   0  0  0  0  0  0  0  0  0  0  0  0  # atno 10764 bound_to 10752
  154.8497  135.3593  154.5965 H   0  0  0  0  0  0  0  0  0  0  0  0  # atno 10765 bound_to 10752
  140.8515  134.2280  157.4758 H   0  0  0  0  0  0  0  0  0  0  0  0  # atno 11005 bound_to 11000
  145.9294  140.9059  143.0364 LP  0  0  0  0  0  0  0  0  0  0  0  0  # atno 17320 bound_to 7965
  144.6727  140.1397  143.7438 LP  0  0  0  0  0  0  0  0  0  0  0  0  # atno 17321 bound_to 7965
  140.5403  144.0590  150.6086 LP  0  0  0  0  0  0  0  0  0  0  0  0  # atno 17342 bound_to 10162
  140.3610  143.2908  152.0384 LP  0  0  0  0  0  0  0  0  0  0  0  0  # atno 17343 bound_to 10162
  156.2125  130.6688  151.1285 LP  0  0  0  0  0  0  0  0  0  0  0  0  # atno 17370 bound_to 10713
  157.7157  131.0710  150.6333 LP  0  0  0  0  0  0  0  0  0  0  0  0  # atno 17371 bound_to 10713
  139.8704  134.9685  156.4634 LP  0  0  0  0  0  0  0  0  0  0  0  0  # atno 17394 bound_to 11000
  140.8785  133.7935  155.9441 LP  0  0  0  0  0  0  0  0  0  0  0  0  # atno 17395 bound_to 11000

$$$$
