AV-unprocessed.smi:1983|AV-procd|sdf|8030|dock6
  -GOLD-   2272010223D 1   1.00000     0.00000
 Structure written by MMmdl.
 49 50  0  0  0  0  0  0  0  0  1 V2000
  150.7015  135.1338  156.3223 C   0  0  0  0  0  0  0  0  0  0  0  0
  149.4408  134.7821  155.5110 C   0  0  2  0  0  0  0  0  0  0  0  0
  149.5644  133.4624  154.7271 C   0  0  0  0  0  0  0  0  0  0  0  0
  148.4035  133.2012  153.9644 O   0  0  0  0  0  0  0  0  0  0  0  0
  149.0651  135.8632  154.6036 N   0  0  0  0  0  0  0  0  0  0  0  0
  148.8165  137.1297  154.9636 C   0  0  0  0  0  0  0  0  0  0  0  0
  148.8656  137.5414  156.1232 O   0  0  0  0  0  0  0  0  0  0  0  0
  148.5195  137.8980  153.9063 N   0  0  0  0  0  0  0  0  0  0  0  0
  148.2572  139.3313  153.9714 C   0  0  0  0  0  0  0  0  0  0  0  0
  149.1307  140.0538  154.9838 C   0  0  0  0  0  0  0  0  0  0  0  0
  150.5208  139.8284  155.0456 C   0  0  0  0  0  0  0  0  0  0  0  0
  151.2821  140.5194  156.0070 C   0  0  0  0  0  0  0  0  0  0  0  0
  150.6323  141.4205  156.8831 C   0  0  0  0  0  0  0  0  0  0  0  0
  151.3784  142.1188  157.8555 N   0  0  0  0  0  0  0  0  0  0  0  0
  152.1813  141.3419  158.7951 C   0  0  0  0  0  0  0  0  0  0  0  0
  153.1760  142.2574  159.5299 C   0  0  2  0  0  0  0  0  0  0  0  0
  153.9516  141.5038  160.6154 C   0  0  0  0  0  0  0  0  0  0  0  0
  152.4680  143.3284  160.1535 O   0  0  0  0  0  0  0  0  0  0  0  0
  151.6881  144.1299  159.2628 C   0  0  1  0  0  0  0  0  0  0  0  0
  152.5642  145.0158  158.3593 C   0  0  0  0  0  0  0  0  0  0  0  0
  150.6956  143.2483  158.4790 C   0  0  0  0  0  0  0  0  0  0  0  0
  149.2946  141.6340  156.8203 N   0  0  0  0  0  0  0  0  0  0  0  0
  148.5698  140.9711  155.8947 C   0  0  0  0  0  0  0  0  0  0  0  0
  150.9798  134.3138  156.9847 H   0  0  0  0  0  0  0  0  0  0  0  0
  150.5381  136.0145  156.9443 H   0  0  0  0  0  0  0  0  0  0  0  0
  151.5528  135.3425  155.6737 H   0  0  0  0  0  0  0  0  0  0  0  0
  148.6199  134.6469  156.2176 H   0  0  0  0  0  0  0  0  0  0  0  0
  150.4132  133.5144  154.0446 H   0  0  0  0  0  0  0  0  0  0  0  0
  149.7514  132.6253  155.4009 H   0  0  0  0  0  0  0  0  0  0  0  0
  148.5489  133.5077  153.0822 H   0  0  0  0  0  0  0  0  0  0  0  0
  149.0055  135.6267  153.6238 H   0  0  0  0  0  0  0  0  0  0  0  0
  148.4986  137.4685  152.9929 H   0  0  0  0  0  0  0  0  0  0  0  0
  148.4470  139.7590  152.9869 H   0  0  0  0  0  0  0  0  0  0  0  0
  147.2017  139.5072  154.1863 H   0  0  0  0  0  0  0  0  0  0  0  0
  150.9991  139.1338  154.3707 H   0  0  0  0  0  0  0  0  0  0  0  0
  152.3451  140.3414  156.0733 H   0  0  0  0  0  0  0  0  0  0  0  0
  151.5210  140.8495  159.5103 H   0  0  0  0  0  0  0  0  0  0  0  0
  152.7304  140.5618  158.2661 H   0  0  0  0  0  0  0  0  0  0  0  0
  153.8976  142.6589  158.8184 H   0  0  0  0  0  0  0  0  0  0  0  0
  154.5180  140.6754  160.1892 H   0  0  0  0  0  0  0  0  0  0  0  0
  153.2789  141.0964  161.3707 H   0  0  0  0  0  0  0  0  0  0  0  0
  154.6575  142.1644  161.1192 H   0  0  0  0  0  0  0  0  0  0  0  0
  151.1056  144.8029  159.8926 H   0  0  0  0  0  0  0  0  0  0  0  0
  151.9488  145.7123  157.7894 H   0  0  0  0  0  0  0  0  0  0  0  0
  153.1401  144.4330  157.6408 H   0  0  0  0  0  0  0  0  0  0  0  0
  153.2645  145.6040  158.9525 H   0  0  0  0  0  0  0  0  0  0  0  0
  150.1647  143.8583  157.7489 H   0  0  0  0  0  0  0  0  0  0  0  0
  149.9416  142.8533  159.1611 H   0  0  0  0  0  0  0  0  0  0  0  0
  147.5095  141.1763  155.8877 H   0  0  0  0  0  0  0  0  0  0  0  0
  1  2  1  0  0  0  0
  1 24  1  0  0  0  0
  1 25  1  0  0  0  0
  1 26  1  0  0  0  0
  2  3  1  0  0  0  0
  2  5  1  0  0  0  0
  2 27  1  0  0  0  0
  3  4  1  0  0  0  0
  3 28  1  0  0  0  0
  3 29  1  0  0  0  0
  4 30  1  0  0  0  0
  5  6  1  0  0  0  0
  5 31  1  0  0  0  0
  6  7  2  0  0  0  0
  6  8  1  0  0  0  0
  8  9  1  0  0  0  0
  8 32  1  0  0  0  0
  9 10  1  0  0  0  0
  9 33  1  0  0  0  0
  9 34  1  0  0  0  0
 10 23  1  0  0  0  0
 10 11  2  0  0  0  0
 11 12  1  0  0  0  0
 11 35  1  0  0  0  0
 12 13  2  0  0  0  0
 12 36  1  0  0  0  0
 13 14  1  0  0  0  0
 13 22  1  0  0  0  0
 14 21  1  0  0  0  0
 14 15  1  0  0  0  0
 15 16  1  0  0  0  0
 15 37  1  0  0  0  0
 15 38  1  0  0  0  0
 16 17  1  0  0  0  0
 16 18  1  0  0  0  0
 16 39  1  0  0  0  0
 17 40  1  0  0  0  0
 17 41  1  0  0  0  0
 17 42  1  0  0  0  0
 18 19  1  0  0  0  0
 19 20  1  0  0  0  0
 19 21  1  0  0  0  0
 19 43  1  0  0  0  0
 20 44  1  0  0  0  0
 20 45  1  0  0  0  0
 20 46  1  0  0  0  0
 21 47  1  0  0  0  0
 21 48  1  0  0  0  0
 22 23  2  0  0  0  0
 23 49  1  0  0  0  0
M  END
> <s_m_source_file>
AV-unprocessed.smi

> <i_m_source_file_index>
1983

> <i_lp_mmshare_version>
43012

> <i_f3d_flags>
0

> <s_epik_input>
W09IXVtDSDJdW0NAQEhdKFtDSDNdKVtOSF1DKD1PKVtOSF1bQ0gyXWMxW2NIXVtjSF1jKG5bY0hdMSlOMltDSDJdW0NAQEhdKFtDSDNdKU9bQ0BASF0oW0NIM10pW0NIMl0y

> <s_epik_cmdline>
J2VwaWtfcHl0aG9uJywgJy1waCcsICc3LjAnLCAnLXRuJywgJzgnLCAnLW1hJywgJzIwMCcsICctbWV0YWxfYmluZGluZycsICctaW1hZScsICc8aW5maWxlLm1hZT4nLCAnLW9tYWUnLCAnPG91dGZpbGUubWFlPic=

> <r_lp_tautomer_probability>
1

> <r_epik_Ionization_Penalty>
0.00801967

> <r_epik_Ionization_Penalty_Charging>
0

> <r_epik_Ionization_Penalty_Neutral>
0.00801967

> <r_epik_State_Penalty>
0.00598289

> <r_epik_Charging_Adjusted_Penalty>
0.00598289

> <i_epik_Tot_Q>
0

> <i_epik_Tot_abs_Q>
0

> <r_epik_Metal_State_Penalty>
0.00590297

> <b_epik_Metal_Only>
0

> <s_lp_Force_Field>
OPLS_2005

> <r_lp_Energy>
17.398

> <b_lp_Chiralities_Consistent>
1

> <s_lp_Variant>
AV-unprocessed.smi:1983-3

> <Gold.Version>
5.8.1

> <Gold.Id.Protein>
6NUR|6NUR_protein|mol2

> <Gold.PLP.Fitness>
46.4583

> <Gold.PLP.PLP>
-41.1412

> <Gold.PLP.part.hbond>
-2.0000

> <Gold.PLP.part.metal>
0.0000

> <Gold.PLP.part.buried>
-4.6002

> <Gold.PLP.part.nonpolar>
-34.7172

> <Gold.PLP.part.repulsive>
0.2242

> <Gold.PLP.ligand.clash>
0.0000

> <Gold.PLP.ligand.torsion>
0.5335

> <Gold.PLP.Chemscore.Hbond>
2.0000

> <Gold.PLP.Chemscore.CHOScore>
0.0000

> <Gold.PLP.Chemscore.Metal>
0.0000

> <Gold.Chemscore.Hbonds>
donor molecule, donor type, donor heavy atom, donor atom, acceptor molecule, acceptor atom, score
      L1  H     5    31       P1  7948  0.96
      L1  H     8    32       P1  7948  1.00

> <Gold.PLP.Chemscore.Internal.Correction>
0.3841

> <Gold.Rescore>
     Score         DG    S(hbond)    S(metal)    S(lipo)     H(rot)  DE(clash)    DE(int)     intcor
     17.03     -17.39       1.93        0.00     103.69       2.61       0.00       0.36       ----

> <Gold.Chemscore.Fitness>
17.0326

> <Gold.Chemscore.DG>
-17.3930

> <Gold.Chemscore.ZeroCoef>
-5.4800

> <Gold.Chemscore.Hbond>
1.9347

> <Gold.Chemscore.Metal>
0.0000

> <Gold.Chemscore.Lipo>
103.6926

> <Gold.Chemscore.Internal_Hbond>
0.0000

> <Gold.Chemscore.DEClash>
0.0038

> <Gold.Chemscore.DEInternal>
0.3567

> <Gold.Chemscore.Rot>
2.6097

> <Gold.Chemscore.Internal.Correction>
   9.000000E+99

> <Gold.Chemscore.Hbonds>
donor molecule, donor type, donor heavy atom, donor atom, acceptor molecule, acceptor atom, score
      L1  H     5    31       P1  7948  0.76
      L1  H     8    32       P1  7948  0.97

> <Gold.Chemscore.Hbond.Weighted>
-6.4619

> <Gold.Chemscore.Metal.Weighted>
-0.0000

> <Gold.Chemscore.Lipo.Weighted>
-12.1320

> <Gold.Chemscore.Internal_Hbond.Weighted>
0.0000

> <Gold.Chemscore.DEClash.Weighted>
0.0038

> <Gold.Chemscore.DEInternal.Weighted>
0.3567

> <Gold.Chemscore.Rot.Weighted>
6.6809

> <Gold.Chemscore.Internal.Correction.Weighted>
   9.000000E+99

> <Gold.Protein.RotatedTorsions>
[ 6907 6896 6895 6894 ] final  -52.62 input  -60.11 | X-H torsion
[ 7974 7965 7964 7962 ] final  167.85 input  175.53 | X-H torsion
[ 8008 7997 7996 7995 ] final   81.87 input   59.86 | X-H torsion
[ 10167 10162 10161 10158 ] final  123.25 input  -65.29 | X-H torsion
[ 10718 10713 10712 10709 ] final  -82.81 input   66.30 | X-H torsion
[ 10763 10752 10751 10750 ] final  -16.40 input  -60.55 | X-H torsion
[ 11005 11000 10999 10996 ] final   72.51 input  -57.11 | X-H torsion

> <Gold.Protein.ActiveResidues>
 VAL166  LYS551  ARG553  GLY616  TRP617  ASP618  TYR619  PRO620  LYS621  CYS622 
 ASP623  PHE694  ASN695  SER759  ASP760  ASP761  ALA762  ILE779  LEU786  VAL792 
 PHE793  MET794  SER795  GLU796  ALA797  LYS798  CYS799  TRP800  GLU811  SER814 

> <Gold.Protein.RotatedAtoms>
  150.8501  134.7823  159.7001 H   0  0  0  0  0  0  0  0  0  0  0  0  # atno 6907 bound_to 6896
  152.4568  134.5270  159.9809 H   0  0  0  0  0  0  0  0  0  0  0  0  # atno 6908 bound_to 6896
  151.5393  133.3397  159.2968 H   0  0  0  0  0  0  0  0  0  0  0  0  # atno 6909 bound_to 6896
  144.7409  139.8822  143.6397 H   0  0  0  0  0  0  0  0  0  0  0  0  # atno 7974 bound_to 7965
  155.9029  140.3432  155.6040 H   0  0  0  0  0  0  0  0  0  0  0  0  # atno 8008 bound_to 7997
  155.7478  140.0816  157.2234 H   0  0  0  0  0  0  0  0  0  0  0  0  # atno 8009 bound_to 7997
  154.4046  140.1559  156.2677 H   0  0  0  0  0  0  0  0  0  0  0  0  # atno 8010 bound_to 7997
  139.5810  144.6986  151.3527 H   0  0  0  0  0  0  0  0  0  0  0  0  # atno 10167 bound_to 10162
  156.0027  130.4646  150.4161 H   0  0  0  0  0  0  0  0  0  0  0  0  # atno 10718 bound_to 10713
  153.5579  135.7010  153.5561 H   0  0  0  0  0  0  0  0  0  0  0  0  # atno 10763 bound_to 10752
  153.3455  135.4009  155.1605 H   0  0  0  0  0  0  0  0  0  0  0  0  # atno 10764 bound_to 10752
  154.8652  135.3752  154.5095 H   0  0  0  0  0  0  0  0  0  0  0  0  # atno 10765 bound_to 10752
  139.9487  134.7266  156.0916 H   0  0  0  0  0  0  0  0  0  0  0  0  # atno 11005 bound_to 11000
  146.1203  139.4220  143.0232 LP  0  0  0  0  0  0  0  0  0  0  0  0  # atno 17320 bound_to 7965
  145.7314  141.0041  143.1349 LP  0  0  0  0  0  0  0  0  0  0  0  0  # atno 17321 bound_to 7965
  140.7089  143.7443  150.7530 LP  0  0  0  0  0  0  0  0  0  0  0  0  # atno 17342 bound_to 10162
  140.0976  143.4819  152.2444 LP  0  0  0  0  0  0  0  0  0  0  0  0  # atno 17343 bound_to 10162
  157.2220  131.0484  151.2541 LP  0  0  0  0  0  0  0  0  0  0  0  0  # atno 17370 bound_to 10713
  157.3791  130.7222  149.6618 LP  0  0  0  0  0  0  0  0  0  0  0  0  # atno 17371 bound_to 10713
  141.1144  133.6632  156.3058 LP  0  0  0  0  0  0  0  0  0  0  0  0  # atno 17394 bound_to 11000
  140.5772  134.5782  157.5471 LP  0  0  0  0  0  0  0  0  0  0  0  0  # atno 17395 bound_to 11000

$$$$
