AV-unprocessed.smi:701|AV-procd|sdf|3415|dock6
  -GOLD-   22720 0403D 1   1.00000     0.00000
 Structure written by MMmdl.
 48 50  0  0  0  0  0  0  0  0  2 V2000
  145.3749  130.9223  151.2388 C   0  0  0  0  0  0  0  0  0  0  0  0
  145.7981  132.3839  151.3983 C   0  0  0  0  0  0  0  0  0  0  0  0
  146.6555  132.4891  152.5221 O   0  0  0  0  0  0  0  0  0  0  0  0
  146.9818  133.8299  152.8483 C   0  0  1  0  0  0  0  0  0  0  0  0
  145.8208  134.6375  153.4349 C   0  0  0  0  0  0  0  0  0  0  0  0
  146.8332  135.2396  154.4156 C   0  0  2  0  0  0  0  0  0  0  0  0
  147.4055  136.4824  153.8977 N   0  0  0  0  0  0  0  0  0  0  0  0
  147.2037  137.6966  154.4262 C   0  0  0  0  0  0  0  0  0  0  0  0
  146.4802  137.8986  155.4018 O   0  0  0  0  0  0  0  0  0  0  0  0
  147.9051  138.8652  153.7240 C   0  0  0  0  0  0  0  0  0  0  0  0
  149.2856  139.0491  154.1969 N   0  0  0  0  0  0  0  0  0  0  0  0
  150.0923  137.9053  154.3303 C   0  0  0  0  0  0  0  0  0  0  0  0
  151.3690  137.9822  154.7515 C   0  0  0  0  0  0  0  0  0  0  0  0
  151.9118  139.2962  155.0733 C   0  0  0  0  0  0  0  0  0  0  0  0
  153.0740  139.3848  155.4644 O   0  0  0  0  0  0  0  0  0  0  0  0
  151.0909  140.3767  154.9223 N   0  5  0  0  0  0  0  0  0  0  0  0
  149.7949  140.2838  154.4906 C   0  0  0  0  0  0  0  0  0  0  0  0
  149.0714  141.2720  154.3588 O   0  0  0  0  0  0  0  0  0  0  0  0
  147.7424  133.9968  154.1911 C   0  0  0  0  0  0  0  0  0  0  0  0
  147.5310  132.8934  155.2550 C   0  0  0  0  0  0  0  0  0  0  0  0
  148.3413  131.6069  155.0067 C   0  0  0  0  0  0  0  0  0  0  0  0
  149.8350  131.9036  154.8405 C   0  0  0  0  0  0  0  0  0  0  0  0
  150.0627  132.9749  153.7697 C   0  0  0  0  0  0  0  0  0  0  0  0
  149.2612  134.2475  154.0835 C   0  0  0  0  0  0  0  0  0  0  0  0
  144.7133  130.7988  150.3814 H   0  0  0  0  0  0  0  0  0  0  0  0
  144.8453  130.5693  152.1239 H   0  0  0  0  0  0  0  0  0  0  0  0
  146.2424  130.2792  151.0877 H   0  0  0  0  0  0  0  0  0  0  0  0
  146.3140  132.7207  150.4980 H   0  0  0  0  0  0  0  0  0  0  0  0
  144.9180  133.0143  151.5314 H   0  0  0  0  0  0  0  0  0  0  0  0
  147.4809  134.3536  152.0299 H   0  0  0  0  0  0  0  0  0  0  0  0
  145.3600  135.3430  152.7423 H   0  0  0  0  0  0  0  0  0  0  0  0
  145.0723  134.0161  153.9283 H   0  0  0  0  0  0  0  0  0  0  0  0
  146.4533  135.3189  155.4357 H   0  0  0  0  0  0  0  0  0  0  0  0
  148.0160  136.4090  153.0970 H   0  0  0  0  0  0  0  0  0  0  0  0
  147.8926  138.7212  152.6416 H   0  0  0  0  0  0  0  0  0  0  0  0
  147.3177  139.7674  153.8985 H   0  0  0  0  0  0  0  0  0  0  0  0
  149.6162  136.9728  154.0652 H   0  0  0  0  0  0  0  0  0  0  0  0
  151.9766  137.0945  154.8458 H   0  0  0  0  0  0  0  0  0  0  0  0
  147.7983  133.2841  156.2378 H   0  0  0  0  0  0  0  0  0  0  0  0
  146.4760  132.6285  155.3296 H   0  0  0  0  0  0  0  0  0  0  0  0
  148.1940  130.9137  155.8352 H   0  0  0  0  0  0  0  0  0  0  0  0
  147.9734  131.0946  154.1185 H   0  0  0  0  0  0  0  0  0  0  0  0
  150.2465  132.2461  155.7908 H   0  0  0  0  0  0  0  0  0  0  0  0
  150.3721  130.9911  154.5804 H   0  0  0  0  0  0  0  0  0  0  0  0
  151.1247  133.2119  153.7035 H   0  0  0  0  0  0  0  0  0  0  0  0
  149.7693  132.5880  152.7928 H   0  0  0  0  0  0  0  0  0  0  0  0
  149.4788  134.9784  153.3043 H   0  0  0  0  0  0  0  0  0  0  0  0
  149.6321  134.6869  155.0106 H   0  0  0  0  0  0  0  0  0  0  0  0
  1  2  1  0  0  0  0
  1 25  1  0  0  0  0
  1 26  1  0  0  0  0
  1 27  1  0  0  0  0
  2  3  1  0  0  0  0
  2 28  1  0  0  0  0
  2 29  1  0  0  0  0
  3  4  1  0  0  0  0
  4 19  1  0  0  0  0
  4  5  1  0  0  0  0
  4 30  1  0  0  0  0
  5  6  1  0  0  0  0
  5 31  1  0  0  0  0
  5 32  1  0  0  0  0
  6  7  1  0  0  0  0
  6 19  1  0  0  0  0
  6 33  1  0  0  0  0
  7  8  1  0  0  0  0
  7 34  1  0  0  0  0
  8  9  2  0  0  0  0
  8 10  1  0  0  0  0
 10 11  1  0  0  0  0
 10 35  1  0  0  0  0
 10 36  1  0  0  0  0
 11 17  1  0  0  0  0
 11 12  1  0  0  0  0
 12 13  2  0  0  0  0
 12 37  1  0  0  0  0
 13 14  1  0  0  0  0
 13 38  1  0  0  0  0
 14 15  2  0  0  0  0
 14 16  1  0  0  0  0
 16 17  1  0  0  0  0
 17 18  2  0  0  0  0
 19 24  1  0  0  0  0
 19 20  1  0  0  0  0
 20 21  1  0  0  0  0
 20 39  1  0  0  0  0
 20 40  1  0  0  0  0
 21 22  1  0  0  0  0
 21 41  1  0  0  0  0
 21 42  1  0  0  0  0
 22 23  1  0  0  0  0
 22 43  1  0  0  0  0
 22 44  1  0  0  0  0
 23 24  1  0  0  0  0
 23 45  1  0  0  0  0
 23 46  1  0  0  0  0
 24 47  1  0  0  0  0
 24 48  1  0  0  0  0
M  CHG  1  16  -1
M  END
> <s_m_source_file>
AV-unprocessed.smi

> <i_m_source_file_index>
701

> <i_lp_mmshare_version>
43012

> <i_f3d_flags>
0

> <s_epik_input>
W0NIMl0xW0NIMl1bQ0gyXVtDSDJdW0NIMl1DMTJbQ0BIXShPW0NIMl1bQ0gzXSlbQ0gyXVtDQEhdMltOSF1DKD1PKVtDSDJdbjNbY0hdW2NIXWMoPU8pW25IXWMzPU8=

> <s_epik_cmdline>
J2VwaWtfcHl0aG9uJywgJy1waCcsICc3LjAnLCAnLXRuJywgJzgnLCAnLW1hJywgJzIwMCcsICctbWV0YWxfYmluZGluZycsICctaW1hZScsICc8aW5maWxlLm1hZT4nLCAnLW9tYWUnLCAnPG91dGZpbGUubWFlPic=

> <r_lp_tautomer_probability>
0.999537

> <r_epik_Ionization_Penalty>
3.12423

> <r_epik_Ionization_Penalty_Charging>
2.92877e-08

> <r_epik_Ionization_Penalty_Neutral>
3.12423

> <r_epik_State_Penalty>
3.12332

> <r_epik_Charging_Adjusted_Penalty>
3.12332

> <i_epik_Tot_Q>
-1

> <i_epik_Tot_abs_Q>
1

> <r_epik_Metal_State_Penalty>
0.463873

> <b_epik_Metal_Only>
1

> <s_lp_Force_Field>
OPLS_2005

> <r_lp_Energy>
37.69

> <b_lp_Chiralities_Consistent>
1

> <s_lp_Variant>
AV-unprocessed.smi:701-8

> <Gold.Version>
5.8.1

> <Gold.Id.Protein>
6NUR|6NUR_protein|mol2

> <Gold.PLP.Fitness>
43.2831

> <Gold.PLP.PLP>
-32.7317

> <Gold.PLP.part.hbond>
-4.3886

> <Gold.PLP.part.metal>
0.0000

> <Gold.PLP.part.buried>
1.9113

> <Gold.PLP.part.nonpolar>
-27.7516

> <Gold.PLP.part.repulsive>
0.4090

> <Gold.PLP.ligand.clash>
0.0000

> <Gold.PLP.ligand.torsion>
0.8078

> <Gold.PLP.Chemscore.Hbond>
3.0190

> <Gold.PLP.Chemscore.CHOScore>
0.9254

> <Gold.PLP.Chemscore.Metal>
0.0000

> <Gold.Chemscore.Hbonds>
donor molecule, donor type, donor heavy atom, donor atom, acceptor molecule, acceptor atom, score
      L1  H     7    34       P1  7948  1.00
      P1  H  7989  7998       L1    16  0.63
      P1  H  7997  8010       L1    15  1.00
      L1  C    12    37       P1  7948  0.94

> <Gold.PLP.Chemscore.Internal.Correction>
0.3335

> <Gold.Rescore>
     Score         DG    S(hbond)    S(metal)    S(lipo)     H(rot)  DE(clash)    DE(int)     intcor
     14.45     -15.30       2.00        0.00      71.51       2.04       0.19       0.65       ----

> <Gold.Chemscore.Fitness>
14.4534

> <Gold.Chemscore.DG>
-15.2952

> <Gold.Chemscore.ZeroCoef>
-5.4800

> <Gold.Chemscore.Hbond>
1.9973

> <Gold.Chemscore.Metal>
0.0000

> <Gold.Chemscore.Lipo>
71.5057

> <Gold.Chemscore.Internal_Hbond>
0.0000

> <Gold.Chemscore.DEClash>
0.1879

> <Gold.Chemscore.DEInternal>
0.6538

> <Gold.Chemscore.Rot>
2.0399

> <Gold.Chemscore.Internal.Correction>
   9.000000E+99

> <Gold.Chemscore.Hbonds>
donor molecule, donor type, donor heavy atom, donor atom, acceptor molecule, acceptor atom, score
      L1  H     7    34       P1  7948  0.96
      P1  H  7989  7998       L1    16  0.01
      P1  H  7997  8010       L1    15  1.00
      P1  H  8011  8017       L1    18  0.03

> <Gold.Chemscore.Hbond.Weighted>
-6.6711

> <Gold.Chemscore.Metal.Weighted>
-0.0000

> <Gold.Chemscore.Lipo.Weighted>
-8.3662

> <Gold.Chemscore.Internal_Hbond.Weighted>
0.0000

> <Gold.Chemscore.DEClash.Weighted>
0.1879

> <Gold.Chemscore.DEInternal.Weighted>
0.6538

> <Gold.Chemscore.Rot.Weighted>
5.2222

> <Gold.Chemscore.Internal.Correction.Weighted>
   9.000000E+99

> <Gold.Protein.RotatedTorsions>
[ 6907 6896 6895 6894 ] final   81.87 input  -60.11 | X-H torsion
[ 7974 7965 7964 7962 ] final -130.90 input  175.53 | X-H torsion
[ 8008 7997 7996 7995 ] final   95.27 input   59.86 | X-H torsion
[ 10167 10162 10161 10158 ] final -118.94 input  -65.29 | X-H torsion
[ 10718 10713 10712 10709 ] final -109.55 input   66.30 | X-H torsion
[ 10763 10752 10751 10750 ] final   53.17 input  -60.55 | X-H torsion
[ 11005 11000 10999 10996 ] final  -73.64 input  -57.11 | X-H torsion

> <Gold.Protein.ActiveResidues>
 VAL166  LYS551  ARG553  GLY616  TRP617  ASP618  TYR619  PRO620  LYS621  CYS622 
 ASP623  PHE694  ASN695  SER759  ASP760  ASP761  ALA762  ILE779  LEU786  VAL792 
 PHE793  MET794  SER795  GLU796  ALA797  LYS798  CYS799  TRP800  GLU811  SER814 

> <Gold.Protein.RotatedAtoms>
  152.5282  134.3137  159.9122 H   0  0  0  0  0  0  0  0  0  0  0  0  # atno 6907 bound_to 6896
  151.3086  133.4084  159.2653 H   0  0  0  0  0  0  0  0  0  0  0  0  # atno 6908 bound_to 6896
  151.0057  134.9374  159.8036 H   0  0  0  0  0  0  0  0  0  0  0  0  # atno 6909 bound_to 6896
  144.9430  140.7260  143.4835 H   0  0  0  0  0  0  0  0  0  0  0  0  # atno 7974 bound_to 7965
  156.0671  140.3288  155.7531 H   0  0  0  0  0  0  0  0  0  0  0  0  # atno 8008 bound_to 7997
  155.5364  140.0598  157.2896 H   0  0  0  0  0  0  0  0  0  0  0  0  # atno 8009 bound_to 7997
  154.4511  140.1918  156.0535 H   0  0  0  0  0  0  0  0  0  0  0  0  # atno 8010 bound_to 7997
  140.0520  143.5050  152.2077 H   0  0  0  0  0  0  0  0  0  0  0  0  # atno 10167 bound_to 10162
  156.0543  130.5770  150.8116 H   0  0  0  0  0  0  0  0  0  0  0  0  # atno 10718 bound_to 10713
  152.9793  135.5788  154.4697 H   0  0  0  0  0  0  0  0  0  0  0  0  # atno 10763 bound_to 10752
  154.4261  135.2772  155.1945 H   0  0  0  0  0  0  0  0  0  0  0  0  # atno 10764 bound_to 10752
  154.3673  135.6175  153.5775 H   0  0  0  0  0  0  0  0  0  0  0  0  # atno 10765 bound_to 10752
  141.1625  133.6885  156.7242 H   0  0  0  0  0  0  0  0  0  0  0  0  # atno 11005 bound_to 11000
  145.2962  139.1866  143.4714 LP  0  0  0  0  0  0  0  0  0  0  0  0  # atno 17320 bound_to 7965
  146.3293  140.2946  142.8617 LP  0  0  0  0  0  0  0  0  0  0  0  0  # atno 17321 bound_to 7965
  139.5947  144.7562  151.3316 LP  0  0  0  0  0  0  0  0  0  0  0  0  # atno 17342 bound_to 10162
  140.7212  143.7130  150.7754 LP  0  0  0  0  0  0  0  0  0  0  0  0  # atno 17343 bound_to 10162
  157.5499  131.0943  150.9710 LP  0  0  0  0  0  0  0  0  0  0  0  0  # atno 17370 bound_to 10713
  156.9973  130.5586  149.5308 LP  0  0  0  0  0  0  0  0  0  0  0  0  # atno 17371 bound_to 10713
  140.2793  134.8329  157.3919 LP  0  0  0  0  0  0  0  0  0  0  0  0  # atno 17394 bound_to 11000
  140.1448  134.4925  155.8004 LP  0  0  0  0  0  0  0  0  0  0  0  0  # atno 17395 bound_to 11000

$$$$
