AV-unprocessed.smi:2693|AV-procd|sdf|10398|dock3
  -GOLD-   2272014433D 1   1.00000     0.00000
 Structure written by MMmdl.
 45 47  0  0  0  0  0  0  0  0  1 V2000
  145.8287  131.6638  151.2128 C   0  0  0  0  0  0  0  0  0  0  0  0
  144.8728  132.6655  150.7496 N   0  0  0  0  0  0  0  0  0  0  0  0
  143.8753  132.2460  149.7695 C   0  0  0  0  0  0  0  0  0  0  0  0
  144.9116  133.9789  151.2267 C   0  0  0  0  0  0  0  0  0  0  0  0
  146.0042  134.3586  151.9026 N   0  0  0  0  0  0  0  0  0  0  0  0
  146.0468  135.6277  152.3604 C   0  0  0  0  0  0  0  0  0  0  0  0
  144.9871  136.5330  152.1523 C   0  0  0  0  0  0  0  0  0  0  0  0
  145.1072  137.8621  152.6394 N   0  0  0  0  0  0  0  0  0  0  0  0
  146.0526  138.3687  153.4485 C   0  0  0  0  0  0  0  0  0  0  0  0
  147.0565  137.7691  153.8319 O   0  0  0  0  0  0  0  0  0  0  0  0
  145.7773  139.6355  153.7845 N   0  0  0  0  0  0  0  0  0  0  0  0
  146.5982  140.4447  154.6777 C   0  0  1  0  0  0  0  0  0  0  0  0
  148.0942  140.2797  154.4093 C   0  0  2  0  0  0  0  0  0  0  0  0
  149.2365  139.7093  155.1716 C   0  0  0  0  0  0  0  0  0  0  0  0
  150.2441  140.8679  154.9434 C   0  0  0  0  0  0  0  0  0  0  0  0
  149.4777  141.9539  154.3673 O   0  0  0  0  0  0  0  0  0  0  0  0
  148.1676  141.7301  154.8460 C   0  0  1  0  0  0  0  0  0  0  0  0
  146.7883  141.9304  154.1875 C   0  0  0  0  0  0  0  0  0  0  0  0
  146.7526  142.2491  152.6789 C   0  0  0  0  0  0  0  0  0  0  0  0
  145.8871  142.9635  154.8647 C   0  0  0  0  0  0  0  0  0  0  0  0
  143.8846  136.0310  151.4203 C   0  0  0  0  0  0  0  0  0  0  0  0
  143.8554  134.7603  150.9656 N   0  0  0  0  0  0  0  0  0  0  0  0
  146.8426  131.9483  150.9300 H   0  0  0  0  0  0  0  0  0  0  0  0
  145.6268  130.6806  150.7878 H   0  0  0  0  0  0  0  0  0  0  0  0
  145.7867  131.5703  152.2984 H   0  0  0  0  0  0  0  0  0  0  0  0
  143.9254  132.8748  148.8798 H   0  0  0  0  0  0  0  0  0  0  0  0
  142.8727  132.3259  150.1910 H   0  0  0  0  0  0  0  0  0  0  0  0
  144.0239  131.2138  149.4525 H   0  0  0  0  0  0  0  0  0  0  0  0
  146.9368  135.9207  152.8979 H   0  0  0  0  0  0  0  0  0  0  0  0
  144.3913  138.5039  152.3312 H   0  0  0  0  0  0  0  0  0  0  0  0
  144.9374  140.0603  153.4202 H   0  0  0  0  0  0  0  0  0  0  0  0
  146.3387  140.3486  155.7360 H   0  0  0  0  0  0  0  0  0  0  0  0
  148.2753  140.1445  153.3405 H   0  0  0  0  0  0  0  0  0  0  0  0
  148.9973  139.5774  156.2278 H   0  0  0  0  0  0  0  0  0  0  0  0
  149.5887  138.7615  154.7638 H   0  0  0  0  0  0  0  0  0  0  0  0
  150.6980  141.1787  155.8851 H   0  0  0  0  0  0  0  0  0  0  0  0
  151.0440  140.5838  154.2592 H   0  0  0  0  0  0  0  0  0  0  0  0
  148.1251  141.8680  155.9326 H   0  0  0  0  0  0  0  0  0  0  0  0
  147.1438  143.2476  152.4809 H   0  0  0  0  0  0  0  0  0  0  0  0
  145.7334  142.2200  152.2921 H   0  0  0  0  0  0  0  0  0  0  0  0
  147.3357  141.5609  152.0699 H   0  0  0  0  0  0  0  0  0  0  0  0
  146.2565  143.9779  154.7119 H   0  0  0  0  0  0  0  0  0  0  0  0
  145.8284  142.8002  155.9411 H   0  0  0  0  0  0  0  0  0  0  0  0
  144.8681  142.9216  154.4792 H   0  0  0  0  0  0  0  0  0  0  0  0
  143.0266  136.6335  151.1668 H   0  0  0  0  0  0  0  0  0  0  0  0
  1  2  1  0  0  0  0
  1 23  1  0  0  0  0
  1 24  1  0  0  0  0
  1 25  1  0  0  0  0
  2  3  1  0  0  0  0
  2  4  1  0  0  0  0
  3 26  1  0  0  0  0
  3 27  1  0  0  0  0
  3 28  1  0  0  0  0
  4 22  1  0  0  0  0
  4  5  2  0  0  0  0
  5  6  1  0  0  0  0
  6  7  2  0  0  0  0
  6 29  1  0  0  0  0
  7  8  1  0  0  0  0
  7 21  1  0  0  0  0
  8  9  1  0  0  0  0
  8 30  1  0  0  0  0
  9 10  2  0  0  0  0
  9 11  1  0  0  0  0
 11 12  1  0  0  0  0
 11 31  1  0  0  0  0
 12 18  1  0  0  0  0
 12 13  1  0  0  0  0
 12 32  1  0  0  0  0
 13 17  1  0  0  0  0
 13 14  1  0  0  0  0
 13 33  1  0  0  0  0
 14 15  1  0  0  0  0
 14 34  1  0  0  0  0
 14 35  1  0  0  0  0
 15 16  1  0  0  0  0
 15 36  1  0  0  0  0
 15 37  1  0  0  0  0
 16 17  1  0  0  0  0
 17 18  1  0  0  0  0
 17 38  1  0  0  0  0
 18 19  1  0  0  0  0
 18 20  1  0  0  0  0
 19 39  1  0  0  0  0
 19 40  1  0  0  0  0
 19 41  1  0  0  0  0
 20 42  1  0  0  0  0
 20 43  1  0  0  0  0
 20 44  1  0  0  0  0
 21 22  2  0  0  0  0
 21 45  1  0  0  0  0
M  END
> <s_m_source_file>
AV-unprocessed.smi

> <i_m_source_file_index>
2693

> <i_lp_mmshare_version>
43012

> <i_f3d_flags>
0

> <s_epik_input>
W0NIM11OKFtDSDNdKWMxbltjSF1jKFtjSF1uMSlbTkhdQyg9TylbTkhdW0NASF0yQyhbQ0gzXSkoW0NIM10pW0NAQEhdKFtDQEhdMjMpT1tDSDJdW0NIMl0z

> <s_epik_cmdline>
J2VwaWtfcHl0aG9uJywgJy1waCcsICc3LjAnLCAnLXRuJywgJzgnLCAnLW1hJywgJzIwMCcsICctbWV0YWxfYmluZGluZycsICctaW1hZScsICc8aW5maWxlLm1hZT4nLCAnLW9tYWUnLCAnPG91dGZpbGUubWFlPic=

> <r_lp_tautomer_probability>
1

> <r_epik_Ionization_Penalty>
0.00031779

> <r_epik_Ionization_Penalty_Charging>
0

> <r_epik_Ionization_Penalty_Neutral>
0.00031779

> <r_epik_State_Penalty>
-0

> <r_epik_Charging_Adjusted_Penalty>
0

> <i_epik_Tot_Q>
0

> <i_epik_Tot_abs_Q>
0

> <r_epik_Metal_State_Penalty>
-0

> <b_epik_Metal_Only>
0

> <s_lp_Force_Field>
OPLS_2005

> <r_lp_Energy>
52.7678

> <b_lp_Chiralities_Consistent>
1

> <s_lp_Variant>
AV-unprocessed.smi:2693-2

> <Gold.Version>
5.8.1

> <Gold.Id.Protein>
6NUR|6NUR_protein|mol2

> <Gold.PLP.Fitness>
39.4429

> <Gold.PLP.PLP>
-29.3921

> <Gold.PLP.part.hbond>
-4.4505

> <Gold.PLP.part.metal>
0.0000

> <Gold.PLP.part.buried>
-0.2973

> <Gold.PLP.part.nonpolar>
-23.7969

> <Gold.PLP.part.repulsive>
0.6720

> <Gold.PLP.ligand.clash>
0.0000

> <Gold.PLP.ligand.torsion>
0.3365

> <Gold.PLP.Chemscore.Hbond>
2.1003

> <Gold.PLP.Chemscore.CHOScore>
1.3851

> <Gold.PLP.Chemscore.Metal>
0.0000

> <Gold.Chemscore.Hbonds>
donor molecule, donor type, donor heavy atom, donor atom, acceptor molecule, acceptor atom, score
      L1  H     8    30       P1 10175  0.83
      L1  H    11    31       P1 10175  1.00
      P1  H  8011  8017       L1    16  0.30
      L1  C     6    29       P1  7948  0.83
      L1  C    21    45       P1 10171  0.56

> <Gold.PLP.Chemscore.Internal.Correction>
0.2675

> <Gold.Rescore>
     Score         DG    S(hbond)    S(metal)    S(lipo)     H(rot)  DE(clash)    DE(int)     intcor
     12.72     -17.52       1.89        0.00      70.83       1.00       1.76       3.04       ----

> <Gold.Chemscore.Fitness>
12.7208

> <Gold.Chemscore.DG>
-17.5203

> <Gold.Chemscore.ZeroCoef>
-5.4800

> <Gold.Chemscore.Hbond>
1.8903

> <Gold.Chemscore.Metal>
0.0000

> <Gold.Chemscore.Lipo>
70.8252

> <Gold.Chemscore.Internal_Hbond>
0.0000

> <Gold.Chemscore.DEClash>
1.7602

> <Gold.Chemscore.DEInternal>
3.0393

> <Gold.Chemscore.Rot>
1.0000

> <Gold.Chemscore.Internal.Correction>
   9.000000E+99

> <Gold.Chemscore.Hbonds>
donor molecule, donor type, donor heavy atom, donor atom, acceptor molecule, acceptor atom, score
      L1  H     8    30       P1 10175  0.78
      L1  H    11    31       P1 10175  0.99
      P1  H  8011  8017       L1    16  0.27

> <Gold.Chemscore.Hbond.Weighted>
-6.3138

> <Gold.Chemscore.Metal.Weighted>
-0.0000

> <Gold.Chemscore.Lipo.Weighted>
-8.2865

> <Gold.Chemscore.Internal_Hbond.Weighted>
0.0000

> <Gold.Chemscore.DEClash.Weighted>
1.7602

> <Gold.Chemscore.DEInternal.Weighted>
3.0393

> <Gold.Chemscore.Rot.Weighted>
2.5600

> <Gold.Chemscore.Internal.Correction.Weighted>
   9.000000E+99

> <Gold.Protein.RotatedTorsions>
[ 6907 6896 6895 6894 ] final  -87.47 input  -60.11 | X-H torsion
[ 7974 7965 7964 7962 ] final  -88.83 input  175.53 | X-H torsion
[ 8008 7997 7996 7995 ] final  116.30 input   59.86 | X-H torsion
[ 10167 10162 10161 10158 ] final -108.89 input  -65.29 | X-H torsion
[ 10718 10713 10712 10709 ] final -136.24 input   66.30 | X-H torsion
[ 10763 10752 10751 10750 ] final   87.72 input  -60.55 | X-H torsion
[ 11005 11000 10999 10996 ] final -163.32 input  -57.11 | X-H torsion

> <Gold.Protein.ActiveResidues>
 VAL166  LYS551  ARG553  GLY616  TRP617  ASP618  TYR619  PRO620  LYS621  CYS622 
 ASP623  PHE694  ASN695  SER759  ASP760  ASP761  ALA762  ILE779  LEU786  VAL792 
 PHE793  MET794  SER795  GLU796  ALA797  LYS798  CYS799  TRP800  GLU811  SER814 

> <Gold.Protein.RotatedAtoms>
  150.6866  134.2892  159.4659 H   0  0  0  0  0  0  0  0  0  0  0  0  # atno 6907 bound_to 6896
  152.0798  134.9476  160.0583 H   0  0  0  0  0  0  0  0  0  0  0  0  # atno 6908 bound_to 6896
  152.0833  133.4129  159.4548 H   0  0  0  0  0  0  0  0  0  0  0  0  # atno 6909 bound_to 6896
  145.4479  140.9560  143.2038 H   0  0  0  0  0  0  0  0  0  0  0  0  # atno 7974 bound_to 7965
  156.2431  140.2920  156.0502 H   0  0  0  0  0  0  0  0  0  0  0  0  # atno 8008 bound_to 7997
  155.1890  140.0406  157.2914 H   0  0  0  0  0  0  0  0  0  0  0  0  # atno 8009 bound_to 7997
  154.6208  140.2475  155.7559 H   0  0  0  0  0  0  0  0  0  0  0  0  # atno 8010 bound_to 7997
  140.1612  143.4118  152.1424 H   0  0  0  0  0  0  0  0  0  0  0  0  # atno 10167 bound_to 10162
  156.2749  130.7287  151.1266 H   0  0  0  0  0  0  0  0  0  0  0  0  # atno 10718 bound_to 10713
  153.1696  135.4533  154.9884 H   0  0  0  0  0  0  0  0  0  0  0  0  # atno 10763 bound_to 10752
  154.7956  135.3236  154.7676 H   0  0  0  0  0  0  0  0  0  0  0  0  # atno 10764 bound_to 10752
  153.8154  135.6951  153.4889 H   0  0  0  0  0  0  0  0  0  0  0  0  # atno 10765 bound_to 10752
  140.5994  134.4963  157.5203 H   0  0  0  0  0  0  0  0  0  0  0  0  # atno 11005 bound_to 11000
  144.8080  139.6015  143.7042 LP  0  0  0  0  0  0  0  0  0  0  0  0  # atno 17320 bound_to 7965
  146.2520  139.6221  142.9420 LP  0  0  0  0  0  0  0  0  0  0  0  0  # atno 17321 bound_to 7965
  139.5380  144.7229  151.4828 LP  0  0  0  0  0  0  0  0  0  0  0  0  # atno 17342 bound_to 10162
  140.6642  143.8434  150.6922 LP  0  0  0  0  0  0  0  0  0  0  0  0  # atno 17343 bound_to 10162
  157.7296  131.0623  150.5767 LP  0  0  0  0  0  0  0  0  0  0  0  0  # atno 17370 bound_to 10713
  156.5867  130.4318  149.5954 LP  0  0  0  0  0  0  0  0  0  0  0  0  # atno 17371 bound_to 10713
  139.9239  134.8094  156.1128 LP  0  0  0  0  0  0  0  0  0  0  0  0  # atno 17394 bound_to 11000
  141.0882  133.6725  156.2482 LP  0  0  0  0  0  0  0  0  0  0  0  0  # atno 17395 bound_to 11000

$$$$
