AV-unprocessed.smi:1450|AV-procd|sdf|5897|dock8
  -GOLD-   22720 5583D 1   1.00000     0.00000
 Structure written by MMmdl.
 31 32  0  0  0  0  0  0  0  0  1 V2000
  145.3498  138.0944  153.6214 O   0  0  0  0  0  0  0  0  0  0  0  0
  146.3345  137.5380  153.1357 C   0  0  0  0  0  0  0  0  0  0  0  0
  146.2801  136.3574  152.5039 N   0  0  0  0  0  0  0  0  0  0  0  0
  145.0690  135.5687  152.3053 C   0  0  0  0  0  0  0  0  0  0  0  0
  145.1714  134.6617  151.0651 C   0  0  2  0  0  0  0  0  0  0  0  0
  144.0861  133.6079  150.9575 C   0  0  0  0  0  0  0  0  0  0  0  0
  144.7110  132.6092  149.9884 C   0  0  0  0  0  0  0  0  0  0  0  0
  146.1168  132.6788  150.2085 O   0  0  0  0  0  0  0  0  0  0  0  0
  146.4298  133.7949  151.0365 C   0  0  0  0  0  0  0  0  0  0  0  0
  147.5938  138.0054  153.1825 N   0  0  0  0  0  0  0  0  0  0  0  0
  148.0621  139.2274  153.7358 C   0  0  0  0  0  0  0  0  0  0  0  0
  147.2601  140.3816  153.9092 C   0  0  0  0  0  0  0  0  0  0  0  0
  147.8476  141.5418  154.4495 C   0  0  0  0  0  0  0  0  0  0  0  0
  149.2138  141.5083  154.7904 C   0  0  0  0  0  0  0  0  0  0  0  0
  149.9929  140.4199  154.6179 N   0  0  0  0  0  0  0  0  0  0  0  0
  149.4232  139.3116  154.0981 C   0  0  0  0  0  0  0  0  0  0  0  0
  147.1391  135.9714  152.1402 H   0  0  0  0  0  0  0  0  0  0  0  0
  144.8598  134.9703  153.1937 H   0  0  0  0  0  0  0  0  0  0  0  0
  144.2317  136.2586  152.1975 H   0  0  0  0  0  0  0  0  0  0  0  0
  145.1540  135.2730  150.1608 H   0  0  0  0  0  0  0  0  0  0  0  0
  143.9175  133.1339  151.9255 H   0  0  0  0  0  0  0  0  0  0  0  0
  143.1352  134.0045  150.6001 H   0  0  0  0  0  0  0  0  0  0  0  0
  144.3342  131.5965  150.1342 H   0  0  0  0  0  0  0  0  0  0  0  0
  144.5071  132.9016  148.9576 H   0  0  0  0  0  0  0  0  0  0  0  0
  147.2993  134.3359  150.6622 H   0  0  0  0  0  0  0  0  0  0  0  0
  146.6680  133.4231  152.0341 H   0  0  0  0  0  0  0  0  0  0  0  0
  148.3097  137.3908  152.8234 H   0  0  0  0  0  0  0  0  0  0  0  0
  146.2193  140.4057  153.6263 H   0  0  0  0  0  0  0  0  0  0  0  0
  147.2649  142.4394  154.5950 H   0  0  0  0  0  0  0  0  0  0  0  0
  149.6954  142.3811  155.2062 H   0  0  0  0  0  0  0  0  0  0  0  0
  150.0772  138.4611  153.9712 H   0  0  0  0  0  0  0  0  0  0  0  0
  1  2  2  0  0  0  0
  2  3  1  0  0  0  0
  2 10  1  0  0  0  0
  3  4  1  0  0  0  0
  3 17  1  0  0  0  0
  4  5  1  0  0  0  0
  4 18  1  0  0  0  0
  4 19  1  0  0  0  0
  5  9  1  0  0  0  0
  5  6  1  0  0  0  0
  5 20  1  0  0  0  0
  6  7  1  0  0  0  0
  6 21  1  0  0  0  0
  6 22  1  0  0  0  0
  7  8  1  0  0  0  0
  7 23  1  0  0  0  0
  7 24  1  0  0  0  0
  8  9  1  0  0  0  0
  9 25  1  0  0  0  0
  9 26  1  0  0  0  0
 10 11  1  0  0  0  0
 10 27  1  0  0  0  0
 11 16  1  0  0  0  0
 11 12  2  0  0  0  0
 12 13  1  0  0  0  0
 12 28  1  0  0  0  0
 13 14  2  0  0  0  0
 13 29  1  0  0  0  0
 14 15  1  0  0  0  0
 14 30  1  0  0  0  0
 15 16  2  0  0  0  0
 16 31  1  0  0  0  0
M  END
> <s_m_source_file>
AV-unprocessed.smi

> <i_m_source_file_index>
1450

> <i_lp_mmshare_version>
43012

> <i_f3d_flags>
0

> <s_epik_input>
W2NIXTFuW2NIXVtjSF1bY0hdYzFbTkhdQyg9TylbTkhdW0NIMl1bQ0BASF0yW0NIMl1bQ0gyXU9bQ0gyXTI=

> <s_epik_cmdline>
J2VwaWtfcHl0aG9uJywgJy1waCcsICc3LjAnLCAnLXRuJywgJzgnLCAnLW1hJywgJzIwMCcsICctbWV0YWxfYmluZGluZycsICctaW1hZScsICc8aW5maWxlLm1hZT4nLCAnLW9tYWUnLCAnPG91dGZpbGUubWFlPic=

> <r_epik_Ionization_Penalty>
0.00478342

> <r_epik_Ionization_Penalty_Charging>
0

> <r_epik_Ionization_Penalty_Neutral>
0.00478342

> <r_epik_State_Penalty>
0.0034384

> <r_epik_Charging_Adjusted_Penalty>
0.0034384

> <i_epik_Tot_Q>
0

> <i_epik_Tot_abs_Q>
0

> <r_epik_Metal_State_Penalty>
-0

> <b_epik_Metal_Only>
0

> <s_lp_Force_Field>
OPLS_2005

> <r_lp_Energy>
20.8722

> <b_lp_Chiralities_Consistent>
1

> <s_lp_Variant>
AV-unprocessed.smi:1450-1

> <Gold.Version>
5.8.1

> <Gold.Id.Protein>
6NUR|6NUR_protein|mol2

> <Gold.PLP.Fitness>
38.2790

> <Gold.PLP.PLP>
-27.3085

> <Gold.PLP.part.hbond>
-3.0000

> <Gold.PLP.part.metal>
0.0000

> <Gold.PLP.part.buried>
-3.5097

> <Gold.PLP.part.nonpolar>
-22.1149

> <Gold.PLP.part.repulsive>
0.6659

> <Gold.PLP.ligand.clash>
0.0000

> <Gold.PLP.ligand.torsion>
0.3495

> <Gold.PLP.Chemscore.Hbond>
2.8880

> <Gold.PLP.Chemscore.CHOScore>
1.0000

> <Gold.PLP.Chemscore.Metal>
0.0000

> <Gold.Chemscore.Hbonds>
donor molecule, donor type, donor heavy atom, donor atom, acceptor molecule, acceptor atom, score
      L1  H     3    17       P1  7948  0.94
      L1  H    10    27       P1  7948  1.00
      P1  H  7989  7998       L1    15  0.93
      L1  C    14    30       P1  8028  1.00

> <Gold.PLP.Chemscore.Internal.Correction>
0.0055

> <Gold.Rescore>
     Score         DG    S(hbond)    S(metal)    S(lipo)     H(rot)  DE(clash)    DE(int)     intcor
     16.24     -17.82       2.38        0.00      64.61       1.24       0.20       1.38       ----

> <Gold.Chemscore.Fitness>
16.2401

> <Gold.Chemscore.DG>
-17.8207

> <Gold.Chemscore.ZeroCoef>
-5.4800

> <Gold.Chemscore.Hbond>
2.3812

> <Gold.Chemscore.Metal>
0.0000

> <Gold.Chemscore.Lipo>
64.6091

> <Gold.Chemscore.Internal_Hbond>
0.0000

> <Gold.Chemscore.DEClash>
0.1970

> <Gold.Chemscore.DEInternal>
1.3836

> <Gold.Chemscore.Rot>
1.2390

> <Gold.Chemscore.Internal.Correction>
   9.000000E+99

> <Gold.Chemscore.Hbonds>
donor molecule, donor type, donor heavy atom, donor atom, acceptor molecule, acceptor atom, score
      L1  H     3    17       P1  7948  0.92
      L1  H    10    27       P1  7948  0.98
      P1  H  7989  7998       L1    15  0.41

> <Gold.Chemscore.Hbond.Weighted>
-7.9532

> <Gold.Chemscore.Metal.Weighted>
-0.0000

> <Gold.Chemscore.Lipo.Weighted>
-7.5593

> <Gold.Chemscore.Internal_Hbond.Weighted>
0.0000

> <Gold.Chemscore.DEClash.Weighted>
0.1970

> <Gold.Chemscore.DEInternal.Weighted>
1.3836

> <Gold.Chemscore.Rot.Weighted>
3.1718

> <Gold.Chemscore.Internal.Correction.Weighted>
   9.000000E+99

> <Gold.Protein.RotatedTorsions>
[ 6907 6896 6895 6894 ] final  144.89 input  -60.11 | X-H torsion
[ 7974 7965 7964 7962 ] final -138.71 input  175.53 | X-H torsion
[ 8008 7997 7996 7995 ] final  174.36 input   59.86 | X-H torsion
[ 10167 10162 10161 10158 ] final  126.72 input  -65.29 | X-H torsion
[ 10718 10713 10712 10709 ] final -114.19 input   66.30 | X-H torsion
[ 10763 10752 10751 10750 ] final   16.29 input  -60.55 | X-H torsion
[ 11005 11000 10999 10996 ] final   60.69 input  -57.11 | X-H torsion

> <Gold.Protein.ActiveResidues>
 VAL166  LYS551  ARG553  GLY616  TRP617  ASP618  TYR619  PRO620  LYS621  CYS622 
 ASP623  PHE694  ASN695  SER759  ASP760  ASP761  ALA762  ILE779  LEU786  VAL792 
 PHE793  MET794  SER795  GLU796  ALA797  LYS798  CYS799  TRP800  GLU811  SER814 

> <Gold.Protein.RotatedAtoms>
  152.1879  133.4753  159.4992 H   0  0  0  0  0  0  0  0  0  0  0  0  # atno 6907 bound_to 6896
  150.6946  134.1749  159.4235 H   0  0  0  0  0  0  0  0  0  0  0  0  # atno 6908 bound_to 6896
  151.9663  135.0098  160.0601 H   0  0  0  0  0  0  0  0  0  0  0  0  # atno 6909 bound_to 6896
  144.8736  140.6404  143.5251 H   0  0  0  0  0  0  0  0  0  0  0  0  # atno 7974 bound_to 7965
  156.0981  140.1436  156.9503 H   0  0  0  0  0  0  0  0  0  0  0  0  # atno 8008 bound_to 7997
  154.4685  140.0918  156.7128 H   0  0  0  0  0  0  0  0  0  0  0  0  # atno 8009 bound_to 7997
  155.4806  140.3445  155.4341 H   0  0  0  0  0  0  0  0  0  0  0  0  # atno 8010 bound_to 7997
  139.5616  144.6885  151.4027 H   0  0  0  0  0  0  0  0  0  0  0  0  # atno 10167 bound_to 10162
  156.0814  130.6013  150.8742 H   0  0  0  0  0  0  0  0  0  0  0  0  # atno 10718 bound_to 10713
  153.1444  135.6766  153.8977 H   0  0  0  0  0  0  0  0  0  0  0  0  # atno 10763 bound_to 10752
  153.8423  135.3104  155.3428 H   0  0  0  0  0  0  0  0  0  0  0  0  # atno 10764 bound_to 10752
  154.7814  135.4886  153.9936 H   0  0  0  0  0  0  0  0  0  0  0  0  # atno 10765 bound_to 10752
  140.0214  134.6147  155.9634 H   0  0  0  0  0  0  0  0  0  0  0  0  # atno 11005 bound_to 11000
  145.4084  139.1584  143.4139 LP  0  0  0  0  0  0  0  0  0  0  0  0  # atno 17320 bound_to 7965
  146.2947  140.4186  142.8726 LP  0  0  0  0  0  0  0  0  0  0  0  0  # atno 17321 bound_to 7965
  140.6896  143.7892  150.7236 LP  0  0  0  0  0  0  0  0  0  0  0  0  # atno 17342 bound_to 10162
  140.1370  143.4475  152.2218 LP  0  0  0  0  0  0  0  0  0  0  0  0  # atno 17343 bound_to 10162
  157.5932  131.0944  150.9084 LP  0  0  0  0  0  0  0  0  0  0  0  0  # atno 17370 bound_to 10713
  156.9256  130.5331  149.5279 LP  0  0  0  0  0  0  0  0  0  0  0  0  # atno 17371 bound_to 10713
  141.1776  133.6542  156.4890 LP  0  0  0  0  0  0  0  0  0  0  0  0  # atno 17394 bound_to 11000
  140.4381  134.7041  157.4977 LP  0  0  0  0  0  0  0  0  0  0  0  0  # atno 17395 bound_to 11000

$$$$
