AV-unprocessed.smi:1695|AV-procd|sdf|6791|dock3
  -GOLD-   22720 7553D 1   1.00000     0.00000
 Structure written by MMmdl.
 51 53  0  0  0  0  0  0  0  0  2 V2000
  153.6931  142.4176  160.1739 C   0  0  0  0  0  0  0  0  0  0  0  0
  152.5894  142.1617  159.1627 C   0  0  0  0  0  0  0  0  0  0  0  0
  152.1266  140.8405  158.9707 C   0  0  0  0  0  0  0  0  0  0  0  0
  151.1004  140.5603  158.0424 C   0  0  0  0  0  0  0  0  0  0  0  0
  150.4993  139.3608  157.7021 N   0  0  0  0  0  0  0  0  0  0  0  0
  149.6158  139.7523  156.7891 C   0  0  0  0  0  0  0  0  0  0  0  0
  149.5673  141.0675  156.5024 N   0  0  0  0  0  0  0  0  0  0  0  0
  148.6781  141.7205  155.5592 C   0  0  0  0  0  0  0  0  0  0  0  0
  148.3222  140.8160  154.3628 C   0  0  2  0  0  0  0  0  0  0  0  0
  149.3169  140.9953  153.3750 O   0  0  0  0  0  0  0  0  0  0  0  0
  146.9420  141.1272  153.7423 C   0  0  0  0  0  0  0  0  0  0  0  0
  146.2832  139.9196  153.1823 N   0  3  1  0  0  0  0  0  0  0  0  0
  146.9790  139.3734  151.9865 C   0  0  0  0  0  0  0  0  0  0  0  0
  146.1881  138.2086  151.3692 C   0  0  0  0  0  0  0  0  0  0  0  0
  145.9467  137.0906  152.4014 C   0  0  2  0  0  0  0  0  0  0  0  0
  145.1095  135.9539  151.7995 C   0  0  0  0  0  0  0  0  0  0  0  0
  144.0167  136.2979  151.1136 N   0  0  0  0  0  0  0  0  0  0  0  0
  145.4428  134.7803  151.9528 O   0  0  0  0  0  0  0  0  0  0  0  0
  145.2564  137.6925  153.6400 C   0  0  0  0  0  0  0  0  0  0  0  0
  146.0650  138.8697  154.2102 C   0  0  0  0  0  0  0  0  0  0  0  0
  150.5443  141.6469  157.3057 C   0  0  0  0  0  0  0  0  0  0  0  0
  150.9987  142.9656  157.4855 C   0  0  0  0  0  0  0  0  0  0  0  0
  152.0260  143.2276  158.4163 C   0  0  0  0  0  0  0  0  0  0  0  0
  152.5106  144.6543  158.6030 C   0  0  0  0  0  0  0  0  0  0  0  0
  153.9740  141.5031  160.6970 H   0  0  0  0  0  0  0  0  0  0  0  0
  153.3682  143.1420  160.9209 H   0  0  0  0  0  0  0  0  0  0  0  0
  154.5822  142.8065  159.6772 H   0  0  0  0  0  0  0  0  0  0  0  0
  152.5569  140.0283  159.5380 H   0  0  0  0  0  0  0  0  0  0  0  0
  148.9598  139.0437  156.3050 H   0  0  0  0  0  0  0  0  0  0  0  0
  147.7760  142.0312  156.0879 H   0  0  0  0  0  0  0  0  0  0  0  0
  149.1644  142.6333  155.2117 H   0  0  0  0  0  0  0  0  0  0  0  0
  148.3656  139.7789  154.6940 H   0  0  0  0  0  0  0  0  0  0  0  0
  149.2058  140.3353  152.7074 H   0  0  0  0  0  0  0  0  0  0  0  0
  146.2708  141.5767  154.4749 H   0  0  0  0  0  0  0  0  0  0  0  0
  147.0784  141.8752  152.9596 H   0  0  0  0  0  0  0  0  0  0  0  0
  147.1075  140.1494  151.2330 H   0  0  0  0  0  0  0  0  0  0  0  0
  147.9794  139.0391  152.2663 H   0  0  0  0  0  0  0  0  0  0  0  0
  145.2376  138.5848  150.9865 H   0  0  0  0  0  0  0  0  0  0  0  0
  146.7324  137.8144  150.5097 H   0  0  0  0  0  0  0  0  0  0  0  0
  146.9144  136.6876  152.7066 H   0  0  0  0  0  0  0  0  0  0  0  0
  143.4331  135.5870  150.6972 H   0  0  0  0  0  0  0  0  0  0  0  0
  143.7773  137.2739  151.0125 H   0  0  0  0  0  0  0  0  0  0  0  0
  144.2528  138.0375  153.3846 H   0  0  0  0  0  0  0  0  0  0  0  0
  145.1334  136.9292  154.4094 H   0  0  0  0  0  0  0  0  0  0  0  0
  147.0281  138.5209  154.5869 H   0  0  0  0  0  0  0  0  0  0  0  0
  145.5258  139.2920  155.0593 H   0  0  0  0  0  0  0  0  0  0  0  0
  150.5604  143.7693  156.9129 H   0  0  0  0  0  0  0  0  0  0  0  0
  152.0171  145.3362  157.9103 H   0  0  0  0  0  0  0  0  0  0  0  0
  153.5845  144.7211  158.4274 H   0  0  0  0  0  0  0  0  0  0  0  0
  152.3036  144.9978  159.6166 H   0  0  0  0  0  0  0  0  0  0  0  0
  145.3646  140.2140  152.8818 H   0  0  0  0  0  0  0  0  0  0  0  0
  1  2  1  0  0  0  0
  1 25  1  0  0  0  0
  1 26  1  0  0  0  0
  1 27  1  0  0  0  0
  2 23  1  0  0  0  0
  2  3  2  0  0  0  0
  3  4  1  0  0  0  0
  3 28  1  0  0  0  0
  4 21  2  0  0  0  0
  4  5  1  0  0  0  0
  5  6  2  0  0  0  0
  6  7  1  0  0  0  0
  6 29  1  0  0  0  0
  7  8  1  0  0  0  0
  7 21  1  0  0  0  0
  8  9  1  0  0  0  0
  8 30  1  0  0  0  0
  8 31  1  0  0  0  0
  9 10  1  0  0  0  0
  9 11  1  0  0  0  0
  9 32  1  0  0  0  0
 10 33  1  0  0  0  0
 11 12  1  0  0  0  0
 11 34  1  0  0  0  0
 11 35  1  0  0  0  0
 12 20  1  0  0  0  0
 12 13  1  0  0  0  0
 12 51  1  0  0  0  0
 13 14  1  0  0  0  0
 13 36  1  0  0  0  0
 13 37  1  0  0  0  0
 14 15  1  0  0  0  0
 14 38  1  0  0  0  0
 14 39  1  0  0  0  0
 15 16  1  0  0  0  0
 15 19  1  0  0  0  0
 15 40  1  0  0  0  0
 16 17  1  0  0  0  0
 16 18  2  0  0  0  0
 17 41  1  0  0  0  0
 17 42  1  0  0  0  0
 19 20  1  0  0  0  0
 19 43  1  0  0  0  0
 19 44  1  0  0  0  0
 20 45  1  0  0  0  0
 20 46  1  0  0  0  0
 21 22  1  0  0  0  0
 22 23  2  0  0  0  0
 22 47  1  0  0  0  0
 23 24  1  0  0  0  0
 24 48  1  0  0  0  0
 24 49  1  0  0  0  0
 24 50  1  0  0  0  0
M  CHG  1  12   1
M  END
> <s_m_source_file>
AV-unprocessed.smi

> <i_m_source_file_index>
1695

> <i_lp_mmshare_version>
43012

> <i_f3d_flags>
0

> <s_epik_input>
W0NIM11jKFtjSF0xKWMoW0NIM10pW2NIXWMoYzEyKW4oW2NIXW4yKVtDSDJdW0NASF0oW09IXSlbQ0gyXU4zW0NIMl1bQ0gyXVtDSF0oQyg9TylbTkgyXSlbQ0gyXVtDSDJdMw==

> <s_epik_cmdline>
J2VwaWtfcHl0aG9uJywgJy1waCcsICc3LjAnLCAnLXRuJywgJzgnLCAnLW1hJywgJzIwMCcsICctbWV0YWxfYmluZGluZycsICctaW1hZScsICc8aW5maWxlLm1hZT4nLCAnLW9tYWUnLCAnPG91dGZpbGUubWFlPic=

> <r_epik_Ionization_Penalty>
0.113899

> <r_epik_Ionization_Penalty_Charging>
0.0258844

> <r_epik_Ionization_Penalty_Neutral>
0.0880147

> <r_epik_State_Penalty>
0.0974403

> <r_epik_Charging_Adjusted_Penalty>
0.123325

> <i_epik_Tot_Q>
1

> <i_epik_Tot_abs_Q>
1

> <r_epik_Metal_State_Penalty>
0.0851148

> <b_epik_Metal_Only>
0

> <s_lp_Force_Field>
OPLS_2005

> <r_lp_Energy>
21.0029

> <b_lp_Chiralities_Consistent>
1

> <s_lp_Variant>
AV-unprocessed.smi:1695-3

> <Gold.Version>
5.8.1

> <Gold.Id.Protein>
6NUR|6NUR_protein|mol2

> <Gold.PLP.Fitness>
57.4385

> <Gold.PLP.PLP>
-45.5436

> <Gold.PLP.part.hbond>
-4.4356

> <Gold.PLP.part.metal>
0.0000

> <Gold.PLP.part.buried>
3.4971

> <Gold.PLP.part.nonpolar>
-45.1094

> <Gold.PLP.part.repulsive>
0.1891

> <Gold.PLP.ligand.clash>
0.0000

> <Gold.PLP.ligand.torsion>
1.4644

> <Gold.PLP.Chemscore.Hbond>
4.8867

> <Gold.PLP.Chemscore.CHOScore>
0.0000

> <Gold.PLP.Chemscore.Metal>
0.0000

> <Gold.Chemscore.Hbonds>
donor molecule, donor type, donor heavy atom, donor atom, acceptor molecule, acceptor atom, score
      L1  H    10    33       P1  7957  0.80
      L1  H    12    51       P1 10175  2.00
      L1  H    17    42       P1 10171  0.80
      P1  H  7989  7998       L1    10  0.07
      P1  H  8011  8017       L1    10  0.95

> <Gold.PLP.Chemscore.Internal.Correction>
0.1635

> <Gold.Rescore>
     Score         DG    S(hbond)    S(metal)    S(lipo)     H(rot)  DE(clash)    DE(int)     intcor
     20.19     -24.12       3.26        0.00     128.54       2.85       2.46       1.48       ----

> <Gold.Chemscore.Fitness>
20.1855

> <Gold.Chemscore.DG>
-24.1204

> <Gold.Chemscore.ZeroCoef>
-5.4800

> <Gold.Chemscore.Hbond>
3.2600

> <Gold.Chemscore.Metal>
0.0000

> <Gold.Chemscore.Lipo>
128.5364

> <Gold.Chemscore.Internal_Hbond>
0.0000

> <Gold.Chemscore.DEClash>
2.4581

> <Gold.Chemscore.DEInternal>
1.4768

> <Gold.Chemscore.Rot>
2.8464

> <Gold.Chemscore.Internal.Correction>
   9.000000E+99

> <Gold.Chemscore.Hbonds>
donor molecule, donor type, donor heavy atom, donor atom, acceptor molecule, acceptor atom, score
      L1  H    10    33       P1  7957  0.79
      L1  H    12    51       P1 10175  0.98
      L1  H    17    42       P1 10171  0.80
      P1  H  7989  7998       L1    10  0.01
      P1  H  8011  8017       L1    10  0.21

> <Gold.Chemscore.Hbond.Weighted>
-10.8884

> <Gold.Chemscore.Metal.Weighted>
-0.0000

> <Gold.Chemscore.Lipo.Weighted>
-15.0388

> <Gold.Chemscore.Internal_Hbond.Weighted>
0.0000

> <Gold.Chemscore.DEClash.Weighted>
2.4581

> <Gold.Chemscore.DEInternal.Weighted>
1.4768

> <Gold.Chemscore.Rot.Weighted>
7.2867

> <Gold.Chemscore.Internal.Correction.Weighted>
   9.000000E+99

> <Gold.Protein.RotatedTorsions>
[ 6907 6896 6895 6894 ] final   31.59 input  -60.11 | X-H torsion
[ 7974 7965 7964 7962 ] final  170.12 input  175.53 | X-H torsion
[ 8008 7997 7996 7995 ] final  -96.39 input   59.86 | X-H torsion
[ 10167 10162 10161 10158 ] final -136.44 input  -65.29 | X-H torsion
[ 10718 10713 10712 10709 ] final   96.77 input   66.30 | X-H torsion
[ 10763 10752 10751 10750 ] final   62.05 input  -60.55 | X-H torsion
[ 11005 11000 10999 10996 ] final   67.61 input  -57.11 | X-H torsion

> <Gold.Protein.ActiveResidues>
 VAL166  LYS551  ARG553  GLY616  TRP617  ASP618  TYR619  PRO620  LYS621  CYS622 
 ASP623  PHE694  ASN695  SER759  ASP760  ASP761  ALA762  ILE779  LEU786  VAL792 
 PHE793  MET794  SER795  GLU796  ALA797  LYS798  CYS799  TRP800  GLU811  SER814 

> <Gold.Protein.RotatedAtoms>
  152.0624  134.9586  160.0574 H   0  0  0  0  0  0  0  0  0  0  0  0  # atno 6907 bound_to 6896
  152.0944  133.4212  159.4566 H   0  0  0  0  0  0  0  0  0  0  0  0  # atno 6908 bound_to 6896
  150.6837  134.2753  159.4648 H   0  0  0  0  0  0  0  0  0  0  0  0  # atno 6909 bound_to 6896
  144.7333  139.9155  143.6417 H   0  0  0  0  0  0  0  0  0  0  0  0  # atno 7974 bound_to 7965
  154.7739  140.0472  157.1073 H   0  0  0  0  0  0  0  0  0  0  0  0  # atno 8008 bound_to 7997
  154.9787  140.3098  155.4936 H   0  0  0  0  0  0  0  0  0  0  0  0  # atno 8009 bound_to 7997
  156.2926  140.2240  156.4884 H   0  0  0  0  0  0  0  0  0  0  0  0  # atno 8010 bound_to 7997
  139.8677  143.6996  152.2643 H   0  0  0  0  0  0  0  0  0  0  0  0  # atno 10167 bound_to 10162
  157.6922  131.0588  150.4542 H   0  0  0  0  0  0  0  0  0  0  0  0  # atno 10718 bound_to 10713
  152.9970  135.5479  154.6132 H   0  0  0  0  0  0  0  0  0  0  0  0  # atno 10763 bound_to 10752
  154.5448  135.2822  155.1065 H   0  0  0  0  0  0  0  0  0  0  0  0  # atno 10764 bound_to 10752
  154.2328  135.6430  153.5233 H   0  0  0  0  0  0  0  0  0  0  0  0  # atno 10765 bound_to 10752
  139.9761  134.6821  156.0352 H   0  0  0  0  0  0  0  0  0  0  0  0  # atno 11005 bound_to 11000
  146.0969  139.3962  143.0371 LP  0  0  0  0  0  0  0  0  0  0  0  0  # atno 17320 bound_to 7965
  145.7633  140.9926  143.1188 LP  0  0  0  0  0  0  0  0  0  0  0  0  # atno 17321 bound_to 7965
  139.7313  144.7581  151.0798 LP  0  0  0  0  0  0  0  0  0  0  0  0  # atno 17342 bound_to 10162
  140.7765  143.5085  150.9682 LP  0  0  0  0  0  0  0  0  0  0  0  0  # atno 17343 bound_to 10162
  156.4891  130.4091  149.6417 LP  0  0  0  0  0  0  0  0  0  0  0  0  # atno 17370 bound_to 10713
  156.3434  130.7394  151.2343 LP  0  0  0  0  0  0  0  0  0  0  0  0  # atno 17371 bound_to 10713
  141.1437  133.6560  156.3806 LP  0  0  0  0  0  0  0  0  0  0  0  0  # atno 17394 bound_to 11000
  140.5193  134.6320  157.5312 LP  0  0  0  0  0  0  0  0  0  0  0  0  # atno 17395 bound_to 11000

$$$$
