AV-unprocessed.smi:932|AV-procd|sdf|4200|dock2
  -GOLD-   22720 2103D 1   1.00000     0.00000
 Structure written by MMmdl.
 43 44  0  0  0  0  0  0  0  0  1 V2000
  146.1210  138.5686  154.2884 O   0  0  0  0  0  0  0  0  0  0  0  0
  146.8273  137.8223  153.6130 C   0  0  0  0  0  0  0  0  0  0  0  0
  146.3327  136.8814  152.7913 N   0  0  0  0  0  0  0  0  0  0  0  0
  144.9161  136.6165  152.5744 C   0  0  0  0  0  0  0  0  0  0  0  0
  144.6565  136.0669  151.1620 C   0  0  0  0  0  0  0  0  0  0  0  0
  145.0299  134.6710  151.0560 N   0  0  0  0  0  0  0  0  0  0  0  0
  146.2915  134.1217  151.2441 C   0  0  0  0  0  0  0  0  0  0  0  0
  146.1645  132.7666  151.0362 C   0  0  0  0  0  0  0  0  0  0  0  0
  144.8420  132.4622  150.7210 N   0  0  0  0  0  0  0  0  0  0  0  0
  144.2308  133.6396  150.7505 C   0  0  0  0  0  0  0  0  0  0  0  0
  148.1708  137.9035  153.6373 N   0  0  0  0  0  0  0  0  0  0  0  0
  149.0217  138.8097  154.4154 C   0  0  0  0  0  0  0  0  0  0  0  0
  148.6056  140.2551  154.0633 C   0  0  0  0  0  0  0  0  0  0  0  0
  149.2559  141.3997  154.8658 C   0  0  0  0  0  0  0  0  0  0  0  0
  149.3598  141.1744  156.3878 C   0  0  0  0  0  0  0  0  0  0  0  0
  150.7621  140.7664  156.8822 C   0  0  0  0  0  0  0  0  0  0  0  0
  151.2618  139.3650  156.4773 C   0  0  0  0  0  0  0  0  0  0  0  0
  151.5733  139.2041  154.9758 C   0  0  0  0  0  0  0  0  0  0  0  0
  150.5064  138.4598  154.1489 C   0  0  0  0  0  0  0  0  0  0  0  0
  146.9878  136.3149  152.2725 H   0  0  0  0  0  0  0  0  0  0  0  0
  144.5898  135.8925  153.3212 H   0  0  0  0  0  0  0  0  0  0  0  0
  144.3366  137.5251  152.7472 H   0  0  0  0  0  0  0  0  0  0  0  0
  143.6019  136.1594  150.8988 H   0  0  0  0  0  0  0  0  0  0  0  0
  145.2200  136.6363  150.4213 H   0  0  0  0  0  0  0  0  0  0  0  0
  147.1511  134.7226  151.5023 H   0  0  0  0  0  0  0  0  0  0  0  0
  146.9168  131.9934  151.0883 H   0  0  0  0  0  0  0  0  0  0  0  0
  143.1762  133.7553  150.5466 H   0  0  0  0  0  0  0  0  0  0  0  0
  148.6632  137.2691  153.0252 H   0  0  0  0  0  0  0  0  0  0  0  0
  148.7913  138.6456  155.4664 H   0  0  0  0  0  0  0  0  0  0  0  0
  148.7689  140.4357  152.9998 H   0  0  0  0  0  0  0  0  0  0  0  0
  147.5270  140.3337  154.2088 H   0  0  0  0  0  0  0  0  0  0  0  0
  150.2273  141.6610  154.4499 H   0  0  0  0  0  0  0  0  0  0  0  0
  148.6482  142.2896  154.6964 H   0  0  0  0  0  0  0  0  0  0  0  0
  149.1180  142.1196  156.8751 H   0  0  0  0  0  0  0  0  0  0  0  0
  148.5998  140.4777  156.7416 H   0  0  0  0  0  0  0  0  0  0  0  0
  151.4896  141.5157  156.5672 H   0  0  0  0  0  0  0  0  0  0  0  0
  150.7549  140.8132  157.9716 H   0  0  0  0  0  0  0  0  0  0  0  0
  152.1899  139.1928  157.0233 H   0  0  0  0  0  0  0  0  0  0  0  0
  150.5838  138.5878  156.8300 H   0  0  0  0  0  0  0  0  0  0  0  0
  151.8091  140.1671  154.5264 H   0  0  0  0  0  0  0  0  0  0  0  0
  152.4993  138.6354  154.8818 H   0  0  0  0  0  0  0  0  0  0  0  0
  150.6448  137.3951  154.3405 H   0  0  0  0  0  0  0  0  0  0  0  0
  150.7280  138.5918  153.0892 H   0  0  0  0  0  0  0  0  0  0  0  0
  1  2  2  0  0  0  0
  2  3  1  0  0  0  0
  2 11  1  0  0  0  0
  3  4  1  0  0  0  0
  3 20  1  0  0  0  0
  4  5  1  0  0  0  0
  4 21  1  0  0  0  0
  4 22  1  0  0  0  0
  5  6  1  0  0  0  0
  5 23  1  0  0  0  0
  5 24  1  0  0  0  0
  6 10  1  0  0  0  0
  6  7  1  0  0  0  0
  7  8  2  0  0  0  0
  7 25  1  0  0  0  0
  8  9  1  0  0  0  0
  8 26  1  0  0  0  0
  9 10  2  0  0  0  0
 10 27  1  0  0  0  0
 11 12  1  0  0  0  0
 11 28  1  0  0  0  0
 12 19  1  0  0  0  0
 12 13  1  0  0  0  0
 12 29  1  0  0  0  0
 13 14  1  0  0  0  0
 13 30  1  0  0  0  0
 13 31  1  0  0  0  0
 14 15  1  0  0  0  0
 14 32  1  0  0  0  0
 14 33  1  0  0  0  0
 15 16  1  0  0  0  0
 15 34  1  0  0  0  0
 15 35  1  0  0  0  0
 16 17  1  0  0  0  0
 16 36  1  0  0  0  0
 16 37  1  0  0  0  0
 17 18  1  0  0  0  0
 17 38  1  0  0  0  0
 17 39  1  0  0  0  0
 18 19  1  0  0  0  0
 18 40  1  0  0  0  0
 18 41  1  0  0  0  0
 19 42  1  0  0  0  0
 19 43  1  0  0  0  0
M  END
> <s_m_source_file>
AV-unprocessed.smi

> <i_m_source_file_index>
932

> <i_lp_mmshare_version>
43012

> <i_f3d_flags>
0

> <s_epik_input>
W2NIXTFuW2NIXVtjSF1uMVtDSDJdW0NIMl1bTkhdQyg9TylbTkhdW0NIXTJbQ0gyXVtDSDJdW0NIMl1bQ0gyXVtDSDJdW0NIMl1bQ0gyXTI=

> <s_epik_cmdline>
J2VwaWtfcHl0aG9uJywgJy1waCcsICc3LjAnLCAnLXRuJywgJzgnLCAnLW1hJywgJzIwMCcsICctbWV0YWxfYmluZGluZycsICctaW1hZScsICc8aW5maWxlLm1hZT4nLCAnLW9tYWUnLCAnPG91dGZpbGUubWFlPic=

> <r_lp_tautomer_probability>
1

> <r_epik_Ionization_Penalty>
0.623246

> <r_epik_Ionization_Penalty_Charging>
0.623187

> <r_epik_Ionization_Penalty_Neutral>
5.92239e-05

> <r_epik_State_Penalty>
0.639392

> <r_epik_Charging_Adjusted_Penalty>
1.26258

> <i_epik_Tot_Q>
0

> <i_epik_Tot_abs_Q>
0

> <r_epik_Metal_State_Penalty>
0.307266

> <b_epik_Metal_Only>
0

> <s_lp_Force_Field>
OPLS_2005

> <r_lp_Energy>
28.9425

> <b_lp_Chiralities_Consistent>
1

> <s_lp_Variant>
AV-unprocessed.smi:932-2

> <Gold.Version>
5.8.1

> <Gold.Id.Protein>
6NUR|6NUR_protein|mol2

> <Gold.PLP.Fitness>
46.3706

> <Gold.PLP.PLP>
-32.4128

> <Gold.PLP.part.hbond>
-2.0000

> <Gold.PLP.part.metal>
0.0000

> <Gold.PLP.part.buried>
-1.9107

> <Gold.PLP.part.nonpolar>
-29.4622

> <Gold.PLP.part.repulsive>
0.2667

> <Gold.PLP.ligand.clash>
0.0000

> <Gold.PLP.ligand.torsion>
0.2634

> <Gold.PLP.Chemscore.Hbond>
1.8160

> <Gold.PLP.Chemscore.CHOScore>
2.9978

> <Gold.PLP.Chemscore.Metal>
0.0000

> <Gold.Chemscore.Hbonds>
donor molecule, donor type, donor heavy atom, donor atom, acceptor molecule, acceptor atom, score
      L1  H     3    20       P1  7948  0.82
      L1  H    11    28       P1  7948  1.00
      L1  C     7    25       P1  7948  1.00
      L1  C     8    26       P1 10747  1.00
      L1  C    10    27       P1 10186  1.00

> <Gold.PLP.Chemscore.Internal.Correction>
0.0431

> <Gold.Rescore>
     Score         DG    S(hbond)    S(metal)    S(lipo)     H(rot)  DE(clash)    DE(int)     intcor
     15.30     -15.63       1.88        0.00      73.10       1.83       0.02       0.31       ----

> <Gold.Chemscore.Fitness>
15.3013

> <Gold.Chemscore.DG>
-15.6297

> <Gold.Chemscore.ZeroCoef>
-5.4800

> <Gold.Chemscore.Hbond>
1.8813

> <Gold.Chemscore.Metal>
0.0000

> <Gold.Chemscore.Lipo>
73.0990

> <Gold.Chemscore.Internal_Hbond>
0.0000

> <Gold.Chemscore.DEClash>
0.0220

> <Gold.Chemscore.DEInternal>
0.3063

> <Gold.Chemscore.Rot>
1.8307

> <Gold.Chemscore.Internal.Correction>
   9.000000E+99

> <Gold.Chemscore.Hbonds>
donor molecule, donor type, donor heavy atom, donor atom, acceptor molecule, acceptor atom, score
      L1  H     3    20       P1  7948  0.79
      L1  H    11    28       P1  7948  0.97

> <Gold.Chemscore.Hbond.Weighted>
-6.2837

> <Gold.Chemscore.Metal.Weighted>
-0.0000

> <Gold.Chemscore.Lipo.Weighted>
-8.5526

> <Gold.Chemscore.Internal_Hbond.Weighted>
0.0000

> <Gold.Chemscore.DEClash.Weighted>
0.0220

> <Gold.Chemscore.DEInternal.Weighted>
0.3063

> <Gold.Chemscore.Rot.Weighted>
4.6866

> <Gold.Chemscore.Internal.Correction.Weighted>
   9.000000E+99

> <Gold.Protein.RotatedTorsions>
[ 6907 6896 6895 6894 ] final  -86.29 input  -60.11 | X-H torsion
[ 7974 7965 7964 7962 ] final   52.82 input  175.53 | X-H torsion
[ 8008 7997 7996 7995 ] final  104.72 input   59.86 | X-H torsion
[ 10167 10162 10161 10158 ] final -119.05 input  -65.29 | X-H torsion
[ 10718 10713 10712 10709 ] final -117.36 input   66.30 | X-H torsion
[ 10763 10752 10751 10750 ] final  -62.31 input  -60.55 | X-H torsion
[ 11005 11000 10999 10996 ] final   72.39 input  -57.11 | X-H torsion

> <Gold.Protein.ActiveResidues>
 VAL166  LYS551  ARG553  GLY616  TRP617  ASP618  TYR619  PRO620  LYS621  CYS622 
 ASP623  PHE694  ASN695  SER759  ASP760  ASP761  ALA762  ILE779  LEU786  VAL792 
 PHE793  MET794  SER795  GLU796  ALA797  LYS798  CYS799  TRP800  GLU811  SER814 

> <Gold.Protein.RotatedAtoms>
  150.6867  134.3073  159.4731 H   0  0  0  0  0  0  0  0  0  0  0  0  # atno 6907 bound_to 6896
  152.0963  134.9370  160.0580 H   0  0  0  0  0  0  0  0  0  0  0  0  # atno 6908 bound_to 6896
  152.0666  133.4052  159.4478 H   0  0  0  0  0  0  0  0  0  0  0  0  # atno 6909 bound_to 6896
  145.9775  139.4209  143.0152 H   0  0  0  0  0  0  0  0  0  0  0  0  # atno 7974 bound_to 7965
  156.1597  140.3143  155.8787 H   0  0  0  0  0  0  0  0  0  0  0  0  # atno 8008 bound_to 7997
  155.3806  140.0487  157.3060 H   0  0  0  0  0  0  0  0  0  0  0  0  # atno 8009 bound_to 7997
  154.5135  140.2173  155.9121 H   0  0  0  0  0  0  0  0  0  0  0  0  # atno 8010 bound_to 7997
  140.0508  143.5061  152.2082 H   0  0  0  0  0  0  0  0  0  0  0  0  # atno 10167 bound_to 10162
  156.1028  130.6186  150.9154 H   0  0  0  0  0  0  0  0  0  0  0  0  # atno 10718 bound_to 10713
  154.2980  135.6240  153.5413 H   0  0  0  0  0  0  0  0  0  0  0  0  # atno 10763 bound_to 10752
  152.9844  135.5671  154.5316 H   0  0  0  0  0  0  0  0  0  0  0  0  # atno 10764 bound_to 10752
  154.4940  135.2868  155.1450 H   0  0  0  0  0  0  0  0  0  0  0  0  # atno 10765 bound_to 10752
  139.9493  134.7256  156.0901 H   0  0  0  0  0  0  0  0  0  0  0  0  # atno 11005 bound_to 11000
  145.7818  140.9853  143.1095 LP  0  0  0  0  0  0  0  0  0  0  0  0  # atno 17320 bound_to 7965
  144.6852  139.9573  143.7479 LP  0  0  0  0  0  0  0  0  0  0  0  0  # atno 17321 bound_to 7965
  139.5954  144.7565  151.3299 LP  0  0  0  0  0  0  0  0  0  0  0  0  # atno 17342 bound_to 10162
  140.7217  143.7116  150.7765 LP  0  0  0  0  0  0  0  0  0  0  0  0  # atno 17343 bound_to 10162
  157.6201  131.0930  150.8638 LP  0  0  0  0  0  0  0  0  0  0  0  0  # atno 17370 bound_to 10713
  156.8763  130.5163  149.5293 LP  0  0  0  0  0  0  0  0  0  0  0  0  # atno 17371 bound_to 10713
  141.1152  133.6630  156.3076 LP  0  0  0  0  0  0  0  0  0  0  0  0  # atno 17394 bound_to 11000
  140.5758  134.5795  157.5468 LP  0  0  0  0  0  0  0  0  0  0  0  0  # atno 17395 bound_to 11000

$$$$
