AV-unprocessed.smi:99|AV-procd|sdf|868|dock10
  -GOLD-   2262017323D 1   1.00000     0.00000
 Structure written by MMmdl.
 53 56  0  0  0  0  0  0  0  0  1 V2000
  148.9358  133.0661  158.8951 O   0  0  0  0  0  0  0  0  0  0  0  0
  147.7767  133.4781  158.9760 C   0  0  0  0  0  0  0  0  0  0  0  0
  146.9269  133.5222  157.9315 O   0  0  0  0  0  0  0  0  0  0  0  0
  147.4200  133.3648  156.6117 C   0  0  0  0  0  0  0  0  0  0  0  0
  147.7881  134.7464  156.0424 C   0  0  1  0  0  0  0  0  0  0  0  0
  148.9155  135.2523  156.7541 O   0  0  0  0  0  0  0  0  0  0  0  0
  150.1075  134.9459  156.0846 C   0  0  2  0  0  0  0  0  0  0  0  0
  150.9063  136.2171  155.9104 N   0  0  0  0  0  0  0  0  0  0  0  0
  150.9515  136.8768  154.6891 C   0  0  0  0  0  0  0  0  0  0  0  0
  151.6659  138.0089  154.4872 C   0  0  0  0  0  0  0  0  0  0  0  0
  152.4438  138.5966  155.5729 C   0  0  0  0  0  0  0  0  0  0  0  0
  153.1173  139.6211  155.4880 O   0  0  0  0  0  0  0  0  0  0  0  0
  152.3813  137.8923  156.7787 N   0  0  0  0  0  0  0  0  0  0  0  0
  151.6537  136.7215  156.9975 C   0  0  0  0  0  0  0  0  0  0  0  0
  151.6897  136.1726  158.0979 O   0  0  0  0  0  0  0  0  0  0  0  0
  149.7556  134.3477  154.7127 C   0  0  1  0  0  0  0  0  0  0  0  0
  149.9566  132.9464  154.7105 O   0  0  0  0  0  0  0  0  0  0  0  0
  148.2849  134.7283  154.5964 C   0  0  1  0  0  0  0  0  0  0  0  0
  147.5279  133.9031  153.7171 O   0  0  0  0  0  0  0  0  0  0  0  0
  146.2368  134.1855  153.4412 C   0  0  0  0  0  0  0  0  0  0  0  0
  145.5367  134.9262  154.1341 O   0  0  0  0  0  0  0  0  0  0  0  0
  145.7493  133.5122  152.2032 C   0  0  0  0  0  0  0  0  0  0  0  0
  144.3578  133.3641  151.9976 C   0  0  0  0  0  0  0  0  0  0  0  0
  143.8670  132.7334  150.8378 C   0  0  0  0  0  0  0  0  0  0  0  0
  144.7621  132.2421  149.8697 C   0  0  0  0  0  0  0  0  0  0  0  0
  146.1487  132.3828  150.0626 C   0  0  0  0  0  0  0  0  0  0  0  0
  146.6415  133.0141  151.2213 C   0  0  0  0  0  0  0  0  0  0  0  0
  147.1694  133.9834  160.2413 C   0  0  0  0  0  0  0  0  0  0  0  0
  145.9511  134.7002  160.1865 C   0  0  0  0  0  0  0  0  0  0  0  0
  145.3512  135.1864  161.3644 C   0  0  0  0  0  0  0  0  0  0  0  0
  145.9631  134.9631  162.6116 C   0  0  0  0  0  0  0  0  0  0  0  0
  147.1760  134.2532  162.6793 C   0  0  0  0  0  0  0  0  0  0  0  0
  147.7771  133.7651  161.5024 C   0  0  0  0  0  0  0  0  0  0  0  0
  152.9116  138.2588  157.5558 H   0  0  0  0  0  0  0  0  0  0  0  0
  148.2806  132.6951  156.6078 H   0  0  0  0  0  0  0  0  0  0  0  0
  146.6408  132.9038  156.0034 H   0  0  0  0  0  0  0  0  0  0  0  0
  146.9390  135.4234  156.1409 H   0  0  0  0  0  0  0  0  0  0  0  0
  150.6977  134.2837  156.7213 H   0  0  0  0  0  0  0  0  0  0  0  0
  150.3994  136.4799  153.8500 H   0  0  0  0  0  0  0  0  0  0  0  0
  151.6632  138.4826  153.5159 H   0  0  0  0  0  0  0  0  0  0  0  0
  150.3588  134.7905  153.9185 H   0  0  0  0  0  0  0  0  0  0  0  0
  149.4910  132.5781  153.9751 H   0  0  0  0  0  0  0  0  0  0  0  0
  148.2326  135.7588  154.2411 H   0  0  0  0  0  0  0  0  0  0  0  0
  143.6510  133.7330  152.7269 H   0  0  0  0  0  0  0  0  0  0  0  0
  142.8022  132.6269  150.6911 H   0  0  0  0  0  0  0  0  0  0  0  0
  144.3853  131.7584  148.9805 H   0  0  0  0  0  0  0  0  0  0  0  0
  146.8368  132.0060  149.3203 H   0  0  0  0  0  0  0  0  0  0  0  0
  147.7117  133.1054  151.3372 H   0  0  0  0  0  0  0  0  0  0  0  0
  145.4621  134.8831  159.2405 H   0  0  0  0  0  0  0  0  0  0  0  0
  144.4200  135.7310  161.3101 H   0  0  0  0  0  0  0  0  0  0  0  0
  145.5027  135.3358  163.5148 H   0  0  0  0  0  0  0  0  0  0  0  0
  147.6471  134.0822  163.6360 H   0  0  0  0  0  0  0  0  0  0  0  0
  148.7080  133.2242  161.5898 H   0  0  0  0  0  0  0  0  0  0  0  0
  1  2  2  0  0  0  0
  2  3  1  0  0  0  0
  2 28  1  0  0  0  0
  3  4  1  0  0  0  0
  4  5  1  0  0  0  0
  4 35  1  0  0  0  0
  4 36  1  0  0  0  0
  5 18  1  0  0  0  0
  5  6  1  0  0  0  0
  5 37  1  0  0  0  0
  6  7  1  0  0  0  0
  7  8  1  0  0  0  0
  7 16  1  0  0  0  0
  7 38  1  0  0  0  0
  8 14  1  0  0  0  0
  8  9  1  0  0  0  0
  9 10  2  0  0  0  0
  9 39  1  0  0  0  0
 10 11  1  0  0  0  0
 10 40  1  0  0  0  0
 11 12  2  0  0  0  0
 11 13  1  0  0  0  0
 13 34  1  0  0  0  0
 13 14  1  0  0  0  0
 14 15  2  0  0  0  0
 16 17  1  0  0  0  0
 16 18  1  0  0  0  0
 16 41  1  0  0  0  0
 17 42  1  0  0  0  0
 18 19  1  0  0  0  0
 18 43  1  0  0  0  0
 19 20  1  0  0  0  0
 20 21  2  0  0  0  0
 20 22  1  0  0  0  0
 22 27  1  0  0  0  0
 22 23  2  0  0  0  0
 23 24  1  0  0  0  0
 23 44  1  0  0  0  0
 24 25  2  0  0  0  0
 24 45  1  0  0  0  0
 25 26  1  0  0  0  0
 25 46  1  0  0  0  0
 26 27  2  0  0  0  0
 26 47  1  0  0  0  0
 27 48  1  0  0  0  0
 28 33  1  0  0  0  0
 28 29  2  0  0  0  0
 29 30  1  0  0  0  0
 29 49  1  0  0  0  0
 30 31  2  0  0  0  0
 30 50  1  0  0  0  0
 31 32  1  0  0  0  0
 31 51  1  0  0  0  0
 32 33  2  0  0  0  0
 32 52  1  0  0  0  0
 33 53  1  0  0  0  0
M  END
> <s_m_source_file>
AV-unprocessed.smi

> <i_m_source_file_index>
99

> <i_lp_mmshare_version>
43012

> <i_f3d_flags>
0

> <s_epik_input>
W2NIXTFbY0hdW2NIXVtjSF1bY0hdYzFDKD1PKU9bQ0gyXVtDQEBIXTJPW0NAQEhdKG4zW2NIXVtjSF1jKD1PKVtuSF1jMz1PKVtDQEBIXShbT0hdKVtDQEhdMk9DKD1PKWM0W2NIXVtjSF1bY0hdW2NIXVtjSF00

> <s_epik_cmdline>
J2VwaWtfcHl0aG9uJywgJy1waCcsICc3LjAnLCAnLXRuJywgJzgnLCAnLW1hJywgJzIwMCcsICctbWV0YWxfYmluZGluZycsICctaW1hZScsICc8aW5maWxlLm1hZT4nLCAnLW9tYWUnLCAnPG91dGZpbGUubWFlPic=

> <r_lp_tautomer_probability>
1

> <r_epik_Ionization_Penalty>
0.00454555

> <r_epik_Ionization_Penalty_Charging>
0.0045191

> <r_epik_Ionization_Penalty_Neutral>
2.64449e-05

> <r_epik_State_Penalty>
-0

> <r_epik_Charging_Adjusted_Penalty>
0.0045191

> <i_epik_Tot_Q>
0

> <i_epik_Tot_abs_Q>
0

> <r_epik_Metal_State_Penalty>
1.27877

> <b_epik_Metal_Only>
0

> <s_epik_Chemistry_Notes>
This compound has an ester and may undergo hydrolysis at high or low pH. This compound contains an acetal/aminal-like group ( X-CH(R)-Y where X, Y are N, S, or O) that may be acid/base labile, releasing an aldehyde.

> <s_lp_Force_Field>
OPLS_2005

> <r_lp_Energy>
39.5306

> <b_lp_Chiralities_Consistent>
1

> <s_lp_Variant>
AV-unprocessed.smi:99-4

> <Gold.Version>
5.8.1

> <Gold.Id.Protein>
6NUR|6NUR_protein|mol2

> <Gold.PLP.Fitness>
53.4349

> <Gold.PLP.PLP>
-46.5723

> <Gold.PLP.part.hbond>
-3.0000

> <Gold.PLP.part.metal>
0.0000

> <Gold.PLP.part.buried>
-5.8527

> <Gold.PLP.part.nonpolar>
-38.8919

> <Gold.PLP.part.repulsive>
0.2924

> <Gold.PLP.ligand.clash>
0.0000

> <Gold.PLP.ligand.torsion>
1.3679

> <Gold.PLP.Chemscore.Hbond>
2.2601

> <Gold.PLP.Chemscore.CHOScore>
0.8829

> <Gold.PLP.Chemscore.Metal>
0.0000

> <Gold.Chemscore.Hbonds>
donor molecule, donor type, donor heavy atom, donor atom, acceptor molecule, acceptor atom, score
      P1  H  6896  6907       L1    15  0.28
      P1  H  6896  6909       L1     1  1.00
      P1  H  7997  8009       L1    12  0.89
      L1  C     9    39       P1  7948  0.58
      L1  C     9    39       P1  7949  0.35

> <Gold.PLP.Chemscore.Internal.Correction>
0.1695

> <Gold.Rescore>
     Score         DG    S(hbond)    S(metal)    S(lipo)     H(rot)  DE(clash)    DE(int)     intcor
     16.94     -18.07       2.21        0.00     114.29       3.19       0.07       1.06       ----

> <Gold.Chemscore.Fitness>
16.9418

> <Gold.Chemscore.DG>
-18.0737

> <Gold.Chemscore.ZeroCoef>
-5.4800

> <Gold.Chemscore.Hbond>
2.2124

> <Gold.Chemscore.Metal>
0.0000

> <Gold.Chemscore.Lipo>
114.2868

> <Gold.Chemscore.Internal_Hbond>
0.0000

> <Gold.Chemscore.DEClash>
0.0741

> <Gold.Chemscore.DEInternal>
1.0579

> <Gold.Chemscore.Rot>
3.1903

> <Gold.Chemscore.Internal.Correction>
   9.000000E+99

> <Gold.Chemscore.Hbonds>
donor molecule, donor type, donor heavy atom, donor atom, acceptor molecule, acceptor atom, score
      P1  H  6896  6907       L1    15  0.28
      P1  H  6896  6909       L1     1  0.90
      P1  H  7997  8009       L1    12  0.87

> <Gold.Chemscore.Hbond.Weighted>
-7.3893

> <Gold.Chemscore.Metal.Weighted>
-0.0000

> <Gold.Chemscore.Lipo.Weighted>
-13.3716

> <Gold.Chemscore.Internal_Hbond.Weighted>
0.0000

> <Gold.Chemscore.DEClash.Weighted>
0.0741

> <Gold.Chemscore.DEInternal.Weighted>
1.0579

> <Gold.Chemscore.Rot.Weighted>
8.1671

> <Gold.Chemscore.Internal.Correction.Weighted>
   9.000000E+99

> <Gold.Protein.RotatedTorsions>
[ 6907 6896 6895 6894 ] final   -1.87 input  -60.11 | X-H torsion
[ 7974 7965 7964 7962 ] final  -55.71 input  175.53 | X-H torsion
[ 8008 7997 7996 7995 ] final -147.46 input   59.86 | X-H torsion
[ 10167 10162 10161 10158 ] final   62.34 input  -65.29 | X-H torsion
[ 10718 10713 10712 10709 ] final  -80.22 input   66.30 | X-H torsion
[ 10763 10752 10751 10750 ] final   31.53 input  -60.55 | X-H torsion
[ 11005 11000 10999 10996 ] final  163.25 input  -57.11 | X-H torsion

> <Gold.Protein.ActiveResidues>
 VAL166  LYS551  ARG553  GLY616  TRP617  ASP618  TYR619  PRO620  LYS621  CYS622 
 ASP623  PHE694  ASN695  SER759  ASP760  ASP761  ALA762  ILE779  LEU786  VAL792 
 PHE793  MET794  SER795  GLU796  ALA797  LYS798  CYS799  TRP800  GLU811  SER814 

> <Gold.Protein.RotatedAtoms>
  151.5391  135.1068  159.9921 H   0  0  0  0  0  0  0  0  0  0  0  0  # atno 6907 bound_to 6896
  152.4544  133.7688  159.6798 H   0  0  0  0  0  0  0  0  0  0  0  0  # atno 6908 bound_to 6896
  150.8482  133.7762  159.3060 H   0  0  0  0  0  0  0  0  0  0  0  0  # atno 6909 bound_to 6896
  145.8710  140.8216  142.9888 H   0  0  0  0  0  0  0  0  0  0  0  0  # atno 7974 bound_to 7965
  155.5758  140.0638  157.2795 H   0  0  0  0  0  0  0  0  0  0  0  0  # atno 8008 bound_to 7997
  154.4347  140.1861  156.0972 H   0  0  0  0  0  0  0  0  0  0  0  0  # atno 8009 bound_to 7997
  156.0342  140.3303  155.7176 H   0  0  0  0  0  0  0  0  0  0  0  0  # atno 8010 bound_to 7997
  140.1450  144.4517  150.6790 H   0  0  0  0  0  0  0  0  0  0  0  0  # atno 10167 bound_to 10162
  156.0075  130.4568  150.3766 H   0  0  0  0  0  0  0  0  0  0  0  0  # atno 10718 bound_to 10713
  153.0310  135.6436  154.1214 H   0  0  0  0  0  0  0  0  0  0  0  0  # atno 10763 bound_to 10752
  154.0937  135.2864  155.3268 H   0  0  0  0  0  0  0  0  0  0  0  0  # atno 10764 bound_to 10752
  154.6447  135.5447  153.7894 H   0  0  0  0  0  0  0  0  0  0  0  0  # atno 10765 bound_to 10752
  140.2339  134.8102  157.3345 H   0  0  0  0  0  0  0  0  0  0  0  0  # atno 11005 bound_to 11000
  144.6726  140.1239  143.7448 LP  0  0  0  0  0  0  0  0  0  0  0  0  # atno 17320 bound_to 7965
  145.9136  139.2502  143.1423 LP  0  0  0  0  0  0  0  0  0  0  0  0  # atno 17321 bound_to 7965
  140.6737  143.2296  151.5561 LP  0  0  0  0  0  0  0  0  0  0  0  0  # atno 17342 bound_to 10162
  139.5453  144.2537  152.1430 LP  0  0  0  0  0  0  0  0  0  0  0  0  # atno 17343 bound_to 10162
  157.1848  131.0401  151.2730 LP  0  0  0  0  0  0  0  0  0  0  0  0  # atno 17370 bound_to 10713
  157.4113  130.7387  149.6841 LP  0  0  0  0  0  0  0  0  0  0  0  0  # atno 17371 bound_to 10713
  140.1722  134.4595  155.7824 LP  0  0  0  0  0  0  0  0  0  0  0  0  # atno 17394 bound_to 11000
  141.2216  133.6946  156.7726 LP  0  0  0  0  0  0  0  0  0  0  0  0  # atno 17395 bound_to 11000

$$$$
