AV-unprocessed.smi:775|AV-procd|sdf|3697|dock9
  -GOLD-   22720 1113D 1   1.00000     0.00000
 Structure written by MMmdl.
 38 39  0  0  0  0  0  0  0  0  1 V2000
  147.5722  127.0594  153.9463 C   0  0  0  0  0  0  0  0  0  0  0  0
  146.9302  127.7255  152.7208 C   0  0  2  0  0  0  0  0  0  0  0  0
  147.9369  127.7979  151.5484 C   0  0  0  0  0  0  0  0  0  0  0  0
  148.3978  126.4956  151.0995 N   0  0  0  0  0  0  0  0  0  0  0  0
  149.3020  126.2067  150.0989 C   0  0  0  0  0  0  0  0  0  0  0  0
  149.4268  124.8481  150.0430 C   0  0  0  0  0  0  0  0  0  0  0  0
  148.5399  124.3857  151.0550 C   0  0  0  0  0  0  0  0  0  0  0  0
  147.9234  125.3734  151.6836 N   0  0  0  0  0  0  0  0  0  0  0  0
  146.5064  129.0603  153.1354 N   0  0  0  0  0  0  0  0  0  0  0  0
  146.0891  129.9033  152.0045 C   0  0  0  0  0  0  0  0  0  0  0  0
  146.0259  131.3990  152.3584 C   0  0  0  0  0  0  0  0  0  0  0  0
  146.3241  131.7512  153.5015 O   0  0  0  0  0  0  0  0  0  0  0  0
  145.6472  132.2862  151.4042 N   0  0  0  0  0  0  0  0  0  0  0  0
  145.5471  133.7350  151.6045 C   0  0  0  0  0  0  0  0  0  0  0  0
  144.0543  134.1052  151.6385 C   0  0  0  0  0  0  0  0  0  0  0  0
  143.3128  133.4877  150.5362 N   0  0  0  0  0  0  0  0  0  0  0  0
  143.7505  132.4587  149.7855 C   0  0  0  0  0  0  0  0  0  0  0  0
  143.0769  131.9986  148.8664 O   0  0  0  0  0  0  0  0  0  0  0  0
  145.1333  131.8507  150.0956 C   0  0  0  0  0  0  0  0  0  0  0  0
  147.8984  126.0453  153.7139 H   0  0  0  0  0  0  0  0  0  0  0  0
  146.8671  126.9921  154.7758 H   0  0  0  0  0  0  0  0  0  0  0  0
  148.4442  127.6154  154.2933 H   0  0  0  0  0  0  0  0  0  0  0  0
  146.0670  127.1202  152.4378 H   0  0  0  0  0  0  0  0  0  0  0  0
  147.5074  128.3419  150.7049 H   0  0  0  0  0  0  0  0  0  0  0  0
  148.8193  128.3607  151.8556 H   0  0  0  0  0  0  0  0  0  0  0  0
  149.7799  126.9842  149.5213 H   0  0  0  0  0  0  0  0  0  0  0  0
  150.0545  124.2723  149.3793 H   0  0  0  0  0  0  0  0  0  0  0  0
  148.3280  123.3688  151.3506 H   0  0  0  0  0  0  0  0  0  0  0  0
  145.7589  128.9747  153.8094 H   0  0  0  0  0  0  0  0  0  0  0  0
  146.7905  129.7715  151.1845 H   0  0  0  0  0  0  0  0  0  0  0  0
  145.1066  129.5823  151.6559 H   0  0  0  0  0  0  0  0  0  0  0  0
  146.0640  134.1118  152.4859 H   0  0  0  0  0  0  0  0  0  0  0  0
  146.0272  134.2311  150.7595 H   0  0  0  0  0  0  0  0  0  0  0  0
  143.6093  133.7711  152.5763 H   0  0  0  0  0  0  0  0  0  0  0  0
  143.9298  135.1873  151.5957 H   0  0  0  0  0  0  0  0  0  0  0  0
  142.4028  133.8714  150.3250 H   0  0  0  0  0  0  0  0  0  0  0  0
  145.8334  132.1677  149.3218 H   0  0  0  0  0  0  0  0  0  0  0  0
  145.0503  130.7665  150.0073 H   0  0  0  0  0  0  0  0  0  0  0  0
  1  2  1  0  0  0  0
  1 20  1  0  0  0  0
  1 21  1  0  0  0  0
  1 22  1  0  0  0  0
  2  3  1  0  0  0  0
  2  9  1  0  0  0  0
  2 23  1  0  0  0  0
  3  4  1  0  0  0  0
  3 24  1  0  0  0  0
  3 25  1  0  0  0  0
  4  8  1  0  0  0  0
  4  5  1  0  0  0  0
  5  6  2  0  0  0  0
  5 26  1  0  0  0  0
  6  7  1  0  0  0  0
  6 27  1  0  0  0  0
  7  8  2  0  0  0  0
  7 28  1  0  0  0  0
  9 10  1  0  0  0  0
  9 29  1  0  0  0  0
 10 11  1  0  0  0  0
 10 30  1  0  0  0  0
 10 31  1  0  0  0  0
 11 12  2  0  0  0  0
 11 13  1  0  0  0  0
 13 19  1  0  0  0  0
 13 14  1  0  0  0  0
 14 15  1  0  0  0  0
 14 32  1  0  0  0  0
 14 33  1  0  0  0  0
 15 16  1  0  0  0  0
 15 34  1  0  0  0  0
 15 35  1  0  0  0  0
 16 17  1  0  0  0  0
 16 36  1  0  0  0  0
 17 18  2  0  0  0  0
 17 19  1  0  0  0  0
 19 37  1  0  0  0  0
 19 38  1  0  0  0  0
M  END
> <s_m_source_file>
AV-unprocessed.smi

> <i_m_source_file_index>
775

> <i_lp_mmshare_version>
43012

> <i_f3d_flags>
0

> <s_epik_input>
bjFbY0hdW2NIXVtjSF1uMVtDSDJdW0NAQEhdKFtDSDNdKVtOSF1bQ0gyXUMoPU8pTjJbQ0gyXVtDSDJdW05IXUMoPU8pW0NIMl0y

> <s_epik_cmdline>
J2VwaWtfcHl0aG9uJywgJy1waCcsICc3LjAnLCAnLXRuJywgJzgnLCAnLW1hJywgJzIwMCcsICctbWV0YWxfYmluZGluZycsICctaW1hZScsICc8aW5maWxlLm1hZT4nLCAnLW9tYWUnLCAnPG91dGZpbGUubWFlPic=

> <r_lp_tautomer_probability>
1

> <r_epik_Ionization_Penalty>
0.836058

> <r_epik_Ionization_Penalty_Charging>
0

> <r_epik_Ionization_Penalty_Neutral>
0.836058

> <r_epik_State_Penalty>
0.870309

> <r_epik_Charging_Adjusted_Penalty>
0.870309

> <i_epik_Tot_Q>
0

> <i_epik_Tot_abs_Q>
0

> <r_epik_Metal_State_Penalty>
0.870266

> <b_epik_Metal_Only>
0

> <s_lp_Force_Field>
OPLS_2005

> <r_lp_Energy>
24.9182

> <b_lp_Chiralities_Consistent>
1

> <s_lp_Variant>
AV-unprocessed.smi:775-3

> <Gold.Version>
5.8.1

> <Gold.Id.Protein>
6NUR|6NUR_protein|mol2

> <Gold.PLP.Fitness>
48.3624

> <Gold.PLP.PLP>
-41.1354

> <Gold.PLP.part.hbond>
-2.6364

> <Gold.PLP.part.metal>
0.0000

> <Gold.PLP.part.buried>
-7.6749

> <Gold.PLP.part.nonpolar>
-31.8427

> <Gold.PLP.part.repulsive>
0.4940

> <Gold.PLP.ligand.clash>
0.0000

> <Gold.PLP.ligand.torsion>
0.1357

> <Gold.PLP.Chemscore.Hbond>
1.7360

> <Gold.PLP.Chemscore.CHOScore>
0.7503

> <Gold.PLP.Chemscore.Metal>
0.0000

> <Gold.Chemscore.Hbonds>
donor molecule, donor type, donor heavy atom, donor atom, acceptor molecule, acceptor atom, score
      L1  H    16    36       P1 10186  1.00
      P1  H 10785 10796       L1    18  1.00
      L1  C     5    26       P1 10769  0.50

> <Gold.PLP.Chemscore.Internal.Correction>
0.0396

> <Gold.Rescore>
     Score         DG    S(hbond)    S(metal)    S(lipo)     H(rot)  DE(clash)    DE(int)     intcor
     12.96     -16.01       2.61        0.00      62.03       2.12       1.50       1.55       ----

> <Gold.Chemscore.Fitness>
12.9578

> <Gold.Chemscore.DG>
-16.0062

> <Gold.Chemscore.ZeroCoef>
-5.4800

> <Gold.Chemscore.Hbond>
2.6064

> <Gold.Chemscore.Metal>
0.0000

> <Gold.Chemscore.Lipo>
62.0324

> <Gold.Chemscore.Internal_Hbond>
0.0000

> <Gold.Chemscore.DEClash>
1.5033

> <Gold.Chemscore.DEInternal>
1.5451

> <Gold.Chemscore.Rot>
2.1239

> <Gold.Chemscore.Internal.Correction>
   9.000000E+99

> <Gold.Chemscore.Hbonds>
donor molecule, donor type, donor heavy atom, donor atom, acceptor molecule, acceptor atom, score
      L1  H    16    36       P1 10186  0.97
      P1  H 10785 10796       L1    18  0.81

> <Gold.Chemscore.Hbond.Weighted>
-8.7055

> <Gold.Chemscore.Metal.Weighted>
-0.0000

> <Gold.Chemscore.Lipo.Weighted>
-7.2578

> <Gold.Chemscore.Internal_Hbond.Weighted>
0.0000

> <Gold.Chemscore.DEClash.Weighted>
1.5033

> <Gold.Chemscore.DEInternal.Weighted>
1.5451

> <Gold.Chemscore.Rot.Weighted>
5.4371

> <Gold.Chemscore.Internal.Correction.Weighted>
   9.000000E+99

> <Gold.Protein.RotatedTorsions>
[ 6907 6896 6895 6894 ] final  152.06 input  -60.11 | X-H torsion
[ 7974 7965 7964 7962 ] final  -69.04 input  175.53 | X-H torsion
[ 8008 7997 7996 7995 ] final  -88.05 input   59.86 | X-H torsion
[ 10167 10162 10161 10158 ] final  -68.19 input  -65.29 | X-H torsion
[ 10718 10713 10712 10709 ] final  -51.81 input   66.30 | X-H torsion
[ 10763 10752 10751 10750 ] final  112.46 input  -60.55 | X-H torsion
[ 11005 11000 10999 10996 ] final   25.73 input  -57.11 | X-H torsion

> <Gold.Protein.ActiveResidues>
 VAL166  LYS551  ARG553  GLY616  TRP617  ASP618  TYR619  PRO620  LYS621  CYS622 
 ASP623  PHE694  ASN695  SER759  ASP760  ASP761  ALA762  ILE779  LEU786  VAL792 
 PHE793  MET794  SER795  GLU796  ALA797  LYS798  CYS799  TRP800  GLU811  SER814 

> <Gold.Protein.RotatedAtoms>
  152.0919  133.4205  159.4547 H   0  0  0  0  0  0  0  0  0  0  0  0  # atno 6907 bound_to 6896
  150.6862  134.2861  159.4656 H   0  0  0  0  0  0  0  0  0  0  0  0  # atno 6908 bound_to 6896
  152.0713  134.9531  160.0625 H   0  0  0  0  0  0  0  0  0  0  0  0  # atno 6909 bound_to 6896
  145.7089  140.9086  143.0691 H   0  0  0  0  0  0  0  0  0  0  0  0  # atno 7974 bound_to 7965
  154.6704  140.0558  157.0159 H   0  0  0  0  0  0  0  0  0  0  0  0  # atno 8008 bound_to 7997
  155.1098  140.3237  155.4506 H   0  0  0  0  0  0  0  0  0  0  0  0  # atno 8009 bound_to 7997
  156.2655  140.2016  156.6222 H   0  0  0  0  0  0  0  0  0  0  0  0  # atno 8010 bound_to 7997
  140.5526  143.2312  151.6882 H   0  0  0  0  0  0  0  0  0  0  0  0  # atno 10167 bound_to 10162
  156.1677  130.4149  149.9695 H   0  0  0  0  0  0  0  0  0  0  0  0  # atno 10718 bound_to 10713
  153.4782  135.3685  155.2428 H   0  0  0  0  0  0  0  0  0  0  0  0  # atno 10763 bound_to 10752
  154.8756  135.3948  154.3731 H   0  0  0  0  0  0  0  0  0  0  0  0  # atno 10764 bound_to 10752
  153.4331  135.7083  153.6283 H   0  0  0  0  0  0  0  0  0  0  0  0  # atno 10765 bound_to 10752
  140.3446  134.2295  155.7686 H   0  0  0  0  0  0  0  0  0  0  0  0  # atno 11005 bound_to 11000
  144.6947  139.9048  143.7460 LP  0  0  0  0  0  0  0  0  0  0  0  0  # atno 17320 bound_to 7965
  146.0730  139.3719  143.0511 LP  0  0  0  0  0  0  0  0  0  0  0  0  # atno 17321 bound_to 7965
  139.5034  144.3793  152.0392 LP  0  0  0  0  0  0  0  0  0  0  0  0  # atno 17342 bound_to 10162
  140.2911  144.3752  150.6088 LP  0  0  0  0  0  0  0  0  0  0  0  0  # atno 17343 bound_to 10162
  156.7504  130.9113  151.3637 LP  0  0  0  0  0  0  0  0  0  0  0  0  # atno 17370 bound_to 10713
  157.6780  130.9113  150.0197 LP  0  0  0  0  0  0  0  0  0  0  0  0  # atno 17371 bound_to 10713
  141.2029  133.7926  157.0367 LP  0  0  0  0  0  0  0  0  0  0  0  0  # atno 17394 bound_to 11000
  140.0753  134.9679  157.1535 LP  0  0  0  0  0  0  0  0  0  0  0  0  # atno 17395 bound_to 11000

$$$$
