AV-unprocessed.smi:3208|AV-procd|sdf|12262|dock10
  -GOLD-   2272018 93D 1   1.00000     0.00000
 Structure written by MMmdl.
 30 30  0  0  0  0  0  0  0  0  3 V2000
  146.0148  143.2683  153.8822 C   0  0  0  0  0  0  0  0  0  0  0  0
  147.0828  142.4662  154.0064 C   0  0  0  0  0  0  0  0  0  0  0  0
  147.0245  141.0242  154.4595 C   0  0  0  0  0  0  0  0  0  0  0  0
  147.8646  140.8302  155.5910 O   0  0  0  0  0  0  0  0  0  0  0  0
  149.2185  141.2463  155.4296 C   0  0  2  0  0  0  0  0  0  0  0  0
  149.9750  140.1016  154.7387 C   0  0  0  0  0  0  0  0  0  0  0  0
  149.8409  141.5888  156.7931 C   0  0  0  0  0  0  0  0  0  0  0  0
  149.9684  140.7086  157.6458 O   0  0  0  0  0  0  0  0  0  0  0  0
  150.1994  142.8751  156.9626 N   0  0  0  0  0  0  0  0  0  0  0  0
  150.7892  143.4938  158.0994 C   0  0  0  0  0  0  0  0  0  0  0  0
  150.3902  144.7101  158.5490 N   0  3  0  0  0  0  0  0  0  0  0  0
  150.9282  145.3223  159.6257 C   0  0  0  0  0  0  0  0  0  0  0  0
  151.9617  144.6926  160.3451 C   0  0  0  0  0  0  0  0  0  0  0  0
  152.4152  143.4277  159.9216 C   0  0  0  0  0  0  0  0  0  0  0  0
  151.8267  142.8222  158.7909 C   0  0  0  0  0  0  0  0  0  0  0  0
  152.2679  141.5954  158.3797 O   0  5  0  0  0  0  0  0  0  0  0  0
  145.0182  142.9167  154.1061 H   0  0  0  0  0  0  0  0  0  0  0  0
  146.1250  144.2912  153.5531 H   0  0  0  0  0  0  0  0  0  0  0  0
  148.0638  142.8535  153.7728 H   0  0  0  0  0  0  0  0  0  0  0  0
  145.9905  140.7879  154.7139 H   0  0  0  0  0  0  0  0  0  0  0  0
  147.3191  140.3726  153.6359 H   0  0  0  0  0  0  0  0  0  0  0  0
  149.2529  142.1200  154.7757 H   0  0  0  0  0  0  0  0  0  0  0  0
  151.0271  140.3505  154.5955 H   0  0  0  0  0  0  0  0  0  0  0  0
  149.5498  139.8970  153.7559 H   0  0  0  0  0  0  0  0  0  0  0  0
  149.9235  139.1780  155.3166 H   0  0  0  0  0  0  0  0  0  0  0  0
  150.0285  143.4960  156.1844 H   0  0  0  0  0  0  0  0  0  0  0  0
  150.5174  146.2893  159.8765 H   0  0  0  0  0  0  0  0  0  0  0  0
  152.4005  145.1711  161.2082 H   0  0  0  0  0  0  0  0  0  0  0  0
  153.2068  142.9276  160.4605 H   0  0  0  0  0  0  0  0  0  0  0  0
  149.6418  145.1867  158.0443 H   0  0  0  0  0  0  0  0  0  0  0  0
  1  2  2  0  0  0  0
  1 17  1  0  0  0  0
  1 18  1  0  0  0  0
  2  3  1  0  0  0  0
  2 19  1  0  0  0  0
  3  4  1  0  0  0  0
  3 20  1  0  0  0  0
  3 21  1  0  0  0  0
  4  5  1  0  0  0  0
  5  6  1  0  0  0  0
  5  7  1  0  0  0  0
  5 22  1  0  0  0  0
  6 23  1  0  0  0  0
  6 24  1  0  0  0  0
  6 25  1  0  0  0  0
  7  8  2  0  0  0  0
  7  9  1  0  0  0  0
  9 26  1  0  0  0  0
  9 10  1  0  0  0  0
 10 15  2  0  0  0  0
 10 11  1  0  0  0  0
 11 30  1  0  0  0  0
 11 12  2  0  0  0  0
 12 27  1  0  0  0  0
 12 13  1  0  0  0  0
 13 28  1  0  0  0  0
 13 14  2  0  0  0  0
 14 15  1  0  0  0  0
 14 29  1  0  0  0  0
 15 16  1  0  0  0  0
M  CHG  1  11   1
M  CHG  1  16  -1
M  END
> <s_m_source_file>
AV-unprocessed.smi

> <i_m_source_file_index>
3208

> <i_lp_mmshare_version>
43012

> <i_f3d_flags>
0

> <s_epik_input>
W0NIMl09W0NIXVtDSDJdT1tDQEhdKFtDSDNdKUMoPU8pW05IXWMxbltjSF1bY0hdW2NIXWMxW09IXQ==

> <s_epik_cmdline>
J2VwaWtfcHl0aG9uJywgJy1waCcsICc3LjAnLCAnLXRuJywgJzgnLCAnLW1hJywgJzIwMCcsICctbWV0YWxfYmluZGluZycsICctaW1hZScsICc8aW5maWxlLm1hZT4nLCAnLW9tYWUnLCAnPG91dGZpbGUubWFlPic=

> <r_lp_tautomer_probability>
0.56342

> <r_epik_Ionization_Penalty>
0.29395

> <r_epik_Ionization_Penalty_Charging>
0.0267837

> <r_epik_Ionization_Penalty_Neutral>
0.267166

> <r_epik_State_Penalty>
0.587031

> <r_epik_Charging_Adjusted_Penalty>
0.613815

> <i_epik_Tot_Q>
0

> <i_epik_Tot_abs_Q>
2

> <r_epik_Metal_State_Penalty>
2.67911

> <b_epik_Metal_Only>
0

> <s_lp_Force_Field>
OPLS_2005

> <r_lp_Energy>
5.5941

> <b_lp_Chiralities_Consistent>
1

> <s_lp_Variant>
AV-unprocessed.smi:3208-3

> <Gold.Version>
5.8.1

> <Gold.Id.Protein>
6NUR|6NUR_protein|mol2

> <Gold.PLP.Fitness>
41.8811

> <Gold.PLP.PLP>
-33.9142

> <Gold.PLP.part.hbond>
-2.3655

> <Gold.PLP.part.metal>
0.0000

> <Gold.PLP.part.buried>
-4.4485

> <Gold.PLP.part.nonpolar>
-28.5462

> <Gold.PLP.part.repulsive>
0.2454

> <Gold.PLP.ligand.clash>
0.0000

> <Gold.PLP.ligand.torsion>
0.6623

> <Gold.PLP.Chemscore.Hbond>
2.9120

> <Gold.PLP.Chemscore.CHOScore>
0.0000

> <Gold.PLP.Chemscore.Metal>
0.0000

> <Gold.Chemscore.Hbonds>
donor molecule, donor type, donor heavy atom, donor atom, acceptor molecule, acceptor atom, score
      L1  H     9    26       P1  8028  0.82
      L1  H    11    30       P1  8029  1.85

> <Gold.PLP.Chemscore.Internal.Correction>
0.5555

> <Gold.Rescore>
     Score         DG    S(hbond)    S(metal)    S(lipo)     H(rot)  DE(clash)    DE(int)     intcor
     12.26     -15.81       1.82        0.00      73.40       1.70       0.11       3.44       ----

> <Gold.Chemscore.Fitness>
12.2623

> <Gold.Chemscore.DG>
-15.8077

> <Gold.Chemscore.ZeroCoef>
-5.4800

> <Gold.Chemscore.Hbond>
1.8224

> <Gold.Chemscore.Metal>
0.0000

> <Gold.Chemscore.Lipo>
73.3970

> <Gold.Chemscore.Internal_Hbond>
0.0000

> <Gold.Chemscore.DEClash>
0.1071

> <Gold.Chemscore.DEInternal>
3.4383

> <Gold.Chemscore.Rot>
1.6979

> <Gold.Chemscore.Internal.Correction>
   9.000000E+99

> <Gold.Chemscore.Hbonds>
donor molecule, donor type, donor heavy atom, donor atom, acceptor molecule, acceptor atom, score
      L1  H     9    26       P1  8028  0.81
      L1  H    11    30       P1  8029  0.20

> <Gold.Chemscore.Hbond.Weighted>
-6.0870

> <Gold.Chemscore.Metal.Weighted>
-0.0000

> <Gold.Chemscore.Lipo.Weighted>
-8.5875

> <Gold.Chemscore.Internal_Hbond.Weighted>
0.0000

> <Gold.Chemscore.DEClash.Weighted>
0.1071

> <Gold.Chemscore.DEInternal.Weighted>
3.4383

> <Gold.Chemscore.Rot.Weighted>
4.3467

> <Gold.Chemscore.Internal.Correction.Weighted>
   9.000000E+99

> <Gold.Protein.RotatedTorsions>
[ 6907 6896 6895 6894 ] final -135.01 input  -60.11 | X-H torsion
[ 7974 7965 7964 7962 ] final    9.67 input  175.53 | X-H torsion
[ 8008 7997 7996 7995 ] final   79.40 input   59.86 | X-H torsion
[ 10167 10162 10161 10158 ] final -119.47 input  -65.29 | X-H torsion
[ 10718 10713 10712 10709 ] final  123.49 input   66.30 | X-H torsion
[ 10763 10752 10751 10750 ] final  143.07 input  -60.55 | X-H torsion
[ 11005 11000 10999 10996 ] final -115.04 input  -57.11 | X-H torsion

> <Gold.Protein.ActiveResidues>
 VAL166  LYS551  ARG553  GLY616  TRP617  ASP618  TYR619  PRO620  LYS621  CYS622 
 ASP623  PHE694  ASN695  SER759  ASP760  ASP761  ALA762  ILE779  LEU786  VAL792 
 PHE793  MET794  SER795  GLU796  ALA797  LYS798  CYS799  TRP800  GLU811  SER814 

> <Gold.Protein.RotatedAtoms>
  150.9927  133.6134  159.2705 H   0  0  0  0  0  0  0  0  0  0  0  0  # atno 6907 bound_to 6896
  151.3349  135.0849  159.9361 H   0  0  0  0  0  0  0  0  0  0  0  0  # atno 6908 bound_to 6896
  152.5250  133.9549  159.7744 H   0  0  0  0  0  0  0  0  0  0  0  0  # atno 6909 bound_to 6896
  146.2400  139.9749  142.8442 H   0  0  0  0  0  0  0  0  0  0  0  0  # atno 7974 bound_to 7965
  155.8691  140.3450  155.5809 H   0  0  0  0  0  0  0  0  0  0  0  0  # atno 8008 bound_to 7997
  155.7848  140.0863  157.2060 H   0  0  0  0  0  0  0  0  0  0  0  0  # atno 8009 bound_to 7997
  154.4016  140.1494  156.3081 H   0  0  0  0  0  0  0  0  0  0  0  0  # atno 8010 bound_to 7997
  140.0463  143.5104  152.2105 H   0  0  0  0  0  0  0  0  0  0  0  0  # atno 10167 bound_to 10162
  157.5661  131.1086  150.8452 H   0  0  0  0  0  0  0  0  0  0  0  0  # atno 10718 bound_to 10713
  153.9662  135.2955  155.3430 H   0  0  0  0  0  0  0  0  0  0  0  0  # atno 10763 bound_to 10752
  154.7347  135.5052  153.9025 H   0  0  0  0  0  0  0  0  0  0  0  0  # atno 10764 bound_to 10752
  153.0922  135.6711  153.9943 H   0  0  0  0  0  0  0  0  0  0  0  0  # atno 10765 bound_to 10752
  141.0513  133.9682  157.2831 H   0  0  0  0  0  0  0  0  0  0  0  0  # atno 11005 bound_to 11000
  145.1646  140.9690  143.4357 LP  0  0  0  0  0  0  0  0  0  0  0  0  # atno 17320 bound_to 7965
  145.0085  139.3532  143.6132 LP  0  0  0  0  0  0  0  0  0  0  0  0  # atno 17321 bound_to 7965
  139.5981  144.7574  151.3236 LP  0  0  0  0  0  0  0  0  0  0  0  0  # atno 17342 bound_to 10162
  140.7237  143.7063  150.7804 LP  0  0  0  0  0  0  0  0  0  0  0  0  # atno 17343 bound_to 10162
  156.8937  130.5222  149.5285 LP  0  0  0  0  0  0  0  0  0  0  0  0  # atno 17370 bound_to 10713
  156.0709  130.5742  150.9381 LP  0  0  0  0  0  0  0  0  0  0  0  0  # atno 17371 bound_to 10713
  139.9353  135.0197  156.8535 LP  0  0  0  0  0  0  0  0  0  0  0  0  # atno 17394 bound_to 11000
  140.6049  134.0136  155.7552 LP  0  0  0  0  0  0  0  0  0  0  0  0  # atno 17395 bound_to 11000

$$$$
