AV-unprocessed.smi:287|AV-procd|sdf|2201|dock8
  -GOLD-   2262022 13D 1   1.00000     0.00000
 Structure written by MMmdl.
 55 58  0  0  0  0  0  0  0  0  1 V2000
  152.4407  138.3948  154.4667 C   0  0  0  0  0  0  0  0  0  0  0  0
  151.0029  138.7298  154.6695 C   0  0  0  0  0  0  0  0  0  0  0  0
  149.9053  138.0028  155.0274 C   0  0  0  0  0  0  0  0  0  0  0  0
  148.7916  138.8946  155.0494 C   0  0  0  0  0  0  0  0  0  0  0  0
  147.3569  138.5214  155.3976 C   0  0  1  0  0  0  0  0  0  0  0  0
  147.2901  137.0440  155.8189 C   0  0  0  0  0  0  0  0  0  0  0  0
  146.8510  139.2478  156.5012 O   0  0  0  0  0  0  0  0  0  0  0  0
  146.3812  138.7839  154.2278 C   0  0  0  0  0  0  0  0  0  0  0  0
  144.9877  138.5587  154.5900 N   0  0  0  0  0  0  0  0  0  0  0  0
  144.3072  137.4944  154.1154 C   0  0  0  0  0  0  0  0  0  0  0  0
  142.9786  137.4912  154.3779 N   0  0  0  0  0  0  0  0  0  0  0  0
  142.2118  136.4857  153.9490 C   0  0  0  0  0  0  0  0  0  0  0  0
  142.5674  135.4053  153.2531 N   0  0  0  0  0  0  0  0  0  0  0  0
  143.9053  135.3963  152.9857 C   0  0  0  0  0  0  0  0  0  0  0  0
  144.8423  136.3960  153.3779 C   0  0  0  0  0  0  0  0  0  0  0  0
  146.1081  136.0387  152.9241 N   0  0  0  0  0  0  0  0  0  0  0  0
  145.9241  134.9052  152.3044 C   0  0  0  0  0  0  0  0  0  0  0  0
  144.6285  134.4424  152.2973 N   0  0  0  0  0  0  0  0  0  0  0  0
  144.1142  133.1810  151.6750 C   0  0  2  0  0  0  0  0  0  0  0  0
  144.8420  132.1099  152.1873 O   0  0  0  0  0  0  0  0  0  0  0  0
  144.9996  131.1272  151.1714 C   0  0  2  0  0  0  0  0  0  0  0  0
  146.1425  130.1544  151.5123 C   0  0  0  0  0  0  0  0  0  0  0  0
  147.2766  130.8730  151.9487 O   0  0  0  0  0  0  0  0  0  0  0  0
  145.1987  131.9682  149.9018 C   0  0  2  0  0  0  0  0  0  0  0  0
  146.5538  132.3576  149.7543 O   0  0  0  0  0  0  0  0  0  0  0  0
  144.2634  133.1540  150.1383 C   0  0  2  0  0  0  0  0  0  0  0  0
  144.7058  134.3615  149.5394 O   0  0  0  0  0  0  0  0  0  0  0  0
  149.3155  140.1179  154.7055 C   0  0  0  0  0  0  0  0  0  0  0  0
  148.7393  141.4862  154.5429 C   0  0  0  0  0  0  0  0  0  0  0  0
  150.6544  140.0257  154.4710 O   0  0  0  0  0  0  0  0  0  0  0  0
  143.0738  133.1174  151.9970 H   0  0  0  0  0  0  0  0  0  0  0  0
  144.0593  130.5811  151.0716 H   0  0  0  0  0  0  0  0  0  0  0  0
  144.9170  131.4096  149.0088 H   0  0  0  0  0  0  0  0  0  0  0  0
  143.2802  132.9161  149.7307 H   0  0  0  0  0  0  0  0  0  0  0  0
  152.5919  137.3152  154.4636 H   0  0  0  0  0  0  0  0  0  0  0  0
  153.0519  138.8199  155.2630 H   0  0  0  0  0  0  0  0  0  0  0  0
  152.8004  138.7883  153.5157 H   0  0  0  0  0  0  0  0  0  0  0  0
  149.8992  136.9451  155.2460 H   0  0  0  0  0  0  0  0  0  0  0  0
  147.6253  136.3876  155.0151 H   0  0  0  0  0  0  0  0  0  0  0  0
  146.2730  136.7475  156.0787 H   0  0  0  0  0  0  0  0  0  0  0  0
  147.9229  136.8494  156.6858 H   0  0  0  0  0  0  0  0  0  0  0  0
  147.3410  140.0515  156.5813 H   0  0  0  0  0  0  0  0  0  0  0  0
  146.4709  139.8305  153.9338 H   0  0  0  0  0  0  0  0  0  0  0  0
  146.6499  138.1844  153.3569 H   0  0  0  0  0  0  0  0  0  0  0  0
  144.5698  139.2665  155.1768 H   0  0  0  0  0  0  0  0  0  0  0  0
  141.1635  136.5564  154.1994 H   0  0  0  0  0  0  0  0  0  0  0  0
  146.7367  134.3697  151.8355 H   0  0  0  0  0  0  0  0  0  0  0  0
  145.8434  129.4938  152.3265 H   0  0  0  0  0  0  0  0  0  0  0  0
  146.3982  129.5258  150.6586 H   0  0  0  0  0  0  0  0  0  0  0  0
  147.9984  130.6728  151.3724 H   0  0  0  0  0  0  0  0  0  0  0  0
  147.0991  131.6001  149.9089 H   0  0  0  0  0  0  0  0  0  0  0  0
  145.2968  134.1481  148.8336 H   0  0  0  0  0  0  0  0  0  0  0  0
  148.2208  141.7972  155.4499 H   0  0  0  0  0  0  0  0  0  0  0  0
  148.0261  141.5092  153.7189 H   0  0  0  0  0  0  0  0  0  0  0  0
  149.5174  142.2210  154.3344 H   0  0  0  0  0  0  0  0  0  0  0  0
  1  2  1  0  0  0  0
  1 35  1  0  0  0  0
  1 36  1  0  0  0  0
  1 37  1  0  0  0  0
  2 30  1  0  0  0  0
  2  3  2  0  0  0  0
  3  4  1  0  0  0  0
  3 38  1  0  0  0  0
  4  5  1  0  0  0  0
  4 28  2  0  0  0  0
  5  6  1  0  0  0  0
  5  7  1  0  0  0  0
  5  8  1  0  0  0  0
  6 39  1  0  0  0  0
  6 40  1  0  0  0  0
  6 41  1  0  0  0  0
  7 42  1  0  0  0  0
  8  9  1  0  0  0  0
  8 43  1  0  0  0  0
  8 44  1  0  0  0  0
  9 10  1  0  0  0  0
  9 45  1  0  0  0  0
 10 15  1  0  0  0  0
 10 11  2  0  0  0  0
 11 12  1  0  0  0  0
 12 13  2  0  0  0  0
 12 46  1  0  0  0  0
 13 14  1  0  0  0  0
 14 18  1  0  0  0  0
 14 15  2  0  0  0  0
 15 16  1  0  0  0  0
 16 17  2  0  0  0  0
 17 18  1  0  0  0  0
 17 47  1  0  0  0  0
 18 19  1  0  0  0  0
 19 31  1  0  0  0  0
 19 26  1  0  0  0  0
 19 20  1  0  0  0  0
 20 21  1  0  0  0  0
 21 32  1  0  0  0  0
 21 22  1  0  0  0  0
 21 24  1  0  0  0  0
 22 23  1  0  0  0  0
 22 48  1  0  0  0  0
 22 49  1  0  0  0  0
 23 50  1  0  0  0  0
 24 33  1  0  0  0  0
 24 25  1  0  0  0  0
 24 26  1  0  0  0  0
 25 51  1  0  0  0  0
 26 34  1  0  0  0  0
 26 27  1  0  0  0  0
 27 52  1  0  0  0  0
 28 29  1  0  0  0  0
 28 30  1  0  0  0  0
 29 53  1  0  0  0  0
 29 54  1  0  0  0  0
 29 55  1  0  0  0  0
M  END
> <s_m_source_file>
AV-unprocessed.smi

> <i_m_source_file_index>
287

> <i_lp_mmshare_version>
43012

> <i_f3d_flags>
0

> <s_epik_input>
W0NIM11jMVtjSF1jKGMobzEpW0NIM10pW0NAQF0oW0NIM10pKFtPSF0pW0NIMl1bTkhdYyhuW2NIXW4yKWMoYzIzKW5bY0hdbjNbQ0BASF00T1tDQEhdKFtDSDJdW09IXSlbQ0BASF0oW09IXSlbQ0BIXTRbT0hd

> <s_epik_cmdline>
J2VwaWtfcHl0aG9uJywgJy1waCcsICc3LjAnLCAnLXRuJywgJzgnLCAnLW1hJywgJzIwMCcsICctbWV0YWxfYmluZGluZycsICctaW1hZScsICc8aW5maWxlLm1hZT4nLCAnLW9tYWUnLCAnPG91dGZpbGUubWFlPic=

> <r_lp_tautomer_probability>
1

> <r_epik_Ionization_Penalty>
0.000992612

> <r_epik_Ionization_Penalty_Charging>
0

> <r_epik_Ionization_Penalty_Neutral>
0.000992612

> <r_epik_State_Penalty>
-0

> <r_epik_Charging_Adjusted_Penalty>
0

> <i_epik_Tot_Q>
0

> <i_epik_Tot_abs_Q>
0

> <r_epik_Metal_State_Penalty>
-0

> <b_epik_Metal_Only>
0

> <s_epik_Chemistry_Notes>
This compound contains an acetal/aminal-like group ( X-CH(R)-Y where X, Y are N, S, or O) that may be acid/base labile, releasing an aldehyde.

> <s_lp_Force_Field>
OPLS_2005

> <r_lp_Energy>
50.9422

> <b_lp_Chiralities_Consistent>
1

> <s_lp_Variant>
AV-unprocessed.smi:287-25

> <Gold.Version>
5.8.1

> <Gold.Id.Protein>
6NUR|6NUR_protein|mol2

> <Gold.PLP.Fitness>
54.4381

> <Gold.PLP.PLP>
-43.1093

> <Gold.PLP.part.hbond>
-4.3818

> <Gold.PLP.part.metal>
0.0000

> <Gold.PLP.part.buried>
-8.3671

> <Gold.PLP.part.nonpolar>
-30.8352

> <Gold.PLP.part.repulsive>
1.0600

> <Gold.PLP.ligand.clash>
0.0000

> <Gold.PLP.ligand.torsion>
0.2503

> <Gold.PLP.Chemscore.Hbond>
3.7760

> <Gold.PLP.Chemscore.CHOScore>
0.1194

> <Gold.PLP.Chemscore.Metal>
0.0000

> <Gold.Chemscore.Hbonds>
donor molecule, donor type, donor heavy atom, donor atom, acceptor molecule, acceptor atom, score
      L1  H    23    50       P1 10747  0.86
      L1  H    25    51       P1 10747  0.95
      L1  H    27    52       P1  7921  0.85
      P1  H  7989  7998       L1    30  1.00
      L1  C    17    47       P1  7948  0.11

> <Gold.PLP.Chemscore.Internal.Correction>
0.1432

> <Gold.Rescore>
     Score         DG    S(hbond)    S(metal)    S(lipo)     H(rot)  DE(clash)    DE(int)     intcor
     12.16     -13.34       3.51        0.00      82.16       5.27       0.09       1.09       ----

> <Gold.Chemscore.Fitness>
12.1570

> <Gold.Chemscore.DG>
-13.3434

> <Gold.Chemscore.ZeroCoef>
-5.4800

> <Gold.Chemscore.Hbond>
3.5135

> <Gold.Chemscore.Metal>
0.0000

> <Gold.Chemscore.Lipo>
82.1555

> <Gold.Chemscore.Internal_Hbond>
0.0000

> <Gold.Chemscore.DEClash>
0.0936

> <Gold.Chemscore.DEInternal>
1.0929

> <Gold.Chemscore.Rot>
5.2672

> <Gold.Chemscore.Internal.Correction>
   9.000000E+99

> <Gold.Chemscore.Hbonds>
donor molecule, donor type, donor heavy atom, donor atom, acceptor molecule, acceptor atom, score
      L1  H    23    50       P1 10747  0.84
      L1  H    25    51       P1 10747  0.85
      L1  H    27    52       P1  7921  0.81
      P1  H  7989  7998       L1    30  0.92

> <Gold.Chemscore.Hbond.Weighted>
-11.7351

> <Gold.Chemscore.Metal.Weighted>
-0.0000

> <Gold.Chemscore.Lipo.Weighted>
-9.6122

> <Gold.Chemscore.Internal_Hbond.Weighted>
0.0000

> <Gold.Chemscore.DEClash.Weighted>
0.0936

> <Gold.Chemscore.DEInternal.Weighted>
1.0929

> <Gold.Chemscore.Rot.Weighted>
13.4839

> <Gold.Chemscore.Internal.Correction.Weighted>
   9.000000E+99

> <Gold.Protein.RotatedTorsions>
[ 6907 6896 6895 6894 ] final -106.80 input  -60.11 | X-H torsion
[ 7974 7965 7964 7962 ] final  132.54 input  175.53 | X-H torsion
[ 8008 7997 7996 7995 ] final  -79.83 input   59.86 | X-H torsion
[ 10167 10162 10161 10158 ] final  168.52 input  -65.29 | X-H torsion
[ 10718 10713 10712 10709 ] final  118.06 input   66.30 | X-H torsion
[ 10763 10752 10751 10750 ] final -177.81 input  -60.55 | X-H torsion
[ 11005 11000 10999 10996 ] final -135.08 input  -57.11 | X-H torsion

> <Gold.Protein.ActiveResidues>
 VAL166  LYS551  ARG553  GLY616  TRP617  ASP618  TYR619  PRO620  LYS621  CYS622 
 ASP623  PHE694  ASN695  SER759  ASP760  ASP761  ALA762  ILE779  LEU786  VAL792 
 PHE793  MET794  SER795  GLU796  ALA797  LYS798  CYS799  TRP800  GLU811  SER814 

> <Gold.Protein.RotatedAtoms>
  150.7409  133.9922  159.3610 H   0  0  0  0  0  0  0  0  0  0  0  0  # atno 6907 bound_to 6896
  151.7871  135.0744  160.0391 H   0  0  0  0  0  0  0  0  0  0  0  0  # atno 6908 bound_to 6896
  152.3234  133.5841  159.5796 H   0  0  0  0  0  0  0  0  0  0  0  0  # atno 6909 bound_to 6896
  144.9957  139.4361  143.5317 H   0  0  0  0  0  0  0  0  0  0  0  0  # atno 7974 bound_to 7965
  154.5823  140.0672  156.9122 H   0  0  0  0  0  0  0  0  0  0  0  0  # atno 8008 bound_to 7997
  155.2441  140.3347  155.4271 H   0  0  0  0  0  0  0  0  0  0  0  0  # atno 8009 bound_to 7997
  156.2198  140.1794  156.7488 H   0  0  0  0  0  0  0  0  0  0  0  0  # atno 8010 bound_to 7997
  139.4970  144.3805  151.9627 H   0  0  0  0  0  0  0  0  0  0  0  0  # atno 10167 bound_to 10162
  157.6055  131.1044  150.7703 H   0  0  0  0  0  0  0  0  0  0  0  0  # atno 10718 bound_to 10713
  154.5555  135.2816  155.0968 H   0  0  0  0  0  0  0  0  0  0  0  0  # atno 10763 bound_to 10752
  154.2397  135.6359  153.5207 H   0  0  0  0  0  0  0  0  0  0  0  0  # atno 10764 bound_to 10752
  153.0014  135.5557  154.6134 H   0  0  0  0  0  0  0  0  0  0  0  0  # atno 10765 bound_to 10752
  140.8931  134.1786  157.4514 H   0  0  0  0  0  0  0  0  0  0  0  0  # atno 11005 bound_to 11000
  146.3441  139.9316  142.8753 LP  0  0  0  0  0  0  0  0  0  0  0  0  # atno 17320 bound_to 7965
  145.2223  140.9940  143.4038 LP  0  0  0  0  0  0  0  0  0  0  0  0  # atno 17321 bound_to 7965
  140.3241  144.3393  150.6002 LP  0  0  0  0  0  0  0  0  0  0  0  0  # atno 17342 bound_to 10162
  140.5698  143.2182  151.7619 LP  0  0  0  0  0  0  0  0  0  0  0  0  # atno 17343 bound_to 10162
  156.8093  130.4947  149.5358 LP  0  0  0  0  0  0  0  0  0  0  0  0  # atno 17370 bound_to 10713
  156.1140  130.6061  151.0092 LP  0  0  0  0  0  0  0  0  0  0  0  0  # atno 17371 bound_to 10713
  139.8732  134.9867  156.5335 LP  0  0  0  0  0  0  0  0  0  0  0  0  # atno 17394 bound_to 11000
  140.8323  133.8270  155.8995 LP  0  0  0  0  0  0  0  0  0  0  0  0  # atno 17395 bound_to 11000

$$$$
