AV-unprocessed.smi:2993|AV-procd|sdf|11402|dock9
  -GOLD-   2272016323D 1   1.00000     0.00000
 Structure written by MMmdl.
 34 35  0  0  0  0  0  0  0  0  1 V2000
  150.7713  141.9089  156.3198 C   0  0  0  0  0  0  0  0  0  0  0  0
  151.1452  140.4732  156.0857 C   0  0  0  0  0  0  0  0  0  0  0  0
  151.2482  140.0254  154.8457 N   0  0  0  0  0  0  0  0  0  0  0  0
  151.6039  138.6775  154.9530 O   0  0  0  0  0  0  0  0  0  0  0  0
  151.7008  138.3622  156.2694 C   0  0  0  0  0  0  0  0  0  0  0  0
  152.0771  136.9548  156.5889 C   0  0  0  0  0  0  0  0  0  0  0  0
  151.4199  139.4548  157.0439 C   0  0  0  0  0  0  0  0  0  0  0  0
  151.4050  139.5660  158.5469 C   0  0  0  0  0  0  0  0  0  0  0  0
  152.5020  140.5288  159.0007 C   0  0  0  0  0  0  0  0  0  0  0  0
  153.6859  140.2226  158.8616 O   0  0  0  0  0  0  0  0  0  0  0  0
  152.0918  141.6838  159.5474 N   0  0  0  0  0  0  0  0  0  0  0  0
  152.9601  142.7336  160.0684 C   0  0  2  0  0  0  0  0  0  0  0  0
  152.7333  142.8470  161.5822 C   0  0  0  0  0  0  0  0  0  0  0  0
  152.7597  144.0776  159.3885 C   0  0  0  0  0  0  0  0  0  0  0  0
  151.4025  144.7397  159.3362 C   0  0  0  0  0  0  0  0  0  0  0  0
  152.0208  144.1816  158.0753 C   0  0  0  0  0  0  0  0  0  0  0  0
  151.0783  142.2431  157.3107 H   0  0  0  0  0  0  0  0  0  0  0  0
  149.6931  142.0487  156.2421 H   0  0  0  0  0  0  0  0  0  0  0  0
  151.2463  142.5670  155.5915 H   0  0  0  0  0  0  0  0  0  0  0  0
  152.4016  136.8598  157.6250 H   0  0  0  0  0  0  0  0  0  0  0  0
  152.8934  136.6175  155.9500 H   0  0  0  0  0  0  0  0  0  0  0  0
  151.2297  136.2864  156.4383 H   0  0  0  0  0  0  0  0  0  0  0  0
  150.4427  139.9290  158.9092 H   0  0  0  0  0  0  0  0  0  0  0  0
  151.5565  138.5955  159.0210 H   0  0  0  0  0  0  0  0  0  0  0  0
  151.0973  141.8436  159.6170 H   0  0  0  0  0  0  0  0  0  0  0  0
  153.9978  142.4293  159.9177 H   0  0  0  0  0  0  0  0  0  0  0  0
  153.4061  143.5810  162.0267 H   0  0  0  0  0  0  0  0  0  0  0  0
  152.9141  141.8940  162.0808 H   0  0  0  0  0  0  0  0  0  0  0  0
  151.7115  143.1533  161.8089 H   0  0  0  0  0  0  0  0  0  0  0  0
  153.6107  144.7481  159.4967 H   0  0  0  0  0  0  0  0  0  0  0  0
  150.5560  144.2014  159.7578 H   0  0  0  0  0  0  0  0  0  0  0  0
  151.3673  145.8217  159.4449 H   0  0  0  0  0  0  0  0  0  0  0  0
  152.3983  144.8916  157.3425 H   0  0  0  0  0  0  0  0  0  0  0  0
  151.5856  143.2731  157.6636 H   0  0  0  0  0  0  0  0  0  0  0  0
  1  2  1  0  0  0  0
  1 17  1  0  0  0  0
  1 18  1  0  0  0  0
  1 19  1  0  0  0  0
  2  7  1  0  0  0  0
  2  3  2  0  0  0  0
  3  4  1  0  0  0  0
  4  5  1  0  0  0  0
  5  6  1  0  0  0  0
  5  7  2  0  0  0  0
  6 20  1  0  0  0  0
  6 21  1  0  0  0  0
  6 22  1  0  0  0  0
  7  8  1  0  0  0  0
  8  9  1  0  0  0  0
  8 23  1  0  0  0  0
  8 24  1  0  0  0  0
  9 10  2  0  0  0  0
  9 11  1  0  0  0  0
 11 12  1  0  0  0  0
 11 25  1  0  0  0  0
 12 13  1  0  0  0  0
 12 14  1  0  0  0  0
 12 26  1  0  0  0  0
 13 27  1  0  0  0  0
 13 28  1  0  0  0  0
 13 29  1  0  0  0  0
 14 16  1  0  0  0  0
 14 15  1  0  0  0  0
 14 30  1  0  0  0  0
 15 16  1  0  0  0  0
 15 31  1  0  0  0  0
 15 32  1  0  0  0  0
 16 33  1  0  0  0  0
 16 34  1  0  0  0  0
M  END
> <s_m_source_file>
AV-unprocessed.smi

> <i_m_source_file_index>
2993

> <i_lp_mmshare_version>
43012

> <i_f3d_flags>
0

> <s_epik_input>
W0NIM11jMW5vYyhbQ0gzXSljMVtDSDJdQyg9TylbTkhdW0NASF0oW0NIM10pW0NIXTJbQ0gyXVtDSDJdMg==

> <s_epik_cmdline>
J2VwaWtfcHl0aG9uJywgJy1waCcsICc3LjAnLCAnLXRuJywgJzgnLCAnLW1hJywgJzIwMCcsICctbWV0YWxfYmluZGluZycsICctaW1hZScsICc8aW5maWxlLm1hZT4nLCAnLW9tYWUnLCAnPG91dGZpbGUubWFlPic=

> <r_lp_tautomer_probability>
1

> <r_epik_Ionization_Penalty>
1.92533e-08

> <r_epik_Ionization_Penalty_Charging>
0

> <r_epik_Ionization_Penalty_Neutral>
1.92533e-08

> <r_epik_State_Penalty>
-0

> <r_epik_Charging_Adjusted_Penalty>
0

> <i_epik_Tot_Q>
0

> <i_epik_Tot_abs_Q>
0

> <r_epik_Metal_State_Penalty>
-0

> <b_epik_Metal_Only>
0

> <s_lp_Force_Field>
OPLS_2005

> <r_lp_Energy>
6.61094

> <b_lp_Chiralities_Consistent>
1

> <s_lp_Variant>
AV-unprocessed.smi:2993-1

> <Gold.Version>
5.8.1

> <Gold.Id.Protein>
6NUR|6NUR_protein|mol2

> <Gold.PLP.Fitness>
41.9241

> <Gold.PLP.PLP>
-36.4605

> <Gold.PLP.part.hbond>
-1.9553

> <Gold.PLP.part.metal>
0.0000

> <Gold.PLP.part.buried>
-5.3586

> <Gold.PLP.part.nonpolar>
-29.3343

> <Gold.PLP.part.repulsive>
0.2744

> <Gold.PLP.ligand.clash>
0.0000

> <Gold.PLP.ligand.torsion>
0.7171

> <Gold.PLP.Chemscore.Hbond>
1.9440

> <Gold.PLP.Chemscore.CHOScore>
0.0000

> <Gold.PLP.Chemscore.Metal>
0.0000

> <Gold.Chemscore.Hbonds>
donor molecule, donor type, donor heavy atom, donor atom, acceptor molecule, acceptor atom, score
      P1  H  7989  7998       L1     3  1.00
      P1  H  7997  8010       L1    10  0.93

> <Gold.PLP.Chemscore.Internal.Correction>
1.0658

> <Gold.Rescore>
     Score         DG    S(hbond)    S(metal)    S(lipo)     H(rot)  DE(clash)    DE(int)     intcor
     18.91     -19.59       1.98        0.00      96.06       1.46       0.04       0.63       ----

> <Gold.Chemscore.Fitness>
18.9143

> <Gold.Chemscore.DG>
-19.5924

> <Gold.Chemscore.ZeroCoef>
-5.4800

> <Gold.Chemscore.Hbond>
1.9780

> <Gold.Chemscore.Metal>
0.0000

> <Gold.Chemscore.Lipo>
96.0621

> <Gold.Chemscore.Internal_Hbond>
0.0000

> <Gold.Chemscore.DEClash>
0.0435

> <Gold.Chemscore.DEInternal>
0.6346

> <Gold.Chemscore.Rot>
1.4584

> <Gold.Chemscore.Internal.Correction>
   9.000000E+99

> <Gold.Chemscore.Hbonds>
donor molecule, donor type, donor heavy atom, donor atom, acceptor molecule, acceptor atom, score
      P1  H  7989  7998       L1     3  0.97
      P1  H  7997  8010       L1    10  0.86

> <Gold.Chemscore.Hbond.Weighted>
-6.6066

> <Gold.Chemscore.Metal.Weighted>
-0.0000

> <Gold.Chemscore.Lipo.Weighted>
-11.2393

> <Gold.Chemscore.Internal_Hbond.Weighted>
0.0000

> <Gold.Chemscore.DEClash.Weighted>
0.0435

> <Gold.Chemscore.DEInternal.Weighted>
0.6346

> <Gold.Chemscore.Rot.Weighted>
3.7334

> <Gold.Chemscore.Internal.Correction.Weighted>
   9.000000E+99

> <Gold.Protein.RotatedTorsions>
[ 6907 6896 6895 6894 ] final   54.03 input  -60.11 | X-H torsion
[ 7974 7965 7964 7962 ] final    2.45 input  175.53 | X-H torsion
[ 8008 7997 7996 7995 ] final   19.51 input   59.86 | X-H torsion
[ 10167 10162 10161 10158 ] final  132.93 input  -65.29 | X-H torsion
[ 10718 10713 10712 10709 ] final   38.68 input   66.30 | X-H torsion
[ 10763 10752 10751 10750 ] final  -56.03 input  -60.55 | X-H torsion
[ 11005 11000 10999 10996 ] final   -6.30 input  -57.11 | X-H torsion

> <Gold.Protein.ActiveResidues>
 VAL166  LYS551  ARG553  GLY616  TRP617  ASP618  TYR619  PRO620  LYS621  CYS622 
 ASP623  PHE694  ASN695  SER759  ASP760  ASP761  ALA762  ILE779  LEU786  VAL792 
 PHE793  MET794  SER795  GLU796  ALA797  LYS798  CYS799  TRP800  GLU811  SER814 

> <Gold.Protein.RotatedAtoms>
  152.3398  134.7150  160.0266 H   0  0  0  0  0  0  0  0  0  0  0  0  # atno 6907 bound_to 6896
  151.7539  133.3324  159.3407 H   0  0  0  0  0  0  0  0  0  0  0  0  # atno 6908 bound_to 6896
  150.7472  134.6100  159.6125 H   0  0  0  0  0  0  0  0  0  0  0  0  # atno 6909 bound_to 6896
  146.2444  140.0835  142.8356 H   0  0  0  0  0  0  0  0  0  0  0  0  # atno 7974 bound_to 7965
  154.9219  140.3028  155.5212 H   0  0  0  0  0  0  0  0  0  0  0  0  # atno 8008 bound_to 7997
  156.3009  140.2370  156.4206 H   0  0  0  0  0  0  0  0  0  0  0  0  # atno 8009 bound_to 7997
  154.8322  140.0418  157.1474 H   0  0  0  0  0  0  0  0  0  0  0  0  # atno 8010 bound_to 7997
  139.5318  144.6639  151.4923 H   0  0  0  0  0  0  0  0  0  0  0  0  # atno 10167 bound_to 10162
  157.3617  130.7653  149.7052 H   0  0  0  0  0  0  0  0  0  0  0  0  # atno 10718 bound_to 10713
  154.2002  135.6412  153.5085 H   0  0  0  0  0  0  0  0  0  0  0  0  # atno 10763 bound_to 10752
  153.0014  135.5449  154.6323 H   0  0  0  0  0  0  0  0  0  0  0  0  # atno 10764 bound_to 10752
  154.5734  135.2919  155.0778 H   0  0  0  0  0  0  0  0  0  0  0  0  # atno 10765 bound_to 10752
  140.7005  133.8994  155.8680 H   0  0  0  0  0  0  0  0  0  0  0  0  # atno 11005 bound_to 11000
  145.0713  140.9157  143.4880 LP  0  0  0  0  0  0  0  0  0  0  0  0  # atno 17320 bound_to 7965
  145.0969  139.2850  143.5706 LP  0  0  0  0  0  0  0  0  0  0  0  0  # atno 17321 bound_to 7965
  140.6501  143.8713  150.6777 LP  0  0  0  0  0  0  0  0  0  0  0  0  # atno 17342 bound_to 10162
  140.2075  143.3909  152.1744 LP  0  0  0  0  0  0  0  0  0  0  0  0  # atno 17343 bound_to 10162
  155.9738  130.4112  150.3969 LP  0  0  0  0  0  0  0  0  0  0  0  0  # atno 17370 bound_to 10713
  157.2047  131.0446  151.2632 LP  0  0  0  0  0  0  0  0  0  0  0  0  # atno 17371 bound_to 10713
  141.0167  134.0945  157.4164 LP  0  0  0  0  0  0  0  0  0  0  0  0  # atno 17394 bound_to 11000
  139.8898  135.0107  156.6700 LP  0  0  0  0  0  0  0  0  0  0  0  0  # atno 17395 bound_to 11000

$$$$
