AV-unprocessed.smi:2179|AV-procd|sdf|8856|dock4
  -GOLD-   2272012 53D 1   1.00000     0.00000
 Structure written by MMmdl.
 47 48  0  0  0  0  0  0  0  0  1 V2000
  148.8822  130.6294  153.6874 C   0  0  0  0  0  0  0  0  0  0  0  0
  149.4833  131.6828  154.6121 C   0  0  0  0  0  0  0  0  0  0  0  0
  149.9607  131.3486  155.6958 O   0  0  0  0  0  0  0  0  0  0  0  0
  149.4592  132.9496  154.1710 N   0  0  0  0  0  0  0  0  0  0  0  0
  149.9851  134.0982  154.8988 C   0  0  0  0  0  0  0  0  0  0  0  0
  148.9761  135.2604  154.9248 C   0  0  0  0  0  0  0  0  0  0  0  0
  149.5063  136.4106  155.6462 N   0  0  0  0  0  0  0  0  0  0  0  0
  150.6947  136.9881  155.4060 C   0  0  0  0  0  0  0  0  0  0  0  0
  151.4637  136.6178  154.5187 O   0  0  0  0  0  0  0  0  0  0  0  0
  151.0198  138.1815  156.2567 C   0  0  0  0  0  0  0  0  0  0  0  0
  150.1755  138.5961  157.3094 C   0  0  0  0  0  0  0  0  0  0  0  0
  150.5471  139.7080  158.0893 C   0  0  0  0  0  0  0  0  0  0  0  0
  151.7591  140.3797  157.8030 C   0  0  0  0  0  0  0  0  0  0  0  0
  152.1520  141.4977  158.5710 N   0  0  0  0  0  0  0  0  0  0  0  0
  152.4037  141.2394  159.9863 C   0  0  0  0  0  0  0  0  0  0  0  0
  153.1246  142.4379  160.6321 C   0  0  2  0  0  0  0  0  0  0  0  0
  153.2977  142.2585  162.1438 C   0  0  0  0  0  0  0  0  0  0  0  0
  152.3627  143.6208  160.4070 O   0  0  0  0  0  0  0  0  0  0  0  0
  152.2218  143.9217  159.0214 C   0  0  2  0  0  0  0  0  0  0  0  0
  151.4749  145.2531  158.8913 C   0  0  0  0  0  0  0  0  0  0  0  0
  151.4723  142.7686  158.3289 C   0  0  0  0  0  0  0  0  0  0  0  0
  152.5760  139.9688  156.8021 N   0  0  0  0  0  0  0  0  0  0  0  0
  152.2167  138.9018  156.0577 C   0  0  0  0  0  0  0  0  0  0  0  0
  149.6473  130.2388  153.0160 H   0  0  0  0  0  0  0  0  0  0  0  0
  148.0744  131.0475  153.0856 H   0  0  0  0  0  0  0  0  0  0  0  0
  148.4783  129.7983  154.2664 H   0  0  0  0  0  0  0  0  0  0  0  0
  149.0454  133.1306  153.2678 H   0  0  0  0  0  0  0  0  0  0  0  0
  150.2070  133.7760  155.9165 H   0  0  0  0  0  0  0  0  0  0  0  0
  150.9329  134.4162  154.4604 H   0  0  0  0  0  0  0  0  0  0  0  0
  148.6930  135.5525  153.9118 H   0  0  0  0  0  0  0  0  0  0  0  0
  148.0592  134.9457  155.4241 H   0  0  0  0  0  0  0  0  0  0  0  0
  148.9281  136.7978  156.3776 H   0  0  0  0  0  0  0  0  0  0  0  0
  149.2570  138.0723  157.5309 H   0  0  0  0  0  0  0  0  0  0  0  0
  149.9103  140.0185  158.9041 H   0  0  0  0  0  0  0  0  0  0  0  0
  151.4491  141.0628  160.4838 H   0  0  0  0  0  0  0  0  0  0  0  0
  153.0060  140.3437  160.1315 H   0  0  0  0  0  0  0  0  0  0  0  0
  154.1122  142.5575  160.1825 H   0  0  0  0  0  0  0  0  0  0  0  0
  153.8874  141.3694  162.3689 H   0  0  0  0  0  0  0  0  0  0  0  0
  152.3334  142.1566  162.6424 H   0  0  0  0  0  0  0  0  0  0  0  0
  153.8094  143.1162  162.5812 H   0  0  0  0  0  0  0  0  0  0  0  0
  153.2123  144.0353  158.5770 H   0  0  0  0  0  0  0  0  0  0  0  0
  151.3505  145.5326  157.8449 H   0  0  0  0  0  0  0  0  0  0  0  0
  152.0210  146.0560  159.3869 H   0  0  0  0  0  0  0  0  0  0  0  0
  150.4840  145.1955  159.3429 H   0  0  0  0  0  0  0  0  0  0  0  0
  151.4165  142.9672  157.2576 H   0  0  0  0  0  0  0  0  0  0  0  0
  150.4495  142.7051  158.7036 H   0  0  0  0  0  0  0  0  0  0  0  0
  152.9094  138.6228  155.2769 H   0  0  0  0  0  0  0  0  0  0  0  0
  1  2  1  0  0  0  0
  1 24  1  0  0  0  0
  1 25  1  0  0  0  0
  1 26  1  0  0  0  0
  2  3  2  0  0  0  0
  2  4  1  0  0  0  0
  4  5  1  0  0  0  0
  4 27  1  0  0  0  0
  5  6  1  0  0  0  0
  5 28  1  0  0  0  0
  5 29  1  0  0  0  0
  6  7  1  0  0  0  0
  6 30  1  0  0  0  0
  6 31  1  0  0  0  0
  7  8  1  0  0  0  0
  7 32  1  0  0  0  0
  8  9  2  0  0  0  0
  8 10  1  0  0  0  0
 10 23  1  0  0  0  0
 10 11  2  0  0  0  0
 11 12  1  0  0  0  0
 11 33  1  0  0  0  0
 12 13  2  0  0  0  0
 12 34  1  0  0  0  0
 13 14  1  0  0  0  0
 13 22  1  0  0  0  0
 14 21  1  0  0  0  0
 14 15  1  0  0  0  0
 15 16  1  0  0  0  0
 15 35  1  0  0  0  0
 15 36  1  0  0  0  0
 16 17  1  0  0  0  0
 16 18  1  0  0  0  0
 16 37  1  0  0  0  0
 17 38  1  0  0  0  0
 17 39  1  0  0  0  0
 17 40  1  0  0  0  0
 18 19  1  0  0  0  0
 19 20  1  0  0  0  0
 19 21  1  0  0  0  0
 19 41  1  0  0  0  0
 20 42  1  0  0  0  0
 20 43  1  0  0  0  0
 20 44  1  0  0  0  0
 21 45  1  0  0  0  0
 21 46  1  0  0  0  0
 22 23  2  0  0  0  0
 23 47  1  0  0  0  0
M  END
> <s_m_source_file>
AV-unprocessed.smi

> <i_m_source_file_index>
2179

> <i_lp_mmshare_version>
43012

> <i_f3d_flags>
0

> <s_epik_input>
W0NIM11DKD1PKVtOSF1bQ0gyXVtDSDJdW05IXUMoPU8pYzFbY0hdW2NIXWMobltjSF0xKU4yW0NIMl1bQ0BASF0oW0NIM10pT1tDQEBIXShbQ0gzXSlbQ0gyXTI=

> <s_epik_cmdline>
J2VwaWtfcHl0aG9uJywgJy1waCcsICc3LjAnLCAnLXRuJywgJzgnLCAnLW1hJywgJzIwMCcsICctbWV0YWxfYmluZGluZycsICctaW1hZScsICc8aW5maWxlLm1hZT4nLCAnLW9tYWUnLCAnPG91dGZpbGUubWFlPic=

> <r_lp_tautomer_probability>
1

> <r_epik_Ionization_Penalty>
2.00433e-05

> <r_epik_Ionization_Penalty_Charging>
0

> <r_epik_Ionization_Penalty_Neutral>
2.00433e-05

> <r_epik_State_Penalty>
-0

> <r_epik_Charging_Adjusted_Penalty>
0

> <i_epik_Tot_Q>
0

> <i_epik_Tot_abs_Q>
0

> <r_epik_Metal_State_Penalty>
-0

> <b_epik_Metal_Only>
0

> <s_lp_Force_Field>
OPLS_2005

> <r_lp_Energy>
13.6511

> <b_lp_Chiralities_Consistent>
1

> <s_lp_Variant>
AV-unprocessed.smi:2179-1

> <Gold.Version>
5.8.1

> <Gold.Id.Protein>
6NUR|6NUR_protein|mol2

> <Gold.PLP.Fitness>
46.3739

> <Gold.PLP.PLP>
-40.6340

> <Gold.PLP.part.hbond>
-2.0000

> <Gold.PLP.part.metal>
0.0000

> <Gold.PLP.part.buried>
-7.3221

> <Gold.PLP.part.nonpolar>
-32.2410

> <Gold.PLP.part.repulsive>
0.2388

> <Gold.PLP.ligand.clash>
0.0000

> <Gold.PLP.ligand.torsion>
0.3055

> <Gold.PLP.Chemscore.Hbond>
2.0000

> <Gold.PLP.Chemscore.CHOScore>
0.0000

> <Gold.PLP.Chemscore.Metal>
0.0000

> <Gold.Chemscore.Hbonds>
donor molecule, donor type, donor heavy atom, donor atom, acceptor molecule, acceptor atom, score
      P1  H  7997  8010       L1    22  1.00
      P1  H 10752 10763       L1     9  1.00

> <Gold.PLP.Chemscore.Internal.Correction>
0.3508

> <Gold.Rescore>
     Score         DG    S(hbond)    S(metal)    S(lipo)     H(rot)  DE(clash)    DE(int)     intcor
     17.43     -18.92       1.93        0.00     100.57       1.86       0.04       1.46       ----

> <Gold.Chemscore.Fitness>
17.4283

> <Gold.Chemscore.DG>
-18.9229

> <Gold.Chemscore.ZeroCoef>
-5.4800

> <Gold.Chemscore.Hbond>
1.9262

> <Gold.Chemscore.Metal>
0.0000

> <Gold.Chemscore.Lipo>
100.5736

> <Gold.Chemscore.Internal_Hbond>
0.0000

> <Gold.Chemscore.DEClash>
0.0353

> <Gold.Chemscore.DEInternal>
1.4593

> <Gold.Chemscore.Rot>
1.8586

> <Gold.Chemscore.Internal.Correction>
   9.000000E+99

> <Gold.Chemscore.Hbonds>
donor molecule, donor type, donor heavy atom, donor atom, acceptor molecule, acceptor atom, score
      P1  H  7997  8010       L1    22  0.55
      P1  H 10752 10763       L1     9  1.00

> <Gold.Chemscore.Hbond.Weighted>
-6.4337

> <Gold.Chemscore.Metal.Weighted>
-0.0000

> <Gold.Chemscore.Lipo.Weighted>
-11.7671

> <Gold.Chemscore.Internal_Hbond.Weighted>
0.0000

> <Gold.Chemscore.DEClash.Weighted>
0.0353

> <Gold.Chemscore.DEInternal.Weighted>
1.4593

> <Gold.Chemscore.Rot.Weighted>
4.7579

> <Gold.Chemscore.Internal.Correction.Weighted>
   9.000000E+99

> <Gold.Protein.RotatedTorsions>
[ 6907 6896 6895 6894 ] final  -69.95 input  -60.11 | X-H torsion
[ 7974 7965 7964 7962 ] final  -55.13 input  175.53 | X-H torsion
[ 8008 7997 7996 7995 ] final   59.64 input   59.86 | X-H torsion
[ 10167 10162 10161 10158 ] final  138.71 input  -65.29 | X-H torsion
[ 10718 10713 10712 10709 ] final  166.93 input   66.30 | X-H torsion
[ 10763 10752 10751 10750 ] final   42.64 input  -60.55 | X-H torsion
[ 11005 11000 10999 10996 ] final   63.39 input  -57.11 | X-H torsion

> <Gold.Protein.ActiveResidues>
 VAL166  LYS551  ARG553  GLY616  TRP617  ASP618  TYR619  PRO620  LYS621  CYS622 
 ASP623  PHE694  ASN695  SER759  ASP760  ASP761  ALA762  ILE779  LEU786  VAL792 
 PHE793  MET794  SER795  GLU796  ALA797  LYS798  CYS799  TRP800  GLU811  SER814 

> <Gold.Protein.RotatedAtoms>
  150.7281  134.5523  159.5800 H   0  0  0  0  0  0  0  0  0  0  0  0  # atno 6907 bound_to 6896
  152.3007  134.7611  160.0367 H   0  0  0  0  0  0  0  0  0  0  0  0  # atno 6908 bound_to 6896
  151.8193  133.3357  159.3616 H   0  0  0  0  0  0  0  0  0  0  0  0  # atno 6909 bound_to 6896
  145.8777  140.8168  142.9856 H   0  0  0  0  0  0  0  0  0  0  0  0  # atno 7974 bound_to 7965
  155.5695  140.3489  155.4511 H   0  0  0  0  0  0  0  0  0  0  0  0  # atno 8008 bound_to 7997
  156.0455  140.1305  157.0134 H   0  0  0  0  0  0  0  0  0  0  0  0  # atno 8009 bound_to 7997
  154.4410  140.1015  156.6284 H   0  0  0  0  0  0  0  0  0  0  0  0  # atno 8010 bound_to 7997
  139.5102  144.6337  151.5751 H   0  0  0  0  0  0  0  0  0  0  0  0  # atno 10167 bound_to 10162
  157.0588  131.0334  151.2654 H   0  0  0  0  0  0  0  0  0  0  0  0  # atno 10718 bound_to 10713
  152.9878  135.6125  154.2983 H   0  0  0  0  0  0  0  0  0  0  0  0  # atno 10763 bound_to 10752
  154.2705  135.2779  155.2742 H   0  0  0  0  0  0  0  0  0  0  0  0  # atno 10764 bound_to 10752
  154.5127  135.5836  153.6674 H   0  0  0  0  0  0  0  0  0  0  0  0  # atno 10765 bound_to 10752
  140.0028  134.6416  155.9903 H   0  0  0  0  0  0  0  0  0  0  0  0  # atno 11005 bound_to 11000
  144.6726  140.1335  143.7442 LP  0  0  0  0  0  0  0  0  0  0  0  0  # atno 17320 bound_to 7965
  145.9061  139.2459  143.1465 LP  0  0  0  0  0  0  0  0  0  0  0  0  # atno 17321 bound_to 7965
  140.6079  143.9490  150.6432 LP  0  0  0  0  0  0  0  0  0  0  0  0  # atno 17342 bound_to 10162
  140.2723  143.3447  152.1226 LP  0  0  0  0  0  0  0  0  0  0  0  0  # atno 17343 bound_to 10162
  157.4971  130.7857  149.7566 LP  0  0  0  0  0  0  0  0  0  0  0  0  # atno 17370 bound_to 10713
  155.9985  130.3894  150.2701 LP  0  0  0  0  0  0  0  0  0  0  0  0  # atno 17371 bound_to 10713
  141.1654  133.6537  156.4463 LP  0  0  0  0  0  0  0  0  0  0  0  0  # atno 17394 bound_to 11000
  140.4697  134.6765  157.5123 LP  0  0  0  0  0  0  0  0  0  0  0  0  # atno 17395 bound_to 11000

$$$$
