AV-unprocessed.smi:2772|AV-procd|sdf|10667|dock7
  -GOLD-   2272015113D 1   1.00000     0.00000
 Structure written by MMmdl.
 55 57  0  0  0  0  0  0  0  0  3 V2000
  152.6075  143.7724  162.6630 C   0  0  0  0  0  0  0  0  0  0  0  0
  151.9973  143.6675  161.2811 C   0  0  0  0  0  0  0  0  0  0  0  0
  151.8086  144.8145  160.4832 C   0  0  0  0  0  0  0  0  0  0  0  0
  151.2427  144.6582  159.2032 C   0  0  0  0  0  0  0  0  0  0  0  0
  150.8933  143.3585  158.7631 C   0  0  0  0  0  0  0  0  0  0  0  0
  150.3071  143.0719  157.5004 N   0  0  0  0  0  0  0  0  0  0  0  0
  150.4137  141.9509  156.7662 C   0  0  0  0  0  0  0  0  0  0  0  0
  151.0632  140.9532  157.0783 O   0  0  0  0  0  0  0  0  0  0  0  0
  149.6955  142.0376  155.6368 N   0  0  0  0  0  0  0  0  0  0  0  0
  149.5893  140.9849  154.6298 C   0  0  2  0  0  0  0  0  0  0  0  0
  148.3763  141.2479  153.7189 C   0  0  0  0  0  0  0  0  0  0  0  0
  148.1637  140.0858  152.7284 C   0  0  0  0  0  0  0  0  0  0  0  0
  148.0006  138.7781  153.4274 N   0  3  2  0  0  0  0  0  0  0  0  0
  146.6918  138.5939  154.1480 C   0  0  2  0  0  0  0  0  0  0  0  0
  146.5338  137.1999  154.8033 C   0  0  0  0  0  0  0  0  0  0  0  0
  146.4181  136.0804  153.7519 C   0  0  0  0  0  0  0  0  0  0  0  0
  145.2713  136.3237  152.8412 N   0  3  2  0  0  0  0  0  0  0  0  0
  145.0794  135.2260  151.8690 C   0  0  0  0  0  0  0  0  0  0  0  0
  145.3430  137.6542  152.1867 C   0  0  0  0  0  0  0  0  0  0  0  0
  145.4573  138.7794  153.2322 C   0  0  0  0  0  0  0  0  0  0  0  0
  149.2231  138.5022  154.2358 C   0  0  0  0  0  0  0  0  0  0  0  0
  149.4719  139.5963  155.2914 C   0  0  0  0  0  0  0  0  0  0  0  0
  151.1089  142.2841  159.6519 C   0  0  0  0  0  0  0  0  0  0  0  0
  151.6518  142.4251  160.8800 N   0  0  0  0  0  0  0  0  0  0  0  0
  152.9018  144.7976  162.8889 H   0  0  0  0  0  0  0  0  0  0  0  0
  153.4939  143.1416  162.7352 H   0  0  0  0  0  0  0  0  0  0  0  0
  151.8918  143.4488  163.4190 H   0  0  0  0  0  0  0  0  0  0  0  0
  152.0874  145.7947  160.8415 H   0  0  0  0  0  0  0  0  0  0  0  0
  151.0787  145.5342  158.5955 H   0  0  0  0  0  0  0  0  0  0  0  0
  149.6752  143.7765  157.1494 H   0  0  0  0  0  0  0  0  0  0  0  0
  149.1903  142.8938  155.4607 H   0  0  0  0  0  0  0  0  0  0  0  0
  150.4858  141.0011  154.0068 H   0  0  0  0  0  0  0  0  0  0  0  0
  147.4778  141.3977  154.3182 H   0  0  0  0  0  0  0  0  0  0  0  0
  148.5270  142.1752  153.1647 H   0  0  0  0  0  0  0  0  0  0  0  0
  147.3398  140.2985  152.0513 H   0  0  0  0  0  0  0  0  0  0  0  0
  149.0385  140.0136  152.0801 H   0  0  0  0  0  0  0  0  0  0  0  0
  146.6347  139.3387  154.9412 H   0  0  0  0  0  0  0  0  0  0  0  0
  147.3255  136.9824  155.5182 H   0  0  0  0  0  0  0  0  0  0  0  0
  145.6235  137.1990  155.4049 H   0  0  0  0  0  0  0  0  0  0  0  0
  147.3402  136.0036  153.1739 H   0  0  0  0  0  0  0  0  0  0  0  0
  146.2810  135.1225  154.2553 H   0  0  0  0  0  0  0  0  0  0  0  0
  145.9335  135.1446  151.1955 H   0  0  0  0  0  0  0  0  0  0  0  0
  144.1848  135.3951  151.2684 H   0  0  0  0  0  0  0  0  0  0  0  0
  144.9572  134.2723  152.3836 H   0  0  0  0  0  0  0  0  0  0  0  0
  146.1912  137.6844  151.5010 H   0  0  0  0  0  0  0  0  0  0  0  0
  144.4463  137.8081  151.5850 H   0  0  0  0  0  0  0  0  0  0  0  0
  144.5589  138.7643  153.8510 H   0  0  0  0  0  0  0  0  0  0  0  0
  145.4358  139.7558  152.7527 H   0  0  0  0  0  0  0  0  0  0  0  0
  149.2047  137.5149  154.6914 H   0  0  0  0  0  0  0  0  0  0  0  0
  150.0762  138.4707  153.5567 H   0  0  0  0  0  0  0  0  0  0  0  0
  150.3863  139.3662  155.8394 H   0  0  0  0  0  0  0  0  0  0  0  0
  148.6692  139.5948  156.0295 H   0  0  0  0  0  0  0  0  0  0  0  0
  150.8451  141.2760  159.3676 H   0  0  0  0  0  0  0  0  0  0  0  0
  147.9999  138.0799  152.6976 H   0  0  0  0  0  0  0  0  0  0  0  0
  144.4438  136.3353  153.4211 H   0  0  0  0  0  0  0  0  0  0  0  0
  1  2  1  0  0  0  0
  1 25  1  0  0  0  0
  1 26  1  0  0  0  0
  1 27  1  0  0  0  0
  2 24  1  0  0  0  0
  2  3  2  0  0  0  0
  3  4  1  0  0  0  0
  3 28  1  0  0  0  0
  4  5  2  0  0  0  0
  4 29  1  0  0  0  0
  5  6  1  0  0  0  0
  5 23  1  0  0  0  0
  6  7  1  0  0  0  0
  6 30  1  0  0  0  0
  7  8  2  0  0  0  0
  7  9  1  0  0  0  0
  9 10  1  0  0  0  0
  9 31  1  0  0  0  0
 10 22  1  0  0  0  0
 10 11  1  0  0  0  0
 10 32  1  0  0  0  0
 11 12  1  0  0  0  0
 11 33  1  0  0  0  0
 11 34  1  0  0  0  0
 12 13  1  0  0  0  0
 12 35  1  0  0  0  0
 12 36  1  0  0  0  0
 13 14  1  0  0  0  0
 13 21  1  0  0  0  0
 13 54  1  0  0  0  0
 14 20  1  0  0  0  0
 14 15  1  0  0  0  0
 14 37  1  0  0  0  0
 15 16  1  0  0  0  0
 15 38  1  0  0  0  0
 15 39  1  0  0  0  0
 16 17  1  0  0  0  0
 16 40  1  0  0  0  0
 16 41  1  0  0  0  0
 17 18  1  0  0  0  0
 17 19  1  0  0  0  0
 17 55  1  0  0  0  0
 18 42  1  0  0  0  0
 18 43  1  0  0  0  0
 18 44  1  0  0  0  0
 19 20  1  0  0  0  0
 19 45  1  0  0  0  0
 19 46  1  0  0  0  0
 20 47  1  0  0  0  0
 20 48  1  0  0  0  0
 21 22  1  0  0  0  0
 21 49  1  0  0  0  0
 21 50  1  0  0  0  0
 22 51  1  0  0  0  0
 22 52  1  0  0  0  0
 23 24  2  0  0  0  0
 23 53  1  0  0  0  0
M  CHG  1  13   1
M  CHG  1  17   1
M  END
> <s_m_source_file>
AV-unprocessed.smi

> <i_m_source_file_index>
2772

> <i_lp_mmshare_version>
43012

> <i_f3d_flags>
0

> <s_epik_input>
W0NIM11jMVtjSF1bY0hdYyhbY0hdbjEpW05IXUMoPU8pW05IXVtDSF0yW0NIMl1bQ0gyXU4oW0NIMl1bQ0gyXTIpW0NIXTNbQ0gyXVtDSDJdTihbQ0gzXSlbQ0gyXVtDSDJdMw==

> <s_epik_cmdline>
J2VwaWtfcHl0aG9uJywgJy1waCcsICc3LjAnLCAnLXRuJywgJzgnLCAnLW1hJywgJzIwMCcsICctbWV0YWxfYmluZGluZycsICctaW1hZScsICc8aW5maWxlLm1hZT4nLCAnLW9tYWUnLCAnPG91dGZpbGUubWFlPic=

> <r_epik_Ionization_Penalty>
0.196786

> <r_epik_Ionization_Penalty_Charging>
0.180787

> <r_epik_Ionization_Penalty_Neutral>
0.0159988

> <r_epik_State_Penalty>
0.163322

> <r_epik_Charging_Adjusted_Penalty>
0.344109

> <i_epik_Tot_Q>
2

> <i_epik_Tot_abs_Q>
2

> <r_epik_Metal_State_Penalty>
0.163596

> <b_epik_Metal_Only>
0

> <s_lp_Force_Field>
OPLS_2005

> <r_lp_Energy>
49.9042

> <b_lp_Chiralities_Consistent>
1

> <s_lp_Variant>
AV-unprocessed.smi:2772-4

> <Gold.Version>
5.8.1

> <Gold.Id.Protein>
6NUR|6NUR_protein|mol2

> <Gold.PLP.Fitness>
44.3260

> <Gold.PLP.PLP>
-34.4071

> <Gold.PLP.part.hbond>
-4.1412

> <Gold.PLP.part.metal>
0.0000

> <Gold.PLP.part.buried>
3.0225

> <Gold.PLP.part.nonpolar>
-34.0393

> <Gold.PLP.part.repulsive>
0.2539

> <Gold.PLP.ligand.clash>
0.0000

> <Gold.PLP.ligand.torsion>
0.4626

> <Gold.PLP.Chemscore.Hbond>
3.6000

> <Gold.PLP.Chemscore.CHOScore>
0.0000

> <Gold.PLP.Chemscore.Metal>
0.0000

> <Gold.Chemscore.Hbonds>
donor molecule, donor type, donor heavy atom, donor atom, acceptor molecule, acceptor atom, score
      L1  H     6    30       P1  8028  1.00
      L1  H     9    31       P1  8028  1.00
      L1  H    13    54       P1  7948  0.98
      P1  H  6933  6945       L1    24  0.18

> <Gold.PLP.Chemscore.Internal.Correction>
0.0441

> <Gold.Rescore>
     Score         DG    S(hbond)    S(metal)    S(lipo)     H(rot)  DE(clash)    DE(int)     intcor
     17.38     -22.82       2.20        0.00     111.82       1.21       2.05       3.38       ----

> <Gold.Chemscore.Fitness>
17.3810

> <Gold.Chemscore.DG>
-22.8159

> <Gold.Chemscore.ZeroCoef>
-5.4800

> <Gold.Chemscore.Hbond>
2.2001

> <Gold.Chemscore.Metal>
0.0000

> <Gold.Chemscore.Lipo>
111.8210

> <Gold.Chemscore.Internal_Hbond>
0.0000

> <Gold.Chemscore.DEClash>
2.0526

> <Gold.Chemscore.DEInternal>
3.3823

> <Gold.Chemscore.Rot>
1.2092

> <Gold.Chemscore.Internal.Correction>
   9.000000E+99

> <Gold.Chemscore.Hbonds>
donor molecule, donor type, donor heavy atom, donor atom, acceptor molecule, acceptor atom, score
      L1  H     6    30       P1  8028  0.81
      L1  H     9    31       P1  8028  0.98
      L1  H    13    54       P1  7948  0.47
      P1  H  6933  6945       L1    24  0.04

> <Gold.Chemscore.Hbond.Weighted>
-7.3484

> <Gold.Chemscore.Metal.Weighted>
-0.0000

> <Gold.Chemscore.Lipo.Weighted>
-13.0831

> <Gold.Chemscore.Internal_Hbond.Weighted>
0.0000

> <Gold.Chemscore.DEClash.Weighted>
2.0526

> <Gold.Chemscore.DEInternal.Weighted>
3.3823

> <Gold.Chemscore.Rot.Weighted>
3.0955

> <Gold.Chemscore.Internal.Correction.Weighted>
   9.000000E+99

> <Gold.Protein.RotatedTorsions>
[ 6907 6896 6895 6894 ] final   89.12 input  -60.11 | X-H torsion
[ 7974 7965 7964 7962 ] final  -25.82 input  175.53 | X-H torsion
[ 8008 7997 7996 7995 ] final   22.92 input   59.86 | X-H torsion
[ 10167 10162 10161 10158 ] final -153.32 input  -65.29 | X-H torsion
[ 10718 10713 10712 10709 ] final   10.80 input   66.30 | X-H torsion
[ 10763 10752 10751 10750 ] final  -61.30 input  -60.55 | X-H torsion
[ 11005 11000 10999 10996 ] final -130.12 input  -57.11 | X-H torsion

> <Gold.Protein.ActiveResidues>
 VAL166  LYS551  ARG553  GLY616  TRP617  ASP618  TYR619  PRO620  LYS621  CYS622 
 ASP623  PHE694  ASN695  SER759  ASP760  ASP761  ALA762  ILE779  LEU786  VAL792 
 PHE793  MET794  SER795  GLU796  ALA797  LYS798  CYS799  TRP800  GLU811  SER814 

> <Gold.Protein.RotatedAtoms>
  152.5433  134.2016  159.8713 H   0  0  0  0  0  0  0  0  0  0  0  0  # atno 6907 bound_to 6896
  151.2004  133.4607  159.2603 H   0  0  0  0  0  0  0  0  0  0  0  0  # atno 6908 bound_to 6896
  151.0995  134.9976  159.8497 H   0  0  0  0  0  0  0  0  0  0  0  0  # atno 6909 bound_to 6896
  146.1466  140.4938  142.8629 H   0  0  0  0  0  0  0  0  0  0  0  0  # atno 7974 bound_to 7965
  154.9730  140.3092  155.4979 H   0  0  0  0  0  0  0  0  0  0  0  0  # atno 8008 bound_to 7997
  156.2963  140.2280  156.4763 H   0  0  0  0  0  0  0  0  0  0  0  0  # atno 8009 bound_to 7997
  154.7859  140.0443  157.1151 H   0  0  0  0  0  0  0  0  0  0  0  0  # atno 8010 bound_to 7997
  139.7107  143.9114  152.2467 H   0  0  0  0  0  0  0  0  0  0  0  0  # atno 10167 bound_to 10162
  156.9863  130.6025  149.5681 H   0  0  0  0  0  0  0  0  0  0  0  0  # atno 10718 bound_to 10713
  154.2825  135.6269  153.5352 H   0  0  0  0  0  0  0  0  0  0  0  0  # atno 10763 bound_to 10752
  152.9864  135.5636  154.5480 H   0  0  0  0  0  0  0  0  0  0  0  0  # atno 10764 bound_to 10752
  154.5073  135.2875  155.1347 H   0  0  0  0  0  0  0  0  0  0  0  0  # atno 10765 bound_to 10752
  140.9373  134.1239  157.4182 H   0  0  0  0  0  0  0  0  0  0  0  0  # atno 11005 bound_to 11000
  144.7853  140.5924  143.6578 LP  0  0  0  0  0  0  0  0  0  0  0  0  # atno 17320 bound_to 7965
  145.4923  139.1488  143.3703 LP  0  0  0  0  0  0  0  0  0  0  0  0  # atno 17321 bound_to 7965
  139.8982  144.6927  150.8695 LP  0  0  0  0  0  0  0  0  0  0  0  0  # atno 17342 bound_to 10162
  140.7732  143.3534  151.1969 LP  0  0  0  0  0  0  0  0  0  0  0  0  # atno 17343 bound_to 10162
  156.0224  130.5319  150.8314 LP  0  0  0  0  0  0  0  0  0  0  0  0  # atno 17370 bound_to 10713
  157.5490  131.0943  150.9722 LP  0  0  0  0  0  0  0  0  0  0  0  0  # atno 17371 bound_to 10713
  139.8811  135.0025  156.6131 LP  0  0  0  0  0  0  0  0  0  0  0  0  # atno 17394 bound_to 11000
  140.7781  133.8682  155.8546 LP  0  0  0  0  0  0  0  0  0  0  0  0  # atno 17395 bound_to 11000

$$$$
