AV-unprocessed.smi:1401|AV-procd|sdf|5693|dock2
  -GOLD-   22720 5323D 1   1.00000     0.00000
 Structure written by MMmdl.
 48 50  0  0  0  0  0  0  0  0  1 V2000
  145.9860  137.6836  154.6362 C   0  0  0  0  0  0  0  0  0  0  0  0
  147.4124  137.3298  154.9606 C   0  0  0  0  0  0  0  0  0  0  0  0
  148.3194  138.1676  154.5782 N   0  0  0  0  0  0  0  0  0  0  0  0
  149.6594  137.9361  154.8204 N   0  0  0  0  0  0  0  0  0  0  0  0
  150.5574  138.9639  154.2754 C   0  0  0  0  0  0  0  0  0  0  0  0
  150.1080  140.3783  154.6625 C   0  0  0  0  0  0  0  0  0  0  0  0
  149.4747  141.0663  153.8615 O   0  0  0  0  0  0  0  0  0  0  0  0
  150.4506  140.7952  155.8918 N   0  0  0  0  0  0  0  0  0  0  0  0
  150.1879  142.1196  156.4518 C   0  0  1  0  0  0  0  0  0  0  0  0
  148.9611  142.0158  157.3728 C   0  0  0  0  0  0  0  0  0  0  0  0
  151.4378  142.6526  157.2009 C   0  0  2  0  0  0  0  0  0  0  0  0
  151.7474  141.8742  158.5036 C   0  0  0  0  0  0  0  0  0  0  0  0
  151.8232  142.9796  159.5718 C   0  0  1  0  0  0  0  0  0  0  0  0
  153.0879  143.8276  159.3469 C   0  0  0  0  0  0  0  0  0  0  0  0
  152.7352  144.6269  158.0794 C   0  0  0  0  0  0  0  0  0  0  0  0
  151.3273  144.1080  157.7301 C   0  0  2  0  0  0  0  0  0  0  0  0
  150.7188  143.9235  159.1154 C   0  0  0  0  0  0  0  0  0  0  0  0
  150.1527  136.8517  155.4864 C   0  0  0  0  0  0  0  0  0  0  0  0
  151.3566  136.6942  155.6968 O   0  0  0  0  0  0  0  0  0  0  0  0
  149.1200  135.9058  155.9135 C   0  0  0  0  0  0  0  0  0  0  0  0
  149.5956  134.7493  156.6016 C   0  0  0  0  0  0  0  0  0  0  0  0
  149.9708  133.8164  157.1753 N   0  0  0  0  0  0  0  0  0  0  0  0
  147.8022  136.1138  155.6676 C   0  0  0  0  0  0  0  0  0  0  0  0
  146.6919  135.1609  156.0887 C   0  0  0  0  0  0  0  0  0  0  0  0
  145.3765  137.7052  155.5397 H   0  0  0  0  0  0  0  0  0  0  0  0
  145.5533  136.9531  153.9524 H   0  0  0  0  0  0  0  0  0  0  0  0
  145.9075  138.6638  154.1632 H   0  0  0  0  0  0  0  0  0  0  0  0
  151.5739  138.8185  154.6452 H   0  0  0  0  0  0  0  0  0  0  0  0
  150.6236  138.8675  153.1898 H   0  0  0  0  0  0  0  0  0  0  0  0
  150.9701  140.1550  156.4748 H   0  0  0  0  0  0  0  0  0  0  0  0
  149.9355  142.8142  155.6490 H   0  0  0  0  0  0  0  0  0  0  0  0
  148.6800  142.9866  157.7807 H   0  0  0  0  0  0  0  0  0  0  0  0
  149.1509  141.3467  158.2128 H   0  0  0  0  0  0  0  0  0  0  0  0
  148.0962  141.6316  156.8310 H   0  0  0  0  0  0  0  0  0  0  0  0
  152.2890  142.5852  156.5212 H   0  0  0  0  0  0  0  0  0  0  0  0
  150.9465  141.1780  158.7551 H   0  0  0  0  0  0  0  0  0  0  0  0
  152.6721  141.3002  158.4335 H   0  0  0  0  0  0  0  0  0  0  0  0
  151.7198  142.6091  160.5920 H   0  0  0  0  0  0  0  0  0  0  0  0
  153.2616  144.4999  160.1881 H   0  0  0  0  0  0  0  0  0  0  0  0
  153.9799  143.2134  159.2183 H   0  0  0  0  0  0  0  0  0  0  0  0
  152.7088  145.6955  158.2970 H   0  0  0  0  0  0  0  0  0  0  0  0
  153.4515  144.4704  157.2721 H   0  0  0  0  0  0  0  0  0  0  0  0
  150.7850  144.7957  157.0839 H   0  0  0  0  0  0  0  0  0  0  0  0
  149.7299  143.4626  159.0992 H   0  0  0  0  0  0  0  0  0  0  0  0
  150.6723  144.8478  159.6942 H   0  0  0  0  0  0  0  0  0  0  0  0
  147.0813  134.2395  156.5202 H   0  0  0  0  0  0  0  0  0  0  0  0
  146.0766  134.8822  155.2327 H   0  0  0  0  0  0  0  0  0  0  0  0
  146.0509  135.6302  156.8354 H   0  0  0  0  0  0  0  0  0  0  0  0
  1  2  1  0  0  0  0
  1 25  1  0  0  0  0
  1 26  1  0  0  0  0
  1 27  1  0  0  0  0
  2 23  1  0  0  0  0
  2  3  2  0  0  0  0
  3  4  1  0  0  0  0
  4  5  1  0  0  0  0
  4 18  1  0  0  0  0
  5  6  1  0  0  0  0
  5 28  1  0  0  0  0
  5 29  1  0  0  0  0
  6  7  2  0  0  0  0
  6  8  1  0  0  0  0
  8  9  1  0  0  0  0
  8 30  1  0  0  0  0
  9 10  1  0  0  0  0
  9 11  1  0  0  0  0
  9 31  1  0  0  0  0
 10 32  1  0  0  0  0
 10 33  1  0  0  0  0
 10 34  1  0  0  0  0
 11 16  1  0  0  0  0
 11 12  1  0  0  0  0
 11 35  1  0  0  0  0
 12 13  1  0  0  0  0
 12 36  1  0  0  0  0
 12 37  1  0  0  0  0
 13 17  1  0  0  0  0
 13 14  1  0  0  0  0
 13 38  1  0  0  0  0
 14 15  1  0  0  0  0
 14 39  1  0  0  0  0
 14 40  1  0  0  0  0
 15 16  1  0  0  0  0
 15 41  1  0  0  0  0
 15 42  1  0  0  0  0
 16 17  1  0  0  0  0
 16 43  1  0  0  0  0
 17 44  1  0  0  0  0
 17 45  1  0  0  0  0
 18 19  2  0  0  0  0
 18 20  1  0  0  0  0
 20 21  1  0  0  0  0
 20 23  2  0  0  0  0
 21 22  3  0  0  0  0
 23 24  1  0  0  0  0
 24 46  1  0  0  0  0
 24 47  1  0  0  0  0
 24 48  1  0  0  0  0
M  END
> <s_m_source_file>
AV-unprocessed.smi

> <i_m_source_file_index>
1401

> <i_lp_mmshare_version>
43012

> <i_f3d_flags>
0

> <s_epik_input>
TiNDYyhjMVtDSDNdKWMoPU8pbihuYzFbQ0gzXSlbQ0gyXUMoPU8pW05IXVtDQEhdKFtDSDNdKVtDQEhdKFtDSDJdW0NASF0yMylbQ0BIXShbQ0gyXTMpW0NIMl1bQ0gyXTI=

> <s_epik_cmdline>
J2VwaWtfcHl0aG9uJywgJy1waCcsICc3LjAnLCAnLXRuJywgJzgnLCAnLW1hJywgJzIwMCcsICctbWV0YWxfYmluZGluZycsICctaW1hZScsICc8aW5maWxlLm1hZT4nLCAnLW9tYWUnLCAnPG91dGZpbGUubWFlPic=

> <r_lp_tautomer_probability>
1

> <r_epik_Ionization_Penalty>
2.16501e-08

> <r_epik_Ionization_Penalty_Charging>
2.29436e-11

> <r_epik_Ionization_Penalty_Neutral>
2.16271e-08

> <r_epik_State_Penalty>
-0

> <r_epik_Charging_Adjusted_Penalty>
2.29436e-11

> <i_epik_Tot_Q>
0

> <i_epik_Tot_abs_Q>
0

> <r_epik_Metal_State_Penalty>
-0

> <b_epik_Metal_Only>
0

> <s_lp_Force_Field>
OPLS_2005

> <r_lp_Energy>
65.2014

> <b_lp_Chiralities_Consistent>
1

> <s_lp_Variant>
AV-unprocessed.smi:1401-6

> <Gold.Version>
5.8.1

> <Gold.Id.Protein>
6NUR|6NUR_protein|mol2

> <Gold.PLP.Fitness>
42.8253

> <Gold.PLP.PLP>
-38.2352

> <Gold.PLP.part.hbond>
-3.3797

> <Gold.PLP.part.metal>
0.0000

> <Gold.PLP.part.buried>
-5.2781

> <Gold.PLP.part.nonpolar>
-30.9369

> <Gold.PLP.part.repulsive>
1.0703

> <Gold.PLP.ligand.clash>
0.0000

> <Gold.PLP.ligand.torsion>
0.6955

> <Gold.PLP.Chemscore.Hbond>
1.9864

> <Gold.PLP.Chemscore.CHOScore>
0.0000

> <Gold.PLP.Chemscore.Metal>
0.0000

> <Gold.Chemscore.Hbonds>
donor molecule, donor type, donor heavy atom, donor atom, acceptor molecule, acceptor atom, score
      P1  H  6896  6908       L1    22  0.27
      P1  H  8011  8017       L1     7  0.84
      P1  H 10752 10764       L1    19  0.60

> <Gold.PLP.Chemscore.Internal.Correction>
0.0219

> <Gold.Rescore>
     Score         DG    S(hbond)    S(metal)    S(lipo)     H(rot)  DE(clash)    DE(int)     intcor
     17.80     -19.02       1.73        0.00     102.04       1.63       0.13       1.09       ----

> <Gold.Chemscore.Fitness>
17.7997

> <Gold.Chemscore.DG>
-19.0203

> <Gold.Chemscore.ZeroCoef>
-5.4800

> <Gold.Chemscore.Hbond>
1.7273

> <Gold.Chemscore.Metal>
0.0000

> <Gold.Chemscore.Lipo>
102.0416

> <Gold.Chemscore.Internal_Hbond>
0.0000

> <Gold.Chemscore.DEClash>
0.1345

> <Gold.Chemscore.DEInternal>
1.0862

> <Gold.Chemscore.Rot>
1.6281

> <Gold.Chemscore.Internal.Correction>
   9.000000E+99

> <Gold.Chemscore.Hbonds>
donor molecule, donor type, donor heavy atom, donor atom, acceptor molecule, acceptor atom, score
      P1  H  6896  6908       L1    22  0.27
      P1  H  8011  8017       L1     7  0.79
      P1  H 10752 10764       L1    19  0.60

> <Gold.Chemscore.Hbond.Weighted>
-5.7693

> <Gold.Chemscore.Metal.Weighted>
-0.0000

> <Gold.Chemscore.Lipo.Weighted>
-11.9389

> <Gold.Chemscore.Internal_Hbond.Weighted>
0.0000

> <Gold.Chemscore.DEClash.Weighted>
0.1345

> <Gold.Chemscore.DEInternal.Weighted>
1.0862

> <Gold.Chemscore.Rot.Weighted>
4.1678

> <Gold.Chemscore.Internal.Correction.Weighted>
   9.000000E+99

> <Gold.Protein.RotatedTorsions>
[ 6907 6896 6895 6894 ] final   99.73 input  -60.11 | X-H torsion
[ 7974 7965 7964 7962 ] final   61.20 input  175.53 | X-H torsion
[ 8008 7997 7996 7995 ] final  -71.96 input   59.86 | X-H torsion
[ 10167 10162 10161 10158 ] final   59.55 input  -65.29 | X-H torsion
[ 10718 10713 10712 10709 ] final   34.82 input   66.30 | X-H torsion
[ 10763 10752 10751 10750 ] final  -47.88 input  -60.55 | X-H torsion
[ 11005 11000 10999 10996 ] final -103.85 input  -57.11 | X-H torsion

> <Gold.Protein.ActiveResidues>
 VAL166  LYS551  ARG553  GLY616  TRP617  ASP618  TYR619  PRO620  LYS621  CYS622 
 ASP623  PHE694  ASN695  SER759  ASP760  ASP761  ALA762  ILE779  LEU786  VAL792 
 PHE793  MET794  SER795  GLU796  ALA797  LYS798  CYS799  TRP800  GLU811  SER814 

> <Gold.Protein.RotatedAtoms>
  152.5386  134.0385  159.8056 H   0  0  0  0  0  0  0  0  0  0  0  0  # atno 6907 bound_to 6896
  151.0544  133.5589  159.2646 H   0  0  0  0  0  0  0  0  0  0  0  0  # atno 6908 bound_to 6896
  151.2511  135.0630  159.9116 H   0  0  0  0  0  0  0  0  0  0  0  0  # atno 6909 bound_to 6896
  145.8874  139.3486  143.0670 H   0  0  0  0  0  0  0  0  0  0  0  0  # atno 7974 bound_to 7965
  154.5129  140.0806  156.8024 H   0  0  0  0  0  0  0  0  0  0  0  0  # atno 8008 bound_to 7997
  155.3746  140.3424  155.4226 H   0  0  0  0  0  0  0  0  0  0  0  0  # atno 8009 bound_to 7997
  156.1594  140.1583  156.8626 H   0  0  0  0  0  0  0  0  0  0  0  0  # atno 8010 bound_to 7997
  140.1752  144.4237  150.6641 H   0  0  0  0  0  0  0  0  0  0  0  0  # atno 10167 bound_to 10162
  157.3151  130.7419  149.6749 H   0  0  0  0  0  0  0  0  0  0  0  0  # atno 10718 bound_to 10713
  154.0687  135.6608  153.4821 H   0  0  0  0  0  0  0  0  0  0  0  0  # atno 10763 bound_to 10752
  153.0399  135.5152  154.7588 H   0  0  0  0  0  0  0  0  0  0  0  0  # atno 10764 bound_to 10752
  154.6647  135.3020  154.9788 H   0  0  0  0  0  0  0  0  0  0  0  0  # atno 10765 bound_to 10752
  141.1127  133.8674  157.1538 H   0  0  0  0  0  0  0  0  0  0  0  0  # atno 11005 bound_to 11000
  145.8950  140.9280  143.0532 LP  0  0  0  0  0  0  0  0  0  0  0  0  # atno 17320 bound_to 7965
  144.6729  140.0956  143.7463 LP  0  0  0  0  0  0  0  0  0  0  0  0  # atno 17321 bound_to 7965
  140.6556  143.2236  151.5977 LP  0  0  0  0  0  0  0  0  0  0  0  0  # atno 17342 bound_to 10162
  139.5320  144.2889  152.1169 LP  0  0  0  0  0  0  0  0  0  0  0  0  # atno 17343 bound_to 10162
  155.9681  130.4240  150.4587 LP  0  0  0  0  0  0  0  0  0  0  0  0  # atno 17370 bound_to 10713
  157.2592  131.0563  151.2331 LP  0  0  0  0  0  0  0  0  0  0  0  0  # atno 17371 bound_to 10713
  140.0030  135.0020  157.0232 LP  0  0  0  0  0  0  0  0  0  0  0  0  # atno 17394 bound_to 11000
  140.4731  134.1366  155.7206 LP  0  0  0  0  0  0  0  0  0  0  0  0  # atno 17395 bound_to 11000

$$$$
