AV-unprocessed.smi:83|AV-procd|sdf|806|dock5
  -GOLD-   2262017193D 1   1.00000     0.00000
 Structure written by MMmdl.
 56 59  0  0  0  0  0  0  0  0  1 V2000
  151.6934  137.9276  156.4148 C   0  0  0  0  0  0  0  0  0  0  0  0
  151.8244  139.4056  156.0423 C   0  0  0  0  0  0  0  0  0  0  0  0
  152.6645  139.7370  155.2063 O   0  0  0  0  0  0  0  0  0  0  0  0
  151.0127  140.2970  156.6460 N   0  0  0  0  0  0  0  0  0  0  0  0
  151.0399  141.7327  156.3797 C   0  0  0  0  0  0  0  0  0  0  0  0
  150.0051  142.3442  157.3293 C   0  0  0  0  0  0  0  0  0  0  0  0
  149.0234  141.2060  157.6072 C   0  0  1  0  0  0  0  0  0  0  0  0
  147.9217  141.1756  156.5193 C   0  0  0  0  0  0  0  0  0  0  0  0
  148.1923  140.2534  155.4149 N   0  0  0  0  0  0  0  0  0  0  0  0
  149.0556  140.7396  154.3402 C   0  0  0  0  0  0  0  0  0  0  0  0
  147.3820  139.1796  155.1726 C   0  0  0  0  0  0  0  0  0  0  0  0
  146.9757  138.4313  156.2352 N   0  0  0  0  0  0  0  0  0  0  0  0
  146.2187  137.3449  156.0660 C   0  0  0  0  0  0  0  0  0  0  0  0
  145.7543  136.8232  154.9319 N   0  0  0  0  0  0  0  0  0  0  0  0
  146.1381  137.5671  153.8572 C   0  0  0  0  0  0  0  0  0  0  0  0
  146.9347  138.7506  153.8821 C   0  0  0  0  0  0  0  0  0  0  0  0
  147.0898  139.2178  152.5797 N   0  0  0  0  0  0  0  0  0  0  0  0
  146.4483  138.3600  151.8369 C   0  0  0  0  0  0  0  0  0  0  0  0
  145.8481  137.3341  152.5254 N   0  0  0  0  0  0  0  0  0  0  0  0
  145.0734  136.2439  151.9613 C   0  0  0  0  0  0  0  0  0  0  0  0
  145.9060  134.9576  151.7992 C   0  0  1  0  0  0  0  0  0  0  0  0
  146.8288  134.8214  152.8647 O   0  0  0  0  0  0  0  0  0  0  0  0
  145.0363  133.6902  151.6732 C   0  0  1  0  0  0  0  0  0  0  0  0
  144.1571  133.6078  150.4134 C   0  0  0  0  0  0  0  0  0  0  0  0
  144.6722  132.3721  149.6994 C   0  0  0  0  0  0  0  0  0  0  0  0
  145.2364  131.5445  150.8464 C   0  0  0  0  0  0  0  0  0  0  0  0
  145.8493  132.5188  151.6748 O   0  0  0  0  0  0  0  0  0  0  0  0
  149.9569  139.9849  157.6061 C   0  0  0  0  0  0  0  0  0  0  0  0
  151.7529  137.7925  157.4951 H   0  0  0  0  0  0  0  0  0  0  0  0
  152.4934  137.3434  155.9589 H   0  0  0  0  0  0  0  0  0  0  0  0
  150.7431  137.5258  156.0640 H   0  0  0  0  0  0  0  0  0  0  0  0
  152.0318  142.1573  156.5413 H   0  0  0  0  0  0  0  0  0  0  0  0
  150.7591  141.9097  155.3402 H   0  0  0  0  0  0  0  0  0  0  0  0
  150.4955  142.6337  158.2596 H   0  0  0  0  0  0  0  0  0  0  0  0
  149.5312  143.2368  156.9193 H   0  0  0  0  0  0  0  0  0  0  0  0
  148.5565  141.3331  158.5846 H   0  0  0  0  0  0  0  0  0  0  0  0
  146.9950  140.8415  156.9869 H   0  0  0  0  0  0  0  0  0  0  0  0
  147.6900  142.1781  156.1764 H   0  0  0  0  0  0  0  0  0  0  0  0
  149.6708  139.9324  153.9407 H   0  0  0  0  0  0  0  0  0  0  0  0
  149.7284  141.5181  154.7007 H   0  0  0  0  0  0  0  0  0  0  0  0
  148.4611  141.1603  153.5285 H   0  0  0  0  0  0  0  0  0  0  0  0
  145.9520  136.8155  156.9687 H   0  0  0  0  0  0  0  0  0  0  0  0
  146.3931  138.4539  150.7621 H   0  0  0  0  0  0  0  0  0  0  0  0
  144.2093  136.0651  152.6025 H   0  0  0  0  0  0  0  0  0  0  0  0
  144.6834  136.5666  150.9954 H   0  0  0  0  0  0  0  0  0  0  0  0
  146.4987  135.0442  150.8876 H   0  0  0  0  0  0  0  0  0  0  0  0
  147.5946  135.3380  152.6654 H   0  0  0  0  0  0  0  0  0  0  0  0
  144.3866  133.6271  152.5478 H   0  0  0  0  0  0  0  0  0  0  0  0
  143.1147  133.4646  150.7008 H   0  0  0  0  0  0  0  0  0  0  0  0
  144.2031  134.4973  149.7845 H   0  0  0  0  0  0  0  0  0  0  0  0
  143.9001  131.8499  149.1340 H   0  0  0  0  0  0  0  0  0  0  0  0
  145.4740  132.6458  149.0123 H   0  0  0  0  0  0  0  0  0  0  0  0
  144.4373  131.0460  151.3976 H   0  0  0  0  0  0  0  0  0  0  0  0
  145.9511  130.7913  150.5144 H   0  0  0  0  0  0  0  0  0  0  0  0
  149.4407  139.0522  157.3931 H   0  0  0  0  0  0  0  0  0  0  0  0
  150.4185  139.8718  158.5879 H   0  0  0  0  0  0  0  0  0  0  0  0
  1  2  1  0  0  0  0
  1 29  1  0  0  0  0
  1 30  1  0  0  0  0
  1 31  1  0  0  0  0
  2  3  2  0  0  0  0
  2  4  1  0  0  0  0
  4 28  1  0  0  0  0
  4  5  1  0  0  0  0
  5  6  1  0  0  0  0
  5 32  1  0  0  0  0
  5 33  1  0  0  0  0
  6  7  1  0  0  0  0
  6 34  1  0  0  0  0
  6 35  1  0  0  0  0
  7  8  1  0  0  0  0
  7 28  1  0  0  0  0
  7 36  1  0  0  0  0
  8  9  1  0  0  0  0
  8 37  1  0  0  0  0
  8 38  1  0  0  0  0
  9 10  1  0  0  0  0
  9 11  1  0  0  0  0
 10 39  1  0  0  0  0
 10 40  1  0  0  0  0
 10 41  1  0  0  0  0
 11 16  1  0  0  0  0
 11 12  2  0  0  0  0
 12 13  1  0  0  0  0
 13 14  2  0  0  0  0
 13 42  1  0  0  0  0
 14 15  1  0  0  0  0
 15 19  1  0  0  0  0
 15 16  2  0  0  0  0
 16 17  1  0  0  0  0
 17 18  2  0  0  0  0
 18 19  1  0  0  0  0
 18 43  1  0  0  0  0
 19 20  1  0  0  0  0
 20 21  1  0  0  0  0
 20 44  1  0  0  0  0
 20 45  1  0  0  0  0
 21 22  1  0  0  0  0
 21 23  1  0  0  0  0
 21 46  1  0  0  0  0
 22 47  1  0  0  0  0
 23 27  1  0  0  0  0
 23 24  1  0  0  0  0
 23 48  1  0  0  0  0
 24 25  1  0  0  0  0
 24 49  1  0  0  0  0
 24 50  1  0  0  0  0
 25 26  1  0  0  0  0
 25 51  1  0  0  0  0
 25 52  1  0  0  0  0
 26 27  1  0  0  0  0
 26 53  1  0  0  0  0
 26 54  1  0  0  0  0
 28 55  1  0  0  0  0
 28 56  1  0  0  0  0
M  END
> <s_m_source_file>
AV-unprocessed.smi

> <i_m_source_file_index>
83

> <i_lp_mmshare_version>
43012

> <i_f3d_flags>
0

> <s_epik_input>
W0NIM11DKD1PKU4xW0NIMl1bQ0gyXVtDQEhdKFtDSDJdMSlbQ0gyXU4oW0NIM10pYyhuW2NIXW4yKWMoYzIzKW5bY0hdbjNbQ0gyXVtDQEhdKFtPSF0pW0NAQEhdNFtDSDJdW0NIMl1bQ0gyXU80

> <s_epik_cmdline>
J2VwaWtfcHl0aG9uJywgJy1waCcsICc3LjAnLCAnLXRuJywgJzgnLCAnLW1hJywgJzIwMCcsICctbWV0YWxfYmluZGluZycsICctaW1hZScsICc8aW5maWxlLm1hZT4nLCAnLW9tYWUnLCAnPG91dGZpbGUubWFlPic=

> <r_lp_tautomer_probability>
1

> <r_epik_Ionization_Penalty>
0.00109752

> <r_epik_Ionization_Penalty_Charging>
0

> <r_epik_Ionization_Penalty_Neutral>
0.00109752

> <r_epik_State_Penalty>
0.000634803

> <r_epik_Charging_Adjusted_Penalty>
0.000634803

> <i_epik_Tot_Q>
0

> <i_epik_Tot_abs_Q>
0

> <r_epik_Metal_State_Penalty>
-0

> <b_epik_Metal_Only>
0

> <s_lp_Force_Field>
OPLS_2005

> <r_lp_Energy>
56.5247

> <b_lp_Chiralities_Consistent>
1

> <s_lp_Variant>
AV-unprocessed.smi:83-7

> <Gold.Version>
5.8.1

> <Gold.Id.Protein>
6NUR|6NUR_protein|mol2

> <Gold.PLP.Fitness>
46.8025

> <Gold.PLP.PLP>
-39.9979

> <Gold.PLP.part.hbond>
-2.9849

> <Gold.PLP.part.metal>
0.0000

> <Gold.PLP.part.buried>
-6.9211

> <Gold.PLP.part.nonpolar>
-32.4205

> <Gold.PLP.part.repulsive>
0.9316

> <Gold.PLP.ligand.clash>
0.0000

> <Gold.PLP.ligand.torsion>
1.7755

> <Gold.PLP.Chemscore.Hbond>
2.4800

> <Gold.PLP.Chemscore.CHOScore>
0.8217

> <Gold.PLP.Chemscore.Metal>
0.0000

> <Gold.Chemscore.Hbonds>
donor molecule, donor type, donor heavy atom, donor atom, acceptor molecule, acceptor atom, score
      L1  H    22    47       P1  7948  1.00
      P1  H  7989  7998       L1     3  0.23
      P1  H  7997  8008       L1     3  1.00
      L1  C    18    43       P1 10171  0.43

> <Gold.PLP.Chemscore.Internal.Correction>
0.4506

> <Gold.Rescore>
     Score         DG    S(hbond)    S(metal)    S(lipo)     H(rot)  DE(clash)    DE(int)     intcor
     11.57     -15.25       1.99        0.00      83.93       2.62       0.26       3.42       ----

> <Gold.Chemscore.Fitness>
11.5653

> <Gold.Chemscore.DG>
-15.2470

> <Gold.Chemscore.ZeroCoef>
-5.4800

> <Gold.Chemscore.Hbond>
1.9885

> <Gold.Chemscore.Metal>
0.0000

> <Gold.Chemscore.Lipo>
83.9334

> <Gold.Chemscore.Internal_Hbond>
0.0000

> <Gold.Chemscore.DEClash>
0.2639

> <Gold.Chemscore.DEInternal>
3.4179

> <Gold.Chemscore.Rot>
2.6152

> <Gold.Chemscore.Internal.Correction>
   9.000000E+99

> <Gold.Chemscore.Hbonds>
donor molecule, donor type, donor heavy atom, donor atom, acceptor molecule, acceptor atom, score
      L1  H    22    47       P1  7948  1.00
      P1  H  7989  7998       L1     3  0.19
      P1  H  7997  8008       L1     3  0.94

> <Gold.Chemscore.Hbond.Weighted>
-6.6417

> <Gold.Chemscore.Metal.Weighted>
-0.0000

> <Gold.Chemscore.Lipo.Weighted>
-9.8202

> <Gold.Chemscore.Internal_Hbond.Weighted>
0.0000

> <Gold.Chemscore.DEClash.Weighted>
0.2639

> <Gold.Chemscore.DEInternal.Weighted>
3.4179

> <Gold.Chemscore.Rot.Weighted>
6.6949

> <Gold.Chemscore.Internal.Correction.Weighted>
   9.000000E+99

> <Gold.Protein.RotatedTorsions>
[ 6907 6896 6895 6894 ] final  -63.08 input  -60.11 | X-H torsion
[ 7974 7965 7964 7962 ] final -107.92 input  175.53 | X-H torsion
[ 8008 7997 7996 7995 ] final  -13.20 input   59.86 | X-H torsion
[ 10167 10162 10161 10158 ] final -119.08 input  -65.29 | X-H torsion
[ 10718 10713 10712 10709 ] final   15.12 input   66.30 | X-H torsion
[ 10763 10752 10751 10750 ] final  -29.68 input  -60.55 | X-H torsion
[ 11005 11000 10999 10996 ] final   73.27 input  -57.11 | X-H torsion

> <Gold.Protein.ActiveResidues>
 VAL166  LYS551  ARG553  GLY616  TRP617  ASP618  TYR619  PRO620  LYS621  CYS622 
 ASP623  PHE694  ASN695  SER759  ASP760  ASP761  ALA762  ILE779  LEU786  VAL792 
 PHE793  MET794  SER795  GLU796  ALA797  LYS798  CYS799  TRP800  GLU811  SER814 

> <Gold.Protein.RotatedAtoms>
  150.7673  134.6484  159.6274 H   0  0  0  0  0  0  0  0  0  0  0  0  # atno 6907 bound_to 6896
  152.3710  134.6731  160.0185 H   0  0  0  0  0  0  0  0  0  0  0  0  # atno 6908 bound_to 6896
  151.7091  133.3276  159.3322 H   0  0  0  0  0  0  0  0  0  0  0  0  # atno 6909 bound_to 6896
  145.1993  140.9049  143.3379 H   0  0  0  0  0  0  0  0  0  0  0  0  # atno 7974 bound_to 7965
  154.5312  140.2256  155.8801 H   0  0  0  0  0  0  0  0  0  0  0  0  # atno 8008 bound_to 7997
  156.1765  140.3110  155.9033 H   0  0  0  0  0  0  0  0  0  0  0  0  # atno 8009 bound_to 7997
  155.3447  140.0452  157.3036 H   0  0  0  0  0  0  0  0  0  0  0  0  # atno 8010 bound_to 7997
  140.0505  143.5064  152.2084 H   0  0  0  0  0  0  0  0  0  0  0  0  # atno 10167 bound_to 10162
  157.0490  130.6262  149.5764 H   0  0  0  0  0  0  0  0  0  0  0  0  # atno 10718 bound_to 10713
  153.7686  135.6914  153.4911 H   0  0  0  0  0  0  0  0  0  0  0  0  # atno 10763 bound_to 10752
  153.1890  135.4478  155.0123 H   0  0  0  0  0  0  0  0  0  0  0  0  # atno 10764 bound_to 10752
  154.8126  135.3384  154.7197 H   0  0  0  0  0  0  0  0  0  0  0  0  # atno 10765 bound_to 10752
  139.9448  134.7332  156.1006 H   0  0  0  0  0  0  0  0  0  0  0  0  # atno 11005 bound_to 11000
  144.9963  139.3640  143.6189 LP  0  0  0  0  0  0  0  0  0  0  0  0  # atno 17320 bound_to 7965
  146.3421  139.9168  142.8772 LP  0  0  0  0  0  0  0  0  0  0  0  0  # atno 17321 bound_to 7965
  139.5956  144.7566  151.3295 LP  0  0  0  0  0  0  0  0  0  0  0  0  # atno 17342 bound_to 10162
  140.7219  143.7113  150.7767 LP  0  0  0  0  0  0  0  0  0  0  0  0  # atno 17343 bound_to 10162
  156.0014  130.5093  150.7675 LP  0  0  0  0  0  0  0  0  0  0  0  0  # atno 17370 bound_to 10713
  157.5045  131.0921  151.0273 LP  0  0  0  0  0  0  0  0  0  0  0  0  # atno 17371 bound_to 10713
  141.1095  133.6648  156.2945 LP  0  0  0  0  0  0  0  0  0  0  0  0  # atno 17394 bound_to 11000
  140.5861  134.5697  157.5490 LP  0  0  0  0  0  0  0  0  0  0  0  0  # atno 17395 bound_to 11000

$$$$
