AV-unprocessed.smi:1452|AV-procd|sdf|5907|dock3
  -GOLD-   22720 5593D 1   1.00000     0.00000
 Structure written by MMmdl.
 40 42  0  0  0  0  0  0  0  0  2 V2000
  150.8997  140.5982  155.8382 O   0  0  0  0  0  0  0  0  0  0  0  0
  150.1907  141.5936  155.7010 C   0  0  0  0  0  0  0  0  0  0  0  0
  150.3587  142.6868  156.4744 N   0  0  0  0  0  0  0  0  0  0  0  0
  151.2811  142.9535  157.5283 C   0  0  0  0  0  0  0  0  0  0  0  0
  151.5678  144.3229  157.7273 C   0  0  0  0  0  0  0  0  0  0  0  0
  152.4791  144.7048  158.7307 C   0  0  0  0  0  0  0  0  0  0  0  0
  153.0872  143.7051  159.5099 C   0  0  0  0  0  0  0  0  0  0  0  0
  152.7541  142.3645  159.2444 C   0  0  0  0  0  0  0  0  0  0  0  0
  151.8802  141.9968  158.2832 N   0  0  0  0  0  0  0  0  0  0  0  0
  149.2139  141.6658  154.7822 N   0  0  0  0  0  0  0  0  0  0  0  0
  148.8268  140.5873  153.8794 C   0  0  2  0  0  0  0  0  0  0  0  0
  147.3900  140.7005  153.3870 C   0  0  0  0  0  0  0  0  0  0  0  0
  147.0772  139.2803  152.9054 C   0  0  0  0  0  0  0  0  0  0  0  0
  147.9494  138.3617  153.6787 N   0  3  2  0  0  0  0  0  0  0  0  0
  147.2100  137.2942  154.4046 C   0  0  0  0  0  0  0  0  0  0  0  0
  148.0941  136.6455  155.4800 C   0  0  0  0  0  0  0  0  0  0  0  0
  148.5275  137.6689  156.5468 C   0  0  0  0  0  0  0  0  0  0  0  0
  148.5068  139.1159  156.0185 C   0  0  0  0  0  0  0  0  0  0  0  0
  148.8697  139.1848  154.5142 C   0  0  2  0  0  0  0  0  0  0  0  0
  149.7825  143.4751  156.2170 H   0  0  0  0  0  0  0  0  0  0  0  0
  151.0939  145.0799  157.1191 H   0  0  0  0  0  0  0  0  0  0  0  0
  152.7070  145.7471  158.8981 H   0  0  0  0  0  0  0  0  0  0  0  0
  153.7911  143.9587  160.2886 H   0  0  0  0  0  0  0  0  0  0  0  0
  153.2008  141.5655  159.8175 H   0  0  0  0  0  0  0  0  0  0  0  0
  148.6779  142.5212  154.7333 H   0  0  0  0  0  0  0  0  0  0  0  0
  149.4795  140.5993  153.0035 H   0  0  0  0  0  0  0  0  0  0  0  0
  146.7264  140.9656  154.2116 H   0  0  0  0  0  0  0  0  0  0  0  0
  147.2671  141.4485  152.6029 H   0  0  0  0  0  0  0  0  0  0  0  0
  146.0154  139.0498  153.0027 H   0  0  0  0  0  0  0  0  0  0  0  0
  147.3355  139.1780  151.8509 H   0  0  0  0  0  0  0  0  0  0  0  0
  146.3181  137.7085  154.8780 H   0  0  0  0  0  0  0  0  0  0  0  0
  146.8682  136.5483  153.6862 H   0  0  0  0  0  0  0  0  0  0  0  0
  147.5734  135.8124  155.9532 H   0  0  0  0  0  0  0  0  0  0  0  0
  148.9778  136.2197  155.0022 H   0  0  0  0  0  0  0  0  0  0  0  0
  147.8755  137.6013  157.4184 H   0  0  0  0  0  0  0  0  0  0  0  0
  149.5282  137.4132  156.8971 H   0  0  0  0  0  0  0  0  0  0  0  0
  147.5134  139.5411  156.1693 H   0  0  0  0  0  0  0  0  0  0  0  0
  149.1873  139.7208  156.6184 H   0  0  0  0  0  0  0  0  0  0  0  0
  149.8771  138.7813  154.4019 H   0  0  0  0  0  0  0  0  0  0  0  0
  148.5381  137.8965  153.0025 H   0  0  0  0  0  0  0  0  0  0  0  0
  1  2  2  0  0  0  0
  2  3  1  0  0  0  0
  2 10  1  0  0  0  0
  3  4  1  0  0  0  0
  3 20  1  0  0  0  0
  4  9  1  0  0  0  0
  4  5  2  0  0  0  0
  5  6  1  0  0  0  0
  5 21  1  0  0  0  0
  6  7  2  0  0  0  0
  6 22  1  0  0  0  0
  7  8  1  0  0  0  0
  7 23  1  0  0  0  0
  8  9  2  0  0  0  0
  8 24  1  0  0  0  0
 10 11  1  0  0  0  0
 10 25  1  0  0  0  0
 11 19  1  0  0  0  0
 11 12  1  0  0  0  0
 11 26  1  0  0  0  0
 12 13  1  0  0  0  0
 12 27  1  0  0  0  0
 12 28  1  0  0  0  0
 13 14  1  0  0  0  0
 13 29  1  0  0  0  0
 13 30  1  0  0  0  0
 14 19  1  0  0  0  0
 14 15  1  0  0  0  0
 14 40  1  0  0  0  0
 15 16  1  0  0  0  0
 15 31  1  0  0  0  0
 15 32  1  0  0  0  0
 16 17  1  0  0  0  0
 16 33  1  0  0  0  0
 16 34  1  0  0  0  0
 17 18  1  0  0  0  0
 17 35  1  0  0  0  0
 17 36  1  0  0  0  0
 18 19  1  0  0  0  0
 18 37  1  0  0  0  0
 18 38  1  0  0  0  0
 19 39  1  0  0  0  0
M  CHG  1  14   1
M  END
> <s_m_source_file>
AV-unprocessed.smi

> <i_m_source_file_index>
1452

> <i_lp_mmshare_version>
43012

> <i_f3d_flags>
0

> <s_epik_input>
W0NIMl0xW0NIMl1bQ0gyXVtDSDJdW0NASF0oTjEyKVtDQEBIXShbQ0gyXVtDSDJdMilbTkhdQyg9TylbTkhdYzNbY0hdW2NIXVtjSF1bY0hdbjM=

> <s_epik_cmdline>
J2VwaWtfcHl0aG9uJywgJy1waCcsICc3LjAnLCAnLXRuJywgJzgnLCAnLW1hJywgJzIwMCcsICctbWV0YWxfYmluZGluZycsICctaW1hZScsICc8aW5maWxlLm1hZT4nLCAnLW9tYWUnLCAnPG91dGZpbGUubWFlPic=

> <r_epik_Ionization_Penalty>
0.00100813

> <r_epik_Ionization_Penalty_Charging>
0.000974069

> <r_epik_Ionization_Penalty_Neutral>
3.40643e-05

> <r_epik_State_Penalty>
0.000633842

> <r_epik_Charging_Adjusted_Penalty>
0.00160791

> <i_epik_Tot_Q>
1

> <i_epik_Tot_abs_Q>
1

> <r_epik_Metal_State_Penalty>
-0

> <b_epik_Metal_Only>
0

> <s_lp_Force_Field>
OPLS_2005

> <r_lp_Energy>
44.9795

> <b_lp_Chiralities_Consistent>
1

> <s_lp_Variant>
AV-unprocessed.smi:1452-5

> <Gold.Version>
5.8.1

> <Gold.Id.Protein>
6NUR|6NUR_protein|mol2

> <Gold.PLP.Fitness>
43.8328

> <Gold.PLP.PLP>
-35.4535

> <Gold.PLP.part.hbond>
-2.6603

> <Gold.PLP.part.metal>
0.0000

> <Gold.PLP.part.buried>
-1.5606

> <Gold.PLP.part.nonpolar>
-30.9196

> <Gold.PLP.part.repulsive>
0.3330

> <Gold.PLP.ligand.clash>
0.0000

> <Gold.PLP.ligand.torsion>
0.4647

> <Gold.PLP.Chemscore.Hbond>
3.1019

> <Gold.PLP.Chemscore.CHOScore>
0.0000

> <Gold.PLP.Chemscore.Metal>
0.0000

> <Gold.Chemscore.Hbonds>
donor molecule, donor type, donor heavy atom, donor atom, acceptor molecule, acceptor atom, score
      L1  H     3    20       P1  8028  1.00
      L1  H    10    25       P1  8028  0.10
      L1  H    14    40       P1  7948  1.95

> <Gold.PLP.Chemscore.Internal.Correction>
0.0029

> <Gold.Rescore>
     Score         DG    S(hbond)    S(metal)    S(lipo)     H(rot)  DE(clash)    DE(int)     intcor
     14.23     -19.67       2.04        0.00      84.85       1.00       0.01       5.43       ----

> <Gold.Chemscore.Fitness>
14.2320

> <Gold.Chemscore.DG>
-19.6737

> <Gold.Chemscore.ZeroCoef>
-5.4800

> <Gold.Chemscore.Hbond>
2.0440

> <Gold.Chemscore.Metal>
0.0000

> <Gold.Chemscore.Lipo>
84.8452

> <Gold.Chemscore.Internal_Hbond>
0.0000

> <Gold.Chemscore.DEClash>
0.0127

> <Gold.Chemscore.DEInternal>
5.4290

> <Gold.Chemscore.Rot>
1.0000

> <Gold.Chemscore.Internal.Correction>
   9.000000E+99

> <Gold.Chemscore.Hbonds>
donor molecule, donor type, donor heavy atom, donor atom, acceptor molecule, acceptor atom, score
      L1  H     3    20       P1  8028  0.99
      L1  H    10    25       P1  8028  0.11
      L1  H    14    40       P1  7948  0.87

> <Gold.Chemscore.Hbond.Weighted>
-6.8268

> <Gold.Chemscore.Metal.Weighted>
-0.0000

> <Gold.Chemscore.Lipo.Weighted>
-9.9269

> <Gold.Chemscore.Internal_Hbond.Weighted>
0.0000

> <Gold.Chemscore.DEClash.Weighted>
0.0127

> <Gold.Chemscore.DEInternal.Weighted>
5.4290

> <Gold.Chemscore.Rot.Weighted>
2.5600

> <Gold.Chemscore.Internal.Correction.Weighted>
   9.000000E+99

> <Gold.Protein.RotatedTorsions>
[ 6907 6896 6895 6894 ] final   17.48 input  -60.11 | X-H torsion
[ 7974 7965 7964 7962 ] final  -37.19 input  175.53 | X-H torsion
[ 8008 7997 7996 7995 ] final   42.76 input   59.86 | X-H torsion
[ 10167 10162 10161 10158 ] final  124.35 input  -65.29 | X-H torsion
[ 10718 10713 10712 10709 ] final   75.11 input   66.30 | X-H torsion
[ 10763 10752 10751 10750 ] final -138.25 input  -60.55 | X-H torsion
[ 11005 11000 10999 10996 ] final  -86.81 input  -57.11 | X-H torsion

> <Gold.Protein.ActiveResidues>
 VAL166  LYS551  ARG553  GLY616  TRP617  ASP618  TYR619  PRO620  LYS621  CYS622 
 ASP623  PHE694  ASN695  SER759  ASP760  ASP761  ALA762  ILE779  LEU786  VAL792 
 PHE793  MET794  SER795  GLU796  ALA797  LYS798  CYS799  TRP800  GLU811  SER814 

> <Gold.Protein.RotatedAtoms>
  151.8503  135.0560  160.0457 H   0  0  0  0  0  0  0  0  0  0  0  0  # atno 6907 bound_to 6896
  152.2741  133.5405  159.5466 H   0  0  0  0  0  0  0  0  0  0  0  0  # atno 6908 bound_to 6896
  150.7163  134.0572  159.3861 H   0  0  0  0  0  0  0  0  0  0  0  0  # atno 6909 bound_to 6896
  146.0596  140.6367  142.9003 H   0  0  0  0  0  0  0  0  0  0  0  0  # atno 7974 bound_to 7965
  155.2915  140.3379  155.4252 H   0  0  0  0  0  0  0  0  0  0  0  0  # atno 8008 bound_to 7997
  156.2044  140.1745  156.7871 H   0  0  0  0  0  0  0  0  0  0  0  0  # atno 8009 bound_to 7997
  154.5601  140.0689  156.8789 H   0  0  0  0  0  0  0  0  0  0  0  0  # atno 8010 bound_to 7997
  139.5747  144.6957  151.3685 H   0  0  0  0  0  0  0  0  0  0  0  0  # atno 10167 bound_to 10162
  157.6620  130.9710  150.1307 H   0  0  0  0  0  0  0  0  0  0  0  0  # atno 10718 bound_to 10713
  154.8642  135.3618  154.5354 H   0  0  0  0  0  0  0  0  0  0  0  0  # atno 10763 bound_to 10752
  153.5978  135.7013  153.5401 H   0  0  0  0  0  0  0  0  0  0  0  0  # atno 10764 bound_to 10752
  153.3317  135.4122  155.1462 H   0  0  0  0  0  0  0  0  0  0  0  0  # atno 10765 bound_to 10752
  141.1625  133.7475  156.9216 H   0  0  0  0  0  0  0  0  0  0  0  0  # atno 11005 bound_to 11000
  144.7167  140.4235  143.7039 LP  0  0  0  0  0  0  0  0  0  0  0  0  # atno 17320 bound_to 7965
  145.6583  139.1577  143.2823 LP  0  0  0  0  0  0  0  0  0  0  0  0  # atno 17321 bound_to 7965
  140.7030  143.7584  150.7434 LP  0  0  0  0  0  0  0  0  0  0  0  0  # atno 17342 bound_to 10162
  140.1100  143.4708  152.2375 LP  0  0  0  0  0  0  0  0  0  0  0  0  # atno 17343 bound_to 10162
  156.2154  130.3670  149.8619 LP  0  0  0  0  0  0  0  0  0  0  0  0  # atno 17370 bound_to 10713
  156.6486  130.8734  151.3527 LP  0  0  0  0  0  0  0  0  0  0  0  0  # atno 17371 bound_to 10713
  140.1448  134.9270  157.2514 LP  0  0  0  0  0  0  0  0  0  0  0  0  # atno 17394 bound_to 11000
  140.2793  134.3368  155.7348 LP  0  0  0  0  0  0  0  0  0  0  0  0  # atno 17395 bound_to 11000

$$$$
