AV-unprocessed.smi:17|AV-procd|sdf|102|dock1
  -GOLD-   2262015253D 1   1.00000     0.00000
 Structure written by MMmdl.
 57 59  0  0  0  0  0  0  0  0  1 V2000
  144.8591  136.4759  152.0888 C   0  0  0  0  0  0  0  0  0  0  0  0
  144.0897  137.0347  153.2943 C   0  0  0  0  0  0  0  0  0  0  0  0
  144.9655  137.3161  154.4357 N   0  0  0  0  0  0  0  0  0  0  0  0
  145.9130  138.2841  154.3026 C   0  0  0  0  0  0  0  0  0  0  0  0
  146.2726  138.6574  153.0459 N   0  0  0  0  0  0  0  0  0  0  0  0
  147.1900  139.6084  152.8540 C   0  0  0  0  0  0  0  0  0  0  0  0
  147.8736  140.3019  153.7644 N   0  0  0  0  0  0  0  0  0  0  0  0
  147.5354  139.9232  155.0292 C   0  0  0  0  0  0  0  0  0  0  0  0
  146.5757  138.9324  155.3880 C   0  0  0  0  0  0  0  0  0  0  0  0
  146.5270  138.8141  156.7735 N   0  0  0  0  0  0  0  0  0  0  0  0
  147.3910  139.6903  157.2058 C   0  0  0  0  0  0  0  0  0  0  0  0
  148.0481  140.3951  156.2250 N   0  0  0  0  0  0  0  0  0  0  0  0
  149.0619  141.4157  156.4273 C   0  0  0  0  0  0  0  0  0  0  0  0
  150.3572  140.8655  157.0740 C   0  0  1  0  0  0  0  0  0  0  0  0
  151.4615  140.5599  156.0325 C   0  0  0  0  0  0  0  0  0  0  0  0
  150.9447  139.8512  154.9248 O   0  0  0  0  0  0  0  0  0  0  0  0
  150.8652  141.7855  158.2132 C   0  0  1  0  0  0  0  0  0  0  0  0
  152.1360  141.3140  158.8979 C   0  0  0  0  0  0  0  0  0  0  0  0
  152.6135  142.5859  159.5878 C   0  0  0  0  0  0  0  0  0  0  0  0
  152.2475  143.6479  158.7152 O   0  0  0  0  0  0  0  0  0  0  0  0
  151.2921  143.1878  157.7636 C   0  0  0  0  0  0  0  0  0  0  0  0
  144.9094  136.5048  155.6571 C   0  0  2  0  0  0  0  0  0  0  0  0
  145.3176  135.0481  155.3802 C   0  0  0  0  0  0  0  0  0  0  0  0
  143.5390  136.5845  156.3644 C   0  0  0  0  0  0  0  0  0  0  0  0
  143.5034  135.7020  157.9923 S   0  0  0  0  0  0  0  0  0  0  0  0
  142.9337  137.0128  159.1522 C   0  0  0  0  0  0  0  0  0  0  0  0
  142.4482  134.6795  157.9295 O   0  0  0  0  0  0  0  0  0  0  0  0
  144.8725  135.3176  158.3685 O   0  0  0  0  0  0  0  0  0  0  0  0
  144.1778  136.2521  151.2679 H   0  0  0  0  0  0  0  0  0  0  0  0
  145.3833  135.5551  152.3440 H   0  0  0  0  0  0  0  0  0  0  0  0
  145.5962  137.1894  151.7198 H   0  0  0  0  0  0  0  0  0  0  0  0
  143.5426  137.9319  153.0044 H   0  0  0  0  0  0  0  0  0  0  0  0
  143.3305  136.3109  153.5875 H   0  0  0  0  0  0  0  0  0  0  0  0
  147.4076  139.8477  151.8236 H   0  0  0  0  0  0  0  0  0  0  0  0
  147.5813  139.8416  158.2584 H   0  0  0  0  0  0  0  0  0  0  0  0
  149.2861  141.8840  155.4682 H   0  0  0  0  0  0  0  0  0  0  0  0
  148.6213  142.1931  157.0516 H   0  0  0  0  0  0  0  0  0  0  0  0
  150.0966  139.9087  157.5294 H   0  0  0  0  0  0  0  0  0  0  0  0
  151.9206  141.4803  155.6726 H   0  0  0  0  0  0  0  0  0  0  0  0
  152.2695  139.9773  156.4750 H   0  0  0  0  0  0  0  0  0  0  0  0
  150.1124  139.4756  155.1688 H   0  0  0  0  0  0  0  0  0  0  0  0
  150.0890  141.8880  158.9737 H   0  0  0  0  0  0  0  0  0  0  0  0
  151.9710  140.4977  159.6018 H   0  0  0  0  0  0  0  0  0  0  0  0
  152.8712  140.9887  158.1605 H   0  0  0  0  0  0  0  0  0  0  0  0
  152.0937  142.7206  160.5373 H   0  0  0  0  0  0  0  0  0  0  0  0
  153.6856  142.5794  159.7857 H   0  0  0  0  0  0  0  0  0  0  0  0
  151.7771  143.1523  156.7871 H   0  0  0  0  0  0  0  0  0  0  0  0
  150.4484  143.8749  157.6947 H   0  0  0  0  0  0  0  0  0  0  0  0
  145.6266  136.8928  156.3777 H   0  0  0  0  0  0  0  0  0  0  0  0
  145.3702  134.4746  156.3058 H   0  0  0  0  0  0  0  0  0  0  0  0
  146.2991  134.9968  154.9083 H   0  0  0  0  0  0  0  0  0  0  0  0
  144.6054  134.5483  154.7232 H   0  0  0  0  0  0  0  0  0  0  0  0
  143.1933  137.6076  156.5074 H   0  0  0  0  0  0  0  0  0  0  0  0
  142.7936  136.0925  155.7393 H   0  0  0  0  0  0  0  0  0  0  0  0
  142.7822  136.5765  160.1392 H   0  0  0  0  0  0  0  0  0  0  0  0
  141.9936  137.4341  158.7973 H   0  0  0  0  0  0  0  0  0  0  0  0
  143.6812  137.7993  159.2264 H   0  0  0  0  0  0  0  0  0  0  0  0
  1  2  1  0  0  0  0
  1 29  1  0  0  0  0
  1 30  1  0  0  0  0
  1 31  1  0  0  0  0
  2  3  1  0  0  0  0
  2 32  1  0  0  0  0
  2 33  1  0  0  0  0
  3  4  1  0  0  0  0
  3 22  1  0  0  0  0
  4  9  1  0  0  0  0
  4  5  2  0  0  0  0
  5  6  1  0  0  0  0
  6  7  2  0  0  0  0
  6 34  1  0  0  0  0
  7  8  1  0  0  0  0
  8 12  1  0  0  0  0
  8  9  2  0  0  0  0
  9 10  1  0  0  0  0
 10 11  2  0  0  0  0
 11 12  1  0  0  0  0
 11 35  1  0  0  0  0
 12 13  1  0  0  0  0
 13 14  1  0  0  0  0
 13 36  1  0  0  0  0
 13 37  1  0  0  0  0
 14 15  1  0  0  0  0
 14 17  1  0  0  0  0
 14 38  1  0  0  0  0
 15 16  1  0  0  0  0
 15 39  1  0  0  0  0
 15 40  1  0  0  0  0
 16 41  1  0  0  0  0
 17 21  1  0  0  0  0
 17 18  1  0  0  0  0
 17 42  1  0  0  0  0
 18 19  1  0  0  0  0
 18 43  1  0  0  0  0
 18 44  1  0  0  0  0
 19 20  1  0  0  0  0
 19 45  1  0  0  0  0
 19 46  1  0  0  0  0
 20 21  1  0  0  0  0
 21 47  1  0  0  0  0
 21 48  1  0  0  0  0
 22 23  1  0  0  0  0
 22 24  1  0  0  0  0
 22 49  1  0  0  0  0
 23 50  1  0  0  0  0
 23 51  1  0  0  0  0
 23 52  1  0  0  0  0
 24 25  1  0  0  0  0
 24 53  1  0  0  0  0
 24 54  1  0  0  0  0
 25 26  1  0  0  0  0
 25 27  2  0  0  0  0
 25 28  2  0  0  0  0
 26 55  1  0  0  0  0
 26 56  1  0  0  0  0
 26 57  1  0  0  0  0
M  END
> <s_m_source_file>
AV-unprocessed.smi

> <i_m_source_file_index>
17

> <i_lp_mmshare_version>
43012

> <i_f3d_flags>
0

> <s_epik_input>
W0NIM11TKD1PKSg9TylbQ0gyXVtDQEBIXShbQ0gzXSlOKFtDSDJdW0NIM10pYyhuW2NIXW4xKWMoYzEyKW5bY0hdbjJbQ0gyXVtDQEhdKFtDSDJdW09IXSlbQ0BASF0zW0NIMl1bQ0gyXU9bQ0gyXTM=

> <s_epik_cmdline>
J2VwaWtfcHl0aG9uJywgJy1waCcsICc3LjAnLCAnLXRuJywgJzgnLCAnLW1hJywgJzIwMCcsICctbWV0YWxfYmluZGluZycsICctaW1hZScsICc8aW5maWxlLm1hZT4nLCAnLW9tYWUnLCAnPG91dGZpbGUubWFlPic=

> <r_lp_tautomer_probability>
1

> <r_epik_Ionization_Penalty>
0.00119955

> <r_epik_Ionization_Penalty_Charging>
0

> <r_epik_Ionization_Penalty_Neutral>
0.00119955

> <r_epik_State_Penalty>
0.000665399

> <r_epik_Charging_Adjusted_Penalty>
0.000665399

> <i_epik_Tot_Q>
0

> <i_epik_Tot_abs_Q>
0

> <r_epik_Metal_State_Penalty>
-0

> <b_epik_Metal_Only>
0

> <s_lp_Force_Field>
OPLS_2005

> <r_lp_Energy>
33.4806

> <b_lp_Chiralities_Consistent>
1

> <s_lp_Variant>
AV-unprocessed.smi:17-4

> <Gold.Version>
5.8.1

> <Gold.Id.Protein>
6NUR|6NUR_protein|mol2

> <Gold.PLP.Fitness>
35.3992

> <Gold.PLP.PLP>
-27.6732

> <Gold.PLP.part.hbond>
-2.0000

> <Gold.PLP.part.metal>
0.0000

> <Gold.PLP.part.buried>
-5.7906

> <Gold.PLP.part.nonpolar>
-20.9172

> <Gold.PLP.part.repulsive>
0.4601

> <Gold.PLP.ligand.clash>
0.0000

> <Gold.PLP.ligand.torsion>
1.0643

> <Gold.PLP.Chemscore.Hbond>
2.0000

> <Gold.PLP.Chemscore.CHOScore>
0.7647

> <Gold.PLP.Chemscore.Metal>
0.0000

> <Gold.Chemscore.Hbonds>
donor molecule, donor type, donor heavy atom, donor atom, acceptor molecule, acceptor atom, score
      P1  H  7989  7998       L1    16  1.00
      P1  H 11000 11005       L1    27  0.93
      L1  C     6    34       P1  7957  0.81

> <Gold.PLP.Chemscore.Internal.Correction>
1.5606

> <Gold.Rescore>
     Score         DG    S(hbond)    S(metal)    S(lipo)     H(rot)  DE(clash)    DE(int)     intcor
      6.40      -9.93       1.93        0.00      59.55       3.51       0.06       3.48       ----

> <Gold.Chemscore.Fitness>
6.3966

> <Gold.Chemscore.DG>
-9.9270

> <Gold.Chemscore.ZeroCoef>
-5.4800

> <Gold.Chemscore.Hbond>
1.9325

> <Gold.Chemscore.Metal>
0.0000

> <Gold.Chemscore.Lipo>
59.5500

> <Gold.Chemscore.Internal_Hbond>
0.0000

> <Gold.Chemscore.DEClash>
0.0551

> <Gold.Chemscore.DEInternal>
3.4753

> <Gold.Chemscore.Rot>
3.5059

> <Gold.Chemscore.Internal.Correction>
   9.000000E+99

> <Gold.Chemscore.Hbonds>
donor molecule, donor type, donor heavy atom, donor atom, acceptor molecule, acceptor atom, score
      P1  H  7989  7998       L1    16  0.30
      P1  H 11000 11005       L1    27  0.89

> <Gold.Chemscore.Hbond.Weighted>
-6.4546

> <Gold.Chemscore.Metal.Weighted>
-0.0000

> <Gold.Chemscore.Lipo.Weighted>
-6.9674

> <Gold.Chemscore.Internal_Hbond.Weighted>
0.0000

> <Gold.Chemscore.DEClash.Weighted>
0.0551

> <Gold.Chemscore.DEInternal.Weighted>
3.4753

> <Gold.Chemscore.Rot.Weighted>
8.9750

> <Gold.Chemscore.Internal.Correction.Weighted>
   9.000000E+99

> <Gold.Protein.RotatedTorsions>
[ 6907 6896 6895 6894 ] final  102.71 input  -60.11 | X-H torsion
[ 7974 7965 7964 7962 ] final  176.53 input  175.53 | X-H torsion
[ 8008 7997 7996 7995 ] final  174.02 input   59.86 | X-H torsion
[ 10167 10162 10161 10158 ] final   16.74 input  -65.29 | X-H torsion
[ 10718 10713 10712 10709 ] final  -83.33 input   66.30 | X-H torsion
[ 10763 10752 10751 10750 ] final   66.32 input  -60.55 | X-H torsion
[ 11005 11000 10999 10996 ] final -123.86 input  -57.11 | X-H torsion

> <Gold.Protein.ActiveResidues>
 VAL166  LYS551  ARG553  GLY616  TRP617  ASP618  TYR619  PRO620  LYS621  CYS622 
 ASP623  PHE694  ASN695  SER759  ASP760  ASP761  ALA762  ILE779  LEU786  VAL792 
 PHE793  MET794  SER795  GLU796  ALA797  LYS798  CYS799  TRP800  GLU811  SER814 

> <Gold.Protein.RotatedAtoms>
  152.5316  133.9935  159.7861 H   0  0  0  0  0  0  0  0  0  0  0  0  # atno 6907 bound_to 6896
  151.0167  133.5907  159.2683 H   0  0  0  0  0  0  0  0  0  0  0  0  # atno 6908 bound_to 6896
  151.2961  135.0762  159.9275 H   0  0  0  0  0  0  0  0  0  0  0  0  # atno 6909 bound_to 6896
  144.7183  140.0111  143.6440 H   0  0  0  0  0  0  0  0  0  0  0  0  # atno 7974 bound_to 7965
  156.1017  140.1445  156.9459 H   0  0  0  0  0  0  0  0  0  0  0  0  # atno 8008 bound_to 7997
  154.4707  140.0911  156.7181 H   0  0  0  0  0  0  0  0  0  0  0  0  # atno 8009 bound_to 7997
  155.4749  140.3443  155.4333 H   0  0  0  0  0  0  0  0  0  0  0  0  # atno 8010 bound_to 7997
  140.5776  143.9043  150.6763 H   0  0  0  0  0  0  0  0  0  0  0  0  # atno 10167 bound_to 10162
  156.0020  130.4662  150.4241 H   0  0  0  0  0  0  0  0  0  0  0  0  # atno 10718 bound_to 10713
  153.0134  135.5325  154.6805 H   0  0  0  0  0  0  0  0  0  0  0  0  # atno 10763 bound_to 10752
  154.5966  135.2864  155.0582 H   0  0  0  0  0  0  0  0  0  0  0  0  # atno 10764 bound_to 10752
  154.1655  135.6540  153.5049 H   0  0  0  0  0  0  0  0  0  0  0  0  # atno 10765 bound_to 10752
  140.9886  134.0571  157.3681 H   0  0  0  0  0  0  0  0  0  0  0  0  # atno 11005 bound_to 11000
  146.0257  139.3290  143.0785 LP  0  0  0  0  0  0  0  0  0  0  0  0  # atno 17320 bound_to 7965
  145.8514  140.9527  143.0748 LP  0  0  0  0  0  0  0  0  0  0  0  0  # atno 17321 bound_to 7965
  140.2534  143.3576  152.1386 LP  0  0  0  0  0  0  0  0  0  0  0  0  # atno 17342 bound_to 10162
  139.5151  144.6958  151.5634 LP  0  0  0  0  0  0  0  0  0  0  0  0  # atno 17343 bound_to 10162
  157.2295  131.0501  151.2500 LP  0  0  0  0  0  0  0  0  0  0  0  0  # atno 17370 bound_to 10713
  157.3724  130.7188  149.6574 LP  0  0  0  0  0  0  0  0  0  0  0  0  # atno 17371 bound_to 10713
  139.8982  135.0153  156.7136 LP  0  0  0  0  0  0  0  0  0  0  0  0  # atno 17394 bound_to 11000
  140.7075  133.9252  155.8063 LP  0  0  0  0  0  0  0  0  0  0  0  0  # atno 17395 bound_to 11000

$$$$
