AV-unprocessed.smi:1978|AV-procd|sdf|7994|dock3
  -GOLD-   2272010173D 1   1.00000     0.00000
 Structure written by MMmdl.
 45 46  0  0  0  0  0  0  0  0  2 V2000
  152.0681  139.9908  155.6631 C   0  0  0  0  0  0  0  0  0  0  0  0
  151.5898  138.5988  155.4312 C   0  0  0  0  0  0  0  0  0  0  0  0
  150.6847  138.0594  154.5609 C   0  0  0  0  0  0  0  0  0  0  0  0
  150.7147  136.6772  154.8851 C   0  0  0  0  0  0  0  0  0  0  0  0
  149.8972  135.7492  154.1911 N   0  0  0  0  0  0  0  0  0  0  0  0
  149.7036  134.4523  154.4839 C   0  0  0  0  0  0  0  0  0  0  0  0
  150.2143  133.8532  155.4308 O   0  0  0  0  0  0  0  0  0  0  0  0
  148.8718  133.8711  153.6075 N   0  0  0  0  0  0  0  0  0  0  0  0
  148.4543  132.4738  153.6610 C   0  0  0  0  0  0  0  0  0  0  0  0
  146.9727  132.3121  154.0888 C   0  0  2  0  0  0  0  0  0  0  0  0
  146.7024  130.9630  154.7866 C   0  0  0  0  0  0  0  0  0  0  0  0
  146.0094  132.5563  152.9670 N   0  3  2  0  0  0  0  0  0  0  0  0
  145.9909  131.4731  151.9405 C   0  0  0  0  0  0  0  0  0  0  0  0
  144.8050  131.6327  150.9785 C   0  0  0  0  0  0  0  0  0  0  0  0
  144.8483  132.9998  150.2928 C   0  0  0  0  0  0  0  0  0  0  0  0
  144.8991  134.1052  151.3523 C   0  0  0  0  0  0  0  0  0  0  0  0
  146.0806  133.9133  152.3281 C   0  0  1  0  0  0  0  0  0  0  0  0
  146.0912  135.0769  153.3401 C   0  0  0  0  0  0  0  0  0  0  0  0
  151.5631  136.3973  155.8626 N   0  0  0  0  0  0  0  0  0  0  0  0
  152.1286  137.6276  156.2175 O   0  0  0  0  0  0  0  0  0  0  0  0
  151.6019  140.6842  154.9629 H   0  0  0  0  0  0  0  0  0  0  0  0
  153.1485  140.0553  155.5332 H   0  0  0  0  0  0  0  0  0  0  0  0
  151.8280  140.3186  156.6746 H   0  0  0  0  0  0  0  0  0  0  0  0
  150.0959  138.5742  153.8164 H   0  0  0  0  0  0  0  0  0  0  0  0
  149.4048  136.1140  153.3893 H   0  0  0  0  0  0  0  0  0  0  0  0
  148.4949  134.4339  152.8585 H   0  0  0  0  0  0  0  0  0  0  0  0
  148.6363  132.0167  152.6878 H   0  0  0  0  0  0  0  0  0  0  0  0
  149.1136  131.9679  154.3661 H   0  0  0  0  0  0  0  0  0  0  0  0
  146.7598  133.0468  154.8625 H   0  0  0  0  0  0  0  0  0  0  0  0
  147.2268  130.9041  155.7406 H   0  0  0  0  0  0  0  0  0  0  0  0
  147.0342  130.1130  154.1909 H   0  0  0  0  0  0  0  0  0  0  0  0
  145.6404  130.8345  154.9978 H   0  0  0  0  0  0  0  0  0  0  0  0
  146.9230  131.4815  151.3745 H   0  0  0  0  0  0  0  0  0  0  0  0
  145.9139  130.4922  152.4055 H   0  0  0  0  0  0  0  0  0  0  0  0
  144.8226  130.8403  150.2297 H   0  0  0  0  0  0  0  0  0  0  0  0
  143.8678  131.5222  151.5258 H   0  0  0  0  0  0  0  0  0  0  0  0
  145.7245  133.0639  149.6463 H   0  0  0  0  0  0  0  0  0  0  0  0
  143.9755  133.1293  149.6521 H   0  0  0  0  0  0  0  0  0  0  0  0
  144.9749  135.0735  150.8558 H   0  0  0  0  0  0  0  0  0  0  0  0
  143.9604  134.1180  151.9083 H   0  0  0  0  0  0  0  0  0  0  0  0
  147.0020  133.9703  151.7470 H   0  0  0  0  0  0  0  0  0  0  0  0
  146.0005  136.0366  152.8307 H   0  0  0  0  0  0  0  0  0  0  0  0
  147.0221  135.1218  153.9050 H   0  0  0  0  0  0  0  0  0  0  0  0
  145.2635  135.0005  154.0460 H   0  0  0  0  0  0  0  0  0  0  0  0
  145.1003  132.5258  153.4058 H   0  0  0  0  0  0  0  0  0  0  0  0
  1  2  1  0  0  0  0
  1 21  1  0  0  0  0
  1 22  1  0  0  0  0
  1 23  1  0  0  0  0
  2 20  1  0  0  0  0
  2  3  2  0  0  0  0
  3  4  1  0  0  0  0
  3 24  1  0  0  0  0
  4  5  1  0  0  0  0
  4 19  2  0  0  0  0
  5  6  1  0  0  0  0
  5 25  1  0  0  0  0
  6  7  2  0  0  0  0
  6  8  1  0  0  0  0
  8  9  1  0  0  0  0
  8 26  1  0  0  0  0
  9 10  1  0  0  0  0
  9 27  1  0  0  0  0
  9 28  1  0  0  0  0
 10 11  1  0  0  0  0
 10 12  1  0  0  0  0
 10 29  1  0  0  0  0
 11 30  1  0  0  0  0
 11 31  1  0  0  0  0
 11 32  1  0  0  0  0
 12 17  1  0  0  0  0
 12 13  1  0  0  0  0
 12 45  1  0  0  0  0
 13 14  1  0  0  0  0
 13 33  1  0  0  0  0
 13 34  1  0  0  0  0
 14 15  1  0  0  0  0
 14 35  1  0  0  0  0
 14 36  1  0  0  0  0
 15 16  1  0  0  0  0
 15 37  1  0  0  0  0
 15 38  1  0  0  0  0
 16 17  1  0  0  0  0
 16 39  1  0  0  0  0
 16 40  1  0  0  0  0
 17 18  1  0  0  0  0
 17 41  1  0  0  0  0
 18 42  1  0  0  0  0
 18 43  1  0  0  0  0
 18 44  1  0  0  0  0
 19 20  1  0  0  0  0
M  CHG  1  12   1
M  END
> <s_m_source_file>
AV-unprocessed.smi

> <i_m_source_file_index>
1978

> <i_lp_mmshare_version>
43012

> <i_f3d_flags>
0

> <s_epik_input>
W0NIM11jMVtjSF1jKG5vMSlbTkhdQyg9TylbTkhdW0NIMl1bQ0BIXShbQ0gzXSlOMltDSDJdW0NIMl1bQ0gyXVtDSDJdW0NASF0yW0NIM10=

> <s_epik_cmdline>
J2VwaWtfcHl0aG9uJywgJy1waCcsICc3LjAnLCAnLXRuJywgJzgnLCAnLW1hJywgJzIwMCcsICctbWV0YWxfYmluZGluZycsICctaW1hZScsICc8aW5maWxlLm1hZT4nLCAnLW9tYWUnLCAnPG91dGZpbGUubWFlPic=

> <r_epik_Ionization_Penalty>
0.00265971

> <r_epik_Ionization_Penalty_Charging>
0.00262393

> <r_epik_Ionization_Penalty_Neutral>
3.57846e-05

> <r_epik_State_Penalty>
0.00182566

> <r_epik_Charging_Adjusted_Penalty>
0.00444959

> <i_epik_Tot_Q>
1

> <i_epik_Tot_abs_Q>
1

> <r_epik_Metal_State_Penalty>
0.0216344

> <b_epik_Metal_Only>
0

> <s_lp_Force_Field>
OPLS_2005

> <r_lp_Energy>
19.2971

> <b_lp_Chiralities_Consistent>
1

> <s_lp_Variant>
AV-unprocessed.smi:1978-3

> <Gold.Version>
5.8.1

> <Gold.Id.Protein>
6NUR|6NUR_protein|mol2

> <Gold.PLP.Fitness>
38.8347

> <Gold.PLP.PLP>
-31.7035

> <Gold.PLP.part.hbond>
-3.9350

> <Gold.PLP.part.metal>
0.0000

> <Gold.PLP.part.buried>
-1.0639

> <Gold.PLP.part.nonpolar>
-24.9337

> <Gold.PLP.part.repulsive>
0.1586

> <Gold.PLP.ligand.clash>
0.0000

> <Gold.PLP.ligand.torsion>
0.3848

> <Gold.PLP.Chemscore.Hbond>
2.5891

> <Gold.PLP.Chemscore.CHOScore>
0.0000

> <Gold.PLP.Chemscore.Metal>
0.0000

> <Gold.Chemscore.Hbonds>
donor molecule, donor type, donor heavy atom, donor atom, acceptor molecule, acceptor atom, score
      L1  H     5    25       P1  7948  1.00
      L1  H     8    26       P1  7948  0.64
      P1  H 10752 10765       L1    19  1.00

> <Gold.PLP.Chemscore.Internal.Correction>
0.1336

> <Gold.Rescore>
     Score         DG    S(hbond)    S(metal)    S(lipo)     H(rot)  DE(clash)    DE(int)     intcor
     13.74     -15.45       1.82        0.00      67.02       1.55       0.02       1.69       ----

> <Gold.Chemscore.Fitness>
13.7364

> <Gold.Chemscore.DG>
-15.4463

> <Gold.Chemscore.ZeroCoef>
-5.4800

> <Gold.Chemscore.Hbond>
1.8222

> <Gold.Chemscore.Metal>
0.0000

> <Gold.Chemscore.Lipo>
67.0217

> <Gold.Chemscore.Internal_Hbond>
0.0000

> <Gold.Chemscore.DEClash>
0.0163

> <Gold.Chemscore.DEInternal>
1.6936

> <Gold.Chemscore.Rot>
1.5474

> <Gold.Chemscore.Internal.Correction>
   9.000000E+99

> <Gold.Chemscore.Hbonds>
donor molecule, donor type, donor heavy atom, donor atom, acceptor molecule, acceptor atom, score
      L1  H     5    25       P1  7948  0.58
      L1  H     8    26       P1  7948  0.12
      P1  H 10752 10765       L1    19  0.14

> <Gold.Chemscore.Hbond.Weighted>
-6.0860

> <Gold.Chemscore.Metal.Weighted>
-0.0000

> <Gold.Chemscore.Lipo.Weighted>
-7.8415

> <Gold.Chemscore.Internal_Hbond.Weighted>
0.0000

> <Gold.Chemscore.DEClash.Weighted>
0.0163

> <Gold.Chemscore.DEInternal.Weighted>
1.6936

> <Gold.Chemscore.Rot.Weighted>
3.9612

> <Gold.Chemscore.Internal.Correction.Weighted>
   9.000000E+99

> <Gold.Protein.RotatedTorsions>
[ 6907 6896 6895 6894 ] final  -42.44 input  -60.11 | X-H torsion
[ 7974 7965 7964 7962 ] final   10.20 input  175.53 | X-H torsion
[ 8008 7997 7996 7995 ] final   13.83 input   59.86 | X-H torsion
[ 10167 10162 10161 10158 ] final  -53.50 input  -65.29 | X-H torsion
[ 10718 10713 10712 10709 ] final  144.14 input   66.30 | X-H torsion
[ 10763 10752 10751 10750 ] final -160.03 input  -60.55 | X-H torsion
[ 11005 11000 10999 10996 ] final  -64.63 input  -57.11 | X-H torsion

> <Gold.Protein.ActiveResidues>
 VAL166  LYS551  ARG553  GLY616  TRP617  ASP618  TYR619  PRO620  LYS621  CYS622 
 ASP623  PHE694  ASN695  SER759  ASP760  ASP761  ALA762  ILE779  LEU786  VAL792 
 PHE793  MET794  SER795  GLU796  ALA797  LYS798  CYS799  TRP800  GLU811  SER814 

> <Gold.Protein.RotatedAtoms>
  150.9552  134.8947  159.7696 H   0  0  0  0  0  0  0  0  0  0  0  0  # atno 6907 bound_to 6896
  152.5135  134.3750  159.9341 H   0  0  0  0  0  0  0  0  0  0  0  0  # atno 6908 bound_to 6896
  151.3764  133.3796  159.2740 H   0  0  0  0  0  0  0  0  0  0  0  0  # atno 6909 bound_to 6896
  146.2392  139.9669  142.8451 H   0  0  0  0  0  0  0  0  0  0  0  0  # atno 7974 bound_to 7965
  154.8399  140.2913  155.5666 H   0  0  0  0  0  0  0  0  0  0  0  0  # atno 8008 bound_to 7997
  156.3011  140.2516  156.3272 H   0  0  0  0  0  0  0  0  0  0  0  0  # atno 8009 bound_to 7997
  154.9136  140.0388  157.1949 H   0  0  0  0  0  0  0  0  0  0  0  0  # atno 8010 bound_to 7997
  140.6481  143.2548  151.4801 H   0  0  0  0  0  0  0  0  0  0  0  0  # atno 10167 bound_to 10162
  157.3607  131.0964  151.0918 H   0  0  0  0  0  0  0  0  0  0  0  0  # atno 10718 bound_to 10713
  154.7425  135.3072  154.8703 H   0  0  0  0  0  0  0  0  0  0  0  0  # atno 10763 bound_to 10752
  153.9513  135.6763  153.4748 H   0  0  0  0  0  0  0  0  0  0  0  0  # atno 10764 bound_to 10752
  153.1023  135.4906  154.8814 H   0  0  0  0  0  0  0  0  0  0  0  0  # atno 10765 bound_to 10752
  141.1430  133.6668  156.5862 H   0  0  0  0  0  0  0  0  0  0  0  0  # atno 11005 bound_to 11000
  145.1718  140.9724  143.4317 LP  0  0  0  0  0  0  0  0  0  0  0  0  # atno 17320 bound_to 7965
  145.0022  139.3588  143.6162 LP  0  0  0  0  0  0  0  0  0  0  0  0  # atno 17321 bound_to 7965
  139.5694  144.1965  152.1813 LP  0  0  0  0  0  0  0  0  0  0  0  0  # atno 17342 bound_to 10162
  140.1257  144.5334  150.6834 LP  0  0  0  0  0  0  0  0  0  0  0  0  # atno 17343 bound_to 10162
  157.2059  130.6416  149.5756 LP  0  0  0  0  0  0  0  0  0  0  0  0  # atno 17370 bound_to 10713
  155.9737  130.4676  150.6329 LP  0  0  0  0  0  0  0  0  0  0  0  0  # atno 17371 bound_to 10713
  140.3799  134.7532  157.4654 LP  0  0  0  0  0  0  0  0  0  0  0  0  # atno 17394 bound_to 11000
  140.0646  134.5948  155.8710 LP  0  0  0  0  0  0  0  0  0  0  0  0  # atno 17395 bound_to 11000

$$$$
