AV-unprocessed.smi:148|AV-procd|sdf|1205|dock10
  -GOLD-   2262018373D 1   1.00000     0.00000
 Structure written by MMmdl.
 63 67  0  0  0  0  0  0  0  0  1 V2000
  142.7322  144.5398  158.8154 O   0  0  0  0  0  0  0  0  0  0  0  0
  143.9973  145.1293  158.5995 C   0  0  0  0  0  0  0  0  0  0  0  0
  144.6219  144.6165  157.2805 C   0  0  1  0  0  0  0  0  0  0  0  0
  144.9851  143.1149  157.4042 C   0  0  0  0  0  0  0  0  0  0  0  0
  146.3876  142.8794  157.6992 N   0  0  0  0  0  0  0  0  0  0  0  0
  147.0333  143.1234  158.8911 C   0  0  0  0  0  0  0  0  0  0  0  0
  148.3026  142.8203  158.9079 N   0  0  0  0  0  0  0  0  0  0  0  0
  148.5506  142.3413  157.6281 C   0  0  0  0  0  0  0  0  0  0  0  0
  149.7059  141.8490  156.9662 C   0  0  0  0  0  0  0  0  0  0  0  0
  150.9015  141.7493  157.5953 N   0  0  0  0  0  0  0  0  0  0  0  0
  151.1211  142.9652  158.3815 C   0  0  0  0  0  0  0  0  0  0  0  0
  152.5418  143.0253  158.9550 C   0  0  0  0  0  0  0  0  0  0  0  0
  152.8381  141.7611  159.7659 C   0  0  0  0  0  0  0  0  0  0  0  0
  152.6342  140.5270  158.8798 C   0  0  0  0  0  0  0  0  0  0  0  0
  151.2043  140.4753  158.2783 C   0  0  2  0  0  0  0  0  0  0  0  0
  150.9724  139.2175  157.3767 C   0  0  2  0  0  0  0  0  0  0  0  0
  151.1373  137.8698  158.1000 C   0  0  0  0  0  0  0  0  0  0  0  0
  151.4798  136.8363  157.0141 C   0  0  0  0  0  0  0  0  0  0  0  0
  151.6176  137.6154  155.7009 C   0  0  0  0  0  0  0  0  0  0  0  0
  151.8542  139.0651  156.1258 C   0  0  1  0  0  0  0  0  0  0  0  0
  151.5025  139.9601  155.0916 O   0  0  0  0  0  0  0  0  0  0  0  0
  149.5720  141.4385  155.6763 N   0  0  0  0  0  0  0  0  0  0  0  0
  148.3866  141.5301  155.0658 C   0  0  0  0  0  0  0  0  0  0  0  0
  147.2289  141.9820  155.5534 N   0  0  0  0  0  0  0  0  0  0  0  0
  147.3590  142.3762  156.8528 C   0  0  0  0  0  0  0  0  0  0  0  0
  143.7575  144.9228  156.0247 C   0  0  2  0  0  0  0  0  0  0  0  0
  144.2645  144.3332  154.7072 C   0  0  0  0  0  0  0  0  0  0  0  0
  144.1997  145.5028  153.7241 C   0  0  0  0  0  0  0  0  0  0  0  0
  143.2776  146.4054  154.3137 O   0  0  0  0  0  0  0  0  0  0  0  0
  143.5473  146.4074  155.7049 C   0  0  0  0  0  0  0  0  0  0  0  0
  142.0911  145.2279  158.9076 H   0  0  0  0  0  0  0  0  0  0  0  0
  143.8791  146.2129  158.5854 H   0  0  0  0  0  0  0  0  0  0  0  0
  144.6197  144.8904  159.4604 H   0  0  0  0  0  0  0  0  0  0  0  0
  145.5548  145.1637  157.1363 H   0  0  0  0  0  0  0  0  0  0  0  0
  144.3981  142.6430  158.1929 H   0  0  0  0  0  0  0  0  0  0  0  0
  144.7354  142.5915  156.4803 H   0  0  0  0  0  0  0  0  0  0  0  0
  146.5289  143.5278  159.7566 H   0  0  0  0  0  0  0  0  0  0  0  0
  150.9476  143.8485  157.7644 H   0  0  0  0  0  0  0  0  0  0  0  0
  150.3957  143.0014  159.1961 H   0  0  0  0  0  0  0  0  0  0  0  0
  153.2628  143.1225  158.1420 H   0  0  0  0  0  0  0  0  0  0  0  0
  152.6549  143.9104  159.5813 H   0  0  0  0  0  0  0  0  0  0  0  0
  153.8602  141.7890  160.1446 H   0  0  0  0  0  0  0  0  0  0  0  0
  152.1806  141.7098  160.6345 H   0  0  0  0  0  0  0  0  0  0  0  0
  153.3788  140.5614  158.0853 H   0  0  0  0  0  0  0  0  0  0  0  0
  152.8478  139.6345  159.4654 H   0  0  0  0  0  0  0  0  0  0  0  0
  150.5086  140.4025  159.1157 H   0  0  0  0  0  0  0  0  0  0  0  0
  149.9385  139.2088  157.0310 H   0  0  0  0  0  0  0  0  0  0  0  0
  151.9461  137.8976  158.8285 H   0  0  0  0  0  0  0  0  0  0  0  0
  150.2311  137.6002  158.6435 H   0  0  0  0  0  0  0  0  0  0  0  0
  152.4178  136.3369  157.2599 H   0  0  0  0  0  0  0  0  0  0  0  0
  150.7120  136.0658  156.9334 H   0  0  0  0  0  0  0  0  0  0  0  0
  152.4148  137.2290  155.0653 H   0  0  0  0  0  0  0  0  0  0  0  0
  150.6839  137.5377  155.1412 H   0  0  0  0  0  0  0  0  0  0  0  0
  152.9100  139.1872  156.3641 H   0  0  0  0  0  0  0  0  0  0  0  0
  150.6476  140.3164  155.2792 H   0  0  0  0  0  0  0  0  0  0  0  0
  148.3606  141.1895  154.0411 H   0  0  0  0  0  0  0  0  0  0  0  0
  142.7678  144.4877  156.1668 H   0  0  0  0  0  0  0  0  0  0  0  0
  145.2687  143.9145  154.7625 H   0  0  0  0  0  0  0  0  0  0  0  0
  143.6020  143.5290  154.3841 H   0  0  0  0  0  0  0  0  0  0  0  0
  145.1735  145.9878  153.6390 H   0  0  0  0  0  0  0  0  0  0  0  0
  143.8818  145.1977  152.7268 H   0  0  0  0  0  0  0  0  0  0  0  0
  142.7252  146.8456  156.2711 H   0  0  0  0  0  0  0  0  0  0  0  0
  144.4418  147.0028  155.8877 H   0  0  0  0  0  0  0  0  0  0  0  0
  1  2  1  0  0  0  0
  1 31  1  0  0  0  0
  2  3  1  0  0  0  0
  2 32  1  0  0  0  0
  2 33  1  0  0  0  0
  3  4  1  0  0  0  0
  3 26  1  0  0  0  0
  3 34  1  0  0  0  0
  4  5  1  0  0  0  0
  4 35  1  0  0  0  0
  4 36  1  0  0  0  0
  5 25  1  0  0  0  0
  5  6  1  0  0  0  0
  6  7  2  0  0  0  0
  6 37  1  0  0  0  0
  7  8  1  0  0  0  0
  8 25  2  0  0  0  0
  8  9  1  0  0  0  0
  9 10  1  0  0  0  0
  9 22  2  0  0  0  0
 10 15  1  0  0  0  0
 10 11  1  0  0  0  0
 11 12  1  0  0  0  0
 11 38  1  0  0  0  0
 11 39  1  0  0  0  0
 12 13  1  0  0  0  0
 12 40  1  0  0  0  0
 12 41  1  0  0  0  0
 13 14  1  0  0  0  0
 13 42  1  0  0  0  0
 13 43  1  0  0  0  0
 14 15  1  0  0  0  0
 14 44  1  0  0  0  0
 14 45  1  0  0  0  0
 15 16  1  0  0  0  0
 15 46  1  0  0  0  0
 16 20  1  0  0  0  0
 16 17  1  0  0  0  0
 16 47  1  0  0  0  0
 17 18  1  0  0  0  0
 17 48  1  0  0  0  0
 17 49  1  0  0  0  0
 18 19  1  0  0  0  0
 18 50  1  0  0  0  0
 18 51  1  0  0  0  0
 19 20  1  0  0  0  0
 19 52  1  0  0  0  0
 19 53  1  0  0  0  0
 20 21  1  0  0  0  0
 20 54  1  0  0  0  0
 21 55  1  0  0  0  0
 22 23  1  0  0  0  0
 23 24  2  0  0  0  0
 23 56  1  0  0  0  0
 24 25  1  0  0  0  0
 26 30  1  0  0  0  0
 26 27  1  0  0  0  0
 26 57  1  0  0  0  0
 27 28  1  0  0  0  0
 27 58  1  0  0  0  0
 27 59  1  0  0  0  0
 28 29  1  0  0  0  0
 28 60  1  0  0  0  0
 28 61  1  0  0  0  0
 29 30  1  0  0  0  0
 30 62  1  0  0  0  0
 30 63  1  0  0  0  0
M  END
> <s_m_source_file>
AV-unprocessed.smi

> <i_m_source_file_index>
148

> <i_lp_mmshare_version>
43012

> <i_f3d_flags>
0

> <s_epik_input>
W0NIMl0xT1tDSDJdW0NIMl1bQ0BIXTFbQ0BIXShbQ0gyXVtPSF0pW0NIMl1uKFtjSF1uMiljKGMyMyluW2NIXW5jM040W0NIMl1bQ0gyXVtDSDJdW0NIMl1bQ0BIXTRbQ0BASF01W0NIMl1bQ0gyXVtDSDJdW0NASF01W09IXQ==

> <s_epik_cmdline>
J2VwaWtfcHl0aG9uJywgJy1waCcsICc3LjAnLCAnLXRuJywgJzgnLCAnLW1hJywgJzIwMCcsICctbWV0YWxfYmluZGluZycsICctaW1hZScsICc8aW5maWxlLm1hZT4nLCAnLW9tYWUnLCAnPG91dGZpbGUubWFlPic=

> <r_lp_tautomer_probability>
1

> <r_epik_Ionization_Penalty>
0.00556303

> <r_epik_Ionization_Penalty_Charging>
0

> <r_epik_Ionization_Penalty_Neutral>
0.00556303

> <r_epik_State_Penalty>
0.00401767

> <r_epik_Charging_Adjusted_Penalty>
0.00401767

> <i_epik_Tot_Q>
0

> <i_epik_Tot_abs_Q>
0

> <r_epik_Metal_State_Penalty>
-0

> <b_epik_Metal_Only>
0

> <s_lp_Force_Field>
OPLS_2005

> <r_lp_Energy>
67.6364

> <b_lp_Chiralities_Consistent>
1

> <s_lp_Variant>
AV-unprocessed.smi:148-4

> <Gold.Version>
5.8.1

> <Gold.Id.Protein>
6NUR|6NUR_protein|mol2

> <Gold.PLP.Fitness>
41.6954

> <Gold.PLP.PLP>
-41.8411

> <Gold.PLP.part.hbond>
-1.9482

> <Gold.PLP.part.metal>
0.0000

> <Gold.PLP.part.buried>
-7.3411

> <Gold.PLP.part.nonpolar>
-33.5152

> <Gold.PLP.part.repulsive>
0.4290

> <Gold.PLP.ligand.clash>
0.0000

> <Gold.PLP.ligand.torsion>
1.4311

> <Gold.PLP.Chemscore.Hbond>
0.7500

> <Gold.PLP.Chemscore.CHOScore>
0.0000

> <Gold.PLP.Chemscore.Metal>
0.0000

> <Gold.Chemscore.Hbonds>
donor molecule, donor type, donor heavy atom, donor atom, acceptor molecule, acceptor atom, score
      P1  H  7989  7998       L1    21  0.70

> <Gold.PLP.Chemscore.Internal.Correction>
0.4665

> <Gold.Rescore>
     Score         DG    S(hbond)    S(metal)    S(lipo)     H(rot)  DE(clash)    DE(int)     intcor
      6.82     -11.31       0.94        0.00      95.59       3.32       0.02       4.47       ----

> <Gold.Chemscore.Fitness>
6.8188

> <Gold.Chemscore.DG>
-11.3128

> <Gold.Chemscore.ZeroCoef>
-5.4800

> <Gold.Chemscore.Hbond>
0.9429

> <Gold.Chemscore.Metal>
0.0000

> <Gold.Chemscore.Lipo>
95.5854

> <Gold.Chemscore.Internal_Hbond>
0.0000

> <Gold.Chemscore.DEClash>
0.0233

> <Gold.Chemscore.DEInternal>
4.4707

> <Gold.Chemscore.Rot>
3.3203

> <Gold.Chemscore.Internal.Correction>
   9.000000E+99

> <Gold.Chemscore.Hbonds>
donor molecule, donor type, donor heavy atom, donor atom, acceptor molecule, acceptor atom, score
      P1  H  7989  7998       L1    21  0.07

> <Gold.Chemscore.Hbond.Weighted>
-3.1493

> <Gold.Chemscore.Metal.Weighted>
-0.0000

> <Gold.Chemscore.Lipo.Weighted>
-11.1835

> <Gold.Chemscore.Internal_Hbond.Weighted>
0.0000

> <Gold.Chemscore.DEClash.Weighted>
0.0233

> <Gold.Chemscore.DEInternal.Weighted>
4.4707

> <Gold.Chemscore.Rot.Weighted>
8.5000

> <Gold.Chemscore.Internal.Correction.Weighted>
   9.000000E+99

> <Gold.Protein.RotatedTorsions>
[ 6907 6896 6895 6894 ] final  -45.17 input  -60.11 | X-H torsion
[ 7974 7965 7964 7962 ] final  178.38 input  175.53 | X-H torsion
[ 8008 7997 7996 7995 ] final  169.37 input   59.86 | X-H torsion
[ 10167 10162 10161 10158 ] final   95.95 input  -65.29 | X-H torsion
[ 10718 10713 10712 10709 ] final   92.04 input   66.30 | X-H torsion
[ 10763 10752 10751 10750 ] final   23.37 input  -60.55 | X-H torsion
[ 11005 11000 10999 10996 ] final  158.72 input  -57.11 | X-H torsion

> <Gold.Protein.ActiveResidues>
 VAL166  LYS551  ARG553  GLY616  TRP617  ASP618  TYR619  PRO620  LYS621  CYS622 
 ASP623  PHE694  ASN695  SER759  ASP760  ASP761  ALA762  ILE779  LEU786  VAL792 
 PHE793  MET794  SER795  GLU796  ALA797  LYS798  CYS799  TRP800  GLU811  SER814 

> <Gold.Protein.RotatedAtoms>
  150.9249  134.8666  159.7512 H   0  0  0  0  0  0  0  0  0  0  0  0  # atno 6907 bound_to 6896
  152.5010  134.4164  159.9476 H   0  0  0  0  0  0  0  0  0  0  0  0  # atno 6908 bound_to 6896
  151.4195  133.3663  159.2789 H   0  0  0  0  0  0  0  0  0  0  0  0  # atno 6909 bound_to 6896
  144.7157  140.0389  143.6438 H   0  0  0  0  0  0  0  0  0  0  0  0  # atno 7974 bound_to 7965
  156.1463  140.1566  156.8841 H   0  0  0  0  0  0  0  0  0  0  0  0  # atno 8008 bound_to 7997
  154.5031  140.0820  156.7877 H   0  0  0  0  0  0  0  0  0  0  0  0  # atno 8009 bound_to 7997
  155.3982  140.3413  155.4257 H   0  0  0  0  0  0  0  0  0  0  0  0  # atno 8010 bound_to 7997
  139.7940  144.6841  150.9854 H   0  0  0  0  0  0  0  0  0  0  0  0  # atno 10167 bound_to 10162
  157.6959  131.0429  150.3821 H   0  0  0  0  0  0  0  0  0  0  0  0  # atno 10718 bound_to 10713
  153.0844  135.6628  153.9980 H   0  0  0  0  0  0  0  0  0  0  0  0  # atno 10763 bound_to 10752
  153.9593  135.2975  155.3436 H   0  0  0  0  0  0  0  0  0  0  0  0  # atno 10764 bound_to 10752
  154.7249  135.5148  153.8942 H   0  0  0  0  0  0  0  0  0  0  0  0  # atno 10765 bound_to 10752
  140.1892  134.8420  157.2892 H   0  0  0  0  0  0  0  0  0  0  0  0  # atno 11005 bound_to 11000
  146.0040  139.3115  143.0910 LP  0  0  0  0  0  0  0  0  0  0  0  0  # atno 17320 bound_to 7965
  145.8759  140.9392  143.0626 LP  0  0  0  0  0  0  0  0  0  0  0  0  # atno 17321 bound_to 7965
  140.7820  143.4351  151.0635 LP  0  0  0  0  0  0  0  0  0  0  0  0  # atno 17342 bound_to 10162
  139.8026  143.8062  152.3164 LP  0  0  0  0  0  0  0  0  0  0  0  0  # atno 17343 bound_to 10162
  156.4234  130.3957  149.6809 LP  0  0  0  0  0  0  0  0  0  0  0  0  # atno 17370 bound_to 10713
  156.4052  130.7695  151.2705 LP  0  0  0  0  0  0  0  0  0  0  0  0  # atno 17371 bound_to 10713
  140.2179  134.4059  155.7580 LP  0  0  0  0  0  0  0  0  0  0  0  0  # atno 17394 bound_to 11000
  141.2226  133.7151  156.8443 LP  0  0  0  0  0  0  0  0  0  0  0  0  # atno 17395 bound_to 11000

$$$$
