AV-unprocessed.smi:885|AV-procd|sdf|4046|dock3
  -GOLD-   22720 1533D 1   1.00000     0.00000
 Structure written by MMmdl.
 39 41  0  0  0  0  0  0  0  0  1 V2000
  151.6288  144.2847  160.9557 C   0  0  0  0  0  0  0  0  0  0  0  0
  152.5351  143.3424  161.7682 C   0  0  0  0  0  0  0  0  0  0  0  0
  153.2297  142.2124  160.9879 C   0  0  0  0  0  0  0  0  0  0  0  0
  152.3659  141.5220  159.9187 C   0  0  0  0  0  0  0  0  0  0  0  0
  152.4054  142.2315  158.5477 C   0  0  0  0  0  0  0  0  0  0  0  0
  151.9240  141.3228  157.4567 C   0  0  0  0  0  0  0  0  0  0  0  0
  152.5610  140.1941  157.1664 N   0  0  0  0  0  0  0  0  0  0  0  0
  151.8136  139.6618  156.1063 O   0  0  0  0  0  0  0  0  0  0  0  0
  150.7962  140.5313  155.8953 C   0  0  0  0  0  0  0  0  0  0  0  0
  149.8431  140.2608  154.7755 C   0  0  2  0  0  0  0  0  0  0  0  0
  148.8271  141.4036  154.5852 C   0  0  0  0  0  0  0  0  0  0  0  0
  147.8669  141.0583  153.5383 N   0  0  0  0  0  0  0  0  0  0  0  0
  147.2111  139.7830  153.8236 C   0  0  0  0  0  0  0  0  0  0  0  0
  148.2603  138.6781  154.0437 C   0  0  0  0  0  0  0  0  0  0  0  0
  149.1442  139.0593  155.0924 O   0  0  0  0  0  0  0  0  0  0  0  0
  150.8269  141.5948  156.6962 N   0  0  0  0  0  0  0  0  0  0  0  0
  151.6748  143.5879  158.4903 C   0  0  0  0  0  0  0  0  0  0  0  0
  152.1245  144.6197  159.5395 C   0  0  0  0  0  0  0  0  0  0  0  0
  151.5176  145.2110  161.5207 H   0  0  0  0  0  0  0  0  0  0  0  0
  150.6239  143.8645  160.8975 H   0  0  0  0  0  0  0  0  0  0  0  0
  153.3063  143.9317  162.2655 H   0  0  0  0  0  0  0  0  0  0  0  0
  151.9390  142.9073  162.5711 H   0  0  0  0  0  0  0  0  0  0  0  0
  154.1447  142.5911  160.5310 H   0  0  0  0  0  0  0  0  0  0  0  0
  153.5614  141.4655  161.7099 H   0  0  0  0  0  0  0  0  0  0  0  0
  152.7704  140.5176  159.7845 H   0  0  0  0  0  0  0  0  0  0  0  0
  151.3410  141.3851  160.2658 H   0  0  0  0  0  0  0  0  0  0  0  0
  153.4553  142.4378  158.3326 H   0  0  0  0  0  0  0  0  0  0  0  0
  150.4243  140.1147  153.8630 H   0  0  0  0  0  0  0  0  0  0  0  0
  148.3004  141.5881  155.5226 H   0  0  0  0  0  0  0  0  0  0  0  0
  149.3435  142.3287  154.3286 H   0  0  0  0  0  0  0  0  0  0  0  0
  147.1680  141.7904  153.4630 H   0  0  0  0  0  0  0  0  0  0  0  0
  146.5878  139.8775  154.7135 H   0  0  0  0  0  0  0  0  0  0  0  0
  146.5472  139.5118  153.0028 H   0  0  0  0  0  0  0  0  0  0  0  0
  147.7689  137.7451  154.3198 H   0  0  0  0  0  0  0  0  0  0  0  0
  148.8222  138.4835  153.1287 H   0  0  0  0  0  0  0  0  0  0  0  0
  151.8333  144.0183  157.5005 H   0  0  0  0  0  0  0  0  0  0  0  0
  150.5981  143.4346  158.5746 H   0  0  0  0  0  0  0  0  0  0  0  0
  151.6980  145.5821  159.2547 H   0  0  0  0  0  0  0  0  0  0  0  0
  153.2062  144.7576  159.5220 H   0  0  0  0  0  0  0  0  0  0  0  0
  1 18  1  0  0  0  0
  1  2  1  0  0  0  0
  1 19  1  0  0  0  0
  1 20  1  0  0  0  0
  2  3  1  0  0  0  0
  2 21  1  0  0  0  0
  2 22  1  0  0  0  0
  3  4  1  0  0  0  0
  3 23  1  0  0  0  0
  3 24  1  0  0  0  0
  4  5  1  0  0  0  0
  4 25  1  0  0  0  0
  4 26  1  0  0  0  0
  5  6  1  0  0  0  0
  5 17  1  0  0  0  0
  5 27  1  0  0  0  0
  6 16  1  0  0  0  0
  6  7  2  0  0  0  0
  7  8  1  0  0  0  0
  8  9  1  0  0  0  0
  9 10  1  0  0  0  0
  9 16  2  0  0  0  0
 10 15  1  0  0  0  0
 10 11  1  0  0  0  0
 10 28  1  0  0  0  0
 11 12  1  0  0  0  0
 11 29  1  0  0  0  0
 11 30  1  0  0  0  0
 12 13  1  0  0  0  0
 12 31  1  0  0  0  0
 13 14  1  0  0  0  0
 13 32  1  0  0  0  0
 13 33  1  0  0  0  0
 14 15  1  0  0  0  0
 14 34  1  0  0  0  0
 14 35  1  0  0  0  0
 17 18  1  0  0  0  0
 17 36  1  0  0  0  0
 17 37  1  0  0  0  0
 18 38  1  0  0  0  0
 18 39  1  0  0  0  0
M  END
> <s_m_source_file>
AV-unprocessed.smi

> <i_m_source_file_index>
885

> <i_lp_mmshare_version>
43012

> <i_f3d_flags>
0

> <s_epik_input>
W0NIMl0xW0NIMl1bQ0gyXVtDSDJdW0NIMl1bQ0gyXVtDSF0xYzJub2MobjIpW0NAQEhdM1tDSDJdW05IXVtDSDJdW0NIMl1PMw==

> <s_epik_cmdline>
J2VwaWtfcHl0aG9uJywgJy1waCcsICc3LjAnLCAnLXRuJywgJzgnLCAnLW1hJywgJzIwMCcsICctbWV0YWxfYmluZGluZycsICctaW1hZScsICc8aW5maWxlLm1hZT4nLCAnLW9tYWUnLCAnPG91dGZpbGUubWFlPic=

> <r_lp_tautomer_probability>
1

> <r_epik_Ionization_Penalty>
0.861744

> <r_epik_Ionization_Penalty_Charging>
0

> <r_epik_Ionization_Penalty_Neutral>
0.861744

> <r_epik_State_Penalty>
0.898282

> <r_epik_Charging_Adjusted_Penalty>
0.898282

> <i_epik_Tot_Q>
0

> <i_epik_Tot_abs_Q>
0

> <r_epik_Metal_State_Penalty>
0.898282

> <b_epik_Metal_Only>
0

> <s_lp_Force_Field>
OPLS_2005

> <r_lp_Energy>
20.6019

> <b_lp_Chiralities_Consistent>
1

> <s_lp_Variant>
AV-unprocessed.smi:885-3

> <Gold.Version>
5.8.1

> <Gold.Id.Protein>
6NUR|6NUR_protein|mol2

> <Gold.PLP.Fitness>
42.5129

> <Gold.PLP.PLP>
-39.6995

> <Gold.PLP.part.hbond>
-2.0000

> <Gold.PLP.part.metal>
0.0000

> <Gold.PLP.part.buried>
-5.2455

> <Gold.PLP.part.nonpolar>
-32.7033

> <Gold.PLP.part.repulsive>
0.1411

> <Gold.PLP.ligand.clash>
0.0000

> <Gold.PLP.ligand.torsion>
0.1470

> <Gold.PLP.Chemscore.Hbond>
1.0000

> <Gold.PLP.Chemscore.CHOScore>
0.0000

> <Gold.PLP.Chemscore.Metal>
0.0000

> <Gold.Chemscore.Hbonds>
donor molecule, donor type, donor heavy atom, donor atom, acceptor molecule, acceptor atom, score
      P1  H  7997  8009       L1     7  1.00

> <Gold.PLP.Chemscore.Internal.Correction>
0.1074

> <Gold.Rescore>
     Score         DG    S(hbond)    S(metal)    S(lipo)     H(rot)  DE(clash)    DE(int)     intcor
     17.18     -17.38       0.81        0.00     105.11       1.21       0.11       0.09       ----

> <Gold.Chemscore.Fitness>
17.1755

> <Gold.Chemscore.DG>
-17.3782

> <Gold.Chemscore.ZeroCoef>
-5.4800

> <Gold.Chemscore.Hbond>
0.8069

> <Gold.Chemscore.Metal>
0.0000

> <Gold.Chemscore.Lipo>
105.1105

> <Gold.Chemscore.Internal_Hbond>
0.0000

> <Gold.Chemscore.DEClash>
0.1132

> <Gold.Chemscore.DEInternal>
0.0895

> <Gold.Chemscore.Rot>
1.2088

> <Gold.Chemscore.Internal.Correction>
   9.000000E+99

> <Gold.Chemscore.Hbonds>
donor molecule, donor type, donor heavy atom, donor atom, acceptor molecule, acceptor atom, score
      P1  H  7997  8009       L1     7  0.62

> <Gold.Chemscore.Hbond.Weighted>
-2.6949

> <Gold.Chemscore.Metal.Weighted>
-0.0000

> <Gold.Chemscore.Lipo.Weighted>
-12.2979

> <Gold.Chemscore.Internal_Hbond.Weighted>
0.0000

> <Gold.Chemscore.DEClash.Weighted>
0.1132

> <Gold.Chemscore.DEInternal.Weighted>
0.0895

> <Gold.Chemscore.Rot.Weighted>
3.0946

> <Gold.Chemscore.Internal.Correction.Weighted>
   9.000000E+99

> <Gold.Protein.RotatedTorsions>
[ 6907 6896 6895 6894 ] final  -58.41 input  -60.11 | X-H torsion
[ 7974 7965 7964 7962 ] final  -63.04 input  175.53 | X-H torsion
[ 8008 7997 7996 7995 ] final  177.51 input   59.86 | X-H torsion
[ 10167 10162 10161 10158 ] final  108.23 input  -65.29 | X-H torsion
[ 10718 10713 10712 10709 ] final  164.57 input   66.30 | X-H torsion
[ 10763 10752 10751 10750 ] final  -17.01 input  -60.55 | X-H torsion
[ 11005 11000 10999 10996 ] final  -25.92 input  -57.11 | X-H torsion

> <Gold.Protein.ActiveResidues>
 VAL166  LYS551  ARG553  GLY616  TRP617  ASP618  TYR619  PRO620  LYS621  CYS622 
 ASP623  PHE694  ASN695  SER759  ASP760  ASP761  ALA762  ILE779  LEU786  VAL792 
 PHE793  MET794  SER795  GLU796  ALA797  LYS798  CYS799  TRP800  GLU811  SER814 

> <Gold.Protein.RotatedAtoms>
  150.8009  134.7102  159.6598 H   0  0  0  0  0  0  0  0  0  0  0  0  # atno 6907 bound_to 6896
  152.4126  134.6095  160.0031 H   0  0  0  0  0  0  0  0  0  0  0  0  # atno 6908 bound_to 6896
  151.6334  133.3293  159.3150 H   0  0  0  0  0  0  0  0  0  0  0  0  # atno 6909 bound_to 6896
  145.7839  140.8747  143.0316 H   0  0  0  0  0  0  0  0  0  0  0  0  # atno 7974 bound_to 7965
  156.0649  140.1356  156.9898 H   0  0  0  0  0  0  0  0  0  0  0  0  # atno 8008 bound_to 7997
  154.4501  140.0984  156.6643 H   0  0  0  0  0  0  0  0  0  0  0  0  # atno 8009 bound_to 7997
  155.5320  140.3459  155.4430 H   0  0  0  0  0  0  0  0  0  0  0  0  # atno 8010 bound_to 7997
  139.6863  144.7113  151.1426 H   0  0  0  0  0  0  0  0  0  0  0  0  # atno 10167 bound_to 10162
  157.0924  131.0421  151.2531 H   0  0  0  0  0  0  0  0  0  0  0  0  # atno 10718 bound_to 10713
  153.5673  135.7008  153.5520 H   0  0  0  0  0  0  0  0  0  0  0  0  # atno 10763 bound_to 10752
  153.3376  135.4030  155.1545 H   0  0  0  0  0  0  0  0  0  0  0  0  # atno 10764 bound_to 10752
  154.8638  135.3734  154.5194 H   0  0  0  0  0  0  0  0  0  0  0  0  # atno 10765 bound_to 10752
  140.8982  133.7542  156.0509 H   0  0  0  0  0  0  0  0  0  0  0  0  # atno 11005 bound_to 11000
  144.6792  140.0028  143.7484 LP  0  0  0  0  0  0  0  0  0  0  0  0  # atno 17320 bound_to 7965
  146.0046  139.3119  143.0907 LP  0  0  0  0  0  0  0  0  0  0  0  0  # atno 17321 bound_to 7965
  140.7669  143.5624  150.9084 LP  0  0  0  0  0  0  0  0  0  0  0  0  # atno 17342 bound_to 10162
  139.9299  143.6505  152.3078 LP  0  0  0  0  0  0  0  0  0  0  0  0  # atno 17343 bound_to 10162
  157.4709  130.7708  149.7323 LP  0  0  0  0  0  0  0  0  0  0  0  0  # atno 17370 bound_to 10713
  155.9894  130.3952  150.3073 LP  0  0  0  0  0  0  0  0  0  0  0  0  # atno 17371 bound_to 10713
  140.8263  134.3230  157.5364 LP  0  0  0  0  0  0  0  0  0  0  0  0  # atno 17394 bound_to 11000
  139.8738  134.9338  156.3590 LP  0  0  0  0  0  0  0  0  0  0  0  0  # atno 17395 bound_to 11000

$$$$
