AV-unprocessed.smi:3331|AV-procd|sdf|12820|dock6
  -GOLD-   2272019193D 1   1.00000     0.00000
 Structure written by MMmdl.
 47 48  0  0  0  0  0  0  0  0  2 V2000
  146.9600  139.6204  157.1639 C   0  0  0  0  0  0  0  0  0  0  0  0
  146.5786  140.7373  156.1761 C   0  0  2  0  0  0  0  0  0  0  0  0
  146.1820  140.1815  154.7899 C   0  0  0  0  0  0  0  0  0  0  0  0
  147.4004  139.7518  153.9420 C   0  0  1  0  0  0  0  0  0  0  0  0
  146.9794  139.3345  152.5260 C   0  0  0  0  0  0  0  0  0  0  0  0
  148.4544  140.8779  153.9116 C   0  0  0  0  0  0  0  0  0  0  0  0
  148.8284  141.2269  155.2895 N   0  0  0  0  0  0  0  0  0  0  0  0
  150.0591  140.9632  155.7995 C   0  0  0  0  0  0  0  0  0  0  0  0
  150.9553  140.4710  155.1123 O   0  0  0  0  0  0  0  0  0  0  0  0
  150.3681  141.3036  157.2715 C   0  0  1  0  0  0  0  0  0  0  0  0
  151.6580  140.6157  157.7658 C   0  0  0  0  0  0  0  0  0  0  0  0
  150.4607  142.7722  157.4305 N   0  3  0  0  0  0  0  0  0  0  0  0
  151.7658  143.3634  157.0726 C   0  0  0  0  0  0  0  0  0  0  0  0
  152.1568  144.4673  158.0651 C   0  0  0  0  0  0  0  0  0  0  0  0
  152.4257  143.9316  159.3852 N   0  0  0  0  0  0  0  0  0  0  0  0
  151.9346  144.3576  160.6016 C   0  0  0  0  0  0  0  0  0  0  0  0
  152.4673  143.5446  161.5607 C   0  0  0  0  0  0  0  0  0  0  0  0
  153.2795  142.6379  160.8236 C   0  0  0  0  0  0  0  0  0  0  0  0
  153.2509  142.8712  159.5212 N   0  0  0  0  0  0  0  0  0  0  0  0
  147.6876  141.8005  156.0199 C   0  0  0  0  0  0  0  0  0  0  0  0
  147.8334  139.0599  156.8314 H   0  0  0  0  0  0  0  0  0  0  0  0
  146.1411  138.9109  157.2858 H   0  0  0  0  0  0  0  0  0  0  0  0
  147.1847  140.0304  158.1488 H   0  0  0  0  0  0  0  0  0  0  0  0
  145.7010  141.2334  156.5926 H   0  0  0  0  0  0  0  0  0  0  0  0
  145.4843  139.3504  154.8999 H   0  0  0  0  0  0  0  0  0  0  0  0
  145.6387  140.9588  154.2509 H   0  0  0  0  0  0  0  0  0  0  0  0
  147.8546  138.8797  154.4145 H   0  0  0  0  0  0  0  0  0  0  0  0
  146.5129  140.1620  151.9904 H   0  0  0  0  0  0  0  0  0  0  0  0
  146.2645  138.5117  152.5561 H   0  0  0  0  0  0  0  0  0  0  0  0
  147.8384  139.0024  151.9422 H   0  0  0  0  0  0  0  0  0  0  0  0
  149.3082  140.5672  153.3081 H   0  0  0  0  0  0  0  0  0  0  0  0
  148.0509  141.7606  153.4129 H   0  0  0  0  0  0  0  0  0  0  0  0
  149.5537  140.9204  157.8858 H   0  0  0  0  0  0  0  0  0  0  0  0
  151.6233  139.5394  157.5904 H   0  0  0  0  0  0  0  0  0  0  0  0
  151.8004  140.7547  158.8372 H   0  0  0  0  0  0  0  0  0  0  0  0
  152.5433  141.0067  157.2624 H   0  0  0  0  0  0  0  0  0  0  0  0
  149.7311  143.2058  156.8827 H   0  0  0  0  0  0  0  0  0  0  0  0
  152.5238  142.5787  157.0695 H   0  0  0  0  0  0  0  0  0  0  0  0
  151.7219  143.7753  156.0642 H   0  0  0  0  0  0  0  0  0  0  0  0
  153.0467  144.9934  157.7167 H   0  0  0  0  0  0  0  0  0  0  0  0
  151.3613  145.2094  158.1482 H   0  0  0  0  0  0  0  0  0  0  0  0
  151.2560  145.1940  160.6837 H   0  0  0  0  0  0  0  0  0  0  0  0
  152.3006  143.5892  162.6269 H   0  0  0  0  0  0  0  0  0  0  0  0
  153.8843  141.8231  161.1934 H   0  0  0  0  0  0  0  0  0  0  0  0
  147.3008  142.6452  155.4476 H   0  0  0  0  0  0  0  0  0  0  0  0
  147.9439  142.2211  156.9901 H   0  0  0  0  0  0  0  0  0  0  0  0
  150.2944  142.9816  158.4045 H   0  0  0  0  0  0  0  0  0  0  0  0
  1  2  1  0  0  0  0
  1 21  1  0  0  0  0
  1 22  1  0  0  0  0
  1 23  1  0  0  0  0
  2 20  1  0  0  0  0
  2  3  1  0  0  0  0
  2 24  1  0  0  0  0
  3  4  1  0  0  0  0
  3 25  1  0  0  0  0
  3 26  1  0  0  0  0
  4  5  1  0  0  0  0
  4  6  1  0  0  0  0
  4 27  1  0  0  0  0
  5 28  1  0  0  0  0
  5 29  1  0  0  0  0
  5 30  1  0  0  0  0
  6  7  1  0  0  0  0
  6 31  1  0  0  0  0
  6 32  1  0  0  0  0
  7  8  1  0  0  0  0
  7 20  1  0  0  0  0
  8  9  2  0  0  0  0
  8 10  1  0  0  0  0
 10 11  1  0  0  0  0
 10 12  1  0  0  0  0
 10 33  1  0  0  0  0
 11 34  1  0  0  0  0
 11 35  1  0  0  0  0
 11 36  1  0  0  0  0
 12 13  1  0  0  0  0
 12 37  1  0  0  0  0
 12 47  1  0  0  0  0
 13 14  1  0  0  0  0
 13 38  1  0  0  0  0
 13 39  1  0  0  0  0
 14 15  1  0  0  0  0
 14 40  1  0  0  0  0
 14 41  1  0  0  0  0
 15 19  1  0  0  0  0
 15 16  1  0  0  0  0
 16 17  2  0  0  0  0
 16 42  1  0  0  0  0
 17 18  1  0  0  0  0
 17 43  1  0  0  0  0
 18 19  2  0  0  0  0
 18 44  1  0  0  0  0
 20 45  1  0  0  0  0
 20 46  1  0  0  0  0
M  CHG  1  12   1
M  END
> <s_m_source_file>
AV-unprocessed.smi

> <i_m_source_file_index>
3331

> <i_lp_mmshare_version>
43012

> <i_f3d_flags>
0

> <s_epik_input>
W0NIM11bQ0BASF0xW0NIMl1bQ0BASF0oW0NIM10pW0NIMl1OKFtDSDJdMSlDKD1PKVtDQEhdKFtDSDNdKVtOSF1bQ0gyXVtDSDJdbjJbY0hdW2NIXVtjSF1uMg==

> <s_epik_cmdline>
J2VwaWtfcHl0aG9uJywgJy1waCcsICc3LjAnLCAnLXRuJywgJzgnLCAnLW1hJywgJzIwMCcsICctbWV0YWxfYmluZGluZycsICctaW1hZScsICc8aW5maWxlLm1hZT4nLCAnLW9tYWUnLCAnPG91dGZpbGUubWFlPic=

> <r_lp_tautomer_probability>
1

> <r_epik_Ionization_Penalty>
0.189706

> <r_epik_Ionization_Penalty_Charging>
0.189703

> <r_epik_Ionization_Penalty_Neutral>
2.45875e-06

> <r_epik_State_Penalty>
0.179341

> <r_epik_Charging_Adjusted_Penalty>
0.369044

> <i_epik_Tot_Q>
1

> <i_epik_Tot_abs_Q>
1

> <r_epik_Metal_State_Penalty>
0.179578

> <b_epik_Metal_Only>
0

> <s_lp_Force_Field>
OPLS_2005

> <r_lp_Energy>
29.8241

> <b_lp_Chiralities_Consistent>
1

> <s_lp_Variant>
AV-unprocessed.smi:3331-4

> <Gold.Version>
5.8.1

> <Gold.Id.Protein>
6NUR|6NUR_protein|mol2

> <Gold.PLP.Fitness>
48.6922

> <Gold.PLP.PLP>
-41.5236

> <Gold.PLP.part.hbond>
-2.0000

> <Gold.PLP.part.metal>
0.0000

> <Gold.PLP.part.buried>
-3.1042

> <Gold.PLP.part.nonpolar>
-36.7163

> <Gold.PLP.part.repulsive>
0.0687

> <Gold.PLP.ligand.clash>
0.0000

> <Gold.PLP.ligand.torsion>
0.9207

> <Gold.PLP.Chemscore.Hbond>
2.9920

> <Gold.PLP.Chemscore.CHOScore>
0.0000

> <Gold.PLP.Chemscore.Metal>
0.0000

> <Gold.Chemscore.Hbonds>
donor molecule, donor type, donor heavy atom, donor atom, acceptor molecule, acceptor atom, score
      L1  H    12    37       P1  8028  1.56
      P1  H  7989  7998       L1     9  1.00

> <Gold.PLP.Chemscore.Internal.Correction>
0.0339

> <Gold.Rescore>
     Score         DG    S(hbond)    S(metal)    S(lipo)     H(rot)  DE(clash)    DE(int)     intcor
     17.50     -18.75       1.80        0.00      99.75       1.73       0.45       0.80       ----

> <Gold.Chemscore.Fitness>
17.5036

> <Gold.Chemscore.DG>
-18.7525

> <Gold.Chemscore.ZeroCoef>
-5.4800

> <Gold.Chemscore.Hbond>
1.8019

> <Gold.Chemscore.Metal>
0.0000

> <Gold.Chemscore.Lipo>
99.7547

> <Gold.Chemscore.Internal_Hbond>
0.0000

> <Gold.Chemscore.DEClash>
0.4492

> <Gold.Chemscore.DEInternal>
0.7997

> <Gold.Chemscore.Rot>
1.7254

> <Gold.Chemscore.Internal.Correction>
   9.000000E+99

> <Gold.Chemscore.Hbonds>
donor molecule, donor type, donor heavy atom, donor atom, acceptor molecule, acceptor atom, score
      L1  H    12    37       P1  8028  0.75
      P1  H  7989  7998       L1     9  0.95

> <Gold.Chemscore.Hbond.Weighted>
-6.0182

> <Gold.Chemscore.Metal.Weighted>
-0.0000

> <Gold.Chemscore.Lipo.Weighted>
-11.6713

> <Gold.Chemscore.Internal_Hbond.Weighted>
0.0000

> <Gold.Chemscore.DEClash.Weighted>
0.4492

> <Gold.Chemscore.DEInternal.Weighted>
0.7997

> <Gold.Chemscore.Rot.Weighted>
4.4170

> <Gold.Chemscore.Internal.Correction.Weighted>
   9.000000E+99

> <Gold.Protein.RotatedTorsions>
[ 6907 6896 6895 6894 ] final  166.27 input  -60.11 | X-H torsion
[ 7974 7965 7964 7962 ] final  -54.42 input  175.53 | X-H torsion
[ 8008 7997 7996 7995 ] final  133.28 input   59.86 | X-H torsion
[ 10167 10162 10161 10158 ] final  121.40 input  -65.29 | X-H torsion
[ 10718 10713 10712 10709 ] final    6.75 input   66.30 | X-H torsion
[ 10763 10752 10751 10750 ] final  -97.89 input  -60.55 | X-H torsion
[ 11005 11000 10999 10996 ] final  163.71 input  -57.11 | X-H torsion

> <Gold.Protein.ActiveResidues>
 VAL166  LYS551  ARG553  GLY616  TRP617  ASP618  TYR619  PRO620  LYS621  CYS622 
 ASP623  PHE694  ASN695  SER759  ASP760  ASP761  ALA762  ILE779  LEU786  VAL792 
 PHE793  MET794  SER795  GLU796  ALA797  LYS798  CYS799  TRP800  GLU811  SER814 

> <Gold.Protein.RotatedAtoms>
  151.8815  133.3496  159.3767 H   0  0  0  0  0  0  0  0  0  0  0  0  # atno 6907 bound_to 6896
  150.7126  134.5014  159.5572 H   0  0  0  0  0  0  0  0  0  0  0  0  # atno 6908 bound_to 6896
  152.2566  134.8078  160.0488 H   0  0  0  0  0  0  0  0  0  0  0  0  # atno 6909 bound_to 6896
  145.8858  140.8109  142.9817 H   0  0  0  0  0  0  0  0  0  0  0  0  # atno 7974 bound_to 7965
  156.2991  140.2525  156.3227 H   0  0  0  0  0  0  0  0  0  0  0  0  # atno 8008 bound_to 7997
  154.9220  140.0400  157.2022 H   0  0  0  0  0  0  0  0  0  0  0  0  # atno 8009 bound_to 7997
  154.8302  140.2874  155.5732 H   0  0  0  0  0  0  0  0  0  0  0  0  # atno 8010 bound_to 7997
  139.5922  144.7029  151.3263 H   0  0  0  0  0  0  0  0  0  0  0  0  # atno 10167 bound_to 10162
  156.9268  130.5811  149.5648 H   0  0  0  0  0  0  0  0  0  0  0  0  # atno 10718 bound_to 10713
  154.7367  135.5029  153.9054 H   0  0  0  0  0  0  0  0  0  0  0  0  # atno 10763 bound_to 10752
  153.1003  135.6683  153.9694 H   0  0  0  0  0  0  0  0  0  0  0  0  # atno 10764 bound_to 10752
  153.9482  135.3060  155.3419 H   0  0  0  0  0  0  0  0  0  0  0  0  # atno 10765 bound_to 10752
  140.2385  134.8069  157.3387 H   0  0  0  0  0  0  0  0  0  0  0  0  # atno 11005 bound_to 11000
  144.6728  140.1453  143.7434 LP  0  0  0  0  0  0  0  0  0  0  0  0  # atno 17320 bound_to 7965
  145.8969  139.2407  143.1517 LP  0  0  0  0  0  0  0  0  0  0  0  0  # atno 17321 bound_to 7965
  140.7182  143.7208  150.7697 LP  0  0  0  0  0  0  0  0  0  0  0  0  # atno 17342 bound_to 10162
  140.0766  143.5009  152.2552 LP  0  0  0  0  0  0  0  0  0  0  0  0  # atno 17343 bound_to 10162
  156.0465  130.5541  150.8893 LP  0  0  0  0  0  0  0  0  0  0  0  0  # atno 17370 bound_to 10713
  157.5872  131.0945  150.9177 LP  0  0  0  0  0  0  0  0  0  0  0  0  # atno 17371 bound_to 10713
  140.1677  134.4648  155.7852 LP  0  0  0  0  0  0  0  0  0  0  0  0  # atno 17394 bound_to 11000
  141.2212  133.6928  156.7654 LP  0  0  0  0  0  0  0  0  0  0  0  0  # atno 17395 bound_to 11000

$$$$
