AV-unprocessed.smi:2456|AV-procd|sdf|9700|dock2
  -GOLD-   2272013343D 1   1.00000     0.00000
 Structure written by MMmdl.
 34 35  0  0  0  0  0  0  0  0  1 V2000
  150.9447  137.7394  155.3999 C   0  0  0  0  0  0  0  0  0  0  0  0
  151.0603  138.4431  156.7627 C   0  0  2  0  0  0  0  0  0  0  0  0
  149.8472  138.1459  157.5246 N   0  0  0  0  0  0  0  0  0  0  0  0
  149.7948  137.3783  158.6237 C   0  0  0  0  0  0  0  0  0  0  0  0
  150.7788  136.8143  159.1036 O   0  0  0  0  0  0  0  0  0  0  0  0
  148.5454  137.3174  159.1163 N   0  0  0  0  0  0  0  0  0  0  0  0
  148.0871  136.6154  160.2617 C   0  0  0  0  0  0  0  0  0  0  0  0
  147.6981  137.2006  161.4006 N   0  0  0  0  0  0  0  0  0  0  0  0
  147.2952  136.2671  162.3589 C   0  0  0  0  0  0  0  0  0  0  0  0
  147.3867  134.9662  161.9303 C   0  0  0  0  0  0  0  0  0  0  0  0
  147.9833  134.8614  160.2954 S   0  0  0  0  0  0  0  0  0  0  0  0
  151.1851  139.9620  156.5081 C   0  0  0  0  0  0  0  0  0  0  0  0
  151.0151  140.3964  155.3668 O   0  0  0  0  0  0  0  0  0  0  0  0
  151.4952  140.7772  157.5392 N   0  0  0  0  0  0  0  0  0  0  0  0
  151.7331  140.2940  158.8984 C   0  0  0  0  0  0  0  0  0  0  0  0
  152.2905  141.4880  159.6734 C   0  0  0  0  0  0  0  0  0  0  0  0
  151.7430  142.6987  158.9316 C   0  0  0  0  0  0  0  0  0  0  0  0
  151.6415  142.2316  157.4796 C   0  0  0  0  0  0  0  0  0  0  0  0
  151.8310  137.9101  154.7876 H   0  0  0  0  0  0  0  0  0  0  0  0
  150.0787  138.0876  154.8345 H   0  0  0  0  0  0  0  0  0  0  0  0
  150.8424  136.6613  155.5264 H   0  0  0  0  0  0  0  0  0  0  0  0
  151.9197  138.0505  157.3071 H   0  0  0  0  0  0  0  0  0  0  0  0
  148.9930  138.5764  157.2023 H   0  0  0  0  0  0  0  0  0  0  0  0
  147.8397  137.8374  158.6158 H   0  0  0  0  0  0  0  0  0  0  0  0
  146.9568  136.6172  163.3228 H   0  0  0  0  0  0  0  0  0  0  0  0
  147.1393  134.0670  162.4747 H   0  0  0  0  0  0  0  0  0  0  0  0
  150.7859  139.9661  159.3292 H   0  0  0  0  0  0  0  0  0  0  0  0
  152.4251  139.4506  158.9193 H   0  0  0  0  0  0  0  0  0  0  0  0
  152.0126  141.4756  160.7276 H   0  0  0  0  0  0  0  0  0  0  0  0
  153.3798  141.4868  159.6142 H   0  0  0  0  0  0  0  0  0  0  0  0
  150.7477  142.9375  159.3090 H   0  0  0  0  0  0  0  0  0  0  0  0
  152.3668  143.5852  159.0489 H   0  0  0  0  0  0  0  0  0  0  0  0
  152.5568  142.4751  156.9383 H   0  0  0  0  0  0  0  0  0  0  0  0
  150.8044  142.7137  156.9731 H   0  0  0  0  0  0  0  0  0  0  0  0
  1  2  1  0  0  0  0
  1 19  1  0  0  0  0
  1 20  1  0  0  0  0
  1 21  1  0  0  0  0
  2  3  1  0  0  0  0
  2 12  1  0  0  0  0
  2 22  1  0  0  0  0
  3  4  1  0  0  0  0
  3 23  1  0  0  0  0
  4  5  2  0  0  0  0
  4  6  1  0  0  0  0
  6  7  1  0  0  0  0
  6 24  1  0  0  0  0
  7 11  1  0  0  0  0
  7  8  2  0  0  0  0
  8  9  1  0  0  0  0
  9 10  2  0  0  0  0
  9 25  1  0  0  0  0
 10 11  1  0  0  0  0
 10 26  1  0  0  0  0
 12 13  2  0  0  0  0
 12 14  1  0  0  0  0
 14 18  1  0  0  0  0
 14 15  1  0  0  0  0
 15 16  1  0  0  0  0
 15 27  1  0  0  0  0
 15 28  1  0  0  0  0
 16 17  1  0  0  0  0
 16 29  1  0  0  0  0
 16 30  1  0  0  0  0
 17 18  1  0  0  0  0
 17 31  1  0  0  0  0
 17 32  1  0  0  0  0
 18 33  1  0  0  0  0
 18 34  1  0  0  0  0
M  END
> <s_m_source_file>
AV-unprocessed.smi

> <i_m_source_file_index>
2456

> <i_lp_mmshare_version>
43012

> <i_f3d_flags>
0

> <s_epik_input>
W0NIMl0xW0NIMl1bQ0gyXVtDSDJdTjFDKD1PKVtDQEhdKFtDSDNdKVtOSF1DKD1PKVtOSF1jMm5bY0hdW2NIXXMy

> <s_epik_cmdline>
J2VwaWtfcHl0aG9uJywgJy1waCcsICc3LjAnLCAnLXRuJywgJzgnLCAnLW1hJywgJzIwMCcsICctbWV0YWxfYmluZGluZycsICctaW1hZScsICc8aW5maWxlLm1hZT4nLCAnLW9tYWUnLCAnPG91dGZpbGUubWFlPic=

> <r_lp_tautomer_probability>
1

> <r_epik_Ionization_Penalty>
0.000150201

> <r_epik_Ionization_Penalty_Charging>
0

> <r_epik_Ionization_Penalty_Neutral>
0.000150201

> <r_epik_State_Penalty>
-0

> <r_epik_Charging_Adjusted_Penalty>
0

> <i_epik_Tot_Q>
0

> <i_epik_Tot_abs_Q>
0

> <r_epik_Metal_State_Penalty>
0.0705602

> <b_epik_Metal_Only>
0

> <s_lp_Force_Field>
OPLS_2005

> <r_lp_Energy>
26.5881

> <b_lp_Chiralities_Consistent>
1

> <s_lp_Variant>
AV-unprocessed.smi:2456-1

> <Gold.Version>
5.8.1

> <Gold.Id.Protein>
6NUR|6NUR_protein|mol2

> <Gold.PLP.Fitness>
40.3696

> <Gold.PLP.PLP>
-30.8407

> <Gold.PLP.part.hbond>
-4.0000

> <Gold.PLP.part.metal>
0.0000

> <Gold.PLP.part.buried>
-5.3124

> <Gold.PLP.part.nonpolar>
-21.2595

> <Gold.PLP.part.repulsive>
0.2622

> <Gold.PLP.ligand.clash>
0.0000

> <Gold.PLP.ligand.torsion>
0.9532

> <Gold.PLP.Chemscore.Hbond>
3.8080

> <Gold.PLP.Chemscore.CHOScore>
0.0000

> <Gold.PLP.Chemscore.Metal>
0.0000

> <Gold.Chemscore.Hbonds>
donor molecule, donor type, donor heavy atom, donor atom, acceptor molecule, acceptor atom, score
      P1  H  6896  6909       L1     5  1.00
      P1  H  6931  6943       L1     8  0.99
      P1  H  6934  6947       L1     8  0.80
      P1  H  7989  7998       L1    13  1.00

> <Gold.PLP.Chemscore.Internal.Correction>
0.0112

> <Gold.Rescore>
     Score         DG    S(hbond)    S(metal)    S(lipo)     H(rot)  DE(clash)    DE(int)     intcor
     19.38     -20.45       3.22        0.00      65.37       1.34       0.08       0.99       ----

> <Gold.Chemscore.Fitness>
19.3802

> <Gold.Chemscore.DG>
-20.4498

> <Gold.Chemscore.ZeroCoef>
-5.4800

> <Gold.Chemscore.Hbond>
3.2228

> <Gold.Chemscore.Metal>
0.0000

> <Gold.Chemscore.Lipo>
65.3696

> <Gold.Chemscore.Internal_Hbond>
0.0000

> <Gold.Chemscore.DEClash>
0.0811

> <Gold.Chemscore.DEInternal>
0.9885

> <Gold.Chemscore.Rot>
1.3448

> <Gold.Chemscore.Internal.Correction>
   9.000000E+99

> <Gold.Chemscore.Hbonds>
donor molecule, donor type, donor heavy atom, donor atom, acceptor molecule, acceptor atom, score
      P1  H  6896  6909       L1     5  0.93
      P1  H  6931  6943       L1     8  0.51
      P1  H  6934  6947       L1     8  0.48
      P1  H  7989  7998       L1    13  0.89

> <Gold.Chemscore.Hbond.Weighted>
-10.7643

> <Gold.Chemscore.Metal.Weighted>
-0.0000

> <Gold.Chemscore.Lipo.Weighted>
-7.6482

> <Gold.Chemscore.Internal_Hbond.Weighted>
0.0000

> <Gold.Chemscore.DEClash.Weighted>
0.0811

> <Gold.Chemscore.DEInternal.Weighted>
0.9885

> <Gold.Chemscore.Rot.Weighted>
3.4427

> <Gold.Chemscore.Internal.Correction.Weighted>
   9.000000E+99

> <Gold.Protein.RotatedTorsions>
[ 6907 6896 6895 6894 ] final   79.09 input  -60.11 | X-H torsion
[ 7974 7965 7964 7962 ] final  -78.86 input  175.53 | X-H torsion
[ 8008 7997 7996 7995 ] final  -52.42 input   59.86 | X-H torsion
[ 10167 10162 10161 10158 ] final -144.47 input  -65.29 | X-H torsion
[ 10718 10713 10712 10709 ] final  152.54 input   66.30 | X-H torsion
[ 10763 10752 10751 10750 ] final  172.93 input  -60.55 | X-H torsion
[ 11005 11000 10999 10996 ] final  136.63 input  -57.11 | X-H torsion

> <Gold.Protein.ActiveResidues>
 VAL166  LYS551  ARG553  GLY616  TRP617  ASP618  TYR619  PRO620  LYS621  CYS622 
 ASP623  PHE694  ASN695  SER759  ASP760  ASP761  ALA762  ILE779  LEU786  VAL792 
 PHE793  MET794  SER795  GLU796  ALA797  LYS798  CYS799  TRP800  GLU811  SER814 

> <Gold.Protein.RotatedAtoms>
  152.5185  134.3564  159.9268 H   0  0  0  0  0  0  0  0  0  0  0  0  # atno 6907 bound_to 6896
  151.3515  133.3917  159.2688 H   0  0  0  0  0  0  0  0  0  0  0  0  # atno 6908 bound_to 6896
  150.9723  134.9112  159.7853 H   0  0  0  0  0  0  0  0  0  0  0  0  # atno 6909 bound_to 6896
  145.5809  140.9448  143.1344 H   0  0  0  0  0  0  0  0  0  0  0  0  # atno 7974 bound_to 7965
  154.4106  140.1224  156.4989 H   0  0  0  0  0  0  0  0  0  0  0  0  # atno 8008 bound_to 7997
  155.6915  140.3495  155.4876 H   0  0  0  0  0  0  0  0  0  0  0  0  # atno 8009 bound_to 7997
  155.9464  140.1096  157.1003 H   0  0  0  0  0  0  0  0  0  0  0  0  # atno 8010 bound_to 7997
  139.7896  143.7985  152.2648 H   0  0  0  0  0  0  0  0  0  0  0  0  # atno 10167 bound_to 10162
  157.2565  131.0789  151.1695 H   0  0  0  0  0  0  0  0  0  0  0  0  # atno 10718 bound_to 10713
  154.4329  135.2760  155.1900 H   0  0  0  0  0  0  0  0  0  0  0  0  # atno 10763 bound_to 10752
  154.3798  135.6090  153.5788 H   0  0  0  0  0  0  0  0  0  0  0  0  # atno 10764 bound_to 10752
  152.9837  135.5877  154.4644 H   0  0  0  0  0  0  0  0  0  0  0  0  # atno 10765 bound_to 10752
  140.0059  134.9459  157.0173 H   0  0  0  0  0  0  0  0  0  0  0  0  # atno 11005 bound_to 11000
  144.7394  139.7491  143.7316 LP  0  0  0  0  0  0  0  0  0  0  0  0  # atno 17320 bound_to 7965
  146.1717  139.4870  142.9923 LP  0  0  0  0  0  0  0  0  0  0  0  0  # atno 17321 bound_to 7965
  139.8072  144.7350  150.9746 LP  0  0  0  0  0  0  0  0  0  0  0  0  # atno 17342 bound_to 10162
  140.7820  143.4286  151.0729 LP  0  0  0  0  0  0  0  0  0  0  0  0  # atno 17343 bound_to 10162
  157.3222  130.6943  149.6276 LP  0  0  0  0  0  0  0  0  0  0  0  0  # atno 17370 bound_to 10713
  155.9665  130.4332  150.4996 LP  0  0  0  0  0  0  0  0  0  0  0  0  # atno 17371 bound_to 10713
  140.4643  134.1452  155.7195 LP  0  0  0  0  0  0  0  0  0  0  0  0  # atno 17394 bound_to 11000
  141.1676  133.8672  157.1668 LP  0  0  0  0  0  0  0  0  0  0  0  0  # atno 17395 bound_to 11000

$$$$
