AV-unprocessed.smi:3173|AV-procd|sdf|12120|dock8
  -GOLD-   2272017563D 1   1.00000     0.00000
 Structure written by MMmdl.
 36 37  0  0  0  0  0  0  0  0  2 V2000
  152.8889  139.8590  157.4963 O   0  0  0  0  0  0  0  0  0  0  0  0
  151.7205  140.2285  157.6174 C   0  0  0  0  0  0  0  0  0  0  0  0
  151.3671  141.4042  158.5351 C   0  0  0  0  0  0  0  0  0  0  0  0
  152.6001  142.1011  159.1474 C   0  0  1  0  0  0  0  0  0  0  0  0
  152.2222  143.2973  159.9824 C   0  0  0  0  0  0  0  0  0  0  0  0
  152.7681  143.2720  161.1964 C   0  0  0  0  0  0  0  0  0  0  0  0
  153.6196  142.0533  161.4191 C   0  0  0  0  0  0  0  0  0  0  0  0
  153.4145  141.2211  160.1338 C   0  0  0  0  0  0  0  0  0  0  0  0
  150.6974  139.6504  156.9695 N   0  0  0  0  0  0  0  0  0  0  0  0
  150.8183  138.5152  156.0619 C   0  0  0  0  0  0  0  0  0  0  0  0
  150.7945  138.9593  154.5894 C   0  0  0  0  0  0  0  0  0  0  0  0
  149.4294  139.4649  154.1650 C   0  0  0  0  0  0  0  0  0  0  0  0
  148.9536  140.7402  154.5393 C   0  0  0  0  0  0  0  0  0  0  0  0
  147.6771  141.1543  154.1048 C   0  0  0  0  0  0  0  0  0  0  0  0
  146.9045  140.2859  153.3063 C   0  0  0  0  0  0  0  0  0  0  0  0
  147.4296  139.0239  152.9605 C   0  0  0  0  0  0  0  0  0  0  0  0
  148.6572  138.6638  153.3955 N   0  3  0  0  0  0  0  0  0  0  0  0
  150.7923  142.1227  157.9499 H   0  0  0  0  0  0  0  0  0  0  0  0
  150.7076  141.0588  159.3331 H   0  0  0  0  0  0  0  0  0  0  0  0
  153.2533  142.4653  158.3527 H   0  0  0  0  0  0  0  0  0  0  0  0
  151.5875  144.0856  159.6044 H   0  0  0  0  0  0  0  0  0  0  0  0
  152.6431  144.0338  161.9518 H   0  0  0  0  0  0  0  0  0  0  0  0
  154.6615  142.3484  161.5474 H   0  0  0  0  0  0  0  0  0  0  0  0
  153.2962  141.5128  162.3092 H   0  0  0  0  0  0  0  0  0  0  0  0
  152.8688  140.3094  160.3809 H   0  0  0  0  0  0  0  0  0  0  0  0
  154.3666  140.9143  159.6996 H   0  0  0  0  0  0  0  0  0  0  0  0
  149.7693  140.0172  157.1254 H   0  0  0  0  0  0  0  0  0  0  0  0
  151.7344  137.9630  156.2793 H   0  0  0  0  0  0  0  0  0  0  0  0
  149.9907  137.8336  156.2602 H   0  0  0  0  0  0  0  0  0  0  0  0
  151.5318  139.7460  154.4236 H   0  0  0  0  0  0  0  0  0  0  0  0
  151.0786  138.1308  153.9390 H   0  0  0  0  0  0  0  0  0  0  0  0
  149.5587  141.3950  155.1497 H   0  0  0  0  0  0  0  0  0  0  0  0
  147.2954  142.1265  154.3806 H   0  0  0  0  0  0  0  0  0  0  0  0
  145.9244  140.5843  152.9634 H   0  0  0  0  0  0  0  0  0  0  0  0
  146.9090  138.2978  152.3535 H   0  0  0  0  0  0  0  0  0  0  0  0
  149.0169  137.7460  153.1322 H   0  0  0  0  0  0  0  0  0  0  0  0
  1  2  2  0  0  0  0
  2  3  1  0  0  0  0
  2  9  1  0  0  0  0
  3  4  1  0  0  0  0
  3 18  1  0  0  0  0
  3 19  1  0  0  0  0
  4  8  1  0  0  0  0
  4  5  1  0  0  0  0
  4 20  1  0  0  0  0
  5  6  2  0  0  0  0
  5 21  1  0  0  0  0
  6  7  1  0  0  0  0
  6 22  1  0  0  0  0
  7  8  1  0  0  0  0
  7 23  1  0  0  0  0
  7 24  1  0  0  0  0
  8 25  1  0  0  0  0
  8 26  1  0  0  0  0
  9 10  1  0  0  0  0
  9 27  1  0  0  0  0
 10 11  1  0  0  0  0
 10 28  1  0  0  0  0
 10 29  1  0  0  0  0
 11 12  1  0  0  0  0
 11 30  1  0  0  0  0
 11 31  1  0  0  0  0
 12 17  1  0  0  0  0
 12 13  2  0  0  0  0
 13 14  1  0  0  0  0
 13 32  1  0  0  0  0
 14 15  2  0  0  0  0
 14 33  1  0  0  0  0
 15 16  1  0  0  0  0
 15 34  1  0  0  0  0
 16 17  2  0  0  0  0
 16 35  1  0  0  0  0
 17 36  1  0  0  0  0
M  CHG  1  17   1
M  END
> <s_m_source_file>
AV-unprocessed.smi

> <i_m_source_file_index>
3173

> <i_lp_mmshare_version>
43012

> <i_f3d_flags>
0

> <s_epik_input>
W0NIMl0xW0NIMl1bQ0hdPVtDSF1bQ0BIXTFbQ0gyXUMoPU8pW05IXVtDSDJdW0NIMl1jMltjSF1bY0hdW2NIXVtjSF1uMg==

> <s_epik_cmdline>
J2VwaWtfcHl0aG9uJywgJy1waCcsICc3LjAnLCAnLXRuJywgJzgnLCAnLW1hJywgJzIwMCcsICctbWV0YWxfYmluZGluZycsICctaW1hZScsICc8aW5maWxlLm1hZT4nLCAnLW9tYWUnLCAnPG91dGZpbGUubWFlPic=

> <r_epik_Ionization_Penalty>
1.86798

> <r_epik_Ionization_Penalty_Charging>
1.86798

> <r_epik_Ionization_Penalty_Neutral>
1.53848e-08

> <r_epik_State_Penalty>
1.98677

> <r_epik_Charging_Adjusted_Penalty>
3.85475

> <i_epik_Tot_Q>
1

> <i_epik_Tot_abs_Q>
1

> <r_epik_Metal_State_Penalty>
2.01174

> <b_epik_Metal_Only>
0

> <s_lp_Force_Field>
OPLS_2005

> <r_lp_Energy>
20.3145

> <b_lp_Chiralities_Consistent>
1

> <s_lp_Variant>
AV-unprocessed.smi:3173-4

> <Gold.Version>
5.8.1

> <Gold.Id.Protein>
6NUR|6NUR_protein|mol2

> <Gold.PLP.Fitness>
48.2212

> <Gold.PLP.PLP>
-39.9839

> <Gold.PLP.part.hbond>
-3.0000

> <Gold.PLP.part.metal>
0.0000

> <Gold.PLP.part.buried>
-0.0329

> <Gold.PLP.part.nonpolar>
-37.0587

> <Gold.PLP.part.repulsive>
0.0994

> <Gold.PLP.ligand.clash>
0.0000

> <Gold.PLP.ligand.torsion>
0.4009

> <Gold.PLP.Chemscore.Hbond>
3.0000

> <Gold.PLP.Chemscore.CHOScore>
0.0000

> <Gold.PLP.Chemscore.Metal>
0.0000

> <Gold.Chemscore.Hbonds>
donor molecule, donor type, donor heavy atom, donor atom, acceptor molecule, acceptor atom, score
      L1  H    17    36       P1  7948  1.92
      P1  H  7997  8009       L1     1  1.00

> <Gold.PLP.Chemscore.Internal.Correction>
0.0391

> <Gold.Rescore>
     Score         DG    S(hbond)    S(metal)    S(lipo)     H(rot)  DE(clash)    DE(int)     intcor
     19.99     -20.50       1.93        0.00     108.63       1.61       0.11       0.41       ----

> <Gold.Chemscore.Fitness>
19.9852

> <Gold.Chemscore.DG>
-20.5029

> <Gold.Chemscore.ZeroCoef>
-5.4800

> <Gold.Chemscore.Hbond>
1.9284

> <Gold.Chemscore.Metal>
0.0000

> <Gold.Chemscore.Lipo>
108.6262

> <Gold.Chemscore.Internal_Hbond>
0.0000

> <Gold.Chemscore.DEClash>
0.1105

> <Gold.Chemscore.DEInternal>
0.4072

> <Gold.Chemscore.Rot>
1.6122

> <Gold.Chemscore.Internal.Correction>
   9.000000E+99

> <Gold.Chemscore.Hbonds>
donor molecule, donor type, donor heavy atom, donor atom, acceptor molecule, acceptor atom, score
      L1  H    17    36       P1  7948  0.91
      P1  H  7997  8009       L1     1  1.00

> <Gold.Chemscore.Hbond.Weighted>
-6.4407

> <Gold.Chemscore.Metal.Weighted>
-0.0000

> <Gold.Chemscore.Lipo.Weighted>
-12.7093

> <Gold.Chemscore.Internal_Hbond.Weighted>
0.0000

> <Gold.Chemscore.DEClash.Weighted>
0.1105

> <Gold.Chemscore.DEInternal.Weighted>
0.4072

> <Gold.Chemscore.Rot.Weighted>
4.1271

> <Gold.Chemscore.Internal.Correction.Weighted>
   9.000000E+99

> <Gold.Protein.RotatedTorsions>
[ 6907 6896 6895 6894 ] final   71.24 input  -60.11 | X-H torsion
[ 7974 7965 7964 7962 ] final -103.17 input  175.53 | X-H torsion
[ 8008 7997 7996 7995 ] final  168.11 input   59.86 | X-H torsion
[ 10167 10162 10161 10158 ] final  116.50 input  -65.29 | X-H torsion
[ 10718 10713 10712 10709 ] final  131.29 input   66.30 | X-H torsion
[ 10763 10752 10751 10750 ] final  162.70 input  -60.55 | X-H torsion
[ 11005 11000 10999 10996 ] final  175.20 input  -57.11 | X-H torsion

> <Gold.Protein.ActiveResidues>
 VAL166  LYS551  ARG553  GLY616  TRP617  ASP618  TYR619  PRO620  LYS621  CYS622 
 ASP623  PHE694  ASN695  SER759  ASP760  ASP761  ALA762  ILE779  LEU786  VAL792 
 PHE793  MET794  SER795  GLU796  ALA797  LYS798  CYS799  TRP800  GLU811  SER814 

> <Gold.Protein.RotatedAtoms>
  152.4798  134.4749  159.9647 H   0  0  0  0  0  0  0  0  0  0  0  0  # atno 6907 bound_to 6896
  151.4758  133.3552  159.2838 H   0  0  0  0  0  0  0  0  0  0  0  0  # atno 6908 bound_to 6896
  150.8862  134.8286  159.7322 H   0  0  0  0  0  0  0  0  0  0  0  0  # atno 6909 bound_to 6896
  145.2593  140.9264  143.3050 H   0  0  0  0  0  0  0  0  0  0  0  0  # atno 7974 bound_to 7965
  156.1575  140.1599  156.8668 H   0  0  0  0  0  0  0  0  0  0  0  0  # atno 8008 bound_to 7997
  154.5129  140.0796  156.8060 H   0  0  0  0  0  0  0  0  0  0  0  0  # atno 8009 bound_to 7997
  155.3774  140.3403  155.4247 H   0  0  0  0  0  0  0  0  0  0  0  0  # atno 8010 bound_to 7997
  139.6243  144.7106  151.2568 H   0  0  0  0  0  0  0  0  0  0  0  0  # atno 10167 bound_to 10162
  157.4982  131.1093  150.9464 H   0  0  0  0  0  0  0  0  0  0  0  0  # atno 10718 bound_to 10713
  154.2823  135.2763  155.2691 H   0  0  0  0  0  0  0  0  0  0  0  0  # atno 10763 bound_to 10752
  154.5207  135.5757  153.6682 H   0  0  0  0  0  0  0  0  0  0  0  0  # atno 10764 bound_to 10752
  152.9927  135.6203  154.2983 H   0  0  0  0  0  0  0  0  0  0  0  0  # atno 10765 bound_to 10752
  140.3596  134.7124  157.4323 H   0  0  0  0  0  0  0  0  0  0  0  0  # atno 11005 bound_to 11000
  144.9432  139.4165  143.6438 LP  0  0  0  0  0  0  0  0  0  0  0  0  # atno 17320 bound_to 7965
  146.3280  139.8403  142.8892 LP  0  0  0  0  0  0  0  0  0  0  0  0  # atno 17321 bound_to 7965
  140.7401  143.6598  150.8174 LP  0  0  0  0  0  0  0  0  0  0  0  0  # atno 17342 bound_to 10162
  140.0213  143.5539  152.2799 LP  0  0  0  0  0  0  0  0  0  0  0  0  # atno 17343 bound_to 10162
  157.0144  130.5649  149.5324 LP  0  0  0  0  0  0  0  0  0  0  0  0  # atno 17370 bound_to 10713
  156.0213  130.5308  150.8283 LP  0  0  0  0  0  0  0  0  0  0  0  0  # atno 17371 bound_to 10713
  140.0637  134.5960  155.8720 LP  0  0  0  0  0  0  0  0  0  0  0  0  # atno 17394 bound_to 11000
  141.1988  133.6603  156.5810 LP  0  0  0  0  0  0  0  0  0  0  0  0  # atno 17395 bound_to 11000

$$$$
