AV-unprocessed.smi:2489|AV-procd|sdf|9805|dock2
  -GOLD-   2272013433D 1   1.00000     0.00000
 Structure written by MMmdl.
 34 35  0  0  0  0  0  0  0  0  2 V2000
  153.6645  140.7495  160.1639 C   0  0  0  0  0  0  0  0  0  0  0  0
  153.6874  142.1672  160.0816 O   0  0  0  0  0  0  0  0  0  0  0  0
  152.7719  142.7838  159.2563 C   0  0  0  0  0  0  0  0  0  0  0  0
  152.8268  144.1902  159.1668 C   0  0  0  0  0  0  0  0  0  0  0  0
  151.9256  144.8714  158.3274 C   0  0  0  0  0  0  0  0  0  0  0  0
  151.0108  144.1761  157.6197 N   0  3  0  0  0  0  0  0  0  0  0  0
  150.8931  142.8304  157.6743 C   0  0  0  0  0  0  0  0  0  0  0  0
  149.8955  142.2304  156.8614 N   0  0  0  0  0  0  0  0  0  0  0  0
  149.5204  140.9377  156.8215 C   0  0  0  0  0  0  0  0  0  0  0  0
  149.9709  140.0665  157.5658 O   0  0  0  0  0  0  0  0  0  0  0  0
  148.4211  140.5766  155.8100 C   0  0  2  0  0  0  0  0  0  0  0  0
  148.8145  140.8067  154.3378 C   0  0  0  0  0  0  0  0  0  0  0  0
  147.9186  141.9484  153.9003 C   0  0  0  0  0  0  0  0  0  0  0  0
  146.6954  141.7494  154.7867 C   0  0  2  0  0  0  0  0  0  0  0  0
  145.8178  142.9967  154.9327 C   0  0  0  0  0  0  0  0  0  0  0  0
  147.2708  141.3954  156.0344 O   0  0  0  0  0  0  0  0  0  0  0  0
  151.7906  142.0991  158.4927 C   0  0  0  0  0  0  0  0  0  0  0  0
  154.4433  140.4164  160.8499 H   0  0  0  0  0  0  0  0  0  0  0  0
  153.8616  140.2903  159.1944 H   0  0  0  0  0  0  0  0  0  0  0  0
  152.7100  140.3875  160.5481 H   0  0  0  0  0  0  0  0  0  0  0  0
  153.5617  144.7427  159.7345 H   0  0  0  0  0  0  0  0  0  0  0  0
  151.9097  145.9442  158.2011 H   0  0  0  0  0  0  0  0  0  0  0  0
  149.3649  142.8606  156.2772 H   0  0  0  0  0  0  0  0  0  0  0  0
  148.1430  139.5323  155.9576 H   0  0  0  0  0  0  0  0  0  0  0  0
  149.8677  141.0421  154.1800 H   0  0  0  0  0  0  0  0  0  0  0  0
  148.5906  139.9125  153.7545 H   0  0  0  0  0  0  0  0  0  0  0  0
  148.3993  142.9021  154.1221 H   0  0  0  0  0  0  0  0  0  0  0  0
  147.6836  141.9232  152.8360 H   0  0  0  0  0  0  0  0  0  0  0  0
  146.1021  140.9093  154.4215 H   0  0  0  0  0  0  0  0  0  0  0  0
  145.4052  143.2991  153.9700 H   0  0  0  0  0  0  0  0  0  0  0  0
  146.3870  143.8362  155.3323 H   0  0  0  0  0  0  0  0  0  0  0  0
  144.9832  142.8082  155.6081 H   0  0  0  0  0  0  0  0  0  0  0  0
  151.7320  141.0226  158.5194 H   0  0  0  0  0  0  0  0  0  0  0  0
  150.3717  144.6972  157.0187 H   0  0  0  0  0  0  0  0  0  0  0  0
  1  2  1  0  0  0  0
  1 18  1  0  0  0  0
  1 19  1  0  0  0  0
  1 20  1  0  0  0  0
  2  3  1  0  0  0  0
  3 17  1  0  0  0  0
  3  4  2  0  0  0  0
  4  5  1  0  0  0  0
  4 21  1  0  0  0  0
  5  6  2  0  0  0  0
  5 22  1  0  0  0  0
  6  7  1  0  0  0  0
  6 34  1  0  0  0  0
  7  8  1  0  0  0  0
  7 17  2  0  0  0  0
  8  9  1  0  0  0  0
  8 23  1  0  0  0  0
  9 10  2  0  0  0  0
  9 11  1  0  0  0  0
 11 16  1  0  0  0  0
 11 12  1  0  0  0  0
 11 24  1  0  0  0  0
 12 13  1  0  0  0  0
 12 25  1  0  0  0  0
 12 26  1  0  0  0  0
 13 14  1  0  0  0  0
 13 27  1  0  0  0  0
 13 28  1  0  0  0  0
 14 15  1  0  0  0  0
 14 16  1  0  0  0  0
 14 29  1  0  0  0  0
 15 30  1  0  0  0  0
 15 31  1  0  0  0  0
 15 32  1  0  0  0  0
 17 33  1  0  0  0  0
M  CHG  1   6   1
M  END
> <s_m_source_file>
AV-unprocessed.smi

> <i_m_source_file_index>
2489

> <i_lp_mmshare_version>
43012

> <i_f3d_flags>
0

> <s_epik_input>
W0NIM11PYzFbY0hdW2NIXW5jKFtjSF0xKVtOSF1DKD1PKVtDQEBIXTJbQ0gyXVtDSDJdW0NASF0oTzIpW0NIM10=

> <s_epik_cmdline>
J2VwaWtfcHl0aG9uJywgJy1waCcsICc3LjAnLCAnLXRuJywgJzgnLCAnLW1hJywgJzIwMCcsICctbWV0YWxfYmluZGluZycsICctaW1hZScsICc8aW5maWxlLm1hZT4nLCAnLW9tYWUnLCAnPG91dGZpbGUubWFlPic=

> <r_epik_Ionization_Penalty>
1.58956

> <r_epik_Ionization_Penalty_Charging>
1.1784

> <r_epik_Ionization_Penalty_Neutral>
0.411158

> <r_epik_State_Penalty>
1.31089

> <r_epik_Charging_Adjusted_Penalty>
2.48928

> <i_epik_Tot_Q>
1

> <i_epik_Tot_abs_Q>
1

> <r_epik_Metal_State_Penalty>
5.00213

> <b_epik_Metal_Only>
0

> <s_lp_Force_Field>
OPLS_2005

> <r_lp_Energy>
31.9404

> <b_lp_Chiralities_Consistent>
1

> <s_lp_Variant>
AV-unprocessed.smi:2489-11

> <Gold.Version>
5.8.1

> <Gold.Id.Protein>
6NUR|6NUR_protein|mol2

> <Gold.PLP.Fitness>
44.4548

> <Gold.PLP.PLP>
-35.5037

> <Gold.PLP.part.hbond>
-2.0000

> <Gold.PLP.part.metal>
0.0000

> <Gold.PLP.part.buried>
-5.4343

> <Gold.PLP.part.nonpolar>
-28.0415

> <Gold.PLP.part.repulsive>
0.1353

> <Gold.PLP.ligand.clash>
0.0000

> <Gold.PLP.ligand.torsion>
0.0309

> <Gold.PLP.Chemscore.Hbond>
3.0000

> <Gold.PLP.Chemscore.CHOScore>
0.0000

> <Gold.PLP.Chemscore.Metal>
0.0000

> <Gold.Chemscore.Hbonds>
donor molecule, donor type, donor heavy atom, donor atom, acceptor molecule, acceptor atom, score
      L1  H     6    34       P1  8028  2.00
      L1  H     8    23       P1  8028  1.00

> <Gold.PLP.Chemscore.Internal.Correction>
0.0129

> <Gold.Rescore>
     Score         DG    S(hbond)    S(metal)    S(lipo)     H(rot)  DE(clash)    DE(int)     intcor
     16.91     -18.39       1.79        0.00      86.42       1.24       0.14       1.34       ----

> <Gold.Chemscore.Fitness>
16.9083

> <Gold.Chemscore.DG>
-18.3894

> <Gold.Chemscore.ZeroCoef>
-5.4800

> <Gold.Chemscore.Hbond>
1.7888

> <Gold.Chemscore.Metal>
0.0000

> <Gold.Chemscore.Lipo>
86.4241

> <Gold.Chemscore.Internal_Hbond>
0.0000

> <Gold.Chemscore.DEClash>
0.1442

> <Gold.Chemscore.DEInternal>
1.3369

> <Gold.Chemscore.Rot>
1.2409

> <Gold.Chemscore.Internal.Correction>
   9.000000E+99

> <Gold.Chemscore.Hbonds>
donor molecule, donor type, donor heavy atom, donor atom, acceptor molecule, acceptor atom, score
      L1  H     6    34       P1  8028  0.57
      L1  H     8    23       P1  8028  0.90

> <Gold.Chemscore.Hbond.Weighted>
-5.9744

> <Gold.Chemscore.Metal.Weighted>
-0.0000

> <Gold.Chemscore.Lipo.Weighted>
-10.1116

> <Gold.Chemscore.Internal_Hbond.Weighted>
0.0000

> <Gold.Chemscore.DEClash.Weighted>
0.1442

> <Gold.Chemscore.DEInternal.Weighted>
1.3369

> <Gold.Chemscore.Rot.Weighted>
3.1767

> <Gold.Chemscore.Internal.Correction.Weighted>
   9.000000E+99

> <Gold.Protein.RotatedTorsions>
[ 6907 6896 6895 6894 ] final    4.76 input  -60.11 | X-H torsion
[ 7974 7965 7964 7962 ] final   85.14 input  175.53 | X-H torsion
[ 8008 7997 7996 7995 ] final   23.07 input   59.86 | X-H torsion
[ 10167 10162 10161 10158 ] final   55.06 input  -65.29 | X-H torsion
[ 10718 10713 10712 10709 ] final -177.64 input   66.30 | X-H torsion
[ 10763 10752 10751 10750 ] final  136.07 input  -60.55 | X-H torsion
[ 11005 11000 10999 10996 ] final   58.46 input  -57.11 | X-H torsion

> <Gold.Protein.ActiveResidues>
 VAL166  LYS551  ARG553  GLY616  TRP617  ASP618  TYR619  PRO620  LYS621  CYS622 
 ASP623  PHE694  ASN695  SER759  ASP760  ASP761  ALA762  ILE779  LEU786  VAL792 
 PHE793  MET794  SER795  GLU796  ALA797  LYS798  CYS799  TRP800  GLU811  SER814 

> <Gold.Protein.RotatedAtoms>
  151.6465  135.1006  160.0151 H   0  0  0  0  0  0  0  0  0  0  0  0  # atno 6907 bound_to 6896
  152.4025  133.6835  159.6337 H   0  0  0  0  0  0  0  0  0  0  0  0  # atno 6908 bound_to 6896
  150.7923  133.8683  159.3292 H   0  0  0  0  0  0  0  0  0  0  0  0  # atno 6909 bound_to 6896
  145.5894  139.2336  143.2308 H   0  0  0  0  0  0  0  0  0  0  0  0  # atno 7974 bound_to 7965
  154.9753  140.3095  155.4970 H   0  0  0  0  0  0  0  0  0  0  0  0  # atno 8008 bound_to 7997
  156.2960  140.2276  156.4788 H   0  0  0  0  0  0  0  0  0  0  0  0  # atno 8009 bound_to 7997
  154.7839  140.0444  157.1136 H   0  0  0  0  0  0  0  0  0  0  0  0  # atno 8010 bound_to 7997
  140.2235  144.3763  150.6441 H   0  0  0  0  0  0  0  0  0  0  0  0  # atno 10167 bound_to 10162
  156.8324  130.9658  151.3105 H   0  0  0  0  0  0  0  0  0  0  0  0  # atno 10718 bound_to 10713
  153.8505  135.3080  155.3432 H   0  0  0  0  0  0  0  0  0  0  0  0  # atno 10763 bound_to 10752
  154.7893  135.4792  154.0020 H   0  0  0  0  0  0  0  0  0  0  0  0  # atno 10764 bound_to 10752
  153.1521  135.6845  153.8960 H   0  0  0  0  0  0  0  0  0  0  0  0  # atno 10765 bound_to 10752
  140.0376  134.5920  155.9424 H   0  0  0  0  0  0  0  0  0  0  0  0  # atno 11005 bound_to 11000
  146.1658  140.6721  142.9256 LP  0  0  0  0  0  0  0  0  0  0  0  0  # atno 17320 bound_to 7965
  144.7358  140.4803  143.6905 LP  0  0  0  0  0  0  0  0  0  0  0  0  # atno 17321 bound_to 7965
  140.6238  143.2179  151.6640 LP  0  0  0  0  0  0  0  0  0  0  0  0  # atno 17342 bound_to 10162
  139.5135  144.3439  152.0714 LP  0  0  0  0  0  0  0  0  0  0  0  0  # atno 17343 bound_to 10162
  157.6399  130.8797  149.9429 LP  0  0  0  0  0  0  0  0  0  0  0  0  # atno 17370 bound_to 10713
  156.0926  130.3662  150.0365 LP  0  0  0  0  0  0  0  0  0  0  0  0  # atno 17371 bound_to 10713
  141.1866  133.6557  156.5245 LP  0  0  0  0  0  0  0  0  0  0  0  0  # atno 17394 bound_to 11000
  140.4122  134.7262  157.4842 LP  0  0  0  0  0  0  0  0  0  0  0  0  # atno 17395 bound_to 11000

$$$$
