AV-unprocessed.smi:47|AV-procd|sdf|445|dock2
  -GOLD-   2262016313D 1   1.00000     0.00000
 Structure written by MMmdl.
 30 32  0  0  0  0  0  0  0  0  2 V2000
  145.8704  140.1211  154.4083 O   0  0  0  0  0  0  0  0  0  0  0  0
  147.1888  140.0252  153.9121 C   0  0  1  0  0  0  0  0  0  0  0  0
  147.7692  141.3842  153.5319 C   0  0  0  0  0  0  0  0  0  0  0  0
  149.2206  141.2251  153.5865 N   0  0  0  0  0  0  0  0  0  0  0  0
  149.5219  140.0401  154.3993 C   0  0  1  0  0  0  0  0  0  0  0  0
  150.5433  140.2882  155.4936 C   0  0  0  0  0  0  0  0  0  0  0  0
  151.7044  139.6175  155.6386 N   0  0  0  0  0  0  0  0  0  0  0  0
  152.3181  140.1640  156.6713 N   0  5  0  0  0  0  0  0  0  0  0  0
  151.5388  141.1548  157.1306 C   0  0  0  0  0  0  0  0  0  0  0  0
  151.9271  141.9943  158.2828 C   0  0  0  0  0  0  0  0  0  0  0  0
  151.5137  143.3447  158.3567 C   0  0  0  0  0  0  0  0  0  0  0  0
  151.8796  144.1587  159.4466 C   0  0  0  0  0  0  0  0  0  0  0  0
  152.6694  143.6319  160.4846 C   0  0  0  0  0  0  0  0  0  0  0  0
  153.0897  142.2906  160.4283 C   0  0  0  0  0  0  0  0  0  0  0  0
  152.7198  141.4807  159.3368 C   0  0  0  0  0  0  0  0  0  0  0  0
  150.4284  141.2583  156.4138 N   0  0  0  0  0  0  0  0  0  0  0  0
  148.1834  139.5370  154.9545 C   0  0  0  0  0  0  0  0  0  0  0  0
  147.2025  139.3598  153.0477 H   0  0  0  0  0  0  0  0  0  0  0  0
  149.9258  139.2710  153.7399 H   0  0  0  0  0  0  0  0  0  0  0  0
  145.2833  140.2383  153.6771 H   0  0  0  0  0  0  0  0  0  0  0  0
  147.4325  141.7261  152.5532 H   0  0  0  0  0  0  0  0  0  0  0  0
  147.4639  142.1315  154.2658 H   0  0  0  0  0  0  0  0  0  0  0  0
  149.5651  141.0618  152.6463 H   0  0  0  0  0  0  0  0  0  0  0  0
  150.9079  143.7681  157.5692 H   0  0  0  0  0  0  0  0  0  0  0  0
  151.5541  145.1878  159.4838 H   0  0  0  0  0  0  0  0  0  0  0  0
  152.9521  144.2543  161.3206 H   0  0  0  0  0  0  0  0  0  0  0  0
  153.6973  141.8811  161.2219 H   0  0  0  0  0  0  0  0  0  0  0  0
  153.0551  140.4543  159.3144 H   0  0  0  0  0  0  0  0  0  0  0  0
  147.9728  140.0179  155.9119 H   0  0  0  0  0  0  0  0  0  0  0  0
  148.1634  138.4578  155.1094 H   0  0  0  0  0  0  0  0  0  0  0  0
  1  2  1  0  0  0  0
  1 20  1  0  0  0  0
  2 18  1  0  0  0  0
  2 17  1  0  0  0  0
  2  3  1  0  0  0  0
  3  4  1  0  0  0  0
  3 21  1  0  0  0  0
  3 22  1  0  0  0  0
  4  5  1  0  0  0  0
  4 23  1  0  0  0  0
  5 19  1  0  0  0  0
  5  6  1  0  0  0  0
  5 17  1  0  0  0  0
  6 16  1  0  0  0  0
  6  7  2  0  0  0  0
  7  8  1  0  0  0  0
  8  9  1  0  0  0  0
  9 10  1  0  0  0  0
  9 16  2  0  0  0  0
 10 15  1  0  0  0  0
 10 11  2  0  0  0  0
 11 12  1  0  0  0  0
 11 24  1  0  0  0  0
 12 13  2  0  0  0  0
 12 25  1  0  0  0  0
 13 14  1  0  0  0  0
 13 26  1  0  0  0  0
 14 15  2  0  0  0  0
 14 27  1  0  0  0  0
 15 28  1  0  0  0  0
 17 29  1  0  0  0  0
 17 30  1  0  0  0  0
M  CHG  1   8  -1
M  END
> <s_m_source_file>
AV-unprocessed.smi

> <i_m_source_file_index>
47

> <i_lp_mmshare_version>
43012

> <i_f3d_flags>
0

> <s_epik_input>
W09IXVtDQEhdMVtDSDJdW05IXVtDQEBIXShbQ0gyXTEpYzJuW25IXWMobjIpLWMzW2NIXVtjSF1bY0hdW2NIXVtjSF0z

> <s_epik_cmdline>
J2VwaWtfcHl0aG9uJywgJy1waCcsICc3LjAnLCAnLXRuJywgJzgnLCAnLW1hJywgJzIwMCcsICctbWV0YWxfYmluZGluZycsICctaW1hZScsICc8aW5maWxlLm1hZT4nLCAnLW9tYWUnLCAnPG91dGZpbGUubWFlPic=

> <r_epik_Ionization_Penalty>
16.1968

> <r_epik_Ionization_Penalty_Charging>
13.1522

> <r_epik_Ionization_Penalty_Neutral>
3.04463

> <r_epik_State_Penalty>
6.32428

> <r_epik_Charging_Adjusted_Penalty>
19.4764

> <i_epik_Tot_Q>
-1

> <i_epik_Tot_abs_Q>
1

> <r_epik_Metal_State_Penalty>
2.82187

> <b_epik_Metal_Only>
1

> <s_lp_Force_Field>
OPLS_2005

> <r_lp_Energy>
30.8256

> <b_lp_Chiralities_Consistent>
1

> <s_lp_Variant>
AV-unprocessed.smi:47-23

> <Gold.Version>
5.8.1

> <Gold.Id.Protein>
6NUR|6NUR_protein|mol2

> <Gold.PLP.Fitness>
47.6857

> <Gold.PLP.PLP>
-36.5844

> <Gold.PLP.part.hbond>
-5.0000

> <Gold.PLP.part.metal>
0.0000

> <Gold.PLP.part.buried>
-4.5044

> <Gold.PLP.part.nonpolar>
-26.3822

> <Gold.PLP.part.repulsive>
0.0592

> <Gold.PLP.ligand.clash>
0.0000

> <Gold.PLP.ligand.torsion>
0.4557

> <Gold.PLP.Chemscore.Hbond>
4.0000

> <Gold.PLP.Chemscore.CHOScore>
0.0000

> <Gold.PLP.Chemscore.Metal>
0.0000

> <Gold.Chemscore.Hbonds>
donor molecule, donor type, donor heavy atom, donor atom, acceptor molecule, acceptor atom, score
      L1  H     1    20       P1 10175  1.00
      L1  H     4    23       P1  7957  1.00
      P1  H  7997  8009       L1     8  2.00

> <Gold.PLP.Chemscore.Internal.Correction>
0.0127

> <Gold.Rescore>
     Score         DG    S(hbond)    S(metal)    S(lipo)     H(rot)  DE(clash)    DE(int)     intcor
     21.39     -21.72       2.84        0.00      89.58       1.46       0.09       0.24       ----

> <Gold.Chemscore.Fitness>
21.3889

> <Gold.Chemscore.DG>
-21.7170

> <Gold.Chemscore.ZeroCoef>
-5.4800

> <Gold.Chemscore.Hbond>
2.8440

> <Gold.Chemscore.Metal>
0.0000

> <Gold.Chemscore.Lipo>
89.5787

> <Gold.Chemscore.Internal_Hbond>
0.0000

> <Gold.Chemscore.DEClash>
0.0880

> <Gold.Chemscore.DEInternal>
0.2401

> <Gold.Chemscore.Rot>
1.4621

> <Gold.Chemscore.Internal.Correction>
   9.000000E+99

> <Gold.Chemscore.Hbonds>
donor molecule, donor type, donor heavy atom, donor atom, acceptor molecule, acceptor atom, score
      L1  H     1    20       P1 10175  0.94
      L1  H     4    23       P1  7957  0.95
      P1  H  7997  8009       L1     8  0.68

> <Gold.Chemscore.Hbond.Weighted>
-9.4991

> <Gold.Chemscore.Metal.Weighted>
-0.0000

> <Gold.Chemscore.Lipo.Weighted>
-10.4807

> <Gold.Chemscore.Internal_Hbond.Weighted>
0.0000

> <Gold.Chemscore.DEClash.Weighted>
0.0880

> <Gold.Chemscore.DEInternal.Weighted>
0.2401

> <Gold.Chemscore.Rot.Weighted>
3.7429

> <Gold.Chemscore.Internal.Correction.Weighted>
   9.000000E+99

> <Gold.Protein.RotatedTorsions>
[ 6907 6896 6895 6894 ] final   66.45 input  -60.11 | X-H torsion
[ 7974 7965 7964 7962 ] final -146.50 input  175.53 | X-H torsion
[ 8008 7997 7996 7995 ] final -165.14 input   59.86 | X-H torsion
[ 10167 10162 10161 10158 ] final  166.74 input  -65.29 | X-H torsion
[ 10718 10713 10712 10709 ] final  153.48 input   66.30 | X-H torsion
[ 10763 10752 10751 10750 ] final  -35.24 input  -60.55 | X-H torsion
[ 11005 11000 10999 10996 ] final  170.70 input  -57.11 | X-H torsion

> <Gold.Protein.ActiveResidues>
 VAL166  LYS551  ARG553  GLY616  TRP617  ASP618  TYR619  PRO620  LYS621  CYS622 
 ASP623  PHE694  ASN695  SER759  ASP760  ASP761  ALA762  ILE779  LEU786  VAL792 
 PHE793  MET794  SER795  GLU796  ALA797  LYS798  CYS799  TRP800  GLU811  SER814 

> <Gold.Protein.RotatedAtoms>
  152.4482  134.5450  159.9850 H   0  0  0  0  0  0  0  0  0  0  0  0  # atno 6907 bound_to 6896
  151.5530  133.3409  159.2964 H   0  0  0  0  0  0  0  0  0  0  0  0  # atno 6908 bound_to 6896
  150.8403  134.7725  159.6990 H   0  0  0  0  0  0  0  0  0  0  0  0  # atno 6909 bound_to 6896
  144.8155  140.5447  143.5614 H   0  0  0  0  0  0  0  0  0  0  0  0  # atno 7974 bound_to 7965
  155.8456  140.0955  157.1707 H   0  0  0  0  0  0  0  0  0  0  0  0  # atno 8008 bound_to 7997
  154.3983  140.1393  156.3843 H   0  0  0  0  0  0  0  0  0  0  0  0  # atno 8009 bound_to 7997
  155.8017  140.3452  155.5409 H   0  0  0  0  0  0  0  0  0  0  0  0  # atno 8010 bound_to 7997
  139.4931  144.3995  151.9425 H   0  0  0  0  0  0  0  0  0  0  0  0  # atno 10167 bound_to 10162
  157.2442  131.0765  151.1773 H   0  0  0  0  0  0  0  0  0  0  0  0  # atno 10718 bound_to 10713
  153.8600  135.6841  153.4784 H   0  0  0  0  0  0  0  0  0  0  0  0  # atno 10763 bound_to 10752
  153.1347  135.4683  154.9402 H   0  0  0  0  0  0  0  0  0  0  0  0  # atno 10764 bound_to 10752
  154.7763  135.3254  154.8034 H   0  0  0  0  0  0  0  0  0  0  0  0  # atno 10765 bound_to 10752
  140.3112  134.7515  157.3992 H   0  0  0  0  0  0  0  0  0  0  0  0  # atno 11005 bound_to 11000
  145.5225  139.1476  143.3544 LP  0  0  0  0  0  0  0  0  0  0  0  0  # atno 17320 bound_to 7965
  146.2458  140.5365  142.8914 LP  0  0  0  0  0  0  0  0  0  0  0  0  # atno 17321 bound_to 7965
  140.3434  144.3176  150.5963 LP  0  0  0  0  0  0  0  0  0  0  0  0  # atno 17342 bound_to 10162
  140.5546  143.2201  151.7869 LP  0  0  0  0  0  0  0  0  0  0  0  0  # atno 17343 bound_to 10162
  157.3347  130.7003  149.6345 LP  0  0  0  0  0  0  0  0  0  0  0  0  # atno 17370 bound_to 10713
  155.9669  130.4297  150.4845 LP  0  0  0  0  0  0  0  0  0  0  0  0  # atno 17371 bound_to 10713
  140.1023  134.5456  155.8341 LP  0  0  0  0  0  0  0  0  0  0  0  0  # atno 17394 bound_to 11000
  141.2108  133.6698  156.6533 LP  0  0  0  0  0  0  0  0  0  0  0  0  # atno 17395 bound_to 11000

$$$$
