AV-unprocessed.smi:1047|AV-procd|sdf|4589|dock2
  -GOLD-   22720 3 63D 1   1.00000     0.00000
 Structure written by MMmdl.
 57 59  0  0  0  0  0  0  0  0  3 V2000
  144.5630  134.1319  150.4267 C   0  0  0  0  0  0  0  0  0  0  0  0
  145.1236  135.5604  150.4725 C   0  0  0  0  0  0  0  0  0  0  0  0
  145.3138  136.1058  151.8156 N   0  0  0  0  0  0  0  0  0  0  0  0
  144.0348  136.4715  152.4146 C   0  0  0  0  0  0  0  0  0  0  0  0
  144.2069  137.0523  153.8280 C   0  0  0  0  0  0  0  0  0  0  0  0
  145.0874  138.1699  153.7753 O   0  0  0  0  0  0  0  0  0  0  0  0
  146.3706  137.8411  153.2494 C   0  0  2  0  0  0  0  0  0  0  0  0
  147.2414  139.1045  153.2699 C   0  0  0  0  0  0  0  0  0  0  0  0
  148.6644  138.7395  153.1542 N   0  3  0  0  0  0  0  0  0  0  0  0
  149.3195  138.3413  154.4151 C   0  0  0  0  0  0  0  0  0  0  0  0
  150.8558  138.3984  154.2784 C   0  0  2  0  0  0  0  0  0  0  0  0
  151.3478  137.0807  154.1599 O   0  0  0  0  0  0  0  0  0  0  0  0
  151.6049  139.0756  155.4536 C   0  0  0  0  0  0  0  0  0  0  0  0
  151.0504  140.3737  155.8653 N   0  0  0  0  0  0  0  0  0  0  0  0
  150.1000  141.1448  155.2684 C   0  0  0  0  0  0  0  0  0  0  0  0
  149.9480  142.2672  156.0243 N   0  3  0  0  0  0  0  0  0  0  0  0
  150.8015  142.2054  157.1278 C   0  0  0  0  0  0  0  0  0  0  0  0
  151.0138  143.1042  158.1657 C   0  0  0  0  0  0  0  0  0  0  0  0
  151.9656  142.7438  159.1457 C   0  0  0  0  0  0  0  0  0  0  0  0
  152.2291  143.7087  160.2893 C   0  0  0  0  0  0  0  0  0  0  0  0
  152.6618  141.5095  159.0689 C   0  0  0  0  0  0  0  0  0  0  0  0
  153.6815  141.1319  160.1299 C   0  0  0  0  0  0  0  0  0  0  0  0
  152.4280  140.6059  158.0076 C   0  0  0  0  0  0  0  0  0  0  0  0
  151.4974  140.9835  157.0431 C   0  0  0  0  0  0  0  0  0  0  0  0
  146.1948  137.2714  151.8282 C   0  0  0  0  0  0  0  0  0  0  0  0
  144.3489  133.8395  149.3987 H   0  0  0  0  0  0  0  0  0  0  0  0
  143.6336  134.0552  150.9915 H   0  0  0  0  0  0  0  0  0  0  0  0
  145.2661  133.4031  150.8289 H   0  0  0  0  0  0  0  0  0  0  0  0
  146.0624  135.6010  149.9183 H   0  0  0  0  0  0  0  0  0  0  0  0
  144.4278  136.2008  149.9287 H   0  0  0  0  0  0  0  0  0  0  0  0
  143.5268  137.2034  151.7844 H   0  0  0  0  0  0  0  0  0  0  0  0
  143.3841  135.5976  152.4616 H   0  0  0  0  0  0  0  0  0  0  0  0
  143.2449  137.3744  154.2263 H   0  0  0  0  0  0  0  0  0  0  0  0
  144.6019  136.2994  154.5121 H   0  0  0  0  0  0  0  0  0  0  0  0
  146.8322  137.0824  153.8848 H   0  0  0  0  0  0  0  0  0  0  0  0
  146.9702  139.7476  152.4317 H   0  0  0  0  0  0  0  0  0  0  0  0
  147.0795  139.6752  154.1852 H   0  0  0  0  0  0  0  0  0  0  0  0
  148.7492  137.9829  152.4897 H   0  0  0  0  0  0  0  0  0  0  0  0
  148.9855  138.9748  155.2378 H   0  0  0  0  0  0  0  0  0  0  0  0
  148.9973  137.3239  154.6428 H   0  0  0  0  0  0  0  0  0  0  0  0
  151.1059  138.9033  153.3451 H   0  0  0  0  0  0  0  0  0  0  0  0
  151.4610  136.8767  153.2439 H   0  0  0  0  0  0  0  0  0  0  0  0
  151.5689  138.4315  156.3340 H   0  0  0  0  0  0  0  0  0  0  0  0
  152.6607  139.2127  155.2154 H   0  0  0  0  0  0  0  0  0  0  0  0
  149.5710  140.9147  154.3544 H   0  0  0  0  0  0  0  0  0  0  0  0
  150.4764  144.0400  158.2215 H   0  0  0  0  0  0  0  0  0  0  0  0
  153.2727  144.0242  160.2909 H   0  0  0  0  0  0  0  0  0  0  0  0
  152.0077  143.2378  161.2473 H   0  0  0  0  0  0  0  0  0  0  0  0
  151.6110  144.6033  160.2078 H   0  0  0  0  0  0  0  0  0  0  0  0
  154.1286  140.1584  159.9272 H   0  0  0  0  0  0  0  0  0  0  0  0
  153.2123  141.0843  161.1128 H   0  0  0  0  0  0  0  0  0  0  0  0
  154.4861  141.8666  160.1654 H   0  0  0  0  0  0  0  0  0  0  0  0
  152.9563  139.6655  157.9508 H   0  0  0  0  0  0  0  0  0  0  0  0
  147.1755  137.0048  151.4354 H   0  0  0  0  0  0  0  0  0  0  0  0
  145.7940  138.0449  151.1711 H   0  0  0  0  0  0  0  0  0  0  0  0
  149.1619  139.5403  152.7923 H   0  0  0  0  0  0  0  0  0  0  0  0
  149.3019  143.0152  155.8049 H   0  0  0  0  0  0  0  0  0  0  0  0
  1  2  1  0  0  0  0
  1 26  1  0  0  0  0
  1 27  1  0  0  0  0
  1 28  1  0  0  0  0
  2  3  1  0  0  0  0
  2 29  1  0  0  0  0
  2 30  1  0  0  0  0
  3 25  1  0  0  0  0
  3  4  1  0  0  0  0
  4  5  1  0  0  0  0
  4 31  1  0  0  0  0
  4 32  1  0  0  0  0
  5  6  1  0  0  0  0
  5 33  1  0  0  0  0
  5 34  1  0  0  0  0
  6  7  1  0  0  0  0
  7  8  1  0  0  0  0
  7 25  1  0  0  0  0
  7 35  1  0  0  0  0
  8  9  1  0  0  0  0
  8 36  1  0  0  0  0
  8 37  1  0  0  0  0
  9 10  1  0  0  0  0
  9 38  1  0  0  0  0
  9 56  1  0  0  0  0
 10 11  1  0  0  0  0
 10 39  1  0  0  0  0
 10 40  1  0  0  0  0
 11 12  1  0  0  0  0
 11 13  1  0  0  0  0
 11 41  1  0  0  0  0
 12 42  1  0  0  0  0
 13 14  1  0  0  0  0
 13 43  1  0  0  0  0
 13 44  1  0  0  0  0
 14 24  1  0  0  0  0
 14 15  1  0  0  0  0
 15 16  2  0  0  0  0
 15 45  1  0  0  0  0
 16 17  1  0  0  0  0
 16 57  1  0  0  0  0
 17 24  2  0  0  0  0
 17 18  1  0  0  0  0
 18 19  2  0  0  0  0
 18 46  1  0  0  0  0
 19 20  1  0  0  0  0
 19 21  1  0  0  0  0
 20 47  1  0  0  0  0
 20 48  1  0  0  0  0
 20 49  1  0  0  0  0
 21 22  1  0  0  0  0
 21 23  2  0  0  0  0
 22 50  1  0  0  0  0
 22 51  1  0  0  0  0
 22 52  1  0  0  0  0
 23 24  1  0  0  0  0
 23 53  1  0  0  0  0
 25 54  1  0  0  0  0
 25 55  1  0  0  0  0
M  CHG  1   9   1
M  CHG  1  16   1
M  END
> <s_m_source_file>
AV-unprocessed.smi

> <i_m_source_file_index>
1047

> <i_lp_mmshare_version>
43012

> <i_f3d_flags>
0

> <s_epik_input>
W0NIM11bQ0gyXU4xW0NIMl1bQ0gyXU9bQ0BIXShbQ0gyXTEpW0NIMl1bTkhdW0NIMl1bQ0BIXShbT0hdKVtDSDJdbihbY0hdbjIpYyhjMjMpW2NIXWMoW0NIM10pYyhbY0hdMylbQ0gzXQ==

> <s_epik_cmdline>
J2VwaWtfcHl0aG9uJywgJy1waCcsICc3LjAnLCAnLXRuJywgJzgnLCAnLW1hJywgJzIwMCcsICctbWV0YWxfYmluZGluZycsICctaW1hZScsICc8aW5maWxlLm1hZT4nLCAnLW9tYWUnLCAnPG91dGZpbGUubWFlPic=

> <r_epik_Ionization_Penalty>
1.75732

> <r_epik_Ionization_Penalty_Charging>
1.18089

> <r_epik_Ionization_Penalty_Neutral>
0.576429

> <r_epik_State_Penalty>
1.69377

> <r_epik_Charging_Adjusted_Penalty>
2.87466

> <i_epik_Tot_Q>
2

> <i_epik_Tot_abs_Q>
2

> <r_epik_Metal_State_Penalty>
5.70174

> <b_epik_Metal_Only>
0

> <s_lp_Force_Field>
OPLS_2005

> <r_lp_Energy>
41.9229

> <b_lp_Chiralities_Consistent>
1

> <s_lp_Variant>
AV-unprocessed.smi:1047-30

> <Gold.Version>
5.8.1

> <Gold.Id.Protein>
6NUR|6NUR_protein|mol2

> <Gold.PLP.Fitness>
65.1283

> <Gold.PLP.PLP>
-50.3120

> <Gold.PLP.part.hbond>
-4.6240

> <Gold.PLP.part.metal>
0.0000

> <Gold.PLP.part.buried>
-5.2277

> <Gold.PLP.part.nonpolar>
-41.9751

> <Gold.PLP.part.repulsive>
1.2233

> <Gold.PLP.ligand.clash>
0.0000

> <Gold.PLP.ligand.torsion>
1.2546

> <Gold.PLP.Chemscore.Hbond>
5.6720

> <Gold.PLP.Chemscore.CHOScore>
0.0000

> <Gold.PLP.Chemscore.Metal>
0.0000

> <Gold.Chemscore.Hbonds>
donor molecule, donor type, donor heavy atom, donor atom, acceptor molecule, acceptor atom, score
      L1  H     9    38       P1  7948  2.00
      L1  H     9    56       P1  7957  0.64
      L1  H    12    42       P1  7949  1.00
      L1  H    16    57       P1  8028  2.00

> <Gold.PLP.Chemscore.Internal.Correction>
0.3096

> <Gold.Rescore>
     Score         DG    S(hbond)    S(metal)    S(lipo)     H(rot)  DE(clash)    DE(int)     intcor
     22.81     -25.41       3.52        0.00     128.73       2.69       0.30       2.30       ----

> <Gold.Chemscore.Fitness>
22.8108

> <Gold.Chemscore.DG>
-25.4065

> <Gold.Chemscore.ZeroCoef>
-5.4800

> <Gold.Chemscore.Hbond>
3.5196

> <Gold.Chemscore.Metal>
0.0000

> <Gold.Chemscore.Lipo>
128.7339

> <Gold.Chemscore.Internal_Hbond>
0.0000

> <Gold.Chemscore.DEClash>
0.2975

> <Gold.Chemscore.DEInternal>
2.2983

> <Gold.Chemscore.Rot>
2.6917

> <Gold.Chemscore.Internal.Correction>
   9.000000E+99

> <Gold.Chemscore.Hbonds>
donor molecule, donor type, donor heavy atom, donor atom, acceptor molecule, acceptor atom, score
      L1  H     9    38       P1  7948  1.00
      L1  H     9    56       P1  7957  0.64
      L1  H    12    42       P1  7949  0.83
      L1  H    16    57       P1  8028  0.96

> <Gold.Chemscore.Hbond.Weighted>
-11.7553

> <Gold.Chemscore.Metal.Weighted>
-0.0000

> <Gold.Chemscore.Lipo.Weighted>
-15.0619

> <Gold.Chemscore.Internal_Hbond.Weighted>
0.0000

> <Gold.Chemscore.DEClash.Weighted>
0.2975

> <Gold.Chemscore.DEInternal.Weighted>
2.2983

> <Gold.Chemscore.Rot.Weighted>
6.8907

> <Gold.Chemscore.Internal.Correction.Weighted>
   9.000000E+99

> <Gold.Protein.RotatedTorsions>
[ 6907 6896 6895 6894 ] final   17.88 input  -60.11 | X-H torsion
[ 7974 7965 7964 7962 ] final  -83.65 input  175.53 | X-H torsion
[ 8008 7997 7996 7995 ] final -168.90 input   59.86 | X-H torsion
[ 10167 10162 10161 10158 ] final  176.41 input  -65.29 | X-H torsion
[ 10718 10713 10712 10709 ] final  130.65 input   66.30 | X-H torsion
[ 10763 10752 10751 10750 ] final  -86.00 input  -60.55 | X-H torsion
[ 11005 11000 10999 10996 ] final  118.27 input  -57.11 | X-H torsion

> <Gold.Protein.ActiveResidues>
 VAL166  LYS551  ARG553  GLY616  TRP617  ASP618  TYR619  PRO620  LYS621  CYS622 
 ASP623  PHE694  ASN695  SER759  ASP760  ASP761  ALA762  ILE779  LEU786  VAL792 
 PHE793  MET794  SER795  GLU796  ALA797  LYS798  CYS799  TRP800  GLU811  SER814 

> <Gold.Protein.RotatedAtoms>
  151.8565  135.0539  160.0464 H   0  0  0  0  0  0  0  0  0  0  0  0  # atno 6907 bound_to 6896
  152.2696  133.5366  159.5439 H   0  0  0  0  0  0  0  0  0  0  0  0  # atno 6908 bound_to 6896
  150.7146  134.0632  159.3881 H   0  0  0  0  0  0  0  0  0  0  0  0  # atno 6909 bound_to 6896
  145.5171  140.9535  143.1675 H   0  0  0  0  0  0  0  0  0  0  0  0  # atno 7974 bound_to 7965
  155.8977  140.1035  157.1373 H   0  0  0  0  0  0  0  0  0  0  0  0  # atno 8008 bound_to 7997
  154.4022  140.1298  156.4460 H   0  0  0  0  0  0  0  0  0  0  0  0  # atno 8009 bound_to 7997
  155.7460  140.3466  155.5129 H   0  0  0  0  0  0  0  0  0  0  0  0  # atno 8010 bound_to 7997
  139.5213  144.2918  152.0456 H   0  0  0  0  0  0  0  0  0  0  0  0  # atno 10167 bound_to 10162
  157.5042  131.1095  150.9384 H   0  0  0  0  0  0  0  0  0  0  0  0  # atno 10718 bound_to 10713
  154.6175  135.5465  153.7540 H   0  0  0  0  0  0  0  0  0  0  0  0  # atno 10763 bound_to 10752
  153.0223  135.6404  154.1488 H   0  0  0  0  0  0  0  0  0  0  0  0  # atno 10764 bound_to 10752
  154.1424  135.2907  155.3137 H   0  0  0  0  0  0  0  0  0  0  0  0  # atno 10765 bound_to 10752
  139.9103  134.9618  156.7477 H   0  0  0  0  0  0  0  0  0  0  0  0  # atno 11005 bound_to 11000
  144.7696  139.6766  143.7200 LP  0  0  0  0  0  0  0  0  0  0  0  0  # atno 17320 bound_to 7965
  146.2130  139.5499  142.9669 LP  0  0  0  0  0  0  0  0  0  0  0  0  # atno 17321 bound_to 7965
  140.2369  144.4310  150.6276 LP  0  0  0  0  0  0  0  0  0  0  0  0  # atno 17342 bound_to 10162
  140.6317  143.2188  151.6481 LP  0  0  0  0  0  0  0  0  0  0  0  0  # atno 17343 bound_to 10162
  157.0045  130.5613  149.5314 LP  0  0  0  0  0  0  0  0  0  0  0  0  # atno 17370 bound_to 10713
  156.0248  130.5342  150.8376 LP  0  0  0  0  0  0  0  0  0  0  0  0  # atno 17371 bound_to 10713
  140.6798  133.9484  155.7904 LP  0  0  0  0  0  0  0  0  0  0  0  0  # atno 17394 bound_to 11000
  141.0518  134.0474  157.3774 LP  0  0  0  0  0  0  0  0  0  0  0  0  # atno 17395 bound_to 11000

$$$$
