AV-unprocessed.smi:2075|AV-procd|sdf|8456|dock9
  -GOLD-   2272011153D 1   1.00000     0.00000
 Structure written by MMmdl.
 37 38  0  0  0  0  0  0  0  0  1 V2000
  149.1305  137.1943  155.9100 O   0  0  0  0  0  0  0  0  0  0  0  0
  149.8516  136.6987  155.0438 C   0  0  0  0  0  0  0  0  0  0  0  0
  150.2771  135.2271  155.1185 C   0  0  0  0  0  0  0  0  0  0  0  0
  149.1267  134.2151  154.9437 C   0  0  0  0  0  0  0  0  0  0  0  0
  149.5648  132.9977  155.2631 F   0  0  0  0  0  0  0  0  0  0  0  0
  148.0981  134.5167  155.7375 F   0  0  0  0  0  0  0  0  0  0  0  0
  148.7051  134.1978  153.6784 F   0  0  0  0  0  0  0  0  0  0  0  0
  150.3101  137.3913  153.9893 N   0  0  0  0  0  0  0  0  0  0  0  0
  150.0138  138.7949  153.7193 C   0  0  0  0  0  0  0  0  0  0  0  0
  150.4178  139.7450  154.8378 C   0  0  0  0  0  0  0  0  0  0  0  0
  151.1287  139.2669  155.9551 C   0  0  0  0  0  0  0  0  0  0  0  0
  151.4929  140.1673  156.9745 C   0  0  0  0  0  0  0  0  0  0  0  0
  151.1370  141.5351  156.8517 C   0  0  0  0  0  0  0  0  0  0  0  0
  151.4748  142.4937  157.8355 N   0  0  0  0  0  0  0  0  0  0  0  0
  151.8904  143.8259  157.4028 C   0  0  0  0  0  0  0  0  0  0  0  0
  151.8953  144.8063  158.5879 C   0  0  0  0  0  0  0  0  0  0  0  0
  152.6993  144.2870  159.6402 O   0  0  0  0  0  0  0  0  0  0  0  0
  152.1847  143.0554  160.1330 C   0  0  0  0  0  0  0  0  0  0  0  0
  152.1909  142.0014  159.0128 C   0  0  0  0  0  0  0  0  0  0  0  0
  150.4614  141.9889  155.7678 N   0  0  0  0  0  0  0  0  0  0  0  0
  150.1148  141.1218  154.7941 C   0  0  0  0  0  0  0  0  0  0  0  0
  151.0295  135.0452  154.3494 H   0  0  0  0  0  0  0  0  0  0  0  0
  150.7697  135.0615  156.0774 H   0  0  0  0  0  0  0  0  0  0  0  0
  150.9004  136.9128  153.3244 H   0  0  0  0  0  0  0  0  0  0  0  0
  150.4897  139.0966  152.7845 H   0  0  0  0  0  0  0  0  0  0  0  0
  148.9393  138.8910  153.5628 H   0  0  0  0  0  0  0  0  0  0  0  0
  151.3898  138.2220  156.0363 H   0  0  0  0  0  0  0  0  0  0  0  0
  152.0270  139.7845  157.8304 H   0  0  0  0  0  0  0  0  0  0  0  0
  152.8855  143.7661  156.9599 H   0  0  0  0  0  0  0  0  0  0  0  0
  151.2102  144.2079  156.6410 H   0  0  0  0  0  0  0  0  0  0  0  0
  152.2979  145.7696  158.2752 H   0  0  0  0  0  0  0  0  0  0  0  0
  150.8805  144.9876  158.9462 H   0  0  0  0  0  0  0  0  0  0  0  0
  152.8036  142.7199  160.9652 H   0  0  0  0  0  0  0  0  0  0  0  0
  151.1765  143.1995  160.5251 H   0  0  0  0  0  0  0  0  0  0  0  0
  151.7500  141.0831  159.4003 H   0  0  0  0  0  0  0  0  0  0  0  0
  153.2167  141.7667  158.7260 H   0  0  0  0  0  0  0  0  0  0  0  0
  149.5814  141.5463  153.9564 H   0  0  0  0  0  0  0  0  0  0  0  0
  1  2  2  0  0  0  0
  2  3  1  0  0  0  0
  2  8  1  0  0  0  0
  3  4  1  0  0  0  0
  3 22  1  0  0  0  0
  3 23  1  0  0  0  0
  4  5  1  0  0  0  0
  4  6  1  0  0  0  0
  4  7  1  0  0  0  0
  8  9  1  0  0  0  0
  8 24  1  0  0  0  0
  9 10  1  0  0  0  0
  9 25  1  0  0  0  0
  9 26  1  0  0  0  0
 10 21  1  0  0  0  0
 10 11  2  0  0  0  0
 11 12  1  0  0  0  0
 11 27  1  0  0  0  0
 12 13  2  0  0  0  0
 12 28  1  0  0  0  0
 13 14  1  0  0  0  0
 13 20  1  0  0  0  0
 14 19  1  0  0  0  0
 14 15  1  0  0  0  0
 15 16  1  0  0  0  0
 15 29  1  0  0  0  0
 15 30  1  0  0  0  0
 16 17  1  0  0  0  0
 16 31  1  0  0  0  0
 16 32  1  0  0  0  0
 17 18  1  0  0  0  0
 18 19  1  0  0  0  0
 18 33  1  0  0  0  0
 18 34  1  0  0  0  0
 19 35  1  0  0  0  0
 19 36  1  0  0  0  0
 20 21  2  0  0  0  0
 21 37  1  0  0  0  0
M  END
> <s_m_source_file>
AV-unprocessed.smi

> <i_m_source_file_index>
2075

> <i_lp_mmshare_version>
43012

> <i_f3d_flags>
0

> <s_epik_input>
RkMoRikoRilbQ0gyXUMoPU8pW05IXVtDSDJdYzFbY0hdW2NIXWMobltjSF0xKU4yW0NIMl1bQ0gyXU9bQ0gyXVtDSDJdMg==

> <s_epik_cmdline>
J2VwaWtfcHl0aG9uJywgJy1waCcsICc3LjAnLCAnLXRuJywgJzgnLCAnLW1hJywgJzIwMCcsICctbWV0YWxfYmluZGluZycsICctaW1hZScsICc8aW5maWxlLm1hZT4nLCAnLW9tYWUnLCAnPG91dGZpbGUubWFlPic=

> <r_lp_tautomer_probability>
1

> <r_epik_Ionization_Penalty>
0.00347018

> <r_epik_Ionization_Penalty_Charging>
0

> <r_epik_Ionization_Penalty_Neutral>
0.00347018

> <r_epik_State_Penalty>
0.00246037

> <r_epik_Charging_Adjusted_Penalty>
0.00246037

> <i_epik_Tot_Q>
0

> <i_epik_Tot_abs_Q>
0

> <r_epik_Metal_State_Penalty>
-0

> <b_epik_Metal_Only>
0

> <s_lp_Force_Field>
OPLS_2005

> <r_lp_Energy>
11.9442

> <b_lp_Chiralities_Consistent>
1

> <s_lp_Variant>
AV-unprocessed.smi:2075-1

> <Gold.Version>
5.8.1

> <Gold.Id.Protein>
6NUR|6NUR_protein|mol2

> <Gold.PLP.Fitness>
40.7395

> <Gold.PLP.PLP>
-38.4322

> <Gold.PLP.part.hbond>
-2.0000

> <Gold.PLP.part.metal>
0.0000

> <Gold.PLP.part.buried>
-0.7176

> <Gold.PLP.part.nonpolar>
-35.2992

> <Gold.PLP.part.repulsive>
0.2513

> <Gold.PLP.ligand.clash>
0.0000

> <Gold.PLP.ligand.torsion>
0.4712

> <Gold.PLP.Chemscore.Hbond>
0.9263

> <Gold.PLP.Chemscore.CHOScore>
0.0000

> <Gold.PLP.Chemscore.Metal>
0.0000

> <Gold.Chemscore.Hbonds>
donor molecule, donor type, donor heavy atom, donor atom, acceptor molecule, acceptor atom, score
      L1  H     8    24       P1  7949  0.80

> <Gold.PLP.Chemscore.Internal.Correction>
0.4710

> <Gold.Rescore>
     Score         DG    S(hbond)    S(metal)    S(lipo)     H(rot)  DE(clash)    DE(int)     intcor
      9.27     -11.08       0.16        0.00      87.33       2.01       0.16       1.65       ----

> <Gold.Chemscore.Fitness>
9.2719

> <Gold.Chemscore.DG>
-11.0782

> <Gold.Chemscore.ZeroCoef>
-5.4800

> <Gold.Chemscore.Hbond>
0.1576

> <Gold.Chemscore.Metal>
0.0000

> <Gold.Chemscore.Lipo>
87.3295

> <Gold.Chemscore.Internal_Hbond>
0.0000

> <Gold.Chemscore.DEClash>
0.1599

> <Gold.Chemscore.DEInternal>
1.6464

> <Gold.Chemscore.Rot>
2.0101

> <Gold.Chemscore.Internal.Correction>
   9.000000E+99

> <Gold.Chemscore.Hbonds>
donor molecule, donor type, donor heavy atom, donor atom, acceptor molecule, acceptor atom, score
      L1  H     8    24       P1  7949  0.15

> <Gold.Chemscore.Hbond.Weighted>
-0.5264

> <Gold.Chemscore.Metal.Weighted>
-0.0000

> <Gold.Chemscore.Lipo.Weighted>
-10.2176

> <Gold.Chemscore.Internal_Hbond.Weighted>
0.0000

> <Gold.Chemscore.DEClash.Weighted>
0.1599

> <Gold.Chemscore.DEInternal.Weighted>
1.6464

> <Gold.Chemscore.Rot.Weighted>
5.1458

> <Gold.Chemscore.Internal.Correction.Weighted>
   9.000000E+99

> <Gold.Protein.RotatedTorsions>
[ 6907 6896 6895 6894 ] final -149.16 input  -60.11 | X-H torsion
[ 7974 7965 7964 7962 ] final   66.42 input  175.53 | X-H torsion
[ 8008 7997 7996 7995 ] final  174.37 input   59.86 | X-H torsion
[ 10167 10162 10161 10158 ] final -114.99 input  -65.29 | X-H torsion
[ 10718 10713 10712 10709 ] final  -54.56 input   66.30 | X-H torsion
[ 10763 10752 10751 10750 ] final   97.83 input  -60.55 | X-H torsion
[ 11005 11000 10999 10996 ] final   69.80 input  -57.11 | X-H torsion

> <Gold.Protein.ActiveResidues>
 VAL166  LYS551  ARG553  GLY616  TRP617  ASP618  TYR619  PRO620  LYS621  CYS622 
 ASP623  PHE694  ASN695  SER759  ASP760  ASP761  ALA762  ILE779  LEU786  VAL792 
 PHE793  MET794  SER795  GLU796  ALA797  LYS798  CYS799  TRP800  GLU811  SER814 

> <Gold.Protein.RotatedAtoms>
  151.1801  133.4730  159.2593 H   0  0  0  0  0  0  0  0  0  0  0  0  # atno 6907 bound_to 6896
  151.1267  135.0108  159.8574 H   0  0  0  0  0  0  0  0  0  0  0  0  # atno 6908 bound_to 6896
  152.5458  134.1708  159.8649 H   0  0  0  0  0  0  0  0  0  0  0  0  # atno 6909 bound_to 6896
  145.8268  139.3116  143.1010 H   0  0  0  0  0  0  0  0  0  0  0  0  # atno 7974 bound_to 7965
  156.0981  140.1436  156.9504 H   0  0  0  0  0  0  0  0  0  0  0  0  # atno 8008 bound_to 7997
  154.4684  140.0918  156.7127 H   0  0  0  0  0  0  0  0  0  0  0  0  # atno 8009 bound_to 7997
  155.4807  140.3445  155.4341 H   0  0  0  0  0  0  0  0  0  0  0  0  # atno 8010 bound_to 7997
  140.0950  143.4665  152.1847 H   0  0  0  0  0  0  0  0  0  0  0  0  # atno 10167 bound_to 10162
  156.1440  130.4153  150.0055 H   0  0  0  0  0  0  0  0  0  0  0  0  # atno 10718 bound_to 10713
  153.2817  135.4169  155.1085 H   0  0  0  0  0  0  0  0  0  0  0  0  # atno 10763 bound_to 10752
  154.8491  135.3497  154.6103 H   0  0  0  0  0  0  0  0  0  0  0  0  # atno 10764 bound_to 10752
  153.6524  135.7052  153.5262 H   0  0  0  0  0  0  0  0  0  0  0  0  # atno 10765 bound_to 10752
  139.9633  134.7024  156.0599 H   0  0  0  0  0  0  0  0  0  0  0  0  # atno 11005 bound_to 11000
  145.9614  140.8832  143.0209 LP  0  0  0  0  0  0  0  0  0  0  0  0  # atno 17320 bound_to 7965
  144.6743  140.1818  143.7405 LP  0  0  0  0  0  0  0  0  0  0  0  0  # atno 17321 bound_to 7965
  139.5703  144.7459  151.3909 LP  0  0  0  0  0  0  0  0  0  0  0  0  # atno 17342 bound_to 10162
  140.7008  143.7636  150.7400 LP  0  0  0  0  0  0  0  0  0  0  0  0  # atno 17343 bound_to 10162
  156.7932  130.9263  151.3646 LP  0  0  0  0  0  0  0  0  0  0  0  0  # atno 17370 bound_to 10713
  157.6601  130.8958  149.9811 LP  0  0  0  0  0  0  0  0  0  0  0  0  # atno 17371 bound_to 10713
  141.1311  133.6586  156.3468 LP  0  0  0  0  0  0  0  0  0  0  0  0  # atno 17394 bound_to 11000
  140.5452  134.6081  157.5391 LP  0  0  0  0  0  0  0  0  0  0  0  0  # atno 17395 bound_to 11000

$$$$
