AV-unprocessed.smi:1166|AV-procd|sdf|4935|dock5
  -GOLD-   22720 3523D 1   1.00000     0.00000
 Structure written by MMmdl.
 47 48  0  0  0  0  0  0  0  0  2 V2000
  147.6548  133.3021  152.1088 C   0  0  0  0  0  0  0  0  0  0  0  0
  146.4262  133.4555  151.3407 N   0  0  0  0  0  0  0  0  0  0  0  0
  146.1034  132.5156  150.2728 C   0  0  0  0  0  0  0  0  0  0  0  0
  145.5065  134.4702  151.6834 C   0  0  0  0  0  0  0  0  0  0  0  0
  144.1072  134.2610  151.7433 C   0  0  0  0  0  0  0  0  0  0  0  0
  143.2482  135.3239  152.0916 C   0  0  0  0  0  0  0  0  0  0  0  0
  143.7938  136.6000  152.3795 C   0  0  0  0  0  0  0  0  0  0  0  0
  143.0361  137.7501  152.7380 N   0  0  0  0  0  0  0  0  0  0  0  0
  141.8456  137.8356  153.3574 C   0  0  0  0  0  0  0  0  0  0  0  0
  141.1818  136.8856  153.7699 O   0  0  0  0  0  0  0  0  0  0  0  0
  141.4571  139.1130  153.4768 N   0  0  0  0  0  0  0  0  0  0  0  0
  140.2103  139.5627  154.0890 C   0  0  1  0  0  0  0  0  0  0  0  0
  140.0821  141.0919  154.0003 C   0  0  0  0  0  0  0  0  0  0  0  0
  138.7419  141.5340  154.5992 C   0  0  0  0  0  0  0  0  0  0  0  0
  137.5607  140.8226  153.9159 C   0  0  0  0  0  0  0  0  0  0  0  0
  137.7269  139.3548  153.9274 N   0  0  0  0  0  0  0  0  0  0  0  0
  136.8499  138.3886  155.0792 S   0  0  0  0  0  0  0  0  0  0  0  0
  135.2174  138.1028  154.2801 C   0  0  0  0  0  0  0  0  0  0  0  0
  137.5371  137.0930  155.1936 O   0  0  0  0  0  0  0  0  0  0  0  0
  136.6345  139.2079  156.2817 O   0  0  0  0  0  0  0  0  0  0  0  0
  139.0181  138.8763  153.3943 C   0  0  0  0  0  0  0  0  0  0  0  0
  145.1934  136.7523  152.3084 C   0  0  0  0  0  0  0  0  0  0  0  0
  145.9788  135.7073  151.9711 N   0  3  0  0  0  0  0  0  0  0  0  0
  148.2744  134.1952  152.0220 H   0  0  0  0  0  0  0  0  0  0  0  0
  148.2412  132.4542  151.7541 H   0  0  0  0  0  0  0  0  0  0  0  0
  147.4303  133.1333  153.1624 H   0  0  0  0  0  0  0  0  0  0  0  0
  145.1935  131.9637  150.5109 H   0  0  0  0  0  0  0  0  0  0  0  0
  146.9049  131.7913  150.1256 H   0  0  0  0  0  0  0  0  0  0  0  0
  145.9542  133.0426  149.3299 H   0  0  0  0  0  0  0  0  0  0  0  0
  143.6726  133.2969  151.5265 H   0  0  0  0  0  0  0  0  0  0  0  0
  142.1897  135.1244  152.1273 H   0  0  0  0  0  0  0  0  0  0  0  0
  143.4482  138.6314  152.4682 H   0  0  0  0  0  0  0  0  0  0  0  0
  142.0655  139.8314  153.1120 H   0  0  0  0  0  0  0  0  0  0  0  0
  140.2106  139.2727  155.1397 H   0  0  0  0  0  0  0  0  0  0  0  0
  140.9028  141.5767  154.5304 H   0  0  0  0  0  0  0  0  0  0  0  0
  140.1451  141.4147  152.9601 H   0  0  0  0  0  0  0  0  0  0  0  0
  138.7352  141.3293  155.6690 H   0  0  0  0  0  0  0  0  0  0  0  0
  138.6296  142.6135  154.4965 H   0  0  0  0  0  0  0  0  0  0  0  0
  136.6218  141.1029  154.3924 H   0  0  0  0  0  0  0  0  0  0  0  0
  137.4886  141.1515  152.8787 H   0  0  0  0  0  0  0  0  0  0  0  0
  134.6031  137.4881  154.9377 H   0  0  0  0  0  0  0  0  0  0  0  0
  135.3521  137.5810  153.3343 H   0  0  0  0  0  0  0  0  0  0  0  0
  134.7122  139.0526  154.1147 H   0  0  0  0  0  0  0  0  0  0  0  0
  139.0427  139.0849  152.3237 H   0  0  0  0  0  0  0  0  0  0  0  0
  139.0894  137.7935  153.4968 H   0  0  0  0  0  0  0  0  0  0  0  0
  145.7113  137.6791  152.5096 H   0  0  0  0  0  0  0  0  0  0  0  0
  146.9868  135.8590  151.9294 H   0  0  0  0  0  0  0  0  0  0  0  0
  1  2  1  0  0  0  0
  1 24  1  0  0  0  0
  1 25  1  0  0  0  0
  1 26  1  0  0  0  0
  2  3  1  0  0  0  0
  2  4  1  0  0  0  0
  3 27  1  0  0  0  0
  3 28  1  0  0  0  0
  3 29  1  0  0  0  0
  4 23  1  0  0  0  0
  4  5  2  0  0  0  0
  5  6  1  0  0  0  0
  5 30  1  0  0  0  0
  6  7  2  0  0  0  0
  6 31  1  0  0  0  0
  7  8  1  0  0  0  0
  7 22  1  0  0  0  0
  8  9  1  0  0  0  0
  8 32  1  0  0  0  0
  9 10  2  0  0  0  0
  9 11  1  0  0  0  0
 11 12  1  0  0  0  0
 11 33  1  0  0  0  0
 12 21  1  0  0  0  0
 12 13  1  0  0  0  0
 12 34  1  0  0  0  0
 13 14  1  0  0  0  0
 13 35  1  0  0  0  0
 13 36  1  0  0  0  0
 14 15  1  0  0  0  0
 14 37  1  0  0  0  0
 14 38  1  0  0  0  0
 15 16  1  0  0  0  0
 15 39  1  0  0  0  0
 15 40  1  0  0  0  0
 16 17  1  0  0  0  0
 16 21  1  0  0  0  0
 17 18  1  0  0  0  0
 17 19  2  0  0  0  0
 17 20  2  0  0  0  0
 18 41  1  0  0  0  0
 18 42  1  0  0  0  0
 18 43  1  0  0  0  0
 21 44  1  0  0  0  0
 21 45  1  0  0  0  0
 22 23  2  0  0  0  0
 22 46  1  0  0  0  0
 23 47  1  0  0  0  0
M  CHG  1  23   1
M  END
> <s_m_source_file>
AV-unprocessed.smi

> <i_m_source_file_index>
1166

> <i_lp_mmshare_version>
43012

> <i_f3d_flags>
0

> <s_epik_input>
W0NIM11OKFtDSDNdKWMxW2NIXVtjSF1jKFtjSF1uMSlbTkhdQyg9TylbTkhdW0NAQEhdMltDSDJdW0NIMl1bQ0gyXU4oW0NIMl0yKVMoPU8pKD1PKVtDSDNd

> <s_epik_cmdline>
J2VwaWtfcHl0aG9uJywgJy1waCcsICc3LjAnLCAnLXRuJywgJzgnLCAnLW1hJywgJzIwMCcsICctbWV0YWxfYmluZGluZycsICctaW1hZScsICc8aW5maWxlLm1hZT4nLCAnLW9tYWUnLCAnPG91dGZpbGUubWFlPic=

> <r_lp_tautomer_probability>
0.999994

> <r_epik_Ionization_Penalty>
0.276583

> <r_epik_Ionization_Penalty_Charging>
0.276565

> <r_epik_Ionization_Penalty_Neutral>
1.87575e-05

> <r_epik_State_Penalty>
0.268949

> <r_epik_Charging_Adjusted_Penalty>
0.545513

> <i_epik_Tot_Q>
1

> <i_epik_Tot_abs_Q>
1

> <r_epik_Metal_State_Penalty>
0.551815

> <b_epik_Metal_Only>
0

> <s_lp_Force_Field>
OPLS_2005

> <r_lp_Energy>
8.45094

> <b_lp_Chiralities_Consistent>
1

> <s_lp_Variant>
AV-unprocessed.smi:1166-2

> <Gold.Version>
5.8.1

> <Gold.Id.Protein>
6NUR|6NUR_protein|mol2

> <Gold.PLP.Fitness>
48.2357

> <Gold.PLP.PLP>
-37.9684

> <Gold.PLP.part.hbond>
-4.5721

> <Gold.PLP.part.metal>
0.0000

> <Gold.PLP.part.buried>
-4.0934

> <Gold.PLP.part.nonpolar>
-29.7297

> <Gold.PLP.part.repulsive>
0.2636

> <Gold.PLP.ligand.clash>
0.0000

> <Gold.PLP.ligand.torsion>
1.8977

> <Gold.PLP.Chemscore.Hbond>
4.0000

> <Gold.PLP.Chemscore.CHOScore>
0.0000

> <Gold.PLP.Chemscore.Metal>
0.0000

> <Gold.Chemscore.Hbonds>
donor molecule, donor type, donor heavy atom, donor atom, acceptor molecule, acceptor atom, score
      L1  H     8    32       P1 10175  1.00
      L1  H    11    33       P1 10175  1.00
      L1  H    23    47       P1  7948  2.00

> <Gold.PLP.Chemscore.Internal.Correction>
2.0626

> <Gold.Rescore>
     Score         DG    S(hbond)    S(metal)    S(lipo)     H(rot)  DE(clash)    DE(int)     intcor
     17.59     -20.57       2.89        0.00      68.21       1.00       0.12       2.86       ----

> <Gold.Chemscore.Fitness>
17.5879

> <Gold.Chemscore.DG>
-20.5667

> <Gold.Chemscore.ZeroCoef>
-5.4800

> <Gold.Chemscore.Hbond>
2.8940

> <Gold.Chemscore.Metal>
0.0000

> <Gold.Chemscore.Lipo>
68.2117

> <Gold.Chemscore.Internal_Hbond>
0.0000

> <Gold.Chemscore.DEClash>
0.1151

> <Gold.Chemscore.DEInternal>
2.8637

> <Gold.Chemscore.Rot>
1.0000

> <Gold.Chemscore.Internal.Correction>
   9.000000E+99

> <Gold.Chemscore.Hbonds>
donor molecule, donor type, donor heavy atom, donor atom, acceptor molecule, acceptor atom, score
      L1  H     8    32       P1 10175  0.99
      L1  H    11    33       P1 10175  0.59
      L1  H    23    47       P1  7948  0.98

> <Gold.Chemscore.Hbond.Weighted>
-9.6659

> <Gold.Chemscore.Metal.Weighted>
-0.0000

> <Gold.Chemscore.Lipo.Weighted>
-7.9808

> <Gold.Chemscore.Internal_Hbond.Weighted>
0.0000

> <Gold.Chemscore.DEClash.Weighted>
0.1151

> <Gold.Chemscore.DEInternal.Weighted>
2.8637

> <Gold.Chemscore.Rot.Weighted>
2.5600

> <Gold.Chemscore.Internal.Correction.Weighted>
   9.000000E+99

> <Gold.Protein.RotatedTorsions>
[ 6907 6896 6895 6894 ] final -169.45 input  -60.11 | X-H torsion
[ 7974 7965 7964 7962 ] final  -16.85 input  175.53 | X-H torsion
[ 8008 7997 7996 7995 ] final  -34.44 input   59.86 | X-H torsion
[ 10167 10162 10161 10158 ] final  157.47 input  -65.29 | X-H torsion
[ 10718 10713 10712 10709 ] final  -73.66 input   66.30 | X-H torsion
[ 10763 10752 10751 10750 ] final  140.67 input  -60.55 | X-H torsion
[ 11005 11000 10999 10996 ] final  122.91 input  -57.11 | X-H torsion

> <Gold.Protein.ActiveResidues>
 VAL166  LYS551  ARG553  GLY616  TRP617  ASP618  TYR619  PRO620  LYS621  CYS622 
 ASP623  PHE694  ASN695  SER759  ASP760  ASP761  ALA762  ILE779  LEU786  VAL792 
 PHE793  MET794  SER795  GLU796  ALA797  LYS798  CYS799  TRP800  GLU811  SER814 

> <Gold.Protein.RotatedAtoms>
  151.4919  133.3523  159.2854 H   0  0  0  0  0  0  0  0  0  0  0  0  # atno 6907 bound_to 6896
  150.8829  134.8225  159.7249 H   0  0  0  0  0  0  0  0  0  0  0  0  # atno 6908 bound_to 6896
  152.4774  134.4819  159.9720 H   0  0  0  0  0  0  0  0  0  0  0  0  # atno 6909 bound_to 6896
  146.1968  140.3695  142.8437 H   0  0  0  0  0  0  0  0  0  0  0  0  # atno 7974 bound_to 7965
  154.4121  140.1684  156.2051 H   0  0  0  0  0  0  0  0  0  0  0  0  # atno 8008 bound_to 7997
  155.9491  140.3402  155.6369 H   0  0  0  0  0  0  0  0  0  0  0  0  # atno 8009 bound_to 7997
  155.6892  140.0732  157.2445 H   0  0  0  0  0  0  0  0  0  0  0  0  # atno 8010 bound_to 7997
  139.4823  144.4915  151.8302 H   0  0  0  0  0  0  0  0  0  0  0  0  # atno 10167 bound_to 10162
  156.0272  130.4399  150.2776 H   0  0  0  0  0  0  0  0  0  0  0  0  # atno 10718 bound_to 10713
  153.9265  135.2995  155.3446 H   0  0  0  0  0  0  0  0  0  0  0  0  # atno 10763 bound_to 10752
  154.7549  135.4962  153.9359 H   0  0  0  0  0  0  0  0  0  0  0  0  # atno 10764 bound_to 10752
  153.1114  135.6760  153.9598 H   0  0  0  0  0  0  0  0  0  0  0  0  # atno 10765 bound_to 10752
  139.9289  134.9641  156.8179 H   0  0  0  0  0  0  0  0  0  0  0  0  # atno 11005 bound_to 11000
  144.8598  140.7123  143.6114 LP  0  0  0  0  0  0  0  0  0  0  0  0  # atno 17320 bound_to 7965
  145.3616  139.1680  143.4380 LP  0  0  0  0  0  0  0  0  0  0  0  0  # atno 17321 bound_to 7965
  140.4399  144.2000  150.5891 LP  0  0  0  0  0  0  0  0  0  0  0  0  # atno 17342 bound_to 10162
  140.4694  143.2419  151.9111 LP  0  0  0  0  0  0  0  0  0  0  0  0  # atno 17343 bound_to 10162
  157.0879  131.0161  151.3132 LP  0  0  0  0  0  0  0  0  0  0  0  0  # atno 17370 bound_to 10713
  157.4877  130.7803  149.7476 LP  0  0  0  0  0  0  0  0  0  0  0  0  # atno 17371 bound_to 10713
  140.6258  133.9951  155.7639 LP  0  0  0  0  0  0  0  0  0  0  0  0  # atno 17394 bound_to 11000
  141.0865  133.9983  157.3305 LP  0  0  0  0  0  0  0  0  0  0  0  0  # atno 17395 bound_to 11000

$$$$
