AV-unprocessed.smi:1662|AV-procd|sdf|6661|dock1
  -GOLD-   22720 7373D 1   1.00000     0.00000
 Structure written by MMmdl.
 47 48  0  0  0  0  0  0  0  0  1 V2000
  152.9409  143.2228  162.7565 C   0  0  0  0  0  0  0  0  0  0  0  0
  153.0430  142.2631  161.6014 C   0  0  0  0  0  0  0  0  0  0  0  0
  152.3166  142.5235  160.5645 N   0  0  0  0  0  0  0  0  0  0  0  0
  152.3328  141.7064  159.4506 N   0  0  0  0  0  0  0  0  0  0  0  0
  151.4271  142.1398  158.3762 C   0  0  0  0  0  0  0  0  0  0  0  0
  150.2250  141.2055  158.1738 C   0  0  0  0  0  0  0  0  0  0  0  0
  149.9598  140.3286  158.9973 O   0  0  0  0  0  0  0  0  0  0  0  0
  149.4927  141.4306  157.0718 N   0  0  0  0  0  0  0  0  0  0  0  0
  148.3007  140.6875  156.6554 C   0  0  2  0  0  0  0  0  0  0  0  0
  148.6920  139.6121  155.6254 C   0  0  0  0  0  0  0  0  0  0  0  0
  149.1030  140.2293  154.2806 C   0  0  0  0  0  0  0  0  0  0  0  0
  147.9969  141.1411  153.7334 C   0  0  0  0  0  0  0  0  0  0  0  0
  147.6035  142.2466  154.7352 C   0  0  1  0  0  0  0  0  0  0  0  0
  146.5015  143.1309  154.1243 C   0  0  0  0  0  0  0  0  0  0  0  0
  147.1964  141.6283  156.1023 C   0  0  2  0  0  0  0  0  0  0  0  0
  146.7781  142.6847  157.1451 C   0  0  0  0  0  0  0  0  0  0  0  0
  153.0985  140.5846  159.3217 C   0  0  0  0  0  0  0  0  0  0  0  0
  153.0876  139.8887  158.3050 O   0  0  0  0  0  0  0  0  0  0  0  0
  153.9195  140.2959  160.4995 C   0  0  0  0  0  0  0  0  0  0  0  0
  154.7352  139.1282  160.4074 C   0  0  0  0  0  0  0  0  0  0  0  0
  155.3819  138.1701  160.3428 N   0  0  0  0  0  0  0  0  0  0  0  0
  153.9042  141.0847  161.6033 C   0  0  0  0  0  0  0  0  0  0  0  0
  154.7359  140.8266  162.8523 C   0  0  0  0  0  0  0  0  0  0  0  0
  153.9195  143.6310  163.0095 H   0  0  0  0  0  0  0  0  0  0  0  0
  152.5431  142.7231  163.6399 H   0  0  0  0  0  0  0  0  0  0  0  0
  152.2833  144.0636  162.5300 H   0  0  0  0  0  0  0  0  0  0  0  0
  151.0448  143.1401  158.5877 H   0  0  0  0  0  0  0  0  0  0  0  0
  151.9770  142.2312  157.4374 H   0  0  0  0  0  0  0  0  0  0  0  0
  149.7867  142.1795  156.4620 H   0  0  0  0  0  0  0  0  0  0  0  0
  147.8893  140.1607  157.5182 H   0  0  0  0  0  0  0  0  0  0  0  0
  149.4997  138.9908  156.0149 H   0  0  0  0  0  0  0  0  0  0  0  0
  147.8453  138.9428  155.4664 H   0  0  0  0  0  0  0  0  0  0  0  0
  150.0255  140.7991  154.3970 H   0  0  0  0  0  0  0  0  0  0  0  0
  149.3196  139.4384  153.5619 H   0  0  0  0  0  0  0  0  0  0  0  0
  148.3307  141.5881  152.7965 H   0  0  0  0  0  0  0  0  0  0  0  0
  147.1208  140.5380  153.4897 H   0  0  0  0  0  0  0  0  0  0  0  0
  148.4777  142.8804  154.8916 H   0  0  0  0  0  0  0  0  0  0  0  0
  145.5677  142.5795  154.0106 H   0  0  0  0  0  0  0  0  0  0  0  0
  146.7934  143.4939  153.1386 H   0  0  0  0  0  0  0  0  0  0  0  0
  146.3009  144.0094  154.7371 H   0  0  0  0  0  0  0  0  0  0  0  0
  146.3178  141.0058  155.9249 H   0  0  0  0  0  0  0  0  0  0  0  0
  147.5550  143.4351  157.2933 H   0  0  0  0  0  0  0  0  0  0  0  0
  146.5765  142.2200  158.1108 H   0  0  0  0  0  0  0  0  0  0  0  0
  145.8672  143.2040  156.8490 H   0  0  0  0  0  0  0  0  0  0  0  0
  155.2818  139.8852  162.7973 H   0  0  0  0  0  0  0  0  0  0  0  0
  154.0993  140.7800  163.7366 H   0  0  0  0  0  0  0  0  0  0  0  0
  155.4660  141.6240  162.9946 H   0  0  0  0  0  0  0  0  0  0  0  0
  1  2  1  0  0  0  0
  1 24  1  0  0  0  0
  1 25  1  0  0  0  0
  1 26  1  0  0  0  0
  2 22  1  0  0  0  0
  2  3  2  0  0  0  0
  3  4  1  0  0  0  0
  4  5  1  0  0  0  0
  4 17  1  0  0  0  0
  5  6  1  0  0  0  0
  5 27  1  0  0  0  0
  5 28  1  0  0  0  0
  6  7  2  0  0  0  0
  6  8  1  0  0  0  0
  8  9  1  0  0  0  0
  8 29  1  0  0  0  0
  9 15  1  0  0  0  0
  9 10  1  0  0  0  0
  9 30  1  0  0  0  0
 10 11  1  0  0  0  0
 10 31  1  0  0  0  0
 10 32  1  0  0  0  0
 11 12  1  0  0  0  0
 11 33  1  0  0  0  0
 11 34  1  0  0  0  0
 12 13  1  0  0  0  0
 12 35  1  0  0  0  0
 12 36  1  0  0  0  0
 13 14  1  0  0  0  0
 13 15  1  0  0  0  0
 13 37  1  0  0  0  0
 14 38  1  0  0  0  0
 14 39  1  0  0  0  0
 14 40  1  0  0  0  0
 15 16  1  0  0  0  0
 15 41  1  0  0  0  0
 16 42  1  0  0  0  0
 16 43  1  0  0  0  0
 16 44  1  0  0  0  0
 17 18  2  0  0  0  0
 17 19  1  0  0  0  0
 19 20  1  0  0  0  0
 19 22  2  0  0  0  0
 20 21  3  0  0  0  0
 22 23  1  0  0  0  0
 23 45  1  0  0  0  0
 23 46  1  0  0  0  0
 23 47  1  0  0  0  0
M  END
> <s_m_source_file>
AV-unprocessed.smi

> <i_m_source_file_index>
1662

> <i_lp_mmshare_version>
43012

> <i_f3d_flags>
0

> <s_epik_input>
TiNDYyhjMVtDSDNdKWMoPU8pbihuYzFbQ0gzXSlbQ0gyXUMoPU8pW05IXVtDQEBIXTJbQ0gyXVtDSDJdW0NIMl1bQ0BASF0oW0NIM10pW0NASF0yW0NIM10=

> <s_epik_cmdline>
J2VwaWtfcHl0aG9uJywgJy1waCcsICc3LjAnLCAnLXRuJywgJzgnLCAnLW1hJywgJzIwMCcsICctbWV0YWxfYmluZGluZycsICctaW1hZScsICc8aW5maWxlLm1hZT4nLCAnLW9tYWUnLCAnPG91dGZpbGUubWFlPic=

> <r_lp_tautomer_probability>
1

> <r_epik_Ionization_Penalty>
1.90709e-08

> <r_epik_Ionization_Penalty_Charging>
2.37982e-11

> <r_epik_Ionization_Penalty_Neutral>
1.90471e-08

> <r_epik_State_Penalty>
-0

> <r_epik_Charging_Adjusted_Penalty>
2.37982e-11

> <i_epik_Tot_Q>
0

> <i_epik_Tot_abs_Q>
0

> <r_epik_Metal_State_Penalty>
-0

> <b_epik_Metal_Only>
0

> <s_lp_Force_Field>
OPLS_2005

> <r_lp_Energy>
26.4332

> <b_lp_Chiralities_Consistent>
1

> <s_lp_Variant>
AV-unprocessed.smi:1662-5

> <Gold.Version>
5.8.1

> <Gold.Id.Protein>
6NUR|6NUR_protein|mol2

> <Gold.PLP.Fitness>
40.3735

> <Gold.PLP.PLP>
-38.4507

> <Gold.PLP.part.hbond>
-2.5442

> <Gold.PLP.part.metal>
0.0000

> <Gold.PLP.part.buried>
1.1223

> <Gold.PLP.part.nonpolar>
-36.3010

> <Gold.PLP.part.repulsive>
0.0596

> <Gold.PLP.ligand.clash>
0.0000

> <Gold.PLP.ligand.torsion>
0.4866

> <Gold.PLP.Chemscore.Hbond>
0.9600

> <Gold.PLP.Chemscore.CHOScore>
0.0000

> <Gold.PLP.Chemscore.Metal>
0.0000

> <Gold.Chemscore.Hbonds>
donor molecule, donor type, donor heavy atom, donor atom, acceptor molecule, acceptor atom, score
      P1  H  7997  8009       L1    18  0.86

> <Gold.PLP.Chemscore.Internal.Correction>
0.0160

> <Gold.Rescore>
     Score         DG    S(hbond)    S(metal)    S(lipo)     H(rot)  DE(clash)    DE(int)     intcor
     14.37     -15.84       0.96        0.00      92.93       1.45       1.02       0.45       ----

> <Gold.Chemscore.Fitness>
14.3669

> <Gold.Chemscore.DG>
-15.8413

> <Gold.Chemscore.ZeroCoef>
-5.4800

> <Gold.Chemscore.Hbond>
0.9585

> <Gold.Chemscore.Metal>
0.0000

> <Gold.Chemscore.Lipo>
92.9314

> <Gold.Chemscore.Internal_Hbond>
0.0000

> <Gold.Chemscore.DEClash>
1.0237

> <Gold.Chemscore.DEInternal>
0.4507

> <Gold.Chemscore.Rot>
1.4504

> <Gold.Chemscore.Internal.Correction>
   9.000000E+99

> <Gold.Chemscore.Hbonds>
donor molecule, donor type, donor heavy atom, donor atom, acceptor molecule, acceptor atom, score
      P1  H  7997  8009       L1    18  0.69

> <Gold.Chemscore.Hbond.Weighted>
-3.2013

> <Gold.Chemscore.Metal.Weighted>
-0.0000

> <Gold.Chemscore.Lipo.Weighted>
-10.8730

> <Gold.Chemscore.Internal_Hbond.Weighted>
0.0000

> <Gold.Chemscore.DEClash.Weighted>
1.0237

> <Gold.Chemscore.DEInternal.Weighted>
0.4507

> <Gold.Chemscore.Rot.Weighted>
3.7129

> <Gold.Chemscore.Internal.Correction.Weighted>
   9.000000E+99

> <Gold.Protein.RotatedTorsions>
[ 6907 6896 6895 6894 ] final   47.90 input  -60.11 | X-H torsion
[ 7974 7965 7964 7962 ] final  -76.67 input  175.53 | X-H torsion
[ 8008 7997 7996 7995 ] final  136.90 input   59.86 | X-H torsion
[ 10167 10162 10161 10158 ] final  -45.57 input  -65.29 | X-H torsion
[ 10718 10713 10712 10709 ] final   -9.25 input   66.30 | X-H torsion
[ 10763 10752 10751 10750 ] final  147.69 input  -60.55 | X-H torsion
[ 11005 11000 10999 10996 ] final -178.24 input  -57.11 | X-H torsion

> <Gold.Protein.ActiveResidues>
 VAL166  LYS551  ARG553  GLY616  TRP617  ASP618  TYR619  PRO620  LYS621  CYS622 
 ASP623  PHE694  ASN695  SER759  ASP760  ASP761  ALA762  ILE779  LEU786  VAL792 
 PHE793  MET794  SER795  GLU796  ALA797  LYS798  CYS799  TRP800  GLU811  SER814 

> <Gold.Protein.RotatedAtoms>
  152.2734  134.7908  160.0409 H   0  0  0  0  0  0  0  0  0  0  0  0  # atno 6907 bound_to 6896
  151.8513  133.3435  159.3682 H   0  0  0  0  0  0  0  0  0  0  0  0  # atno 6908 bound_to 6896
  150.7161  134.5224  159.5704 H   0  0  0  0  0  0  0  0  0  0  0  0  # atno 6909 bound_to 6896
  145.6098  140.9389  143.1196 H   0  0  0  0  0  0  0  0  0  0  0  0  # atno 7974 bound_to 7965
  156.3003  140.2433  156.3821 H   0  0  0  0  0  0  0  0  0  0  0  0  # atno 8008 bound_to 7997
  154.8692  140.0417  157.1733 H   0  0  0  0  0  0  0  0  0  0  0  0  # atno 8009 bound_to 7997
  154.8814  140.2950  155.5427 H   0  0  0  0  0  0  0  0  0  0  0  0  # atno 8010 bound_to 7997
  140.6853  143.2873  151.3657 H   0  0  0  0  0  0  0  0  0  0  0  0  # atno 10167 bound_to 10162
  156.6908  130.5064  149.5944 H   0  0  0  0  0  0  0  0  0  0  0  0  # atno 10718 bound_to 10713
  154.0425  135.2888  155.3353 H   0  0  0  0  0  0  0  0  0  0  0  0  # atno 10763 bound_to 10752
  154.6920  135.5222  153.8409 H   0  0  0  0  0  0  0  0  0  0  0  0  # atno 10764 bound_to 10752
  153.0594  135.6608  154.0628 H   0  0  0  0  0  0  0  0  0  0  0  0  # atno 10765 bound_to 10752
  140.4320  134.6510  157.4716 H   0  0  0  0  0  0  0  0  0  0  0  0  # atno 11005 bound_to 11000
  144.7275  139.7830  143.7359 LP  0  0  0  0  0  0  0  0  0  0  0  0  # atno 17320 bound_to 7965
  146.1513  139.4597  143.0047 LP  0  0  0  0  0  0  0  0  0  0  0  0  # atno 17321 bound_to 7965
  139.6206  144.0914  152.2387 LP  0  0  0  0  0  0  0  0  0  0  0  0  # atno 17342 bound_to 10162
  140.0358  144.6046  150.7451 LP  0  0  0  0  0  0  0  0  0  0  0  0  # atno 17343 bound_to 10162
  156.1799  130.6492  151.0939 LP  0  0  0  0  0  0  0  0  0  0  0  0  # atno 17370 bound_to 10713
  157.7010  131.0776  150.6821 LP  0  0  0  0  0  0  0  0  0  0  0  0  # atno 17371 bound_to 10713
  140.0128  134.6665  155.9355 LP  0  0  0  0  0  0  0  0  0  0  0  0  # atno 17394 bound_to 11000
  141.1741  133.6539  156.4763 LP  0  0  0  0  0  0  0  0  0  0  0  0  # atno 17395 bound_to 11000

$$$$
