AV-unprocessed.smi:2477|AV-procd|sdf|9760|dock1
  -GOLD-   2272013403D 1   1.00000     0.00000
 Structure written by MMmdl.
 51 53  0  0  0  0  0  0  0  0  1 V2000
  146.9679  132.2473  160.8670 C   0  0  0  0  0  0  0  0  0  0  0  0
  147.2425  133.6313  161.2619 N   0  0  0  0  0  0  0  0  0  0  0  0
  147.0701  133.9676  162.6153 C   0  0  0  0  0  0  0  0  0  0  0  0
  147.2978  135.2090  163.0658 C   0  0  0  0  0  0  0  0  0  0  0  0
  147.7305  136.2126  162.1231 C   0  0  0  0  0  0  0  0  0  0  0  0
  147.9120  135.9076  160.8133 C   0  0  0  0  0  0  0  0  0  0  0  0
  148.3223  136.8241  159.8293 N   0  0  0  0  0  0  0  0  0  0  0  0
  149.1881  136.6536  158.8132 C   0  0  0  0  0  0  0  0  0  0  0  0
  149.7750  135.6086  158.5332 O   0  0  0  0  0  0  0  0  0  0  0  0
  149.3299  137.7864  158.1109 N   0  0  0  0  0  0  0  0  0  0  0  0
  150.1959  137.9564  156.9463 C   0  0  1  0  0  0  0  0  0  0  0  0
  149.3805  138.5080  155.7608 C   0  0  0  0  0  0  0  0  0  0  0  0
  150.2637  138.7157  154.5204 C   0  0  0  0  0  0  0  0  0  0  0  0
  151.4646  139.6210  154.8349 C   0  0  0  0  0  0  0  0  0  0  0  0
  152.2783  139.0751  156.0196 C   0  0  0  0  0  0  0  0  0  0  0  0
  151.4006  138.8697  157.2726 C   0  0  1  0  0  0  0  0  0  0  0  0
  150.8977  140.1091  157.7645 O   0  0  0  0  0  0  0  0  0  0  0  0
  151.8773  141.0296  158.2266 C   0  0  0  0  0  0  0  0  0  0  0  0
  152.6048  140.4649  159.4451 C   0  0  0  0  0  0  0  0  0  0  0  0
  153.1520  141.6947  160.1781 C   0  0  0  0  0  0  0  0  0  0  0  0
  152.2740  142.8794  159.7426 C   0  0  0  0  0  0  0  0  0  0  0  0
  151.2389  142.3098  158.7663 C   0  0  0  0  0  0  0  0  0  0  0  0
  147.6477  134.5399  160.3250 C   0  0  0  0  0  0  0  0  0  0  0  0
  147.7822  134.2187  159.1416 O   0  0  0  0  0  0  0  0  0  0  0  0
  146.6855  131.6166  161.7106 H   0  0  0  0  0  0  0  0  0  0  0  0
  147.8489  131.7972  160.4075 H   0  0  0  0  0  0  0  0  0  0  0  0
  146.1511  132.2106  160.1448 H   0  0  0  0  0  0  0  0  0  0  0  0
  146.7448  133.1618  163.2574 H   0  0  0  0  0  0  0  0  0  0  0  0
  147.1618  135.4532  164.1091 H   0  0  0  0  0  0  0  0  0  0  0  0
  147.8856  137.2091  162.5032 H   0  0  0  0  0  0  0  0  0  0  0  0
  147.8701  137.7254  159.8835 H   0  0  0  0  0  0  0  0  0  0  0  0
  148.8115  138.5992  158.4101 H   0  0  0  0  0  0  0  0  0  0  0  0
  150.5746  136.9741  156.6567 H   0  0  0  0  0  0  0  0  0  0  0  0
  148.5657  137.8248  155.5184 H   0  0  0  0  0  0  0  0  0  0  0  0
  148.9160  139.4557  156.0368 H   0  0  0  0  0  0  0  0  0  0  0  0
  150.6192  137.7494  154.1603 H   0  0  0  0  0  0  0  0  0  0  0  0
  149.6736  139.1486  153.7121 H   0  0  0  0  0  0  0  0  0  0  0  0
  152.1034  139.7078  153.9557 H   0  0  0  0  0  0  0  0  0  0  0  0
  151.1150  140.6287  155.0627 H   0  0  0  0  0  0  0  0  0  0  0  0
  152.7204  138.1195  155.7359 H   0  0  0  0  0  0  0  0  0  0  0  0
  153.1169  139.7361  156.2364 H   0  0  0  0  0  0  0  0  0  0  0  0
  151.9968  138.3923  158.0522 H   0  0  0  0  0  0  0  0  0  0  0  0
  152.6155  141.2785  157.4614 H   0  0  0  0  0  0  0  0  0  0  0  0
  151.8930  139.9475  160.0902 H   0  0  0  0  0  0  0  0  0  0  0  0
  153.3841  139.7514  159.1753 H   0  0  0  0  0  0  0  0  0  0  0  0
  153.1388  141.5512  161.2591 H   0  0  0  0  0  0  0  0  0  0  0  0
  154.1871  141.8762  159.8858 H   0  0  0  0  0  0  0  0  0  0  0  0
  151.7941  143.3668  160.5918 H   0  0  0  0  0  0  0  0  0  0  0  0
  152.8889  143.6281  159.2417 H   0  0  0  0  0  0  0  0  0  0  0  0
  150.9710  143.0162  157.9807 H   0  0  0  0  0  0  0  0  0  0  0  0
  150.3265  142.0616  159.3104 H   0  0  0  0  0  0  0  0  0  0  0  0
  1  2  1  0  0  0  0
  1 25  1  0  0  0  0
  1 26  1  0  0  0  0
  1 27  1  0  0  0  0
  2 23  1  0  0  0  0
  2  3  1  0  0  0  0
  3  4  2  0  0  0  0
  3 28  1  0  0  0  0
  4  5  1  0  0  0  0
  4 29  1  0  0  0  0
  5  6  2  0  0  0  0
  5 30  1  0  0  0  0
  6  7  1  0  0  0  0
  6 23  1  0  0  0  0
  7  8  1  0  0  0  0
  7 31  1  0  0  0  0
  8  9  2  0  0  0  0
  8 10  1  0  0  0  0
 10 11  1  0  0  0  0
 10 32  1  0  0  0  0
 11 16  1  0  0  0  0
 11 12  1  0  0  0  0
 11 33  1  0  0  0  0
 12 13  1  0  0  0  0
 12 34  1  0  0  0  0
 12 35  1  0  0  0  0
 13 14  1  0  0  0  0
 13 36  1  0  0  0  0
 13 37  1  0  0  0  0
 14 15  1  0  0  0  0
 14 38  1  0  0  0  0
 14 39  1  0  0  0  0
 15 16  1  0  0  0  0
 15 40  1  0  0  0  0
 15 41  1  0  0  0  0
 16 17  1  0  0  0  0
 16 42  1  0  0  0  0
 17 18  1  0  0  0  0
 18 22  1  0  0  0  0
 18 19  1  0  0  0  0
 18 43  1  0  0  0  0
 19 20  1  0  0  0  0
 19 44  1  0  0  0  0
 19 45  1  0  0  0  0
 20 21  1  0  0  0  0
 20 46  1  0  0  0  0
 20 47  1  0  0  0  0
 21 22  1  0  0  0  0
 21 48  1  0  0  0  0
 21 49  1  0  0  0  0
 22 50  1  0  0  0  0
 22 51  1  0  0  0  0
 23 24  2  0  0  0  0
M  END
> <s_m_source_file>
AV-unprocessed.smi

> <i_m_source_file_index>
2477

> <i_lp_mmshare_version>
43012

> <i_f3d_flags>
0

> <s_epik_input>
W0NIM11uMVtjSF1bY0hdW2NIXWMoYzE9TylbTkhdQyg9TylbTkhdW0NAQEhdMltDSDJdW0NIMl1bQ0gyXVtDSDJdW0NASF0yT1tDSF0zW0NIMl1bQ0gyXVtDSDJdW0NIMl0z

> <s_epik_cmdline>
J2VwaWtfcHl0aG9uJywgJy1waCcsICc3LjAnLCAnLXRuJywgJzgnLCAnLW1hJywgJzIwMCcsICctbWV0YWxfYmluZGluZycsICctaW1hZScsICc8aW5maWxlLm1hZT4nLCAnLW9tYWUnLCAnPG91dGZpbGUubWFlPic=

> <r_lp_tautomer_probability>
1

> <r_epik_Ionization_Penalty>
2.40753e-05

> <r_epik_Ionization_Penalty_Charging>
4.84018e-06

> <r_epik_Ionization_Penalty_Neutral>
1.92352e-05

> <r_epik_State_Penalty>
-0

> <r_epik_Charging_Adjusted_Penalty>
4.84018e-06

> <i_epik_Tot_Q>
0

> <i_epik_Tot_abs_Q>
0

> <r_epik_Metal_State_Penalty>
-0

> <b_epik_Metal_Only>
0

> <s_lp_Force_Field>
OPLS_2005

> <r_lp_Energy>
43.088

> <b_lp_Chiralities_Consistent>
1

> <s_lp_Variant>
AV-unprocessed.smi:2477-2

> <Gold.Version>
5.8.1

> <Gold.Id.Protein>
6NUR|6NUR_protein|mol2

> <Gold.PLP.Fitness>
46.8233

> <Gold.PLP.PLP>
-44.5345

> <Gold.PLP.part.hbond>
-1.0000

> <Gold.PLP.part.metal>
0.0000

> <Gold.PLP.part.buried>
-2.6056

> <Gold.PLP.part.nonpolar>
-42.0150

> <Gold.PLP.part.repulsive>
0.3226

> <Gold.PLP.ligand.clash>
0.0000

> <Gold.PLP.ligand.torsion>
0.4079

> <Gold.PLP.Chemscore.Hbond>
0.9920

> <Gold.PLP.Chemscore.CHOScore>
0.0000

> <Gold.PLP.Chemscore.Metal>
0.0000

> <Gold.Chemscore.Hbonds>
donor molecule, donor type, donor heavy atom, donor atom, acceptor molecule, acceptor atom, score
      P1  H  6896  6907       L1     9  1.00

> <Gold.PLP.Chemscore.Internal.Correction>
0.1285

> <Gold.Rescore>
     Score         DG    S(hbond)    S(metal)    S(lipo)     H(rot)  DE(clash)    DE(int)     intcor
     16.36     -19.26       0.99        0.00     119.17       1.36       0.05       2.86       ----

> <Gold.Chemscore.Fitness>
16.3555

> <Gold.Chemscore.DG>
-19.2619

> <Gold.Chemscore.ZeroCoef>
-5.4800

> <Gold.Chemscore.Hbond>
0.9915

> <Gold.Chemscore.Metal>
0.0000

> <Gold.Chemscore.Lipo>
119.1688

> <Gold.Chemscore.Internal_Hbond>
0.0000

> <Gold.Chemscore.DEClash>
0.0480

> <Gold.Chemscore.DEInternal>
2.8584

> <Gold.Chemscore.Rot>
1.3564

> <Gold.Chemscore.Internal.Correction>
   9.000000E+99

> <Gold.Chemscore.Hbonds>
donor molecule, donor type, donor heavy atom, donor atom, acceptor molecule, acceptor atom, score
      P1  H  6896  6907       L1     9  0.97

> <Gold.Chemscore.Hbond.Weighted>
-3.3115

> <Gold.Chemscore.Metal.Weighted>
-0.0000

> <Gold.Chemscore.Lipo.Weighted>
-13.9428

> <Gold.Chemscore.Internal_Hbond.Weighted>
0.0000

> <Gold.Chemscore.DEClash.Weighted>
0.0480

> <Gold.Chemscore.DEInternal.Weighted>
2.8584

> <Gold.Chemscore.Rot.Weighted>
3.4724

> <Gold.Chemscore.Internal.Correction.Weighted>
   9.000000E+99

> <Gold.Protein.RotatedTorsions>
[ 6907 6896 6895 6894 ] final  -78.36 input  -60.11 | X-H torsion
[ 7974 7965 7964 7962 ] final   58.45 input  175.53 | X-H torsion
[ 8008 7997 7996 7995 ] final   83.77 input   59.86 | X-H torsion
[ 10167 10162 10161 10158 ] final  107.36 input  -65.29 | X-H torsion
[ 10718 10713 10712 10709 ] final  129.68 input   66.30 | X-H torsion
[ 10763 10752 10751 10750 ] final -146.73 input  -60.55 | X-H torsion
[ 11005 11000 10999 10996 ] final -121.45 input  -57.11 | X-H torsion

> <Gold.Protein.ActiveResidues>
 VAL166  LYS551  ARG553  GLY616  TRP617  ASP618  TYR619  PRO620  LYS621  CYS622 
 ASP623  PHE694  ASN695  SER759  ASP760  ASP761  ALA762  ILE779  LEU786  VAL792 
 PHE793  MET794  SER795  GLU796  ALA797  LYS798  CYS799  TRP800  GLU811  SER814 

> <Gold.Protein.RotatedAtoms>
  150.6975  134.4284  159.5236 H   0  0  0  0  0  0  0  0  0  0  0  0  # atno 6907 bound_to 6896
  152.2015  134.8581  160.0516 H   0  0  0  0  0  0  0  0  0  0  0  0  # atno 6908 bound_to 6896
  151.9500  133.3628  159.4033 H   0  0  0  0  0  0  0  0  0  0  0  0  # atno 6909 bound_to 6896
  145.9181  139.3707  143.0495 H   0  0  0  0  0  0  0  0  0  0  0  0  # atno 7974 bound_to 7965
  155.9283  140.3416  155.6228 H   0  0  0  0  0  0  0  0  0  0  0  0  # atno 8008 bound_to 7997
  155.7189  140.0781  157.2358 H   0  0  0  0  0  0  0  0  0  0  0  0  # atno 8009 bound_to 7997
  154.4081  140.1609  156.2367 H   0  0  0  0  0  0  0  0  0  0  0  0  # atno 8010 bound_to 7997
  139.6933  144.7105  151.1311 H   0  0  0  0  0  0  0  0  0  0  0  0  # atno 10167 bound_to 10162
  157.5132  131.1097  150.9263 H   0  0  0  0  0  0  0  0  0  0  0  0  # atno 10718 bound_to 10713
  154.8321  135.3378  154.6708 H   0  0  0  0  0  0  0  0  0  0  0  0  # atno 10763 bound_to 10752
  153.7327  135.6951  153.4990 H   0  0  0  0  0  0  0  0  0  0  0  0  # atno 10764 bound_to 10752
  153.2301  135.4419  155.0537 H   0  0  0  0  0  0  0  0  0  0  0  0  # atno 10765 bound_to 10752
  141.0069  134.0322  157.3465 H   0  0  0  0  0  0  0  0  0  0  0  0  # atno 11005 bound_to 11000
  145.8586  140.9488  143.0712 LP  0  0  0  0  0  0  0  0  0  0  0  0  # atno 17320 bound_to 7965
  144.6750  140.0500  143.7479 LP  0  0  0  0  0  0  0  0  0  0  0  0  # atno 17321 bound_to 7965
  140.7689  143.5528  150.9185 LP  0  0  0  0  0  0  0  0  0  0  0  0  # atno 17342 bound_to 10162
  139.9206  143.6610  152.3097 LP  0  0  0  0  0  0  0  0  0  0  0  0  # atno 17343 bound_to 10162
  156.9897  130.5558  149.5302 LP  0  0  0  0  0  0  0  0  0  0  0  0  # atno 17370 bound_to 10713
  156.0303  130.5394  150.8515 LP  0  0  0  0  0  0  0  0  0  0  0  0  # atno 17371 bound_to 10713
  139.9068  135.0181  156.7521 LP  0  0  0  0  0  0  0  0  0  0  0  0  # atno 17394 bound_to 11000
  140.6798  133.9484  155.7904 LP  0  0  0  0  0  0  0  0  0  0  0  0  # atno 17395 bound_to 11000

$$$$
