AV-unprocessed.smi:219|AV-procd|sdf|1680|dock2
  -GOLD-   2262020113D 1   1.00000     0.00000
 Structure written by MMmdl.
 50 53  0  0  0  0  0  0  0  0  1 V2000
  148.8008  138.7826  153.1386 N   0  0  0  0  0  0  0  0  0  0  0  0
  148.3019  139.1046  154.3345 C   0  0  0  0  0  0  0  0  0  0  0  0
  147.7254  138.2839  155.0450 O   0  0  0  0  0  0  0  0  0  0  0  0
  148.4760  140.5587  154.7929 C   0  0  0  0  0  0  0  0  0  0  0  0
  149.0103  140.7444  156.2438 C   0  0  2  0  0  0  0  0  0  0  0  0
  148.6626  142.1723  156.7249 C   0  0  0  0  0  0  0  0  0  0  0  0
  149.1759  142.4466  158.1448 C   0  0  0  0  0  0  0  0  0  0  0  0
  150.6824  142.1769  158.2158 C   0  0  0  0  0  0  0  0  0  0  0  0
  150.9874  140.7489  157.7457 C   0  0  0  0  0  0  0  0  0  0  0  0
  150.4592  140.5077  156.4012 N   0  0  0  0  0  0  0  0  0  0  0  0
  150.9456  139.3600  155.8766 C   0  0  0  0  0  0  0  0  0  0  0  0
  151.6610  139.3881  154.7210 N   0  0  0  0  0  0  0  0  0  0  0  0
  152.1613  138.2543  154.2204 C   0  0  0  0  0  0  0  0  0  0  0  0
  152.0630  137.0132  154.7027 N   0  0  0  0  0  0  0  0  0  0  0  0
  151.3396  136.9851  155.8591 C   0  0  0  0  0  0  0  0  0  0  0  0
  150.7510  138.1048  156.5093 C   0  0  0  0  0  0  0  0  0  0  0  0
  150.1043  137.7005  157.6694 N   0  0  0  0  0  0  0  0  0  0  0  0
  150.2961  136.4099  157.7018 C   0  0  0  0  0  0  0  0  0  0  0  0
  151.0187  135.8942  156.6487 N   0  0  0  0  0  0  0  0  0  0  0  0
  151.3738  134.4990  156.4367 C   0  0  0  0  0  0  0  0  0  0  0  0
  150.1531  133.5480  156.3905 C   0  0  2  0  0  0  0  0  0  0  0  0
  149.5786  133.4781  157.6835 O   0  0  0  0  0  0  0  0  0  0  0  0
  150.5291  132.1356  155.9373 C   0  0  0  0  0  0  0  0  0  0  0  0
  149.9218  132.0319  154.5434 C   0  0  0  0  0  0  0  0  0  0  0  0
  148.7351  132.7951  154.6651 O   0  0  0  0  0  0  0  0  0  0  0  0
  149.0720  133.9764  155.3775 C   0  0  0  0  0  0  0  0  0  0  0  0
  148.7102  137.8364  152.7974 H   0  0  0  0  0  0  0  0  0  0  0  0
  149.2671  139.4830  152.5807 H   0  0  0  0  0  0  0  0  0  0  0  0
  149.1006  141.1114  154.0893 H   0  0  0  0  0  0  0  0  0  0  0  0
  147.4830  141.0029  154.7153 H   0  0  0  0  0  0  0  0  0  0  0  0
  148.4954  140.0448  156.9041 H   0  0  0  0  0  0  0  0  0  0  0  0
  149.0942  142.9036  156.0396 H   0  0  0  0  0  0  0  0  0  0  0  0
  147.5832  142.3254  156.6984 H   0  0  0  0  0  0  0  0  0  0  0  0
  148.9637  143.4772  158.4302 H   0  0  0  0  0  0  0  0  0  0  0  0
  148.6514  141.8085  158.8570 H   0  0  0  0  0  0  0  0  0  0  0  0
  151.2168  142.8926  157.5896 H   0  0  0  0  0  0  0  0  0  0  0  0
  151.0430  142.3213  159.2344 H   0  0  0  0  0  0  0  0  0  0  0  0
  152.0661  140.5847  157.7562 H   0  0  0  0  0  0  0  0  0  0  0  0
  150.5490  140.0343  158.4442 H   0  0  0  0  0  0  0  0  0  0  0  0
  152.7225  138.3572  153.3034 H   0  0  0  0  0  0  0  0  0  0  0  0
  149.9082  135.7923  158.4991 H   0  0  0  0  0  0  0  0  0  0  0  0
  151.9377  134.4266  155.5056 H   0  0  0  0  0  0  0  0  0  0  0  0
  152.0586  134.1977  157.2307 H   0  0  0  0  0  0  0  0  0  0  0  0
  148.7990  132.9460  157.6347 H   0  0  0  0  0  0  0  0  0  0  0  0
  151.6039  131.9505  155.9355 H   0  0  0  0  0  0  0  0  0  0  0  0
  150.0701  131.3820  156.5796 H   0  0  0  0  0  0  0  0  0  0  0  0
  150.5758  132.4824  153.7950 H   0  0  0  0  0  0  0  0  0  0  0  0
  149.7132  131.0033  154.2488 H   0  0  0  0  0  0  0  0  0  0  0  0
  148.1938  134.4303  155.8386 H   0  0  0  0  0  0  0  0  0  0  0  0
  149.4696  134.6896  154.6552 H   0  0  0  0  0  0  0  0  0  0  0  0
  1  2  1  0  0  0  0
  1 27  1  0  0  0  0
  1 28  1  0  0  0  0
  2  3  2  0  0  0  0
  2  4  1  0  0  0  0
  4  5  1  0  0  0  0
  4 29  1  0  0  0  0
  4 30  1  0  0  0  0
  5 10  1  0  0  0  0
  5  6  1  0  0  0  0
  5 31  1  0  0  0  0
  6  7  1  0  0  0  0
  6 32  1  0  0  0  0
  6 33  1  0  0  0  0
  7  8  1  0  0  0  0
  7 34  1  0  0  0  0
  7 35  1  0  0  0  0
  8  9  1  0  0  0  0
  8 36  1  0  0  0  0
  8 37  1  0  0  0  0
  9 10  1  0  0  0  0
  9 38  1  0  0  0  0
  9 39  1  0  0  0  0
 10 11  1  0  0  0  0
 11 16  1  0  0  0  0
 11 12  2  0  0  0  0
 12 13  1  0  0  0  0
 13 14  2  0  0  0  0
 13 40  1  0  0  0  0
 14 15  1  0  0  0  0
 15 19  1  0  0  0  0
 15 16  2  0  0  0  0
 16 17  1  0  0  0  0
 17 18  2  0  0  0  0
 18 19  1  0  0  0  0
 18 41  1  0  0  0  0
 19 20  1  0  0  0  0
 20 21  1  0  0  0  0
 20 42  1  0  0  0  0
 20 43  1  0  0  0  0
 21 26  1  0  0  0  0
 21 22  1  0  0  0  0
 21 23  1  0  0  0  0
 22 44  1  0  0  0  0
 23 24  1  0  0  0  0
 23 45  1  0  0  0  0
 23 46  1  0  0  0  0
 24 25  1  0  0  0  0
 24 47  1  0  0  0  0
 24 48  1  0  0  0  0
 25 26  1  0  0  0  0
 26 49  1  0  0  0  0
 26 50  1  0  0  0  0
M  END
> <s_m_source_file>
AV-unprocessed.smi

> <i_m_source_file_index>
219

> <i_lp_mmshare_version>
43012

> <i_f3d_flags>
0

> <s_epik_input>
W05IMl1DKD1PKVtDSDJdW0NAQEhdMVtDSDJdW0NIMl1bQ0gyXVtDSDJdTjFjKG5bY0hdbjIpYyhjMjMpbltjSF1uM1tDSDJdW0NAQF00KFtPSF0pW0NIMl1bQ0gyXU9bQ0gyXTQ=

> <s_epik_cmdline>
J2VwaWtfcHl0aG9uJywgJy1waCcsICc3LjAnLCAnLXRuJywgJzgnLCAnLW1hJywgJzIwMCcsICctbWV0YWxfYmluZGluZycsICctaW1hZScsICc8aW5maWxlLm1hZT4nLCAnLW9tYWUnLCAnPG91dGZpbGUubWFlPic=

> <r_lp_tautomer_probability>
1

> <r_epik_Ionization_Penalty>
0.00228532

> <r_epik_Ionization_Penalty_Charging>
0

> <r_epik_Ionization_Penalty_Neutral>
0.00228532

> <r_epik_State_Penalty>
0.00140978

> <r_epik_Charging_Adjusted_Penalty>
0.00140978

> <i_epik_Tot_Q>
0

> <i_epik_Tot_abs_Q>
0

> <r_epik_Metal_State_Penalty>
-0

> <b_epik_Metal_Only>
0

> <s_lp_Force_Field>
OPLS_2005

> <r_lp_Energy>
33.6932

> <b_lp_Chiralities_Consistent>
1

> <s_lp_Variant>
AV-unprocessed.smi:219-3

> <Gold.Version>
5.8.1

> <Gold.Id.Protein>
6NUR|6NUR_protein|mol2

> <Gold.PLP.Fitness>
42.9715

> <Gold.PLP.PLP>
-28.8370

> <Gold.PLP.part.hbond>
-4.9643

> <Gold.PLP.part.metal>
0.0000

> <Gold.PLP.part.buried>
-4.7636

> <Gold.PLP.part.nonpolar>
-20.5809

> <Gold.PLP.part.repulsive>
0.3881

> <Gold.PLP.ligand.clash>
0.0000

> <Gold.PLP.ligand.torsion>
0.5590

> <Gold.PLP.Chemscore.Hbond>
4.9920

> <Gold.PLP.Chemscore.CHOScore>
0.0000

> <Gold.PLP.Chemscore.Metal>
0.0000

> <Gold.Chemscore.Hbonds>
donor molecule, donor type, donor heavy atom, donor atom, acceptor molecule, acceptor atom, score
      L1  H     1    27       P1  7948  1.00
      L1  H     1    28       P1  7957  0.94
      P1  H  6896  6909       L1    22  0.98
      P1  H  7989  7998       L1    12  1.00
      P1  H 10752 10765       L1    14  0.96

> <Gold.PLP.Chemscore.Internal.Correction>
0.2765

> <Gold.Rescore>
     Score         DG    S(hbond)    S(metal)    S(lipo)     H(rot)  DE(clash)    DE(int)     intcor
     16.96     -19.34       4.69        0.00      58.27       3.37       1.49       0.88       ----

> <Gold.Chemscore.Fitness>
16.9599

> <Gold.Chemscore.DG>
-19.3351

> <Gold.Chemscore.ZeroCoef>
-5.4800

> <Gold.Chemscore.Hbond>
4.6897

> <Gold.Chemscore.Metal>
0.0000

> <Gold.Chemscore.Lipo>
58.2725

> <Gold.Chemscore.Internal_Hbond>
0.0000

> <Gold.Chemscore.DEClash>
1.4948

> <Gold.Chemscore.DEInternal>
0.8803

> <Gold.Chemscore.Rot>
3.3697

> <Gold.Chemscore.Internal.Correction>
   9.000000E+99

> <Gold.Chemscore.Hbonds>
donor molecule, donor type, donor heavy atom, donor atom, acceptor molecule, acceptor atom, score
      L1  H     1    27       P1  7948  1.00
      L1  H     1    28       P1  7957  0.89
      P1  H  6896  6909       L1    22  0.83
      P1  H  7989  7998       L1    12  0.86
      P1  H 10752 10765       L1    14  0.83

> <Gold.Chemscore.Hbond.Weighted>
-15.6636

> <Gold.Chemscore.Metal.Weighted>
-0.0000

> <Gold.Chemscore.Lipo.Weighted>
-6.8179

> <Gold.Chemscore.Internal_Hbond.Weighted>
0.0000

> <Gold.Chemscore.DEClash.Weighted>
1.4948

> <Gold.Chemscore.DEInternal.Weighted>
0.8803

> <Gold.Chemscore.Rot.Weighted>
8.6264

> <Gold.Chemscore.Internal.Correction.Weighted>
   9.000000E+99

> <Gold.Protein.RotatedTorsions>
[ 6907 6896 6895 6894 ] final  -11.15 input  -60.11 | X-H torsion
[ 7974 7965 7964 7962 ] final  -27.37 input  175.53 | X-H torsion
[ 8008 7997 7996 7995 ] final -155.37 input   59.86 | X-H torsion
[ 10167 10162 10161 10158 ] final -165.41 input  -65.29 | X-H torsion
[ 10718 10713 10712 10709 ] final   71.06 input   66.30 | X-H torsion
[ 10763 10752 10751 10750 ] final  169.10 input  -60.55 | X-H torsion
[ 11005 11000 10999 10996 ] final -128.43 input  -57.11 | X-H torsion

> <Gold.Protein.ActiveResidues>
 VAL166  LYS551  ARG553  GLY616  TRP617  ASP618  TYR619  PRO620  LYS621  CYS622 
 ASP623  PHE694  ASN695  SER759  ASP760  ASP761  ALA762  ILE779  LEU786  VAL792 
 PHE793  MET794  SER795  GLU796  ALA797  LYS798  CYS799  TRP800  GLU811  SER814 

> <Gold.Protein.RotatedAtoms>
  151.3908  135.0955  159.9525 H   0  0  0  0  0  0  0  0  0  0  0  0  # atno 6907 bound_to 6896
  152.5080  133.8982  159.7438 H   0  0  0  0  0  0  0  0  0  0  0  0  # atno 6908 bound_to 6896
  150.9435  133.6574  159.2814 H   0  0  0  0  0  0  0  0  0  0  0  0  # atno 6909 bound_to 6896
  146.1362  140.5143  142.8672 H   0  0  0  0  0  0  0  0  0  0  0  0  # atno 7974 bound_to 7965
  155.7008  140.0766  157.2411 H   0  0  0  0  0  0  0  0  0  0  0  0  # atno 8008 bound_to 7997
  154.4073  140.1648  156.2241 H   0  0  0  0  0  0  0  0  0  0  0  0  # atno 8009 bound_to 7997
  155.9370  140.3387  155.6298 H   0  0  0  0  0  0  0  0  0  0  0  0  # atno 8010 bound_to 7997
  139.6184  144.0674  152.1909 H   0  0  0  0  0  0  0  0  0  0  0  0  # atno 10167 bound_to 10162
  157.6432  130.9509  150.0737 H   0  0  0  0  0  0  0  0  0  0  0  0  # atno 10718 bound_to 10713
  154.3782  135.2753  155.2227 H   0  0  0  0  0  0  0  0  0  0  0  0  # atno 10763 bound_to 10752
  154.4345  135.5969  153.6093 H   0  0  0  0  0  0  0  0  0  0  0  0  # atno 10764 bound_to 10752
  152.9835  135.6003  154.4021 H   0  0  0  0  0  0  0  0  0  0  0  0  # atno 10765 bound_to 10752
  140.9516  134.1057  157.4056 H   0  0  0  0  0  0  0  0  0  0  0  0  # atno 11005 bound_to 11000
  144.7742  140.5704  143.6649 LP  0  0  0  0  0  0  0  0  0  0  0  0  # atno 17320 bound_to 7965
  145.5150  139.1478  143.3583 LP  0  0  0  0  0  0  0  0  0  0  0  0  # atno 17321 bound_to 7965
  140.0310  144.6081  150.7488 LP  0  0  0  0  0  0  0  0  0  0  0  0  # atno 17342 bound_to 10162
  140.7366  143.2755  151.3756 LP  0  0  0  0  0  0  0  0  0  0  0  0  # atno 17343 bound_to 10162
  156.1734  130.3647  149.9134 LP  0  0  0  0  0  0  0  0  0  0  0  0  # atno 17370 bound_to 10713
  156.7104  130.8968  151.3609 LP  0  0  0  0  0  0  0  0  0  0  0  0  # atno 17371 bound_to 10713
  139.8849  135.0067  156.6401 LP  0  0  0  0  0  0  0  0  0  0  0  0  # atno 17394 bound_to 11000
  140.7594  133.8830  155.8406 LP  0  0  0  0  0  0  0  0  0  0  0  0  # atno 17395 bound_to 11000

$$$$
