AV-unprocessed.smi:67|AV-procd|sdf|638|dock10
  -GOLD-   2262016533D 1   1.00000     0.00000
 Structure written by MMmdl.
 48 50  0  0  0  0  0  0  0  0  2 V2000
  149.5092  140.8113  153.3850 O   0  0  0  0  0  0  0  0  0  0  0  0
  148.3579  140.5497  154.1643 C   0  0  2  0  0  0  0  0  0  0  0  0
  148.7883  140.1742  155.6076 C   0  0  0  0  0  0  0  0  0  0  0  0
  149.4252  141.2779  156.3817 N   0  3  2  0  0  0  0  0  0  0  0  0
  150.8459  141.4735  155.9874 C   0  0  0  0  0  0  0  0  0  0  0  0
  151.4691  142.6956  156.6835 C   0  0  0  0  0  0  0  0  0  0  0  0
  151.3484  142.5983  158.2162 C   0  0  2  0  0  0  0  0  0  0  0  0
  152.1026  141.5019  158.7291 O   0  0  0  0  0  0  0  0  0  0  0  0
  152.6933  141.5895  159.9733 C   0  0  0  0  0  0  0  0  0  0  0  0
  152.3321  142.6986  160.7645 C   0  0  0  0  0  0  0  0  0  0  0  0
  152.8816  142.8789  162.0471 C   0  0  0  0  0  0  0  0  0  0  0  0
  153.8060  141.9479  162.5544 C   0  0  0  0  0  0  0  0  0  0  0  0
  154.1865  140.8330  161.7775 C   0  0  0  0  0  0  0  0  0  0  0  0
  155.1795  139.8109  162.3109 C   0  0  0  0  0  0  0  0  0  0  0  0
  156.2671  139.7838  161.5402 F   0  0  0  0  0  0  0  0  0  0  0  0
  155.5576  140.0945  163.5578 F   0  0  0  0  0  0  0  0  0  0  0  0
  154.6148  138.6041  162.2990 F   0  0  0  0  0  0  0  0  0  0  0  0
  153.6258  140.6568  160.4938 C   0  0  0  0  0  0  0  0  0  0  0  0
  149.8779  142.3649  158.5884 C   0  0  0  0  0  0  0  0  0  0  0  0
  149.2862  141.1475  157.8571 C   0  0  0  0  0  0  0  0  0  0  0  0
  147.4459  139.5066  153.4869 C   0  0  0  0  0  0  0  0  0  0  0  0
  146.2464  140.3042  152.9794 C   0  0  0  0  0  0  0  0  0  0  0  0
  146.1468  141.4419  153.8770 N   0  0  0  0  0  0  0  0  0  0  0  0
  147.5192  141.8453  154.1435 C   0  0  0  0  0  0  0  0  0  0  0  0
  149.5667  140.1613  152.7011 H   0  0  0  0  0  0  0  0  0  0  0  0
  147.9545  139.7513  156.1708 H   0  0  0  0  0  0  0  0  0  0  0  0
  149.5220  139.3713  155.5197 H   0  0  0  0  0  0  0  0  0  0  0  0
  151.4165  140.5741  156.2249 H   0  0  0  0  0  0  0  0  0  0  0  0
  150.9141  141.6136  154.9079 H   0  0  0  0  0  0  0  0  0  0  0  0
  152.5104  142.7979  156.3797 H   0  0  0  0  0  0  0  0  0  0  0  0
  150.9651  143.5999  156.3400 H   0  0  0  0  0  0  0  0  0  0  0  0
  151.6583  143.5300  158.6899 H   0  0  0  0  0  0  0  0  0  0  0  0
  151.6241  143.4202  160.3837 H   0  0  0  0  0  0  0  0  0  0  0  0
  152.5932  143.7324  162.6427 H   0  0  0  0  0  0  0  0  0  0  0  0
  154.2169  142.0968  163.5418 H   0  0  0  0  0  0  0  0  0  0  0  0
  153.9287  139.7896  159.9285 H   0  0  0  0  0  0  0  0  0  0  0  0
  149.7829  142.2344  159.6670 H   0  0  0  0  0  0  0  0  0  0  0  0
  149.2960  143.2527  158.3365 H   0  0  0  0  0  0  0  0  0  0  0  0
  148.2383  141.0736  158.1387 H   0  0  0  0  0  0  0  0  0  0  0  0
  149.7713  140.2293  158.1922 H   0  0  0  0  0  0  0  0  0  0  0  0
  147.9423  138.9557  152.6868 H   0  0  0  0  0  0  0  0  0  0  0  0
  147.0890  138.7734  154.2110 H   0  0  0  0  0  0  0  0  0  0  0  0
  146.4390  140.6524  151.9636 H   0  0  0  0  0  0  0  0  0  0  0  0
  145.3286  139.7160  152.9613 H   0  0  0  0  0  0  0  0  0  0  0  0
  145.7277  141.1289  154.7466 H   0  0  0  0  0  0  0  0  0  0  0  0
  147.5960  142.4162  155.0692 H   0  0  0  0  0  0  0  0  0  0  0  0
  147.8516  142.5042  153.3392 H   0  0  0  0  0  0  0  0  0  0  0  0
  148.9410  142.1241  156.1175 H   0  0  0  0  0  0  0  0  0  0  0  0
  1  2  1  0  0  0  0
  1 25  1  0  0  0  0
  2 24  1  0  0  0  0
  2  3  1  0  0  0  0
  2 21  1  0  0  0  0
  3  4  1  0  0  0  0
  3 26  1  0  0  0  0
  3 27  1  0  0  0  0
  4 20  1  0  0  0  0
  4  5  1  0  0  0  0
  4 48  1  0  0  0  0
  5  6  1  0  0  0  0
  5 28  1  0  0  0  0
  5 29  1  0  0  0  0
  6  7  1  0  0  0  0
  6 30  1  0  0  0  0
  6 31  1  0  0  0  0
  7  8  1  0  0  0  0
  7 19  1  0  0  0  0
  7 32  1  0  0  0  0
  8  9  1  0  0  0  0
  9 18  1  0  0  0  0
  9 10  2  0  0  0  0
 10 11  1  0  0  0  0
 10 33  1  0  0  0  0
 11 12  2  0  0  0  0
 11 34  1  0  0  0  0
 12 13  1  0  0  0  0
 12 35  1  0  0  0  0
 13 14  1  0  0  0  0
 13 18  2  0  0  0  0
 14 15  1  0  0  0  0
 14 16  1  0  0  0  0
 14 17  1  0  0  0  0
 18 36  1  0  0  0  0
 19 20  1  0  0  0  0
 19 37  1  0  0  0  0
 19 38  1  0  0  0  0
 20 39  1  0  0  0  0
 20 40  1  0  0  0  0
 21 22  1  0  0  0  0
 21 41  1  0  0  0  0
 21 42  1  0  0  0  0
 22 23  1  0  0  0  0
 22 43  1  0  0  0  0
 22 44  1  0  0  0  0
 23 24  1  0  0  0  0
 23 45  1  0  0  0  0
 24 46  1  0  0  0  0
 24 47  1  0  0  0  0
M  CHG  1   4   1
M  END
> <s_m_source_file>
AV-unprocessed.smi

> <i_m_source_file_index>
67

> <i_lp_mmshare_version>
43012

> <i_f3d_flags>
0

> <s_epik_input>
W0NIMl0xW05IXVtDSDJdW0NIMl1bQ0BAXTEoW09IXSlbQ0gyXU4yW0NIMl1bQ0gyXVtDSF0oW0NIMl1bQ0gyXTIpT2MzW2NIXVtjSF1bY0hdYyhDKEYpKEYpRilbY0hdMw==

> <s_epik_cmdline>
J2VwaWtfcHl0aG9uJywgJy1waCcsICc3LjAnLCAnLXRuJywgJzgnLCAnLW1hJywgJzIwMCcsICctbWV0YWxfYmluZGluZycsICctaW1hZScsICc8aW5maWxlLm1hZT4nLCAnLW9tYWUnLCAnPG91dGZpbGUubWFlPic=

> <r_epik_Ionization_Penalty>
2.37709

> <r_epik_Ionization_Penalty_Charging>
0.0305656

> <r_epik_Ionization_Penalty_Neutral>
2.34653

> <r_epik_State_Penalty>
2.56959

> <r_epik_Charging_Adjusted_Penalty>
2.60016

> <i_epik_Tot_Q>
1

> <i_epik_Tot_abs_Q>
1

> <r_epik_Metal_State_Penalty>
2.56925

> <b_epik_Metal_Only>
0

> <s_lp_Force_Field>
OPLS_2005

> <r_lp_Energy>
52.4549

> <b_lp_Chiralities_Consistent>
1

> <s_lp_Variant>
AV-unprocessed.smi:67-10

> <Gold.Version>
5.8.1

> <Gold.Id.Protein>
6NUR|6NUR_protein|mol2

> <Gold.PLP.Fitness>
48.1760

> <Gold.PLP.PLP>
-44.4143

> <Gold.PLP.part.hbond>
-3.3101

> <Gold.PLP.part.metal>
0.0000

> <Gold.PLP.part.buried>
-0.8433

> <Gold.PLP.part.nonpolar>
-40.6669

> <Gold.PLP.part.repulsive>
0.0421

> <Gold.PLP.ligand.clash>
0.9598

> <Gold.PLP.ligand.torsion>
0.8527

> <Gold.PLP.Chemscore.Hbond>
1.9252

> <Gold.PLP.Chemscore.CHOScore>
0.0000

> <Gold.PLP.Chemscore.Metal>
0.0000

> <Gold.Chemscore.Hbonds>
donor molecule, donor type, donor heavy atom, donor atom, acceptor molecule, acceptor atom, score
      L1  H     1    25       P1  7957  0.82
      P1  H  7989  7998       L1     1  0.11
      P1  H  8011  8017       L1     1  0.95

> <Gold.PLP.Chemscore.Internal.Correction>
0.6513

> <Gold.Rescore>
     Score         DG    S(hbond)    S(metal)    S(lipo)     H(rot)  DE(clash)    DE(int)     intcor
     16.76     -21.63       1.72        0.00     136.55       2.17       3.77       1.10       ----

> <Gold.Chemscore.Fitness>
16.7619

> <Gold.Chemscore.DG>
-21.6321

> <Gold.Chemscore.ZeroCoef>
-5.4800

> <Gold.Chemscore.Hbond>
1.7185

> <Gold.Chemscore.Metal>
0.0000

> <Gold.Chemscore.Lipo>
136.5489

> <Gold.Chemscore.Internal_Hbond>
0.0000

> <Gold.Chemscore.DEClash>
3.7697

> <Gold.Chemscore.DEInternal>
1.1004

> <Gold.Chemscore.Rot>
2.1734

> <Gold.Chemscore.Internal.Correction>
   9.000000E+99

> <Gold.Chemscore.Hbonds>
donor molecule, donor type, donor heavy atom, donor atom, acceptor molecule, acceptor atom, score
      L1  H     1    25       P1  7957  0.77
      P1  H  8011  8017       L1     1  0.21

> <Gold.Chemscore.Hbond.Weighted>
-5.7399

> <Gold.Chemscore.Metal.Weighted>
-0.0000

> <Gold.Chemscore.Lipo.Weighted>
-15.9762

> <Gold.Chemscore.Internal_Hbond.Weighted>
0.0000

> <Gold.Chemscore.DEClash.Weighted>
3.7697

> <Gold.Chemscore.DEInternal.Weighted>
1.1004

> <Gold.Chemscore.Rot.Weighted>
5.5640

> <Gold.Chemscore.Internal.Correction.Weighted>
   9.000000E+99

> <Gold.Protein.RotatedTorsions>
[ 6907 6896 6895 6894 ] final -159.10 input  -60.11 | X-H torsion
[ 7974 7965 7964 7962 ] final  159.34 input  175.53 | X-H torsion
[ 8008 7997 7996 7995 ] final -115.07 input   59.86 | X-H torsion
[ 10167 10162 10161 10158 ] final  -39.21 input  -65.29 | X-H torsion
[ 10718 10713 10712 10709 ] final -103.84 input   66.30 | X-H torsion
[ 10763 10752 10751 10750 ] final  -44.26 input  -60.55 | X-H torsion
[ 11005 11000 10999 10996 ] final   91.04 input  -57.11 | X-H torsion

> <Gold.Protein.ActiveResidues>
 VAL166  LYS551  ARG553  GLY616  TRP617  ASP618  TYR619  PRO620  LYS621  CYS622 
 ASP623  PHE694  ASN695  SER759  ASP760  ASP761  ALA762  ILE779  LEU786  VAL792 
 PHE793  MET794  SER795  GLU796  ALA797  LYS798  CYS799  TRP800  GLU811  SER814 

> <Gold.Protein.RotatedAtoms>
  151.3284  133.4010  159.2660 H   0  0  0  0  0  0  0  0  0  0  0  0  # atno 6907 bound_to 6896
  150.9976  134.9296  159.7945 H   0  0  0  0  0  0  0  0  0  0  0  0  # atno 6908 bound_to 6896
  152.5265  134.3249  159.9214 H   0  0  0  0  0  0  0  0  0  0  0  0  # atno 6909 bound_to 6896
  144.7795  139.7604  143.6265 H   0  0  0  0  0  0  0  0  0  0  0  0  # atno 7974 bound_to 7965
  155.0463  140.0392  157.2527 H   0  0  0  0  0  0  0  0  0  0  0  0  # atno 8008 bound_to 7997
  154.7175  140.2705  155.6548 H   0  0  0  0  0  0  0  0  0  0  0  0  # atno 8009 bound_to 7997
  156.2807  140.2709  156.1836 H   0  0  0  0  0  0  0  0  0  0  0  0  # atno 8010 bound_to 7997
  140.7070  143.3228  151.2751 H   0  0  0  0  0  0  0  0  0  0  0  0  # atno 10167 bound_to 10162
  156.0281  130.5486  150.7311 H   0  0  0  0  0  0  0  0  0  0  0  0  # atno 10718 bound_to 10713
  154.0091  135.6684  153.4764 H   0  0  0  0  0  0  0  0  0  0  0  0  # atno 10763 bound_to 10752
  153.0629  135.5017  154.8130 H   0  0  0  0  0  0  0  0  0  0  0  0  # atno 10764 bound_to 10752
  154.7007  135.3078  154.9309 H   0  0  0  0  0  0  0  0  0  0  0  0  # atno 10765 bound_to 10752
  139.8845  134.8650  156.3371 H   0  0  0  0  0  0  0  0  0  0  0  0  # atno 11005 bound_to 11000
  146.1995  139.5282  142.9752 LP  0  0  0  0  0  0  0  0  0  0  0  0  # atno 17320 bound_to 7965
  145.6090  141.0343  143.1977 LP  0  0  0  0  0  0  0  0  0  0  0  0  # atno 17321 bound_to 7965
  139.6687  144.0058  152.2739 LP  0  0  0  0  0  0  0  0  0  0  0  0  # atno 17342 bound_to 10162
  139.9650  144.6532  150.8043 LP  0  0  0  0  0  0  0  0  0  0  0  0  # atno 17343 bound_to 10162
  157.4903  131.0910  151.0434 LP  0  0  0  0  0  0  0  0  0  0  0  0  # atno 17370 bound_to 10713
  157.0843  130.5916  149.5426 LP  0  0  0  0  0  0  0  0  0  0  0  0  # atno 17371 bound_to 10713
  140.9684  133.7343  156.0499 LP  0  0  0  0  0  0  0  0  0  0  0  0  # atno 17394 bound_to 11000
  140.7902  134.3626  157.5466 LP  0  0  0  0  0  0  0  0  0  0  0  0  # atno 17395 bound_to 11000

$$$$
