AV-unprocessed.smi:2003|AV-procd|sdf|8120|dock4
  -GOLD-   2272010353D 1   1.00000     0.00000
 Structure written by MMmdl.
 44 45  0  0  0  0  0  0  0  0  2 V2000
  153.6344  141.8314  161.0453 C   0  0  0  0  0  0  0  0  0  0  0  0
  152.7169  142.4425  160.0279 C   0  0  0  0  0  0  0  0  0  0  0  0
  152.1202  141.8160  158.8952 C   0  0  0  0  0  0  0  0  0  0  0  0
  151.3953  142.8327  158.3357 C   0  0  0  0  0  0  0  0  0  0  0  0
  150.6155  142.8154  157.2222 N   0  0  0  0  0  0  0  0  0  0  0  0
  150.4160  141.8101  156.3519 C   0  0  0  0  0  0  0  0  0  0  0  0
  150.9124  140.6865  156.4320 O   0  0  0  0  0  0  0  0  0  0  0  0
  149.5997  142.1867  155.3561 N   0  0  0  0  0  0  0  0  0  0  0  0
  149.1706  141.3391  154.2454 C   0  0  0  0  0  0  0  0  0  0  0  0
  147.7544  141.6934  153.7189 C   0  0  1  0  0  0  0  0  0  0  0  0
  147.0093  140.4235  153.2377 C   0  0  0  0  0  0  0  0  0  0  0  0
  146.9997  142.4668  154.7602 N   0  3  0  0  0  0  0  0  0  0  0  0
  145.7434  143.0658  154.2321 C   0  0  0  0  0  0  0  0  0  0  0  0
  145.0510  143.9307  155.2979 C   0  0  0  0  0  0  0  0  0  0  0  0
  144.7755  143.1392  156.4437 O   0  0  0  0  0  0  0  0  0  0  0  0
  145.9682  142.6380  157.0286 C   0  0  0  0  0  0  0  0  0  0  0  0
  146.7064  141.7358  156.0245 C   0  0  0  0  0  0  0  0  0  0  0  0
  151.5648  143.9696  159.0944 N   0  0  0  0  0  0  0  0  0  0  0  0
  151.0038  145.2939  158.9095 C   0  0  0  0  0  0  0  0  0  0  0  0
  152.3814  143.7227  160.1414 N   0  0  0  0  0  0  0  0  0  0  0  0
  153.8288  140.7824  160.8208 H   0  0  0  0  0  0  0  0  0  0  0  0
  153.2021  141.8816  162.0449 H   0  0  0  0  0  0  0  0  0  0  0  0
  154.5942  142.3483  161.0694 H   0  0  0  0  0  0  0  0  0  0  0  0
  152.2219  140.7923  158.5683 H   0  0  0  0  0  0  0  0  0  0  0  0
  150.1325  143.6791  157.0239 H   0  0  0  0  0  0  0  0  0  0  0  0
  149.2415  143.1308  155.3707 H   0  0  0  0  0  0  0  0  0  0  0  0
  149.8911  141.3740  153.4262 H   0  0  0  0  0  0  0  0  0  0  0  0
  149.2041  140.3193  154.6240 H   0  0  0  0  0  0  0  0  0  0  0  0
  147.8636  142.3371  152.8442 H   0  0  0  0  0  0  0  0  0  0  0  0
  147.5770  139.8823  152.4818 H   0  0  0  0  0  0  0  0  0  0  0  0
  146.0570  140.6604  152.7633 H   0  0  0  0  0  0  0  0  0  0  0  0
  146.8215  139.7344  154.0617 H   0  0  0  0  0  0  0  0  0  0  0  0
  145.9378  143.6866  153.3596 H   0  0  0  0  0  0  0  0  0  0  0  0
  145.0688  142.2712  153.9092 H   0  0  0  0  0  0  0  0  0  0  0  0
  145.6681  144.7892  155.5680 H   0  0  0  0  0  0  0  0  0  0  0  0
  144.1115  144.3239  154.9090 H   0  0  0  0  0  0  0  0  0  0  0  0
  146.6048  143.4634  157.3517 H   0  0  0  0  0  0  0  0  0  0  0  0
  145.7096  142.0695  157.9221 H   0  0  0  0  0  0  0  0  0  0  0  0
  146.1085  140.8495  155.8065 H   0  0  0  0  0  0  0  0  0  0  0  0
  147.6260  141.4034  156.5053 H   0  0  0  0  0  0  0  0  0  0  0  0
  151.1311  145.6067  157.8728 H   0  0  0  0  0  0  0  0  0  0  0  0
  151.5034  146.0158  159.5574 H   0  0  0  0  0  0  0  0  0  0  0  0
  149.9404  145.2766  159.1497 H   0  0  0  0  0  0  0  0  0  0  0  0
  147.6004  143.2344  155.0257 H   0  0  0  0  0  0  0  0  0  0  0  0
  1  2  1  0  0  0  0
  1 21  1  0  0  0  0
  1 22  1  0  0  0  0
  1 23  1  0  0  0  0
  2 20  2  0  0  0  0
  2  3  1  0  0  0  0
  3  4  2  0  0  0  0
  3 24  1  0  0  0  0
  4  5  1  0  0  0  0
  4 18  1  0  0  0  0
  5  6  1  0  0  0  0
  5 25  1  0  0  0  0
  6  7  2  0  0  0  0
  6  8  1  0  0  0  0
  8  9  1  0  0  0  0
  8 26  1  0  0  0  0
  9 10  1  0  0  0  0
  9 27  1  0  0  0  0
  9 28  1  0  0  0  0
 10 11  1  0  0  0  0
 10 12  1  0  0  0  0
 10 29  1  0  0  0  0
 11 30  1  0  0  0  0
 11 31  1  0  0  0  0
 11 32  1  0  0  0  0
 12 17  1  0  0  0  0
 12 13  1  0  0  0  0
 12 44  1  0  0  0  0
 13 14  1  0  0  0  0
 13 33  1  0  0  0  0
 13 34  1  0  0  0  0
 14 15  1  0  0  0  0
 14 35  1  0  0  0  0
 14 36  1  0  0  0  0
 15 16  1  0  0  0  0
 16 17  1  0  0  0  0
 16 37  1  0  0  0  0
 16 38  1  0  0  0  0
 17 39  1  0  0  0  0
 17 40  1  0  0  0  0
 18 19  1  0  0  0  0
 18 20  1  0  0  0  0
 19 41  1  0  0  0  0
 19 42  1  0  0  0  0
 19 43  1  0  0  0  0
M  CHG  1  12   1
M  END
> <s_m_source_file>
AV-unprocessed.smi

> <i_m_source_file_index>
2003

> <i_lp_mmshare_version>
43012

> <i_f3d_flags>
0

> <s_epik_input>
W0NIM11jMVtjSF1jKG4objEpW0NIM10pW05IXUMoPU8pW05IXVtDSDJdW0NASF0oW0NIM10pTjJbQ0gyXVtDSDJdT1tDSDJdW0NIMl0y

> <s_epik_cmdline>
J2VwaWtfcHl0aG9uJywgJy1waCcsICc3LjAnLCAnLXRuJywgJzgnLCAnLW1hJywgJzIwMCcsICctbWV0YWxfYmluZGluZycsICctaW1hZScsICc8aW5maWxlLm1hZT4nLCAnLW9tYWUnLCAnPG91dGZpbGUubWFlPic=

> <r_lp_tautomer_probability>
1

> <r_epik_Ionization_Penalty>
0.663903

> <r_epik_Ionization_Penalty_Charging>
0.663826

> <r_epik_Ionization_Penalty_Neutral>
7.78239e-05

> <r_epik_State_Penalty>
0.683414

> <r_epik_Charging_Adjusted_Penalty>
1.34724

> <i_epik_Tot_Q>
1

> <i_epik_Tot_abs_Q>
1

> <r_epik_Metal_State_Penalty>
0.683419

> <b_epik_Metal_Only>
0

> <s_lp_Force_Field>
OPLS_2005

> <r_lp_Energy>
22.6974

> <b_lp_Chiralities_Consistent>
1

> <s_lp_Variant>
AV-unprocessed.smi:2003-4

> <Gold.Version>
5.8.1

> <Gold.Id.Protein>
6NUR|6NUR_protein|mol2

> <Gold.PLP.Fitness>
51.8490

> <Gold.PLP.PLP>
-41.8857

> <Gold.PLP.part.hbond>
-2.9710

> <Gold.PLP.part.metal>
0.0000

> <Gold.PLP.part.buried>
-4.3792

> <Gold.PLP.part.nonpolar>
-33.6328

> <Gold.PLP.part.repulsive>
0.4324

> <Gold.PLP.ligand.clash>
0.0000

> <Gold.PLP.ligand.torsion>
0.7453

> <Gold.PLP.Chemscore.Hbond>
3.7977

> <Gold.PLP.Chemscore.CHOScore>
0.0000

> <Gold.PLP.Chemscore.Metal>
0.0000

> <Gold.Chemscore.Hbonds>
donor molecule, donor type, donor heavy atom, donor atom, acceptor molecule, acceptor atom, score
      L1  H     5    25       P1  8028  0.77
      L1  H     8    26       P1  8028  1.00
      L1  H    12    44       P1  8028  2.00

> <Gold.PLP.Chemscore.Internal.Correction>
0.0610

> <Gold.Rescore>
     Score         DG    S(hbond)    S(metal)    S(lipo)     H(rot)  DE(clash)    DE(int)     intcor
     16.03     -18.51       2.22        0.00      81.63       1.54       0.44       2.04       ----

> <Gold.Chemscore.Fitness>
16.0253

> <Gold.Chemscore.DG>
-18.5065

> <Gold.Chemscore.ZeroCoef>
-5.4800

> <Gold.Chemscore.Hbond>
2.2207

> <Gold.Chemscore.Metal>
0.0000

> <Gold.Chemscore.Lipo>
81.6344

> <Gold.Chemscore.Internal_Hbond>
0.0000

> <Gold.Chemscore.DEClash>
0.4438

> <Gold.Chemscore.DEInternal>
2.0374

> <Gold.Chemscore.Rot>
1.5398

> <Gold.Chemscore.Internal.Correction>
   9.000000E+99

> <Gold.Chemscore.Hbonds>
donor molecule, donor type, donor heavy atom, donor atom, acceptor molecule, acceptor atom, score
      L1  H     5    25       P1  8028  0.72
      L1  H     8    26       P1  8028  1.00
      L1  H    12    44       P1  8028  0.37

> <Gold.Chemscore.Hbond.Weighted>
-7.4173

> <Gold.Chemscore.Metal.Weighted>
-0.0000

> <Gold.Chemscore.Lipo.Weighted>
-9.5512

> <Gold.Chemscore.Internal_Hbond.Weighted>
0.0000

> <Gold.Chemscore.DEClash.Weighted>
0.4438

> <Gold.Chemscore.DEInternal.Weighted>
2.0374

> <Gold.Chemscore.Rot.Weighted>
3.9420

> <Gold.Chemscore.Internal.Correction.Weighted>
   9.000000E+99

> <Gold.Protein.RotatedTorsions>
[ 6907 6896 6895 6894 ] final  142.38 input  -60.11 | X-H torsion
[ 7974 7965 7964 7962 ] final -165.25 input  175.53 | X-H torsion
[ 8008 7997 7996 7995 ] final  -14.18 input   59.86 | X-H torsion
[ 10167 10162 10161 10158 ] final  -19.04 input  -65.29 | X-H torsion
[ 10718 10713 10712 10709 ] final  105.23 input   66.30 | X-H torsion
[ 10763 10752 10751 10750 ] final  121.70 input  -60.55 | X-H torsion
[ 11005 11000 10999 10996 ] final  -34.39 input  -57.11 | X-H torsion

> <Gold.Protein.ActiveResidues>
 VAL166  LYS551  ARG553  GLY616  TRP617  ASP618  TYR619  PRO620  LYS621  CYS622 
 ASP623  PHE694  ASN695  SER759  ASP760  ASP761  ALA762  ILE779  LEU786  VAL792 
 PHE793  MET794  SER795  GLU796  ALA797  LYS798  CYS799  TRP800  GLU811  SER814 

> <Gold.Protein.RotatedAtoms>
  152.2194  133.4972  159.5153 H   0  0  0  0  0  0  0  0  0  0  0  0  # atno 6907 bound_to 6896
  150.7009  134.1362  159.4097 H   0  0  0  0  0  0  0  0  0  0  0  0  # atno 6908 bound_to 6896
  151.9283  135.0268  160.0578 H   0  0  0  0  0  0  0  0  0  0  0  0  # atno 6909 bound_to 6896
  144.7275  140.2841  143.6231 H   0  0  0  0  0  0  0  0  0  0  0  0  # atno 7974 bound_to 7965
  154.5231  140.2230  155.8939 H   0  0  0  0  0  0  0  0  0  0  0  0  # atno 8008 bound_to 7997
  156.1684  140.3127  155.8894 H   0  0  0  0  0  0  0  0  0  0  0  0  # atno 8009 bound_to 7997
  155.3609  140.0461  157.3037 H   0  0  0  0  0  0  0  0  0  0  0  0  # atno 8010 bound_to 7997
  140.7264  143.4857  151.0058 H   0  0  0  0  0  0  0  0  0  0  0  0  # atno 10167 bound_to 10162
  157.6713  131.0823  150.5825 H   0  0  0  0  0  0  0  0  0  0  0  0  # atno 10718 bound_to 10713
  153.6182  135.3418  155.3002 H   0  0  0  0  0  0  0  0  0  0  0  0  # atno 10763 bound_to 10752
  154.8605  135.4266  154.2236 H   0  0  0  0  0  0  0  0  0  0  0  0  # atno 10764 bound_to 10752
  153.3103  135.7031  153.7194 H   0  0  0  0  0  0  0  0  0  0  0  0  # atno 10765 bound_to 10752
  140.9712  133.7108  156.1527 H   0  0  0  0  0  0  0  0  0  0  0  0  # atno 11005 bound_to 11000
  145.7920  139.1931  143.2097 LP  0  0  0  0  0  0  0  0  0  0  0  0  # atno 17320 bound_to 7965
  146.0748  140.7830  142.9670 LP  0  0  0  0  0  0  0  0  0  0  0  0  # atno 17321 bound_to 7965
  139.8559  143.7378  152.3176 LP  0  0  0  0  0  0  0  0  0  0  0  0  # atno 17342 bound_to 10162
  139.7576  144.7516  151.0412 LP  0  0  0  0  0  0  0  0  0  0  0  0  # atno 17343 bound_to 10162
  156.6126  130.4384  149.5853 LP  0  0  0  0  0  0  0  0  0  0  0  0  # atno 17370 bound_to 10713
  156.2418  130.6856  151.1563 LP  0  0  0  0  0  0  0  0  0  0  0  0  # atno 17371 bound_to 10713
  140.7325  134.4238  157.5564 LP  0  0  0  0  0  0  0  0  0  0  0  0  # atno 17394 bound_to 11000
  139.8913  134.8783  156.2326 LP  0  0  0  0  0  0  0  0  0  0  0  0  # atno 17395 bound_to 11000

$$$$
