AV-unprocessed.smi:1986|AV-procd|sdf|8052|dock10
  -GOLD-   2272010253D 1   1.00000     0.00000
 Structure written by MMmdl.
 48 49  0  0  0  0  0  0  0  0  2 V2000
  145.9442  142.7088  153.9473 C   0  0  0  0  0  0  0  0  0  0  0  0
  147.0769  141.7289  154.3015 C   0  0  0  0  0  0  0  0  0  0  0  0
  147.3456  140.5933  153.2673 C   0  0  1  0  0  0  0  0  0  0  0  0
  147.2637  141.1834  151.8352 C   0  0  0  0  0  0  0  0  0  0  0  0
  148.7923  140.0355  153.4714 C   0  0  0  0  0  0  0  0  0  0  0  0
  149.1216  139.7522  154.8672 N   0  0  0  0  0  0  0  0  0  0  0  0
  150.3197  139.3742  155.3347 C   0  0  0  0  0  0  0  0  0  0  0  0
  151.3328  139.3045  154.6397 O   0  0  0  0  0  0  0  0  0  0  0  0
  150.3736  139.0017  156.8205 C   0  0  0  0  0  0  0  0  0  0  0  0
  150.7065  140.1593  157.6620 N   0  0  0  0  0  0  0  0  0  0  0  0
  149.7093  141.1199  157.7281 N   0  0  0  0  0  0  0  0  0  0  0  0
  149.8881  142.1875  158.4302 C   0  0  0  0  0  0  0  0  0  0  0  0
  148.8754  143.1141  158.4670 O   0  0  0  0  0  0  0  0  0  0  0  0
  151.1178  142.4063  159.1597 C   0  0  0  0  0  0  0  0  0  0  0  0
  152.0825  141.4628  159.0933 C   0  0  0  0  0  0  0  0  0  0  0  0
  151.9119  140.2398  158.3076 C   0  0  0  0  0  0  0  0  0  0  0  0
  152.7737  139.3631  158.2281 O   0  0  0  0  0  0  0  0  0  0  0  0
  146.3319  139.4821  153.4082 N   0  3  0  0  0  0  0  0  0  0  0  0
  146.5000  138.3324  152.4757 C   0  0  0  0  0  0  0  0  0  0  0  0
  145.2834  137.3975  152.5599 C   0  0  0  0  0  0  0  0  0  0  0  0
  145.1478  136.9236  153.8921 O   0  0  0  0  0  0  0  0  0  0  0  0
  144.9144  137.9844  154.8082 C   0  0  0  0  0  0  0  0  0  0  0  0
  146.0968  138.9695  154.7887 C   0  0  0  0  0  0  0  0  0  0  0  0
  148.6760  143.3037  157.5630 H   0  0  0  0  0  0  0  0  0  0  0  0
  145.8394  143.4629  154.7277 H   0  0  0  0  0  0  0  0  0  0  0  0
  144.9819  142.2056  153.8580 H   0  0  0  0  0  0  0  0  0  0  0  0
  146.1392  143.2373  153.0145 H   0  0  0  0  0  0  0  0  0  0  0  0
  147.9796  142.3214  154.4476 H   0  0  0  0  0  0  0  0  0  0  0  0
  146.8442  141.2991  155.2753 H   0  0  0  0  0  0  0  0  0  0  0  0
  148.1325  141.7981  151.5986 H   0  0  0  0  0  0  0  0  0  0  0  0
  146.3908  141.8236  151.7046 H   0  0  0  0  0  0  0  0  0  0  0  0
  147.2133  140.4003  151.0781 H   0  0  0  0  0  0  0  0  0  0  0  0
  148.9619  139.1447  152.8643 H   0  0  0  0  0  0  0  0  0  0  0  0
  149.5266  140.7585  153.1157 H   0  0  0  0  0  0  0  0  0  0  0  0
  148.3598  139.8022  155.5283 H   0  0  0  0  0  0  0  0  0  0  0  0
  149.4050  138.5847  157.1021 H   0  0  0  0  0  0  0  0  0  0  0  0
  151.0985  138.2025  156.9889 H   0  0  0  0  0  0  0  0  0  0  0  0
  151.2514  143.3065  159.7417 H   0  0  0  0  0  0  0  0  0  0  0  0
  153.0055  141.6142  159.6334 H   0  0  0  0  0  0  0  0  0  0  0  0
  146.6079  138.6632  151.4443 H   0  0  0  0  0  0  0  0  0  0  0  0
  147.3993  137.7697  152.7266 H   0  0  0  0  0  0  0  0  0  0  0  0
  144.3729  137.9086  152.2419 H   0  0  0  0  0  0  0  0  0  0  0  0
  145.4188  136.5441  151.8955 H   0  0  0  0  0  0  0  0  0  0  0  0
  143.9789  138.4898  154.5654 H   0  0  0  0  0  0  0  0  0  0  0  0
  144.7947  137.5644  155.8071 H   0  0  0  0  0  0  0  0  0  0  0  0
  146.9903  138.4693  155.1627 H   0  0  0  0  0  0  0  0  0  0  0  0
  145.8625  139.7733  155.4841 H   0  0  0  0  0  0  0  0  0  0  0  0
  145.4564  139.9114  153.1423 H   0  0  0  0  0  0  0  0  0  0  0  0
  1  2  1  0  0  0  0
  1 25  1  0  0  0  0
  1 26  1  0  0  0  0
  1 27  1  0  0  0  0
  2  3  1  0  0  0  0
  2 28  1  0  0  0  0
  2 29  1  0  0  0  0
  3  4  1  0  0  0  0
  3  5  1  0  0  0  0
  3 18  1  0  0  0  0
  4 30  1  0  0  0  0
  4 31  1  0  0  0  0
  4 32  1  0  0  0  0
  5  6  1  0  0  0  0
  5 33  1  0  0  0  0
  5 34  1  0  0  0  0
  6  7  1  0  0  0  0
  6 35  1  0  0  0  0
  7  8  2  0  0  0  0
  7  9  1  0  0  0  0
  9 36  1  0  0  0  0
  9 37  1  0  0  0  0
  9 10  1  0  0  0  0
 10 11  1  0  0  0  0
 10 16  1  0  0  0  0
 11 12  2  0  0  0  0
 12 13  1  0  0  0  0
 12 14  1  0  0  0  0
 13 24  1  0  0  0  0
 14 38  1  0  0  0  0
 14 15  2  0  0  0  0
 15 39  1  0  0  0  0
 15 16  1  0  0  0  0
 16 17  2  0  0  0  0
 18 23  1  0  0  0  0
 18 19  1  0  0  0  0
 18 48  1  0  0  0  0
 19 20  1  0  0  0  0
 19 40  1  0  0  0  0
 19 41  1  0  0  0  0
 20 21  1  0  0  0  0
 20 42  1  0  0  0  0
 20 43  1  0  0  0  0
 21 22  1  0  0  0  0
 22 23  1  0  0  0  0
 22 44  1  0  0  0  0
 22 45  1  0  0  0  0
 23 46  1  0  0  0  0
 23 47  1  0  0  0  0
M  CHG  1  18   1
M  END
> <s_m_source_file>
AV-unprocessed.smi

> <i_m_source_file_index>
1986

> <i_lp_mmshare_version>
43012

> <i_f3d_flags>
0

> <s_epik_input>
W0NIMl0xW0NIMl1PW0NIMl1bQ0gyXU4xW0NAQF0oW0NIM10pKFtDSDJdW0NIM10pW0NIMl1bTkhdQyg9TylbQ0gyXW4yW25IXWMoPU8pW2NIXVtjSF1jMj1P

> <s_epik_cmdline>
J2VwaWtfcHl0aG9uJywgJy1waCcsICc3LjAnLCAnLXRuJywgJzgnLCAnLW1hJywgJzIwMCcsICctbWV0YWxfYmluZGluZycsICctaW1hZScsICc8aW5maWxlLm1hZT4nLCAnLW9tYWUnLCAnPG91dGZpbGUubWFlPic=

> <r_lp_tautomer_probability>
0.9996

> <r_epik_Ionization_Penalty>
2.73198

> <r_epik_Ionization_Penalty_Charging>
0.519658

> <r_epik_Ionization_Penalty_Neutral>
2.21233

> <r_epik_State_Penalty>
2.2852

> <r_epik_Charging_Adjusted_Penalty>
2.80486

> <i_epik_Tot_Q>
1

> <i_epik_Tot_abs_Q>
1

> <r_epik_Metal_State_Penalty>
2.2852

> <b_epik_Metal_Only>
0

> <s_lp_Force_Field>
OPLS_2005

> <r_lp_Energy>
43.5621

> <b_lp_Chiralities_Consistent>
1

> <s_lp_Variant>
AV-unprocessed.smi:1986-7

> <Gold.Version>
5.8.1

> <Gold.Id.Protein>
6NUR|6NUR_protein|mol2

> <Gold.PLP.Fitness>
40.5623

> <Gold.PLP.PLP>
-27.2492

> <Gold.PLP.part.hbond>
-5.0000

> <Gold.PLP.part.metal>
0.0000

> <Gold.PLP.part.buried>
0.6323

> <Gold.PLP.part.nonpolar>
-24.0592

> <Gold.PLP.part.repulsive>
0.2783

> <Gold.PLP.ligand.clash>
0.0000

> <Gold.PLP.ligand.torsion>
0.9851

> <Gold.PLP.Chemscore.Hbond>
5.0000

> <Gold.PLP.Chemscore.CHOScore>
0.0000

> <Gold.PLP.Chemscore.Metal>
0.0000

> <Gold.Chemscore.Hbonds>
donor molecule, donor type, donor heavy atom, donor atom, acceptor molecule, acceptor atom, score
      L1  H    13    24       P1  8028  0.16
      L1  H    18    48       P1 10175  2.00
      P1  H  7989  7998       L1     8  1.00
      P1  H  7997  8009       L1    17  0.37

> <Gold.PLP.Chemscore.Internal.Correction>
0.2833

> <Gold.Rescore>
     Score         DG    S(hbond)    S(metal)    S(lipo)     H(rot)  DE(clash)    DE(int)     intcor
     11.91     -16.79       3.17        0.00      75.20       3.15       3.69       1.20       ----

> <Gold.Chemscore.Fitness>
11.9069

> <Gold.Chemscore.DG>
-16.7943

> <Gold.Chemscore.ZeroCoef>
-5.4800

> <Gold.Chemscore.Hbond>
3.1663

> <Gold.Chemscore.Metal>
0.0000

> <Gold.Chemscore.Lipo>
75.2042

> <Gold.Chemscore.Internal_Hbond>
0.0000

> <Gold.Chemscore.DEClash>
3.6884

> <Gold.Chemscore.DEInternal>
1.1990

> <Gold.Chemscore.Rot>
3.1485

> <Gold.Chemscore.Internal.Correction>
   9.000000E+99

> <Gold.Chemscore.Hbonds>
donor molecule, donor type, donor heavy atom, donor atom, acceptor molecule, acceptor atom, score
      L1  H    13    24       P1  8028  0.03
      L1  H    18    48       P1 10175  0.98
      P1  H  7989  7998       L1     8  0.90
      P1  H  7997  8009       L1    17  0.28

> <Gold.Chemscore.Hbond.Weighted>
-10.5756

> <Gold.Chemscore.Metal.Weighted>
-0.0000

> <Gold.Chemscore.Lipo.Weighted>
-8.7989

> <Gold.Chemscore.Internal_Hbond.Weighted>
0.0000

> <Gold.Chemscore.DEClash.Weighted>
3.6884

> <Gold.Chemscore.DEInternal.Weighted>
1.1990

> <Gold.Chemscore.Rot.Weighted>
8.0601

> <Gold.Chemscore.Internal.Correction.Weighted>
   9.000000E+99

> <Gold.Protein.RotatedTorsions>
[ 6907 6896 6895 6894 ] final  -85.49 input  -60.11 | X-H torsion
[ 7974 7965 7964 7962 ] final  -29.52 input  175.53 | X-H torsion
[ 8008 7997 7996 7995 ] final  165.94 input   59.86 | X-H torsion
[ 10167 10162 10161 10158 ] final -129.43 input  -65.29 | X-H torsion
[ 10718 10713 10712 10709 ] final -153.39 input   66.30 | X-H torsion
[ 10763 10752 10751 10750 ] final -140.92 input  -60.55 | X-H torsion
[ 11005 11000 10999 10996 ] final -158.98 input  -57.11 | X-H torsion

> <Gold.Protein.ActiveResidues>
 VAL166  LYS551  ARG553  GLY616  TRP617  ASP618  TYR619  PRO620  LYS621  CYS622 
 ASP623  PHE694  ASN695  SER759  ASP760  ASP761  ALA762  ILE779  LEU786  VAL792 
 PHE793  MET794  SER795  GLU796  ALA797  LYS798  CYS799  TRP800  GLU811  SER814 

> <Gold.Protein.RotatedAtoms>
  150.6870  134.3197  159.4781 H   0  0  0  0  0  0  0  0  0  0  0  0  # atno 6907 bound_to 6896
  152.1074  134.9296  160.0577 H   0  0  0  0  0  0  0  0  0  0  0  0  # atno 6908 bound_to 6896
  152.0552  133.4002  159.4431 H   0  0  0  0  0  0  0  0  0  0  0  0  # atno 6909 bound_to 6896
  146.1210  140.5423  142.8735 H   0  0  0  0  0  0  0  0  0  0  0  0  # atno 7974 bound_to 7965
  156.1759  140.1656  156.8363 H   0  0  0  0  0  0  0  0  0  0  0  0  # atno 8008 bound_to 7997
  154.5307  140.0757  156.8372 H   0  0  0  0  0  0  0  0  0  0  0  0  # atno 8009 bound_to 7997
  155.3414  140.3385  155.4241 H   0  0  0  0  0  0  0  0  0  0  0  0  # atno 8010 bound_to 7997
  139.9398  143.6176  152.2507 H   0  0  0  0  0  0  0  0  0  0  0  0  # atno 10167 bound_to 10162
  156.4851  130.8321  151.2547 H   0  0  0  0  0  0  0  0  0  0  0  0  # atno 10718 bound_to 10713
  154.8562  135.3539  154.5785 H   0  0  0  0  0  0  0  0  0  0  0  0  # atno 10763 bound_to 10752
  153.6396  135.6999  153.5251 H   0  0  0  0  0  0  0  0  0  0  0  0  # atno 10764 bound_to 10752
  153.2982  135.4214  155.1187 H   0  0  0  0  0  0  0  0  0  0  0  0  # atno 10765 bound_to 10752
  140.6476  134.4485  157.5234 H   0  0  0  0  0  0  0  0  0  0  0  0  # atno 11005 bound_to 11000
  144.7597  140.5393  143.6744 LP  0  0  0  0  0  0  0  0  0  0  0  0  # atno 17320 bound_to 7965
  145.5465  139.1476  143.3418 LP  0  0  0  0  0  0  0  0  0  0  0  0  # atno 17321 bound_to 7965
  139.6714  144.7660  151.1777 LP  0  0  0  0  0  0  0  0  0  0  0  0  # atno 17342 bound_to 10162
  140.7614  143.5860  150.8845 LP  0  0  0  0  0  0  0  0  0  0  0  0  # atno 17343 bound_to 10162
  157.7479  131.0032  150.3028 LP  0  0  0  0  0  0  0  0  0  0  0  0  # atno 17370 bound_to 10713
  156.3482  130.3826  149.7351 LP  0  0  0  0  0  0  0  0  0  0  0  0  # atno 17371 bound_to 10713
  139.9057  134.8454  156.1715 LP  0  0  0  0  0  0  0  0  0  0  0  0  # atno 17394 bound_to 11000
  141.0560  133.6865  156.1862 LP  0  0  0  0  0  0  0  0  0  0  0  0  # atno 17395 bound_to 11000

$$$$
