AV-unprocessed.smi:1048|AV-procd|sdf|4604|dock10
  -GOLD-   22720 3103D 1   1.00000     0.00000
 Structure written by MMmdl.
 46 47  0  0  0  0  0  0  0  0  2 V2000
  141.7082  144.0337  155.7056 C   0  0  0  0  0  0  0  0  0  0  0  0
  143.0356  143.2793  155.8642 C   0  0  2  0  0  0  0  0  0  0  0  0
  144.0604  143.6970  154.7958 C   0  0  0  0  0  0  0  0  0  0  0  0
  145.3748  142.9123  154.9447 C   0  0  0  0  0  0  0  0  0  0  0  0
  145.1333  141.4461  154.8893 N   0  3  1  0  0  0  0  0  0  0  0  0
  146.3841  140.6445  154.8960 C   0  0  0  0  0  0  0  0  0  0  0  0
  147.3543  141.0586  153.7707 C   0  0  2  0  0  0  0  0  0  0  0  0
  147.0530  140.2486  152.6512 O   0  0  0  0  0  0  0  0  0  0  0  0
  148.8237  140.8131  154.1708 C   0  0  0  0  0  0  0  0  0  0  0  0
  149.2827  141.7632  155.1791 N   0  0  0  0  0  0  0  0  0  0  0  0
  150.1738  141.4925  156.1430 C   0  0  0  0  0  0  0  0  0  0  0  0
  150.7259  140.3998  156.2665 O   0  0  0  0  0  0  0  0  0  0  0  0
  150.3924  142.5666  156.9202 N   0  0  0  0  0  0  0  0  0  0  0  0
  151.2319  142.6738  158.0619 C   0  0  0  0  0  0  0  0  0  0  0  0
  151.5610  143.9651  158.5230 C   0  0  0  0  0  0  0  0  0  0  0  0
  152.3731  144.1000  159.6650 C   0  0  0  0  0  0  0  0  0  0  0  0
  152.8191  142.9310  160.3112 C   0  0  0  0  0  0  0  0  0  0  0  0
  152.5021  141.6877  159.8929 N   0  0  0  0  0  0  0  0  0  0  0  0
  151.7247  141.5655  158.7952 C   0  0  0  0  0  0  0  0  0  0  0  0
  144.1750  141.0114  155.9373 C   0  0  0  0  0  0  0  0  0  0  0  0
  142.8355  141.7555  155.8057 C   0  0  0  0  0  0  0  0  0  0  0  0
  141.2433  143.8233  154.7419 H   0  0  0  0  0  0  0  0  0  0  0  0
  141.8591  145.1115  155.7740 H   0  0  0  0  0  0  0  0  0  0  0  0
  141.0003  143.7505  156.4851 H   0  0  0  0  0  0  0  0  0  0  0  0
  143.4443  143.5308  156.8441 H   0  0  0  0  0  0  0  0  0  0  0  0
  143.6476  143.5298  153.7998 H   0  0  0  0  0  0  0  0  0  0  0  0
  144.2620  144.7663  154.8706 H   0  0  0  0  0  0  0  0  0  0  0  0
  146.0590  143.2141  154.1525 H   0  0  0  0  0  0  0  0  0  0  0  0
  145.8564  143.1673  155.8901 H   0  0  0  0  0  0  0  0  0  0  0  0
  146.8622  140.7357  155.8725 H   0  0  0  0  0  0  0  0  0  0  0  0
  146.1488  139.5855  154.7749 H   0  0  0  0  0  0  0  0  0  0  0  0
  147.2143  142.1078  153.5101 H   0  0  0  0  0  0  0  0  0  0  0  0
  147.8326  140.1669  152.1207 H   0  0  0  0  0  0  0  0  0  0  0  0
  148.9150  139.8280  154.6290 H   0  0  0  0  0  0  0  0  0  0  0  0
  149.4832  140.8011  153.3007 H   0  0  0  0  0  0  0  0  0  0  0  0
  148.8814  142.6892  155.1495 H   0  0  0  0  0  0  0  0  0  0  0  0
  149.9341  143.4210  156.6389 H   0  0  0  0  0  0  0  0  0  0  0  0
  151.2008  144.8436  158.0079 H   0  0  0  0  0  0  0  0  0  0  0  0
  152.6463  145.0761  160.0378 H   0  0  0  0  0  0  0  0  0  0  0  0
  153.4416  142.9968  161.1912 H   0  0  0  0  0  0  0  0  0  0  0  0
  151.4835  140.5490  158.5265 H   0  0  0  0  0  0  0  0  0  0  0  0
  143.9953  139.9391  155.8506 H   0  0  0  0  0  0  0  0  0  0  0  0
  144.6087  141.1829  156.9236 H   0  0  0  0  0  0  0  0  0  0  0  0
  142.1596  141.4364  156.5998 H   0  0  0  0  0  0  0  0  0  0  0  0
  142.3573  141.4797  154.8644 H   0  0  0  0  0  0  0  0  0  0  0  0
  144.6843  141.2521  154.0051 H   0  0  0  0  0  0  0  0  0  0  0  0
  1  2  1  0  0  0  0
  1 22  1  0  0  0  0
  1 23  1  0  0  0  0
  1 24  1  0  0  0  0
  2 21  1  0  0  0  0
  2  3  1  0  0  0  0
  2 25  1  0  0  0  0
  3  4  1  0  0  0  0
  3 26  1  0  0  0  0
  3 27  1  0  0  0  0
  4  5  1  0  0  0  0
  4 28  1  0  0  0  0
  4 29  1  0  0  0  0
  5  6  1  0  0  0  0
  5 20  1  0  0  0  0
  5 46  1  0  0  0  0
  6  7  1  0  0  0  0
  6 30  1  0  0  0  0
  6 31  1  0  0  0  0
  7  8  1  0  0  0  0
  7  9  1  0  0  0  0
  7 32  1  0  0  0  0
  8 33  1  0  0  0  0
  9 10  1  0  0  0  0
  9 34  1  0  0  0  0
  9 35  1  0  0  0  0
 10 11  1  0  0  0  0
 10 36  1  0  0  0  0
 11 12  2  0  0  0  0
 11 13  1  0  0  0  0
 13 14  1  0  0  0  0
 13 37  1  0  0  0  0
 14 19  1  0  0  0  0
 14 15  2  0  0  0  0
 15 16  1  0  0  0  0
 15 38  1  0  0  0  0
 16 17  2  0  0  0  0
 16 39  1  0  0  0  0
 17 18  1  0  0  0  0
 17 40  1  0  0  0  0
 18 19  2  0  0  0  0
 19 41  1  0  0  0  0
 20 21  1  0  0  0  0
 20 42  1  0  0  0  0
 20 43  1  0  0  0  0
 21 44  1  0  0  0  0
 21 45  1  0  0  0  0
M  CHG  1   5   1
M  END
> <s_m_source_file>
AV-unprocessed.smi

> <i_m_source_file_index>
1048

> <i_lp_mmshare_version>
43012

> <i_f3d_flags>
0

> <s_epik_input>
W0NIM11bQ0hdMVtDSDJdW0NIMl1OKFtDSDJdW0NIMl0xKVtDSDJdW0NASF0oW09IXSlbQ0gyXVtOSF1DKD1PKVtOSF1jMltjSF1bY0hdW2NIXW5bY0hdMg==

> <s_epik_cmdline>
J2VwaWtfcHl0aG9uJywgJy1waCcsICc3LjAnLCAnLXRuJywgJzgnLCAnLW1hJywgJzIwMCcsICctbWV0YWxfYmluZGluZycsICctaW1hZScsICc8aW5maWxlLm1hZT4nLCAnLW9tYWUnLCAnPG91dGZpbGUubWFlPic=

> <r_lp_tautomer_probability>
1

> <r_epik_Ionization_Penalty>
0.00581049

> <r_epik_Ionization_Penalty_Charging>
0.00147689

> <r_epik_Ionization_Penalty_Neutral>
0.0043336

> <r_epik_State_Penalty>
-0

> <r_epik_Charging_Adjusted_Penalty>
0.00147689

> <i_epik_Tot_Q>
1

> <i_epik_Tot_abs_Q>
1

> <r_epik_Metal_State_Penalty>
-0

> <b_epik_Metal_Only>
0

> <s_lp_Force_Field>
OPLS_2005

> <r_lp_Energy>
22.5683

> <b_lp_Chiralities_Consistent>
1

> <s_lp_Variant>
AV-unprocessed.smi:1048-1

> <Gold.Version>
5.8.1

> <Gold.Id.Protein>
6NUR|6NUR_protein|mol2

> <Gold.PLP.Fitness>
53.4737

> <Gold.PLP.PLP>
-39.7948

> <Gold.PLP.part.hbond>
-4.0000

> <Gold.PLP.part.metal>
0.0000

> <Gold.PLP.part.buried>
-6.6912

> <Gold.PLP.part.nonpolar>
-30.3744

> <Gold.PLP.part.repulsive>
0.2761

> <Gold.PLP.ligand.clash>
0.0000

> <Gold.PLP.ligand.torsion>
0.6869

> <Gold.PLP.Chemscore.Hbond>
5.0000

> <Gold.PLP.Chemscore.CHOScore>
0.0000

> <Gold.PLP.Chemscore.Metal>
0.0000

> <Gold.Chemscore.Hbonds>
donor molecule, donor type, donor heavy atom, donor atom, acceptor molecule, acceptor atom, score
      L1  H     5    46       P1 10175  2.00
      L1  H     8    33       P1  7957  1.00
      L1  H    10    36       P1  8028  0.88
      L1  H    13    37       P1  8028  1.00

> <Gold.PLP.Chemscore.Internal.Correction>
0.0528

> <Gold.Rescore>
     Score         DG    S(hbond)    S(metal)    S(lipo)     H(rot)  DE(clash)    DE(int)     intcor
     20.71     -23.15       3.72        0.00      95.02       2.29       0.71       1.73       ----

> <Gold.Chemscore.Fitness>
20.7129

> <Gold.Chemscore.DG>
-23.1534

> <Gold.Chemscore.ZeroCoef>
-5.4800

> <Gold.Chemscore.Hbond>
3.7156

> <Gold.Chemscore.Metal>
0.0000

> <Gold.Chemscore.Lipo>
95.0162

> <Gold.Chemscore.Internal_Hbond>
0.0000

> <Gold.Chemscore.DEClash>
0.7131

> <Gold.Chemscore.DEInternal>
1.7274

> <Gold.Chemscore.Rot>
2.2865

> <Gold.Chemscore.Internal.Correction>
   9.000000E+99

> <Gold.Chemscore.Hbonds>
donor molecule, donor type, donor heavy atom, donor atom, acceptor molecule, acceptor atom, score
      L1  H     5    46       P1 10175  0.54
      L1  H     8    33       P1  7957  0.96
      L1  H    10    36       P1  8028  0.81
      L1  H    13    37       P1  8028  0.99

> <Gold.Chemscore.Hbond.Weighted>
-12.4101

> <Gold.Chemscore.Metal.Weighted>
-0.0000

> <Gold.Chemscore.Lipo.Weighted>
-11.1169

> <Gold.Chemscore.Internal_Hbond.Weighted>
0.0000

> <Gold.Chemscore.DEClash.Weighted>
0.7131

> <Gold.Chemscore.DEInternal.Weighted>
1.7274

> <Gold.Chemscore.Rot.Weighted>
5.8536

> <Gold.Chemscore.Internal.Correction.Weighted>
   9.000000E+99

> <Gold.Protein.RotatedTorsions>
[ 6907 6896 6895 6894 ] final  134.38 input  -60.11 | X-H torsion
[ 7974 7965 7964 7962 ] final   82.02 input  175.53 | X-H torsion
[ 8008 7997 7996 7995 ] final -112.95 input   59.86 | X-H torsion
[ 10167 10162 10161 10158 ] final -106.23 input  -65.29 | X-H torsion
[ 10718 10713 10712 10709 ] final  143.65 input   66.30 | X-H torsion
[ 10763 10752 10751 10750 ] final   68.15 input  -60.55 | X-H torsion
[ 11005 11000 10999 10996 ] final  -93.32 input  -57.11 | X-H torsion

> <Gold.Protein.ActiveResidues>
 VAL166  LYS551  ARG553  GLY616  TRP617  ASP618  TYR619  PRO620  LYS621  CYS622 
 ASP623  PHE694  ASN695  SER759  ASP760  ASP761  ALA762  ILE779  LEU786  VAL792 
 PHE793  MET794  SER795  GLU796  ALA797  LYS798  CYS799  TRP800  GLU811  SER814 

> <Gold.Protein.RotatedAtoms>
  152.3119  133.5762  159.5686 H   0  0  0  0  0  0  0  0  0  0  0  0  # atno 6907 bound_to 6896
  150.7327  134.0140  159.3688 H   0  0  0  0  0  0  0  0  0  0  0  0  # atno 6908 bound_to 6896
  151.8032  135.0703  160.0454 H   0  0  0  0  0  0  0  0  0  0  0  0  # atno 6909 bound_to 6896
  145.6305  139.2404  143.2087 H   0  0  0  0  0  0  0  0  0  0  0  0  # atno 7974 bound_to 7965
  155.0131  140.0393  157.2407 H   0  0  0  0  0  0  0  0  0  0  0  0  # atno 8008 bound_to 7997
  154.7442  140.2755  155.6323 H   0  0  0  0  0  0  0  0  0  0  0  0  # atno 8009 bound_to 7997
  156.2871  140.2659  156.2178 H   0  0  0  0  0  0  0  0  0  0  0  0  # atno 8010 bound_to 7997
  140.1900  143.3900  152.1214 H   0  0  0  0  0  0  0  0  0  0  0  0  # atno 10167 bound_to 10162
  157.3665  131.0973  151.0867 H   0  0  0  0  0  0  0  0  0  0  0  0  # atno 10718 bound_to 10713
  153.0221  135.5258  154.7090 H   0  0  0  0  0  0  0  0  0  0  0  0  # atno 10763 bound_to 10752
  154.6178  135.2885  155.0363 H   0  0  0  0  0  0  0  0  0  0  0  0  # atno 10764 bound_to 10752
  154.1361  135.6585  153.4984 H   0  0  0  0  0  0  0  0  0  0  0  0  # atno 10765 bound_to 10752
  141.1500  133.7880  157.0143 H   0  0  0  0  0  0  0  0  0  0  0  0  # atno 11005 bound_to 11000
  146.1360  140.7121  142.9389 LP  0  0  0  0  0  0  0  0  0  0  0  0  # atno 17320 bound_to 7965
  144.7195  140.4327  143.7018 LP  0  0  0  0  0  0  0  0  0  0  0  0  # atno 17321 bound_to 7965
  139.5260  144.7102  151.5228 LP  0  0  0  0  0  0  0  0  0  0  0  0  # atno 17342 bound_to 10162
  140.6462  143.8789  150.6740 LP  0  0  0  0  0  0  0  0  0  0  0  0  # atno 17343 bound_to 10162
  157.1988  130.6385  149.5731 LP  0  0  0  0  0  0  0  0  0  0  0  0  # atno 17370 bound_to 10713
  155.9747  130.4698  150.6407 LP  0  0  0  0  0  0  0  0  0  0  0  0  # atno 17371 bound_to 10713
  140.0857  134.9622  157.1696 LP  0  0  0  0  0  0  0  0  0  0  0  0  # atno 17394 bound_to 11000
  140.3515  134.2593  155.7198 LP  0  0  0  0  0  0  0  0  0  0  0  0  # atno 17395 bound_to 11000

$$$$
