AV-unprocessed.smi:3116|AV-procd|sdf|11873|dock2
  -GOLD-   2272017253D 1   1.00000     0.00000
 Structure written by MMmdl.
 33 33  0  0  0  0  0  0  0  0  1 V2000
  151.9264  139.2386  156.5573 C   0  0  0  0  0  0  0  0  0  0  0  0
  151.2314  140.4480  157.2161 C   0  0  1  0  0  0  0  0  0  0  0  0
  152.1921  141.2694  157.9688 N   0  0  0  0  0  0  0  0  0  0  0  0
  152.2747  140.9324  159.3895 C   0  0  1  0  0  0  0  0  0  0  0  0
  152.8733  139.5177  159.4755 C   0  0  0  0  0  0  0  0  0  0  0  0
  153.1300  142.0041  160.1196 C   0  0  2  0  0  0  0  0  0  0  0  0
  153.3237  141.7030  161.6182 C   0  0  0  0  0  0  0  0  0  0  0  0
  152.5752  143.3435  159.9488 N   0  0  0  0  0  0  0  0  0  0  0  0
  152.1395  144.2144  160.9262 C   0  0  0  0  0  0  0  0  0  0  0  0
  151.7233  145.3555  160.3025 C   0  0  0  0  0  0  0  0  0  0  0  0
  151.9455  145.0867  158.9236 C   0  0  0  0  0  0  0  0  0  0  0  0
  152.4562  143.8847  158.7147 N   0  0  0  0  0  0  0  0  0  0  0  0
  150.4989  141.3215  156.1885 C   0  0  0  0  0  0  0  0  0  0  0  0
  149.9939  142.4740  156.6362 N   0  0  0  0  0  0  0  0  0  0  0  0
  150.3966  140.9798  155.0113 O   0  0  0  0  0  0  0  0  0  0  0  0
  151.2230  138.6541  155.9627 H   0  0  0  0  0  0  0  0  0  0  0  0
  152.3485  138.5650  157.3029 H   0  0  0  0  0  0  0  0  0  0  0  0
  152.7391  139.5510  155.9002 H   0  0  0  0  0  0  0  0  0  0  0  0
  150.4651  140.0769  157.8990 H   0  0  0  0  0  0  0  0  0  0  0  0
  153.1119  141.2409  157.5527 H   0  0  0  0  0  0  0  0  0  0  0  0
  151.2828  140.9055  159.8439 H   0  0  0  0  0  0  0  0  0  0  0  0
  152.8804  139.1484  160.5007 H   0  0  0  0  0  0  0  0  0  0  0  0
  153.8987  139.4938  159.1044 H   0  0  0  0  0  0  0  0  0  0  0  0
  152.2908  138.8066  158.8885 H   0  0  0  0  0  0  0  0  0  0  0  0
  154.1216  142.0144  159.6638 H   0  0  0  0  0  0  0  0  0  0  0  0
  153.9014  140.7925  161.7734 H   0  0  0  0  0  0  0  0  0  0  0  0
  152.3683  141.5833  162.1299 H   0  0  0  0  0  0  0  0  0  0  0  0
  153.8652  142.5108  162.1115 H   0  0  0  0  0  0  0  0  0  0  0  0
  152.1660  143.9541  161.9742 H   0  0  0  0  0  0  0  0  0  0  0  0
  151.3224  146.2468  160.7617 H   0  0  0  0  0  0  0  0  0  0  0  0
  151.7536  145.7254  158.0741 H   0  0  0  0  0  0  0  0  0  0  0  0
  149.4987  143.0832  156.0009 H   0  0  0  0  0  0  0  0  0  0  0  0
  150.1058  142.7281  157.6069 H   0  0  0  0  0  0  0  0  0  0  0  0
  1  2  1  0  0  0  0
  1 16  1  0  0  0  0
  1 17  1  0  0  0  0
  1 18  1  0  0  0  0
  2  3  1  0  0  0  0
  2 13  1  0  0  0  0
  2 19  1  0  0  0  0
  3  4  1  0  0  0  0
  3 20  1  0  0  0  0
  4  5  1  0  0  0  0
  4  6  1  0  0  0  0
  4 21  1  0  0  0  0
  5 22  1  0  0  0  0
  5 23  1  0  0  0  0
  5 24  1  0  0  0  0
  6  7  1  0  0  0  0
  6  8  1  0  0  0  0
  6 25  1  0  0  0  0
  7 26  1  0  0  0  0
  7 27  1  0  0  0  0
  7 28  1  0  0  0  0
  8 12  1  0  0  0  0
  8  9  1  0  0  0  0
  9 10  2  0  0  0  0
  9 29  1  0  0  0  0
 10 11  1  0  0  0  0
 10 30  1  0  0  0  0
 11 12  2  0  0  0  0
 11 31  1  0  0  0  0
 13 14  1  0  0  0  0
 13 15  2  0  0  0  0
 14 32  1  0  0  0  0
 14 33  1  0  0  0  0
M  END
> <s_m_source_file>
AV-unprocessed.smi

> <i_m_source_file_index>
3116

> <i_lp_mmshare_version>
43012

> <i_f3d_flags>
0

> <s_epik_input>
W05IMl1DKD1PKVtDQEhdKFtDSDNdKVtOSF1bQ0BIXShbQ0gzXSlbQ0BIXShbQ0gzXSluMVtjSF1bY0hdW2NIXW4x

> <s_epik_cmdline>
J2VwaWtfcHl0aG9uJywgJy1waCcsICc3LjAnLCAnLXRuJywgJzgnLCAnLW1hJywgJzIwMCcsICctbWV0YWxfYmluZGluZycsICctaW1hZScsICc8aW5maWxlLm1hZT4nLCAnLW9tYWUnLCAnPG91dGZpbGUubWFlPic=

> <r_lp_tautomer_probability>
1

> <r_epik_Ionization_Penalty>
0.865977

> <r_epik_Ionization_Penalty_Charging>
0

> <r_epik_Ionization_Penalty_Neutral>
0.865977

> <r_epik_State_Penalty>
0.901888

> <r_epik_Charging_Adjusted_Penalty>
0.901888

> <i_epik_Tot_Q>
0

> <i_epik_Tot_abs_Q>
0

> <r_epik_Metal_State_Penalty>
0.901181

> <b_epik_Metal_Only>
0

> <s_lp_Force_Field>
OPLS_2005

> <r_lp_Energy>
8.51746

> <b_lp_Chiralities_Consistent>
1

> <s_lp_Variant>
AV-unprocessed.smi:3116-12

> <Gold.Version>
5.8.1

> <Gold.Id.Protein>
6NUR|6NUR_protein|mol2

> <Gold.PLP.Fitness>
42.1975

> <Gold.PLP.PLP>
-38.5380

> <Gold.PLP.part.hbond>
-2.0000

> <Gold.PLP.part.metal>
0.0000

> <Gold.PLP.part.buried>
-5.1889

> <Gold.PLP.part.nonpolar>
-30.9347

> <Gold.PLP.part.repulsive>
0.1603

> <Gold.PLP.ligand.clash>
0.0000

> <Gold.PLP.ligand.torsion>
0.7413

> <Gold.PLP.Chemscore.Hbond>
1.6800

> <Gold.PLP.Chemscore.CHOScore>
0.0000

> <Gold.PLP.Chemscore.Metal>
0.0000

> <Gold.Chemscore.Hbonds>
donor molecule, donor type, donor heavy atom, donor atom, acceptor molecule, acceptor atom, score
      L1  H    14    32       P1  8028  0.96
      P1  H  7989  7998       L1    15  0.72

> <Gold.PLP.Chemscore.Internal.Correction>
0.1021

> <Gold.Rescore>
     Score         DG    S(hbond)    S(metal)    S(lipo)     H(rot)  DE(clash)    DE(int)     intcor
     12.57     -14.69       1.72        0.00      81.93       2.38       0.01       2.11       ----

> <Gold.Chemscore.Fitness>
12.5727

> <Gold.Chemscore.DG>
-14.6916

> <Gold.Chemscore.ZeroCoef>
-5.4800

> <Gold.Chemscore.Hbond>
1.7150

> <Gold.Chemscore.Metal>
0.0000

> <Gold.Chemscore.Lipo>
81.9269

> <Gold.Chemscore.Internal_Hbond>
0.0000

> <Gold.Chemscore.DEClash>
0.0064

> <Gold.Chemscore.DEInternal>
2.1126

> <Gold.Chemscore.Rot>
2.3836

> <Gold.Chemscore.Internal.Correction>
   9.000000E+99

> <Gold.Chemscore.Hbonds>
donor molecule, donor type, donor heavy atom, donor atom, acceptor molecule, acceptor atom, score
      L1  H    14    32       P1  8028  0.92
      P1  H  7989  7998       L1    15  0.71

> <Gold.Chemscore.Hbond.Weighted>
-5.7282

> <Gold.Chemscore.Metal.Weighted>
-0.0000

> <Gold.Chemscore.Lipo.Weighted>
-9.5854

> <Gold.Chemscore.Internal_Hbond.Weighted>
0.0000

> <Gold.Chemscore.DEClash.Weighted>
0.0064

> <Gold.Chemscore.DEInternal.Weighted>
2.1126

> <Gold.Chemscore.Rot.Weighted>
6.1020

> <Gold.Chemscore.Internal.Correction.Weighted>
   9.000000E+99

> <Gold.Protein.RotatedTorsions>
[ 6907 6896 6895 6894 ] final    3.13 input  -60.11 | X-H torsion
[ 7974 7965 7964 7962 ] final -158.94 input  175.53 | X-H torsion
[ 8008 7997 7996 7995 ] final  148.56 input   59.86 | X-H torsion
[ 10167 10162 10161 10158 ] final   48.72 input  -65.29 | X-H torsion
[ 10718 10713 10712 10709 ] final  170.77 input   66.30 | X-H torsion
[ 10763 10752 10751 10750 ] final  118.59 input  -60.55 | X-H torsion
[ 11005 11000 10999 10996 ] final   -4.79 input  -57.11 | X-H torsion

> <Gold.Protein.ActiveResidues>
 VAL166  LYS551  ARG553  GLY616  TRP617  ASP618  TYR619  PRO620  LYS621  CYS622 
 ASP623  PHE694  ASN695  SER759  ASP760  ASP761  ALA762  ILE779  LEU786  VAL792 
 PHE793  MET794  SER795  GLU796  ALA797  LYS798  CYS799  TRP800  GLU811  SER814 

> <Gold.Protein.RotatedAtoms>
  151.6201  135.1033  160.0099 H   0  0  0  0  0  0  0  0  0  0  0  0  # atno 6907 bound_to 6896
  152.4162  133.7038  159.6450 H   0  0  0  0  0  0  0  0  0  0  0  0  # atno 6908 bound_to 6896
  150.8051  133.8452  159.3231 H   0  0  0  0  0  0  0  0  0  0  0  0  # atno 6909 bound_to 6896
  144.7485  140.3756  143.6066 H   0  0  0  0  0  0  0  0  0  0  0  0  # atno 7974 bound_to 7965
  156.2787  140.2125  156.5718 H   0  0  0  0  0  0  0  0  0  0  0  0  # atno 8008 bound_to 7997
  154.7130  140.0510  157.0591 H   0  0  0  0  0  0  0  0  0  0  0  0  # atno 8009 bound_to 7997
  155.0580  140.3163  155.4673 H   0  0  0  0  0  0  0  0  0  0  0  0  # atno 8010 bound_to 7997
  140.2903  144.3053  150.6242 H   0  0  0  0  0  0  0  0  0  0  0  0  # atno 10167 bound_to 10162
  157.0033  131.0182  151.2824 H   0  0  0  0  0  0  0  0  0  0  0  0  # atno 10718 bound_to 10713
  153.5700  135.3504  155.2834 H   0  0  0  0  0  0  0  0  0  0  0  0  # atno 10763 bound_to 10752
  154.8683  135.4157  154.2736 H   0  0  0  0  0  0  0  0  0  0  0  0  # atno 10764 bound_to 10752
  153.3499  135.7054  153.6866 H   0  0  0  0  0  0  0  0  0  0  0  0  # atno 10765 bound_to 10752
  140.6841  133.9128  155.8574 H   0  0  0  0  0  0  0  0  0  0  0  0  # atno 11005 bound_to 11000
  145.7032  139.1666  143.2581 LP  0  0  0  0  0  0  0  0  0  0  0  0  # atno 17320 bound_to 7965
  146.1401  140.7069  142.9371 LP  0  0  0  0  0  0  0  0  0  0  0  0  # atno 17321 bound_to 7965
  140.5737  143.2178  151.7553 LP  0  0  0  0  0  0  0  0  0  0  0  0  # atno 17342 bound_to 10162
  139.4939  144.4180  152.0009 LP  0  0  0  0  0  0  0  0  0  0  0  0  # atno 17343 bound_to 10162
  157.5374  130.8098  149.7988 LP  0  0  0  0  0  0  0  0  0  0  0  0  # atno 17370 bound_to 10713
  156.0163  130.3812  150.2101 LP  0  0  0  0  0  0  0  0  0  0  0  0  # atno 17371 bound_to 10713
  141.0294  134.0777  157.4031 LP  0  0  0  0  0  0  0  0  0  0  0  0  # atno 17394 bound_to 11000
  139.8943  135.0135  156.6943 LP  0  0  0  0  0  0  0  0  0  0  0  0  # atno 17395 bound_to 11000

$$$$
