AV-unprocessed.smi:1260|AV-procd|sdf|5299|dock5
  -GOLD-   22720 4413D 1   1.00000     0.00000
 Structure written by MMmdl.
 37 39  0  0  0  0  0  0  0  0  2 V2000
  150.6196  139.9175  154.2824 O   0  0  0  0  0  0  0  0  0  0  0  0
  149.7871  140.6323  154.8408 C   0  0  0  0  0  0  0  0  0  0  0  0
  148.5355  141.1024  154.0938 C   0  0  0  0  0  0  0  0  0  0  0  0
  147.5548  140.0401  153.9600 N   0  0  0  0  0  0  0  0  0  0  0  0
  147.1111  139.3861  152.8844 C   0  0  0  0  0  0  0  0  0  0  0  0
  146.2014  138.4786  153.2046 N   0  0  0  0  0  0  0  0  0  0  0  0
  146.1002  138.6065  154.5799 N   0  0  0  0  0  0  0  0  0  0  0  0
  146.9017  139.5307  155.0339 N   0  0  0  0  0  0  0  0  0  0  0  0
  149.9166  141.0513  156.1089 N   0  0  0  0  0  0  0  0  0  0  0  0
  151.0321  140.7100  156.9882 C   0  0  2  0  0  0  0  0  0  0  0  0
  150.5989  140.0215  158.2763 C   0  0  0  0  0  0  0  0  0  0  0  0
  151.8111  140.2073  159.1951 C   0  0  0  0  0  0  0  0  0  0  0  0
  152.5202  141.4258  158.7319 N   0  3  2  0  0  0  0  0  0  0  0  0
  152.7246  142.4472  159.7939 C   0  0  0  0  0  0  0  0  0  0  0  0
  153.0853  143.8095  159.1835 C   0  0  0  0  0  0  0  0  0  0  0  0
  151.9507  144.3436  158.2888 C   0  0  0  0  0  0  0  0  0  0  0  0
  151.0522  143.2180  157.7405 C   0  0  0  0  0  0  0  0  0  0  0  0
  151.8506  141.9144  157.4929 C   0  0  2  0  0  0  0  0  0  0  0  0
  148.0677  141.9369  154.6183 H   0  0  0  0  0  0  0  0  0  0  0  0
  148.8191  141.4608  153.1031 H   0  0  0  0  0  0  0  0  0  0  0  0
  147.4506  139.5741  151.8764 H   0  0  0  0  0  0  0  0  0  0  0  0
  149.1927  141.6426  156.4917 H   0  0  0  0  0  0  0  0  0  0  0  0
  151.7018  140.0287  156.4586 H   0  0  0  0  0  0  0  0  0  0  0  0
  149.7317  140.5277  158.7030 H   0  0  0  0  0  0  0  0  0  0  0  0
  150.3385  138.9726  158.1308 H   0  0  0  0  0  0  0  0  0  0  0  0
  151.5136  140.2555  160.2437 H   0  0  0  0  0  0  0  0  0  0  0  0
  152.4940  139.3634  159.0914 H   0  0  0  0  0  0  0  0  0  0  0  0
  151.8194  142.5538  160.3943 H   0  0  0  0  0  0  0  0  0  0  0  0
  153.5113  142.1065  160.4679 H   0  0  0  0  0  0  0  0  0  0  0  0
  153.3138  144.5317  159.9678 H   0  0  0  0  0  0  0  0  0  0  0  0
  153.9964  143.7032  158.5929 H   0  0  0  0  0  0  0  0  0  0  0  0
  151.3332  145.0482  158.8471 H   0  0  0  0  0  0  0  0  0  0  0  0
  152.3860  144.9100  157.4647 H   0  0  0  0  0  0  0  0  0  0  0  0
  150.2490  143.0194  158.4514 H   0  0  0  0  0  0  0  0  0  0  0  0
  150.5689  143.5655  156.8273 H   0  0  0  0  0  0  0  0  0  0  0  0
  152.6265  142.1416  156.7599 H   0  0  0  0  0  0  0  0  0  0  0  0
  153.4400  141.1238  158.4432 H   0  0  0  0  0  0  0  0  0  0  0  0
  1  2  2  0  0  0  0
  2  3  1  0  0  0  0
  2  9  1  0  0  0  0
  3  4  1  0  0  0  0
  3 19  1  0  0  0  0
  3 20  1  0  0  0  0
  4  8  1  0  0  0  0
  4  5  1  0  0  0  0
  5  6  2  0  0  0  0
  5 21  1  0  0  0  0
  6  7  1  0  0  0  0
  7  8  2  0  0  0  0
  9 10  1  0  0  0  0
  9 22  1  0  0  0  0
 10 18  1  0  0  0  0
 10 11  1  0  0  0  0
 10 23  1  0  0  0  0
 11 12  1  0  0  0  0
 11 24  1  0  0  0  0
 11 25  1  0  0  0  0
 12 13  1  0  0  0  0
 12 26  1  0  0  0  0
 12 27  1  0  0  0  0
 13 18  1  0  0  0  0
 13 14  1  0  0  0  0
 13 37  1  0  0  0  0
 14 15  1  0  0  0  0
 14 28  1  0  0  0  0
 14 29  1  0  0  0  0
 15 16  1  0  0  0  0
 15 30  1  0  0  0  0
 15 31  1  0  0  0  0
 16 17  1  0  0  0  0
 16 32  1  0  0  0  0
 16 33  1  0  0  0  0
 17 18  1  0  0  0  0
 17 34  1  0  0  0  0
 17 35  1  0  0  0  0
 18 36  1  0  0  0  0
M  CHG  1  13   1
M  END
> <s_m_source_file>
AV-unprocessed.smi

> <i_m_source_file_index>
1260

> <i_lp_mmshare_version>
43012

> <i_f3d_flags>
0

> <s_epik_input>
bjFubltjSF1uMVtDSDJdQyg9TylbTkhdW0NASF0oW0NIMl1bQ0gyXTIpW0NAQEhdKE4yMylbQ0gyXVtDSDJdW0NIMl1bQ0gyXTM=

> <s_epik_cmdline>
J2VwaWtfcHl0aG9uJywgJy1waCcsICc3LjAnLCAnLXRuJywgJzgnLCAnLW1hJywgJzIwMCcsICctbWV0YWxfYmluZGluZycsICctaW1hZScsICc8aW5maWxlLm1hZT4nLCAnLW9tYWUnLCAnPG91dGZpbGUubWFlPic=

> <r_lp_tautomer_probability>
1

> <r_epik_Ionization_Penalty>
0.00234324

> <r_epik_Ionization_Penalty_Charging>
0.00233897

> <r_epik_Ionization_Penalty_Neutral>
4.26861e-06

> <r_epik_State_Penalty>
0.00161477

> <r_epik_Charging_Adjusted_Penalty>
0.00395374

> <i_epik_Tot_Q>
1

> <i_epik_Tot_abs_Q>
1

> <r_epik_Metal_State_Penalty>
-0

> <b_epik_Metal_Only>
0

> <s_lp_Force_Field>
OPLS_2005

> <r_lp_Energy>
44.1786

> <b_lp_Chiralities_Consistent>
1

> <s_lp_Variant>
AV-unprocessed.smi:1260-7

> <Gold.Version>
5.8.1

> <Gold.Id.Protein>
6NUR|6NUR_protein|mol2

> <Gold.PLP.Fitness>
37.1889

> <Gold.PLP.PLP>
-31.7043

> <Gold.PLP.part.hbond>
-1.0000

> <Gold.PLP.part.metal>
0.0000

> <Gold.PLP.part.buried>
-3.3685

> <Gold.PLP.part.nonpolar>
-26.9955

> <Gold.PLP.part.repulsive>
0.6612

> <Gold.PLP.ligand.clash>
0.0000

> <Gold.PLP.ligand.torsion>
0.2472

> <Gold.PLP.Chemscore.Hbond>
1.0000

> <Gold.PLP.Chemscore.CHOScore>
0.9923

> <Gold.PLP.Chemscore.Metal>
0.0000

> <Gold.Chemscore.Hbonds>
donor molecule, donor type, donor heavy atom, donor atom, acceptor molecule, acceptor atom, score
      P1  H  7989  7998       L1     1  1.00
      L1  C     5    21       P1  7957  0.99

> <Gold.PLP.Chemscore.Internal.Correction>
0.0021

> <Gold.Rescore>
     Score         DG    S(hbond)    S(metal)    S(lipo)     H(rot)  DE(clash)    DE(int)     intcor
     12.54     -12.90       1.00        0.00      78.16       1.98       0.05       0.30       ----

> <Gold.Chemscore.Fitness>
12.5441

> <Gold.Chemscore.DG>
-12.8963

> <Gold.Chemscore.ZeroCoef>
-5.4800

> <Gold.Chemscore.Hbond>
0.9970

> <Gold.Chemscore.Metal>
0.0000

> <Gold.Chemscore.Lipo>
78.1559

> <Gold.Chemscore.Internal_Hbond>
0.0000

> <Gold.Chemscore.DEClash>
0.0485

> <Gold.Chemscore.DEInternal>
0.3037

> <Gold.Chemscore.Rot>
1.9757

> <Gold.Chemscore.Internal.Correction>
   9.000000E+99

> <Gold.Chemscore.Hbonds>
donor molecule, donor type, donor heavy atom, donor atom, acceptor molecule, acceptor atom, score
      P1  H  7989  7998       L1     1  0.64

> <Gold.Chemscore.Hbond.Weighted>
-3.3298

> <Gold.Chemscore.Metal.Weighted>
-0.0000

> <Gold.Chemscore.Lipo.Weighted>
-9.1442

> <Gold.Chemscore.Internal_Hbond.Weighted>
0.0000

> <Gold.Chemscore.DEClash.Weighted>
0.0485

> <Gold.Chemscore.DEInternal.Weighted>
0.3037

> <Gold.Chemscore.Rot.Weighted>
5.0578

> <Gold.Chemscore.Internal.Correction.Weighted>
   9.000000E+99

> <Gold.Protein.RotatedTorsions>
[ 6907 6896 6895 6894 ] final -116.94 input  -60.11 | X-H torsion
[ 7974 7965 7964 7962 ] final -172.87 input  175.53 | X-H torsion
[ 8008 7997 7996 7995 ] final -111.46 input   59.86 | X-H torsion
[ 10167 10162 10161 10158 ] final  -86.19 input  -65.29 | X-H torsion
[ 10718 10713 10712 10709 ] final  -93.53 input   66.30 | X-H torsion
[ 10763 10752 10751 10750 ] final  -41.51 input  -60.55 | X-H torsion
[ 11005 11000 10999 10996 ] final  118.96 input  -57.11 | X-H torsion

> <Gold.Protein.ActiveResidues>
 VAL166  LYS551  ARG553  GLY616  TRP617  ASP618  TYR619  PRO620  LYS621  CYS622 
 ASP623  PHE694  ASN695  SER759  ASP760  ASP761  ALA762  ILE779  LEU786  VAL792 
 PHE793  MET794  SER795  GLU796  ALA797  LYS798  CYS799  TRP800  GLU811  SER814 

> <Gold.Protein.RotatedAtoms>
  150.8096  133.8446  159.3188 H   0  0  0  0  0  0  0  0  0  0  0  0  # atno 6907 bound_to 6896
  151.6235  135.1028  160.0116 H   0  0  0  0  0  0  0  0  0  0  0  0  # atno 6908 bound_to 6896
  152.4188  133.7042  159.6498 H   0  0  0  0  0  0  0  0  0  0  0  0  # atno 6909 bound_to 6896
  144.7142  140.1708  143.6367 H   0  0  0  0  0  0  0  0  0  0  0  0  # atno 7974 bound_to 7965
  154.9902  140.0395  157.2316 H   0  0  0  0  0  0  0  0  0  0  0  0  # atno 8008 bound_to 7997
  154.7635  140.2789  155.6172 H   0  0  0  0  0  0  0  0  0  0  0  0  # atno 8009 bound_to 7997
  156.2908  140.2624  156.2420 H   0  0  0  0  0  0  0  0  0  0  0  0  # atno 8010 bound_to 7997
  140.3965  143.2681  151.9198 H   0  0  0  0  0  0  0  0  0  0  0  0  # atno 10167 bound_to 10162
  156.0014  130.5031  150.5790 H   0  0  0  0  0  0  0  0  0  0  0  0  # atno 10718 bound_to 10713
  153.9636  135.6736  153.4745 H   0  0  0  0  0  0  0  0  0  0  0  0  # atno 10763 bound_to 10752
  153.0826  135.4915  154.8530 H   0  0  0  0  0  0  0  0  0  0  0  0  # atno 10764 bound_to 10752
  154.7258  135.3127  154.8933 H   0  0  0  0  0  0  0  0  0  0  0  0  # atno 10765 bound_to 10752
  139.9128  134.9624  156.7582 H   0  0  0  0  0  0  0  0  0  0  0  0  # atno 11005 bound_to 11000
  145.8945  139.2395  143.1529 LP  0  0  0  0  0  0  0  0  0  0  0  0  # atno 17320 bound_to 7965
  145.9871  140.8634  143.0085 LP  0  0  0  0  0  0  0  0  0  0  0  0  # atno 17321 bound_to 7965
  139.4786  144.5676  151.8140 LP  0  0  0  0  0  0  0  0  0  0  0  0  # atno 17342 bound_to 10162
  140.4785  144.1484  150.5929 LP  0  0  0  0  0  0  0  0  0  0  0  0  # atno 17343 bound_to 10162
  157.3673  131.0760  151.1587 LP  0  0  0  0  0  0  0  0  0  0  0  0  # atno 17370 bound_to 10713
  157.2352  130.6544  149.5866 LP  0  0  0  0  0  0  0  0  0  0  0  0  # atno 17371 bound_to 10713
  140.6719  133.9552  155.7861 LP  0  0  0  0  0  0  0  0  0  0  0  0  # atno 17394 bound_to 11000
  141.0572  134.0399  157.3707 LP  0  0  0  0  0  0  0  0  0  0  0  0  # atno 17395 bound_to 11000

$$$$
