AV-unprocessed.smi:1464|AV-procd|sdf|5939|dock5
  -GOLD-   22720 6 23D 1   1.00000     0.00000
 Structure written by MMmdl.
 40 41  0  0  0  0  0  0  0  0  2 V2000
  152.6389  142.4821  160.1205 C   0  0  0  0  0  0  0  0  0  0  0  0
  152.3901  143.2797  158.8237 C   0  0  2  0  0  0  0  0  0  0  0  0
  152.4845  144.8001  159.0648 C   0  0  0  0  0  0  0  0  0  0  0  0
  151.2712  145.3430  159.8360 C   0  0  0  0  0  0  0  0  0  0  0  0
  149.9586  144.9905  159.1223 C   0  0  0  0  0  0  0  0  0  0  0  0
  149.8282  143.4759  158.8692 C   0  0  1  0  0  0  0  0  0  0  0  0
  148.6005  143.2307  158.1132 N   0  0  0  0  0  0  0  0  0  0  0  0
  147.4235  142.8337  158.6221 C   0  0  0  0  0  0  0  0  0  0  0  0
  147.2420  142.6234  159.8226 O   0  0  0  0  0  0  0  0  0  0  0  0
  146.2929  142.6473  157.5977 C   0  0  0  0  0  0  0  0  0  0  0  0
  146.7127  142.0036  156.3441 N   0  0  0  0  0  0  0  0  0  0  0  0
  147.6191  140.8745  156.5357 N   0  5  0  0  0  0  0  0  0  0  0  0
  148.0502  140.1794  155.4498 C   0  0  0  0  0  0  0  0  0  0  0  0
  148.7951  139.2058  155.5344 O   0  0  0  0  0  0  0  0  0  0  0  0
  147.6084  140.6188  154.1366 C   0  0  0  0  0  0  0  0  0  0  0  0
  146.7947  141.6825  153.9876 C   0  0  0  0  0  0  0  0  0  0  0  0
  146.3016  142.4519  155.1236 C   0  0  0  0  0  0  0  0  0  0  0  0
  145.5646  143.4297  154.9938 O   0  0  0  0  0  0  0  0  0  0  0  0
  151.0604  142.9261  158.1044 C   0  0  2  0  0  0  0  0  0  0  0  0
  150.9482  141.4226  157.7819 C   0  0  0  0  0  0  0  0  0  0  0  0
  151.8491  142.6322  160.8559 H   0  0  0  0  0  0  0  0  0  0  0  0
  153.5787  142.7809  160.5854 H   0  0  0  0  0  0  0  0  0  0  0  0
  152.7097  141.4122  159.9260 H   0  0  0  0  0  0  0  0  0  0  0  0
  153.2045  143.0188  158.1463 H   0  0  0  0  0  0  0  0  0  0  0  0
  153.4041  145.0424  159.5984 H   0  0  0  0  0  0  0  0  0  0  0  0
  152.5505  145.3120  158.1038 H   0  0  0  0  0  0  0  0  0  0  0  0
  151.2598  144.9398  160.8489 H   0  0  0  0  0  0  0  0  0  0  0  0
  151.3542  146.4251  159.9403 H   0  0  0  0  0  0  0  0  0  0  0  0
  149.1136  145.3437  159.7150 H   0  0  0  0  0  0  0  0  0  0  0  0
  149.9141  145.5271  158.1734 H   0  0  0  0  0  0  0  0  0  0  0  0
  149.7744  142.9756  159.8370 H   0  0  0  0  0  0  0  0  0  0  0  0
  148.6510  143.3712  157.1146 H   0  0  0  0  0  0  0  0  0  0  0  0
  145.4940  142.0647  158.0596 H   0  0  0  0  0  0  0  0  0  0  0  0
  145.8568  143.6264  157.3908 H   0  0  0  0  0  0  0  0  0  0  0  0
  147.9424  140.0817  153.2609 H   0  0  0  0  0  0  0  0  0  0  0  0
  146.4931  141.9746  152.9929 H   0  0  0  0  0  0  0  0  0  0  0  0
  151.0897  143.4386  157.1411 H   0  0  0  0  0  0  0  0  0  0  0  0
  150.7810  140.8304  158.6818 H   0  0  0  0  0  0  0  0  0  0  0  0
  151.8547  141.0542  157.3012 H   0  0  0  0  0  0  0  0  0  0  0  0
  150.1203  141.2206  157.1021 H   0  0  0  0  0  0  0  0  0  0  0  0
  1  2  1  0  0  0  0
  1 21  1  0  0  0  0
  1 22  1  0  0  0  0
  1 23  1  0  0  0  0
  2 19  1  0  0  0  0
  2  3  1  0  0  0  0
  2 24  1  0  0  0  0
  3  4  1  0  0  0  0
  3 25  1  0  0  0  0
  3 26  1  0  0  0  0
  4  5  1  0  0  0  0
  4 27  1  0  0  0  0
  4 28  1  0  0  0  0
  5  6  1  0  0  0  0
  5 29  1  0  0  0  0
  5 30  1  0  0  0  0
  6  7  1  0  0  0  0
  6 19  1  0  0  0  0
  6 31  1  0  0  0  0
  7  8  1  0  0  0  0
  7 32  1  0  0  0  0
  8  9  2  0  0  0  0
  8 10  1  0  0  0  0
 10 33  1  0  0  0  0
 10 34  1  0  0  0  0
 10 11  1  0  0  0  0
 11 12  1  0  0  0  0
 11 17  1  0  0  0  0
 12 13  1  0  0  0  0
 13 14  2  0  0  0  0
 13 15  1  0  0  0  0
 15 35  1  0  0  0  0
 15 16  2  0  0  0  0
 16 36  1  0  0  0  0
 16 17  1  0  0  0  0
 17 18  2  0  0  0  0
 19 20  1  0  0  0  0
 19 37  1  0  0  0  0
 20 38  1  0  0  0  0
 20 39  1  0  0  0  0
 20 40  1  0  0  0  0
M  CHG  1  12  -1
M  END
> <s_m_source_file>
AV-unprocessed.smi

> <i_m_source_file_index>
1464

> <i_lp_mmshare_version>
43012

> <i_f3d_flags>
0

> <s_epik_input>
W0NIM11bQ0BASF0xW0NIMl1bQ0gyXVtDSDJdW0NASF0oW0NASF0xW0NIM10pW05IXUMoPU8pW0NIMl1uMltuSF1jKD1PKVtjSF1bY0hdYzI9Tw==

> <s_epik_cmdline>
J2VwaWtfcHl0aG9uJywgJy1waCcsICc3LjAnLCAnLXRuJywgJzgnLCAnLW1hJywgJzIwMCcsICctbWV0YWxfYmluZGluZycsICctaW1hZScsICc8aW5maWxlLm1hZT4nLCAnLW9tYWUnLCAnPG91dGZpbGUubWFlPic=

> <r_lp_tautomer_probability>
1

> <r_epik_Ionization_Penalty>
0.101366

> <r_epik_Ionization_Penalty_Charging>
0.101366

> <r_epik_Ionization_Penalty_Neutral>
1.90469e-08

> <r_epik_State_Penalty>
0.035861

> <r_epik_Charging_Adjusted_Penalty>
0.137227

> <i_epik_Tot_Q>
-1

> <i_epik_Tot_abs_Q>
1

> <r_epik_Metal_State_Penalty>
0.035861

> <b_epik_Metal_Only>
0

> <s_lp_Force_Field>
OPLS_2005

> <r_lp_Energy>
29.8831

> <b_lp_Chiralities_Consistent>
1

> <s_lp_Variant>
AV-unprocessed.smi:1464-5

> <Gold.Version>
5.8.1

> <Gold.Id.Protein>
6NUR|6NUR_protein|mol2

> <Gold.PLP.Fitness>
41.6006

> <Gold.PLP.PLP>
-36.1400

> <Gold.PLP.part.hbond>
-4.0000

> <Gold.PLP.part.metal>
0.0000

> <Gold.PLP.part.buried>
-2.4180

> <Gold.PLP.part.nonpolar>
-30.9999

> <Gold.PLP.part.repulsive>
0.4176

> <Gold.PLP.ligand.clash>
0.0000

> <Gold.PLP.ligand.torsion>
0.7725

> <Gold.PLP.Chemscore.Hbond>
2.3333

> <Gold.PLP.Chemscore.CHOScore>
0.0000

> <Gold.PLP.Chemscore.Metal>
0.0000

> <Gold.Chemscore.Hbonds>
donor molecule, donor type, donor heavy atom, donor atom, acceptor molecule, acceptor atom, score
      L1  H     7    32       P1  8028  0.88
      P1  H  6933  6944       L1     9  0.65
      P1  H  6934  6946       L1     9  0.74

> <Gold.PLP.Chemscore.Internal.Correction>
0.0059

> <Gold.Rescore>
     Score         DG    S(hbond)    S(metal)    S(lipo)     H(rot)  DE(clash)    DE(int)     intcor
     16.54     -17.24       1.61        0.00      90.56       1.64       0.12       0.58       ----

> <Gold.Chemscore.Fitness>
16.5405

> <Gold.Chemscore.DG>
-17.2389

> <Gold.Chemscore.ZeroCoef>
-5.4800

> <Gold.Chemscore.Hbond>
1.6083

> <Gold.Chemscore.Metal>
0.0000

> <Gold.Chemscore.Lipo>
90.5571

> <Gold.Chemscore.Internal_Hbond>
0.0000

> <Gold.Chemscore.DEClash>
0.1217

> <Gold.Chemscore.DEInternal>
0.5767

> <Gold.Chemscore.Rot>
1.6438

> <Gold.Chemscore.Internal.Correction>
   9.000000E+99

> <Gold.Chemscore.Hbonds>
donor molecule, donor type, donor heavy atom, donor atom, acceptor molecule, acceptor atom, score
      L1  H     7    32       P1  8028  0.25
      P1  H  6933  6944       L1     9  0.61
      P1  H  6934  6946       L1     9  0.71

> <Gold.Chemscore.Hbond.Weighted>
-5.3717

> <Gold.Chemscore.Metal.Weighted>
-0.0000

> <Gold.Chemscore.Lipo.Weighted>
-10.5952

> <Gold.Chemscore.Internal_Hbond.Weighted>
0.0000

> <Gold.Chemscore.DEClash.Weighted>
0.1217

> <Gold.Chemscore.DEInternal.Weighted>
0.5767

> <Gold.Chemscore.Rot.Weighted>
4.2080

> <Gold.Chemscore.Internal.Correction.Weighted>
   9.000000E+99

> <Gold.Protein.RotatedTorsions>
[ 6907 6896 6895 6894 ] final   72.65 input  -60.11 | X-H torsion
[ 7974 7965 7964 7962 ] final  -96.97 input  175.53 | X-H torsion
[ 8008 7997 7996 7995 ] final   77.42 input   59.86 | X-H torsion
[ 10167 10162 10161 10158 ] final   16.18 input  -65.29 | X-H torsion
[ 10718 10713 10712 10709 ] final  -68.50 input   66.30 | X-H torsion
[ 10763 10752 10751 10750 ] final   10.84 input  -60.55 | X-H torsion
[ 11005 11000 10999 10996 ] final -165.52 input  -57.11 | X-H torsion

> <Gold.Protein.ActiveResidues>
 VAL166  LYS551  ARG553  GLY616  TRP617  ASP618  TYR619  PRO620  LYS621  CYS622 
 ASP623  PHE694  ASN695  SER759  ASP760  ASP761  ALA762  ILE779  LEU786  VAL792 
 PHE793  MET794  SER795  GLU796  ALA797  LYS798  CYS799  TRP800  GLU811  SER814 

> <Gold.Protein.RotatedAtoms>
  152.4880  134.4539  159.9583 H   0  0  0  0  0  0  0  0  0  0  0  0  # atno 6907 bound_to 6896
  151.4532  133.3606  159.2806 H   0  0  0  0  0  0  0  0  0  0  0  0  # atno 6908 bound_to 6896
  150.9007  134.8444  159.7418 H   0  0  0  0  0  0  0  0  0  0  0  0  # atno 6909 bound_to 6896
  145.3399  140.9458  143.2614 H   0  0  0  0  0  0  0  0  0  0  0  0  # atno 7974 bound_to 7965
  155.8413  140.3462  155.5634 H   0  0  0  0  0  0  0  0  0  0  0  0  # atno 8008 bound_to 7997
  155.8137  140.0902  157.1908 H   0  0  0  0  0  0  0  0  0  0  0  0  # atno 8009 bound_to 7997
  154.4005  140.1443  156.3405 H   0  0  0  0  0  0  0  0  0  0  0  0  # atno 8010 bound_to 7997
  140.5816  143.8970  150.6794 H   0  0  0  0  0  0  0  0  0  0  0  0  # atno 10167 bound_to 10162
  156.0502  130.4296  150.2010 H   0  0  0  0  0  0  0  0  0  0  0  0  # atno 10718 bound_to 10713
  153.1989  135.6853  153.8256 H   0  0  0  0  0  0  0  0  0  0  0  0  # atno 10763 bound_to 10752
  153.7529  135.3221  155.3325 H   0  0  0  0  0  0  0  0  0  0  0  0  # atno 10764 bound_to 10752
  154.8160  135.4685  154.0746 H   0  0  0  0  0  0  0  0  0  0  0  0  # atno 10765 bound_to 10752
  140.5748  134.5201  157.5168 H   0  0  0  0  0  0  0  0  0  0  0  0  # atno 11005 bound_to 11000
  144.8799  139.4919  143.6728 LP  0  0  0  0  0  0  0  0  0  0  0  0  # atno 17320 bound_to 7965
  146.3012  139.7432  142.9090 LP  0  0  0  0  0  0  0  0  0  0  0  0  # atno 17321 bound_to 7965
  140.2471  143.3620  152.1437 LP  0  0  0  0  0  0  0  0  0  0  0  0  # atno 17342 bound_to 10162
  139.5173  144.6989  151.5549 LP  0  0  0  0  0  0  0  0  0  0  0  0  # atno 17343 bound_to 10162
  157.0094  130.9946  151.3370 LP  0  0  0  0  0  0  0  0  0  0  0  0  # atno 17370 bound_to 10713
  157.5420  130.8126  149.8041 LP  0  0  0  0  0  0  0  0  0  0  0  0  # atno 17371 bound_to 10713
  139.9344  134.7902  156.0841 LP  0  0  0  0  0  0  0  0  0  0  0  0  # atno 17394 bound_to 11000
  141.1033  133.6669  156.2805 LP  0  0  0  0  0  0  0  0  0  0  0  0  # atno 17395 bound_to 11000

$$$$
