AV-unprocessed.smi:2454|AV-procd|sdf|9697|dock7
  -GOLD-   2272013333D 1   1.00000     0.00000
 Structure written by MMmdl.
 42 43  0  0  0  0  0  0  0  0  1 V2000
  146.0675  128.7721  151.9409 C   0  0  0  0  0  0  0  0  0  0  0  0
  145.3426  129.9890  151.9711 O   0  0  0  0  0  0  0  0  0  0  0  0
  145.8884  130.9676  151.1028 C   0  0  0  0  0  0  0  0  0  0  0  0
  145.3245  132.3422  151.3972 C   0  0  0  0  0  0  0  0  0  0  0  0
  146.1672  133.4245  151.7276 C   0  0  0  0  0  0  0  0  0  0  0  0
  145.5536  134.6728  151.9781 C   0  0  0  0  0  0  0  0  0  0  0  0
  146.4491  135.7323  152.3088 N   0  0  0  0  0  0  0  0  0  0  0  0
  146.2844  136.8389  153.0651 C   0  0  0  0  0  0  0  0  0  0  0  0
  145.2102  137.0763  153.6151 O   0  0  0  0  0  0  0  0  0  0  0  0
  147.3508  137.6481  153.1748 N   0  0  0  0  0  0  0  0  0  0  0  0
  147.4069  138.8877  153.9426 C   0  0  2  0  0  0  0  0  0  0  0  0
  147.1407  140.1028  153.0323 C   0  0  0  0  0  0  0  0  0  0  0  0
  147.2792  141.4205  153.8091 C   0  0  0  0  0  0  0  0  0  0  0  0
  148.6539  141.5275  154.4876 C   0  0  0  0  0  0  0  0  0  0  0  0
  148.9268  140.3228  155.4129 C   0  0  2  0  0  0  0  0  0  0  0  0
  150.2966  140.4303  156.1141 C   0  0  0  0  0  0  0  0  0  0  0  0
  150.3693  139.5901  157.1469 F   0  0  0  0  0  0  0  0  0  0  0  0
  151.2730  140.1410  155.2540 F   0  0  0  0  0  0  0  0  0  0  0  0
  150.4879  141.6736  156.5556 F   0  0  0  0  0  0  0  0  0  0  0  0
  148.7839  139.0048  154.6223 C   0  0  0  0  0  0  0  0  0  0  0  0
  144.2031  134.7859  151.8932 N   0  0  0  0  0  0  0  0  0  0  0  0
  143.4986  133.6983  151.5711 C   0  0  0  0  0  0  0  0  0  0  0  0
  143.9842  132.4827  151.3188 N   0  0  0  0  0  0  0  0  0  0  0  0
  145.6091  128.0559  152.6225 H   0  0  0  0  0  0  0  0  0  0  0  0
  147.1019  128.9208  152.2544 H   0  0  0  0  0  0  0  0  0  0  0  0
  146.0638  128.3358  150.9412 H   0  0  0  0  0  0  0  0  0  0  0  0
  146.9748  130.9942  151.2051 H   0  0  0  0  0  0  0  0  0  0  0  0
  145.6709  130.7079  150.0655 H   0  0  0  0  0  0  0  0  0  0  0  0
  147.2390  133.2991  151.7828 H   0  0  0  0  0  0  0  0  0  0  0  0
  147.3706  135.6368  151.9079 H   0  0  0  0  0  0  0  0  0  0  0  0
  148.1940  137.3762  152.6882 H   0  0  0  0  0  0  0  0  0  0  0  0
  146.6447  138.8562  154.7235 H   0  0  0  0  0  0  0  0  0  0  0  0
  147.8420  140.1002  152.1966 H   0  0  0  0  0  0  0  0  0  0  0  0
  146.1425  140.0387  152.5981 H   0  0  0  0  0  0  0  0  0  0  0  0
  147.1309  142.2650  153.1355 H   0  0  0  0  0  0  0  0  0  0  0  0
  146.4935  141.4847  154.5628 H   0  0  0  0  0  0  0  0  0  0  0  0
  149.4301  141.5914  153.7241 H   0  0  0  0  0  0  0  0  0  0  0  0
  148.7041  142.4566  155.0559 H   0  0  0  0  0  0  0  0  0  0  0  0
  148.1627  140.3245  156.1916 H   0  0  0  0  0  0  0  0  0  0  0  0
  148.9320  138.1551  155.2898 H   0  0  0  0  0  0  0  0  0  0  0  0
  149.5709  138.9438  153.8688 H   0  0  0  0  0  0  0  0  0  0  0  0
  142.4268  133.8153  151.5096 H   0  0  0  0  0  0  0  0  0  0  0  0
  1  2  1  0  0  0  0
  1 24  1  0  0  0  0
  1 25  1  0  0  0  0
  1 26  1  0  0  0  0
  2  3  1  0  0  0  0
  3  4  1  0  0  0  0
  3 27  1  0  0  0  0
  3 28  1  0  0  0  0
  4 23  1  0  0  0  0
  4  5  2  0  0  0  0
  5  6  1  0  0  0  0
  5 29  1  0  0  0  0
  6  7  1  0  0  0  0
  6 21  2  0  0  0  0
  7  8  1  0  0  0  0
  7 30  1  0  0  0  0
  8  9  2  0  0  0  0
  8 10  1  0  0  0  0
 10 11  1  0  0  0  0
 10 31  1  0  0  0  0
 11 20  1  0  0  0  0
 11 12  1  0  0  0  0
 11 32  1  0  0  0  0
 12 13  1  0  0  0  0
 12 33  1  0  0  0  0
 12 34  1  0  0  0  0
 13 14  1  0  0  0  0
 13 35  1  0  0  0  0
 13 36  1  0  0  0  0
 14 15  1  0  0  0  0
 14 37  1  0  0  0  0
 14 38  1  0  0  0  0
 15 16  1  0  0  0  0
 15 20  1  0  0  0  0
 15 39  1  0  0  0  0
 16 17  1  0  0  0  0
 16 18  1  0  0  0  0
 16 19  1  0  0  0  0
 20 40  1  0  0  0  0
 20 41  1  0  0  0  0
 21 22  1  0  0  0  0
 22 23  2  0  0  0  0
 22 42  1  0  0  0  0
M  END
> <s_m_source_file>
AV-unprocessed.smi

> <i_m_source_file_index>
2454

> <i_lp_mmshare_version>
43012

> <i_f3d_flags>
0

> <s_epik_input>
W0NIM11PW0NIMl1jMVtjSF1jKG5bY0hdbjEpW05IXUMoPU8pW05IXVtDQEBIXTJbQ0gyXVtDSDJdW0NIMl1bQ0BASF0oQyhGKShGKUYpW0NIMl0y

> <s_epik_cmdline>
J2VwaWtfcHl0aG9uJywgJy1waCcsICc3LjAnLCAnLXRuJywgJzgnLCAnLW1hJywgJzIwMCcsICctbWV0YWxfYmluZGluZycsICctaW1hZScsICc8aW5maWxlLm1hZT4nLCAnLW9tYWUnLCAnPG91dGZpbGUubWFlPic=

> <r_lp_tautomer_probability>
1

> <r_epik_Ionization_Penalty>
3.01554e-05

> <r_epik_Ionization_Penalty_Charging>
0

> <r_epik_Ionization_Penalty_Neutral>
3.01554e-05

> <r_epik_State_Penalty>
-0

> <r_epik_Charging_Adjusted_Penalty>
0

> <i_epik_Tot_Q>
0

> <i_epik_Tot_abs_Q>
0

> <r_epik_Metal_State_Penalty>
-0

> <b_epik_Metal_Only>
0

> <s_lp_Force_Field>
OPLS_2005

> <r_lp_Energy>
14.2483

> <b_lp_Chiralities_Consistent>
1

> <s_lp_Variant>
AV-unprocessed.smi:2454-3

> <Gold.Version>
5.8.1

> <Gold.Id.Protein>
6NUR|6NUR_protein|mol2

> <Gold.PLP.Fitness>
42.0883

> <Gold.PLP.PLP>
-35.0156

> <Gold.PLP.part.hbond>
-1.9569

> <Gold.PLP.part.metal>
0.0000

> <Gold.PLP.part.buried>
-1.6498

> <Gold.PLP.part.nonpolar>
-32.0647

> <Gold.PLP.part.repulsive>
0.6719

> <Gold.PLP.ligand.clash>
0.0000

> <Gold.PLP.ligand.torsion>
0.8422

> <Gold.PLP.Chemscore.Hbond>
1.9360

> <Gold.PLP.Chemscore.CHOScore>
0.9637

> <Gold.PLP.Chemscore.Metal>
0.0000

> <Gold.Chemscore.Hbonds>
donor molecule, donor type, donor heavy atom, donor atom, acceptor molecule, acceptor atom, score
      L1  H     7    30       P1  7948  0.96
      L1  H    10    31       P1  7948  0.96
      L1  C    22    42       P1 10186  0.94

> <Gold.PLP.Chemscore.Internal.Correction>
0.0581

> <Gold.Rescore>
     Score         DG    S(hbond)    S(metal)    S(lipo)     H(rot)  DE(clash)    DE(int)     intcor
     14.49     -16.00       1.86        0.00      71.99       1.60       0.10       1.40       ----

> <Gold.Chemscore.Fitness>
14.4948

> <Gold.Chemscore.DG>
-16.0001

> <Gold.Chemscore.ZeroCoef>
-5.4800

> <Gold.Chemscore.Hbond>
1.8568

> <Gold.Chemscore.Metal>
0.0000

> <Gold.Chemscore.Lipo>
71.9948

> <Gold.Chemscore.Internal_Hbond>
0.0000

> <Gold.Chemscore.DEClash>
0.1046

> <Gold.Chemscore.DEInternal>
1.4006

> <Gold.Chemscore.Rot>
1.6035

> <Gold.Chemscore.Internal.Correction>
   9.000000E+99

> <Gold.Chemscore.Hbonds>
donor molecule, donor type, donor heavy atom, donor atom, acceptor molecule, acceptor atom, score
      L1  H     7    30       P1  7948  0.92
      L1  H    10    31       P1  7948  0.91

> <Gold.Chemscore.Hbond.Weighted>
-6.2017

> <Gold.Chemscore.Metal.Weighted>
-0.0000

> <Gold.Chemscore.Lipo.Weighted>
-8.4234

> <Gold.Chemscore.Internal_Hbond.Weighted>
0.0000

> <Gold.Chemscore.DEClash.Weighted>
0.1046

> <Gold.Chemscore.DEInternal.Weighted>
1.4006

> <Gold.Chemscore.Rot.Weighted>
4.1050

> <Gold.Chemscore.Internal.Correction.Weighted>
   9.000000E+99

> <Gold.Protein.RotatedTorsions>
[ 6907 6896 6895 6894 ] final   -6.63 input  -60.11 | X-H torsion
[ 7974 7965 7964 7962 ] final   24.97 input  175.53 | X-H torsion
[ 8008 7997 7996 7995 ] final  -64.64 input   59.86 | X-H torsion
[ 10167 10162 10161 10158 ] final  -70.34 input  -65.29 | X-H torsion
[ 10718 10713 10712 10709 ] final -151.71 input   66.30 | X-H torsion
[ 10763 10752 10751 10750 ] final   -0.99 input  -60.55 | X-H torsion
[ 11005 11000 10999 10996 ] final -150.84 input  -57.11 | X-H torsion

> <Gold.Protein.ActiveResidues>
 VAL166  LYS551  ARG553  GLY616  TRP617  ASP618  TYR619  PRO620  LYS621  CYS622 
 ASP623  PHE694  ASN695  SER759  ASP760  ASP761  ALA762  ILE779  LEU786  VAL792 
 PHE793  MET794  SER795  GLU796  ALA797  LYS798  CYS799  TRP800  GLU811  SER814 

> <Gold.Protein.RotatedAtoms>
  151.4625  135.1039  159.9728 H   0  0  0  0  0  0  0  0  0  0  0  0  # atno 6907 bound_to 6896
  152.4847  133.8339  159.7128 H   0  0  0  0  0  0  0  0  0  0  0  0  # atno 6908 bound_to 6896
  150.8947  133.7136  159.2922 H   0  0  0  0  0  0  0  0  0  0  0  0  # atno 6909 bound_to 6896
  146.1912  139.7531  142.8831 H   0  0  0  0  0  0  0  0  0  0  0  0  # atno 7974 bound_to 7965
  154.4624  140.0949  156.6929 H   0  0  0  0  0  0  0  0  0  0  0  0  # atno 8008 bound_to 7997
  155.4956  140.3472  155.4344 H   0  0  0  0  0  0  0  0  0  0  0  0  # atno 8009 bound_to 7997
  156.0894  140.1393  156.9599 H   0  0  0  0  0  0  0  0  0  0  0  0  # atno 8010 bound_to 7997
  140.5360  143.2318  151.7177 H   0  0  0  0  0  0  0  0  0  0  0  0  # atno 10167 bound_to 10162
  156.4628  130.8221  151.2452 H   0  0  0  0  0  0  0  0  0  0  0  0  # atno 10718 bound_to 10713
  153.3390  135.6979  153.6883 H   0  0  0  0  0  0  0  0  0  0  0  0  # atno 10763 bound_to 10752
  153.5656  135.3526  155.2817 H   0  0  0  0  0  0  0  0  0  0  0  0  # atno 10764 bound_to 10752
  154.8633  135.4260  154.2598 H   0  0  0  0  0  0  0  0  0  0  0  0  # atno 10765 bound_to 10752
  140.7359  134.3569  157.5157 H   0  0  0  0  0  0  0  0  0  0  0  0  # atno 11005 bound_to 11000
  145.3788  141.0355  143.3189 LP  0  0  0  0  0  0  0  0  0  0  0  0  # atno 17320 bound_to 7965
  144.8490  139.5352  143.6865 LP  0  0  0  0  0  0  0  0  0  0  0  0  # atno 17321 bound_to 7965
  139.4971  144.4042  152.0149 LP  0  0  0  0  0  0  0  0  0  0  0  0  # atno 17342 bound_to 10162
  140.3148  144.3496  150.6024 LP  0  0  0  0  0  0  0  0  0  0  0  0  # atno 17343 bound_to 10162
  157.7496  131.0101  150.3295 LP  0  0  0  0  0  0  0  0  0  0  0  0  # atno 17370 bound_to 10713
  156.3699  130.3861  149.7184 LP  0  0  0  0  0  0  0  0  0  0  0  0  # atno 17371 bound_to 10713
  139.8816  134.9049  156.2888 LP  0  0  0  0  0  0  0  0  0  0  0  0  # atno 17394 bound_to 11000
  140.9880  133.7226  156.0770 LP  0  0  0  0  0  0  0  0  0  0  0  0  # atno 17395 bound_to 11000

$$$$
