AV-unprocessed.smi:2458|AV-procd|sdf|9709|dock5
  -GOLD-   2272013353D 1   1.00000     0.00000
 Structure written by MMmdl.
 47 48  0  0  0  0  0  0  0  0  1 V2000
  151.8765  145.5735  159.7225 C   0  0  0  0  0  0  0  0  0  0  0  0
  151.6140  144.1546  160.2635 C   0  0  0  0  0  0  0  0  0  0  0  0
  152.3583  143.9904  161.6029 C   0  0  0  0  0  0  0  0  0  0  0  0
  151.9736  143.0415  159.2355 C   0  0  1  0  0  0  0  0  0  0  0  0
  152.2684  141.6828  159.9181 C   0  0  0  0  0  0  0  0  0  0  0  0
  152.6070  140.5761  158.9064 C   0  0  0  0  0  0  0  0  0  0  0  0
  151.4786  140.3948  157.8751 C   0  0  2  0  0  0  0  0  0  0  0  0
  151.8189  139.2987  156.8573 C   0  0  0  0  0  0  0  0  0  0  0  0
  152.8532  139.3643  156.1920 O   0  0  0  0  0  0  0  0  0  0  0  0
  150.9270  138.3047  156.7310 N   0  0  0  0  0  0  0  0  0  0  0  0
  151.0192  137.2116  155.7679 C   0  0  0  0  0  0  0  0  0  0  0  0
  149.7030  136.4116  155.6371 C   0  0  1  0  0  0  0  0  0  0  0  0
  148.9535  136.9569  154.5711 O   0  0  0  0  0  0  0  0  0  0  0  0
  149.9298  134.9148  155.4714 C   0  0  0  0  0  0  0  0  0  0  0  0
  150.7204  134.1994  156.3955 C   0  0  0  0  0  0  0  0  0  0  0  0
  150.9270  132.8217  156.1924 C   0  0  0  0  0  0  0  0  0  0  0  0
  150.3314  132.2131  155.0701 C   0  0  0  0  0  0  0  0  0  0  0  0
  149.5731  132.8854  154.1779 N   0  0  0  0  0  0  0  0  0  0  0  0
  149.3809  134.2067  154.3797 C   0  0  0  0  0  0  0  0  0  0  0  0
  151.2096  141.7329  157.1640 C   0  0  0  0  0  0  0  0  0  0  0  0
  150.8678  142.8440  158.1690 C   0  0  0  0  0  0  0  0  0  0  0  0
  152.8810  143.3515  158.7144 H   0  0  0  0  0  0  0  0  0  0  0  0
  150.5726  140.1008  158.4085 H   0  0  0  0  0  0  0  0  0  0  0  0
  152.9085  145.6864  159.3890 H   0  0  0  0  0  0  0  0  0  0  0  0
  151.6936  146.3268  160.4893 H   0  0  0  0  0  0  0  0  0  0  0  0
  151.2215  145.8212  158.8881 H   0  0  0  0  0  0  0  0  0  0  0  0
  150.5465  144.0853  160.4773 H   0  0  0  0  0  0  0  0  0  0  0  0
  153.4376  143.9468  161.4543 H   0  0  0  0  0  0  0  0  0  0  0  0
  152.0528  143.0893  162.1334 H   0  0  0  0  0  0  0  0  0  0  0  0
  152.1517  144.8253  162.2730 H   0  0  0  0  0  0  0  0  0  0  0  0
  153.1090  141.7706  160.6052 H   0  0  0  0  0  0  0  0  0  0  0  0
  151.4091  141.3775  160.5169 H   0  0  0  0  0  0  0  0  0  0  0  0
  153.5430  140.8258  158.4043 H   0  0  0  0  0  0  0  0  0  0  0  0
  152.7828  139.6397  159.4379 H   0  0  0  0  0  0  0  0  0  0  0  0
  150.1043  138.3280  157.3160 H   0  0  0  0  0  0  0  0  0  0  0  0
  151.3426  137.5875  154.7958 H   0  0  0  0  0  0  0  0  0  0  0  0
  151.8134  136.5532  156.1221 H   0  0  0  0  0  0  0  0  0  0  0  0
  149.1129  136.5650  156.5416 H   0  0  0  0  0  0  0  0  0  0  0  0
  149.0045  136.3656  153.8357 H   0  0  0  0  0  0  0  0  0  0  0  0
  151.1709  134.6975  157.2417 H   0  0  0  0  0  0  0  0  0  0  0  0
  151.5297  132.2457  156.8790 H   0  0  0  0  0  0  0  0  0  0  0  0
  150.4696  131.1584  154.8832 H   0  0  0  0  0  0  0  0  0  0  0  0
  148.7766  134.7152  153.6427 H   0  0  0  0  0  0  0  0  0  0  0  0
  152.0815  142.0321  156.5798 H   0  0  0  0  0  0  0  0  0  0  0  0
  150.3880  141.6217  156.4551 H   0  0  0  0  0  0  0  0  0  0  0  0
  149.9210  142.6126  158.6589 H   0  0  0  0  0  0  0  0  0  0  0  0
  150.7077  143.7612  157.6039 H   0  0  0  0  0  0  0  0  0  0  0  0
  1  2  1  0  0  0  0
  1 24  1  0  0  0  0
  1 25  1  0  0  0  0
  1 26  1  0  0  0  0
  2  3  1  0  0  0  0
  2  4  1  0  0  0  0
  2 27  1  0  0  0  0
  3 28  1  0  0  0  0
  3 29  1  0  0  0  0
  3 30  1  0  0  0  0
  4 22  1  0  0  0  0
  4 21  1  0  0  0  0
  4  5  1  0  0  0  0
  5  6  1  0  0  0  0
  5 31  1  0  0  0  0
  5 32  1  0  0  0  0
  6  7  1  0  0  0  0
  6 33  1  0  0  0  0
  6 34  1  0  0  0  0
  7 23  1  0  0  0  0
  7  8  1  0  0  0  0
  7 20  1  0  0  0  0
  8  9  2  0  0  0  0
  8 10  1  0  0  0  0
 10 11  1  0  0  0  0
 10 35  1  0  0  0  0
 11 12  1  0  0  0  0
 11 36  1  0  0  0  0
 11 37  1  0  0  0  0
 12 13  1  0  0  0  0
 12 14  1  0  0  0  0
 12 38  1  0  0  0  0
 13 39  1  0  0  0  0
 14 19  1  0  0  0  0
 14 15  2  0  0  0  0
 15 16  1  0  0  0  0
 15 40  1  0  0  0  0
 16 17  2  0  0  0  0
 16 41  1  0  0  0  0
 17 18  1  0  0  0  0
 17 42  1  0  0  0  0
 18 19  2  0  0  0  0
 19 43  1  0  0  0  0
 20 21  1  0  0  0  0
 20 44  1  0  0  0  0
 20 45  1  0  0  0  0
 21 46  1  0  0  0  0
 21 47  1  0  0  0  0
M  END
> <s_m_source_file>
AV-unprocessed.smi

> <i_m_source_file_index>
2458

> <i_lp_mmshare_version>
43012

> <i_f3d_flags>
0

> <s_epik_input>
W0NIM11bQ0hdKFtDSDNdKVtDQEhdMVtDSDJdW0NIMl1bQ0BASF0oW0NIMl1bQ0gyXTEpQyg9TylbTkhdW0NIMl1bQ0BIXShbT0hdKWMyW2NIXVtjSF1bY0hdbltjSF0y

> <s_epik_cmdline>
J2VwaWtfcHl0aG9uJywgJy1waCcsICc3LjAnLCAnLXRuJywgJzgnLCAnLW1hJywgJzIwMCcsICctbWV0YWxfYmluZGluZycsICctaW1hZScsICc8aW5maWxlLm1hZT4nLCAnLW9tYWUnLCAnPG91dGZpbGUubWFlPic=

> <r_epik_Ionization_Penalty>
0.00169206

> <r_epik_Ionization_Penalty_Charging>
0

> <r_epik_Ionization_Penalty_Neutral>
0.00169206

> <r_epik_State_Penalty>
0.0011427

> <r_epik_Charging_Adjusted_Penalty>
0.0011427

> <i_epik_Tot_Q>
0

> <i_epik_Tot_abs_Q>
0

> <r_epik_Metal_State_Penalty>
-0

> <b_epik_Metal_Only>
0

> <s_lp_Force_Field>
OPLS_2005

> <r_lp_Energy>
14.1606

> <b_lp_Chiralities_Consistent>
1

> <s_lp_Variant>
AV-unprocessed.smi:2458-2

> <Gold.Version>
5.8.1

> <Gold.Id.Protein>
6NUR|6NUR_protein|mol2

> <Gold.PLP.Fitness>
47.8170

> <Gold.PLP.PLP>
-41.3406

> <Gold.PLP.part.hbond>
-2.0000

> <Gold.PLP.part.metal>
0.0000

> <Gold.PLP.part.buried>
-5.9224

> <Gold.PLP.part.nonpolar>
-33.4056

> <Gold.PLP.part.repulsive>
0.1167

> <Gold.PLP.ligand.clash>
0.0000

> <Gold.PLP.ligand.torsion>
1.1600

> <Gold.PLP.Chemscore.Hbond>
1.9120

> <Gold.PLP.Chemscore.CHOScore>
1.0000

> <Gold.PLP.Chemscore.Metal>
0.0000

> <Gold.Chemscore.Hbonds>
donor molecule, donor type, donor heavy atom, donor atom, acceptor molecule, acceptor atom, score
      L1  H    13    39       P1  7948  0.91
      P1  H  7997  8009       L1     9  1.00
      L1  C    19    43       P1  7948  1.00

> <Gold.PLP.Chemscore.Internal.Correction>
0.0605

> <Gold.Rescore>
     Score         DG    S(hbond)    S(metal)    S(lipo)     H(rot)  DE(clash)    DE(int)     intcor
     19.18     -20.36       1.91        0.00     117.83       2.06       0.01       1.18       ----

> <Gold.Chemscore.Fitness>
19.1762

> <Gold.Chemscore.DG>
-20.3622

> <Gold.Chemscore.ZeroCoef>
-5.4800

> <Gold.Chemscore.Hbond>
1.9063

> <Gold.Chemscore.Metal>
0.0000

> <Gold.Chemscore.Lipo>
117.8264

> <Gold.Chemscore.Internal_Hbond>
0.0000

> <Gold.Chemscore.DEClash>
0.0103

> <Gold.Chemscore.DEInternal>
1.1756

> <Gold.Chemscore.Rot>
2.0588

> <Gold.Chemscore.Internal.Correction>
   9.000000E+99

> <Gold.Chemscore.Hbonds>
donor molecule, donor type, donor heavy atom, donor atom, acceptor molecule, acceptor atom, score
      L1  H    13    39       P1  7948  0.86
      P1  H  7997  8009       L1     9  1.00

> <Gold.Chemscore.Hbond.Weighted>
-6.3670

> <Gold.Chemscore.Metal.Weighted>
-0.0000

> <Gold.Chemscore.Lipo.Weighted>
-13.7857

> <Gold.Chemscore.Internal_Hbond.Weighted>
0.0000

> <Gold.Chemscore.DEClash.Weighted>
0.0103

> <Gold.Chemscore.DEInternal.Weighted>
1.1756

> <Gold.Chemscore.Rot.Weighted>
5.2705

> <Gold.Chemscore.Internal.Correction.Weighted>
   9.000000E+99

> <Gold.Protein.RotatedTorsions>
[ 6907 6896 6895 6894 ] final  155.56 input  -60.11 | X-H torsion
[ 7974 7965 7964 7962 ] final   83.90 input  175.53 | X-H torsion
[ 8008 7997 7996 7995 ] final -170.99 input   59.86 | X-H torsion
[ 10167 10162 10161 10158 ] final  -37.23 input  -65.29 | X-H torsion
[ 10718 10713 10712 10709 ] final  -61.92 input   66.30 | X-H torsion
[ 10763 10752 10751 10750 ] final -104.33 input  -60.55 | X-H torsion
[ 11005 11000 10999 10996 ] final  101.63 input  -57.11 | X-H torsion

> <Gold.Protein.ActiveResidues>
 VAL166  LYS551  ARG553  GLY616  TRP617  ASP618  TYR619  PRO620  LYS621  CYS622 
 ASP623  PHE694  ASN695  SER759  ASP760  ASP761  ALA762  ILE779  LEU786  VAL792 
 PHE793  MET794  SER795  GLU796  ALA797  LYS798  CYS799  TRP800  GLU811  SER814 

> <Gold.Protein.RotatedAtoms>
  152.0424  133.3983  159.4342 H   0  0  0  0  0  0  0  0  0  0  0  0  # atno 6907 bound_to 6896
  150.6875  134.3400  159.4873 H   0  0  0  0  0  0  0  0  0  0  0  0  # atno 6908 bound_to 6896
  152.1200  134.9212  160.0614 H   0  0  0  0  0  0  0  0  0  0  0  0  # atno 6909 bound_to 6896
  145.6058  139.2360  143.2220 H   0  0  0  0  0  0  0  0  0  0  0  0  # atno 7974 bound_to 7965
  155.9257  140.1082  157.1172 H   0  0  0  0  0  0  0  0  0  0  0  0  # atno 8008 bound_to 7997
  154.4062  140.1247  156.4802 H   0  0  0  0  0  0  0  0  0  0  0  0  # atno 8009 bound_to 7997
  155.7142  140.3470  155.4989 H   0  0  0  0  0  0  0  0  0  0  0  0  # atno 8010 bound_to 7997
  140.7123  143.3355  151.2472 H   0  0  0  0  0  0  0  0  0  0  0  0  # atno 10167 bound_to 10162
  156.0890  130.4203  150.1061 H   0  0  0  0  0  0  0  0  0  0  0  0  # atno 10718 bound_to 10713
  154.7870  135.4790  153.9968 H   0  0  0  0  0  0  0  0  0  0  0  0  # atno 10763 bound_to 10752
  153.1575  135.6802  153.8798 H   0  0  0  0  0  0  0  0  0  0  0  0  # atno 10764 bound_to 10752
  153.8422  135.3178  155.3405 H   0  0  0  0  0  0  0  0  0  0  0  0  # atno 10765 bound_to 10752
  139.8774  134.9191  156.4936 H   0  0  0  0  0  0  0  0  0  0  0  0  # atno 11005 bound_to 11000
  146.1542  140.6882  142.9308 LP  0  0  0  0  0  0  0  0  0  0  0  0  # atno 17320 bound_to 7965
  144.7290  140.4615  143.6951 LP  0  0  0  0  0  0  0  0  0  0  0  0  # atno 17321 bound_to 7965
  139.6849  143.9790  152.2829 LP  0  0  0  0  0  0  0  0  0  0  0  0  # atno 17342 bound_to 10162
  139.9433  144.6668  150.8245 LP  0  0  0  0  0  0  0  0  0  0  0  0  # atno 17343 bound_to 10162
  156.9076  130.9641  151.3567 LP  0  0  0  0  0  0  0  0  0  0  0  0  # atno 17370 bound_to 10713
  157.6033  130.8528  149.8836 LP  0  0  0  0  0  0  0  0  0  0  0  0  # atno 17371 bound_to 10713
  140.8640  133.8038  155.9295 LP  0  0  0  0  0  0  0  0  0  0  0  0  # atno 17394 bound_to 11000
  140.9020  134.2366  157.5036 LP  0  0  0  0  0  0  0  0  0  0  0  0  # atno 17395 bound_to 11000

$$$$
