AV-unprocessed.smi:2786|AV-procd|sdf|10751|dock1
  -GOLD-   2272015183D 1   1.00000     0.00000
 Structure written by MMmdl.
 28 29  0  0  0  0  0  0  0  0  3 V2000
  148.6675  147.3696  161.4424 C   0  0  0  0  0  0  0  0  0  0  0  0
  149.2238  146.4142  160.4821 N   0  0  0  0  0  0  0  0  0  0  0  0
  150.1768  145.4621  160.7397 C   0  0  0  0  0  0  0  0  0  0  0  0
  150.4031  144.8032  159.5600 C   0  0  0  0  0  0  0  0  0  0  0  0
  149.5784  145.3789  158.6323 N   0  3  0  0  0  0  0  0  0  0  0  0
  148.8519  146.3555  159.1918 C   0  0  0  0  0  0  0  0  0  0  0  0
  147.8469  147.2209  158.4865 C   0  0  1  0  0  0  0  0  0  0  0  0
  148.0495  148.7140  158.8327 C   0  0  0  0  0  0  0  0  0  0  0  0
  147.0275  149.5468  158.1650 N   0  3  0  0  0  0  0  0  0  0  0  0
  147.0241  149.3184  156.7067 C   0  0  0  0  0  0  0  0  0  0  0  0
  146.8285  147.8207  156.4107 C   0  0  0  0  0  0  0  0  0  0  0  0
  147.8983  147.0470  157.0344 N   0  0  0  0  0  0  0  0  0  0  0  0
  149.2003  147.2866  162.3906 H   0  0  0  0  0  0  0  0  0  0  0  0
  147.6119  147.1470  161.6014 H   0  0  0  0  0  0  0  0  0  0  0  0
  148.7800  148.3828  161.0557 H   0  0  0  0  0  0  0  0  0  0  0  0
  150.6152  145.3275  161.7185 H   0  0  0  0  0  0  0  0  0  0  0  0
  151.0722  143.9903  159.3175 H   0  0  0  0  0  0  0  0  0  0  0  0
  146.8669  146.8899  158.8326 H   0  0  0  0  0  0  0  0  0  0  0  0
  147.9758  148.8707  159.9091 H   0  0  0  0  0  0  0  0  0  0  0  0
  149.0426  149.0495  158.5296 H   0  0  0  0  0  0  0  0  0  0  0  0
  146.1179  149.3052  158.5317 H   0  0  0  0  0  0  0  0  0  0  0  0
  146.2213  149.9025  156.2564 H   0  0  0  0  0  0  0  0  0  0  0  0
  147.9610  149.6770  156.2776 H   0  0  0  0  0  0  0  0  0  0  0  0
  145.8588  147.4755  156.7722 H   0  0  0  0  0  0  0  0  0  0  0  0
  146.8486  147.6470  155.3345 H   0  0  0  0  0  0  0  0  0  0  0  0
  147.7830  146.0696  156.8036 H   0  0  0  0  0  0  0  0  0  0  0  0
  147.2106  150.5225  158.3522 H   0  0  0  0  0  0  0  0  0  0  0  0
  149.5185  145.1033  157.6598 H   0  0  0  0  0  0  0  0  0  0  0  0
  1  2  1  0  0  0  0
  1 13  1  0  0  0  0
  1 14  1  0  0  0  0
  1 15  1  0  0  0  0
  2  6  1  0  0  0  0
  2  3  1  0  0  0  0
  3  4  2  0  0  0  0
  3 16  1  0  0  0  0
  4  5  1  0  0  0  0
  4 17  1  0  0  0  0
  5  6  2  0  0  0  0
  5 28  1  0  0  0  0
  6  7  1  0  0  0  0
  7 12  1  0  0  0  0
  7  8  1  0  0  0  0
  7 18  1  0  0  0  0
  8  9  1  0  0  0  0
  8 19  1  0  0  0  0
  8 20  1  0  0  0  0
  9 10  1  0  0  0  0
  9 21  1  0  0  0  0
  9 27  1  0  0  0  0
 10 11  1  0  0  0  0
 10 22  1  0  0  0  0
 10 23  1  0  0  0  0
 11 12  1  0  0  0  0
 11 24  1  0  0  0  0
 11 25  1  0  0  0  0
 12 26  1  0  0  0  0
M  CHG  1   5   1
M  CHG  1   9   1
M  END
> <s_m_source_file>
AV-unprocessed.smi

> <i_m_source_file_index>
2786

> <i_lp_mmshare_version>
43012

> <i_f3d_flags>
0

> <s_epik_input>
W0NIM11uMVtjSF1bY0hdbmMxW0NAQEhdMltDSDJdW05IXVtDSDJdW0NIMl1bTkhdMg==

> <s_epik_cmdline>
J2VwaWtfcHl0aG9uJywgJy1waCcsICc3LjAnLCAnLXRuJywgJzgnLCAnLW1hJywgJzIwMCcsICctbWV0YWxfYmluZGluZycsICctaW1hZScsICc8aW5maWxlLm1hZT4nLCAnLW9tYWUnLCAnPG91dGZpbGUubWFlPic=

> <r_lp_tautomer_probability>
1

> <r_epik_Ionization_Penalty>
1.19986

> <r_epik_Ionization_Penalty_Charging>
0.069211

> <r_epik_Ionization_Penalty_Neutral>
1.13065

> <r_epik_State_Penalty>
0.776615

> <r_epik_Charging_Adjusted_Penalty>
0.845826

> <i_epik_Tot_Q>
2

> <i_epik_Tot_abs_Q>
2

> <r_epik_Metal_State_Penalty>
4.73559

> <b_epik_Metal_Only>
0

> <s_lp_Force_Field>
OPLS_2005

> <r_lp_Energy>
18.3539

> <b_lp_Chiralities_Consistent>
1

> <s_lp_Variant>
AV-unprocessed.smi:2786-4

> <Gold.Version>
5.8.1

> <Gold.Id.Protein>
6NUR|6NUR_protein|mol2

> <Gold.PLP.Fitness>
36.6224

> <Gold.PLP.PLP>
-29.1747

> <Gold.PLP.part.hbond>
-2.2789

> <Gold.PLP.part.metal>
0.0000

> <Gold.PLP.part.buried>
-3.9978

> <Gold.PLP.part.nonpolar>
-23.2236

> <Gold.PLP.part.repulsive>
0.1153

> <Gold.PLP.ligand.clash>
0.0011

> <Gold.PLP.ligand.torsion>
0.2648

> <Gold.PLP.Chemscore.Hbond>
2.6560

> <Gold.PLP.Chemscore.CHOScore>
0.0000

> <Gold.PLP.Chemscore.Metal>
0.0000

> <Gold.PLP.Chemscore.Internal.Correction>
0.0104

> <Gold.Rescore>
     Score         DG    S(hbond)    S(metal)    S(lipo)     H(rot)  DE(clash)    DE(int)     intcor
     13.53     -13.58       1.02        0.00      62.07       1.00       0.00       0.04       ----

> <Gold.Chemscore.Fitness>
13.5315

> <Gold.Chemscore.DG>
-13.5755

> <Gold.Chemscore.ZeroCoef>
-5.4800

> <Gold.Chemscore.Hbond>
1.0160

> <Gold.Chemscore.Metal>
0.0000

> <Gold.Chemscore.Lipo>
62.0682

> <Gold.Chemscore.Internal_Hbond>
0.0000

> <Gold.Chemscore.DEClash>
0.0000

> <Gold.Chemscore.DEInternal>
0.0439

> <Gold.Chemscore.Rot>
1.0000

> <Gold.Chemscore.Internal.Correction>
   9.000000E+99

> <Gold.Chemscore.Hbond.Weighted>
-3.3935

> <Gold.Chemscore.Metal.Weighted>
-0.0000

> <Gold.Chemscore.Lipo.Weighted>
-7.2620

> <Gold.Chemscore.Internal_Hbond.Weighted>
0.0000

> <Gold.Chemscore.DEClash.Weighted>
0.0000

> <Gold.Chemscore.DEInternal.Weighted>
0.0439

> <Gold.Chemscore.Rot.Weighted>
2.5600

> <Gold.Chemscore.Internal.Correction.Weighted>
   9.000000E+99

> <Gold.Protein.RotatedTorsions>
[ 6907 6896 6895 6894 ] final -107.17 input  -60.11 | X-H torsion
[ 7974 7965 7964 7962 ] final  -31.12 input  175.53 | X-H torsion
[ 8008 7997 7996 7995 ] final    5.32 input   59.86 | X-H torsion
[ 10167 10162 10161 10158 ] final  166.85 input  -65.29 | X-H torsion
[ 10718 10713 10712 10709 ] final -153.01 input   66.30 | X-H torsion
[ 10763 10752 10751 10750 ] final  161.92 input  -60.55 | X-H torsion
[ 11005 11000 10999 10996 ] final   -3.02 input  -57.11 | X-H torsion

> <Gold.Protein.ActiveResidues>
 VAL166  LYS551  ARG553  GLY616  TRP617  ASP618  TYR619  PRO620  LYS621  CYS622 
 ASP623  PHE694  ASN695  SER759  ASP760  ASP761  ALA762  ILE779  LEU786  VAL792 
 PHE793  MET794  SER795  GLU796  ALA797  LYS798  CYS799  TRP800  GLU811  SER814 

> <Gold.Protein.RotatedAtoms>
  150.7429  133.9866  159.3593 H   0  0  0  0  0  0  0  0  0  0  0  0  # atno 6907 bound_to 6896
  151.7811  135.0759  160.0383 H   0  0  0  0  0  0  0  0  0  0  0  0  # atno 6908 bound_to 6896
  152.3273  133.5882  159.5821 H   0  0  0  0  0  0  0  0  0  0  0  0  # atno 6909 bound_to 6896
  146.1091  140.5627  142.8786 H   0  0  0  0  0  0  0  0  0  0  0  0  # atno 7974 bound_to 7965
  154.7268  140.2723  155.6491 H   0  0  0  0  0  0  0  0  0  0  0  0  # atno 8008 bound_to 7997
  156.2839  140.2723  156.1882 H   0  0  0  0  0  0  0  0  0  0  0  0  # atno 8009 bound_to 7997
  155.0434  140.0371  157.2507 H   0  0  0  0  0  0  0  0  0  0  0  0  # atno 8010 bound_to 7997
  139.4933  144.3984  151.9437 H   0  0  0  0  0  0  0  0  0  0  0  0  # atno 10167 bound_to 10162
  156.4801  130.8299  151.2526 H   0  0  0  0  0  0  0  0  0  0  0  0  # atno 10718 bound_to 10713
  154.2704  135.2766  155.2741 H   0  0  0  0  0  0  0  0  0  0  0  0  # atno 10763 bound_to 10752
  154.5307  135.5730  153.6760 H   0  0  0  0  0  0  0  0  0  0  0  0  # atno 10764 bound_to 10752
  152.9946  135.6227  154.2858 H   0  0  0  0  0  0  0  0  0  0  0  0  # atno 10765 bound_to 10752
  140.6647  133.9289  155.8458 H   0  0  0  0  0  0  0  0  0  0  0  0  # atno 11005 bound_to 11000
  144.7496  140.5157  143.6811 LP  0  0  0  0  0  0  0  0  0  0  0  0  # atno 17320 bound_to 7965
  145.5700  139.1483  143.3294 LP  0  0  0  0  0  0  0  0  0  0  0  0  # atno 17321 bound_to 7965
  140.3423  144.3188  150.5965 LP  0  0  0  0  0  0  0  0  0  0  0  0  # atno 17342 bound_to 10162
  140.5555  143.2199  151.7854 LP  0  0  0  0  0  0  0  0  0  0  0  0  # atno 17343 bound_to 10162
  157.7484  131.0048  150.3088 LP  0  0  0  0  0  0  0  0  0  0  0  0  # atno 17370 bound_to 10713
  156.3530  130.3834  149.7313 LP  0  0  0  0  0  0  0  0  0  0  0  0  # atno 17371 bound_to 10713
  141.0438  134.0583  157.3869 LP  0  0  0  0  0  0  0  0  0  0  0  0  # atno 17394 bound_to 11000
  139.9001  135.0161  156.7227 LP  0  0  0  0  0  0  0  0  0  0  0  0  # atno 17395 bound_to 11000

$$$$
