AV-unprocessed.smi:1878|AV-procd|sdf|7629|dock3
  -GOLD-   22720 9353D 1   1.00000     0.00000
 Structure written by MMmdl.
 35 36  0  0  0  0  0  0  0  0  3 V2000
  150.5449  140.5153  156.7125 O   0  0  0  0  0  0  0  0  0  0  0  0
  150.2356  141.6950  156.5096 C   0  0  0  0  0  0  0  0  0  0  0  0
  150.7659  142.8034  157.0903 N   0  5  0  0  0  0  0  0  0  0  0  0
  151.5119  142.8035  158.3524 C   0  0  0  0  0  0  0  0  0  0  0  0
  151.9261  144.2346  158.7425 C   0  0  0  0  0  0  0  0  0  0  0  0
  152.4623  144.2172  159.9629 F   0  0  0  0  0  0  0  0  0  0  0  0
  152.8333  144.7126  157.8890 F   0  0  0  0  0  0  0  0  0  0  0  0
  150.8671  145.0458  158.7578 F   0  0  0  0  0  0  0  0  0  0  0  0
  149.2523  142.0014  155.6441 N   0  0  0  0  0  0  0  0  0  0  0  0
  148.4697  141.1364  154.8334 C   0  0  0  0  0  0  0  0  0  0  0  0
  148.9990  139.8656  154.5252 C   0  0  0  0  0  0  0  0  0  0  0  0
  148.2508  138.9690  153.7353 C   0  0  0  0  0  0  0  0  0  0  0  0
  146.9695  139.3533  153.2755 C   0  0  0  0  0  0  0  0  0  0  0  0
  146.1493  138.5443  152.4769 N   0  0  0  0  0  0  0  0  0  0  0  0
  145.8600  137.2197  153.0004 C   0  0  0  0  0  0  0  0  0  0  0  0
  145.3104  136.4276  151.8117 C   0  0  0  0  0  0  0  0  0  0  0  0
  145.8522  137.1523  150.5734 C   0  0  0  0  0  0  0  0  0  0  0  0
  146.6442  138.3406  151.1264 C   0  0  0  0  0  0  0  0  0  0  0  0
  146.4915  140.5728  153.6053 N   0  3  0  0  0  0  0  0  0  0  0  0
  147.1763  141.4611  154.3577 C   0  0  0  0  0  0  0  0  0  0  0  0
  150.9199  142.3759  159.1630 H   0  0  0  0  0  0  0  0  0  0  0  0
  152.4081  142.1848  158.2851 H   0  0  0  0  0  0  0  0  0  0  0  0
  148.9986  142.9780  155.6131 H   0  0  0  0  0  0  0  0  0  0  0  0
  149.9777  139.5807  154.8831 H   0  0  0  0  0  0  0  0  0  0  0  0
  148.6648  138.0033  153.4861 H   0  0  0  0  0  0  0  0  0  0  0  0
  146.7653  136.7439  153.3786 H   0  0  0  0  0  0  0  0  0  0  0  0
  145.1392  137.2687  153.8171 H   0  0  0  0  0  0  0  0  0  0  0  0
  145.6134  135.3809  151.8485 H   0  0  0  0  0  0  0  0  0  0  0  0
  144.2201  136.4578  151.8100 H   0  0  0  0  0  0  0  0  0  0  0  0
  146.4787  136.5071  149.9566 H   0  0  0  0  0  0  0  0  0  0  0  0
  145.0245  137.5011  149.9547 H   0  0  0  0  0  0  0  0  0  0  0  0
  146.5049  139.2346  150.5176 H   0  0  0  0  0  0  0  0  0  0  0  0
  147.7099  138.1076  151.1444 H   0  0  0  0  0  0  0  0  0  0  0  0
  146.6572  142.3870  154.5558 H   0  0  0  0  0  0  0  0  0  0  0  0
  145.5639  140.8364  153.2725 H   0  0  0  0  0  0  0  0  0  0  0  0
  1  2  2  0  0  0  0
  2  3  1  0  0  0  0
  2  9  1  0  0  0  0
  3  4  1  0  0  0  0
  4  5  1  0  0  0  0
  4 21  1  0  0  0  0
  4 22  1  0  0  0  0
  5  6  1  0  0  0  0
  5  7  1  0  0  0  0
  5  8  1  0  0  0  0
  9 10  1  0  0  0  0
  9 23  1  0  0  0  0
 10 20  1  0  0  0  0
 10 11  2  0  0  0  0
 11 12  1  0  0  0  0
 11 24  1  0  0  0  0
 12 13  2  0  0  0  0
 12 25  1  0  0  0  0
 13 14  1  0  0  0  0
 13 19  1  0  0  0  0
 14 18  1  0  0  0  0
 14 15  1  0  0  0  0
 15 16  1  0  0  0  0
 15 26  1  0  0  0  0
 15 27  1  0  0  0  0
 16 17  1  0  0  0  0
 16 28  1  0  0  0  0
 16 29  1  0  0  0  0
 17 18  1  0  0  0  0
 17 30  1  0  0  0  0
 17 31  1  0  0  0  0
 18 32  1  0  0  0  0
 18 33  1  0  0  0  0
 19 20  2  0  0  0  0
 19 35  1  0  0  0  0
 20 34  1  0  0  0  0
M  CHG  1   3  -1
M  CHG  1  19   1
M  END
> <s_m_source_file>
AV-unprocessed.smi

> <i_m_source_file_index>
1878

> <i_lp_mmshare_version>
43012

> <i_f3d_flags>
0

> <s_epik_input>
RkMoRikoRilbQ0gyXVtOSF1DKD1PKVtOSF1jMVtjSF1bY0hdYyhuW2NIXTEpTjJbQ0gyXVtDSDJdW0NIMl1bQ0gyXTI=

> <s_epik_cmdline>
J2VwaWtfcHl0aG9uJywgJy1waCcsICc3LjAnLCAnLXRuJywgJzgnLCAnLW1hJywgJzIwMCcsICctbWV0YWxfYmluZGluZycsICctaW1hZScsICc8aW5maWxlLm1hZT4nLCAnLW9tYWUnLCAnPG91dGZpbGUubWFlPic=

> <r_lp_tautomer_probability>
0.999994

> <r_epik_Ionization_Penalty>
8.03425

> <r_epik_Ionization_Penalty_Charging>
8.03425

> <r_epik_Ionization_Penalty_Neutral>
2.43273e-06

> <r_epik_State_Penalty>
7.63947

> <r_epik_Charging_Adjusted_Penalty>
15.6737

> <i_epik_Tot_Q>
0

> <i_epik_Tot_abs_Q>
2

> <r_epik_Metal_State_Penalty>
3.63831

> <b_epik_Metal_Only>
1

> <s_lp_Force_Field>
OPLS_2005

> <r_lp_Energy>
42.9348

> <b_lp_Chiralities_Consistent>
1

> <s_lp_Variant>
AV-unprocessed.smi:1878-4

> <Gold.Version>
5.8.1

> <Gold.Id.Protein>
6NUR|6NUR_protein|mol2

> <Gold.PLP.Fitness>
46.5406

> <Gold.PLP.PLP>
-38.5609

> <Gold.PLP.part.hbond>
-2.0000

> <Gold.PLP.part.metal>
0.0000

> <Gold.PLP.part.buried>
3.3172

> <Gold.PLP.part.nonpolar>
-42.3004

> <Gold.PLP.part.repulsive>
1.1734

> <Gold.PLP.ligand.clash>
0.0000

> <Gold.PLP.ligand.torsion>
0.3617

> <Gold.PLP.Chemscore.Hbond>
2.8850

> <Gold.PLP.Chemscore.CHOScore>
0.0000

> <Gold.PLP.Chemscore.Metal>
0.0000

> <Gold.Chemscore.Hbonds>
donor molecule, donor type, donor heavy atom, donor atom, acceptor molecule, acceptor atom, score
      L1  H     9    23       P1  8028  1.00
      L1  H    19    35       P1 10175  1.82

> <Gold.PLP.Chemscore.Internal.Correction>
0.0480

> <Gold.Rescore>
     Score         DG    S(hbond)    S(metal)    S(lipo)     H(rot)  DE(clash)    DE(int)     intcor
     12.81     -16.40       1.83        0.00      70.07       1.33       1.88       1.71       ----

> <Gold.Chemscore.Fitness>
12.8050

> <Gold.Chemscore.DG>
-16.3982

> <Gold.Chemscore.ZeroCoef>
-5.4800

> <Gold.Chemscore.Hbond>
1.8350

> <Gold.Chemscore.Metal>
0.0000

> <Gold.Chemscore.Lipo>
70.0736

> <Gold.Chemscore.Internal_Hbond>
0.0000

> <Gold.Chemscore.DEClash>
1.8830

> <Gold.Chemscore.DEInternal>
1.7101

> <Gold.Chemscore.Rot>
1.3317

> <Gold.Chemscore.Internal.Correction>
   9.000000E+99

> <Gold.Chemscore.Hbonds>
donor molecule, donor type, donor heavy atom, donor atom, acceptor molecule, acceptor atom, score
      L1  H     9    23       P1  8028  1.00
      L1  H    19    35       P1 10175  0.60

> <Gold.Chemscore.Hbond.Weighted>
-6.1288

> <Gold.Chemscore.Metal.Weighted>
-0.0000

> <Gold.Chemscore.Lipo.Weighted>
-8.1986

> <Gold.Chemscore.Internal_Hbond.Weighted>
0.0000

> <Gold.Chemscore.DEClash.Weighted>
1.8830

> <Gold.Chemscore.DEInternal.Weighted>
1.7101

> <Gold.Chemscore.Rot.Weighted>
3.4092

> <Gold.Chemscore.Internal.Correction.Weighted>
   9.000000E+99

> <Gold.Protein.RotatedTorsions>
[ 6907 6896 6895 6894 ] final -151.29 input  -60.11 | X-H torsion
[ 7974 7965 7964 7962 ] final  129.15 input  175.53 | X-H torsion
[ 8008 7997 7996 7995 ] final -171.41 input   59.86 | X-H torsion
[ 10167 10162 10161 10158 ] final  -67.19 input  -65.29 | X-H torsion
[ 10718 10713 10712 10709 ] final -147.70 input   66.30 | X-H torsion
[ 10763 10752 10751 10750 ] final  -69.01 input  -60.55 | X-H torsion
[ 11005 11000 10999 10996 ] final   -1.12 input  -57.11 | X-H torsion

> <Gold.Protein.ActiveResidues>
 VAL166  LYS551  ARG553  GLY616  TRP617  ASP618  TYR619  PRO620  LYS621  CYS622 
 ASP623  PHE694  ASN695  SER759  ASP760  ASP761  ALA762  ILE779  LEU786  VAL792 
 PHE793  MET794  SER795  GLU796  ALA797  LYS798  CYS799  TRP800  GLU811  SER814 

> <Gold.Protein.RotatedAtoms>
  151.2109  133.4556  159.2597 H   0  0  0  0  0  0  0  0  0  0  0  0  # atno 6907 bound_to 6896
  151.0977  134.9954  159.8444 H   0  0  0  0  0  0  0  0  0  0  0  0  # atno 6908 bound_to 6896
  152.5440  134.2038  159.8775 H   0  0  0  0  0  0  0  0  0  0  0  0  # atno 6909 bound_to 6896
  145.0318  139.4039  143.5146 H   0  0  0  0  0  0  0  0  0  0  0  0  # atno 7974 bound_to 7965
  155.9312  140.1091  157.1130 H   0  0  0  0  0  0  0  0  0  0  0  0  # atno 8008 bound_to 7997
  154.4071  140.1237  156.4871 H   0  0  0  0  0  0  0  0  0  0  0  0  # atno 8009 bound_to 7997
  155.7077  140.3471  155.4962 H   0  0  0  0  0  0  0  0  0  0  0  0  # atno 8010 bound_to 7997
  140.5602  143.2312  151.6743 H   0  0  0  0  0  0  0  0  0  0  0  0  # atno 10167 bound_to 10162
  156.4108  130.7981  151.2198 H   0  0  0  0  0  0  0  0  0  0  0  0  # atno 10718 bound_to 10713
  154.3973  135.6039  153.5877 H   0  0  0  0  0  0  0  0  0  0  0  0  # atno 10763 bound_to 10752
  152.9788  135.5898  154.4226 H   0  0  0  0  0  0  0  0  0  0  0  0  # atno 10764 bound_to 10752
  154.4019  135.2843  155.2069 H   0  0  0  0  0  0  0  0  0  0  0  0  # atno 10765 bound_to 10752
  140.6439  133.9465  155.8341 H   0  0  0  0  0  0  0  0  0  0  0  0  # atno 11005 bound_to 11000
  146.3499  139.9872  142.8689 LP  0  0  0  0  0  0  0  0  0  0  0  0  # atno 17320 bound_to 7965
  145.1761  140.9744  143.4293 LP  0  0  0  0  0  0  0  0  0  0  0  0  # atno 17321 bound_to 7965
  139.5066  144.3675  152.0503 LP  0  0  0  0  0  0  0  0  0  0  0  0  # atno 17342 bound_to 10162
  140.2800  144.3870  150.6122 LP  0  0  0  0  0  0  0  0  0  0  0  0  # atno 17343 bound_to 10162
  157.7507  131.0258  150.3935 LP  0  0  0  0  0  0  0  0  0  0  0  0  # atno 17370 bound_to 10713
  156.4232  130.3957  149.6810 LP  0  0  0  0  0  0  0  0  0  0  0  0  # atno 17371 bound_to 10713
  141.0587  134.0379  157.3688 LP  0  0  0  0  0  0  0  0  0  0  0  0  # atno 17394 bound_to 11000
  139.9070  135.0182  156.7529 LP  0  0  0  0  0  0  0  0  0  0  0  0  # atno 17395 bound_to 11000

$$$$
