AV-unprocessed.smi:1020|AV-procd|sdf|4453|dock8
  -GOLD-   22720 2423D 1   1.00000     0.00000
 Structure written by MMmdl.
 46 47  0  0  0  0  0  0  0  0  1 V2000
  144.8753  134.2442  162.5455 C   0  0  0  0  0  0  0  0  0  0  0  0
  146.0730  134.5674  161.6453 C   0  0  0  0  0  0  0  0  0  0  0  0
  147.0510  133.3852  161.5619 C   0  0  0  0  0  0  0  0  0  0  0  0
  146.7180  135.7050  162.2024 O   0  0  0  0  0  0  0  0  0  0  0  0
  147.8289  136.1804  161.4546 C   0  0  0  0  0  0  0  0  0  0  0  0
  147.4399  136.2845  159.9744 C   0  0  0  0  0  0  0  0  0  0  0  0
  148.4269  137.0630  159.1689 C   0  0  0  0  0  0  0  0  0  0  0  0
  149.7036  136.7581  158.9502 N   0  0  0  0  0  0  0  0  0  0  0  0
  150.1143  137.8434  158.2373 C   0  0  0  0  0  0  0  0  0  0  0  0
  151.5146  138.0035  157.7359 C   0  0  0  0  0  0  0  0  0  0  0  0
  151.8348  139.4785  157.4847 C   0  0  0  0  0  0  0  0  0  0  0  0
  152.0101  139.8829  156.3353 O   0  0  0  0  0  0  0  0  0  0  0  0
  151.9073  140.2704  158.5669 N   0  0  0  0  0  0  0  0  0  0  0  0
  152.2324  141.6928  158.5526 C   0  0  0  0  0  0  0  0  0  0  0  0
  152.4472  142.2121  159.9895 C   0  0  0  0  0  0  0  0  0  0  0  0
  152.7076  143.7266  160.0104 C   0  0  0  0  0  0  0  0  0  0  0  0
  151.5775  144.4966  159.3099 C   0  0  0  0  0  0  0  0  0  0  0  0
  151.3664  143.9875  157.8753 C   0  0  0  0  0  0  0  0  0  0  0  0
  151.1026  142.4729  157.8540 C   0  0  0  0  0  0  0  0  0  0  0  0
  149.1901  138.7703  158.0108 N   0  0  0  0  0  0  0  0  0  0  0  0
  148.0521  138.2565  158.6490 O   0  0  0  0  0  0  0  0  0  0  0  0
  144.3227  133.3812  162.1736 H   0  0  0  0  0  0  0  0  0  0  0  0
  144.1854  135.0864  162.5849 H   0  0  0  0  0  0  0  0  0  0  0  0
  145.1925  134.0261  163.5658 H   0  0  0  0  0  0  0  0  0  0  0  0
  145.6920  134.8001  160.6494 H   0  0  0  0  0  0  0  0  0  0  0  0
  146.5513  132.4927  161.1844 H   0  0  0  0  0  0  0  0  0  0  0  0
  147.4626  133.1457  162.5429 H   0  0  0  0  0  0  0  0  0  0  0  0
  147.8851  133.5963  160.8935 H   0  0  0  0  0  0  0  0  0  0  0  0
  148.1491  137.1570  161.8175 H   0  0  0  0  0  0  0  0  0  0  0  0
  148.6723  135.4971  161.5665 H   0  0  0  0  0  0  0  0  0  0  0  0
  147.3484  135.2865  159.5444 H   0  0  0  0  0  0  0  0  0  0  0  0
  146.4615  136.7563  159.8790 H   0  0  0  0  0  0  0  0  0  0  0  0
  152.2112  137.5920  158.4676 H   0  0  0  0  0  0  0  0  0  0  0  0
  151.6502  137.4359  156.8140 H   0  0  0  0  0  0  0  0  0  0  0  0
  151.7464  139.8507  159.4714 H   0  0  0  0  0  0  0  0  0  0  0  0
  153.1513  141.8412  157.9819 H   0  0  0  0  0  0  0  0  0  0  0  0
  151.5681  141.9890  160.5960 H   0  0  0  0  0  0  0  0  0  0  0  0
  153.2853  141.6937  160.4570 H   0  0  0  0  0  0  0  0  0  0  0  0
  152.8104  144.0708  161.0398 H   0  0  0  0  0  0  0  0  0  0  0  0
  153.6566  143.9401  159.5165 H   0  0  0  0  0  0  0  0  0  0  0  0
  150.6527  144.3850  159.8773 H   0  0  0  0  0  0  0  0  0  0  0  0
  151.8058  145.5627  159.2965 H   0  0  0  0  0  0  0  0  0  0  0  0
  150.5327  144.5163  157.4123 H   0  0  0  0  0  0  0  0  0  0  0  0
  152.2480  144.2130  157.2738 H   0  0  0  0  0  0  0  0  0  0  0  0
  150.9960  142.1342  156.8229 H   0  0  0  0  0  0  0  0  0  0  0  0
  150.1510  142.2667  158.3467 H   0  0  0  0  0  0  0  0  0  0  0  0
  1  2  1  0  0  0  0
  1 22  1  0  0  0  0
  1 23  1  0  0  0  0
  1 24  1  0  0  0  0
  2  3  1  0  0  0  0
  2  4  1  0  0  0  0
  2 25  1  0  0  0  0
  3 26  1  0  0  0  0
  3 27  1  0  0  0  0
  3 28  1  0  0  0  0
  4  5  1  0  0  0  0
  5  6  1  0  0  0  0
  5 29  1  0  0  0  0
  5 30  1  0  0  0  0
  6  7  1  0  0  0  0
  6 31  1  0  0  0  0
  6 32  1  0  0  0  0
  7 21  1  0  0  0  0
  7  8  2  0  0  0  0
  8  9  1  0  0  0  0
  9 10  1  0  0  0  0
  9 20  2  0  0  0  0
 10 11  1  0  0  0  0
 10 33  1  0  0  0  0
 10 34  1  0  0  0  0
 11 12  2  0  0  0  0
 11 13  1  0  0  0  0
 13 14  1  0  0  0  0
 13 35  1  0  0  0  0
 14 19  1  0  0  0  0
 14 15  1  0  0  0  0
 14 36  1  0  0  0  0
 15 16  1  0  0  0  0
 15 37  1  0  0  0  0
 15 38  1  0  0  0  0
 16 17  1  0  0  0  0
 16 39  1  0  0  0  0
 16 40  1  0  0  0  0
 17 18  1  0  0  0  0
 17 41  1  0  0  0  0
 17 42  1  0  0  0  0
 18 19  1  0  0  0  0
 18 43  1  0  0  0  0
 18 44  1  0  0  0  0
 19 45  1  0  0  0  0
 19 46  1  0  0  0  0
 20 21  1  0  0  0  0
M  END
> <s_m_source_file>
AV-unprocessed.smi

> <i_m_source_file_index>
1020

> <i_lp_mmshare_version>
43012

> <i_f3d_flags>
0

> <s_epik_input>
W0NIM11bQ0hdKFtDSDNdKU9bQ0gyXVtDSDJdYzFuYyhubzEpW0NIMl1DKD1PKVtOSF1bQ0hdMltDSDJdW0NIMl1bQ0gyXVtDSDJdW0NIMl0y

> <s_epik_cmdline>
J2VwaWtfcHl0aG9uJywgJy1waCcsICc3LjAnLCAnLXRuJywgJzgnLCAnLW1hJywgJzIwMCcsICctbWV0YWxfYmluZGluZycsICctaW1hZScsICc8aW5maWxlLm1hZT4nLCAnLW9tYWUnLCAnPG91dGZpbGUubWFlPic=

> <r_lp_tautomer_probability>
1

> <r_epik_Ionization_Penalty>
6.23671e-08

> <r_epik_Ionization_Penalty_Charging>
0

> <r_epik_Ionization_Penalty_Neutral>
6.23671e-08

> <r_epik_State_Penalty>
-0

> <r_epik_Charging_Adjusted_Penalty>
0

> <i_epik_Tot_Q>
0

> <i_epik_Tot_abs_Q>
0

> <r_epik_Metal_State_Penalty>
-0

> <b_epik_Metal_Only>
0

> <s_lp_Force_Field>
OPLS_2005

> <r_lp_Energy>
5.58856

> <b_lp_Chiralities_Consistent>
1

> <s_lp_Variant>
AV-unprocessed.smi:1020-1

> <Gold.Version>
5.8.1

> <Gold.Id.Protein>
6NUR|6NUR_protein|mol2

> <Gold.PLP.Fitness>
49.7167

> <Gold.PLP.PLP>
-44.6745

> <Gold.PLP.part.hbond>
-2.7640

> <Gold.PLP.part.metal>
0.0000

> <Gold.PLP.part.buried>
-6.3238

> <Gold.PLP.part.nonpolar>
-35.6838

> <Gold.PLP.part.repulsive>
0.1269

> <Gold.PLP.ligand.clash>
0.0000

> <Gold.PLP.ligand.torsion>
0.5551

> <Gold.PLP.Chemscore.Hbond>
2.0000

> <Gold.PLP.Chemscore.CHOScore>
0.0000

> <Gold.PLP.Chemscore.Metal>
0.0000

> <Gold.Chemscore.Hbonds>
donor molecule, donor type, donor heavy atom, donor atom, acceptor molecule, acceptor atom, score
      P1  H  6896  6909       L1     8  0.23

> <Gold.PLP.Chemscore.Internal.Correction>
0.1524

> <Gold.Rescore>
     Score         DG    S(hbond)    S(metal)    S(lipo)     H(rot)  DE(clash)    DE(int)     intcor
     18.63     -19.59       1.96        0.00     110.49       2.10       0.07       0.89       ----

> <Gold.Chemscore.Fitness>
18.6334

> <Gold.Chemscore.DG>
-19.5924

> <Gold.Chemscore.ZeroCoef>
-5.4800

> <Gold.Chemscore.Hbond>
1.9631

> <Gold.Chemscore.Metal>
0.0000

> <Gold.Chemscore.Lipo>
110.4861

> <Gold.Chemscore.Internal_Hbond>
0.0000

> <Gold.Chemscore.DEClash>
0.0732

> <Gold.Chemscore.DEInternal>
0.8857

> <Gold.Chemscore.Rot>
2.0982

> <Gold.Chemscore.Internal.Correction>
   9.000000E+99

> <Gold.Chemscore.Hbonds>
donor molecule, donor type, donor heavy atom, donor atom, acceptor molecule, acceptor atom, score
      P1  H  6896  6909       L1     8  0.25

> <Gold.Chemscore.Hbond.Weighted>
-6.5568

> <Gold.Chemscore.Metal.Weighted>
-0.0000

> <Gold.Chemscore.Lipo.Weighted>
-12.9269

> <Gold.Chemscore.Internal_Hbond.Weighted>
0.0000

> <Gold.Chemscore.DEClash.Weighted>
0.0732

> <Gold.Chemscore.DEInternal.Weighted>
0.8857

> <Gold.Chemscore.Rot.Weighted>
5.3713

> <Gold.Chemscore.Internal.Correction.Weighted>
   9.000000E+99

> <Gold.Protein.RotatedTorsions>
[ 6907 6896 6895 6894 ] final   85.78 input  -60.11 | X-H torsion
[ 7974 7965 7964 7962 ] final  168.27 input  175.53 | X-H torsion
[ 8008 7997 7996 7995 ] final  173.01 input   59.86 | X-H torsion
[ 10167 10162 10161 10158 ] final   52.91 input  -65.29 | X-H torsion
[ 10718 10713 10712 10709 ] final -174.40 input   66.30 | X-H torsion
[ 10763 10752 10751 10750 ] final   19.99 input  -60.55 | X-H torsion
[ 11005 11000 10999 10996 ] final  -69.47 input  -57.11 | X-H torsion

> <Gold.Protein.ActiveResidues>
 VAL166  LYS551  ARG553  GLY616  TRP617  ASP618  TYR619  PRO620  LYS621  CYS622 
 ASP623  PHE694  ASN695  SER759  ASP760  ASP761  ALA762  ILE779  LEU786  VAL792 
 PHE793  MET794  SER795  GLU796  ALA797  LYS798  CYS799  TRP800  GLU811  SER814 

> <Gold.Protein.RotatedAtoms>
  152.5382  134.2532  159.8906 H   0  0  0  0  0  0  0  0  0  0  0  0  # atno 6907 bound_to 6896
  151.2495  133.4351  159.2618 H   0  0  0  0  0  0  0  0  0  0  0  0  # atno 6908 bound_to 6896
  151.0552  134.9714  159.8288 H   0  0  0  0  0  0  0  0  0  0  0  0  # atno 6909 bound_to 6896
  144.7394  139.8883  143.6401 H   0  0  0  0  0  0  0  0  0  0  0  0  # atno 7974 bound_to 7965
  156.1118  140.1471  156.9328 H   0  0  0  0  0  0  0  0  0  0  0  0  # atno 8008 bound_to 7997
  154.4772  140.0890  156.7334 H   0  0  0  0  0  0  0  0  0  0  0  0  # atno 8009 bound_to 7997
  155.4583  140.3437  155.4311 H   0  0  0  0  0  0  0  0  0  0  0  0  # atno 8010 bound_to 7997
  140.2464  144.3527  150.6363 H   0  0  0  0  0  0  0  0  0  0  0  0  # atno 10167 bound_to 10162
  156.7846  130.9496  151.3120 H   0  0  0  0  0  0  0  0  0  0  0  0  # atno 10718 bound_to 10713
  153.1115  135.6698  153.9492 H   0  0  0  0  0  0  0  0  0  0  0  0  # atno 10763 bound_to 10752
  153.9033  135.3033  155.3450 H   0  0  0  0  0  0  0  0  0  0  0  0  # atno 10764 bound_to 10752
  154.7534  135.5023  153.9408 H   0  0  0  0  0  0  0  0  0  0  0  0  # atno 10765 bound_to 10752
  141.1555  133.6765  156.6605 H   0  0  0  0  0  0  0  0  0  0  0  0  # atno 11005 bound_to 11000
  146.1160  139.4172  143.0258 LP  0  0  0  0  0  0  0  0  0  0  0  0  # atno 17320 bound_to 7965
  145.7373  141.0021  143.1319 LP  0  0  0  0  0  0  0  0  0  0  0  0  # atno 17321 bound_to 7965
  140.6074  143.2168  151.6953 LP  0  0  0  0  0  0  0  0  0  0  0  0  # atno 17342 bound_to 10162
  139.5060  144.3696  152.0483 LP  0  0  0  0  0  0  0  0  0  0  0  0  # atno 17343 bound_to 10162
  157.6630  130.8983  149.9871 LP  0  0  0  0  0  0  0  0  0  0  0  0  # atno 17370 bound_to 10713
  156.1197  130.3646  149.9908 LP  0  0  0  0  0  0  0  0  0  0  0  0  # atno 17371 bound_to 10713
  140.3251  134.7975  157.4283 LP  0  0  0  0  0  0  0  0  0  0  0  0  # atno 17394 bound_to 11000
  140.1064  134.5404  155.8306 LP  0  0  0  0  0  0  0  0  0  0  0  0  # atno 17395 bound_to 11000

$$$$
