AV-unprocessed.smi:218|AV-procd|sdf|1672|dock1
  -GOLD-   2262020 93D 1   1.00000     0.00000
 Structure written by MMmdl.
 54 57  0  0  0  0  0  0  0  0  1 V2000
  151.6110  143.4403  157.9692 C   0  0  0  0  0  0  0  0  0  0  0  0
  151.7844  141.9332  158.1927 C   0  0  0  0  0  0  0  0  0  0  0  0
  153.0244  141.6371  159.0537 C   0  0  0  0  0  0  0  0  0  0  0  0
  151.9248  141.3361  156.9022 O   0  0  0  0  0  0  0  0  0  0  0  0
  150.8846  140.6087  156.3567 C   0  0  0  0  0  0  0  0  0  0  0  0
  149.7814  140.3020  157.1791 C   0  0  0  0  0  0  0  0  0  0  0  0
  148.7135  139.5587  156.6372 C   0  0  0  0  0  0  0  0  0  0  0  0
  147.5029  139.2252  157.4823 C   0  0  0  0  0  0  0  0  0  0  0  0
  147.3292  137.7917  157.6680 N   0  0  0  0  0  0  0  0  0  0  0  0
  146.2458  137.1691  157.1582 C   0  0  0  0  0  0  0  0  0  0  0  0
  145.1890  136.8428  157.9479 N   0  0  0  0  0  0  0  0  0  0  0  0
  144.1272  136.2251  157.4207 C   0  0  0  0  0  0  0  0  0  0  0  0
  143.9232  135.8484  156.1561 N   0  0  0  0  0  0  0  0  0  0  0  0
  144.9840  136.1737  155.3614 C   0  0  0  0  0  0  0  0  0  0  0  0
  146.1718  136.8320  155.7822 C   0  0  0  0  0  0  0  0  0  0  0  0
  147.0248  136.9983  154.6994 N   0  0  0  0  0  0  0  0  0  0  0  0
  146.3744  136.4653  153.6997 C   0  0  0  0  0  0  0  0  0  0  0  0
  145.1344  135.9452  154.0106 N   0  0  0  0  0  0  0  0  0  0  0  0
  144.1306  135.2634  153.1251 C   0  0  2  0  0  0  0  0  0  0  0  0
  144.6887  134.0632  152.6913 O   0  0  0  0  0  0  0  0  0  0  0  0
  145.2062  134.1677  151.3617 C   0  0  1  0  0  0  0  0  0  0  0  0
  144.4744  133.0943  150.5290 C   0  0  0  0  0  0  0  0  0  0  0  0
  143.1026  133.0841  150.8626 O   0  0  0  0  0  0  0  0  0  0  0  0
  144.9506  135.6328  150.9387 C   0  0  1  0  0  0  0  0  0  0  0  0
  144.5795  135.7810  149.5810 O   0  0  0  0  0  0  0  0  0  0  0  0
  143.8319  136.0837  151.8635 C   0  0  2  0  0  0  0  0  0  0  0  0
  143.8632  137.4844  152.0677 O   0  0  0  0  0  0  0  0  0  0  0  0
  148.7895  139.1480  155.2917 C   0  0  0  0  0  0  0  0  0  0  0  0
  149.9333  139.4998  154.5492 C   0  0  0  0  0  0  0  0  0  0  0  0
  150.9595  140.2118  155.0619 N   0  0  0  0  0  0  0  0  0  0  0  0
  143.2639  135.0937  153.7647 H   0  0  0  0  0  0  0  0  0  0  0  0
  146.2792  133.9708  151.3541 H   0  0  0  0  0  0  0  0  0  0  0  0
  145.8513  136.2200  151.1260 H   0  0  0  0  0  0  0  0  0  0  0  0
  142.8581  135.7727  151.4823 H   0  0  0  0  0  0  0  0  0  0  0  0
  151.4885  143.9666  158.9163 H   0  0  0  0  0  0  0  0  0  0  0  0
  150.7297  143.6443  157.3608 H   0  0  0  0  0  0  0  0  0  0  0  0
  152.4744  143.8670  157.4581 H   0  0  0  0  0  0  0  0  0  0  0  0
  150.8852  141.5772  158.6978 H   0  0  0  0  0  0  0  0  0  0  0  0
  152.9495  142.1230  160.0267 H   0  0  0  0  0  0  0  0  0  0  0  0
  153.9327  141.9981  158.5706 H   0  0  0  0  0  0  0  0  0  0  0  0
  153.1477  140.5692  159.2319 H   0  0  0  0  0  0  0  0  0  0  0  0
  149.7556  140.6348  158.2065 H   0  0  0  0  0  0  0  0  0  0  0  0
  147.5955  139.7103  158.4549 H   0  0  0  0  0  0  0  0  0  0  0  0
  146.6175  139.6397  156.9987 H   0  0  0  0  0  0  0  0  0  0  0  0
  148.0359  137.3232  158.2168 H   0  0  0  0  0  0  0  0  0  0  0  0
  143.3274  135.9997  158.1107 H   0  0  0  0  0  0  0  0  0  0  0  0
  146.7925  136.4379  152.7047 H   0  0  0  0  0  0  0  0  0  0  0  0
  144.6046  133.2602  149.4591 H   0  0  0  0  0  0  0  0  0  0  0  0
  144.8496  132.0961  150.7534 H   0  0  0  0  0  0  0  0  0  0  0  0
  142.6690  133.7683  150.3760 H   0  0  0  0  0  0  0  0  0  0  0  0
  145.3166  135.5445  149.0390 H   0  0  0  0  0  0  0  0  0  0  0  0
  144.1594  137.8977  151.2713 H   0  0  0  0  0  0  0  0  0  0  0  0
  147.9914  138.5805  154.8358 H   0  0  0  0  0  0  0  0  0  0  0  0
  150.0259  139.2033  153.5150 H   0  0  0  0  0  0  0  0  0  0  0  0
  1  2  1  0  0  0  0
  1 35  1  0  0  0  0
  1 36  1  0  0  0  0
  1 37  1  0  0  0  0
  2  3  1  0  0  0  0
  2  4  1  0  0  0  0
  2 38  1  0  0  0  0
  3 39  1  0  0  0  0
  3 40  1  0  0  0  0
  3 41  1  0  0  0  0
  4  5  1  0  0  0  0
  5 30  1  0  0  0  0
  5  6  2  0  0  0  0
  6  7  1  0  0  0  0
  6 42  1  0  0  0  0
  7  8  1  0  0  0  0
  7 28  2  0  0  0  0
  8  9  1  0  0  0  0
  8 43  1  0  0  0  0
  8 44  1  0  0  0  0
  9 10  1  0  0  0  0
  9 45  1  0  0  0  0
 10 15  1  0  0  0  0
 10 11  2  0  0  0  0
 11 12  1  0  0  0  0
 12 13  2  0  0  0  0
 12 46  1  0  0  0  0
 13 14  1  0  0  0  0
 14 18  1  0  0  0  0
 14 15  2  0  0  0  0
 15 16  1  0  0  0  0
 16 17  2  0  0  0  0
 17 18  1  0  0  0  0
 17 47  1  0  0  0  0
 18 19  1  0  0  0  0
 19 31  1  0  0  0  0
 19 26  1  0  0  0  0
 19 20  1  0  0  0  0
 20 21  1  0  0  0  0
 21 32  1  0  0  0  0
 21 22  1  0  0  0  0
 21 24  1  0  0  0  0
 22 23  1  0  0  0  0
 22 48  1  0  0  0  0
 22 49  1  0  0  0  0
 23 50  1  0  0  0  0
 24 33  1  0  0  0  0
 24 25  1  0  0  0  0
 24 26  1  0  0  0  0
 25 51  1  0  0  0  0
 26 34  1  0  0  0  0
 26 27  1  0  0  0  0
 27 52  1  0  0  0  0
 28 29  1  0  0  0  0
 28 53  1  0  0  0  0
 29 30  2  0  0  0  0
 29 54  1  0  0  0  0
M  END
> <s_m_source_file>
AV-unprocessed.smi

> <i_m_source_file_index>
218

> <i_lp_mmshare_version>
43012

> <i_f3d_flags>
0

> <s_epik_input>
W0NIM11bQ0hdKFtDSDNdKU9jMVtjSF1jKFtjSF1bY0hdbjEpW0NIMl1bTkhdYyhuW2NIXW4yKWMoYzIzKW5bY0hdbjNbQ0BASF00T1tDQEhdKFtDSDJdW09IXSlbQ0BASF0oW09IXSlbQ0BIXTRbT0hd

> <s_epik_cmdline>
J2VwaWtfcHl0aG9uJywgJy1waCcsICc3LjAnLCAnLXRuJywgJzgnLCAnLW1hJywgJzIwMCcsICctbWV0YWxfYmluZGluZycsICctaW1hZScsICc8aW5maWxlLm1hZT4nLCAnLW9tYWUnLCAnPG91dGZpbGUubWFlPic=

> <r_lp_tautomer_probability>
1

> <r_epik_Ionization_Penalty>
0.00457014

> <r_epik_Ionization_Penalty_Charging>
0

> <r_epik_Ionization_Penalty_Neutral>
0.00457014

> <r_epik_State_Penalty>
-0

> <r_epik_Charging_Adjusted_Penalty>
0

> <i_epik_Tot_Q>
0

> <i_epik_Tot_abs_Q>
0

> <r_epik_Metal_State_Penalty>
-0

> <b_epik_Metal_Only>
0

> <s_epik_Chemistry_Notes>
This compound contains an acetal/aminal-like group ( X-CH(R)-Y where X, Y are N, S, or O) that may be acid/base labile, releasing an aldehyde.

> <s_lp_Force_Field>
OPLS_2005

> <r_lp_Energy>
43.2146

> <b_lp_Chiralities_Consistent>
1

> <s_lp_Variant>
AV-unprocessed.smi:218-11

> <Gold.Version>
5.8.1

> <Gold.Id.Protein>
6NUR|6NUR_protein|mol2

> <Gold.PLP.Fitness>
47.9876

> <Gold.PLP.PLP>
-33.0153

> <Gold.PLP.part.hbond>
-5.7045

> <Gold.PLP.part.metal>
0.0000

> <Gold.PLP.part.buried>
-5.1270

> <Gold.PLP.part.nonpolar>
-22.4269

> <Gold.PLP.part.repulsive>
0.3193

> <Gold.PLP.ligand.clash>
0.0000

> <Gold.PLP.ligand.torsion>
1.7208

> <Gold.PLP.Chemscore.Hbond>
3.9920

> <Gold.PLP.Chemscore.CHOScore>
2.0000

> <Gold.PLP.Chemscore.Metal>
0.0000

> <Gold.Chemscore.Hbonds>
donor molecule, donor type, donor heavy atom, donor atom, acceptor molecule, acceptor atom, score
      L1  H    23    50       P1 10186  0.94
      L1  H    25    51       P1  7921  1.00
      L1  H    27    52       P1 10171  1.00
      P1  H  7989  7998       L1    30  0.95
      L1  C    17    47       P1  7948  1.00
      L1  C    29    54       P1  7957  1.00

> <Gold.PLP.Chemscore.Internal.Correction>
0.4379

> <Gold.Rescore>
     Score         DG    S(hbond)    S(metal)    S(lipo)     H(rot)  DE(clash)    DE(int)     intcor
     10.52     -13.87       3.93        0.00      66.76       4.90       0.28       3.07       ----

> <Gold.Chemscore.Fitness>
10.5207

> <Gold.Chemscore.DG>
-13.8671

> <Gold.Chemscore.ZeroCoef>
-5.4800

> <Gold.Chemscore.Hbond>
3.9304

> <Gold.Chemscore.Metal>
0.0000

> <Gold.Chemscore.Lipo>
66.7607

> <Gold.Chemscore.Internal_Hbond>
0.0000

> <Gold.Chemscore.DEClash>
0.2762

> <Gold.Chemscore.DEInternal>
3.0702

> <Gold.Chemscore.Rot>
4.9029

> <Gold.Chemscore.Internal.Correction>
   9.000000E+99

> <Gold.Chemscore.Hbonds>
donor molecule, donor type, donor heavy atom, donor atom, acceptor molecule, acceptor atom, score
      L1  H    23    50       P1 10186  0.89
      L1  H    25    51       P1  7921  0.99
      L1  H    27    52       P1 10171  0.95
      P1  H  7989  7998       L1    30  0.21

> <Gold.Chemscore.Hbond.Weighted>
-13.1276

> <Gold.Chemscore.Metal.Weighted>
-0.0000

> <Gold.Chemscore.Lipo.Weighted>
-7.8110

> <Gold.Chemscore.Internal_Hbond.Weighted>
0.0000

> <Gold.Chemscore.DEClash.Weighted>
0.2762

> <Gold.Chemscore.DEInternal.Weighted>
3.0702

> <Gold.Chemscore.Rot.Weighted>
12.5515

> <Gold.Chemscore.Internal.Correction.Weighted>
   9.000000E+99

> <Gold.Protein.RotatedTorsions>
[ 6907 6896 6895 6894 ] final  -23.23 input  -60.11 | X-H torsion
[ 7974 7965 7964 7962 ] final    5.88 input  175.53 | X-H torsion
[ 8008 7997 7996 7995 ] final  -58.15 input   59.86 | X-H torsion
[ 10167 10162 10161 10158 ] final  -48.48 input  -65.29 | X-H torsion
[ 10718 10713 10712 10709 ] final  154.41 input   66.30 | X-H torsion
[ 10763 10752 10751 10750 ] final   34.38 input  -60.55 | X-H torsion
[ 11005 11000 10999 10996 ] final -125.03 input  -57.11 | X-H torsion

> <Gold.Protein.ActiveResidues>
 VAL166  LYS551  ARG553  GLY616  TRP617  ASP618  TYR619  PRO620  LYS621  CYS622 
 ASP623  PHE694  ASN695  SER759  ASP760  ASP761  ALA762  ILE779  LEU786  VAL792 
 PHE793  MET794  SER795  GLU796  ALA797  LYS798  CYS799  TRP800  GLU811  SER814 

> <Gold.Protein.RotatedAtoms>
  151.2071  135.0466  159.8895 H   0  0  0  0  0  0  0  0  0  0  0  0  # atno 6907 bound_to 6896
  152.5428  134.0786  159.8236 H   0  0  0  0  0  0  0  0  0  0  0  0  # atno 6908 bound_to 6896
  151.0934  133.5250  159.2645 H   0  0  0  0  0  0  0  0  0  0  0  0  # atno 6909 bound_to 6896
  146.2438  140.0317  142.8389 H   0  0  0  0  0  0  0  0  0  0  0  0  # atno 7974 bound_to 7965
  154.4297  140.1090  156.5911 H   0  0  0  0  0  0  0  0  0  0  0  0  # atno 8008 bound_to 7997
  155.6010  140.3493  155.4575 H   0  0  0  0  0  0  0  0  0  0  0  0  # atno 8009 bound_to 7997
  156.0173  140.1232  157.0383 H   0  0  0  0  0  0  0  0  0  0  0  0  # atno 8010 bound_to 7997
  140.6729  143.2738  151.4077 H   0  0  0  0  0  0  0  0  0  0  0  0  # atno 10167 bound_to 10162
  157.2319  131.0741  151.1847 H   0  0  0  0  0  0  0  0  0  0  0  0  # atno 10718 bound_to 10713
  153.0167  135.6362  154.1660 H   0  0  0  0  0  0  0  0  0  0  0  0  # atno 10763 bound_to 10752
  154.1398  135.2835  155.3165 H   0  0  0  0  0  0  0  0  0  0  0  0  # atno 10764 bound_to 10752
  154.6132  135.5549  153.7557 H   0  0  0  0  0  0  0  0  0  0  0  0  # atno 10765 bound_to 10752
  140.9794  134.0694  157.3782 H   0  0  0  0  0  0  0  0  0  0  0  0  # atno 11005 bound_to 11000
  145.1149  140.9427  143.4635 LP  0  0  0  0  0  0  0  0  0  0  0  0  # atno 17320 bound_to 7965
  145.0539  139.3159  143.5914 LP  0  0  0  0  0  0  0  0  0  0  0  0  # atno 17321 bound_to 7965
  139.6006  144.1304  152.2193 LP  0  0  0  0  0  0  0  0  0  0  0  0  # atno 17342 bound_to 10162
  140.0687  144.5797  150.7208 LP  0  0  0  0  0  0  0  0  0  0  0  0  # atno 17343 bound_to 10162
  157.3469  130.7062  149.6416 LP  0  0  0  0  0  0  0  0  0  0  0  0  # atno 17370 bound_to 10713
  155.9675  130.4264  150.4696 LP  0  0  0  0  0  0  0  0  0  0  0  0  # atno 17371 bound_to 10713
  139.8944  135.0135  156.6948 LP  0  0  0  0  0  0  0  0  0  0  0  0  # atno 17394 bound_to 11000
  140.7209  133.9141  155.8146 LP  0  0  0  0  0  0  0  0  0  0  0  0  # atno 17395 bound_to 11000

$$$$
