AV-unprocessed.smi:2007|AV-procd|sdf|8133|dock1
  -GOLD-   2272010363D 1   1.00000     0.00000
 Structure written by MMmdl.
 36 37  0  0  0  0  0  0  0  0  1 V2000
  154.0101  139.8288  159.9700 C   0  0  0  0  0  0  0  0  0  0  0  0
  153.6152  141.1860  159.3726 C   0  0  2  0  0  0  0  0  0  0  0  0
  153.4003  142.2395  160.4819 C   0  0  0  0  0  0  0  0  0  0  0  0
  152.2679  143.1455  160.2850 N   0  0  0  0  0  0  0  0  0  0  0  0
  151.9637  143.8865  161.5035 C   0  0  0  0  0  0  0  0  0  0  0  0
  150.7618  144.8284  161.3146 C   0  0  0  0  0  0  0  0  0  0  0  0
  151.0193  145.7194  160.2344 O   0  0  0  0  0  0  0  0  0  0  0  0
  151.2847  145.0383  159.0122 C   0  0  0  0  0  0  0  0  0  0  0  0
  152.4865  144.0958  159.1961 C   0  0  0  0  0  0  0  0  0  0  0  0
  152.3938  141.0207  158.5861 N   0  0  0  0  0  0  0  0  0  0  0  0
  152.2850  140.3276  157.4425 C   0  0  0  0  0  0  0  0  0  0  0  0
  153.2156  139.7045  156.9308 O   0  0  0  0  0  0  0  0  0  0  0  0
  151.0401  140.4106  156.9416 N   0  0  0  0  0  0  0  0  0  0  0  0
  150.5472  139.8719  155.7243 C   0  0  0  0  0  0  0  0  0  0  0  0
  151.0589  138.7976  155.1119 N   0  0  0  0  0  0  0  0  0  0  0  0
  150.3834  138.4977  153.9264 C   0  0  0  0  0  0  0  0  0  0  0  0
  149.3515  139.3598  153.6496 C   0  0  0  0  0  0  0  0  0  0  0  0
  149.1872  140.5904  154.8738 S   0  0  0  0  0  0  0  0  0  0  0  0
  154.9337  139.9082  160.5438 H   0  0  0  0  0  0  0  0  0  0  0  0
  154.1731  139.0873  159.1871 H   0  0  0  0  0  0  0  0  0  0  0  0
  153.2365  139.4460  160.6367 H   0  0  0  0  0  0  0  0  0  0  0  0
  154.4379  141.4927  158.7261 H   0  0  0  0  0  0  0  0  0  0  0  0
  153.2649  141.7047  161.4233 H   0  0  0  0  0  0  0  0  0  0  0  0
  154.3121  142.8258  160.6059 H   0  0  0  0  0  0  0  0  0  0  0  0
  151.7498  143.1913  162.3161 H   0  0  0  0  0  0  0  0  0  0  0  0
  152.8341  144.4681  161.8108 H   0  0  0  0  0  0  0  0  0  0  0  0
  149.8524  144.2588  161.1165 H   0  0  0  0  0  0  0  0  0  0  0  0
  150.5866  145.4076  162.2213 H   0  0  0  0  0  0  0  0  0  0  0  0
  150.4015  144.4790  158.6988 H   0  0  0  0  0  0  0  0  0  0  0  0
  151.4930  145.7714  158.2330 H   0  0  0  0  0  0  0  0  0  0  0  0
  153.3820  144.6867  159.3946 H   0  0  0  0  0  0  0  0  0  0  0  0
  152.6619  143.5707  158.2585 H   0  0  0  0  0  0  0  0  0  0  0  0
  151.5723  141.4973  158.9277 H   0  0  0  0  0  0  0  0  0  0  0  0
  150.3733  140.9415  157.4819 H   0  0  0  0  0  0  0  0  0  0  0  0
  150.7049  137.6503  153.3391 H   0  0  0  0  0  0  0  0  0  0  0  0
  148.6820  139.3458  152.8025 H   0  0  0  0  0  0  0  0  0  0  0  0
  1  2  1  0  0  0  0
  1 19  1  0  0  0  0
  1 20  1  0  0  0  0
  1 21  1  0  0  0  0
  2  3  1  0  0  0  0
  2 10  1  0  0  0  0
  2 22  1  0  0  0  0
  3  4  1  0  0  0  0
  3 23  1  0  0  0  0
  3 24  1  0  0  0  0
  4  9  1  0  0  0  0
  4  5  1  0  0  0  0
  5  6  1  0  0  0  0
  5 25  1  0  0  0  0
  5 26  1  0  0  0  0
  6  7  1  0  0  0  0
  6 27  1  0  0  0  0
  6 28  1  0  0  0  0
  7  8  1  0  0  0  0
  8  9  1  0  0  0  0
  8 29  1  0  0  0  0
  8 30  1  0  0  0  0
  9 31  1  0  0  0  0
  9 32  1  0  0  0  0
 10 11  1  0  0  0  0
 10 33  1  0  0  0  0
 11 12  2  0  0  0  0
 11 13  1  0  0  0  0
 13 14  1  0  0  0  0
 13 34  1  0  0  0  0
 14 18  1  0  0  0  0
 14 15  2  0  0  0  0
 15 16  1  0  0  0  0
 16 17  2  0  0  0  0
 16 35  1  0  0  0  0
 17 18  1  0  0  0  0
 17 36  1  0  0  0  0
M  END
> <s_m_source_file>
AV-unprocessed.smi

> <i_m_source_file_index>
2007

> <i_lp_mmshare_version>
43012

> <i_f3d_flags>
0

> <s_epik_input>
W0NIMl0xW0NIMl1PW0NIMl1bQ0gyXU4xW0NIMl1bQ0BASF0oW0NIM10pW05IXUMoPU8pW05IXWMybltjSF1bY0hdczI=

> <s_epik_cmdline>
J2VwaWtfcHl0aG9uJywgJy1waCcsICc3LjAnLCAnLXRuJywgJzgnLCAnLW1hJywgJzIwMCcsICctbWV0YWxfYmluZGluZycsICctaW1hZScsICc8aW5maWxlLm1hZT4nLCAnLW9tYWUnLCAnPG91dGZpbGUubWFlPic=

> <r_lp_tautomer_probability>
0.999

> <r_epik_Ionization_Penalty>
0.219197

> <r_epik_Ionization_Penalty_Charging>
0

> <r_epik_Ionization_Penalty_Neutral>
0.219197

> <r_epik_State_Penalty>
0.209349

> <r_epik_Charging_Adjusted_Penalty>
0.209349

> <i_epik_Tot_Q>
0

> <i_epik_Tot_abs_Q>
0

> <r_epik_Metal_State_Penalty>
0.254604

> <b_epik_Metal_Only>
0

> <s_lp_Force_Field>
OPLS_2005

> <r_lp_Energy>
23.8142

> <b_lp_Chiralities_Consistent>
1

> <s_lp_Variant>
AV-unprocessed.smi:2007-1

> <Gold.Version>
5.8.1

> <Gold.Id.Protein>
6NUR|6NUR_protein|mol2

> <Gold.PLP.Fitness>
40.4024

> <Gold.PLP.PLP>
-33.7189

> <Gold.PLP.part.hbond>
-2.4875

> <Gold.PLP.part.metal>
0.0000

> <Gold.PLP.part.buried>
0.3789

> <Gold.PLP.part.nonpolar>
-33.0502

> <Gold.PLP.part.repulsive>
0.4305

> <Gold.PLP.ligand.clash>
0.0000

> <Gold.PLP.ligand.torsion>
0.8607

> <Gold.PLP.Chemscore.Hbond>
1.0000

> <Gold.PLP.Chemscore.CHOScore>
1.7755

> <Gold.PLP.Chemscore.Metal>
0.0000

> <Gold.Chemscore.Hbonds>
donor molecule, donor type, donor heavy atom, donor atom, acceptor molecule, acceptor atom, score
      P1  H  7997  8008       L1    12  0.37
      L1  C    16    35       P1  7948  0.31
      L1  C    16    35       P1  7949  0.75
      L1  C    17    36       P1  7957  0.58

> <Gold.PLP.Chemscore.Internal.Correction>
0.0784

> <Gold.Rescore>
     Score         DG    S(hbond)    S(metal)    S(lipo)     H(rot)  DE(clash)    DE(int)     intcor
     11.98     -15.93       0.93        0.00      97.56       1.58       1.74       2.21       ----

> <Gold.Chemscore.Fitness>
11.9785

> <Gold.Chemscore.DG>
-15.9337

> <Gold.Chemscore.ZeroCoef>
-5.4800

> <Gold.Chemscore.Hbond>
0.9253

> <Gold.Chemscore.Metal>
0.0000

> <Gold.Chemscore.Lipo>
97.5590

> <Gold.Chemscore.Internal_Hbond>
0.0000

> <Gold.Chemscore.DEClash>
1.7444

> <Gold.Chemscore.DEInternal>
2.2108

> <Gold.Chemscore.Rot>
1.5825

> <Gold.Chemscore.Internal.Correction>
   9.000000E+99

> <Gold.Chemscore.Hbonds>
donor molecule, donor type, donor heavy atom, donor atom, acceptor molecule, acceptor atom, score
      P1  H  7997  8008       L1    12  0.37

> <Gold.Chemscore.Hbond.Weighted>
-3.0906

> <Gold.Chemscore.Metal.Weighted>
-0.0000

> <Gold.Chemscore.Lipo.Weighted>
-11.4144

> <Gold.Chemscore.Internal_Hbond.Weighted>
0.0000

> <Gold.Chemscore.DEClash.Weighted>
1.7444

> <Gold.Chemscore.DEInternal.Weighted>
2.2108

> <Gold.Chemscore.Rot.Weighted>
4.0512

> <Gold.Chemscore.Internal.Correction.Weighted>
   9.000000E+99

> <Gold.Protein.RotatedTorsions>
[ 6907 6896 6895 6894 ] final   29.79 input  -60.11 | X-H torsion
[ 7974 7965 7964 7962 ] final  -81.76 input  175.53 | X-H torsion
[ 8008 7997 7996 7995 ] final  -70.82 input   59.86 | X-H torsion
[ 10167 10162 10161 10158 ] final   38.57 input  -65.29 | X-H torsion
[ 10718 10713 10712 10709 ] final  174.49 input   66.30 | X-H torsion
[ 10763 10752 10751 10750 ] final -119.83 input  -60.55 | X-H torsion
[ 11005 11000 10999 10996 ] final    0.20 input  -57.11 | X-H torsion

> <Gold.Protein.ActiveResidues>
 VAL166  LYS551  ARG553  GLY616  TRP617  ASP618  TYR619  PRO620  LYS621  CYS622 
 ASP623  PHE694  ASN695  SER759  ASP760  ASP761  ALA762  ILE779  LEU786  VAL792 
 PHE793  MET794  SER795  GLU796  ALA797  LYS798  CYS799  TRP800  GLU811  SER814 

> <Gold.Protein.RotatedAtoms>
  152.0366  134.9736  160.0573 H   0  0  0  0  0  0  0  0  0  0  0  0  # atno 6907 bound_to 6896
  152.1191  133.4339  159.4675 H   0  0  0  0  0  0  0  0  0  0  0  0  # atno 6908 bound_to 6896
  150.6848  134.2474  159.4540 H   0  0  0  0  0  0  0  0  0  0  0  0  # atno 6909 bound_to 6896
  145.5423  140.9508  143.1544 H   0  0  0  0  0  0  0  0  0  0  0  0  # atno 7974 bound_to 7965
  154.5041  140.0827  156.7858 H   0  0  0  0  0  0  0  0  0  0  0  0  # atno 8008 bound_to 7997
  155.3935  140.3433  155.4234 H   0  0  0  0  0  0  0  0  0  0  0  0  # atno 8009 bound_to 7997
  156.1493  140.1553  156.8783 H   0  0  0  0  0  0  0  0  0  0  0  0  # atno 8010 bound_to 7997
  140.3924  144.1835  150.6131 H   0  0  0  0  0  0  0  0  0  0  0  0  # atno 10167 bound_to 10162
  156.9489  131.0025  151.2953 H   0  0  0  0  0  0  0  0  0  0  0  0  # atno 10718 bound_to 10713
  154.8628  135.4224  154.2362 H   0  0  0  0  0  0  0  0  0  0  0  0  # atno 10763 bound_to 10752
  153.3336  135.6989  153.6932 H   0  0  0  0  0  0  0  0  0  0  0  0  # atno 10764 bound_to 10752
  153.5938  135.3549  155.2894 H   0  0  0  0  0  0  0  0  0  0  0  0  # atno 10765 bound_to 10752
  140.6291  133.9591  155.8265 H   0  0  0  0  0  0  0  0  0  0  0  0  # atno 11005 bound_to 11000
  144.7571  139.7048  143.7250 LP  0  0  0  0  0  0  0  0  0  0  0  0  # atno 17320 bound_to 7965
  146.1973  139.5246  142.9766 LP  0  0  0  0  0  0  0  0  0  0  0  0  # atno 17321 bound_to 7965
  140.4826  143.2374  151.8933 LP  0  0  0  0  0  0  0  0  0  0  0  0  # atno 17342 bound_to 10162
  139.4788  144.5253  151.8744 LP  0  0  0  0  0  0  0  0  0  0  0  0  # atno 17343 bound_to 10162
  157.5735  130.8327  149.8424 LP  0  0  0  0  0  0  0  0  0  0  0  0  # atno 17370 bound_to 10713
  156.0371  130.3748  150.1530 LP  0  0  0  0  0  0  0  0  0  0  0  0  # atno 17371 bound_to 10713
  141.0688  134.0237  157.3556 LP  0  0  0  0  0  0  0  0  0  0  0  0  # atno 17394 bound_to 11000
  139.9123  135.0192  156.7741 LP  0  0  0  0  0  0  0  0  0  0  0  0  # atno 17395 bound_to 11000

$$$$
