AV-unprocessed.smi:741|AV-procd|sdf|3555|dock6
  -GOLD-   22720 0553D 1   1.00000     0.00000
 Structure written by MMmdl.
 42 43  0  0  0  0  0  0  0  0  2 V2000
  144.9929  139.3435  155.2962 C   0  0  0  0  0  0  0  0  0  0  0  0
  145.4015  138.0942  154.5018 C   0  0  0  0  0  0  0  0  0  0  0  0
  146.1628  138.4071  153.1992 C   0  0  1  0  0  0  0  0  0  0  0  0
  147.4239  139.2539  153.4814 C   0  0  0  0  0  0  0  0  0  0  0  0
  148.6034  138.4311  153.8446 N   0  3  0  0  0  0  0  0  0  0  0  0
  149.8425  139.1920  154.1061 C   0  0  0  0  0  0  0  0  0  0  0  0
  150.7132  138.2407  154.9188 C   0  0  0  0  0  0  0  0  0  0  0  0
  149.7008  137.5199  155.8046 C   0  0  0  0  0  0  0  0  0  0  0  0
  148.3939  137.5259  154.9983 C   0  0  0  0  0  0  0  0  0  0  0  0
  146.5165  137.1569  152.5223 N   0  0  0  0  0  0  0  0  0  0  0  0
  145.6570  136.2455  152.0433 C   0  0  0  0  0  0  0  0  0  0  0  0
  144.4350  136.3819  152.0830 O   0  0  0  0  0  0  0  0  0  0  0  0
  146.3082  135.2024  151.5004 N   0  0  0  0  0  0  0  0  0  0  0  0
  145.7684  134.0387  150.8882 C   0  0  0  0  0  0  0  0  0  0  0  0
  144.3685  133.9697  150.7315 C   0  0  0  0  0  0  0  0  0  0  0  0
  143.8091  132.8335  150.1132 C   0  0  0  0  0  0  0  0  0  0  0  0
  144.5468  131.8021  149.6512 N   0  0  0  0  0  0  0  0  0  0  0  0
  145.8876  131.8761  149.7885 C   0  0  0  0  0  0  0  0  0  0  0  0
  146.5475  132.9656  150.3918 C   0  0  0  0  0  0  0  0  0  0  0  0
  144.5028  139.0642  156.2289 H   0  0  0  0  0  0  0  0  0  0  0  0
  144.2978  139.9682  154.7349 H   0  0  0  0  0  0  0  0  0  0  0  0
  145.8623  139.9514  155.5481 H   0  0  0  0  0  0  0  0  0  0  0  0
  146.0271  137.4699  155.1410 H   0  0  0  0  0  0  0  0  0  0  0  0
  144.5126  137.5025  154.2791 H   0  0  0  0  0  0  0  0  0  0  0  0
  145.4873  138.9853  152.5662 H   0  0  0  0  0  0  0  0  0  0  0  0
  147.6704  139.8805  152.6228 H   0  0  0  0  0  0  0  0  0  0  0  0
  147.2057  139.9366  154.3044 H   0  0  0  0  0  0  0  0  0  0  0  0
  150.3296  139.5173  153.1870 H   0  0  0  0  0  0  0  0  0  0  0  0
  149.6165  140.0791  154.7002 H   0  0  0  0  0  0  0  0  0  0  0  0
  151.2012  137.5264  154.2541 H   0  0  0  0  0  0  0  0  0  0  0  0
  151.4877  138.7548  155.4889 H   0  0  0  0  0  0  0  0  0  0  0  0
  150.0249  136.5133  156.0707 H   0  0  0  0  0  0  0  0  0  0  0  0
  149.5619  138.0782  156.7315 H   0  0  0  0  0  0  0  0  0  0  0  0
  147.5679  137.8608  155.6276 H   0  0  0  0  0  0  0  0  0  0  0  0
  148.1475  136.5300  154.6291 H   0  0  0  0  0  0  0  0  0  0  0  0
  147.5032  136.9574  152.4396 H   0  0  0  0  0  0  0  0  0  0  0  0
  147.3150  135.2723  151.4753 H   0  0  0  0  0  0  0  0  0  0  0  0
  143.7292  134.7675  151.0807 H   0  0  0  0  0  0  0  0  0  0  0  0
  142.7396  132.7524  149.9853 H   0  0  0  0  0  0  0  0  0  0  0  0
  146.4547  131.0429  149.4005 H   0  0  0  0  0  0  0  0  0  0  0  0
  147.6249  132.9594  150.4467 H   0  0  0  0  0  0  0  0  0  0  0  0
  148.8021  137.8299  153.0574 H   0  0  0  0  0  0  0  0  0  0  0  0
  1  2  1  0  0  0  0
  1 20  1  0  0  0  0
  1 21  1  0  0  0  0
  1 22  1  0  0  0  0
  2  3  1  0  0  0  0
  2 23  1  0  0  0  0
  2 24  1  0  0  0  0
  3  4  1  0  0  0  0
  3 10  1  0  0  0  0
  3 25  1  0  0  0  0
  4  5  1  0  0  0  0
  4 26  1  0  0  0  0
  4 27  1  0  0  0  0
  5  9  1  0  0  0  0
  5  6  1  0  0  0  0
  5 42  1  0  0  0  0
  6  7  1  0  0  0  0
  6 28  1  0  0  0  0
  6 29  1  0  0  0  0
  7  8  1  0  0  0  0
  7 30  1  0  0  0  0
  7 31  1  0  0  0  0
  8  9  1  0  0  0  0
  8 32  1  0  0  0  0
  8 33  1  0  0  0  0
  9 34  1  0  0  0  0
  9 35  1  0  0  0  0
 10 11  1  0  0  0  0
 10 36  1  0  0  0  0
 11 12  2  0  0  0  0
 11 13  1  0  0  0  0
 13 14  1  0  0  0  0
 13 37  1  0  0  0  0
 14 19  1  0  0  0  0
 14 15  2  0  0  0  0
 15 16  1  0  0  0  0
 15 38  1  0  0  0  0
 16 17  2  0  0  0  0
 16 39  1  0  0  0  0
 17 18  1  0  0  0  0
 18 19  2  0  0  0  0
 18 40  1  0  0  0  0
 19 41  1  0  0  0  0
M  CHG  1   5   1
M  END
> <s_m_source_file>
AV-unprocessed.smi

> <i_m_source_file_index>
741

> <i_lp_mmshare_version>
43012

> <i_f3d_flags>
0

> <s_epik_input>
W0NIMl0xW0NIMl1bQ0gyXVtDSDJdTjFbQ0gyXVtDQEBIXShbQ0gyXVtDSDNdKVtOSF1DKD1PKVtOSF1jMltjSF1bY0hdbltjSF1bY0hdMg==

> <s_epik_cmdline>
J2VwaWtfcHl0aG9uJywgJy1waCcsICc3LjAnLCAnLXRuJywgJzgnLCAnLW1hJywgJzIwMCcsICctbWV0YWxfYmluZGluZycsICctaW1hZScsICc8aW5maWxlLm1hZT4nLCAnLW9tYWUnLCAnPG91dGZpbGUubWFlPic=

> <r_epik_Ionization_Penalty>
0.101421

> <r_epik_Ionization_Penalty_Charging>
0.00180027

> <r_epik_Ionization_Penalty_Neutral>
0.0996204

> <r_epik_State_Penalty>
0.0910414

> <r_epik_Charging_Adjusted_Penalty>
0.0928416

> <i_epik_Tot_Q>
1

> <i_epik_Tot_abs_Q>
1

> <r_epik_Metal_State_Penalty>
0.076772

> <b_epik_Metal_Only>
0

> <s_lp_Force_Field>
OPLS_2005

> <r_lp_Energy>
40.7955

> <b_lp_Chiralities_Consistent>
1

> <s_lp_Variant>
AV-unprocessed.smi:741-2

> <Gold.Version>
5.8.1

> <Gold.Id.Protein>
6NUR|6NUR_protein|mol2

> <Gold.PLP.Fitness>
46.1109

> <Gold.PLP.PLP>
-29.5935

> <Gold.PLP.part.hbond>
-4.1795

> <Gold.PLP.part.metal>
0.0000

> <Gold.PLP.part.buried>
-3.2710

> <Gold.PLP.part.nonpolar>
-23.7411

> <Gold.PLP.part.repulsive>
0.4608

> <Gold.PLP.ligand.clash>
0.0000

> <Gold.PLP.ligand.torsion>
0.2937

> <Gold.PLP.Chemscore.Hbond>
4.1531

> <Gold.PLP.Chemscore.CHOScore>
1.5367

> <Gold.PLP.Chemscore.Metal>
0.0000

> <Gold.Chemscore.Hbonds>
donor molecule, donor type, donor heavy atom, donor atom, acceptor molecule, acceptor atom, score
      L1  H     5    42       P1  7948  2.00
      L1  H    10    36       P1  7948  1.00
      L1  H    13    37       P1  7948  1.00
      P1  H 10785 10796       L1    17  0.15
      L1  C    16    39       P1 10186  1.00
      L1  C    18    40       P1 10747  0.51

> <Gold.PLP.Chemscore.Internal.Correction>
0.0353

> <Gold.Rescore>
     Score         DG    S(hbond)    S(metal)    S(lipo)     H(rot)  DE(clash)    DE(int)     intcor
     18.38     -20.25       3.02        0.00      74.67       1.59       0.09       1.79       ----

> <Gold.Chemscore.Fitness>
18.3796

> <Gold.Chemscore.DG>
-20.2537

> <Gold.Chemscore.ZeroCoef>
-5.4800

> <Gold.Chemscore.Hbond>
3.0231

> <Gold.Chemscore.Metal>
0.0000

> <Gold.Chemscore.Lipo>
74.6671

> <Gold.Chemscore.Internal_Hbond>
0.0000

> <Gold.Chemscore.DEClash>
0.0885

> <Gold.Chemscore.DEInternal>
1.7855

> <Gold.Chemscore.Rot>
1.5858

> <Gold.Chemscore.Internal.Correction>
   9.000000E+99

> <Gold.Chemscore.Hbonds>
donor molecule, donor type, donor heavy atom, donor atom, acceptor molecule, acceptor atom, score
      L1  H     5    42       P1  7948  0.98
      L1  H    10    36       P1  7948  0.99
      L1  H    13    37       P1  7948  0.85
      P1  H 10785 10796       L1    17  0.12

> <Gold.Chemscore.Hbond.Weighted>
-10.0972

> <Gold.Chemscore.Metal.Weighted>
-0.0000

> <Gold.Chemscore.Lipo.Weighted>
-8.7360

> <Gold.Chemscore.Internal_Hbond.Weighted>
0.0000

> <Gold.Chemscore.DEClash.Weighted>
0.0885

> <Gold.Chemscore.DEInternal.Weighted>
1.7855

> <Gold.Chemscore.Rot.Weighted>
4.0596

> <Gold.Chemscore.Internal.Correction.Weighted>
   9.000000E+99

> <Gold.Protein.RotatedTorsions>
[ 6907 6896 6895 6894 ] final  136.54 input  -60.11 | X-H torsion
[ 7974 7965 7964 7962 ] final  -79.50 input  175.53 | X-H torsion
[ 8008 7997 7996 7995 ] final  -41.97 input   59.86 | X-H torsion
[ 10167 10162 10161 10158 ] final   35.24 input  -65.29 | X-H torsion
[ 10718 10713 10712 10709 ] final  127.60 input   66.30 | X-H torsion
[ 10763 10752 10751 10750 ] final  127.91 input  -60.55 | X-H torsion
[ 11005 11000 10999 10996 ] final -114.49 input  -57.11 | X-H torsion

> <Gold.Protein.ActiveResidues>
 VAL166  LYS551  ARG553  GLY616  TRP617  ASP618  TYR619  PRO620  LYS621  CYS622 
 ASP623  PHE694  ASN695  SER759  ASP760  ASP761  ALA762  ILE779  LEU786  VAL792 
 PHE793  MET794  SER795  GLU796  ALA797  LYS798  CYS799  TRP800  GLU811  SER814 

> <Gold.Protein.RotatedAtoms>
  152.2882  133.5535  159.5540 H   0  0  0  0  0  0  0  0  0  0  0  0  # atno 6907 bound_to 6896
  150.7224  134.0467  159.3793 H   0  0  0  0  0  0  0  0  0  0  0  0  # atno 6908 bound_to 6896
  151.8374  135.0602  160.0495 H   0  0  0  0  0  0  0  0  0  0  0  0  # atno 6909 bound_to 6896
  145.5724  140.9463  143.1388 H   0  0  0  0  0  0  0  0  0  0  0  0  # atno 7974 bound_to 7965
  154.4001  140.1485  156.3279 H   0  0  0  0  0  0  0  0  0  0  0  0  # atno 8008 bound_to 7997
  155.8470  140.3459  155.5647 H   0  0  0  0  0  0  0  0  0  0  0  0  # atno 8009 bound_to 7997
  155.8025  140.0872  157.1939 H   0  0  0  0  0  0  0  0  0  0  0  0  # atno 8010 bound_to 7997
  140.4241  144.1418  150.6151 H   0  0  0  0  0  0  0  0  0  0  0  0  # atno 10167 bound_to 10162
  157.5319  131.1098  150.8996 H   0  0  0  0  0  0  0  0  0  0  0  0  # atno 10718 bound_to 10713
  153.7170  135.3259  155.3258 H   0  0  0  0  0  0  0  0  0  0  0  0  # atno 10763 bound_to 10752
  154.8367  135.4490  154.1256 H   0  0  0  0  0  0  0  0  0  0  0  0  # atno 10764 bound_to 10752
  153.2366  135.6966  153.7910 H   0  0  0  0  0  0  0  0  0  0  0  0  # atno 10765 bound_to 10752
  141.0548  133.9630  157.2773 H   0  0  0  0  0  0  0  0  0  0  0  0  # atno 11005 bound_to 11000
  144.7432  139.7393  143.7303 LP  0  0  0  0  0  0  0  0  0  0  0  0  # atno 17320 bound_to 7965
  146.1775  139.4952  142.9888 LP  0  0  0  0  0  0  0  0  0  0  0  0  # atno 17321 bound_to 7965
  140.4501  143.2490  151.9359 LP  0  0  0  0  0  0  0  0  0  0  0  0  # atno 17342 bound_to 10162
  139.4783  144.5570  151.8298 LP  0  0  0  0  0  0  0  0  0  0  0  0  # atno 17343 bound_to 10162
  156.9575  130.5443  149.5284 LP  0  0  0  0  0  0  0  0  0  0  0  0  # atno 17370 bound_to 10713
  156.0429  130.5509  150.8812 LP  0  0  0  0  0  0  0  0  0  0  0  0  # atno 17371 bound_to 10713
  139.9381  135.0194  156.8620 LP  0  0  0  0  0  0  0  0  0  0  0  0  # atno 17394 bound_to 11000
  140.5985  134.0194  155.7527 LP  0  0  0  0  0  0  0  0  0  0  0  0  # atno 17395 bound_to 11000

$$$$
