AV-unprocessed.smi:1776|AV-procd|sdf|7176|dock4
  -GOLD-   22720 8413D 1   1.00000     0.00000
 Structure written by MMmdl.
 30 31  0  0  0  0  0  0  0  0  2 V2000
  151.4830  140.8898  155.5078 O   0  0  0  0  0  0  0  0  0  0  0  0
  151.4334  139.8285  156.1294 C   0  0  0  0  0  0  0  0  0  0  0  0
  151.6689  139.6886  157.4496 N   0  0  0  0  0  0  0  0  0  0  0  0
  152.0082  140.6463  158.4224 C   0  0  0  0  0  0  0  0  0  0  0  0
  151.7537  141.9820  158.3358 C   0  0  0  0  0  0  0  0  0  0  0  0
  152.1287  142.9184  159.3881 C   0  0  0  0  0  0  0  0  0  0  0  0
  151.9447  144.4221  159.2829 C   0  0  0  0  0  0  0  0  0  0  0  0
  150.6790  144.7329  159.0013 F   0  0  0  0  0  0  0  0  0  0  0  0
  152.2822  145.0256  160.4227 F   0  0  0  0  0  0  0  0  0  0  0  0
  152.7174  144.9068  158.3119 F   0  0  0  0  0  0  0  0  0  0  0  0
  152.7684  142.2948  160.4415 C   0  0  0  0  0  0  0  0  0  0  0  0
  153.0385  140.9829  160.6160 N   0  5  0  0  0  0  0  0  0  0  0  0
  152.6807  140.1158  159.6272 C   0  0  0  0  0  0  0  0  0  0  0  0
  152.9041  138.9081  159.7197 O   0  0  0  0  0  0  0  0  0  0  0  0
  151.0663  138.5295  155.3960 C   0  0  1  0  0  0  0  0  0  0  0  0
  151.7753  137.2810  155.9718 C   0  0  0  0  0  0  0  0  0  0  0  0
  151.3463  136.1263  155.2612 O   0  0  0  0  0  0  0  0  0  0  0  0
  149.9413  135.9449  155.3685 C   0  0  0  0  0  0  0  0  0  0  0  0
  149.2333  137.1781  154.7852 C   0  0  0  0  0  0  0  0  0  0  0  0
  149.6577  138.3333  155.4954 O   0  0  0  0  0  0  0  0  0  0  0  0
  151.6117  138.7455  157.8065 H   0  0  0  0  0  0  0  0  0  0  0  0
  151.2506  142.4016  157.4817 H   0  0  0  0  0  0  0  0  0  0  0  0
  153.1201  142.9496  161.2670 H   0  0  0  0  0  0  0  0  0  0  0  0
  151.3395  138.6555  154.3467 H   0  0  0  0  0  0  0  0  0  0  0  0
  152.8570  137.3673  155.8634 H   0  0  0  0  0  0  0  0  0  0  0  0
  151.5663  137.1614  157.0365 H   0  0  0  0  0  0  0  0  0  0  0  0
  149.6546  135.0476  154.8201 H   0  0  0  0  0  0  0  0  0  0  0  0
  149.6580  135.7898  156.4107 H   0  0  0  0  0  0  0  0  0  0  0  0
  149.4517  137.2872  153.7217 H   0  0  0  0  0  0  0  0  0  0  0  0
  148.1524  137.0772  154.8836 H   0  0  0  0  0  0  0  0  0  0  0  0
  1  2  2  0  0  0  0
  2  3  1  0  0  0  0
  2 15  1  0  0  0  0
  3  4  1  0  0  0  0
  3 21  1  0  0  0  0
  4 13  1  0  0  0  0
  4  5  2  0  0  0  0
  5  6  1  0  0  0  0
  5 22  1  0  0  0  0
  6  7  1  0  0  0  0
  6 11  2  0  0  0  0
  7  8  1  0  0  0  0
  7  9  1  0  0  0  0
  7 10  1  0  0  0  0
 11 12  1  0  0  0  0
 11 23  1  0  0  0  0
 12 13  1  0  0  0  0
 13 14  2  0  0  0  0
 15 20  1  0  0  0  0
 15 16  1  0  0  0  0
 15 24  1  0  0  0  0
 16 17  1  0  0  0  0
 16 25  1  0  0  0  0
 16 26  1  0  0  0  0
 17 18  1  0  0  0  0
 18 19  1  0  0  0  0
 18 27  1  0  0  0  0
 18 28  1  0  0  0  0
 19 20  1  0  0  0  0
 19 29  1  0  0  0  0
 19 30  1  0  0  0  0
M  CHG  1  12  -1
M  END
> <s_m_source_file>
AV-unprocessed.smi

> <i_m_source_file_index>
1776

> <i_lp_mmshare_version>
43012

> <i_f3d_flags>
0

> <s_epik_input>
TzFbQ0gyXVtDSDJdT1tDSDJdW0NASF0xQyg9TylbTkhdYzJbY0hdYyhDKEYpKEYpRilbY0hdW25IXWMyPU8=

> <s_epik_cmdline>
J2VwaWtfcHl0aG9uJywgJy1waCcsICc3LjAnLCAnLXRuJywgJzgnLCAnLW1hJywgJzIwMCcsICctbWV0YWxfYmluZGluZycsICctaW1hZScsICc8aW5maWxlLm1hZT4nLCAnLW9tYWUnLCAnPG91dGZpbGUubWFlPic=

> <r_epik_Ionization_Penalty>
2.46925

> <r_epik_Ionization_Penalty_Charging>
0.0509887

> <r_epik_Ionization_Penalty_Neutral>
2.41826

> <r_epik_State_Penalty>
2.57741

> <r_epik_Charging_Adjusted_Penalty>
2.6284

> <i_epik_Tot_Q>
-1

> <i_epik_Tot_abs_Q>
1

> <r_epik_Metal_State_Penalty>
0.510263

> <b_epik_Metal_Only>
0

> <s_lp_Force_Field>
OPLS_2005

> <r_lp_Energy>
25.1464

> <b_lp_Chiralities_Consistent>
1

> <s_lp_Variant>
AV-unprocessed.smi:1776-4

> <Gold.Version>
5.8.1

> <Gold.Id.Protein>
6NUR|6NUR_protein|mol2

> <Gold.PLP.Fitness>
40.9411

> <Gold.PLP.PLP>
-37.9621

> <Gold.PLP.part.hbond>
-2.0000

> <Gold.PLP.part.metal>
0.0000

> <Gold.PLP.part.buried>
-4.9424

> <Gold.PLP.part.nonpolar>
-30.1230

> <Gold.PLP.part.repulsive>
0.2371

> <Gold.PLP.ligand.clash>
0.0000

> <Gold.PLP.ligand.torsion>
1.0268

> <Gold.PLP.Chemscore.Hbond>
1.6596

> <Gold.PLP.Chemscore.CHOScore>
0.0000

> <Gold.PLP.Chemscore.Metal>
0.0000

> <Gold.Chemscore.Hbonds>
donor molecule, donor type, donor heavy atom, donor atom, acceptor molecule, acceptor atom, score
      P1  H  7989  7998       L1     1  0.64
      P1  H 10752 10764       L1    17  0.90

> <Gold.PLP.Chemscore.Internal.Correction>
0.0537

> <Gold.Rescore>
     Score         DG    S(hbond)    S(metal)    S(lipo)     H(rot)  DE(clash)    DE(int)     intcor
     13.88     -15.75       1.46        0.00      67.87       1.00       0.11       1.76       ----

> <Gold.Chemscore.Fitness>
13.8775

> <Gold.Chemscore.DG>
-15.7484

> <Gold.Chemscore.ZeroCoef>
-5.4800

> <Gold.Chemscore.Hbond>
1.4634

> <Gold.Chemscore.Metal>
0.0000

> <Gold.Chemscore.Lipo>
67.8680

> <Gold.Chemscore.Internal_Hbond>
0.0000

> <Gold.Chemscore.DEClash>
0.1071

> <Gold.Chemscore.DEInternal>
1.7638

> <Gold.Chemscore.Rot>
1.0000

> <Gold.Chemscore.Internal.Correction>
   9.000000E+99

> <Gold.Chemscore.Hbonds>
donor molecule, donor type, donor heavy atom, donor atom, acceptor molecule, acceptor atom, score
      P1  H  7989  7998       L1     1  0.61
      P1  H 10752 10764       L1    17  0.18

> <Gold.Chemscore.Hbond.Weighted>
-4.8878

> <Gold.Chemscore.Metal.Weighted>
-0.0000

> <Gold.Chemscore.Lipo.Weighted>
-7.9406

> <Gold.Chemscore.Internal_Hbond.Weighted>
0.0000

> <Gold.Chemscore.DEClash.Weighted>
0.1071

> <Gold.Chemscore.DEInternal.Weighted>
1.7638

> <Gold.Chemscore.Rot.Weighted>
2.5600

> <Gold.Chemscore.Internal.Correction.Weighted>
   9.000000E+99

> <Gold.Protein.RotatedTorsions>
[ 6907 6896 6895 6894 ] final  107.66 input  -60.11 | X-H torsion
[ 7974 7965 7964 7962 ] final  156.90 input  175.53 | X-H torsion
[ 8008 7997 7996 7995 ] final    0.81 input   59.86 | X-H torsion
[ 10167 10162 10161 10158 ] final  -60.42 input  -65.29 | X-H torsion
[ 10718 10713 10712 10709 ] final  105.51 input   66.30 | X-H torsion
[ 10763 10752 10751 10750 ] final  -53.69 input  -60.55 | X-H torsion
[ 11005 11000 10999 10996 ] final  150.94 input  -57.11 | X-H torsion

> <Gold.Protein.ActiveResidues>
 VAL166  LYS551  ARG553  GLY616  TRP617  ASP618  TYR619  PRO620  LYS621  CYS622 
 ASP623  PHE694  ASN695  SER759  ASP760  ASP761  ALA762  ILE779  LEU786  VAL792 
 PHE793  MET794  SER795  GLU796  ALA797  LYS798  CYS799  TRP800  GLU811  SER814 

> <Gold.Protein.RotatedAtoms>
  152.5145  133.9201  159.7530 H   0  0  0  0  0  0  0  0  0  0  0  0  # atno 6907 bound_to 6896
  150.9575  133.6473  159.2767 H   0  0  0  0  0  0  0  0  0  0  0  0  # atno 6908 bound_to 6896
  151.3730  135.0931  159.9524 H   0  0  0  0  0  0  0  0  0  0  0  0  # atno 6909 bound_to 6896
  144.7935  139.7266  143.6211 H   0  0  0  0  0  0  0  0  0  0  0  0  # atno 7974 bound_to 7965
  154.6725  140.2615  155.6992 H   0  0  0  0  0  0  0  0  0  0  0  0  # atno 8008 bound_to 7997
  156.2664  140.2826  156.1161 H   0  0  0  0  0  0  0  0  0  0  0  0  # atno 8009 bound_to 7997
  155.1148  140.0376  157.2724 H   0  0  0  0  0  0  0  0  0  0  0  0  # atno 8010 bound_to 7997
  140.6072  143.2377  151.5793 H   0  0  0  0  0  0  0  0  0  0  0  0  # atno 10167 bound_to 10162
  157.6703  131.0829  150.5867 H   0  0  0  0  0  0  0  0  0  0  0  0  # atno 10718 bound_to 10713
  154.1628  135.6472  153.4990 H   0  0  0  0  0  0  0  0  0  0  0  0  # atno 10763 bound_to 10752
  153.0106  135.5365  154.6693 H   0  0  0  0  0  0  0  0  0  0  0  0  # atno 10764 bound_to 10752
  154.6011  135.2944  155.0506 H   0  0  0  0  0  0  0  0  0  0  0  0  # atno 10765 bound_to 10752
  140.1175  134.8885  157.2025 H   0  0  0  0  0  0  0  0  0  0  0  0  # atno 11005 bound_to 11000
  146.2196  139.5611  142.9627 LP  0  0  0  0  0  0  0  0  0  0  0  0  # atno 17320 bound_to 7965
  145.5732  141.0391  143.2162 LP  0  0  0  0  0  0  0  0  0  0  0  0  # atno 17321 bound_to 7965
  139.5334  144.2851  152.1198 LP  0  0  0  0  0  0  0  0  0  0  0  0  # atno 17342 bound_to 10162
  140.2043  144.4627  150.6416 LP  0  0  0  0  0  0  0  0  0  0  0  0  # atno 17343 bound_to 10162
  156.6167  130.4395  149.5838 LP  0  0  0  0  0  0  0  0  0  0  0  0  # atno 17370 bound_to 10713
  156.2387  130.6838  151.1535 LP  0  0  0  0  0  0  0  0  0  0  0  0  # atno 17371 bound_to 10713
  140.3009  134.3133  155.7290 LP  0  0  0  0  0  0  0  0  0  0  0  0  # atno 17394 bound_to 11000
  141.2144  133.7591  156.9639 LP  0  0  0  0  0  0  0  0  0  0  0  0  # atno 17395 bound_to 11000

$$$$
