AV-unprocessed.smi:47|AV-procd|sdf|446|dock10
  -GOLD-   2262016313D 1   1.00000     0.00000
 Structure written by MMmdl.
 30 32  0  0  0  0  0  0  0  0  2 V2000
  145.7604  140.3630  154.6311 O   0  0  0  0  0  0  0  0  0  0  0  0
  147.1216  140.7289  154.7144 C   0  0  2  0  0  0  0  0  0  0  0  0
  147.6717  141.2337  153.3871 C   0  0  0  0  0  0  0  0  0  0  0  0
  149.1155  141.1008  153.5194 N   0  0  0  0  0  0  0  0  0  0  0  0
  149.3814  139.9392  154.3759 C   0  0  1  0  0  0  0  0  0  0  0  0
  150.4450  140.2152  155.4234 C   0  0  0  0  0  0  0  0  0  0  0  0
  151.6326  139.5815  155.5108 N   0  0  0  0  0  0  0  0  0  0  0  0
  152.2735  140.1387  156.5210 N   0  5  0  0  0  0  0  0  0  0  0  0
  151.4844  141.1005  157.0232 C   0  0  0  0  0  0  0  0  0  0  0  0
  151.8931  141.9378  158.1701 C   0  0  0  0  0  0  0  0  0  0  0  0
  152.5980  141.3693  159.2564 C   0  0  0  0  0  0  0  0  0  0  0  0
  152.9939  142.1542  160.3570 C   0  0  0  0  0  0  0  0  0  0  0  0
  152.6898  143.5271  160.3882 C   0  0  0  0  0  0  0  0  0  0  0  0
  151.9893  144.1100  159.3168 C   0  0  0  0  0  0  0  0  0  0  0  0
  151.5956  143.3207  158.2185 C   0  0  0  0  0  0  0  0  0  0  0  0
  150.3420  141.1759  156.3549 N   0  0  0  0  0  0  0  0  0  0  0  0
  148.0373  139.5469  155.0166 C   0  0  0  0  0  0  0  0  0  0  0  0
  147.2449  141.4966  155.4799 H   0  0  0  0  0  0  0  0  0  0  0  0
  149.7308  139.1087  153.7613 H   0  0  0  0  0  0  0  0  0  0  0  0
  145.4321  140.6287  153.7857 H   0  0  0  0  0  0  0  0  0  0  0  0
  147.3186  140.6004  152.5719 H   0  0  0  0  0  0  0  0  0  0  0  0
  147.3736  142.2594  153.1692 H   0  0  0  0  0  0  0  0  0  0  0  0
  149.5205  140.9520  152.6012 H   0  0  0  0  0  0  0  0  0  0  0  0
  152.8412  140.3168  159.2508 H   0  0  0  0  0  0  0  0  0  0  0  0
  153.5311  141.7008  161.1768 H   0  0  0  0  0  0  0  0  0  0  0  0
  152.9926  144.1309  161.2309 H   0  0  0  0  0  0  0  0  0  0  0  0
  151.7528  145.1636  159.3356 H   0  0  0  0  0  0  0  0  0  0  0  0
  151.0590  143.7901  157.4072 H   0  0  0  0  0  0  0  0  0  0  0  0
  148.1078  139.3296  156.0833 H   0  0  0  0  0  0  0  0  0  0  0  0
  147.6607  138.6490  154.5243 H   0  0  0  0  0  0  0  0  0  0  0  0
  1  2  1  0  0  0  0
  1 20  1  0  0  0  0
  2 18  1  0  0  0  0
  2 17  1  0  0  0  0
  2  3  1  0  0  0  0
  3  4  1  0  0  0  0
  3 21  1  0  0  0  0
  3 22  1  0  0  0  0
  4  5  1  0  0  0  0
  4 23  1  0  0  0  0
  5 19  1  0  0  0  0
  5  6  1  0  0  0  0
  5 17  1  0  0  0  0
  6 16  1  0  0  0  0
  6  7  2  0  0  0  0
  7  8  1  0  0  0  0
  8  9  1  0  0  0  0
  9 10  1  0  0  0  0
  9 16  2  0  0  0  0
 10 15  1  0  0  0  0
 10 11  2  0  0  0  0
 11 12  1  0  0  0  0
 11 24  1  0  0  0  0
 12 13  2  0  0  0  0
 12 25  1  0  0  0  0
 13 14  1  0  0  0  0
 13 26  1  0  0  0  0
 14 15  2  0  0  0  0
 14 27  1  0  0  0  0
 15 28  1  0  0  0  0
 17 29  1  0  0  0  0
 17 30  1  0  0  0  0
M  CHG  1   8  -1
M  END
> <s_m_source_file>
AV-unprocessed.smi

> <i_m_source_file_index>
47

> <i_lp_mmshare_version>
43012

> <i_f3d_flags>
0

> <s_epik_input>
W09IXVtDQEhdMVtDSDJdW05IXVtDQEBIXShbQ0gyXTEpYzJuW25IXWMobjIpLWMzW2NIXVtjSF1bY0hdW2NIXVtjSF0z

> <s_epik_cmdline>
J2VwaWtfcHl0aG9uJywgJy1waCcsICc3LjAnLCAnLXRuJywgJzgnLCAnLW1hJywgJzIwMCcsICctbWV0YWxfYmluZGluZycsICctaW1hZScsICc8aW5maWxlLm1hZT4nLCAnLW9tYWUnLCAnPG91dGZpbGUubWFlPic=

> <r_epik_Ionization_Penalty>
16.1968

> <r_epik_Ionization_Penalty_Charging>
13.1522

> <r_epik_Ionization_Penalty_Neutral>
3.04463

> <r_epik_State_Penalty>
6.32428

> <r_epik_Charging_Adjusted_Penalty>
19.4764

> <i_epik_Tot_Q>
-1

> <i_epik_Tot_abs_Q>
1

> <r_epik_Metal_State_Penalty>
2.82187

> <b_epik_Metal_Only>
1

> <s_lp_Force_Field>
OPLS_2005

> <r_lp_Energy>
30.4729

> <b_lp_Chiralities_Consistent>
1

> <s_lp_Variant>
AV-unprocessed.smi:47-24

> <Gold.Version>
5.8.1

> <Gold.Id.Protein>
6NUR|6NUR_protein|mol2

> <Gold.PLP.Fitness>
44.6378

> <Gold.PLP.PLP>
-35.3084

> <Gold.PLP.part.hbond>
-5.1389

> <Gold.PLP.part.metal>
0.0000

> <Gold.PLP.part.buried>
-4.2229

> <Gold.PLP.part.nonpolar>
-26.0643

> <Gold.PLP.part.repulsive>
0.0655

> <Gold.PLP.ligand.clash>
0.0000

> <Gold.PLP.ligand.torsion>
0.6059

> <Gold.PLP.Chemscore.Hbond>
3.5103

> <Gold.PLP.Chemscore.CHOScore>
0.0000

> <Gold.PLP.Chemscore.Metal>
0.0000

> <Gold.Chemscore.Hbonds>
donor molecule, donor type, donor heavy atom, donor atom, acceptor molecule, acceptor atom, score
      L1  H     1    20       P1 10175  0.52
      L1  H     4    23       P1  7957  1.00
      P1  H  7997  8008       L1     8  1.85

> <Gold.PLP.Chemscore.Internal.Correction>
0.0103

> <Gold.Rescore>
     Score         DG    S(hbond)    S(metal)    S(lipo)     H(rot)  DE(clash)    DE(int)     intcor
     19.73     -20.29       2.50        0.00      87.07       1.46       0.04       0.52       ----

> <Gold.Chemscore.Fitness>
19.7309

> <Gold.Chemscore.DG>
-20.2898

> <Gold.Chemscore.ZeroCoef>
-5.4800

> <Gold.Chemscore.Hbond>
2.5047

> <Gold.Chemscore.Metal>
0.0000

> <Gold.Chemscore.Lipo>
87.0697

> <Gold.Chemscore.Internal_Hbond>
0.0000

> <Gold.Chemscore.DEClash>
0.0402

> <Gold.Chemscore.DEInternal>
0.5186

> <Gold.Chemscore.Rot>
1.4621

> <Gold.Chemscore.Internal.Correction>
   9.000000E+99

> <Gold.Chemscore.Hbonds>
donor molecule, donor type, donor heavy atom, donor atom, acceptor molecule, acceptor atom, score
      L1  H     1    20       P1 10175  0.50
      L1  H     4    23       P1  7957  0.95
      P1  H  7997  8008       L1     8  0.83

> <Gold.Chemscore.Hbond.Weighted>
-8.3655

> <Gold.Chemscore.Metal.Weighted>
-0.0000

> <Gold.Chemscore.Lipo.Weighted>
-10.1872

> <Gold.Chemscore.Internal_Hbond.Weighted>
0.0000

> <Gold.Chemscore.DEClash.Weighted>
0.0402

> <Gold.Chemscore.DEInternal.Weighted>
0.5186

> <Gold.Chemscore.Rot.Weighted>
3.7429

> <Gold.Chemscore.Internal.Correction.Weighted>
   9.000000E+99

> <Gold.Protein.RotatedTorsions>
[ 6907 6896 6895 6894 ] final  -51.94 input  -60.11 | X-H torsion
[ 7974 7965 7964 7962 ] final -164.86 input  175.53 | X-H torsion
[ 8008 7997 7996 7995 ] final  -48.67 input   59.86 | X-H torsion
[ 10167 10162 10161 10158 ] final  148.27 input  -65.29 | X-H torsion
[ 10718 10713 10712 10709 ] final -136.75 input   66.30 | X-H torsion
[ 10763 10752 10751 10750 ] final -152.92 input  -60.55 | X-H torsion
[ 11005 11000 10999 10996 ] final  -47.25 input  -57.11 | X-H torsion

> <Gold.Protein.ActiveResidues>
 VAL166  LYS551  ARG553  GLY616  TRP617  ASP618  TYR619  PRO620  LYS621  CYS622 
 ASP623  PHE694  ASN695  SER759  ASP760  ASP761  ALA762  ILE779  LEU786  VAL792 
 PHE793  MET794  SER795  GLU796  ALA797  LYS798  CYS799  TRP800  GLU811  SER814 

> <Gold.Protein.RotatedAtoms>
  150.8564  134.7904  159.7048 H   0  0  0  0  0  0  0  0  0  0  0  0  # atno 6907 bound_to 6896
  152.4614  134.5171  159.9781 H   0  0  0  0  0  0  0  0  0  0  0  0  # atno 6908 bound_to 6896
  151.5283  133.3415  159.2949 H   0  0  0  0  0  0  0  0  0  0  0  0  # atno 6909 bound_to 6896
  144.7285  140.2899  143.6222 H   0  0  0  0  0  0  0  0  0  0  0  0  # atno 7974 bound_to 7965
  154.4032  140.1315  156.4377 H   0  0  0  0  0  0  0  0  0  0  0  0  # atno 8008 bound_to 7997
  155.7489  140.3488  155.5120 H   0  0  0  0  0  0  0  0  0  0  0  0  # atno 8009 bound_to 7997
  155.8968  140.1012  157.1369 H   0  0  0  0  0  0  0  0  0  0  0  0  # atno 8010 bound_to 7997
  139.4877  144.5692  151.7087 H   0  0  0  0  0  0  0  0  0  0  0  0  # atno 10167 bound_to 10162
  156.2804  130.7317  151.1313 H   0  0  0  0  0  0  0  0  0  0  0  0  # atno 10718 bound_to 10713
  154.7962  135.3225  154.7660 H   0  0  0  0  0  0  0  0  0  0  0  0  # atno 10763 bound_to 10752
  153.8338  135.6877  153.4815 H   0  0  0  0  0  0  0  0  0  0  0  0  # atno 10764 bound_to 10752
  153.1655  135.4644  154.9773 H   0  0  0  0  0  0  0  0  0  0  0  0  # atno 10765 bound_to 10752
  141.0629  133.6703  156.3271 H   0  0  0  0  0  0  0  0  0  0  0  0  # atno 11005 bound_to 11000
  145.7866  139.1911  143.2127 LP  0  0  0  0  0  0  0  0  0  0  0  0  # atno 17320 bound_to 7965
  146.0791  140.7784  142.9650 LP  0  0  0  0  0  0  0  0  0  0  0  0  # atno 17321 bound_to 7965
  140.5276  144.0782  150.6042 LP  0  0  0  0  0  0  0  0  0  0  0  0  # atno 17342 bound_to 10162
  140.3761  143.2828  152.0224 LP  0  0  0  0  0  0  0  0  0  0  0  0  # atno 17343 bound_to 10162
  157.7313  131.0609  150.5686 LP  0  0  0  0  0  0  0  0  0  0  0  0  # atno 17370 bound_to 10713
  156.5792  130.4300  149.5985 LP  0  0  0  0  0  0  0  0  0  0  0  0  # atno 17371 bound_to 10713
  140.5832  134.5725  157.5484 LP  0  0  0  0  0  0  0  0  0  0  0  0  # atno 17394 bound_to 11000
  139.9449  134.7720  156.0586 LP  0  0  0  0  0  0  0  0  0  0  0  0  # atno 17395 bound_to 11000

$$$$
