AV-unprocessed.smi:1709|AV-procd|sdf|6894|dock4
  -GOLD-   22720 8103D 1   1.00000     0.00000
 Structure written by MMmdl.
 43 45  0  0  0  0  0  0  0  0  2 V2000
  151.0757  137.7570  154.3948 C   0  0  0  0  0  0  0  0  0  0  0  0
  150.3457  139.0571  154.6929 C   0  0  0  0  0  0  0  0  0  0  0  0
  151.0538  140.1207  155.2917 C   0  0  0  0  0  0  0  0  0  0  0  0
  150.3819  141.3240  155.5655 C   0  0  0  0  0  0  0  0  0  0  0  0
  149.0224  141.4136  155.2245 C   0  0  0  0  0  0  0  0  0  0  0  0
  148.3383  140.4020  154.6516 N   0  0  0  0  0  0  0  0  0  0  0  0
  148.9690  139.2288  154.3849 C   0  0  0  0  0  0  0  0  0  0  0  0
  148.3245  138.1118  153.7679 N   0  0  0  0  0  0  0  0  0  0  0  0
  147.0445  137.6841  153.8034 C   0  0  0  0  0  0  0  0  0  0  0  0
  146.1906  138.2860  154.4520 O   0  0  0  0  0  0  0  0  0  0  0  0
  146.7700  136.5760  153.0954 N   0  0  0  0  0  0  0  0  0  0  0  0
  145.4702  135.9148  153.0087 C   0  0  1  0  0  0  0  0  0  0  0  0
  144.5701  136.5149  151.9109 C   0  0  0  0  0  0  0  0  0  0  0  0
  143.9250  135.3043  151.2289 C   0  0  0  0  0  0  0  0  0  0  0  0
  144.9645  134.2740  151.3352 N   0  3  2  0  0  0  0  0  0  0  0  0
  144.6105  132.8791  151.0034 C   0  0  0  0  0  0  0  0  0  0  0  0
  145.9008  132.0315  151.0156 C   0  0  0  0  0  0  0  0  0  0  0  0
  146.6939  132.1924  152.3322 C   0  0  0  0  0  0  0  0  0  0  0  0
  146.9192  133.6775  152.6879 C   0  0  0  0  0  0  0  0  0  0  0  0
  145.5637  134.4076  152.6740 C   0  0  1  0  0  0  0  0  0  0  0  0
  152.1115  137.7963  154.7332 H   0  0  0  0  0  0  0  0  0  0  0  0
  151.0803  137.5599  153.3224 H   0  0  0  0  0  0  0  0  0  0  0  0
  150.5911  136.9208  154.8997 H   0  0  0  0  0  0  0  0  0  0  0  0
  152.1001  140.0191  155.5393 H   0  0  0  0  0  0  0  0  0  0  0  0
  150.8960  142.1561  156.0236 H   0  0  0  0  0  0  0  0  0  0  0  0
  148.4680  142.3203  155.4158 H   0  0  0  0  0  0  0  0  0  0  0  0
  148.9239  137.5767  153.1564 H   0  0  0  0  0  0  0  0  0  0  0  0
  147.5342  136.1486  152.5908 H   0  0  0  0  0  0  0  0  0  0  0  0
  144.9519  136.0230  153.9637 H   0  0  0  0  0  0  0  0  0  0  0  0
  143.8309  137.2113  152.3078 H   0  0  0  0  0  0  0  0  0  0  0  0
  145.1733  137.0576  151.1812 H   0  0  0  0  0  0  0  0  0  0  0  0
  143.0332  134.9866  151.7715 H   0  0  0  0  0  0  0  0  0  0  0  0
  143.6494  135.5013  150.1924 H   0  0  0  0  0  0  0  0  0  0  0  0
  143.8843  132.4943  151.7211 H   0  0  0  0  0  0  0  0  0  0  0  0
  144.1450  132.8410  150.0181 H   0  0  0  0  0  0  0  0  0  0  0  0
  145.6607  130.9810  150.8495 H   0  0  0  0  0  0  0  0  0  0  0  0
  146.5346  132.3355  150.1815 H   0  0  0  0  0  0  0  0  0  0  0  0
  146.1457  131.7084  153.1415 H   0  0  0  0  0  0  0  0  0  0  0  0
  147.6510  131.6755  152.2583 H   0  0  0  0  0  0  0  0  0  0  0  0
  147.3863  133.7539  153.6700 H   0  0  0  0  0  0  0  0  0  0  0  0
  147.6050  134.1332  151.9720 H   0  0  0  0  0  0  0  0  0  0  0  0
  144.9037  133.8980  153.3795 H   0  0  0  0  0  0  0  0  0  0  0  0
  145.6829  134.5501  150.6811 H   0  0  0  0  0  0  0  0  0  0  0  0
  1  2  1  0  0  0  0
  1 21  1  0  0  0  0
  1 22  1  0  0  0  0
  1 23  1  0  0  0  0
  2  7  1  0  0  0  0
  2  3  2  0  0  0  0
  3  4  1  0  0  0  0
  3 24  1  0  0  0  0
  4  5  2  0  0  0  0
  4 25  1  0  0  0  0
  5  6  1  0  0  0  0
  5 26  1  0  0  0  0
  6  7  2  0  0  0  0
  7  8  1  0  0  0  0
  8  9  1  0  0  0  0
  8 27  1  0  0  0  0
  9 10  2  0  0  0  0
  9 11  1  0  0  0  0
 11 12  1  0  0  0  0
 11 28  1  0  0  0  0
 12 20  1  0  0  0  0
 12 13  1  0  0  0  0
 12 29  1  0  0  0  0
 13 14  1  0  0  0  0
 13 30  1  0  0  0  0
 13 31  1  0  0  0  0
 14 15  1  0  0  0  0
 14 32  1  0  0  0  0
 14 33  1  0  0  0  0
 15 20  1  0  0  0  0
 15 16  1  0  0  0  0
 15 43  1  0  0  0  0
 16 17  1  0  0  0  0
 16 34  1  0  0  0  0
 16 35  1  0  0  0  0
 17 18  1  0  0  0  0
 17 36  1  0  0  0  0
 17 37  1  0  0  0  0
 18 19  1  0  0  0  0
 18 38  1  0  0  0  0
 18 39  1  0  0  0  0
 19 20  1  0  0  0  0
 19 40  1  0  0  0  0
 19 41  1  0  0  0  0
 20 42  1  0  0  0  0
M  CHG  1  15   1
M  END
> <s_m_source_file>
AV-unprocessed.smi

> <i_m_source_file_index>
1709

> <i_lp_mmshare_version>
43012

> <i_f3d_flags>
0

> <s_epik_input>
W0NIM11jMVtjSF1bY0hdW2NIXW5jMVtOSF1DKD1PKVtOSF1bQ0BIXShbQ0gyXVtDSDJdMilbQ0BASF0oTjIzKVtDSDJdW0NIMl1bQ0gyXVtDSDJdMw==

> <s_epik_cmdline>
J2VwaWtfcHl0aG9uJywgJy1waCcsICc3LjAnLCAnLXRuJywgJzgnLCAnLW1hJywgJzIwMCcsICctbWV0YWxfYmluZGluZycsICctaW1hZScsICc8aW5maWxlLm1hZT4nLCAnLW9tYWUnLCAnPG91dGZpbGUubWFlPic=

> <r_epik_Ionization_Penalty>
0.00101524

> <r_epik_Ionization_Penalty_Charging>
0.000974069

> <r_epik_Ionization_Penalty_Neutral>
4.11757e-05

> <r_epik_State_Penalty>
0.000633842

> <r_epik_Charging_Adjusted_Penalty>
0.00160791

> <i_epik_Tot_Q>
1

> <i_epik_Tot_abs_Q>
1

> <r_epik_Metal_State_Penalty>
-0

> <b_epik_Metal_Only>
0

> <s_lp_Force_Field>
OPLS_2005

> <r_lp_Energy>
46.0591

> <b_lp_Chiralities_Consistent>
1

> <s_lp_Variant>
AV-unprocessed.smi:1709-4

> <Gold.Version>
5.8.1

> <Gold.Id.Protein>
6NUR|6NUR_protein|mol2

> <Gold.PLP.Fitness>
38.4719

> <Gold.PLP.PLP>
-30.8253

> <Gold.PLP.part.hbond>
-1.9936

> <Gold.PLP.part.metal>
0.0000

> <Gold.PLP.part.buried>
-1.2392

> <Gold.PLP.part.nonpolar>
-27.7334

> <Gold.PLP.part.repulsive>
0.2164

> <Gold.PLP.ligand.clash>
0.0000

> <Gold.PLP.ligand.torsion>
0.5450

> <Gold.PLP.Chemscore.Hbond>
1.9120

> <Gold.PLP.Chemscore.CHOScore>
1.0000

> <Gold.PLP.Chemscore.Metal>
0.0000

> <Gold.Chemscore.Hbonds>
donor molecule, donor type, donor heavy atom, donor atom, acceptor molecule, acceptor atom, score
      L1  H     8    27       P1  7948  0.91
      L1  H    11    28       P1  7948  1.00
      L1  C     5    26       P1  8028  1.00

> <Gold.PLP.Chemscore.Internal.Correction>
0.0006

> <Gold.Rescore>
     Score         DG    S(hbond)    S(metal)    S(lipo)     H(rot)  DE(clash)    DE(int)     intcor
     17.55     -18.29       1.90        0.00      77.14       1.00       0.02       0.72       ----

> <Gold.Chemscore.Fitness>
17.5512

> <Gold.Chemscore.DG>
-18.2880

> <Gold.Chemscore.ZeroCoef>
-5.4800

> <Gold.Chemscore.Hbond>
1.8989

> <Gold.Chemscore.Metal>
0.0000

> <Gold.Chemscore.Lipo>
77.1415

> <Gold.Chemscore.Internal_Hbond>
0.0000

> <Gold.Chemscore.DEClash>
0.0166

> <Gold.Chemscore.DEInternal>
0.7202

> <Gold.Chemscore.Rot>
1.0000

> <Gold.Chemscore.Internal.Correction>
   9.000000E+99

> <Gold.Chemscore.Hbonds>
donor molecule, donor type, donor heavy atom, donor atom, acceptor molecule, acceptor atom, score
      L1  H     8    27       P1  7948  0.90
      L1  H    11    28       P1  7948  0.95

> <Gold.Chemscore.Hbond.Weighted>
-6.3425

> <Gold.Chemscore.Metal.Weighted>
-0.0000

> <Gold.Chemscore.Lipo.Weighted>
-9.0256

> <Gold.Chemscore.Internal_Hbond.Weighted>
0.0000

> <Gold.Chemscore.DEClash.Weighted>
0.0166

> <Gold.Chemscore.DEInternal.Weighted>
0.7202

> <Gold.Chemscore.Rot.Weighted>
2.5600

> <Gold.Chemscore.Internal.Correction.Weighted>
   9.000000E+99

> <Gold.Protein.RotatedTorsions>
[ 6907 6896 6895 6894 ] final  -23.23 input  -60.11 | X-H torsion
[ 7974 7965 7964 7962 ] final  -44.37 input  175.53 | X-H torsion
[ 8008 7997 7996 7995 ] final  -20.54 input   59.86 | X-H torsion
[ 10167 10162 10161 10158 ] final   89.58 input  -65.29 | X-H torsion
[ 10718 10713 10712 10709 ] final  -39.80 input   66.30 | X-H torsion
[ 10763 10752 10751 10750 ] final  110.45 input  -60.55 | X-H torsion
[ 11005 11000 10999 10996 ] final  159.99 input  -57.11 | X-H torsion

> <Gold.Protein.ActiveResidues>
 VAL166  LYS551  ARG553  GLY616  TRP617  ASP618  TYR619  PRO620  LYS621  CYS622 
 ASP623  PHE694  ASN695  SER759  ASP760  ASP761  ALA762  ILE779  LEU786  VAL792 
 PHE793  MET794  SER795  GLU796  ALA797  LYS798  CYS799  TRP800  GLU811  SER814 

> <Gold.Protein.RotatedAtoms>
  151.2070  135.0466  159.8895 H   0  0  0  0  0  0  0  0  0  0  0  0  # atno 6907 bound_to 6896
  152.5428  134.0786  159.8236 H   0  0  0  0  0  0  0  0  0  0  0  0  # atno 6908 bound_to 6896
  151.0935  133.5250  159.2645 H   0  0  0  0  0  0  0  0  0  0  0  0  # atno 6909 bound_to 6896
  145.9927  140.7162  142.9309 H   0  0  0  0  0  0  0  0  0  0  0  0  # atno 7974 bound_to 7965
  154.4763  140.2059  155.9870 H   0  0  0  0  0  0  0  0  0  0  0  0  # atno 8008 bound_to 7997
  156.1094  140.3231  155.8022 H   0  0  0  0  0  0  0  0  0  0  0  0  # atno 8009 bound_to 7997
  155.4660  140.0527  157.2976 H   0  0  0  0  0  0  0  0  0  0  0  0  # atno 8010 bound_to 7997
  139.8558  144.6570  150.9116 H   0  0  0  0  0  0  0  0  0  0  0  0  # atno 10167 bound_to 10162
  156.2884  130.4225  149.8263 H   0  0  0  0  0  0  0  0  0  0  0  0  # atno 10718 bound_to 10713
  153.4492  135.3748  155.2274 H   0  0  0  0  0  0  0  0  0  0  0  0  # atno 10763 bound_to 10752
  154.8756  135.3881  154.4059 H   0  0  0  0  0  0  0  0  0  0  0  0  # atno 10764 bound_to 10752
  153.4616  135.7086  153.6111 H   0  0  0  0  0  0  0  0  0  0  0  0  # atno 10765 bound_to 10752
  140.2015  134.8334  157.3023 H   0  0  0  0  0  0  0  0  0  0  0  0  # atno 11005 bound_to 11000
  144.6894  140.3098  143.7250 LP  0  0  0  0  0  0  0  0  0  0  0  0  # atno 17320 bound_to 7965
  145.7605  139.1823  143.2269 LP  0  0  0  0  0  0  0  0  0  0  0  0  # atno 17321 bound_to 7965
  140.7781  143.3787  151.1516 LP  0  0  0  0  0  0  0  0  0  0  0  0  # atno 17342 bound_to 10162
  139.7421  143.8908  152.3053 LP  0  0  0  0  0  0  0  0  0  0  0  0  # atno 17343 bound_to 10162
  156.5685  130.8414  151.3350 LP  0  0  0  0  0  0  0  0  0  0  0  0  # atno 17370 bound_to 10713
  157.7335  130.9732  150.1983 LP  0  0  0  0  0  0  0  0  0  0  0  0  # atno 17371 bound_to 10713
  140.2049  134.4210  155.7643 LP  0  0  0  0  0  0  0  0  0  0  0  0  # atno 17394 bound_to 11000
  141.2227  133.7090  156.8243 LP  0  0  0  0  0  0  0  0  0  0  0  0  # atno 17395 bound_to 11000

$$$$
