AV-unprocessed.smi:3019|AV-procd|sdf|11495|dock2
  -GOLD-   2272016433D 1   1.00000     0.00000
 Structure written by MMmdl.
 29 30  0  0  0  0  0  0  0  0  2 V2000
  153.6328  141.2670  161.0158 C   0  0  0  0  0  0  0  0  0  0  0  0
  153.3600  142.0510  159.7253 C   0  0  0  0  0  0  0  0  0  0  0  0
  152.6108  143.3688  159.9672 C   0  0  0  0  0  0  0  0  0  0  0  0
  152.6611  141.1930  158.6887 C   0  0  0  0  0  0  0  0  0  0  0  0
  153.0913  140.0029  158.2328 N   0  5  0  0  0  0  0  0  0  0  0  0
  152.2403  139.5306  157.3449 N   0  0  0  0  0  0  0  0  0  0  0  0
  151.2633  140.4468  157.2625 C   0  0  0  0  0  0  0  0  0  0  0  0
  150.0753  140.3512  156.3255 C   0  0  2  0  0  0  0  0  0  0  0  0
  150.5382  140.1934  154.8626 C   0  0  0  0  0  0  0  0  0  0  0  0
  149.3887  140.1153  153.9611 N   0  0  0  0  0  0  0  0  0  0  0  0
  148.5029  141.2641  154.1342 C   0  0  0  0  0  0  0  0  0  0  0  0
  148.0816  141.3939  155.6079 C   0  0  0  0  0  0  0  0  0  0  0  0
  149.2419  141.5051  156.4241 O   0  0  0  0  0  0  0  0  0  0  0  0
  151.5143  141.4804  158.0796 N   0  0  0  0  0  0  0  0  0  0  0  0
  154.2261  140.3751  160.8127 H   0  0  0  0  0  0  0  0  0  0  0  0
  152.7030  140.9478  161.4874 H   0  0  0  0  0  0  0  0  0  0  0  0
  154.1817  141.8735  161.7363 H   0  0  0  0  0  0  0  0  0  0  0  0
  154.3307  142.3127  159.3021 H   0  0  0  0  0  0  0  0  0  0  0  0
  152.4948  143.9289  159.0389 H   0  0  0  0  0  0  0  0  0  0  0  0
  153.1478  144.0031  160.6726 H   0  0  0  0  0  0  0  0  0  0  0  0
  151.6152  143.1871  160.3731 H   0  0  0  0  0  0  0  0  0  0  0  0
  149.4979  139.4744  156.6253 H   0  0  0  0  0  0  0  0  0  0  0  0
  151.1684  141.0397  154.5859 H   0  0  0  0  0  0  0  0  0  0  0  0
  151.1523  139.2986  154.7584 H   0  0  0  0  0  0  0  0  0  0  0  0
  149.0115  142.1754  153.8173 H   0  0  0  0  0  0  0  0  0  0  0  0
  147.6227  141.1581  153.4999 H   0  0  0  0  0  0  0  0  0  0  0  0
  147.4681  142.2845  155.7449 H   0  0  0  0  0  0  0  0  0  0  0  0
  147.4778  140.5404  155.9204 H   0  0  0  0  0  0  0  0  0  0  0  0
  149.7149  140.0796  153.0007 H   0  0  0  0  0  0  0  0  0  0  0  0
  1  2  1  0  0  0  0
  1 15  1  0  0  0  0
  1 16  1  0  0  0  0
  1 17  1  0  0  0  0
  2  3  1  0  0  0  0
  2  4  1  0  0  0  0
  2 18  1  0  0  0  0
  3 19  1  0  0  0  0
  3 20  1  0  0  0  0
  3 21  1  0  0  0  0
  4 14  2  0  0  0  0
  4  5  1  0  0  0  0
  5  6  1  0  0  0  0
  6  7  2  0  0  0  0
  7  8  1  0  0  0  0
  7 14  1  0  0  0  0
  8 13  1  0  0  0  0
  8  9  1  0  0  0  0
  8 22  1  0  0  0  0
  9 10  1  0  0  0  0
  9 23  1  0  0  0  0
  9 24  1  0  0  0  0
 10 11  1  0  0  0  0
 10 29  1  0  0  0  0
 11 12  1  0  0  0  0
 11 25  1  0  0  0  0
 11 26  1  0  0  0  0
 12 13  1  0  0  0  0
 12 27  1  0  0  0  0
 12 28  1  0  0  0  0
M  CHG  1   5  -1
M  END
> <s_m_source_file>
AV-unprocessed.smi

> <i_m_source_file_index>
3019

> <i_lp_mmshare_version>
43012

> <i_f3d_flags>
0

> <s_epik_input>
W0NIM11bQ0hdKFtDSDNdKWMxbltuSF1jKG4xKVtDQEBIXTJbQ0gyXVtOSF1bQ0gyXVtDSDJdTzI=

> <s_epik_cmdline>
J2VwaWtfcHl0aG9uJywgJy1waCcsICc3LjAnLCAnLXRuJywgJzgnLCAnLW1hJywgJzIwMCcsICctbWV0YWxfYmluZGluZycsICctaW1hZScsICc8aW5maWxlLm1hZT4nLCAnLW9tYWUnLCAnPG91dGZpbGUubWFlPic=

> <r_lp_tautomer_probability>
0.948284

> <r_epik_Ionization_Penalty>
17.5852

> <r_epik_Ionization_Penalty_Charging>
16.0119

> <r_epik_Ionization_Penalty_Neutral>
1.5733

> <r_epik_State_Penalty>
6.64574

> <r_epik_Charging_Adjusted_Penalty>
22.6576

> <i_epik_Tot_Q>
-1

> <i_epik_Tot_abs_Q>
1

> <r_epik_Metal_State_Penalty>
2.89273

> <b_epik_Metal_Only>
1

> <s_lp_Force_Field>
OPLS_2005

> <r_lp_Energy>
9.70462

> <b_lp_Chiralities_Consistent>
1

> <s_lp_Variant>
AV-unprocessed.smi:3019-11

> <Gold.Version>
5.8.1

> <Gold.Id.Protein>
6NUR|6NUR_protein|mol2

> <Gold.PLP.Fitness>
34.5263

> <Gold.PLP.PLP>
-25.5496

> <Gold.PLP.part.hbond>
-2.3378

> <Gold.PLP.part.metal>
0.0000

> <Gold.PLP.part.buried>
-1.6862

> <Gold.PLP.part.nonpolar>
-21.7198

> <Gold.PLP.part.repulsive>
0.1112

> <Gold.PLP.ligand.clash>
0.0000

> <Gold.PLP.ligand.torsion>
0.0474

> <Gold.PLP.Chemscore.Hbond>
3.0000

> <Gold.PLP.Chemscore.CHOScore>
0.0000

> <Gold.PLP.Chemscore.Metal>
0.0000

> <Gold.Chemscore.Hbonds>
donor molecule, donor type, donor heavy atom, donor atom, acceptor molecule, acceptor atom, score
      L1  H    10    29       P1  7957  1.00
      P1  H  7997  8010       L1     5  1.88

> <Gold.PLP.Chemscore.Internal.Correction>
0.0715

> <Gold.Rescore>
     Score         DG    S(hbond)    S(metal)    S(lipo)     H(rot)  DE(clash)    DE(int)     intcor
     13.63     -13.82       1.42        0.00      57.88       1.24       0.13       0.05       ----

> <Gold.Chemscore.Fitness>
13.6338

> <Gold.Chemscore.DG>
-13.8191

> <Gold.Chemscore.ZeroCoef>
-5.4800

> <Gold.Chemscore.Hbond>
1.4214

> <Gold.Chemscore.Metal>
0.0000

> <Gold.Chemscore.Lipo>
57.8769

> <Gold.Chemscore.Internal_Hbond>
0.0000

> <Gold.Chemscore.DEClash>
0.1343

> <Gold.Chemscore.DEInternal>
0.0509

> <Gold.Chemscore.Rot>
1.2422

> <Gold.Chemscore.Internal.Correction>
   9.000000E+99

> <Gold.Chemscore.Hbonds>
donor molecule, donor type, donor heavy atom, donor atom, acceptor molecule, acceptor atom, score
      L1  H    10    29       P1  7957  0.99
      P1  H  7997  8010       L1     5  0.19

> <Gold.Chemscore.Hbond.Weighted>
-4.7474

> <Gold.Chemscore.Metal.Weighted>
-0.0000

> <Gold.Chemscore.Lipo.Weighted>
-6.7716

> <Gold.Chemscore.Internal_Hbond.Weighted>
0.0000

> <Gold.Chemscore.DEClash.Weighted>
0.1343

> <Gold.Chemscore.DEInternal.Weighted>
0.0509

> <Gold.Chemscore.Rot.Weighted>
3.1799

> <Gold.Chemscore.Internal.Correction.Weighted>
   9.000000E+99

> <Gold.Protein.RotatedTorsions>
[ 6907 6896 6895 6894 ] final   -8.61 input  -60.11 | X-H torsion
[ 7974 7965 7964 7962 ] final  165.04 input  175.53 | X-H torsion
[ 8008 7997 7996 7995 ] final   25.73 input   59.86 | X-H torsion
[ 10167 10162 10161 10158 ] final -148.97 input  -65.29 | X-H torsion
[ 10718 10713 10712 10709 ] final  106.56 input   66.30 | X-H torsion
[ 10763 10752 10751 10750 ] final  -63.47 input  -60.55 | X-H torsion
[ 11005 11000 10999 10996 ] final  -86.66 input  -57.11 | X-H torsion

> <Gold.Protein.ActiveResidues>
 VAL166  LYS551  ARG553  GLY616  TRP617  ASP618  TYR619  PRO620  LYS621  CYS622 
 ASP623  PHE694  ASN695  SER759  ASP760  ASP761  ALA762  ILE779  LEU786  VAL792 
 PHE793  MET794  SER795  GLU796  ALA797  LYS798  CYS799  TRP800  GLU811  SER814 

> <Gold.Protein.RotatedAtoms>
  151.4309  135.1009  159.9641 H   0  0  0  0  0  0  0  0  0  0  0  0  # atno 6907 bound_to 6896
  152.4956  133.8619  159.7265 H   0  0  0  0  0  0  0  0  0  0  0  0  # atno 6908 bound_to 6896
  150.9156  133.6885  159.2872 H   0  0  0  0  0  0  0  0  0  0  0  0  # atno 6909 bound_to 6896
  144.7519  139.8413  143.6363 H   0  0  0  0  0  0  0  0  0  0  0  0  # atno 7974 bound_to 7965
  155.0162  140.3142  155.4810 H   0  0  0  0  0  0  0  0  0  0  0  0  # atno 8008 bound_to 7997
  156.2900  140.2205  156.5220 H   0  0  0  0  0  0  0  0  0  0  0  0  # atno 8009 bound_to 7997
  154.7491  140.0467  157.0866 H   0  0  0  0  0  0  0  0  0  0  0  0  # atno 8010 bound_to 7997
  139.7484  143.8556  152.2580 H   0  0  0  0  0  0  0  0  0  0  0  0  # atno 10167 bound_to 10162
  157.6663  131.0853  150.6025 H   0  0  0  0  0  0  0  0  0  0  0  0  # atno 10718 bound_to 10713
  154.3156  135.6207  153.5484 H   0  0  0  0  0  0  0  0  0  0  0  0  # atno 10763 bound_to 10752
  152.9825  135.5711  154.5128 H   0  0  0  0  0  0  0  0  0  0  0  0  # atno 10764 bound_to 10752
  154.4786  135.2862  155.1564 H   0  0  0  0  0  0  0  0  0  0  0  0  # atno 10765 bound_to 10752
  141.1627  133.7467  156.9194 H   0  0  0  0  0  0  0  0  0  0  0  0  # atno 11005 bound_to 11000
  146.1481  139.4556  143.0066 LP  0  0  0  0  0  0  0  0  0  0  0  0  # atno 17320 bound_to 7965
  145.6913  141.0163  143.1554 LP  0  0  0  0  0  0  0  0  0  0  0  0  # atno 17321 bound_to 7965
  139.8527  144.7156  150.9194 LP  0  0  0  0  0  0  0  0  0  0  0  0  # atno 17342 bound_to 10162
  140.7795  143.3885  151.1351 LP  0  0  0  0  0  0  0  0  0  0  0  0  # atno 17343 bound_to 10162
  156.6325  130.4436  149.5781 LP  0  0  0  0  0  0  0  0  0  0  0  0  # atno 17370 bound_to 10713
  156.2271  130.6772  151.1426 LP  0  0  0  0  0  0  0  0  0  0  0  0  # atno 17371 bound_to 10713
  140.1462  134.9261  157.2532 LP  0  0  0  0  0  0  0  0  0  0  0  0  # atno 17394 bound_to 11000
  140.2777  134.3386  155.7353 LP  0  0  0  0  0  0  0  0  0  0  0  0  # atno 17395 bound_to 11000

$$$$
