AV-unprocessed.smi:181|AV-procd|sdf|1454|dock7
  -GOLD-   2262019253D 1   1.00000     0.00000
 Structure written by MMmdl.
 50 53  0  0  0  0  0  0  0  0  1 V2000
  153.2281  142.3351  159.6259 C   0  0  0  0  0  0  0  0  0  0  0  0
  152.2678  141.1589  159.8395 C   0  0  0  0  0  0  0  0  0  0  0  0
  152.6644  139.9557  159.1042 N   0  0  0  0  0  0  0  0  0  0  0  0
  152.3243  139.8939  157.7894 C   0  0  0  0  0  0  0  0  0  0  0  0
  153.0402  139.1077  156.9446 N   0  0  0  0  0  0  0  0  0  0  0  0
  152.7190  139.0375  155.6498 C   0  0  0  0  0  0  0  0  0  0  0  0
  151.7309  139.6558  155.0011 N   0  0  0  0  0  0  0  0  0  0  0  0
  150.9985  140.4367  155.8453 C   0  0  0  0  0  0  0  0  0  0  0  0
  151.2261  140.6139  157.2396 C   0  0  0  0  0  0  0  0  0  0  0  0
  150.2719  141.4756  157.7680 N   0  0  0  0  0  0  0  0  0  0  0  0
  149.5320  141.7992  156.7431 C   0  0  0  0  0  0  0  0  0  0  0  0
  149.8903  141.2117  155.5508 N   0  0  0  0  0  0  0  0  0  0  0  0
  149.2376  141.3890  154.2625 C   0  0  0  0  0  0  0  0  0  0  0  0
  147.7409  140.9880  154.2502 C   0  0  0  0  0  0  0  0  0  0  0  0
  147.3907  140.6589  152.9172 O   0  0  0  0  0  0  0  0  0  0  0  0
  147.4422  139.7656  155.1463 C   0  0  0  0  0  0  0  0  0  0  0  0
  145.9315  139.5101  155.2939 C   0  0  0  0  0  0  0  0  0  0  0  0
  145.2802  140.6807  155.7718 O   0  0  0  0  0  0  0  0  0  0  0  0
  145.3886  141.7760  154.8711 C   0  0  0  0  0  0  0  0  0  0  0  0
  146.8657  142.1740  154.7032 C   0  0  0  0  0  0  0  0  0  0  0  0
  153.5847  138.9821  159.7179 C   0  0  1  0  0  0  0  0  0  0  0  0
  154.1964  139.4667  161.0475 C   0  0  0  0  0  0  0  0  0  0  0  0
  154.4260  138.1828  161.8585 C   0  0  0  0  0  0  0  0  0  0  0  0
  153.5232  137.2151  161.2631 N   0  0  0  0  0  0  0  0  0  0  0  0
  153.0139  137.6161  160.0986 C   0  0  0  0  0  0  0  0  0  0  0  0
  152.2126  136.9833  159.4144 O   0  0  0  0  0  0  0  0  0  0  0  0
  152.8611  143.2285  160.1311 H   0  0  0  0  0  0  0  0  0  0  0  0
  153.3328  142.5714  158.5667 H   0  0  0  0  0  0  0  0  0  0  0  0
  154.2182  142.1196  160.0267 H   0  0  0  0  0  0  0  0  0  0  0  0
  152.2139  140.9176  160.9015 H   0  0  0  0  0  0  0  0  0  0  0  0
  151.2655  141.4830  159.5605 H   0  0  0  0  0  0  0  0  0  0  0  0
  153.3422  138.3927  155.0483 H   0  0  0  0  0  0  0  0  0  0  0  0
  148.6917  142.4722  156.8314 H   0  0  0  0  0  0  0  0  0  0  0  0
  149.3434  142.4368  153.9780 H   0  0  0  0  0  0  0  0  0  0  0  0
  149.7905  140.8170  153.5159 H   0  0  0  0  0  0  0  0  0  0  0  0
  148.1811  140.4638  152.4374 H   0  0  0  0  0  0  0  0  0  0  0  0
  147.9255  138.8691  154.7568 H   0  0  0  0  0  0  0  0  0  0  0  0
  147.8634  139.9358  156.1380 H   0  0  0  0  0  0  0  0  0  0  0  0
  145.4913  139.1970  154.3459 H   0  0  0  0  0  0  0  0  0  0  0  0
  145.7595  138.6998  156.0025 H   0  0  0  0  0  0  0  0  0  0  0  0
  144.9375  141.5197  153.9111 H   0  0  0  0  0  0  0  0  0  0  0  0
  144.8204  142.6157  155.2713 H   0  0  0  0  0  0  0  0  0  0  0  0
  147.2313  142.5468  155.6611 H   0  0  0  0  0  0  0  0  0  0  0  0
  146.9521  143.0041  154.0005 H   0  0  0  0  0  0  0  0  0  0  0  0
  154.3974  138.7857  159.0168 H   0  0  0  0  0  0  0  0  0  0  0  0
  155.1196  140.0268  160.8954 H   0  0  0  0  0  0  0  0  0  0  0  0
  153.5156  140.1140  161.6010 H   0  0  0  0  0  0  0  0  0  0  0  0
  155.4516  137.8274  161.7519 H   0  0  0  0  0  0  0  0  0  0  0  0
  154.2171  138.3232  162.9194 H   0  0  0  0  0  0  0  0  0  0  0  0
  153.2880  136.3417  161.7118 H   0  0  0  0  0  0  0  0  0  0  0  0
  1  2  1  0  0  0  0
  1 27  1  0  0  0  0
  1 28  1  0  0  0  0
  1 29  1  0  0  0  0
  2  3  1  0  0  0  0
  2 30  1  0  0  0  0
  2 31  1  0  0  0  0
  3  4  1  0  0  0  0
  3 21  1  0  0  0  0
  4  9  1  0  0  0  0
  4  5  2  0  0  0  0
  5  6  1  0  0  0  0
  6  7  2  0  0  0  0
  6 32  1  0  0  0  0
  7  8  1  0  0  0  0
  8 12  1  0  0  0  0
  8  9  2  0  0  0  0
  9 10  1  0  0  0  0
 10 11  2  0  0  0  0
 11 12  1  0  0  0  0
 11 33  1  0  0  0  0
 12 13  1  0  0  0  0
 13 14  1  0  0  0  0
 13 34  1  0  0  0  0
 13 35  1  0  0  0  0
 14 20  1  0  0  0  0
 14 15  1  0  0  0  0
 14 16  1  0  0  0  0
 15 36  1  0  0  0  0
 16 17  1  0  0  0  0
 16 37  1  0  0  0  0
 16 38  1  0  0  0  0
 17 18  1  0  0  0  0
 17 39  1  0  0  0  0
 17 40  1  0  0  0  0
 18 19  1  0  0  0  0
 19 20  1  0  0  0  0
 19 41  1  0  0  0  0
 19 42  1  0  0  0  0
 20 43  1  0  0  0  0
 20 44  1  0  0  0  0
 21 25  1  0  0  0  0
 21 22  1  0  0  0  0
 21 45  1  0  0  0  0
 22 23  1  0  0  0  0
 22 46  1  0  0  0  0
 22 47  1  0  0  0  0
 23 24  1  0  0  0  0
 23 48  1  0  0  0  0
 23 49  1  0  0  0  0
 24 25  1  0  0  0  0
 24 50  1  0  0  0  0
 25 26  2  0  0  0  0
M  END
> <s_m_source_file>
AV-unprocessed.smi

> <i_m_source_file_index>
181

> <i_lp_mmshare_version>
43012

> <i_f3d_flags>
0

> <s_epik_input>
Tz1DMVtOSF1bQ0gyXVtDSDJdW0NASF0xTihbQ0gyXVtDSDNdKWMobltjSF1uMiljKGMyMyluW2NIXW4zW0NIMl1DNChbT0hdKVtDSDJdW0NIMl1PW0NIMl1bQ0gyXTQ=

> <s_epik_cmdline>
J2VwaWtfcHl0aG9uJywgJy1waCcsICc3LjAnLCAnLXRuJywgJzgnLCAnLW1hJywgJzIwMCcsICctbWV0YWxfYmluZGluZycsICctaW1hZScsICc8aW5maWxlLm1hZT4nLCAnLW9tYWUnLCAnPG91dGZpbGUubWFlPic=

> <r_lp_tautomer_probability>
1

> <r_epik_Ionization_Penalty>
0.000985257

> <r_epik_Ionization_Penalty_Charging>
0

> <r_epik_Ionization_Penalty_Neutral>
0.000985257

> <r_epik_State_Penalty>
0.000517047

> <r_epik_Charging_Adjusted_Penalty>
0.000517047

> <i_epik_Tot_Q>
0

> <i_epik_Tot_abs_Q>
0

> <r_epik_Metal_State_Penalty>
-0

> <b_epik_Metal_Only>
0

> <s_lp_Force_Field>
OPLS_2005

> <r_lp_Energy>
36.1044

> <b_lp_Chiralities_Consistent>
1

> <s_lp_Variant>
AV-unprocessed.smi:181-2

> <Gold.Version>
5.8.1

> <Gold.Id.Protein>
6NUR|6NUR_protein|mol2

> <Gold.PLP.Fitness>
52.1857

> <Gold.PLP.PLP>
-40.6436

> <Gold.PLP.part.hbond>
-4.0000

> <Gold.PLP.part.metal>
0.0000

> <Gold.PLP.part.buried>
-1.0580

> <Gold.PLP.part.nonpolar>
-34.8852

> <Gold.PLP.part.repulsive>
0.2365

> <Gold.PLP.ligand.clash>
0.0000

> <Gold.PLP.ligand.torsion>
1.2691

> <Gold.PLP.Chemscore.Hbond>
3.8413

> <Gold.PLP.Chemscore.CHOScore>
0.7603

> <Gold.PLP.Chemscore.Metal>
0.0000

> <Gold.Chemscore.Hbonds>
donor molecule, donor type, donor heavy atom, donor atom, acceptor molecule, acceptor atom, score
      L1  H    15    36       P1  7957  1.00
      P1  H  6896  6908       L1    26  1.00
      P1  H  7989  7998       L1     7  0.80
      P1  H  7997  8008       L1     5  0.95
      L1  C    11    33       P1  8028  0.74

> <Gold.PLP.Chemscore.Internal.Correction>
0.2757

> <Gold.Rescore>
     Score         DG    S(hbond)    S(metal)    S(lipo)     H(rot)  DE(clash)    DE(int)     intcor
     10.98     -13.75       2.04        0.00      67.01       2.49       0.17       2.60       ----

> <Gold.Chemscore.Fitness>
10.9827

> <Gold.Chemscore.DG>
-13.7461

> <Gold.Chemscore.ZeroCoef>
-5.4800

> <Gold.Chemscore.Hbond>
2.0359

> <Gold.Chemscore.Metal>
0.0000

> <Gold.Chemscore.Lipo>
67.0052

> <Gold.Chemscore.Internal_Hbond>
0.0000

> <Gold.Chemscore.DEClash>
0.1664

> <Gold.Chemscore.DEInternal>
2.5970

> <Gold.Chemscore.Rot>
2.4897

> <Gold.Chemscore.Internal.Correction>
   9.000000E+99

> <Gold.Chemscore.Hbonds>
donor molecule, donor type, donor heavy atom, donor atom, acceptor molecule, acceptor atom, score
      L1  H    15    36       P1  7957  0.99
      P1  H  6896  6908       L1    26  0.89
      P1  H  7989  7998       L1     7  0.11
      P1  H  7997  8008       L1     5  0.05

> <Gold.Chemscore.Hbond.Weighted>
-6.8000

> <Gold.Chemscore.Metal.Weighted>
-0.0000

> <Gold.Chemscore.Lipo.Weighted>
-7.8396

> <Gold.Chemscore.Internal_Hbond.Weighted>
0.0000

> <Gold.Chemscore.DEClash.Weighted>
0.1664

> <Gold.Chemscore.DEInternal.Weighted>
2.5970

> <Gold.Chemscore.Rot.Weighted>
6.3735

> <Gold.Chemscore.Internal.Correction.Weighted>
   9.000000E+99

> <Gold.Protein.RotatedTorsions>
[ 6907 6896 6895 6894 ] final -104.99 input  -60.11 | X-H torsion
[ 7974 7965 7964 7962 ] final  166.74 input  175.53 | X-H torsion
[ 8008 7997 7996 7995 ] final  -73.05 input   59.86 | X-H torsion
[ 10167 10162 10161 10158 ] final   56.01 input  -65.29 | X-H torsion
[ 10718 10713 10712 10709 ] final  -31.95 input   66.30 | X-H torsion
[ 10763 10752 10751 10750 ] final  -99.10 input  -60.55 | X-H torsion
[ 11005 11000 10999 10996 ] final   99.28 input  -57.11 | X-H torsion

> <Gold.Protein.ActiveResidues>
 VAL166  LYS551  ARG553  GLY616  TRP617  ASP618  TYR619  PRO620  LYS621  CYS622 
 ASP623  PHE694  ASN695  SER759  ASP760  ASP761  ALA762  ILE779  LEU786  VAL792 
 PHE793  MET794  SER795  GLU796  ALA797  LYS798  CYS799  TRP800  GLU811  SER814 

> <Gold.Protein.RotatedAtoms>
  150.7314  134.0194  159.3696 H   0  0  0  0  0  0  0  0  0  0  0  0  # atno 6907 bound_to 6896
  151.8158  135.0665  160.0428 H   0  0  0  0  0  0  0  0  0  0  0  0  # atno 6908 bound_to 6896
  152.3039  133.5647  159.5673 H   0  0  0  0  0  0  0  0  0  0  0  0  # atno 6909 bound_to 6896
  144.7450  139.8660  143.6385 H   0  0  0  0  0  0  0  0  0  0  0  0  # atno 7974 bound_to 7965
  154.5216  140.0786  156.8181 H   0  0  0  0  0  0  0  0  0  0  0  0  # atno 8008 bound_to 7997
  155.3565  140.3415  155.4222 H   0  0  0  0  0  0  0  0  0  0  0  0  # atno 8009 bound_to 7997
  156.1687  140.1612  156.8473 H   0  0  0  0  0  0  0  0  0  0  0  0  # atno 8010 bound_to 7997
  140.2133  144.3866  150.6480 H   0  0  0  0  0  0  0  0  0  0  0  0  # atno 10167 bound_to 10162
  156.3809  130.4356  149.7470 H   0  0  0  0  0  0  0  0  0  0  0  0  # atno 10718 bound_to 10713
  154.7470  135.4985  153.9221 H   0  0  0  0  0  0  0  0  0  0  0  0  # atno 10763 bound_to 10752
  153.1102  135.6707  153.9522 H   0  0  0  0  0  0  0  0  0  0  0  0  # atno 10764 bound_to 10752
  153.9283  135.3080  155.3425 H   0  0  0  0  0  0  0  0  0  0  0  0  # atno 10765 bound_to 10752
  139.8771  134.9088  156.4583 H   0  0  0  0  0  0  0  0  0  0  0  0  # atno 11005 bound_to 11000
  146.1314  139.4351  143.0166 LP  0  0  0  0  0  0  0  0  0  0  0  0  # atno 17320 bound_to 7965
  145.7156  141.0092  143.1430 LP  0  0  0  0  0  0  0  0  0  0  0  0  # atno 17321 bound_to 7965
  140.6308  143.2187  151.6500 LP  0  0  0  0  0  0  0  0  0  0  0  0  # atno 17342 bound_to 10162
  139.5172  144.3324  152.0814 LP  0  0  0  0  0  0  0  0  0  0  0  0  # atno 17343 bound_to 10162
  156.4560  130.7929  151.2950 LP  0  0  0  0  0  0  0  0  0  0  0  0  # atno 17370 bound_to 10713
  157.7492  131.0080  150.3213 LP  0  0  0  0  0  0  0  0  0  0  0  0  # atno 17371 bound_to 10713
  140.8882  133.7867  155.9543 LP  0  0  0  0  0  0  0  0  0  0  0  0  # atno 17394 bound_to 11000
  140.8781  134.2644  157.5158 LP  0  0  0  0  0  0  0  0  0  0  0  0  # atno 17395 bound_to 11000

$$$$
