AV-unprocessed.smi:1645|AV-procd|sdf|6622|dock2
  -GOLD-   22720 7323D 1   1.00000     0.00000
 Structure written by MMmdl.
 55 58  0  0  0  0  0  0  0  0  4 V2000
  146.7930  140.5146  153.7448 O   0  0  0  0  0  0  0  0  0  0  0  0
  147.2302  139.3666  153.8787 C   0  0  0  0  0  0  0  0  0  0  0  0
  148.2531  139.1196  154.7160 N   0  0  0  0  0  0  0  0  0  0  0  0
  149.0293  140.0314  155.4812 C   0  0  0  0  0  0  0  0  0  0  0  0
  149.8494  139.5002  156.4994 C   0  0  0  0  0  0  0  0  0  0  0  0
  150.6583  140.3620  157.2677 C   0  0  0  0  0  0  0  0  0  0  0  0
  150.6434  141.7492  156.9959 C   0  0  0  0  0  0  0  0  0  0  0  0
  151.4173  142.6810  157.6997 N   0  0  0  0  0  0  0  0  0  0  0  0
  150.6257  143.7775  158.2516 C   0  0  0  0  0  0  0  0  0  0  0  0
  151.5368  144.8631  158.8502 C   0  0  0  0  0  0  0  0  0  0  0  0
  152.5030  144.2604  159.8830 C   0  0  0  0  0  0  0  0  0  0  0  0
  153.2874  143.0941  159.2602 C   0  0  0  0  0  0  0  0  0  0  0  0
  152.3328  142.0535  158.6492 C   0  0  0  0  0  0  0  0  0  0  0  0
  149.8562  142.2189  156.0039 N   0  3  0  0  0  0  0  0  0  0  0  0
  149.0652  141.4278  155.2470 C   0  0  0  0  0  0  0  0  0  0  0  0
  146.7863  138.2350  153.2676 N   0  5  0  0  0  0  0  0  0  0  0  0
  145.7829  137.3168  153.8257 C   0  0  2  0  0  0  0  0  0  0  0  0
  146.3912  136.5757  155.0318 C   0  0  0  0  0  0  0  0  0  0  0  0
  147.0027  135.2744  154.4710 C   0  0  0  0  0  0  0  0  0  0  0  0
  146.6668  135.2612  153.0330 N   0  3  1  0  0  0  0  0  0  0  0  0
  146.4890  133.9378  152.3944 C   0  0  0  0  0  0  0  0  0  0  0  0
  146.2072  134.1233  150.8895 C   0  0  0  0  0  0  0  0  0  0  0  0
  145.0197  135.0755  150.6417 C   0  0  0  0  0  0  0  0  0  0  0  0
  145.2253  136.4159  151.3724 C   0  0  0  0  0  0  0  0  0  0  0  0
  145.5001  136.1441  152.8685 C   0  0  2  0  0  0  0  0  0  0  0  0
  148.4766  138.1437  154.8454 H   0  0  0  0  0  0  0  0  0  0  0  0
  149.8576  138.4377  156.6948 H   0  0  0  0  0  0  0  0  0  0  0  0
  151.2826  139.9578  158.0508 H   0  0  0  0  0  0  0  0  0  0  0  0
  149.9999  144.2089  157.4689 H   0  0  0  0  0  0  0  0  0  0  0  0
  149.9557  143.3932  159.0220 H   0  0  0  0  0  0  0  0  0  0  0  0
  152.1067  145.3427  158.0532 H   0  0  0  0  0  0  0  0  0  0  0  0
  150.9331  145.6446  159.3124 H   0  0  0  0  0  0  0  0  0  0  0  0
  153.1895  145.0245  160.2490 H   0  0  0  0  0  0  0  0  0  0  0  0
  151.9410  143.9049  160.7475 H   0  0  0  0  0  0  0  0  0  0  0  0
  153.9560  143.4751  158.4870 H   0  0  0  0  0  0  0  0  0  0  0  0
  153.9207  142.6240  160.0130 H   0  0  0  0  0  0  0  0  0  0  0  0
  151.7610  141.5673  159.4408 H   0  0  0  0  0  0  0  0  0  0  0  0
  152.9077  141.2750  158.1458 H   0  0  0  0  0  0  0  0  0  0  0  0
  148.5090  141.9435  154.4787 H   0  0  0  0  0  0  0  0  0  0  0  0
  144.8586  137.8214  154.1102 H   0  0  0  0  0  0  0  0  0  0  0  0
  147.1212  137.1756  155.5774 H   0  0  0  0  0  0  0  0  0  0  0  0
  145.5992  136.3235  155.7380 H   0  0  0  0  0  0  0  0  0  0  0  0
  148.0853  135.2405  154.5986 H   0  0  0  0  0  0  0  0  0  0  0  0
  146.5767  134.4069  154.9782 H   0  0  0  0  0  0  0  0  0  0  0  0
  147.3890  133.3391  152.5383 H   0  0  0  0  0  0  0  0  0  0  0  0
  145.6656  133.4046  152.8723 H   0  0  0  0  0  0  0  0  0  0  0  0
  147.0967  134.5255  150.4027 H   0  0  0  0  0  0  0  0  0  0  0  0
  146.0128  133.1563  150.4250 H   0  0  0  0  0  0  0  0  0  0  0  0
  144.8927  135.2474  149.5725 H   0  0  0  0  0  0  0  0  0  0  0  0
  144.0989  134.6075  150.9921 H   0  0  0  0  0  0  0  0  0  0  0  0
  146.0588  136.9456  150.9073 H   0  0  0  0  0  0  0  0  0  0  0  0
  144.3434  137.0461  151.2474 H   0  0  0  0  0  0  0  0  0  0  0  0
  144.6321  135.6151  153.2685 H   0  0  0  0  0  0  0  0  0  0  0  0
  147.4274  135.7313  152.5628 H   0  0  0  0  0  0  0  0  0  0  0  0
  149.8611  143.2211  155.8132 H   0  0  0  0  0  0  0  0  0  0  0  0
  1  2  2  0  0  0  0
  2  3  1  0  0  0  0
  2 16  1  0  0  0  0
  3  4  1  0  0  0  0
  3 26  1  0  0  0  0
  4 15  1  0  0  0  0
  4  5  2  0  0  0  0
  5  6  1  0  0  0  0
  5 27  1  0  0  0  0
  6  7  2  0  0  0  0
  6 28  1  0  0  0  0
  7  8  1  0  0  0  0
  7 14  1  0  0  0  0
  8 13  1  0  0  0  0
  8  9  1  0  0  0  0
  9 10  1  0  0  0  0
  9 29  1  0  0  0  0
  9 30  1  0  0  0  0
 10 11  1  0  0  0  0
 10 31  1  0  0  0  0
 10 32  1  0  0  0  0
 11 12  1  0  0  0  0
 11 33  1  0  0  0  0
 11 34  1  0  0  0  0
 12 13  1  0  0  0  0
 12 35  1  0  0  0  0
 12 36  1  0  0  0  0
 13 37  1  0  0  0  0
 13 38  1  0  0  0  0
 14 15  2  0  0  0  0
 14 55  1  0  0  0  0
 15 39  1  0  0  0  0
 16 17  1  0  0  0  0
 17 25  1  0  0  0  0
 17 18  1  0  0  0  0
 17 40  1  0  0  0  0
 18 19  1  0  0  0  0
 18 41  1  0  0  0  0
 18 42  1  0  0  0  0
 19 20  1  0  0  0  0
 19 43  1  0  0  0  0
 19 44  1  0  0  0  0
 20 25  1  0  0  0  0
 20 21  1  0  0  0  0
 20 54  1  0  0  0  0
 21 22  1  0  0  0  0
 21 45  1  0  0  0  0
 21 46  1  0  0  0  0
 22 23  1  0  0  0  0
 22 47  1  0  0  0  0
 22 48  1  0  0  0  0
 23 24  1  0  0  0  0
 23 49  1  0  0  0  0
 23 50  1  0  0  0  0
 24 25  1  0  0  0  0
 24 51  1  0  0  0  0
 24 52  1  0  0  0  0
 25 53  1  0  0  0  0
M  CHG  1  14   1
M  CHG  1  16  -1
M  CHG  1  20   1
M  END
> <s_m_source_file>
AV-unprocessed.smi

> <i_m_source_file_index>
1645

> <i_lp_mmshare_version>
43012

> <i_f3d_flags>
0

> <s_epik_input>
W0NIMl0xW0NIMl1bQ0gyXVtDSDJdW0NASF0oTjEyKVtDQEBIXShbQ0gyXVtDSDJdMilbTkhdQyg9TylbTkhdYzNbY0hdW2NIXWMobltjSF0zKU40W0NIMl1bQ0gyXVtDSDJdW0NIMl1bQ0gyXTQ=

> <s_epik_cmdline>
J2VwaWtfcHl0aG9uJywgJy1waCcsICc3LjAnLCAnLXRuJywgJzgnLCAnLW1hJywgJzIwMCcsICctbWV0YWxfYmluZGluZycsICctaW1hZScsICc8aW5maWxlLm1hZT4nLCAnLW9tYWUnLCAnPG91dGZpbGUubWFlPic=

> <r_lp_tautomer_probability>
0.999994

> <r_epik_Ionization_Penalty>
8.55589

> <r_epik_Ionization_Penalty_Charging>
8.55589

> <r_epik_Ionization_Penalty_Neutral>
3.8092e-06

> <r_epik_State_Penalty>
8.15703

> <r_epik_Charging_Adjusted_Penalty>
16.7129

> <i_epik_Tot_Q>
1

> <i_epik_Tot_abs_Q>
3

> <r_epik_Metal_State_Penalty>
4.13781

> <b_epik_Metal_Only>
1

> <s_lp_Force_Field>
OPLS_2005

> <r_lp_Energy>
55.4093

> <b_lp_Chiralities_Consistent>
1

> <s_lp_Variant>
AV-unprocessed.smi:1645-23

> <Gold.Version>
5.8.1

> <Gold.Id.Protein>
6NUR|6NUR_protein|mol2

> <Gold.PLP.Fitness>
48.1431

> <Gold.PLP.PLP>
-37.7981

> <Gold.PLP.part.hbond>
-2.0000

> <Gold.PLP.part.metal>
0.0000

> <Gold.PLP.part.buried>
-7.2102

> <Gold.PLP.part.nonpolar>
-29.8541

> <Gold.PLP.part.repulsive>
0.6840

> <Gold.PLP.ligand.clash>
0.0000

> <Gold.PLP.ligand.torsion>
0.9138

> <Gold.PLP.Chemscore.Hbond>
3.9840

> <Gold.PLP.Chemscore.CHOScore>
0.0000

> <Gold.PLP.Chemscore.Metal>
0.0000

> <Gold.Chemscore.Hbonds>
donor molecule, donor type, donor heavy atom, donor atom, acceptor molecule, acceptor atom, score
      L1  H    14    55       P1  8028  1.89
      L1  H    20    54       P1  7948  2.00

> <Gold.PLP.Chemscore.Internal.Correction>
0.2206

> <Gold.Rescore>
     Score         DG    S(hbond)    S(metal)    S(lipo)     H(rot)  DE(clash)    DE(int)     intcor
     19.40     -21.72       1.99        0.00     107.71       1.17       0.07       2.25       ----

> <Gold.Chemscore.Fitness>
19.3987

> <Gold.Chemscore.DG>
-21.7188

> <Gold.Chemscore.ZeroCoef>
-5.4800

> <Gold.Chemscore.Hbond>
1.9881

> <Gold.Chemscore.Metal>
0.0000

> <Gold.Chemscore.Lipo>
107.7074

> <Gold.Chemscore.Internal_Hbond>
0.0000

> <Gold.Chemscore.DEClash>
0.0671

> <Gold.Chemscore.DEInternal>
2.2531

> <Gold.Chemscore.Rot>
1.1731

> <Gold.Chemscore.Internal.Correction>
   9.000000E+99

> <Gold.Chemscore.Hbonds>
donor molecule, donor type, donor heavy atom, donor atom, acceptor molecule, acceptor atom, score
      L1  H    14    55       P1  8028  0.91
      L1  H    20    54       P1  7948  1.00

> <Gold.Chemscore.Hbond.Weighted>
-6.6403

> <Gold.Chemscore.Metal.Weighted>
-0.0000

> <Gold.Chemscore.Lipo.Weighted>
-12.6018

> <Gold.Chemscore.Internal_Hbond.Weighted>
0.0000

> <Gold.Chemscore.DEClash.Weighted>
0.0671

> <Gold.Chemscore.DEInternal.Weighted>
2.2531

> <Gold.Chemscore.Rot.Weighted>
3.0032

> <Gold.Chemscore.Internal.Correction.Weighted>
   9.000000E+99

> <Gold.Protein.RotatedTorsions>
[ 6907 6896 6895 6894 ] final   75.87 input  -60.11 | X-H torsion
[ 7974 7965 7964 7962 ] final  -40.51 input  175.53 | X-H torsion
[ 8008 7997 7996 7995 ] final  137.94 input   59.86 | X-H torsion
[ 10167 10162 10161 10158 ] final  121.10 input  -65.29 | X-H torsion
[ 10718 10713 10712 10709 ] final   37.88 input   66.30 | X-H torsion
[ 10763 10752 10751 10750 ] final  178.88 input  -60.55 | X-H torsion
[ 11005 11000 10999 10996 ] final   56.13 input  -57.11 | X-H torsion

> <Gold.Protein.ActiveResidues>
 VAL166  LYS551  ARG553  GLY616  TRP617  ASP618  TYR619  PRO620  LYS621  CYS622 
 ASP623  PHE694  ASN695  SER759  ASP760  ASP761  ALA762  ILE779  LEU786  VAL792 
 PHE793  MET794  SER795  GLU796  ALA797  LYS798  CYS799  TRP800  GLU811  SER814 

> <Gold.Protein.RotatedAtoms>
  152.5046  134.4056  159.9430 H   0  0  0  0  0  0  0  0  0  0  0  0  # atno 6907 bound_to 6896
  151.4021  133.3748  159.2741 H   0  0  0  0  0  0  0  0  0  0  0  0  # atno 6908 bound_to 6896
  150.9354  134.8788  159.7637 H   0  0  0  0  0  0  0  0  0  0  0  0  # atno 6909 bound_to 6896
  146.0297  140.6746  142.9138 H   0  0  0  0  0  0  0  0  0  0  0  0  # atno 7974 bound_to 7965
  156.3000  140.2406  156.3992 H   0  0  0  0  0  0  0  0  0  0  0  0  # atno 8008 bound_to 7997
  154.8543  140.0422  157.1644 H   0  0  0  0  0  0  0  0  0  0  0  0  # atno 8009 bound_to 7997
  154.8965  140.2971  155.5345 H   0  0  0  0  0  0  0  0  0  0  0  0  # atno 8010 bound_to 7997
  139.5940  144.7035  151.3220 H   0  0  0  0  0  0  0  0  0  0  0  0  # atno 10167 bound_to 10162
  157.3522  130.7604  149.6987 H   0  0  0  0  0  0  0  0  0  0  0  0  # atno 10718 bound_to 10713
  154.5134  135.2790  155.1323 H   0  0  0  0  0  0  0  0  0  0  0  0  # atno 10763 bound_to 10752
  154.2910  135.6267  153.5389 H   0  0  0  0  0  0  0  0  0  0  0  0  # atno 10764 bound_to 10752
  152.9923  135.5674  154.5605 H   0  0  0  0  0  0  0  0  0  0  0  0  # atno 10765 bound_to 10752
  140.0553  134.5679  155.9215 H   0  0  0  0  0  0  0  0  0  0  0  0  # atno 11005 bound_to 11000
  144.7025  140.3714  143.7144 LP  0  0  0  0  0  0  0  0  0  0  0  0  # atno 17320 bound_to 7965
  145.7060  139.1673  143.2566 LP  0  0  0  0  0  0  0  0  0  0  0  0  # atno 17321 bound_to 7965
  140.7197  143.7170  150.7725 LP  0  0  0  0  0  0  0  0  0  0  0  0  # atno 17342 bound_to 10162
  140.0732  143.5041  152.2569 LP  0  0  0  0  0  0  0  0  0  0  0  0  # atno 17343 bound_to 10162
  155.9723  130.4137  150.4096 LP  0  0  0  0  0  0  0  0  0  0  0  0  # atno 17370 bound_to 10713
  157.2161  131.0471  151.2572 LP  0  0  0  0  0  0  0  0  0  0  0  0  # atno 17371 bound_to 10713
  141.1949  133.6585  156.5618 LP  0  0  0  0  0  0  0  0  0  0  0  0  # atno 17394 bound_to 11000
  140.3853  134.7487  157.4687 LP  0  0  0  0  0  0  0  0  0  0  0  0  # atno 17395 bound_to 11000

$$$$
