AV-unprocessed.smi:2061|AV-procd|sdf|8389|dock4
  -GOLD-   2272011 73D 1   1.00000     0.00000
 Structure written by MMmdl.
 45 46  0  0  0  0  0  0  0  0  3 V2000
  150.5894  132.3303  155.5639 C   0  0  0  0  0  0  0  0  0  0  0  0
  150.7284  133.7278  156.0617 C   0  0  0  0  0  0  0  0  0  0  0  0
  150.9190  134.9252  155.4314 C   0  0  0  0  0  0  0  0  0  0  0  0
  150.9658  135.8510  156.5076 C   0  0  0  0  0  0  0  0  0  0  0  0
  151.1609  137.2362  156.2630 N   0  0  0  0  0  0  0  0  0  0  0  0
  151.5360  137.8452  155.1233 C   0  0  0  0  0  0  0  0  0  0  0  0
  151.7758  137.1799  154.1082 O   0  0  0  0  0  0  0  0  0  0  0  0
  151.5935  139.1991  155.2564 N   0  5  0  0  0  0  0  0  0  0  0  0
  152.2134  139.9028  156.3806 C   0  0  0  0  0  0  0  0  0  0  0  0
  151.1797  140.8019  157.1156 C   0  0  1  0  0  0  0  0  0  0  0  0
  150.0481  140.0151  157.8243 C   0  0  0  0  0  0  0  0  0  0  0  0
  151.8720  141.7693  158.0231 N   0  3  1  0  0  0  0  0  0  0  0  0
  151.0487  142.9563  158.3633 C   0  0  0  0  0  0  0  0  0  0  0  0
  151.8911  143.9902  159.1352 C   0  0  1  0  0  0  0  0  0  0  0  0
  151.0575  145.1953  159.5847 C   0  0  0  0  0  0  0  0  0  0  0  0
  152.4438  143.3776  160.2956 O   0  0  0  0  0  0  0  0  0  0  0  0
  153.3025  142.2854  159.9845 C   0  0  1  0  0  0  0  0  0  0  0  0
  153.9105  141.7676  161.2927 C   0  0  0  0  0  0  0  0  0  0  0  0
  152.4858  141.2033  159.2564 C   0  0  0  0  0  0  0  0  0  0  0  0
  150.8132  135.2697  157.6884 N   0  0  0  0  0  0  0  0  0  0  0  0
  150.6596  133.9067  157.4086 O   0  0  0  0  0  0  0  0  0  0  0  0
  150.7976  132.2748  154.4953 H   0  0  0  0  0  0  0  0  0  0  0  0
  149.5779  131.9604  155.7317 H   0  0  0  0  0  0  0  0  0  0  0  0
  151.2838  131.6658  156.0780 H   0  0  0  0  0  0  0  0  0  0  0  0
  151.0132  135.1074  154.3711 H   0  0  0  0  0  0  0  0  0  0  0  0
  150.9782  137.8470  157.0455 H   0  0  0  0  0  0  0  0  0  0  0  0
  152.6452  139.2022  157.0957 H   0  0  0  0  0  0  0  0  0  0  0  0
  153.0502  140.5217  156.0527 H   0  0  0  0  0  0  0  0  0  0  0  0
  150.7018  141.4022  156.3397 H   0  0  0  0  0  0  0  0  0  0  0  0
  149.4484  139.4417  157.1154 H   0  0  0  0  0  0  0  0  0  0  0  0
  149.3610  140.6927  158.3313 H   0  0  0  0  0  0  0  0  0  0  0  0
  150.4252  139.3138  158.5707 H   0  0  0  0  0  0  0  0  0  0  0  0
  150.6631  143.4161  157.4523 H   0  0  0  0  0  0  0  0  0  0  0  0
  150.1873  142.6468  158.9571 H   0  0  0  0  0  0  0  0  0  0  0  0
  152.7029  144.3486  158.4994 H   0  0  0  0  0  0  0  0  0  0  0  0
  150.6159  145.7085  158.7302 H   0  0  0  0  0  0  0  0  0  0  0  0
  151.6741  145.9159  160.1226 H   0  0  0  0  0  0  0  0  0  0  0  0
  150.2472  144.8904  160.2477 H   0  0  0  0  0  0  0  0  0  0  0  0
  154.1112  142.6339  159.3395 H   0  0  0  0  0  0  0  0  0  0  0  0
  154.5862  140.9320  161.1081 H   0  0  0  0  0  0  0  0  0  0  0  0
  153.1362  141.4259  161.9804 H   0  0  0  0  0  0  0  0  0  0  0  0
  154.4799  142.5504  161.7943 H   0  0  0  0  0  0  0  0  0  0  0  0
  151.7087  140.8264  159.9228 H   0  0  0  0  0  0  0  0  0  0  0  0
  153.1340  140.3617  159.0104 H   0  0  0  0  0  0  0  0  0  0  0  0
  152.6368  142.1296  157.4699 H   0  0  0  0  0  0  0  0  0  0  0  0
  1  2  1  0  0  0  0
  1 22  1  0  0  0  0
  1 23  1  0  0  0  0
  1 24  1  0  0  0  0
  2 21  1  0  0  0  0
  2  3  2  0  0  0  0
  3  4  1  0  0  0  0
  3 25  1  0  0  0  0
  4  5  1  0  0  0  0
  4 20  2  0  0  0  0
  5  6  1  0  0  0  0
  5 26  1  0  0  0  0
  6  7  2  0  0  0  0
  6  8  1  0  0  0  0
  8  9  1  0  0  0  0
  9 10  1  0  0  0  0
  9 27  1  0  0  0  0
  9 28  1  0  0  0  0
 10 11  1  0  0  0  0
 10 12  1  0  0  0  0
 10 29  1  0  0  0  0
 11 30  1  0  0  0  0
 11 31  1  0  0  0  0
 11 32  1  0  0  0  0
 12 19  1  0  0  0  0
 12 13  1  0  0  0  0
 12 45  1  0  0  0  0
 13 14  1  0  0  0  0
 13 33  1  0  0  0  0
 13 34  1  0  0  0  0
 14 15  1  0  0  0  0
 14 16  1  0  0  0  0
 14 35  1  0  0  0  0
 15 36  1  0  0  0  0
 15 37  1  0  0  0  0
 15 38  1  0  0  0  0
 16 17  1  0  0  0  0
 17 18  1  0  0  0  0
 17 19  1  0  0  0  0
 17 39  1  0  0  0  0
 18 40  1  0  0  0  0
 18 41  1  0  0  0  0
 18 42  1  0  0  0  0
 19 43  1  0  0  0  0
 19 44  1  0  0  0  0
 20 21  1  0  0  0  0
M  CHG  1   8  -1
M  CHG  1  12   1
M  END
> <s_m_source_file>
AV-unprocessed.smi

> <i_m_source_file_index>
2061

> <i_lp_mmshare_version>
43012

> <i_f3d_flags>
0

> <s_epik_input>
W0NIM11jMVtjSF1jKG5vMSlbTkhdQyg9TylbTkhdW0NIMl1bQ0BIXShbQ0gzXSlOMltDSDJdW0NAQEhdKFtDSDNdKU9bQ0BASF0oW0NIM10pW0NIMl0y

> <s_epik_cmdline>
J2VwaWtfcHl0aG9uJywgJy1waCcsICc3LjAnLCAnLXRuJywgJzgnLCAnLW1hJywgJzIwMCcsICctbWV0YWxfYmluZGluZycsICctaW1hZScsICc8aW5maWxlLm1hZT4nLCAnLW9tYWUnLCAnPG91dGZpbGUubWFlPic=

> <r_epik_Ionization_Penalty>
6.8073

> <r_epik_Ionization_Penalty_Charging>
6.80729

> <r_epik_Ionization_Penalty_Neutral>
5.65391e-06

> <r_epik_State_Penalty>
7.47323

> <r_epik_Charging_Adjusted_Penalty>
14.2805

> <i_epik_Tot_Q>
0

> <i_epik_Tot_abs_Q>
2

> <r_epik_Metal_State_Penalty>
3.40035

> <b_epik_Metal_Only>
1

> <s_lp_Force_Field>
OPLS_2005

> <r_lp_Energy>
16.6672

> <b_lp_Chiralities_Consistent>
1

> <s_lp_Variant>
AV-unprocessed.smi:2061-30

> <Gold.Version>
5.8.1

> <Gold.Id.Protein>
6NUR|6NUR_protein|mol2

> <Gold.PLP.Fitness>
41.1403

> <Gold.PLP.PLP>
-38.0121

> <Gold.PLP.part.hbond>
-3.0000

> <Gold.PLP.part.metal>
0.0000

> <Gold.PLP.part.buried>
-6.3379

> <Gold.PLP.part.nonpolar>
-30.0803

> <Gold.PLP.part.repulsive>
1.2667

> <Gold.PLP.ligand.clash>
0.0000

> <Gold.PLP.ligand.torsion>
0.6539

> <Gold.PLP.Chemscore.Hbond>
1.4262

> <Gold.PLP.Chemscore.CHOScore>
0.0000

> <Gold.PLP.Chemscore.Metal>
0.0000

> <Gold.Chemscore.Hbonds>
donor molecule, donor type, donor heavy atom, donor atom, acceptor molecule, acceptor atom, score
      P1  H  6896  6908       L1    21  0.26
      P1  H  6896  6909       L1    20  0.07
      P1  H  7989  7998       L1     8  0.03
      P1  H 10752 10765       L1     7  1.00

> <Gold.PLP.Chemscore.Internal.Correction>
0.1574

> <Gold.Rescore>
     Score         DG    S(hbond)    S(metal)    S(lipo)     H(rot)  DE(clash)    DE(int)     intcor
     14.09     -16.10       1.13        0.00      92.50       1.56       0.08       1.93       ----

> <Gold.Chemscore.Fitness>
14.0867

> <Gold.Chemscore.DG>
-16.0996

> <Gold.Chemscore.ZeroCoef>
-5.4800

> <Gold.Chemscore.Hbond>
1.1311

> <Gold.Chemscore.Metal>
0.0000

> <Gold.Chemscore.Lipo>
92.5014

> <Gold.Chemscore.Internal_Hbond>
0.0000

> <Gold.Chemscore.DEClash>
0.0839

> <Gold.Chemscore.DEInternal>
1.9289

> <Gold.Chemscore.Rot>
1.5550

> <Gold.Chemscore.Internal.Correction>
   9.000000E+99

> <Gold.Chemscore.Hbonds>
donor molecule, donor type, donor heavy atom, donor atom, acceptor molecule, acceptor atom, score
      P1  H  6896  6908       L1    21  0.01
      P1  H  6896  6909       L1    20  0.01
      P1  H  7989  7998       L1     8  0.03
      P1  H 10752 10765       L1     7  0.95

> <Gold.Chemscore.Hbond.Weighted>
-3.7778

> <Gold.Chemscore.Metal.Weighted>
-0.0000

> <Gold.Chemscore.Lipo.Weighted>
-10.8227

> <Gold.Chemscore.Internal_Hbond.Weighted>
0.0000

> <Gold.Chemscore.DEClash.Weighted>
0.0839

> <Gold.Chemscore.DEInternal.Weighted>
1.9289

> <Gold.Chemscore.Rot.Weighted>
3.9809

> <Gold.Chemscore.Internal.Correction.Weighted>
   9.000000E+99

> <Gold.Protein.RotatedTorsions>
[ 6907 6896 6895 6894 ] final   88.41 input  -60.11 | X-H torsion
[ 7974 7965 7964 7962 ] final  -93.04 input  175.53 | X-H torsion
[ 8008 7997 7996 7995 ] final  -76.69 input   59.86 | X-H torsion
[ 10167 10162 10161 10158 ] final  -69.96 input  -65.29 | X-H torsion
[ 10718 10713 10712 10709 ] final   74.86 input   66.30 | X-H torsion
[ 10763 10752 10751 10750 ] final  142.95 input  -60.55 | X-H torsion
[ 11005 11000 10999 10996 ] final  103.46 input  -57.11 | X-H torsion

> <Gold.Protein.ActiveResidues>
 VAL166  LYS551  ARG553  GLY616  TRP617  ASP618  TYR619  PRO620  LYS621  CYS622 
 ASP623  PHE694  ASN695  SER759  ASP760  ASP761  ALA762  ILE779  LEU786  VAL792 
 PHE793  MET794  SER795  GLU796  ALA797  LYS798  CYS799  TRP800  GLU811  SER814 

> <Gold.Protein.RotatedAtoms>
  152.5424  134.2125  159.8755 H   0  0  0  0  0  0  0  0  0  0  0  0  # atno 6907 bound_to 6896
  151.2107  133.4551  159.2605 H   0  0  0  0  0  0  0  0  0  0  0  0  # atno 6908 bound_to 6896
  151.0899  134.9923  159.8453 H   0  0  0  0  0  0  0  0  0  0  0  0  # atno 6909 bound_to 6896
  145.3918  140.9529  143.2336 H   0  0  0  0  0  0  0  0  0  0  0  0  # atno 7974 bound_to 7965
  154.5528  140.0723  156.8695 H   0  0  0  0  0  0  0  0  0  0  0  0  # atno 8008 bound_to 7997
  155.2960  140.3381  155.4232 H   0  0  0  0  0  0  0  0  0  0  0  0  # atno 8009 bound_to 7997
  156.1976  140.1709  156.7952 H   0  0  0  0  0  0  0  0  0  0  0  0  # atno 8010 bound_to 7997
  140.5389  143.2316  151.7125 H   0  0  0  0  0  0  0  0  0  0  0  0  # atno 10167 bound_to 10162
  157.6610  130.9698  150.1270 H   0  0  0  0  0  0  0  0  0  0  0  0  # atno 10718 bound_to 10713
  153.9643  135.2957  155.3431 H   0  0  0  0  0  0  0  0  0  0  0  0  # atno 10763 bound_to 10752
  154.7357  135.5047  153.9041 H   0  0  0  0  0  0  0  0  0  0  0  0  # atno 10764 bound_to 10752
  153.0931  135.6713  153.9926 H   0  0  0  0  0  0  0  0  0  0  0  0  # atno 10765 bound_to 10752
  139.8784  134.9264  156.5213 H   0  0  0  0  0  0  0  0  0  0  0  0  # atno 11005 bound_to 11000
  144.8435  139.5434  143.6889 LP  0  0  0  0  0  0  0  0  0  0  0  0  # atno 17320 bound_to 7965
  146.2794  139.6837  142.9240 LP  0  0  0  0  0  0  0  0  0  0  0  0  # atno 17321 bound_to 7965
  139.4981  144.3999  152.0192 LP  0  0  0  0  0  0  0  0  0  0  0  0  # atno 17342 bound_to 10162
  140.3106  144.3542  150.6035 LP  0  0  0  0  0  0  0  0  0  0  0  0  # atno 17343 bound_to 10162
  156.2127  130.3668  149.8651 LP  0  0  0  0  0  0  0  0  0  0  0  0  # atno 17370 bound_to 10713
  156.6525  130.8749  151.3534 LP  0  0  0  0  0  0  0  0  0  0  0  0  # atno 17371 bound_to 10713
  140.8448  133.8177  155.9111 LP  0  0  0  0  0  0  0  0  0  0  0  0  # atno 17394 bound_to 11000
  140.9202  134.2151  157.4931 LP  0  0  0  0  0  0  0  0  0  0  0  0  # atno 17395 bound_to 11000

$$$$
