AV-unprocessed.smi:2374|AV-procd|sdf|9441|dock6
  -GOLD-   2272013 73D 1   1.00000     0.00000
 Structure written by MMmdl.
 38 39  0  0  0  0  0  0  0  0  1 V2000
  151.2964  131.1812  155.5276 C   0  0  0  0  0  0  0  0  0  0  0  0
  150.6253  132.4927  155.8203 C   0  0  0  0  0  0  0  0  0  0  0  0
  150.6588  132.9806  157.0489 N   0  0  0  0  0  0  0  0  0  0  0  0
  149.9498  134.1849  157.0027 O   0  0  0  0  0  0  0  0  0  0  0  0
  149.5090  134.3751  155.7332 C   0  0  0  0  0  0  0  0  0  0  0  0
  148.7166  135.6116  155.4742 C   0  0  0  0  0  0  0  0  0  0  0  0
  149.9031  133.3403  154.9308 C   0  0  0  0  0  0  0  0  0  0  0  0
  149.6316  133.1387  153.4624 C   0  0  0  0  0  0  0  0  0  0  0  0
  148.1407  132.8787  153.2537 C   0  0  0  0  0  0  0  0  0  0  0  0
  147.6183  131.8751  153.7368 O   0  0  0  0  0  0  0  0  0  0  0  0
  147.4777  133.7848  152.5161 N   0  0  0  0  0  0  0  0  0  0  0  0
  146.0686  133.7419  152.1223 C   0  0  0  0  0  0  0  0  0  0  0  0
  145.1892  134.0762  153.2607 C   0  0  0  0  0  0  0  0  0  0  0  0
  144.5006  134.3392  154.1529 N   0  0  0  0  0  0  0  0  0  0  0  0
  145.8785  134.7897  151.0020 C   0  0  0  0  0  0  0  0  0  0  0  0
  144.4654  134.7514  150.3953 C   0  0  0  0  0  0  0  0  0  0  0  0
  144.1339  133.3506  149.8618 C   0  0  0  0  0  0  0  0  0  0  0  0
  144.3117  132.2846  150.9522 C   0  0  0  0  0  0  0  0  0  0  0  0
  145.7243  132.3400  151.5586 C   0  0  0  0  0  0  0  0  0  0  0  0
  150.5743  130.3646  155.5382 H   0  0  0  0  0  0  0  0  0  0  0  0
  152.0686  130.9517  156.2628 H   0  0  0  0  0  0  0  0  0  0  0  0
  151.7707  131.1928  154.5462 H   0  0  0  0  0  0  0  0  0  0  0  0
  148.4612  136.1186  156.4050 H   0  0  0  0  0  0  0  0  0  0  0  0
  147.7883  135.3721  154.9551 H   0  0  0  0  0  0  0  0  0  0  0  0
  149.2813  136.3072  154.8533 H   0  0  0  0  0  0  0  0  0  0  0  0
  149.9212  134.0147  152.8806 H   0  0  0  0  0  0  0  0  0  0  0  0
  150.2086  132.3060  153.0587 H   0  0  0  0  0  0  0  0  0  0  0  0
  148.0071  134.5733  152.1742 H   0  0  0  0  0  0  0  0  0  0  0  0
  146.0801  135.7900  151.3881 H   0  0  0  0  0  0  0  0  0  0  0  0
  146.6075  134.6181  150.2079 H   0  0  0  0  0  0  0  0  0  0  0  0
  143.7298  135.0432  151.1455 H   0  0  0  0  0  0  0  0  0  0  0  0
  144.3881  135.4821  149.5897 H   0  0  0  0  0  0  0  0  0  0  0  0
  143.1119  133.3285  149.4824 H   0  0  0  0  0  0  0  0  0  0  0  0
  144.7830  133.1188  149.0165 H   0  0  0  0  0  0  0  0  0  0  0  0
  143.5667  132.4321  151.7350 H   0  0  0  0  0  0  0  0  0  0  0  0
  144.1265  131.2943  150.5353 H   0  0  0  0  0  0  0  0  0  0  0  0
  146.4506  132.0627  150.7929 H   0  0  0  0  0  0  0  0  0  0  0  0
  145.8043  131.5838  152.3400 H   0  0  0  0  0  0  0  0  0  0  0  0
  1  2  1  0  0  0  0
  1 20  1  0  0  0  0
  1 21  1  0  0  0  0
  1 22  1  0  0  0  0
  2  7  1  0  0  0  0
  2  3  2  0  0  0  0
  3  4  1  0  0  0  0
  4  5  1  0  0  0  0
  5  6  1  0  0  0  0
  5  7  2  0  0  0  0
  6 23  1  0  0  0  0
  6 24  1  0  0  0  0
  6 25  1  0  0  0  0
  7  8  1  0  0  0  0
  8  9  1  0  0  0  0
  8 26  1  0  0  0  0
  8 27  1  0  0  0  0
  9 10  2  0  0  0  0
  9 11  1  0  0  0  0
 11 12  1  0  0  0  0
 11 28  1  0  0  0  0
 12 19  1  0  0  0  0
 12 13  1  0  0  0  0
 12 15  1  0  0  0  0
 13 14  3  0  0  0  0
 15 16  1  0  0  0  0
 15 29  1  0  0  0  0
 15 30  1  0  0  0  0
 16 17  1  0  0  0  0
 16 31  1  0  0  0  0
 16 32  1  0  0  0  0
 17 18  1  0  0  0  0
 17 33  1  0  0  0  0
 17 34  1  0  0  0  0
 18 19  1  0  0  0  0
 18 35  1  0  0  0  0
 18 36  1  0  0  0  0
 19 37  1  0  0  0  0
 19 38  1  0  0  0  0
M  END
> <s_m_source_file>
AV-unprocessed.smi

> <i_m_source_file_index>
2374

> <i_lp_mmshare_version>
43012

> <i_f3d_flags>
0

> <s_epik_input>
W0NIM11jMW5vYyhbQ0gzXSljMVtDSDJdQyg9TylbTkhdQzIoQyNOKVtDSDJdW0NIMl1bQ0gyXVtDSDJdW0NIMl0y

> <s_epik_cmdline>
J2VwaWtfcHl0aG9uJywgJy1waCcsICc3LjAnLCAnLXRuJywgJzgnLCAnLW1hJywgJzIwMCcsICctbWV0YWxfYmluZGluZycsICctaW1hZScsICc8aW5maWxlLm1hZT4nLCAnLW9tYWUnLCAnPG91dGZpbGUubWFlPic=

> <r_lp_tautomer_probability>
1

> <r_epik_Ionization_Penalty>
5.32351e-07

> <r_epik_Ionization_Penalty_Charging>
0

> <r_epik_Ionization_Penalty_Neutral>
5.32351e-07

> <r_epik_State_Penalty>
-0

> <r_epik_Charging_Adjusted_Penalty>
0

> <i_epik_Tot_Q>
0

> <i_epik_Tot_abs_Q>
0

> <r_epik_Metal_State_Penalty>
-0

> <b_epik_Metal_Only>
0

> <s_lp_Force_Field>
OPLS_2005

> <r_lp_Energy>
1.24433

> <b_lp_Chiralities_Consistent>
1

> <s_lp_Variant>
AV-unprocessed.smi:2374-1

> <Gold.Version>
5.8.1

> <Gold.Id.Protein>
6NUR|6NUR_protein|mol2

> <Gold.PLP.Fitness>
35.7161

> <Gold.PLP.PLP>
-30.3721

> <Gold.PLP.part.hbond>
-2.1043

> <Gold.PLP.part.metal>
0.0000

> <Gold.PLP.part.buried>
-5.1731

> <Gold.PLP.part.nonpolar>
-23.6693

> <Gold.PLP.part.repulsive>
0.1435

> <Gold.PLP.ligand.clash>
0.0000

> <Gold.PLP.ligand.torsion>
0.3186

> <Gold.PLP.Chemscore.Hbond>
1.9920

> <Gold.PLP.Chemscore.CHOScore>
0.0000

> <Gold.PLP.Chemscore.Metal>
0.0000

> <Gold.Chemscore.Hbonds>
donor molecule, donor type, donor heavy atom, donor atom, acceptor molecule, acceptor atom, score
      L1  H    11    28       P1  7948  1.00
      P1  H  6896  6907       L1     3  0.09

> <Gold.PLP.Chemscore.Internal.Correction>
0.0053

> <Gold.Rescore>
     Score         DG    S(hbond)    S(metal)    S(lipo)     H(rot)  DE(clash)    DE(int)     intcor
     11.95     -13.35       1.10        0.00      66.50       1.40       0.07       1.34       ----

> <Gold.Chemscore.Fitness>
11.9466

> <Gold.Chemscore.DG>
-13.3494

> <Gold.Chemscore.ZeroCoef>
-5.4800

> <Gold.Chemscore.Hbond>
1.1005

> <Gold.Chemscore.Metal>
0.0000

> <Gold.Chemscore.Lipo>
66.4951

> <Gold.Chemscore.Internal_Hbond>
0.0000

> <Gold.Chemscore.DEClash>
0.0659

> <Gold.Chemscore.DEInternal>
1.3368

> <Gold.Chemscore.Rot>
1.4009

> <Gold.Chemscore.Internal.Correction>
   9.000000E+99

> <Gold.Chemscore.Hbonds>
donor molecule, donor type, donor heavy atom, donor atom, acceptor molecule, acceptor atom, score
      L1  H    11    28       P1  7948  0.30

> <Gold.Chemscore.Hbond.Weighted>
-3.6758

> <Gold.Chemscore.Metal.Weighted>
-0.0000

> <Gold.Chemscore.Lipo.Weighted>
-7.7799

> <Gold.Chemscore.Internal_Hbond.Weighted>
0.0000

> <Gold.Chemscore.DEClash.Weighted>
0.0659

> <Gold.Chemscore.DEInternal.Weighted>
1.3368

> <Gold.Chemscore.Rot.Weighted>
3.5863

> <Gold.Chemscore.Internal.Correction.Weighted>
   9.000000E+99

> <Gold.Protein.RotatedTorsions>
[ 6907 6896 6895 6894 ] final -139.34 input  -60.11 | X-H torsion
[ 7974 7965 7964 7962 ] final -155.24 input  175.53 | X-H torsion
[ 8008 7997 7996 7995 ] final  116.99 input   59.86 | X-H torsion
[ 10167 10162 10161 10158 ] final   48.11 input  -65.29 | X-H torsion
[ 10718 10713 10712 10709 ] final  -61.81 input   66.30 | X-H torsion
[ 10763 10752 10751 10750 ] final  -16.19 input  -60.55 | X-H torsion
[ 11005 11000 10999 10996 ] final  134.95 input  -57.11 | X-H torsion

> <Gold.Protein.ActiveResidues>
 VAL166  LYS551  ARG553  GLY616  TRP617  ASP618  TYR619  PRO620  LYS621  CYS622 
 ASP623  PHE694  ASN695  SER759  ASP760  ASP761  ALA762  ILE779  LEU786  VAL792 
 PHE793  MET794  SER795  GLU796  ALA797  LYS798  CYS799  TRP800  GLU811  SER814 

> <Gold.Protein.RotatedAtoms>
  151.0466  133.5660  159.2645 H   0  0  0  0  0  0  0  0  0  0  0  0  # atno 6907 bound_to 6896
  151.2687  135.0676  159.9135 H   0  0  0  0  0  0  0  0  0  0  0  0  # atno 6908 bound_to 6896
  152.5374  134.0200  159.8031 H   0  0  0  0  0  0  0  0  0  0  0  0  # atno 6909 bound_to 6896
  144.7649  140.4276  143.5949 H   0  0  0  0  0  0  0  0  0  0  0  0  # atno 7974 bound_to 7965
  156.2469  140.2906  156.0608 H   0  0  0  0  0  0  0  0  0  0  0  0  # atno 8008 bound_to 7997
  155.1778  140.0403  157.2893 H   0  0  0  0  0  0  0  0  0  0  0  0  # atno 8009 bound_to 7997
  154.6281  140.2492  155.7474 H   0  0  0  0  0  0  0  0  0  0  0  0  # atno 8010 bound_to 7997
  140.2967  144.2982  150.6228 H   0  0  0  0  0  0  0  0  0  0  0  0  # atno 10167 bound_to 10162
  156.0897  130.4202  150.1046 H   0  0  0  0  0  0  0  0  0  0  0  0  # atno 10718 bound_to 10713
  153.5548  135.7011  153.5574 H   0  0  0  0  0  0  0  0  0  0  0  0  # atno 10763 bound_to 10752
  153.3482  135.4002  155.1625 H   0  0  0  0  0  0  0  0  0  0  0  0  # atno 10764 bound_to 10752
  154.8656  135.3759  154.5062 H   0  0  0  0  0  0  0  0  0  0  0  0  # atno 10765 bound_to 10752
  139.9948  134.9501  156.9938 H   0  0  0  0  0  0  0  0  0  0  0  0  # atno 11005 bound_to 11000
  145.6500  139.1563  143.2867 LP  0  0  0  0  0  0  0  0  0  0  0  0  # atno 17320 bound_to 7965
  146.1748  140.6590  142.9216 LP  0  0  0  0  0  0  0  0  0  0  0  0  # atno 17321 bound_to 7965
  140.5686  143.2183  151.7639 LP  0  0  0  0  0  0  0  0  0  0  0  0  # atno 17342 bound_to 10162
  139.4925  144.4249  151.9937 LP  0  0  0  0  0  0  0  0  0  0  0  0  # atno 17343 bound_to 10162
  156.9059  130.9636  151.3570 LP  0  0  0  0  0  0  0  0  0  0  0  0  # atno 17370 bound_to 10713
  157.6042  130.8535  149.8849 LP  0  0  0  0  0  0  0  0  0  0  0  0  # atno 17371 bound_to 10713
  140.4840  134.1261  155.7221 LP  0  0  0  0  0  0  0  0  0  0  0  0  # atno 17394 bound_to 11000
  141.1595  133.8819  157.1886 LP  0  0  0  0  0  0  0  0  0  0  0  0  # atno 17395 bound_to 11000

$$$$
