AV-unprocessed.smi:1430|AV-procd|sdf|5825|dock5
  -GOLD-   22720 5483D 1   1.00000     0.00000
 Structure written by MMmdl.
 47 48  0  0  0  0  0  0  0  0  2 V2000
  152.3167  141.1077  159.2916 C   0  0  0  0  0  0  0  0  0  0  0  0
  152.8898  140.7069  158.0519 O   0  0  0  0  0  0  0  0  0  0  0  0
  152.0448  140.2950  157.0419 C   0  0  0  0  0  0  0  0  0  0  0  0
  150.6709  140.5884  157.1505 C   0  0  0  0  0  0  0  0  0  0  0  0
  149.8014  140.1720  156.1242 C   0  0  0  0  0  0  0  0  0  0  0  0
  150.3374  139.4777  155.0130 C   0  0  0  0  0  0  0  0  0  0  0  0
  149.5679  138.9861  153.9238 N   0  0  0  0  0  0  0  0  0  0  0  0
  148.2554  139.1446  153.6833 C   0  0  0  0  0  0  0  0  0  0  0  0
  147.4792  139.8112  154.3663 O   0  0  0  0  0  0  0  0  0  0  0  0
  147.8815  138.4802  152.5804 N   0  0  0  0  0  0  0  0  0  0  0  0
  146.5264  138.4476  152.0336 C   0  0  0  0  0  0  0  0  0  0  0  0
  145.6327  137.3593  152.6691 C   0  0  0  0  0  0  0  0  0  0  0  0
  146.0693  135.9779  152.3440 N   0  3  1  0  0  0  0  0  0  0  0  0
  146.3161  135.1577  153.5524 C   0  0  0  0  0  0  0  0  0  0  0  0
  146.8427  133.7652  153.1569 C   0  0  1  0  0  0  0  0  0  0  0  0
  147.0397  132.8546  154.3736 C   0  0  0  0  0  0  0  0  0  0  0  0
  145.9056  133.1451  152.2825 O   0  0  0  0  0  0  0  0  0  0  0  0
  145.7144  133.8754  151.0752 C   0  0  1  0  0  0  0  0  0  0  0  0
  144.7641  133.0762  150.1768 C   0  0  0  0  0  0  0  0  0  0  0  0
  145.1571  135.2707  151.4140 C   0  0  0  0  0  0  0  0  0  0  0  0
  151.7247  139.2235  155.0066 C   0  0  0  0  0  0  0  0  0  0  0  0
  152.5632  139.6197  155.9866 N   0  0  0  0  0  0  0  0  0  0  0  0
  153.1114  141.3972  159.9790 H   0  0  0  0  0  0  0  0  0  0  0  0
  151.7593  140.2924  159.7552 H   0  0  0  0  0  0  0  0  0  0  0  0
  151.6569  141.9674  159.1676 H   0  0  0  0  0  0  0  0  0  0  0  0
  150.2891  141.1204  158.0094 H   0  0  0  0  0  0  0  0  0  0  0  0
  148.7476  140.3806  156.2207 H   0  0  0  0  0  0  0  0  0  0  0  0
  150.0903  138.4805  153.2233 H   0  0  0  0  0  0  0  0  0  0  0  0
  148.5895  137.9713  152.0712 H   0  0  0  0  0  0  0  0  0  0  0  0
  146.0603  139.4276  152.1454 H   0  0  0  0  0  0  0  0  0  0  0  0
  146.6103  138.2765  150.9604 H   0  0  0  0  0  0  0  0  0  0  0  0
  145.6626  137.4865  153.7519 H   0  0  0  0  0  0  0  0  0  0  0  0
  144.5909  137.5029  152.3791 H   0  0  0  0  0  0  0  0  0  0  0  0
  147.0443  135.6575  154.1927 H   0  0  0  0  0  0  0  0  0  0  0  0
  145.3920  135.0666  154.1258 H   0  0  0  0  0  0  0  0  0  0  0  0
  147.7999  133.8670  152.6423 H   0  0  0  0  0  0  0  0  0  0  0  0
  147.7595  133.2826  155.0717 H   0  0  0  0  0  0  0  0  0  0  0  0
  147.4127  131.8757  154.0714 H   0  0  0  0  0  0  0  0  0  0  0  0
  146.1026  132.7026  154.9099 H   0  0  0  0  0  0  0  0  0  0  0  0
  146.6722  133.9774  150.5618 H   0  0  0  0  0  0  0  0  0  0  0  0
  144.5888  133.5922  149.2325 H   0  0  0  0  0  0  0  0  0  0  0  0
  143.7982  132.9246  150.6595 H   0  0  0  0  0  0  0  0  0  0  0  0
  145.1784  132.0944  149.9460 H   0  0  0  0  0  0  0  0  0  0  0  0
  144.1690  135.1831  151.8689 H   0  0  0  0  0  0  0  0  0  0  0  0
  145.0380  135.8466  150.4963 H   0  0  0  0  0  0  0  0  0  0  0  0
  152.1796  138.6863  154.1870 H   0  0  0  0  0  0  0  0  0  0  0  0
  146.9603  136.0641  151.8761 H   0  0  0  0  0  0  0  0  0  0  0  0
  1  2  1  0  0  0  0
  1 23  1  0  0  0  0
  1 24  1  0  0  0  0
  1 25  1  0  0  0  0
  2  3  1  0  0  0  0
  3 22  1  0  0  0  0
  3  4  2  0  0  0  0
  4  5  1  0  0  0  0
  4 26  1  0  0  0  0
  5  6  2  0  0  0  0
  5 27  1  0  0  0  0
  6  7  1  0  0  0  0
  6 21  1  0  0  0  0
  7  8  1  0  0  0  0
  7 28  1  0  0  0  0
  8  9  2  0  0  0  0
  8 10  1  0  0  0  0
 10 11  1  0  0  0  0
 10 29  1  0  0  0  0
 11 12  1  0  0  0  0
 11 30  1  0  0  0  0
 11 31  1  0  0  0  0
 12 13  1  0  0  0  0
 12 32  1  0  0  0  0
 12 33  1  0  0  0  0
 13 20  1  0  0  0  0
 13 14  1  0  0  0  0
 13 47  1  0  0  0  0
 14 15  1  0  0  0  0
 14 34  1  0  0  0  0
 14 35  1  0  0  0  0
 15 16  1  0  0  0  0
 15 17  1  0  0  0  0
 15 36  1  0  0  0  0
 16 37  1  0  0  0  0
 16 38  1  0  0  0  0
 16 39  1  0  0  0  0
 17 18  1  0  0  0  0
 18 19  1  0  0  0  0
 18 20  1  0  0  0  0
 18 40  1  0  0  0  0
 19 41  1  0  0  0  0
 19 42  1  0  0  0  0
 19 43  1  0  0  0  0
 20 44  1  0  0  0  0
 20 45  1  0  0  0  0
 21 22  2  0  0  0  0
 21 46  1  0  0  0  0
M  CHG  1  13   1
M  END
> <s_m_source_file>
AV-unprocessed.smi

> <i_m_source_file_index>
1430

> <i_lp_mmshare_version>
43012

> <i_f3d_flags>
0

> <s_epik_input>
W0NIM11PYzFbY0hdW2NIXWMoW2NIXW4xKVtOSF1DKD1PKVtOSF1bQ0gyXVtDSDJdTjJbQ0gyXVtDQEBIXShbQ0gzXSlPW0NAQEhdKFtDSDNdKVtDSDJdMg==

> <s_epik_cmdline>
J2VwaWtfcHl0aG9uJywgJy1waCcsICc3LjAnLCAnLXRuJywgJzgnLCAnLW1hJywgJzIwMCcsICctbWV0YWxfYmluZGluZycsICctaW1hZScsICc8aW5maWxlLm1hZT4nLCAnLW9tYWUnLCAnPG91dGZpbGUubWFlPic=

> <r_lp_tautomer_probability>
1

> <r_epik_Ionization_Penalty>
0.602607

> <r_epik_Ionization_Penalty_Charging>
0.602531

> <r_epik_Ionization_Penalty_Neutral>
7.66983e-05

> <r_epik_State_Penalty>
0.617039

> <r_epik_Charging_Adjusted_Penalty>
1.21957

> <i_epik_Tot_Q>
1

> <i_epik_Tot_abs_Q>
1

> <r_epik_Metal_State_Penalty>
0.617043

> <b_epik_Metal_Only>
0

> <s_lp_Force_Field>
OPLS_2005

> <r_lp_Energy>
23.5338

> <b_lp_Chiralities_Consistent>
1

> <s_lp_Variant>
AV-unprocessed.smi:1430-4

> <Gold.Version>
5.8.1

> <Gold.Id.Protein>
6NUR|6NUR_protein|mol2

> <Gold.PLP.Fitness>
43.8513

> <Gold.PLP.PLP>
-34.9564

> <Gold.PLP.part.hbond>
-6.0000

> <Gold.PLP.part.metal>
0.0000

> <Gold.PLP.part.buried>
-1.9308

> <Gold.PLP.part.nonpolar>
-28.0036

> <Gold.PLP.part.repulsive>
0.4102

> <Gold.PLP.ligand.clash>
0.0000

> <Gold.PLP.ligand.torsion>
1.1049

> <Gold.PLP.Chemscore.Hbond>
3.6880

> <Gold.PLP.Chemscore.CHOScore>
0.0000

> <Gold.PLP.Chemscore.Metal>
0.0000

> <Gold.Chemscore.Hbonds>
donor molecule, donor type, donor heavy atom, donor atom, acceptor molecule, acceptor atom, score
      L1  H    10    29       P1  7948  0.72
      L1  H    13    47       P1  7948  2.00
      P1  H  7997  8009       L1    22  1.00

> <Gold.PLP.Chemscore.Internal.Correction>
0.0407

> <Gold.Rescore>
     Score         DG    S(hbond)    S(metal)    S(lipo)     H(rot)  DE(clash)    DE(int)     intcor
     15.43     -17.74       2.61        0.00      68.70       1.76       0.02       2.30       ----

> <Gold.Chemscore.Fitness>
15.4269

> <Gold.Chemscore.DG>
-17.7423

> <Gold.Chemscore.ZeroCoef>
-5.4800

> <Gold.Chemscore.Hbond>
2.6143

> <Gold.Chemscore.Metal>
0.0000

> <Gold.Chemscore.Lipo>
68.6988

> <Gold.Chemscore.Internal_Hbond>
0.0000

> <Gold.Chemscore.DEClash>
0.0202

> <Gold.Chemscore.DEInternal>
2.2951

> <Gold.Chemscore.Rot>
1.7606

> <Gold.Chemscore.Internal.Correction>
   9.000000E+99

> <Gold.Chemscore.Hbonds>
donor molecule, donor type, donor heavy atom, donor atom, acceptor molecule, acceptor atom, score
      L1  H    10    29       P1  7948  0.72
      L1  H    13    47       P1  7948  0.95
      P1  H  7997  8009       L1    22  0.34

> <Gold.Chemscore.Hbond.Weighted>
-8.7317

> <Gold.Chemscore.Metal.Weighted>
-0.0000

> <Gold.Chemscore.Lipo.Weighted>
-8.0378

> <Gold.Chemscore.Internal_Hbond.Weighted>
0.0000

> <Gold.Chemscore.DEClash.Weighted>
0.0202

> <Gold.Chemscore.DEInternal.Weighted>
2.2951

> <Gold.Chemscore.Rot.Weighted>
4.5072

> <Gold.Chemscore.Internal.Correction.Weighted>
   9.000000E+99

> <Gold.Protein.RotatedTorsions>
[ 6907 6896 6895 6894 ] final   83.23 input  -60.11 | X-H torsion
[ 7974 7965 7964 7962 ] final   33.43 input  175.53 | X-H torsion
[ 8008 7997 7996 7995 ] final -143.59 input   59.86 | X-H torsion
[ 10167 10162 10161 10158 ] final   61.36 input  -65.29 | X-H torsion
[ 10718 10713 10712 10709 ] final  -60.67 input   66.30 | X-H torsion
[ 10763 10752 10751 10750 ] final -139.94 input  -60.55 | X-H torsion
[ 11005 11000 10999 10996 ] final -107.77 input  -57.11 | X-H torsion

> <Gold.Protein.ActiveResidues>
 VAL166  LYS551  ARG553  GLY616  TRP617  ASP618  TYR619  PRO620  LYS621  CYS622 
 ASP623  PHE694  ASN695  SER759  ASP760  ASP761  ALA762  ILE779  LEU786  VAL792 
 PHE793  MET794  SER795  GLU796  ALA797  LYS798  CYS799  TRP800  GLU811  SER814 

> <Gold.Protein.RotatedAtoms>
  152.5321  134.2927  159.9048 H   0  0  0  0  0  0  0  0  0  0  0  0  # atno 6907 bound_to 6896
  151.2879  133.4172  159.2639 H   0  0  0  0  0  0  0  0  0  0  0  0  # atno 6908 bound_to 6896
  151.0226  134.9496  159.8125 H   0  0  0  0  0  0  0  0  0  0  0  0  # atno 6909 bound_to 6896
  146.1421  139.6398  142.9156 H   0  0  0  0  0  0  0  0  0  0  0  0  # atno 7974 bound_to 7965
  155.5131  140.0585  157.2920 H   0  0  0  0  0  0  0  0  0  0  0  0  # atno 8008 bound_to 7997
  154.4544  140.1965  156.0369 H   0  0  0  0  0  0  0  0  0  0  0  0  # atno 8009 bound_to 7997
  156.0770  140.3252  155.7651 H   0  0  0  0  0  0  0  0  0  0  0  0  # atno 8010 bound_to 7997
  140.1556  144.4421  150.6736 H   0  0  0  0  0  0  0  0  0  0  0  0  # atno 10167 bound_to 10162
  156.0975  130.4191  150.0886 H   0  0  0  0  0  0  0  0  0  0  0  0  # atno 10718 bound_to 10713
  154.8594  135.3568  154.5627 H   0  0  0  0  0  0  0  0  0  0  0  0  # atno 10763 bound_to 10752
  153.6241  135.7005  153.5304 H   0  0  0  0  0  0  0  0  0  0  0  0  # atno 10764 bound_to 10752
  153.3104  135.4180  155.1290 H   0  0  0  0  0  0  0  0  0  0  0  0  # atno 10765 bound_to 10752
  141.0937  133.9010  157.2015 H   0  0  0  0  0  0  0  0  0  0  0  0  # atno 11005 bound_to 11000
  145.5023  141.0437  143.2534 LP  0  0  0  0  0  0  0  0  0  0  0  0  # atno 17320 bound_to 7965
  144.7804  139.6538  143.7157 LP  0  0  0  0  0  0  0  0  0  0  0  0  # atno 17321 bound_to 7965
  140.6675  143.2273  151.5706 LP  0  0  0  0  0  0  0  0  0  0  0  0  # atno 17342 bound_to 10162
  139.5405  144.2660  152.1341 LP  0  0  0  0  0  0  0  0  0  0  0  0  # atno 17343 bound_to 10162
  156.8882  130.9579  151.3591 LP  0  0  0  0  0  0  0  0  0  0  0  0  # atno 17370 bound_to 10713
  157.6138  130.8603  149.8995 LP  0  0  0  0  0  0  0  0  0  0  0  0  # atno 17371 bound_to 10713
  139.9768  135.0111  156.9651 LP  0  0  0  0  0  0  0  0  0  0  0  0  # atno 17394 bound_to 11000
  140.5192  134.0924  155.7288 LP  0  0  0  0  0  0  0  0  0  0  0  0  # atno 17395 bound_to 11000

$$$$
