AV-unprocessed.smi:249|AV-procd|sdf|1904|dock2
  -GOLD-   2262020583D 1   1.00000     0.00000
 Structure written by MMmdl.
 64 67  0  0  0  0  0  0  0  0  2 V2000
  146.3591  129.4895  151.7530 C   0  0  0  0  0  0  0  0  0  0  0  0
  145.1368  130.4221  151.7302 C   0  0  0  0  0  0  0  0  0  0  0  0
  145.4295  131.7779  151.1806 N   0  3  2  0  0  0  0  0  0  0  0  0
  146.4074  132.5196  152.0281 C   0  0  0  0  0  0  0  0  0  0  0  0
  146.7770  133.8868  151.4310 C   0  0  0  0  0  0  0  0  0  0  0  0
  145.5298  134.7706  151.2253 C   0  0  2  0  0  0  0  0  0  0  0  0
  144.8855  135.1873  152.4819 N   0  0  0  0  0  0  0  0  0  0  0  0
  143.5507  135.7704  152.3904 C   0  0  0  0  0  0  0  0  0  0  0  0
  145.6579  135.9126  153.3214 C   0  0  0  0  0  0  0  0  0  0  0  0
  145.8997  135.3908  154.5491 N   0  0  0  0  0  0  0  0  0  0  0  0
  146.6654  136.0587  155.4177 C   0  0  0  0  0  0  0  0  0  0  0  0
  147.2725  137.2375  155.2617 N   0  0  0  0  0  0  0  0  0  0  0  0
  147.0221  137.7657  154.0293 C   0  0  0  0  0  0  0  0  0  0  0  0
  146.2290  137.1771  153.0056 C   0  0  0  0  0  0  0  0  0  0  0  0
  146.1983  138.0065  151.8911 N   0  0  0  0  0  0  0  0  0  0  0  0
  146.9361  139.0272  152.2348 C   0  0  0  0  0  0  0  0  0  0  0  0
  147.4759  138.9598  153.4994 N   0  0  0  0  0  0  0  0  0  0  0  0
  148.3341  139.9437  154.1343 C   0  0  0  0  0  0  0  0  0  0  0  0
  147.6666  140.6458  155.3428 C   0  0  1  0  0  0  0  0  0  0  0  0
  148.6757  141.4436  156.2044 C   0  0  0  0  0  0  0  0  0  0  0  0
  149.4864  142.2830  155.4075 O   0  0  0  0  0  0  0  0  0  0  0  0
  146.4552  141.5051  154.9013 C   0  0  2  0  0  0  0  0  0  0  0  0
  146.7662  142.5605  153.8545 C   0  0  0  0  0  0  0  0  0  0  0  0
  145.5747  143.5025  153.9848 C   0  0  0  0  0  0  0  0  0  0  0  0
  145.2103  143.4697  155.3596 O   0  0  0  0  0  0  0  0  0  0  0  0
  145.8578  142.3802  156.0093 C   0  0  0  0  0  0  0  0  0  0  0  0
  144.5780  133.9736  150.3147 C   0  0  0  0  0  0  0  0  0  0  0  0
  144.2017  132.5935  150.9024 C   0  0  1  0  0  0  0  0  0  0  0  0
  143.2203  131.8994  149.9349 C   0  0  0  0  0  0  0  0  0  0  0  0
  146.0550  128.4723  152.0012 H   0  0  0  0  0  0  0  0  0  0  0  0
  147.0946  129.7874  152.4995 H   0  0  0  0  0  0  0  0  0  0  0  0
  146.8512  129.4567  150.7805 H   0  0  0  0  0  0  0  0  0  0  0  0
  144.3928  129.9193  151.1169 H   0  0  0  0  0  0  0  0  0  0  0  0
  144.7085  130.5107  152.7296 H   0  0  0  0  0  0  0  0  0  0  0  0
  145.9996  132.6414  153.0326 H   0  0  0  0  0  0  0  0  0  0  0  0
  147.3297  131.9509  152.1327 H   0  0  0  0  0  0  0  0  0  0  0  0
  147.5206  134.3809  152.0564 H   0  0  0  0  0  0  0  0  0  0  0  0
  147.2689  133.7325  150.4696 H   0  0  0  0  0  0  0  0  0  0  0  0
  145.8279  135.6736  150.6919 H   0  0  0  0  0  0  0  0  0  0  0  0
  143.2685  136.2961  153.3045 H   0  0  0  0  0  0  0  0  0  0  0  0
  142.8091  134.9888  152.2255 H   0  0  0  0  0  0  0  0  0  0  0  0
  143.4939  136.4777  151.5620 H   0  0  0  0  0  0  0  0  0  0  0  0
  146.8146  135.5799  156.3744 H   0  0  0  0  0  0  0  0  0  0  0  0
  147.1154  139.8587  151.5683 H   0  0  0  0  0  0  0  0  0  0  0  0
  149.2548  139.4490  154.4462 H   0  0  0  0  0  0  0  0  0  0  0  0
  148.6181  140.6718  153.3742 H   0  0  0  0  0  0  0  0  0  0  0  0
  147.2768  139.8571  155.9881 H   0  0  0  0  0  0  0  0  0  0  0  0
  148.1580  142.0552  156.9427 H   0  0  0  0  0  0  0  0  0  0  0  0
  149.3197  140.7735  156.7740 H   0  0  0  0  0  0  0  0  0  0  0  0
  149.1413  143.1619  155.4492 H   0  0  0  0  0  0  0  0  0  0  0  0
  145.6679  140.8564  154.5133 H   0  0  0  0  0  0  0  0  0  0  0  0
  147.6886  143.0874  154.1041 H   0  0  0  0  0  0  0  0  0  0  0  0
  146.8655  142.1541  152.8477 H   0  0  0  0  0  0  0  0  0  0  0  0
  145.8047  144.5159  153.6559 H   0  0  0  0  0  0  0  0  0  0  0  0
  144.7341  143.1361  153.3943 H   0  0  0  0  0  0  0  0  0  0  0  0
  145.1586  141.8317  156.6409 H   0  0  0  0  0  0  0  0  0  0  0  0
  146.6429  142.7848  156.6494 H   0  0  0  0  0  0  0  0  0  0  0  0
  143.6809  134.5548  150.1014 H   0  0  0  0  0  0  0  0  0  0  0  0
  145.0588  133.8275  149.3460 H   0  0  0  0  0  0  0  0  0  0  0  0
  143.6818  132.7517  151.8487 H   0  0  0  0  0  0  0  0  0  0  0  0
  142.4250  132.5814  149.6322 H   0  0  0  0  0  0  0  0  0  0  0  0
  142.7225  131.0437  150.3891 H   0  0  0  0  0  0  0  0  0  0  0  0
  143.7247  131.5627  149.0285 H   0  0  0  0  0  0  0  0  0  0  0  0
  145.8764  131.6327  150.2866 H   0  0  0  0  0  0  0  0  0  0  0  0
  1  2  1  0  0  0  0
  1 30  1  0  0  0  0
  1 31  1  0  0  0  0
  1 32  1  0  0  0  0
  2  3  1  0  0  0  0
  2 33  1  0  0  0  0
  2 34  1  0  0  0  0
  3 28  1  0  0  0  0
  3  4  1  0  0  0  0
  3 64  1  0  0  0  0
  4  5  1  0  0  0  0
  4 35  1  0  0  0  0
  4 36  1  0  0  0  0
  5  6  1  0  0  0  0
  5 37  1  0  0  0  0
  5 38  1  0  0  0  0
  6  7  1  0  0  0  0
  6 27  1  0  0  0  0
  6 39  1  0  0  0  0
  7  8  1  0  0  0  0
  7  9  1  0  0  0  0
  8 40  1  0  0  0  0
  8 41  1  0  0  0  0
  8 42  1  0  0  0  0
  9 14  1  0  0  0  0
  9 10  2  0  0  0  0
 10 11  1  0  0  0  0
 11 12  2  0  0  0  0
 11 43  1  0  0  0  0
 12 13  1  0  0  0  0
 13 17  1  0  0  0  0
 13 14  2  0  0  0  0
 14 15  1  0  0  0  0
 15 16  2  0  0  0  0
 16 17  1  0  0  0  0
 16 44  1  0  0  0  0
 17 18  1  0  0  0  0
 18 19  1  0  0  0  0
 18 45  1  0  0  0  0
 18 46  1  0  0  0  0
 19 20  1  0  0  0  0
 19 22  1  0  0  0  0
 19 47  1  0  0  0  0
 20 21  1  0  0  0  0
 20 48  1  0  0  0  0
 20 49  1  0  0  0  0
 21 50  1  0  0  0  0
 22 26  1  0  0  0  0
 22 23  1  0  0  0  0
 22 51  1  0  0  0  0
 23 24  1  0  0  0  0
 23 52  1  0  0  0  0
 23 53  1  0  0  0  0
 24 25  1  0  0  0  0
 24 54  1  0  0  0  0
 24 55  1  0  0  0  0
 25 26  1  0  0  0  0
 26 56  1  0  0  0  0
 26 57  1  0  0  0  0
 27 28  1  0  0  0  0
 27 58  1  0  0  0  0
 27 59  1  0  0  0  0
 28 29  1  0  0  0  0
 28 60  1  0  0  0  0
 29 61  1  0  0  0  0
 29 62  1  0  0  0  0
 29 63  1  0  0  0  0
M  CHG  1   3   1
M  END
> <s_m_source_file>
AV-unprocessed.smi

> <i_m_source_file_index>
249

> <i_lp_mmshare_version>
43012

> <i_f3d_flags>
0

> <s_epik_input>
W0NIM11bQ0gyXU4xW0NIMl1bQ0gyXVtDQEhdKFtDSDJdW0NASF0xW0NIM10pTihbQ0gzXSljKG5bY0hdbjIpYyhjMjMpbltjSF1uM1tDSDJdW0NASF0oW0NIMl1bT0hdKVtDQEBIXTRbQ0gyXVtDSDJdT1tDSDJdNA==

> <s_epik_cmdline>
J2VwaWtfcHl0aG9uJywgJy1waCcsICc3LjAnLCAnLXRuJywgJzgnLCAnLW1hJywgJzIwMCcsICctbWV0YWxfYmluZGluZycsICctaW1hZScsICc8aW5maWxlLm1hZT4nLCAnLW9tYWUnLCAnPG91dGZpbGUubWFlPic=

> <r_lp_tautomer_probability>
1

> <r_epik_Ionization_Penalty>
0.00294688

> <r_epik_Ionization_Penalty_Charging>
0.00169971

> <r_epik_Ionization_Penalty_Neutral>
0.00124717

> <r_epik_State_Penalty>
-0

> <r_epik_Charging_Adjusted_Penalty>
0.00169971

> <i_epik_Tot_Q>
1

> <i_epik_Tot_abs_Q>
1

> <r_epik_Metal_State_Penalty>
-0

> <b_epik_Metal_Only>
0

> <s_lp_Force_Field>
OPLS_2005

> <r_lp_Energy>
56.7452

> <b_lp_Chiralities_Consistent>
1

> <s_lp_Variant>
AV-unprocessed.smi:249-7

> <Gold.Version>
5.8.1

> <Gold.Id.Protein>
6NUR|6NUR_protein|mol2

> <Gold.PLP.Fitness>
45.0530

> <Gold.PLP.PLP>
-40.6238

> <Gold.PLP.part.hbond>
-0.9313

> <Gold.PLP.part.metal>
0.0000

> <Gold.PLP.part.buried>
-0.8040

> <Gold.PLP.part.nonpolar>
-39.5108

> <Gold.PLP.part.repulsive>
0.7335

> <Gold.PLP.ligand.clash>
0.0000

> <Gold.PLP.ligand.torsion>
0.6271

> <Gold.PLP.Chemscore.Hbond>
1.0000

> <Gold.PLP.Chemscore.CHOScore>
0.5793

> <Gold.PLP.Chemscore.Metal>
0.0000

> <Gold.Chemscore.Hbonds>
donor molecule, donor type, donor heavy atom, donor atom, acceptor molecule, acceptor atom, score
      L1  H    21    50       P1  8028  1.00
      L1  C    16    44       P1  7957  0.59

> <Gold.PLP.Chemscore.Internal.Correction>
0.9455

> <Gold.Rescore>
     Score         DG    S(hbond)    S(metal)    S(lipo)     H(rot)  DE(clash)    DE(int)     intcor
     12.03     -13.46       1.00        0.00     103.25       2.90       0.69       0.74       ----

> <Gold.Chemscore.Fitness>
12.0308

> <Gold.Chemscore.DG>
-13.4595

> <Gold.Chemscore.ZeroCoef>
-5.4800

> <Gold.Chemscore.Hbond>
0.9953

> <Gold.Chemscore.Metal>
0.0000

> <Gold.Chemscore.Lipo>
103.2541

> <Gold.Chemscore.Internal_Hbond>
0.0000

> <Gold.Chemscore.DEClash>
0.6898

> <Gold.Chemscore.DEInternal>
0.7389

> <Gold.Chemscore.Rot>
2.9006

> <Gold.Chemscore.Internal.Correction>
   9.000000E+99

> <Gold.Chemscore.Hbonds>
donor molecule, donor type, donor heavy atom, donor atom, acceptor molecule, acceptor atom, score
      L1  H    21    50       P1  8028  0.98

> <Gold.Chemscore.Hbond.Weighted>
-3.3244

> <Gold.Chemscore.Metal.Weighted>
-0.0000

> <Gold.Chemscore.Lipo.Weighted>
-12.0807

> <Gold.Chemscore.Internal_Hbond.Weighted>
0.0000

> <Gold.Chemscore.DEClash.Weighted>
0.6898

> <Gold.Chemscore.DEInternal.Weighted>
0.7389

> <Gold.Chemscore.Rot.Weighted>
7.4256

> <Gold.Chemscore.Internal.Correction.Weighted>
   9.000000E+99

> <Gold.Protein.RotatedTorsions>
[ 6907 6896 6895 6894 ] final   14.49 input  -60.11 | X-H torsion
[ 7974 7965 7964 7962 ] final -139.53 input  175.53 | X-H torsion
[ 8008 7997 7996 7995 ] final   32.69 input   59.86 | X-H torsion
[ 10167 10162 10161 10158 ] final   29.36 input  -65.29 | X-H torsion
[ 10718 10713 10712 10709 ] final   70.25 input   66.30 | X-H torsion
[ 10763 10752 10751 10750 ] final  133.45 input  -60.55 | X-H torsion
[ 11005 11000 10999 10996 ] final -161.03 input  -57.11 | X-H torsion

> <Gold.Protein.ActiveResidues>
 VAL166  LYS551  ARG553  GLY616  TRP617  ASP618  TYR619  PRO620  LYS621  CYS622 
 ASP623  PHE694  ASN695  SER759  ASP760  ASP761  ALA762  ILE779  LEU786  VAL792 
 PHE793  MET794  SER795  GLU796  ALA797  LYS798  CYS799  TRP800  GLU811  SER814 

> <Gold.Protein.RotatedAtoms>
  151.8031  135.0703  160.0402 H   0  0  0  0  0  0  0  0  0  0  0  0  # atno 6907 bound_to 6896
  152.3075  133.5714  159.5667 H   0  0  0  0  0  0  0  0  0  0  0  0  # atno 6908 bound_to 6896
  150.7303  134.0117  159.3714 H   0  0  0  0  0  0  0  0  0  0  0  0  # atno 6909 bound_to 6896
  144.8669  140.6308  143.5292 H   0  0  0  0  0  0  0  0  0  0  0  0  # atno 7974 bound_to 7965
  155.1265  140.3253  155.4484 H   0  0  0  0  0  0  0  0  0  0  0  0  # atno 8008 bound_to 7997
  156.2647  140.2018  156.6334 H   0  0  0  0  0  0  0  0  0  0  0  0  # atno 8009 bound_to 7997
  154.6644  140.0543  157.0084 H   0  0  0  0  0  0  0  0  0  0  0  0  # atno 8010 bound_to 7997
  140.4773  144.0671  150.6254 H   0  0  0  0  0  0  0  0  0  0  0  0  # atno 10167 bound_to 10162
  157.6390  130.9468  150.0625 H   0  0  0  0  0  0  0  0  0  0  0  0  # atno 10718 bound_to 10713
  153.8074  135.3133  155.3397 H   0  0  0  0  0  0  0  0  0  0  0  0  # atno 10763 bound_to 10752
  154.8065  135.4694  154.0408 H   0  0  0  0  0  0  0  0  0  0  0  0  # atno 10764 bound_to 10752
  153.1776  135.6888  153.8610 H   0  0  0  0  0  0  0  0  0  0  0  0  # atno 10765 bound_to 10752
  140.6249  134.4711  157.5226 H   0  0  0  0  0  0  0  0  0  0  0  0  # atno 11005 bound_to 11000
  145.4204  139.1565  143.4077 LP  0  0  0  0  0  0  0  0  0  0  0  0  # atno 17320 bound_to 7965
  146.2902  140.4313  142.8742 LP  0  0  0  0  0  0  0  0  0  0  0  0  # atno 17321 bound_to 7965
  140.3903  143.2756  152.0068 LP  0  0  0  0  0  0  0  0  0  0  0  0  # atno 17342 bound_to 10162
  139.4827  144.6083  151.7481 LP  0  0  0  0  0  0  0  0  0  0  0  0  # atno 17343 bound_to 10162
  156.1654  130.3645  149.9240 LP  0  0  0  0  0  0  0  0  0  0  0  0  # atno 17370 bound_to 10713
  156.7229  130.9013  151.3619 LP  0  0  0  0  0  0  0  0  0  0  0  0  # atno 17371 bound_to 10713
  139.9138  134.8288  156.1434 LP  0  0  0  0  0  0  0  0  0  0  0  0  # atno 17394 bound_to 11000
  141.0716  133.6794  156.2152 LP  0  0  0  0  0  0  0  0  0  0  0  0  # atno 17395 bound_to 11000

$$$$
