AV-unprocessed.smi:102|AV-procd|sdf|951|dock2
  -GOLD-   2262017483D 1   1.00000     0.00000
 Structure written by MMmdl.
 44 45  0  0  0  0  0  0  0  0  1 V2000
  151.0350  144.9760  159.1934 C   0  0  0  0  0  0  0  0  0  0  0  0
  151.2884  143.6992  159.9844 C   0  0  0  0  0  0  0  0  0  0  0  0
  150.4060  143.1866  160.6733 O   0  0  0  0  0  0  0  0  0  0  0  0
  152.5429  143.2381  159.8279 O   0  0  0  0  0  0  0  0  0  0  0  0
  152.8608  141.8919  160.1529 C   0  0  0  0  0  0  0  0  0  0  0  0
  153.0640  141.0497  158.8841 C   0  0  2  0  0  0  0  0  0  0  0  0
  152.0737  141.3689  157.9179 O   0  0  0  0  0  0  0  0  0  0  0  0
  151.8679  140.2826  157.0689 C   0  0  2  0  0  0  0  0  0  0  0  0
  150.3978  140.2557  156.6972 N   0  0  0  0  0  0  0  0  0  0  0  0
  149.4319  140.5267  157.6563 C   0  0  0  0  0  0  0  0  0  0  0  0
  148.1032  140.4798  157.4000 C   0  0  0  0  0  0  0  0  0  0  0  0
  147.2282  140.7634  158.3798 F   0  0  0  0  0  0  0  0  0  0  0  0
  147.6128  140.1211  156.0726 C   0  0  0  0  0  0  0  0  0  0  0  0
  146.4301  140.0570  155.7430 O   0  0  0  0  0  0  0  0  0  0  0  0
  148.6177  139.8344  155.1447 N   0  0  0  0  0  0  0  0  0  0  0  0
  149.9899  139.8749  155.3962 C   0  0  0  0  0  0  0  0  0  0  0  0
  150.7848  139.5887  154.5021 O   0  0  0  0  0  0  0  0  0  0  0  0
  152.3922  139.0077  157.7725 C   0  0  2  0  0  0  0  0  0  0  0  0
  151.3932  138.0026  157.9105 O   0  0  0  0  0  0  0  0  0  0  0  0
  151.6040  136.9374  158.6991 C   0  0  0  0  0  0  0  0  0  0  0  0
  150.3816  136.0340  158.7874 C   0  0  0  0  0  0  0  0  0  0  0  0
  152.6436  136.6758  159.3040 O   0  0  0  0  0  0  0  0  0  0  0  0
  152.8479  139.5492  159.1278 C   0  0  1  0  0  0  0  0  0  0  0  0
  153.9614  138.8656  159.7132 O   0  0  0  0  0  0  0  0  0  0  0  0
  155.1922  138.8148  159.1533 C   0  0  0  0  0  0  0  0  0  0  0  0
  156.1525  137.9432  159.9518 C   0  0  0  0  0  0  0  0  0  0  0  0
  155.5553  139.3827  158.1236 O   0  0  0  0  0  0  0  0  0  0  0  0
  148.3259  139.5694  154.2150 H   0  0  0  0  0  0  0  0  0  0  0  0
  150.6698  144.7340  158.1953 H   0  0  0  0  0  0  0  0  0  0  0  0
  151.9522  145.5572  159.0957 H   0  0  0  0  0  0  0  0  0  0  0  0
  150.2890  145.5927  159.6953 H   0  0  0  0  0  0  0  0  0  0  0  0
  153.7930  141.9133  160.7178 H   0  0  0  0  0  0  0  0  0  0  0  0
  152.1126  141.4442  160.8091 H   0  0  0  0  0  0  0  0  0  0  0  0
  154.0412  141.2473  158.4443 H   0  0  0  0  0  0  0  0  0  0  0  0
  152.4097  140.4708  156.1413 H   0  0  0  0  0  0  0  0  0  0  0  0
  149.7404  140.7958  158.6563 H   0  0  0  0  0  0  0  0  0  0  0  0
  153.2243  138.6423  157.1710 H   0  0  0  0  0  0  0  0  0  0  0  0
  150.0724  135.7167  157.7913 H   0  0  0  0  0  0  0  0  0  0  0  0
  149.5525  136.5652  159.2551 H   0  0  0  0  0  0  0  0  0  0  0  0
  150.6026  135.1462  159.3800 H   0  0  0  0  0  0  0  0  0  0  0  0
  152.0136  139.4476  159.8227 H   0  0  0  0  0  0  0  0  0  0  0  0
  155.6116  137.1565  160.4781 H   0  0  0  0  0  0  0  0  0  0  0  0
  156.6880  138.5467  160.6850 H   0  0  0  0  0  0  0  0  0  0  0  0
  156.8813  137.4753  159.2897 H   0  0  0  0  0  0  0  0  0  0  0  0
  1  2  1  0  0  0  0
  1 29  1  0  0  0  0
  1 30  1  0  0  0  0
  1 31  1  0  0  0  0
  2  3  2  0  0  0  0
  2  4  1  0  0  0  0
  4  5  1  0  0  0  0
  5  6  1  0  0  0  0
  5 32  1  0  0  0  0
  5 33  1  0  0  0  0
  6 23  1  0  0  0  0
  6  7  1  0  0  0  0
  6 34  1  0  0  0  0
  7  8  1  0  0  0  0
  8  9  1  0  0  0  0
  8 18  1  0  0  0  0
  8 35  1  0  0  0  0
  9 16  1  0  0  0  0
  9 10  1  0  0  0  0
 10 11  2  0  0  0  0
 10 36  1  0  0  0  0
 11 12  1  0  0  0  0
 11 13  1  0  0  0  0
 13 14  2  0  0  0  0
 13 15  1  0  0  0  0
 15 28  1  0  0  0  0
 15 16  1  0  0  0  0
 16 17  2  0  0  0  0
 18 19  1  0  0  0  0
 18 23  1  0  0  0  0
 18 37  1  0  0  0  0
 19 20  1  0  0  0  0
 20 21  1  0  0  0  0
 20 22  2  0  0  0  0
 21 38  1  0  0  0  0
 21 39  1  0  0  0  0
 21 40  1  0  0  0  0
 23 24  1  0  0  0  0
 23 41  1  0  0  0  0
 24 25  1  0  0  0  0
 25 26  1  0  0  0  0
 25 27  2  0  0  0  0
 26 42  1  0  0  0  0
 26 43  1  0  0  0  0
 26 44  1  0  0  0  0
M  END
> <s_m_source_file>
AV-unprocessed.smi

> <i_m_source_file_index>
102

> <i_lp_mmshare_version>
43012

> <i_f3d_flags>
0

> <s_epik_input>
W0NIM11DKD1PKU9bQ0gyXVtDQEBIXTFPW0NASF0oW0NAQEhdKE9DKD1PKVtDSDNdKVtDQEhdMU9DKD1PKVtDSDNdKW4yW2NIXWMoRiljKD1PKVtuSF1jMj1P

> <s_epik_cmdline>
J2VwaWtfcHl0aG9uJywgJy1waCcsICc3LjAnLCAnLXRuJywgJzgnLCAnLW1hJywgJzIwMCcsICctbWV0YWxfYmluZGluZycsICctaW1hZScsICc8aW5maWxlLm1hZT4nLCAnLW9tYWUnLCAnPG91dGZpbGUubWFlPic=

> <r_lp_tautomer_probability>
0.999537

> <r_epik_Ionization_Penalty>
0.058267

> <r_epik_Ionization_Penalty_Charging>
0.058267

> <r_epik_Ionization_Penalty_Neutral>
6.57791e-16

> <r_epik_State_Penalty>
0.0503774

> <r_epik_Charging_Adjusted_Penalty>
0.108644

> <i_epik_Tot_Q>
0

> <i_epik_Tot_abs_Q>
0

> <r_epik_Metal_State_Penalty>
2.6644

> <b_epik_Metal_Only>
0

> <s_epik_Chemistry_Notes>
This compound has an ester and may undergo hydrolysis at high or low pH. This compound contains an acetal/aminal-like group ( X-CH(R)-Y where X, Y are N, S, or O) that may be acid/base labile, releasing an aldehyde.

> <s_lp_Force_Field>
OPLS_2005

> <r_lp_Energy>
7.12504

> <b_lp_Chiralities_Consistent>
1

> <s_lp_Variant>
AV-unprocessed.smi:102-7

> <Gold.Version>
5.8.1

> <Gold.Id.Protein>
6NUR|6NUR_protein|mol2

> <Gold.PLP.Fitness>
45.8437

> <Gold.PLP.PLP>
-39.5202

> <Gold.PLP.part.hbond>
-3.5153

> <Gold.PLP.part.metal>
0.0000

> <Gold.PLP.part.buried>
-6.4834

> <Gold.PLP.part.nonpolar>
-28.8924

> <Gold.PLP.part.repulsive>
0.4497

> <Gold.PLP.ligand.clash>
0.0000

> <Gold.PLP.ligand.torsion>
1.4669

> <Gold.PLP.Chemscore.Hbond>
3.0000

> <Gold.PLP.Chemscore.CHOScore>
0.0000

> <Gold.PLP.Chemscore.Metal>
0.0000

> <Gold.Chemscore.Hbonds>
donor molecule, donor type, donor heavy atom, donor atom, acceptor molecule, acceptor atom, score
      P1  H  6896  6907       L1    22  0.04
      P1  H  7989  7998       L1    17  1.00
      P1  H  7997  8009       L1    27  0.14

> <Gold.PLP.Chemscore.Internal.Correction>
0.2573

> <Gold.Rescore>
     Score         DG    S(hbond)    S(metal)    S(lipo)     H(rot)  DE(clash)    DE(int)     intcor
      7.22     -12.17       3.22        0.00      53.84       4.05       0.17       4.78       ----

> <Gold.Chemscore.Fitness>
7.2180

> <Gold.Chemscore.DG>
-12.1716

> <Gold.Chemscore.ZeroCoef>
-5.4800

> <Gold.Chemscore.Hbond>
3.2233

> <Gold.Chemscore.Metal>
0.0000

> <Gold.Chemscore.Lipo>
53.8369

> <Gold.Chemscore.Internal_Hbond>
0.0000

> <Gold.Chemscore.DEClash>
0.1739

> <Gold.Chemscore.DEInternal>
4.7797

> <Gold.Chemscore.Rot>
4.0520

> <Gold.Chemscore.Internal.Correction>
   9.000000E+99

> <Gold.Chemscore.Hbonds>
donor molecule, donor type, donor heavy atom, donor atom, acceptor molecule, acceptor atom, score
      P1  H  7989  7998       L1    17  0.99
      P1  H  7997  8009       L1    27  0.14

> <Gold.Chemscore.Hbond.Weighted>
-10.7659

> <Gold.Chemscore.Metal.Weighted>
-0.0000

> <Gold.Chemscore.Lipo.Weighted>
-6.2989

> <Gold.Chemscore.Internal_Hbond.Weighted>
0.0000

> <Gold.Chemscore.DEClash.Weighted>
0.1739

> <Gold.Chemscore.DEInternal.Weighted>
4.7797

> <Gold.Chemscore.Rot.Weighted>
10.3732

> <Gold.Chemscore.Internal.Correction.Weighted>
   9.000000E+99

> <Gold.Protein.RotatedTorsions>
[ 6907 6896 6895 6894 ] final   -6.73 input  -60.11 | X-H torsion
[ 7974 7965 7964 7962 ] final    0.32 input  175.53 | X-H torsion
[ 8008 7997 7996 7995 ] final  134.52 input   59.86 | X-H torsion
[ 10167 10162 10161 10158 ] final  -83.69 input  -65.29 | X-H torsion
[ 10718 10713 10712 10709 ] final -128.80 input   66.30 | X-H torsion
[ 10763 10752 10751 10750 ] final   99.91 input  -60.55 | X-H torsion
[ 11005 11000 10999 10996 ] final  136.69 input  -57.11 | X-H torsion

> <Gold.Protein.ActiveResidues>
 VAL166  LYS551  ARG553  GLY616  TRP617  ASP618  TYR619  PRO620  LYS621  CYS622 
 ASP623  PHE694  ASN695  SER759  ASP760  ASP761  ALA762  ILE779  LEU786  VAL792 
 PHE793  MET794  SER795  GLU796  ALA797  LYS798  CYS799  TRP800  GLU811  SER814 

> <Gold.Protein.RotatedAtoms>
  151.4609  135.1038  159.9724 H   0  0  0  0  0  0  0  0  0  0  0  0  # atno 6907 bound_to 6896
  152.4853  133.8353  159.7135 H   0  0  0  0  0  0  0  0  0  0  0  0  # atno 6908 bound_to 6896
  150.8957  133.7123  159.2919 H   0  0  0  0  0  0  0  0  0  0  0  0  # atno 6909 bound_to 6896
  146.2433  140.1156  142.8342 H   0  0  0  0  0  0  0  0  0  0  0  0  # atno 7974 bound_to 7965
  156.2999  140.2494  156.3431 H   0  0  0  0  0  0  0  0  0  0  0  0  # atno 8008 bound_to 7997
  154.9036  140.0405  157.1926 H   0  0  0  0  0  0  0  0  0  0  0  0  # atno 8009 bound_to 7997
  154.8476  140.2901  155.5623 H   0  0  0  0  0  0  0  0  0  0  0  0  # atno 8010 bound_to 7997
  140.4203  143.2587  151.8899 H   0  0  0  0  0  0  0  0  0  0  0  0  # atno 10167 bound_to 10162
  156.1985  130.6842  151.0511 H   0  0  0  0  0  0  0  0  0  0  0  0  # atno 10718 bound_to 10713
  153.3073  135.4097  155.1305 H   0  0  0  0  0  0  0  0  0  0  0  0  # atno 10763 bound_to 10752
  154.8566  135.3556  154.5771 H   0  0  0  0  0  0  0  0  0  0  0  0  # atno 10764 bound_to 10752
  153.6198  135.7065  153.5373 H   0  0  0  0  0  0  0  0  0  0  0  0  # atno 10765 bound_to 10752
  140.0063  134.9458  157.0182 H   0  0  0  0  0  0  0  0  0  0  0  0  # atno 11005 bound_to 11000
  145.0450  140.8974  143.5029 LP  0  0  0  0  0  0  0  0  0  0  0  0  # atno 17320 bound_to 7965
  145.1243  139.2673  143.5572 LP  0  0  0  0  0  0  0  0  0  0  0  0  # atno 17321 bound_to 7965
  139.4782  144.5444  151.8479 LP  0  0  0  0  0  0  0  0  0  0  0  0  # atno 17342 bound_to 10162
  140.4541  144.1814  150.5900 LP  0  0  0  0  0  0  0  0  0  0  0  0  # atno 17343 bound_to 10162
  157.6972  131.0789  150.6933 LP  0  0  0  0  0  0  0  0  0  0  0  0  # atno 17370 bound_to 10713
  156.6990  130.4618  149.5578 LP  0  0  0  0  0  0  0  0  0  0  0  0  # atno 17371 bound_to 10713
  140.4635  134.1459  155.7194 LP  0  0  0  0  0  0  0  0  0  0  0  0  # atno 17394 bound_to 11000
  141.1679  133.8666  157.1659 LP  0  0  0  0  0  0  0  0  0  0  0  0  # atno 17395 bound_to 11000

$$$$
