AV-unprocessed.smi:2061|AV-procd|sdf|8395|dock7
  -GOLD-   2272011 83D 1   1.00000     0.00000
 Structure written by MMmdl.
 45 46  0  0  0  0  0  0  0  0  3 V2000
  147.3479  135.4766  163.1050 C   0  0  0  0  0  0  0  0  0  0  0  0
  147.4081  135.9261  161.6855 C   0  0  0  0  0  0  0  0  0  0  0  0
  146.7821  135.5012  160.5478 C   0  0  0  0  0  0  0  0  0  0  0  0
  147.3021  136.3692  159.5510 C   0  0  0  0  0  0  0  0  0  0  0  0
  146.8920  136.2438  158.1974 N   0  0  0  0  0  0  0  0  0  0  0  0
  146.5100  137.2069  157.3390 C   0  0  0  0  0  0  0  0  0  0  0  0
  146.4609  138.3872  157.7056 O   0  0  0  0  0  0  0  0  0  0  0  0
  146.2131  136.7086  156.1077 N   0  5  0  0  0  0  0  0  0  0  0  0
  147.0101  136.9401  154.9034 C   0  0  0  0  0  0  0  0  0  0  0  0
  148.5041  137.1722  155.2767 C   0  0  1  0  0  0  0  0  0  0  0  0
  149.1748  135.8355  155.7083 C   0  0  0  0  0  0  0  0  0  0  0  0
  149.2099  137.8842  154.1517 N   0  3  1  0  0  0  0  0  0  0  0  0
  148.6140  139.1997  153.7721 C   0  0  0  0  0  0  0  0  0  0  0  0
  149.0648  140.3273  154.7249 C   0  0  2  0  0  0  0  0  0  0  0  0
  148.5290  141.6954  154.2894 C   0  0  0  0  0  0  0  0  0  0  0  0
  150.4859  140.3912  154.7300 O   0  0  0  0  0  0  0  0  0  0  0  0
  151.0855  139.1863  155.1912 C   0  0  2  0  0  0  0  0  0  0  0  0
  152.6023  139.3984  155.2354 C   0  0  0  0  0  0  0  0  0  0  0  0
  150.6889  138.0364  154.2405 C   0  0  0  0  0  0  0  0  0  0  0  0
  148.1675  137.2461  160.0384 N   0  0  0  0  0  0  0  0  0  0  0  0
  148.2392  136.9670  161.4083 O   0  0  0  0  0  0  0  0  0  0  0  0
  146.7003  134.6061  163.2110 H   0  0  0  0  0  0  0  0  0  0  0  0
  146.9576  136.2687  163.7442 H   0  0  0  0  0  0  0  0  0  0  0  0
  148.3399  135.2058  163.4668 H   0  0  0  0  0  0  0  0  0  0  0  0
  146.0682  134.6974  160.4461 H   0  0  0  0  0  0  0  0  0  0  0  0
  146.8977  135.3055  157.8262 H   0  0  0  0  0  0  0  0  0  0  0  0
  146.9417  136.1091  154.2004 H   0  0  0  0  0  0  0  0  0  0  0  0
  146.6425  137.8091  154.3568 H   0  0  0  0  0  0  0  0  0  0  0  0
  148.5413  137.8285  156.1467 H   0  0  0  0  0  0  0  0  0  0  0  0
  148.6508  135.3566  156.5382 H   0  0  0  0  0  0  0  0  0  0  0  0
  150.1908  135.9859  156.0687 H   0  0  0  0  0  0  0  0  0  0  0  0
  149.2188  135.1090  154.8944 H   0  0  0  0  0  0  0  0  0  0  0  0
  148.9370  139.4347  152.7569 H   0  0  0  0  0  0  0  0  0  0  0  0
  147.5256  139.1548  153.7335 H   0  0  0  0  0  0  0  0  0  0  0  0
  148.7111  140.1317  155.7381 H   0  0  0  0  0  0  0  0  0  0  0  0
  147.4388  141.7038  154.2793 H   0  0  0  0  0  0  0  0  0  0  0  0
  148.8758  141.9568  153.2893 H   0  0  0  0  0  0  0  0  0  0  0  0
  148.8597  142.4787  154.9720 H   0  0  0  0  0  0  0  0  0  0  0  0
  150.7375  138.9854  156.2048 H   0  0  0  0  0  0  0  0  0  0  0  0
  153.1129  138.5037  155.5925 H   0  0  0  0  0  0  0  0  0  0  0  0
  152.8618  140.2185  155.9052 H   0  0  0  0  0  0  0  0  0  0  0  0
  152.9971  139.6380  154.2476 H   0  0  0  0  0  0  0  0  0  0  0  0
  151.1873  137.1041  154.5019 H   0  0  0  0  0  0  0  0  0  0  0  0
  151.0523  138.2719  153.2390 H   0  0  0  0  0  0  0  0  0  0  0  0
  149.0608  137.2732  153.3611 H   0  0  0  0  0  0  0  0  0  0  0  0
  1  2  1  0  0  0  0
  1 22  1  0  0  0  0
  1 23  1  0  0  0  0
  1 24  1  0  0  0  0
  2 21  1  0  0  0  0
  2  3  2  0  0  0  0
  3  4  1  0  0  0  0
  3 25  1  0  0  0  0
  4  5  1  0  0  0  0
  4 20  2  0  0  0  0
  5  6  1  0  0  0  0
  5 26  1  0  0  0  0
  6  7  2  0  0  0  0
  6  8  1  0  0  0  0
  8  9  1  0  0  0  0
  9 10  1  0  0  0  0
  9 27  1  0  0  0  0
  9 28  1  0  0  0  0
 10 11  1  0  0  0  0
 10 12  1  0  0  0  0
 10 29  1  0  0  0  0
 11 30  1  0  0  0  0
 11 31  1  0  0  0  0
 11 32  1  0  0  0  0
 12 19  1  0  0  0  0
 12 13  1  0  0  0  0
 12 45  1  0  0  0  0
 13 14  1  0  0  0  0
 13 33  1  0  0  0  0
 13 34  1  0  0  0  0
 14 15  1  0  0  0  0
 14 16  1  0  0  0  0
 14 35  1  0  0  0  0
 15 36  1  0  0  0  0
 15 37  1  0  0  0  0
 15 38  1  0  0  0  0
 16 17  1  0  0  0  0
 17 18  1  0  0  0  0
 17 19  1  0  0  0  0
 17 39  1  0  0  0  0
 18 40  1  0  0  0  0
 18 41  1  0  0  0  0
 18 42  1  0  0  0  0
 19 43  1  0  0  0  0
 19 44  1  0  0  0  0
 20 21  1  0  0  0  0
M  CHG  1   8  -1
M  CHG  1  12   1
M  END
> <s_m_source_file>
AV-unprocessed.smi

> <i_m_source_file_index>
2061

> <i_lp_mmshare_version>
43012

> <i_f3d_flags>
0

> <s_epik_input>
W0NIM11jMVtjSF1jKG5vMSlbTkhdQyg9TylbTkhdW0NIMl1bQ0BIXShbQ0gzXSlOMltDSDJdW0NAQEhdKFtDSDNdKU9bQ0BASF0oW0NIM10pW0NIMl0y

> <s_epik_cmdline>
J2VwaWtfcHl0aG9uJywgJy1waCcsICc3LjAnLCAnLXRuJywgJzgnLCAnLW1hJywgJzIwMCcsICctbWV0YWxfYmluZGluZycsICctaW1hZScsICc8aW5maWxlLm1hZT4nLCAnLW9tYWUnLCAnPG91dGZpbGUubWFlPic=

> <r_epik_Ionization_Penalty>
6.8073

> <r_epik_Ionization_Penalty_Charging>
6.80729

> <r_epik_Ionization_Penalty_Neutral>
5.65391e-06

> <r_epik_State_Penalty>
7.47323

> <r_epik_Charging_Adjusted_Penalty>
14.2805

> <i_epik_Tot_Q>
0

> <i_epik_Tot_abs_Q>
2

> <r_epik_Metal_State_Penalty>
3.40035

> <b_epik_Metal_Only>
1

> <s_lp_Force_Field>
OPLS_2005

> <r_lp_Energy>
21.1883

> <b_lp_Chiralities_Consistent>
1

> <s_lp_Variant>
AV-unprocessed.smi:2061-36

> <Gold.Version>
5.8.1

> <Gold.Id.Protein>
6NUR|6NUR_protein|mol2

> <Gold.PLP.Fitness>
41.2046

> <Gold.PLP.PLP>
-32.0615

> <Gold.PLP.part.hbond>
-5.4723

> <Gold.PLP.part.metal>
0.0000

> <Gold.PLP.part.buried>
-1.1119

> <Gold.PLP.part.nonpolar>
-26.2961

> <Gold.PLP.part.repulsive>
0.1020

> <Gold.PLP.ligand.clash>
0.0000

> <Gold.PLP.ligand.torsion>
1.4405

> <Gold.PLP.Chemscore.Hbond>
3.9500

> <Gold.PLP.Chemscore.CHOScore>
0.0000

> <Gold.PLP.Chemscore.Metal>
0.0000

> <Gold.Chemscore.Hbonds>
donor molecule, donor type, donor heavy atom, donor atom, acceptor molecule, acceptor atom, score
      L1  H    12    45       P1  7948  2.00
      P1  H  6931  6943       L1    21  1.00
      P1  H  7989  7998       L1    16  1.00

> <Gold.PLP.Chemscore.Internal.Correction>
0.1740

> <Gold.Rescore>
     Score         DG    S(hbond)    S(metal)    S(lipo)     H(rot)  DE(clash)    DE(int)     intcor
     15.96     -18.55       2.55        0.00      72.85       1.56       1.04       1.56       ----

> <Gold.Chemscore.Fitness>
15.9609

> <Gold.Chemscore.DG>
-18.5546

> <Gold.Chemscore.ZeroCoef>
-5.4800

> <Gold.Chemscore.Hbond>
2.5546

> <Gold.Chemscore.Metal>
0.0000

> <Gold.Chemscore.Lipo>
72.8480

> <Gold.Chemscore.Internal_Hbond>
0.0000

> <Gold.Chemscore.DEClash>
1.0360

> <Gold.Chemscore.DEInternal>
1.5577

> <Gold.Chemscore.Rot>
1.5550

> <Gold.Chemscore.Internal.Correction>
   9.000000E+99

> <Gold.Chemscore.Hbonds>
donor molecule, donor type, donor heavy atom, donor atom, acceptor molecule, acceptor atom, score
      L1  H    12    45       P1  7948  1.00
      P1  H  6931  6943       L1    21  0.25
      P1  H  7989  7998       L1    16  0.29

> <Gold.Chemscore.Hbond.Weighted>
-8.5322

> <Gold.Chemscore.Metal.Weighted>
-0.0000

> <Gold.Chemscore.Lipo.Weighted>
-8.5232

> <Gold.Chemscore.Internal_Hbond.Weighted>
0.0000

> <Gold.Chemscore.DEClash.Weighted>
1.0360

> <Gold.Chemscore.DEInternal.Weighted>
1.5577

> <Gold.Chemscore.Rot.Weighted>
3.9809

> <Gold.Chemscore.Internal.Correction.Weighted>
   9.000000E+99

> <Gold.Protein.RotatedTorsions>
[ 6907 6896 6895 6894 ] final   -7.63 input  -60.11 | X-H torsion
[ 7974 7965 7964 7962 ] final  137.91 input  175.53 | X-H torsion
[ 8008 7997 7996 7995 ] final  -42.13 input   59.86 | X-H torsion
[ 10167 10162 10161 10158 ] final   42.27 input  -65.29 | X-H torsion
[ 10718 10713 10712 10709 ] final  121.86 input   66.30 | X-H torsion
[ 10763 10752 10751 10750 ] final -114.27 input  -60.55 | X-H torsion
[ 11005 11000 10999 10996 ] final   76.27 input  -57.11 | X-H torsion

> <Gold.Protein.ActiveResidues>
 VAL166  LYS551  ARG553  GLY616  TRP617  ASP618  TYR619  PRO620  LYS621  CYS622 
 ASP623  PHE694  ASN695  SER759  ASP760  ASP761  ALA762  ILE779  LEU786  VAL792 
 PHE793  MET794  SER795  GLU796  ALA797  LYS798  CYS799  TRP800  GLU811  SER814 

> <Gold.Protein.RotatedAtoms>
  151.4465  135.1025  159.9685 H   0  0  0  0  0  0  0  0  0  0  0  0  # atno 6907 bound_to 6896
  152.4904  133.8480  159.7197 H   0  0  0  0  0  0  0  0  0  0  0  0  # atno 6908 bound_to 6896
  150.9052  133.7008  159.2896 H   0  0  0  0  0  0  0  0  0  0  0  0  # atno 6909 bound_to 6896
  144.9423  139.4917  143.5566 H   0  0  0  0  0  0  0  0  0  0  0  0  # atno 7974 bound_to 7965
  154.4000  140.1481  156.3305 H   0  0  0  0  0  0  0  0  0  0  0  0  # atno 8008 bound_to 7997
  155.8447  140.3460  155.5633 H   0  0  0  0  0  0  0  0  0  0  0  0  # atno 8009 bound_to 7997
  155.8048  140.0875  157.1927 H   0  0  0  0  0  0  0  0  0  0  0  0  # atno 8010 bound_to 7997
  140.3561  144.2288  150.6141 H   0  0  0  0  0  0  0  0  0  0  0  0  # atno 10167 bound_to 10162
  157.5786  131.1077  150.8231 H   0  0  0  0  0  0  0  0  0  0  0  0  # atno 10718 bound_to 10713
  154.8433  135.4424  154.1480 H   0  0  0  0  0  0  0  0  0  0  0  0  # atno 10763 bound_to 10752
  153.2648  135.6939  153.7547 H   0  0  0  0  0  0  0  0  0  0  0  0  # atno 10764 bound_to 10752
  153.6810  135.3403  155.3153 H   0  0  0  0  0  0  0  0  0  0  0  0  # atno 10765 bound_to 10752
  139.9306  134.7587  156.1375 H   0  0  0  0  0  0  0  0  0  0  0  0  # atno 11005 bound_to 11000
  146.3290  139.8450  142.8883 LP  0  0  0  0  0  0  0  0  0  0  0  0  # atno 17320 bound_to 7965
  145.2973  141.0184  143.3629 LP  0  0  0  0  0  0  0  0  0  0  0  0  # atno 17321 bound_to 7965
  140.5172  143.2275  151.8444 LP  0  0  0  0  0  0  0  0  0  0  0  0  # atno 17342 bound_to 10162
  139.4820  144.4880  151.9222 LP  0  0  0  0  0  0  0  0  0  0  0  0  # atno 17343 bound_to 10162
  156.8683  130.5137  149.5298 LP  0  0  0  0  0  0  0  0  0  0  0  0  # atno 17370 bound_to 10713
  156.0831  130.5837  150.9600 LP  0  0  0  0  0  0  0  0  0  0  0  0  # atno 17371 bound_to 10713
  141.0891  133.6721  156.2502 LP  0  0  0  0  0  0  0  0  0  0  0  0  # atno 17394 bound_to 11000
  140.6214  134.5358  157.5548 LP  0  0  0  0  0  0  0  0  0  0  0  0  # atno 17395 bound_to 11000

$$$$
