AV-unprocessed.smi:2787|AV-procd|sdf|10757|dock9
  -GOLD-   2272015193D 1   1.00000     0.00000
 Structure written by MMmdl.
 35 36  0  0  0  0  0  0  0  0  1 V2000
  151.8926  136.6389  154.1915 O   0  0  0  0  0  0  0  0  0  0  0  0
  150.8411  136.6478  155.1341 C   0  0  0  0  0  0  0  0  0  0  0  0
  151.0608  137.7540  156.1764 C   0  0  0  0  0  0  0  0  0  0  0  0
  151.6293  139.0509  155.5741 C   0  0  0  0  0  0  0  0  0  0  0  0
  151.6617  140.1856  156.5585 C   0  0  0  0  0  0  0  0  0  0  0  0
  152.4596  140.1363  157.6267 N   0  0  0  0  0  0  0  0  0  0  0  0
  152.2085  141.3377  158.2574 C   0  0  0  0  0  0  0  0  0  0  0  0
  152.7509  141.8848  159.4423 C   0  0  0  0  0  0  0  0  0  0  0  0
  152.3332  143.1519  159.8996 C   0  0  0  0  0  0  0  0  0  0  0  0
  151.3690  143.8875  159.1806 C   0  0  0  0  0  0  0  0  0  0  0  0
  150.8164  143.3599  157.9977 C   0  0  0  0  0  0  0  0  0  0  0  0
  151.2375  142.0948  157.5449 C   0  0  0  0  0  0  0  0  0  0  0  0
  150.8999  141.3083  156.4469 N   0  0  0  0  0  0  0  0  0  0  0  0
  149.9174  141.6738  155.4314 C   0  0  0  0  0  0  0  0  0  0  0  0
  148.4684  141.3825  155.8714 C   0  0  1  0  0  0  0  0  0  0  0  0
  148.0316  142.3803  156.7722 O   0  0  0  0  0  0  0  0  0  0  0  0
  147.4865  141.3048  154.6865 C   0  0  0  0  0  0  0  0  0  0  0  0
  146.2667  140.9874  155.1210 F   0  0  0  0  0  0  0  0  0  0  0  0
  147.4392  142.4629  154.0274 F   0  0  0  0  0  0  0  0  0  0  0  0
  147.8831  140.3510  153.8437 F   0  0  0  0  0  0  0  0  0  0  0  0
  151.5467  136.3627  153.3564 H   0  0  0  0  0  0  0  0  0  0  0  0
  149.8896  136.7816  154.6184 H   0  0  0  0  0  0  0  0  0  0  0  0
  150.8088  135.6740  155.6235 H   0  0  0  0  0  0  0  0  0  0  0  0
  150.1058  137.9757  156.6543 H   0  0  0  0  0  0  0  0  0  0  0  0
  151.7133  137.3848  156.9676 H   0  0  0  0  0  0  0  0  0  0  0  0
  152.6180  138.8603  155.1652 H   0  0  0  0  0  0  0  0  0  0  0  0
  151.0150  139.3572  154.7265 H   0  0  0  0  0  0  0  0  0  0  0  0
  153.4896  141.3284  160.0000 H   0  0  0  0  0  0  0  0  0  0  0  0
  152.7540  143.5613  160.8064 H   0  0  0  0  0  0  0  0  0  0  0  0
  151.0537  144.8569  159.5380 H   0  0  0  0  0  0  0  0  0  0  0  0
  150.0780  143.9218  157.4454 H   0  0  0  0  0  0  0  0  0  0  0  0
  150.0389  142.7149  155.1402 H   0  0  0  0  0  0  0  0  0  0  0  0
  150.1444  141.1003  154.5322 H   0  0  0  0  0  0  0  0  0  0  0  0
  148.4455  140.4313  156.4046 H   0  0  0  0  0  0  0  0  0  0  0  0
  148.4000  143.2078  156.5036 H   0  0  0  0  0  0  0  0  0  0  0  0
  1  2  1  0  0  0  0
  1 21  1  0  0  0  0
  2  3  1  0  0  0  0
  2 22  1  0  0  0  0
  2 23  1  0  0  0  0
  3  4  1  0  0  0  0
  3 24  1  0  0  0  0
  3 25  1  0  0  0  0
  4  5  1  0  0  0  0
  4 26  1  0  0  0  0
  4 27  1  0  0  0  0
  5 13  1  0  0  0  0
  5  6  2  0  0  0  0
  6  7  1  0  0  0  0
  7 12  2  0  0  0  0
  7  8  1  0  0  0  0
  8  9  2  0  0  0  0
  8 28  1  0  0  0  0
  9 10  1  0  0  0  0
  9 29  1  0  0  0  0
 10 11  2  0  0  0  0
 10 30  1  0  0  0  0
 11 12  1  0  0  0  0
 11 31  1  0  0  0  0
 12 13  1  0  0  0  0
 13 14  1  0  0  0  0
 14 15  1  0  0  0  0
 14 32  1  0  0  0  0
 14 33  1  0  0  0  0
 15 16  1  0  0  0  0
 15 17  1  0  0  0  0
 15 34  1  0  0  0  0
 16 35  1  0  0  0  0
 17 18  1  0  0  0  0
 17 19  1  0  0  0  0
 17 20  1  0  0  0  0
M  END
> <s_m_source_file>
AV-unprocessed.smi

> <i_m_source_file_index>
2787

> <i_lp_mmshare_version>
43012

> <i_f3d_flags>
0

> <s_epik_input>
W09IXVtDSDJdW0NIMl1bQ0gyXWMobjEpbihbQ0gyXVtDQEhdKFtPSF0pQyhGKShGKUYpYyhjMTIpW2NIXVtjSF1bY0hdW2NIXTI=

> <s_epik_cmdline>
J2VwaWtfcHl0aG9uJywgJy1waCcsICc3LjAnLCAnLXRuJywgJzgnLCAnLW1hJywgJzIwMCcsICctbWV0YWxfYmluZGluZycsICctaW1hZScsICc8aW5maWxlLm1hZT4nLCAnLW9tYWUnLCAnPG91dGZpbGUubWFlPic=

> <r_epik_Ionization_Penalty>
0.137914

> <r_epik_Ionization_Penalty_Charging>
0

> <r_epik_Ionization_Penalty_Neutral>
0.137914

> <r_epik_State_Penalty>
0.107668

> <r_epik_Charging_Adjusted_Penalty>
0.107668

> <i_epik_Tot_Q>
0

> <i_epik_Tot_abs_Q>
0

> <r_epik_Metal_State_Penalty>
0.000111872

> <b_epik_Metal_Only>
0

> <s_lp_Force_Field>
OPLS_2005

> <r_lp_Energy>
11.7706

> <b_lp_Chiralities_Consistent>
1

> <s_lp_Variant>
AV-unprocessed.smi:2787-2

> <Gold.Version>
5.8.1

> <Gold.Id.Protein>
6NUR|6NUR_protein|mol2

> <Gold.PLP.Fitness>
52.2070

> <Gold.PLP.PLP>
-41.4241

> <Gold.PLP.part.hbond>
-4.0000

> <Gold.PLP.part.metal>
0.0000

> <Gold.PLP.part.buried>
-2.7605

> <Gold.PLP.part.nonpolar>
-34.9467

> <Gold.PLP.part.repulsive>
0.0000

> <Gold.PLP.ligand.clash>
0.0000

> <Gold.PLP.ligand.torsion>
0.6335

> <Gold.PLP.Chemscore.Hbond>
4.0000

> <Gold.PLP.Chemscore.CHOScore>
0.0000

> <Gold.PLP.Chemscore.Metal>
0.0000

> <Gold.Chemscore.Hbonds>
donor molecule, donor type, donor heavy atom, donor atom, acceptor molecule, acceptor atom, score
      L1  H     1    21       P1  7949  1.00
      L1  H    16    35       P1  8028  1.00
      P1  H  7997  8010       L1     6  0.65
      P1  H 10752 10763       L1     1  0.24

> <Gold.PLP.Chemscore.Internal.Correction>
0.0499

> <Gold.Rescore>
     Score         DG    S(hbond)    S(metal)    S(lipo)     H(rot)  DE(clash)    DE(int)     intcor
     14.56     -15.43       2.31        0.00      94.29       3.44       0.13       0.75       ----

> <Gold.Chemscore.Fitness>
14.5559

> <Gold.Chemscore.DG>
-15.4339

> <Gold.Chemscore.ZeroCoef>
-5.4800

> <Gold.Chemscore.Hbond>
2.3114

> <Gold.Chemscore.Metal>
0.0000

> <Gold.Chemscore.Lipo>
94.2938

> <Gold.Chemscore.Internal_Hbond>
0.0000

> <Gold.Chemscore.DEClash>
0.1287

> <Gold.Chemscore.DEInternal>
0.7493

> <Gold.Chemscore.Rot>
3.4369

> <Gold.Chemscore.Internal.Correction>
   9.000000E+99

> <Gold.Chemscore.Hbonds>
donor molecule, donor type, donor heavy atom, donor atom, acceptor molecule, acceptor atom, score
      L1  H     1    21       P1  7949  0.90
      L1  H    16    35       P1  8028  0.60
      P1  H  7997  8010       L1     6  0.12

> <Gold.Chemscore.Hbond.Weighted>
-7.7199

> <Gold.Chemscore.Metal.Weighted>
-0.0000

> <Gold.Chemscore.Lipo.Weighted>
-11.0324

> <Gold.Chemscore.Internal_Hbond.Weighted>
0.0000

> <Gold.Chemscore.DEClash.Weighted>
0.1287

> <Gold.Chemscore.DEInternal.Weighted>
0.7493

> <Gold.Chemscore.Rot.Weighted>
8.7984

> <Gold.Chemscore.Internal.Correction.Weighted>
   9.000000E+99

> <Gold.Protein.RotatedTorsions>
[ 6907 6896 6895 6894 ] final  127.62 input  -60.11 | X-H torsion
[ 7974 7965 7964 7962 ] final  118.00 input  175.53 | X-H torsion
[ 8008 7997 7996 7995 ] final   61.59 input   59.86 | X-H torsion
[ 10167 10162 10161 10158 ] final  -84.30 input  -65.29 | X-H torsion
[ 10718 10713 10712 10709 ] final -171.22 input   66.30 | X-H torsion
[ 10763 10752 10751 10750 ] final   13.59 input  -60.55 | X-H torsion
[ 11005 11000 10999 10996 ] final  178.90 input  -57.11 | X-H torsion

> <Gold.Protein.ActiveResidues>
 VAL166  LYS551  ARG553  GLY616  TRP617  ASP618  TYR619  PRO620  LYS621  CYS622 
 ASP623  PHE694  ASN695  SER759  ASP760  ASP761  ALA762  ILE779  LEU786  VAL792 
 PHE793  MET794  SER795  GLU796  ALA797  LYS798  CYS799  TRP800  GLU811  SER814 

> <Gold.Protein.RotatedAtoms>
  152.3796  133.6528  159.6150 H   0  0  0  0  0  0  0  0  0  0  0  0  # atno 6907 bound_to 6896
  150.7730  133.9136  159.3385 H   0  0  0  0  0  0  0  0  0  0  0  0  # atno 6908 bound_to 6896
  151.6944  135.0942  160.0291 H   0  0  0  0  0  0  0  0  0  0  0  0  # atno 6909 bound_to 6896
  145.1606  139.3157  143.4519 H   0  0  0  0  0  0  0  0  0  0  0  0  # atno 7974 bound_to 7965
  155.6008  140.3494  155.4593 H   0  0  0  0  0  0  0  0  0  0  0  0  # atno 8008 bound_to 7997
  156.0230  140.1258  157.0362 H   0  0  0  0  0  0  0  0  0  0  0  0  # atno 8009 bound_to 7997
  154.4322  140.1059  156.5976 H   0  0  0  0  0  0  0  0  0  0  0  0  # atno 8010 bound_to 7997
  140.4146  143.2609  151.8972 H   0  0  0  0  0  0  0  0  0  0  0  0  # atno 10167 bound_to 10162
  156.7376  130.9330  151.3108 H   0  0  0  0  0  0  0  0  0  0  0  0  # atno 10718 bound_to 10713
  153.1706  135.6811  153.8613 H   0  0  0  0  0  0  0  0  0  0  0  0  # atno 10763 bound_to 10752
  153.7978  135.3160  155.3387 H   0  0  0  0  0  0  0  0  0  0  0  0  # atno 10764 bound_to 10752
  154.7995  135.4786  154.0334 H   0  0  0  0  0  0  0  0  0  0  0  0  # atno 10765 bound_to 10752
  140.4002  134.6784  157.4557 H   0  0  0  0  0  0  0  0  0  0  0  0  # atno 11005 bound_to 11000
  146.3483  140.1714  142.8589 LP  0  0  0  0  0  0  0  0  0  0  0  0  # atno 17320 bound_to 7965
  145.0335  140.8890  143.5095 LP  0  0  0  0  0  0  0  0  0  0  0  0  # atno 17321 bound_to 7965
  139.4782  144.5502  151.8398 LP  0  0  0  0  0  0  0  0  0  0  0  0  # atno 17342 bound_to 10162
  140.4601  144.1734  150.5905 LP  0  0  0  0  0  0  0  0  0  0  0  0  # atno 17343 bound_to 10162
  157.6832  130.9160  150.0319 LP  0  0  0  0  0  0  0  0  0  0  0  0  # atno 17370 bound_to 10713
  156.1486  130.3642  149.9472 LP  0  0  0  0  0  0  0  0  0  0  0  0  # atno 17371 bound_to 10713
  140.0342  134.6361  155.9065 LP  0  0  0  0  0  0  0  0  0  0  0  0  # atno 17394 bound_to 11000
  141.1859  133.6556  156.5219 LP  0  0  0  0  0  0  0  0  0  0  0  0  # atno 17395 bound_to 11000

$$$$
