AV-unprocessed.smi:737|AV-procd|sdf|3536|dock9
  -GOLD-   22720 0533D 1   1.00000     0.00000
 Structure written by MMmdl.
 45 47  0  0  0  0  0  0  0  0  1 V2000
  148.0938  139.7575  153.8276 C   0  0  0  0  0  0  0  0  0  0  0  0
  149.0274  138.6461  153.7407 N   0  0  0  0  0  0  0  0  0  0  0  0
  150.0425  138.4878  154.6943 C   0  0  0  0  0  0  0  0  0  0  0  0
  150.7482  139.5637  155.1135 N   0  0  0  0  0  0  0  0  0  0  0  0
  151.7123  139.3658  156.0218 C   0  0  0  0  0  0  0  0  0  0  0  0
  152.1048  138.2214  156.6030 N   0  0  0  0  0  0  0  0  0  0  0  0
  151.4111  137.1498  156.1959 C   0  0  0  0  0  0  0  0  0  0  0  0
  151.6015  135.8476  156.6256 N   0  0  0  0  0  0  0  0  0  0  0  0
  150.6748  135.1945  155.9291 C   0  0  0  0  0  0  0  0  0  0  0  0
  149.9017  135.9153  155.0936 N   0  0  0  0  0  0  0  0  0  0  0  0
  148.8365  135.4044  154.2481 C   0  0  0  0  0  0  0  0  0  0  0  0
  148.3810  133.9892  154.6595 C   0  0  2  0  0  0  0  0  0  0  0  0
  149.3473  133.0062  154.3442 O   0  0  0  0  0  0  0  0  0  0  0  0
  147.0349  133.5777  154.0443 C   0  0  0  0  0  0  0  0  0  0  0  0
  147.1106  133.6607  152.6276 O   0  0  0  0  0  0  0  0  0  0  0  0
  146.0573  133.0682  151.9815 C   0  0  0  0  0  0  0  0  0  0  0  0
  145.8431  131.6728  152.0863 C   0  0  0  0  0  0  0  0  0  0  0  0
  146.7738  130.7994  152.9080 C   0  0  0  0  0  0  0  0  0  0  0  0
  144.7539  131.0803  151.4147 C   0  0  0  0  0  0  0  0  0  0  0  0
  143.8897  131.8679  150.6319 C   0  0  0  0  0  0  0  0  0  0  0  0
  144.1138  133.2518  150.5114 C   0  0  0  0  0  0  0  0  0  0  0  0
  145.1989  133.8554  151.1793 C   0  0  0  0  0  0  0  0  0  0  0  0
  145.4370  135.3466  151.0323 C   0  0  0  0  0  0  0  0  0  0  0  0
  150.3574  137.2249  155.2357 C   0  0  0  0  0  0  0  0  0  0  0  0
  147.3901  139.7167  152.9965 H   0  0  0  0  0  0  0  0  0  0  0  0
  148.6211  140.7109  153.7817 H   0  0  0  0  0  0  0  0  0  0  0  0
  147.5262  139.7135  154.7577 H   0  0  0  0  0  0  0  0  0  0  0  0
  148.9758  138.0221  152.9480 H   0  0  0  0  0  0  0  0  0  0  0  0
  152.2492  140.2509  156.3290 H   0  0  0  0  0  0  0  0  0  0  0  0
  150.5499  134.1262  156.0326 H   0  0  0  0  0  0  0  0  0  0  0  0
  147.9934  136.0945  154.3028 H   0  0  0  0  0  0  0  0  0  0  0  0
  149.1734  135.4259  153.2125 H   0  0  0  0  0  0  0  0  0  0  0  0
  148.2730  133.9657  155.7446 H   0  0  0  0  0  0  0  0  0  0  0  0
  149.1534  132.2242  154.8381 H   0  0  0  0  0  0  0  0  0  0  0  0
  146.7540  132.5748  154.3689 H   0  0  0  0  0  0  0  0  0  0  0  0
  146.2562  134.2544  154.3998 H   0  0  0  0  0  0  0  0  0  0  0  0
  146.7909  129.7796  152.5225 H   0  0  0  0  0  0  0  0  0  0  0  0
  146.4415  130.7650  153.9453 H   0  0  0  0  0  0  0  0  0  0  0  0
  147.7954  131.1797  152.8852 H   0  0  0  0  0  0  0  0  0  0  0  0
  144.5800  130.0172  151.4947 H   0  0  0  0  0  0  0  0  0  0  0  0
  143.0579  131.4088  150.1181 H   0  0  0  0  0  0  0  0  0  0  0  0
  143.4501  133.8475  149.9022 H   0  0  0  0  0  0  0  0  0  0  0  0
  144.8811  135.7538  150.1873 H   0  0  0  0  0  0  0  0  0  0  0  0
  146.4948  135.5543  150.8683 H   0  0  0  0  0  0  0  0  0  0  0  0
  145.1192  135.8705  151.9336 H   0  0  0  0  0  0  0  0  0  0  0  0
  1  2  1  0  0  0  0
  1 25  1  0  0  0  0
  1 26  1  0  0  0  0
  1 27  1  0  0  0  0
  2  3  1  0  0  0  0
  2 28  1  0  0  0  0
  3 24  1  0  0  0  0
  3  4  2  0  0  0  0
  4  5  1  0  0  0  0
  5  6  2  0  0  0  0
  5 29  1  0  0  0  0
  6  7  1  0  0  0  0
  7 24  2  0  0  0  0
  7  8  1  0  0  0  0
  8  9  2  0  0  0  0
  9 10  1  0  0  0  0
  9 30  1  0  0  0  0
 10 11  1  0  0  0  0
 10 24  1  0  0  0  0
 11 12  1  0  0  0  0
 11 31  1  0  0  0  0
 11 32  1  0  0  0  0
 12 13  1  0  0  0  0
 12 14  1  0  0  0  0
 12 33  1  0  0  0  0
 13 34  1  0  0  0  0
 14 15  1  0  0  0  0
 14 35  1  0  0  0  0
 14 36  1  0  0  0  0
 15 16  1  0  0  0  0
 16 22  1  0  0  0  0
 16 17  2  0  0  0  0
 17 18  1  0  0  0  0
 17 19  1  0  0  0  0
 18 37  1  0  0  0  0
 18 38  1  0  0  0  0
 18 39  1  0  0  0  0
 19 20  2  0  0  0  0
 19 40  1  0  0  0  0
 20 21  1  0  0  0  0
 20 41  1  0  0  0  0
 21 22  2  0  0  0  0
 21 42  1  0  0  0  0
 22 23  1  0  0  0  0
 23 43  1  0  0  0  0
 23 44  1  0  0  0  0
 23 45  1  0  0  0  0
M  END
> <s_m_source_file>
AV-unprocessed.smi

> <i_m_source_file_index>
737

> <i_lp_mmshare_version>
43012

> <i_f3d_flags>
0

> <s_epik_input>
bjFbY0hdbmMoW05IXVtDSDNdKWMoYzEyKW4oW2NIXW4yKVtDSDJdW0NASF0oW09IXSlbQ0gyXU9jM2MoW0NIM10pW2NIXVtjSF1bY0hdYzNbQ0gzXQ==

> <s_epik_cmdline>
J2VwaWtfcHl0aG9uJywgJy1waCcsICc3LjAnLCAnLXRuJywgJzgnLCAnLW1hJywgJzIwMCcsICctbWV0YWxfYmluZGluZycsICctaW1hZScsICc8aW5maWxlLm1hZT4nLCAnLW9tYWUnLCAnPG91dGZpbGUubWFlPic=

> <r_lp_tautomer_probability>
1

> <r_epik_Ionization_Penalty>
0.0070961

> <r_epik_Ionization_Penalty_Charging>
0

> <r_epik_Ionization_Penalty_Neutral>
0.0070961

> <r_epik_State_Penalty>
-0

> <r_epik_Charging_Adjusted_Penalty>
0

> <i_epik_Tot_Q>
0

> <i_epik_Tot_abs_Q>
0

> <r_epik_Metal_State_Penalty>
-0

> <b_epik_Metal_Only>
0

> <s_lp_Force_Field>
OPLS_2005

> <r_lp_Energy>
18.2803

> <b_lp_Chiralities_Consistent>
1

> <s_lp_Variant>
AV-unprocessed.smi:737-1

> <Gold.Version>
5.8.1

> <Gold.Id.Protein>
6NUR|6NUR_protein|mol2

> <Gold.PLP.Fitness>
42.0025

> <Gold.PLP.PLP>
-34.4421

> <Gold.PLP.part.hbond>
-4.0000

> <Gold.PLP.part.metal>
0.0000

> <Gold.PLP.part.buried>
1.0051

> <Gold.PLP.part.nonpolar>
-32.1015

> <Gold.PLP.part.repulsive>
0.7694

> <Gold.PLP.ligand.clash>
0.0000

> <Gold.PLP.ligand.torsion>
0.7124

> <Gold.PLP.Chemscore.Hbond>
2.9500

> <Gold.PLP.Chemscore.CHOScore>
0.0000

> <Gold.PLP.Chemscore.Metal>
0.0000

> <Gold.Chemscore.Hbonds>
donor molecule, donor type, donor heavy atom, donor atom, acceptor molecule, acceptor atom, score
      L1  H     2    28       P1  7948  0.91
      P1  H  7989  7998       L1     4  0.44
      P1  H 10752 10765       L1     8  0.24

> <Gold.PLP.Chemscore.Internal.Correction>
0.1353

> <Gold.Rescore>
     Score         DG    S(hbond)    S(metal)    S(lipo)     H(rot)  DE(clash)    DE(int)     intcor
      9.14     -13.59       1.72        0.00      83.88       2.91       3.74       0.71       ----

> <Gold.Chemscore.Fitness>
9.1368

> <Gold.Chemscore.DG>
-13.5881

> <Gold.Chemscore.ZeroCoef>
-5.4800

> <Gold.Chemscore.Hbond>
1.7171

> <Gold.Chemscore.Metal>
0.0000

> <Gold.Chemscore.Lipo>
83.8815

> <Gold.Chemscore.Internal_Hbond>
0.0000

> <Gold.Chemscore.DEClash>
3.7396

> <Gold.Chemscore.DEInternal>
0.7116

> <Gold.Chemscore.Rot>
2.9067

> <Gold.Chemscore.Internal.Correction>
   9.000000E+99

> <Gold.Chemscore.Hbonds>
donor molecule, donor type, donor heavy atom, donor atom, acceptor molecule, acceptor atom, score
      L1  H     2    28       P1  7948  0.87
      P1  H  7989  7998       L1     4  0.24
      P1  H 10752 10765       L1     8  0.01

> <Gold.Chemscore.Hbond.Weighted>
-5.7352

> <Gold.Chemscore.Metal.Weighted>
-0.0000

> <Gold.Chemscore.Lipo.Weighted>
-9.8141

> <Gold.Chemscore.Internal_Hbond.Weighted>
0.0000

> <Gold.Chemscore.DEClash.Weighted>
3.7396

> <Gold.Chemscore.DEInternal.Weighted>
0.7116

> <Gold.Chemscore.Rot.Weighted>
7.4412

> <Gold.Chemscore.Internal.Correction.Weighted>
   9.000000E+99

> <Gold.Protein.RotatedTorsions>
[ 6907 6896 6895 6894 ] final  100.64 input  -60.11 | X-H torsion
[ 7974 7965 7964 7962 ] final   86.94 input  175.53 | X-H torsion
[ 8008 7997 7996 7995 ] final  168.18 input   59.86 | X-H torsion
[ 10167 10162 10161 10158 ] final -120.23 input  -65.29 | X-H torsion
[ 10718 10713 10712 10709 ] final  101.80 input   66.30 | X-H torsion
[ 10763 10752 10751 10750 ] final -127.46 input  -60.55 | X-H torsion
[ 11005 11000 10999 10996 ] final  121.55 input  -57.11 | X-H torsion

> <Gold.Protein.ActiveResidues>
 VAL166  LYS551  ARG553  GLY616  TRP617  ASP618  TYR619  PRO620  LYS621  CYS622 
 ASP623  PHE694  ASN695  SER759  ASP760  ASP761  ALA762  ILE779  LEU786  VAL792 
 PHE793  MET794  SER795  GLU796  ALA797  LYS798  CYS799  TRP800  GLU811  SER814 

> <Gold.Protein.RotatedAtoms>
  152.5367  134.0246  159.7996 H   0  0  0  0  0  0  0  0  0  0  0  0  # atno 6907 bound_to 6896
  151.0427  133.5685  159.2657 H   0  0  0  0  0  0  0  0  0  0  0  0  # atno 6908 bound_to 6896
  151.2648  135.0673  159.9165 H   0  0  0  0  0  0  0  0  0  0  0  0  # atno 6909 bound_to 6896
  145.5656  139.2308  143.2435 H   0  0  0  0  0  0  0  0  0  0  0  0  # atno 7974 bound_to 7965
  156.1570  140.1597  156.8676 H   0  0  0  0  0  0  0  0  0  0  0  0  # atno 8008 bound_to 7997
  154.5124  140.0798  156.8051 H   0  0  0  0  0  0  0  0  0  0  0  0  # atno 8009 bound_to 7997
  155.3784  140.3404  155.4248 H   0  0  0  0  0  0  0  0  0  0  0  0  # atno 8010 bound_to 7997
  140.0380  143.5181  152.2144 H   0  0  0  0  0  0  0  0  0  0  0  0  # atno 10167 bound_to 10162
  157.6819  131.0736  150.5308 H   0  0  0  0  0  0  0  0  0  0  0  0  # atno 10718 bound_to 10713
  154.8752  135.3961  154.3598 H   0  0  0  0  0  0  0  0  0  0  0  0  # atno 10763 bound_to 10752
  153.4372  135.7026  153.6198 H   0  0  0  0  0  0  0  0  0  0  0  0  # atno 10764 bound_to 10752
  153.4794  135.3772  155.2403 H   0  0  0  0  0  0  0  0  0  0  0  0  # atno 10765 bound_to 10752
  139.9231  134.9639  156.7975 H   0  0  0  0  0  0  0  0  0  0  0  0  # atno 11005 bound_to 11000
  146.1820  140.6482  142.9185 LP  0  0  0  0  0  0  0  0  0  0  0  0  # atno 17320 bound_to 7965
  144.7462  140.5073  143.6834 LP  0  0  0  0  0  0  0  0  0  0  0  0  # atno 17321 bound_to 7965
  139.6032  144.7589  151.3122 LP  0  0  0  0  0  0  0  0  0  0  0  0  # atno 17342 bound_to 10162
  140.7273  143.6968  150.7877 LP  0  0  0  0  0  0  0  0  0  0  0  0  # atno 17343 bound_to 10162
  156.5618  130.4257  149.6059 LP  0  0  0  0  0  0  0  0  0  0  0  0  # atno 17370 bound_to 10713
  156.2815  130.7073  151.1898 LP  0  0  0  0  0  0  0  0  0  0  0  0  # atno 17371 bound_to 10713
  140.6417  133.9812  155.7710 LP  0  0  0  0  0  0  0  0  0  0  0  0  # atno 17394 bound_to 11000
  141.0767  134.0124  157.3447 LP  0  0  0  0  0  0  0  0  0  0  0  0  # atno 17395 bound_to 11000

$$$$
