AV-unprocessed.smi:639|AV-procd|sdf|3144|dock3
  -GOLD-   22720 0 73D 1   1.00000     0.00000
 Structure written by MMmdl.
 24 25  0  0  0  0  0  0  0  0  1 V2000
  152.0956  145.3103  158.6752 C   0  0  0  0  0  0  0  0  0  0  0  0
  152.0686  143.8638  158.6409 N   0  0  0  0  0  0  0  0  0  0  0  0
  151.3143  143.0379  157.8370 C   0  0  0  0  0  0  0  0  0  0  0  0
  151.6242  141.7446  158.1591 C   0  0  0  0  0  0  0  0  0  0  0  0
  151.0673  140.4642  157.5680 C   0  0  1  0  0  0  0  0  0  0  0  0
  150.3520  139.5970  158.6205 C   0  0  0  0  0  0  0  0  0  0  0  0
  150.2019  140.7054  156.4227 N   0  0  0  0  0  0  0  0  0  0  0  0
  150.7117  140.2337  155.2766 C   0  0  0  0  0  0  0  0  0  0  0  0
  150.1958  140.3236  154.1652 O   0  0  0  0  0  0  0  0  0  0  0  0
  151.8764  139.6419  155.5583 N   0  0  0  0  0  0  0  0  0  0  0  0
  152.1741  139.6969  156.8555 C   0  0  0  0  0  0  0  0  0  0  0  0
  153.1660  139.2183  157.4037 O   0  0  0  0  0  0  0  0  0  0  0  0
  152.5987  141.8971  159.1901 C   0  0  0  0  0  0  0  0  0  0  0  0
  152.8627  143.1618  159.4734 N   0  0  0  0  0  0  0  0  0  0  0  0
  151.1804  145.7102  158.2375 H   0  0  0  0  0  0  0  0  0  0  0  0
  152.9512  145.6743  158.1060 H   0  0  0  0  0  0  0  0  0  0  0  0
  152.1750  145.6598  159.7053 H   0  0  0  0  0  0  0  0  0  0  0  0
  150.6217  143.4332  157.1086 H   0  0  0  0  0  0  0  0  0  0  0  0
  151.0189  139.3330  159.4420 H   0  0  0  0  0  0  0  0  0  0  0  0
  149.9797  138.6665  158.1896 H   0  0  0  0  0  0  0  0  0  0  0  0
  149.4986  140.1255  159.0466 H   0  0  0  0  0  0  0  0  0  0  0  0
  149.3222  141.1958  156.4953 H   0  0  0  0  0  0  0  0  0  0  0  0
  152.4597  139.1934  154.8671 H   0  0  0  0  0  0  0  0  0  0  0  0
  153.1201  141.1275  159.7400 H   0  0  0  0  0  0  0  0  0  0  0  0
  1  2  1  0  0  0  0
  1 15  1  0  0  0  0
  1 16  1  0  0  0  0
  1 17  1  0  0  0  0
  2 14  1  0  0  0  0
  2  3  1  0  0  0  0
  3  4  2  0  0  0  0
  3 18  1  0  0  0  0
  4  5  1  0  0  0  0
  4 13  1  0  0  0  0
  5 11  1  0  0  0  0
  5  6  1  0  0  0  0
  5  7  1  0  0  0  0
  6 19  1  0  0  0  0
  6 20  1  0  0  0  0
  6 21  1  0  0  0  0
  7  8  1  0  0  0  0
  7 22  1  0  0  0  0
  8  9  2  0  0  0  0
  8 10  1  0  0  0  0
 10 11  1  0  0  0  0
 10 23  1  0  0  0  0
 11 12  2  0  0  0  0
 13 14  2  0  0  0  0
 13 24  1  0  0  0  0
M  END
> <s_m_source_file>
AV-unprocessed.smi

> <i_m_source_file_index>
639

> <i_lp_mmshare_version>
43012

> <i_f3d_flags>
0

> <s_epik_input>
W0NIM11uMVtjSF1jKFtjSF1uMSlbQ0BAXTIoW0NIM10pW05IXUMoPU8pW05IXUMyPU8=

> <s_epik_cmdline>
J2VwaWtfcHl0aG9uJywgJy1waCcsICc3LjAnLCAnLXRuJywgJzgnLCAnLW1hJywgJzIwMCcsICctbWV0YWxfYmluZGluZycsICctaW1hZScsICc8aW5maWxlLm1hZT4nLCAnLW9tYWUnLCAnPG91dGZpbGUubWFlPic=

> <r_lp_tautomer_probability>
1

> <r_epik_Ionization_Penalty>
0.0282779

> <r_epik_Ionization_Penalty_Charging>
0

> <r_epik_Ionization_Penalty_Neutral>
0.0282779

> <r_epik_State_Penalty>
0.022996

> <r_epik_Charging_Adjusted_Penalty>
0.022996

> <i_epik_Tot_Q>
0

> <i_epik_Tot_abs_Q>
0

> <r_epik_Metal_State_Penalty>
0.428533

> <b_epik_Metal_Only>
0

> <s_lp_Force_Field>
OPLS_2005

> <r_lp_Energy>
13.4697

> <b_lp_Chiralities_Consistent>
1

> <s_lp_Variant>
AV-unprocessed.smi:639-1

> <Gold.Version>
5.8.1

> <Gold.Id.Protein>
6NUR|6NUR_protein|mol2

> <Gold.PLP.Fitness>
33.2448

> <Gold.PLP.PLP>
-26.1861

> <Gold.PLP.part.hbond>
-2.0000

> <Gold.PLP.part.metal>
0.0000

> <Gold.PLP.part.buried>
-3.4960

> <Gold.PLP.part.nonpolar>
-20.9948

> <Gold.PLP.part.repulsive>
0.8316

> <Gold.PLP.ligand.clash>
0.0000

> <Gold.PLP.ligand.torsion>
0.0668

> <Gold.PLP.Chemscore.Hbond>
1.4928

> <Gold.PLP.Chemscore.CHOScore>
0.8623

> <Gold.PLP.Chemscore.Metal>
0.0000

> <Gold.Chemscore.Hbonds>
donor molecule, donor type, donor heavy atom, donor atom, acceptor molecule, acceptor atom, score
      P1  H  7989  7998       L1     9  0.55
      P1  H  7997  8008       L1    12  0.90
      L1  C     3    18       P1  8028  0.85

> <Gold.PLP.Chemscore.Internal.Correction>
0.1268

> <Gold.Rescore>
     Score         DG    S(hbond)    S(metal)    S(lipo)     H(rot)  DE(clash)    DE(int)     intcor
     12.13     -12.21       1.00        0.00      51.00       1.00       0.02       0.07       ----

> <Gold.Chemscore.Fitness>
12.1250

> <Gold.Chemscore.DG>
-12.2140

> <Gold.Chemscore.ZeroCoef>
-5.4800

> <Gold.Chemscore.Hbond>
0.9961

> <Gold.Chemscore.Metal>
0.0000

> <Gold.Chemscore.Lipo>
51.0017

> <Gold.Chemscore.Internal_Hbond>
0.0000

> <Gold.Chemscore.DEClash>
0.0217

> <Gold.Chemscore.DEInternal>
0.0673

> <Gold.Chemscore.Rot>
1.0000

> <Gold.Chemscore.Internal.Correction>
   9.000000E+99

> <Gold.Chemscore.Hbonds>
donor molecule, donor type, donor heavy atom, donor atom, acceptor molecule, acceptor atom, score
      P1  H  7989  7998       L1     9  0.04
      P1  H  7997  8008       L1    12  0.17

> <Gold.Chemscore.Hbond.Weighted>
-3.3268

> <Gold.Chemscore.Metal.Weighted>
-0.0000

> <Gold.Chemscore.Lipo.Weighted>
-5.9672

> <Gold.Chemscore.Internal_Hbond.Weighted>
0.0000

> <Gold.Chemscore.DEClash.Weighted>
0.0217

> <Gold.Chemscore.DEInternal.Weighted>
0.0673

> <Gold.Chemscore.Rot.Weighted>
2.5600

> <Gold.Chemscore.Internal.Correction.Weighted>
   9.000000E+99

> <Gold.Protein.RotatedTorsions>
[ 6907 6896 6895 6894 ] final  152.40 input  -60.11 | X-H torsion
[ 7974 7965 7964 7962 ] final  179.98 input  175.53 | X-H torsion
[ 8008 7997 7996 7995 ] final  -53.48 input   59.86 | X-H torsion
[ 10167 10162 10161 10158 ] final  -15.76 input  -65.29 | X-H torsion
[ 10718 10713 10712 10709 ] final  163.79 input   66.30 | X-H torsion
[ 10763 10752 10751 10750 ] final   84.70 input  -60.55 | X-H torsion
[ 11005 11000 10999 10996 ] final -115.73 input  -57.11 | X-H torsion

> <Gold.Protein.ActiveResidues>
 VAL166  LYS551  ARG553  GLY616  TRP617  ASP618  TYR619  PRO620  LYS621  CYS622 
 ASP623  PHE694  ASN695  SER759  ASP760  ASP761  ALA762  ILE779  LEU786  VAL792 
 PHE793  MET794  SER795  GLU796  ALA797  LYS798  CYS799  TRP800  GLU811  SER814 

> <Gold.Protein.RotatedAtoms>
  152.0873  133.4182  159.4527 H   0  0  0  0  0  0  0  0  0  0  0  0  # atno 6907 bound_to 6896
  150.6862  134.2913  159.4677 H   0  0  0  0  0  0  0  0  0  0  0  0  # atno 6908 bound_to 6896
  152.0760  134.9502  160.0624 H   0  0  0  0  0  0  0  0  0  0  0  0  # atno 6909 bound_to 6896
  144.7141  140.0630  143.6432 H   0  0  0  0  0  0  0  0  0  0  0  0  # atno 7974 bound_to 7965
  154.4134  140.1199  156.5160 H   0  0  0  0  0  0  0  0  0  0  0  0  # atno 8008 bound_to 7997
  155.6751  140.3496  155.4814 H   0  0  0  0  0  0  0  0  0  0  0  0  # atno 8009 bound_to 7997
  155.9600  140.1121  157.0894 H   0  0  0  0  0  0  0  0  0  0  0  0  # atno 8010 bound_to 7997
  140.7223  143.5185  150.9662 H   0  0  0  0  0  0  0  0  0  0  0  0  # atno 10167 bound_to 10162
  157.1035  131.0449  151.2487 H   0  0  0  0  0  0  0  0  0  0  0  0  # atno 10718 bound_to 10713
  153.1406  135.4644  154.9490 H   0  0  0  0  0  0  0  0  0  0  0  0  # atno 10763 bound_to 10752
  154.7744  135.3168  154.8125 H   0  0  0  0  0  0  0  0  0  0  0  0  # atno 10764 bound_to 10752
  153.8649  135.6909  153.4833 H   0  0  0  0  0  0  0  0  0  0  0  0  # atno 10765 bound_to 10752
  141.0468  133.9749  157.2903 H   0  0  0  0  0  0  0  0  0  0  0  0  # atno 11005 bound_to 11000
  145.9848  139.2969  143.1020 LP  0  0  0  0  0  0  0  0  0  0  0  0  # atno 17320 bound_to 7965
  145.8970  140.9267  143.0523 LP  0  0  0  0  0  0  0  0  0  0  0  0  # atno 17321 bound_to 7965
  139.8902  143.6963  152.3146 LP  0  0  0  0  0  0  0  0  0  0  0  0  # atno 17342 bound_to 10162
  139.7276  144.7589  151.0854 LP  0  0  0  0  0  0  0  0  0  0  0  0  # atno 17343 bound_to 10162
  157.4620  130.7659  149.7244 LP  0  0  0  0  0  0  0  0  0  0  0  0  # atno 17370 bound_to 10713
  155.9867  130.3972  150.3197 LP  0  0  0  0  0  0  0  0  0  0  0  0  # atno 17371 bound_to 10713
  139.9318  135.0199  156.8427 LP  0  0  0  0  0  0  0  0  0  0  0  0  # atno 17394 bound_to 11000
  140.6131  134.0064  155.7585 LP  0  0  0  0  0  0  0  0  0  0  0  0  # atno 17395 bound_to 11000

$$$$
