AV-unprocessed.smi:1007|AV-procd|sdf|4400|dock2
  -GOLD-   22720 2333D 1   1.00000     0.00000
 Structure written by MMmdl.
 56 58  0  0  0  0  0  0  0  0  2 V2000
  141.7697  137.0216  153.4933 C   0  0  0  0  0  0  0  0  0  0  0  0
  142.9899  137.4194  152.8927 O   0  0  0  0  0  0  0  0  0  0  0  0
  143.8744  136.3303  152.6866 C   0  0  0  0  0  0  0  0  0  0  0  0
  145.1553  136.8474  152.0136 C   0  0  0  0  0  0  0  0  0  0  0  0
  145.6110  138.1463  152.5702 N   0  3  0  0  0  0  0  0  0  0  0  0
  146.7454  138.7547  151.8240 C   0  0  0  0  0  0  0  0  0  0  0  0
  147.1285  140.1173  152.4398 C   0  0  0  0  0  0  0  0  0  0  0  0
  147.4597  140.0386  153.8624 N   0  0  0  0  0  0  0  0  0  0  0  0
  148.7502  139.3784  154.1071 C   0  0  0  0  0  0  0  0  0  0  0  0
  149.7698  140.1432  154.9803 C   0  0  2  0  0  0  0  0  0  0  0  0
  151.0844  139.7000  154.7049 O   0  0  0  0  0  0  0  0  0  0  0  0
  149.4643  140.1112  156.4924 C   0  0  0  0  0  0  0  0  0  0  0  0
  150.2675  141.0618  157.2393 N   0  0  0  0  0  0  0  0  0  0  0  0
  150.1952  142.4059  157.1878 C   0  0  0  0  0  0  0  0  0  0  0  0
  151.0331  143.0905  157.9609 N   0  0  0  0  0  0  0  0  0  0  0  0
  151.7341  142.0719  158.5833 C   0  0  0  0  0  0  0  0  0  0  0  0
  152.7790  142.1239  159.5318 C   0  0  0  0  0  0  0  0  0  0  0  0
  153.3557  140.9383  160.0405 C   0  0  0  0  0  0  0  0  0  0  0  0
  154.4772  141.0408  161.0591 C   0  0  0  0  0  0  0  0  0  0  0  0
  152.8867  139.6743  159.6006 C   0  0  0  0  0  0  0  0  0  0  0  0
  153.4887  138.3872  160.1361 C   0  0  0  0  0  0  0  0  0  0  0  0
  151.8444  139.6043  158.6527 C   0  0  0  0  0  0  0  0  0  0  0  0
  151.2791  140.7909  158.1538 C   0  0  0  0  0  0  0  0  0  0  0  0
  146.3211  139.4441  154.5667 C   0  0  0  0  0  0  0  0  0  0  0  0
  145.9239  138.0588  154.0202 C   0  0  0  0  0  0  0  0  0  0  0  0
  141.1284  137.8922  153.6314 H   0  0  0  0  0  0  0  0  0  0  0  0
  141.9392  136.5701  154.4718 H   0  0  0  0  0  0  0  0  0  0  0  0
  141.2358  136.3068  152.8655 H   0  0  0  0  0  0  0  0  0  0  0  0
  144.1295  135.8842  153.6491 H   0  0  0  0  0  0  0  0  0  0  0  0
  143.3967  135.5502  152.0936 H   0  0  0  0  0  0  0  0  0  0  0  0
  145.9361  136.0982  152.1513 H   0  0  0  0  0  0  0  0  0  0  0  0
  145.0074  136.9430  150.9370 H   0  0  0  0  0  0  0  0  0  0  0  0
  147.5983  138.0752  151.8229 H   0  0  0  0  0  0  0  0  0  0  0  0
  146.4696  138.9100  150.7820 H   0  0  0  0  0  0  0  0  0  0  0  0
  147.9630  140.5516  151.8880 H   0  0  0  0  0  0  0  0  0  0  0  0
  146.2957  140.8096  152.3077 H   0  0  0  0  0  0  0  0  0  0  0  0
  148.6069  138.3759  154.5098 H   0  0  0  0  0  0  0  0  0  0  0  0
  149.2296  139.2286  153.1387 H   0  0  0  0  0  0  0  0  0  0  0  0
  149.7453  141.1839  154.6544 H   0  0  0  0  0  0  0  0  0  0  0  0
  151.1006  138.7569  154.7682 H   0  0  0  0  0  0  0  0  0  0  0  0
  148.4128  140.3411  156.6679 H   0  0  0  0  0  0  0  0  0  0  0  0
  149.6389  139.1164  156.9043 H   0  0  0  0  0  0  0  0  0  0  0  0
  149.4852  142.9102  156.5486 H   0  0  0  0  0  0  0  0  0  0  0  0
  153.1356  143.0868  159.8668 H   0  0  0  0  0  0  0  0  0  0  0  0
  155.3808  140.5617  160.6821 H   0  0  0  0  0  0  0  0  0  0  0  0
  154.1910  140.5558  161.9925 H   0  0  0  0  0  0  0  0  0  0  0  0
  154.7191  142.0804  161.2822 H   0  0  0  0  0  0  0  0  0  0  0  0
  153.0267  137.5115  159.6791 H   0  0  0  0  0  0  0  0  0  0  0  0
  153.3427  138.3181  161.2143 H   0  0  0  0  0  0  0  0  0  0  0  0
  154.5579  138.3481  159.9272 H   0  0  0  0  0  0  0  0  0  0  0  0
  151.4778  138.6484  158.3090 H   0  0  0  0  0  0  0  0  0  0  0  0
  146.5204  139.3825  155.6353 H   0  0  0  0  0  0  0  0  0  0  0  0
  145.4641  140.1128  154.4754 H   0  0  0  0  0  0  0  0  0  0  0  0
  145.0471  137.6998  154.5605 H   0  0  0  0  0  0  0  0  0  0  0  0
  146.7169  137.3293  154.1899 H   0  0  0  0  0  0  0  0  0  0  0  0
  144.8307  138.7833  152.4903 H   0  0  0  0  0  0  0  0  0  0  0  0
  1  2  1  0  0  0  0
  1 26  1  0  0  0  0
  1 27  1  0  0  0  0
  1 28  1  0  0  0  0
  2  3  1  0  0  0  0
  3  4  1  0  0  0  0
  3 29  1  0  0  0  0
  3 30  1  0  0  0  0
  4  5  1  0  0  0  0
  4 31  1  0  0  0  0
  4 32  1  0  0  0  0
  5 25  1  0  0  0  0
  5  6  1  0  0  0  0
  5 56  1  0  0  0  0
  6  7  1  0  0  0  0
  6 33  1  0  0  0  0
  6 34  1  0  0  0  0
  7  8  1  0  0  0  0
  7 35  1  0  0  0  0
  7 36  1  0  0  0  0
  8  9  1  0  0  0  0
  8 24  1  0  0  0  0
  9 10  1  0  0  0  0
  9 37  1  0  0  0  0
  9 38  1  0  0  0  0
 10 11  1  0  0  0  0
 10 12  1  0  0  0  0
 10 39  1  0  0  0  0
 11 40  1  0  0  0  0
 12 13  1  0  0  0  0
 12 41  1  0  0  0  0
 12 42  1  0  0  0  0
 13 23  1  0  0  0  0
 13 14  1  0  0  0  0
 14 15  2  0  0  0  0
 14 43  1  0  0  0  0
 15 16  1  0  0  0  0
 16 23  2  0  0  0  0
 16 17  1  0  0  0  0
 17 18  2  0  0  0  0
 17 44  1  0  0  0  0
 18 19  1  0  0  0  0
 18 20  1  0  0  0  0
 19 45  1  0  0  0  0
 19 46  1  0  0  0  0
 19 47  1  0  0  0  0
 20 21  1  0  0  0  0
 20 22  2  0  0  0  0
 21 48  1  0  0  0  0
 21 49  1  0  0  0  0
 21 50  1  0  0  0  0
 22 23  1  0  0  0  0
 22 51  1  0  0  0  0
 24 25  1  0  0  0  0
 24 52  1  0  0  0  0
 24 53  1  0  0  0  0
 25 54  1  0  0  0  0
 25 55  1  0  0  0  0
M  CHG  1   5   1
M  END
> <s_m_source_file>
AV-unprocessed.smi

> <i_m_source_file_index>
1007

> <i_lp_mmshare_version>
43012

> <i_f3d_flags>
0

> <s_epik_input>
W0NIM11PW0NIMl1bQ0gyXU4xW0NIMl1bQ0gyXU4oW0NIMl1bQ0gyXTEpW0NIMl1bQ0BIXShbT0hdKVtDSDJdbihbY0hdbjIpYyhjMjMpW2NIXWMoW0NIM10pYyhbY0hdMylbQ0gzXQ==

> <s_epik_cmdline>
J2VwaWtfcHl0aG9uJywgJy1waCcsICc3LjAnLCAnLXRuJywgJzgnLCAnLW1hJywgJzIwMCcsICctbWV0YWxfYmluZGluZycsICctaW1hZScsICc8aW5maWxlLm1hZT4nLCAnLW9tYWUnLCAnPG91dGZpbGUubWFlPic=

> <r_epik_Ionization_Penalty>
0.186009

> <r_epik_Ionization_Penalty_Charging>
0.0613973

> <r_epik_Ionization_Penalty_Neutral>
0.124612

> <r_epik_State_Penalty>
1.21927

> <r_epik_Charging_Adjusted_Penalty>
1.28067

> <i_epik_Tot_Q>
1

> <i_epik_Tot_abs_Q>
1

> <r_epik_Metal_State_Penalty>
1.13901

> <b_epik_Metal_Only>
0

> <s_lp_Force_Field>
OPLS_2005

> <r_lp_Energy>
39.6127

> <b_lp_Chiralities_Consistent>
1

> <s_lp_Variant>
AV-unprocessed.smi:1007-3

> <Gold.Version>
5.8.1

> <Gold.Id.Protein>
6NUR|6NUR_protein|mol2

> <Gold.PLP.Fitness>
50.6819

> <Gold.PLP.PLP>
-40.4643

> <Gold.PLP.part.hbond>
-2.1379

> <Gold.PLP.part.metal>
0.0000

> <Gold.PLP.part.buried>
-1.6245

> <Gold.PLP.part.nonpolar>
-37.3743

> <Gold.PLP.part.repulsive>
0.7315

> <Gold.PLP.ligand.clash>
0.0000

> <Gold.PLP.ligand.torsion>
1.0999

> <Gold.PLP.Chemscore.Hbond>
3.0000

> <Gold.PLP.Chemscore.CHOScore>
1.0000

> <Gold.PLP.Chemscore.Metal>
0.0000

> <Gold.Chemscore.Hbonds>
donor molecule, donor type, donor heavy atom, donor atom, acceptor molecule, acceptor atom, score
      L1  H     5    56       P1 10175  2.00
      P1  H  7989  7998       L1    11  1.00
      L1  C    14    43       P1  8028  1.00

> <Gold.PLP.Chemscore.Internal.Correction>
0.4174

> <Gold.Rescore>
     Score         DG    S(hbond)    S(metal)    S(lipo)     H(rot)  DE(clash)    DE(int)     intcor
     16.52     -17.98       1.92        0.00     107.91       2.56       0.28       1.18       ----

> <Gold.Chemscore.Fitness>
16.5233

> <Gold.Chemscore.DG>
-17.9806

> <Gold.Chemscore.ZeroCoef>
-5.4800

> <Gold.Chemscore.Hbond>
1.9243

> <Gold.Chemscore.Metal>
0.0000

> <Gold.Chemscore.Lipo>
107.9117

> <Gold.Chemscore.Internal_Hbond>
0.0000

> <Gold.Chemscore.DEClash>
0.2787

> <Gold.Chemscore.DEInternal>
1.1786

> <Gold.Chemscore.Rot>
2.5594

> <Gold.Chemscore.Internal.Correction>
   9.000000E+99

> <Gold.Chemscore.Hbonds>
donor molecule, donor type, donor heavy atom, donor atom, acceptor molecule, acceptor atom, score
      L1  H     5    56       P1 10175  0.93
      P1  H  7989  7998       L1    11  0.40

> <Gold.Chemscore.Hbond.Weighted>
-6.4271

> <Gold.Chemscore.Metal.Weighted>
-0.0000

> <Gold.Chemscore.Lipo.Weighted>
-12.6257

> <Gold.Chemscore.Internal_Hbond.Weighted>
0.0000

> <Gold.Chemscore.DEClash.Weighted>
0.2787

> <Gold.Chemscore.DEInternal.Weighted>
1.1786

> <Gold.Chemscore.Rot.Weighted>
6.5522

> <Gold.Chemscore.Internal.Correction.Weighted>
   9.000000E+99

> <Gold.Protein.RotatedTorsions>
[ 6907 6896 6895 6894 ] final   85.13 input  -60.11 | X-H torsion
[ 7974 7965 7964 7962 ] final  115.64 input  175.53 | X-H torsion
[ 8008 7997 7996 7995 ] final -132.29 input   59.86 | X-H torsion
[ 10167 10162 10161 10158 ] final -113.03 input  -65.29 | X-H torsion
[ 10718 10713 10712 10709 ] final -122.01 input   66.30 | X-H torsion
[ 10763 10752 10751 10750 ] final -102.17 input  -60.55 | X-H torsion
[ 11005 11000 10999 10996 ] final   23.93 input  -57.11 | X-H torsion

> <Gold.Protein.ActiveResidues>
 VAL166  LYS551  ARG553  GLY616  TRP617  ASP618  TYR619  PRO620  LYS621  CYS622 
 ASP623  PHE694  ASN695  SER759  ASP760  ASP761  ALA762  ILE779  LEU786  VAL792 
 PHE793  MET794  SER795  GLU796  ALA797  LYS798  CYS799  TRP800  GLU811  SER814 

> <Gold.Protein.RotatedAtoms>
  152.5368  134.2634  159.8943 H   0  0  0  0  0  0  0  0  0  0  0  0  # atno 6907 bound_to 6896
  151.2593  133.4303  159.2623 H   0  0  0  0  0  0  0  0  0  0  0  0  # atno 6908 bound_to 6896
  151.0468  134.9660  159.8247 H   0  0  0  0  0  0  0  0  0  0  0  0  # atno 6909 bound_to 6896
  145.1894  139.3008  143.4376 H   0  0  0  0  0  0  0  0  0  0  0  0  # atno 7974 bound_to 7965
  155.3265  140.0465  157.3041 H   0  0  0  0  0  0  0  0  0  0  0  0  # atno 8008 bound_to 7997
  154.5351  140.2270  155.8702 H   0  0  0  0  0  0  0  0  0  0  0  0  # atno 8009 bound_to 7997
  156.1827  140.3070  155.9186 H   0  0  0  0  0  0  0  0  0  0  0  0  # atno 8010 bound_to 7997
  140.1162  143.4483  152.1720 H   0  0  0  0  0  0  0  0  0  0  0  0  # atno 10167 bound_to 10162
  156.1383  130.6447  150.9731 H   0  0  0  0  0  0  0  0  0  0  0  0  # atno 10718 bound_to 10713
  154.7714  135.4870  153.9656 H   0  0  0  0  0  0  0  0  0  0  0  0  # atno 10763 bound_to 10752
  153.1372  135.6765  153.9091 H   0  0  0  0  0  0  0  0  0  0  0  0  # atno 10764 bound_to 10752
  153.8777  135.3136  155.3423 H   0  0  0  0  0  0  0  0  0  0  0  0  # atno 10765 bound_to 10752
  140.3642  134.2092  155.7670 H   0  0  0  0  0  0  0  0  0  0  0  0  # atno 11005 bound_to 11000
  146.3439  140.2101  142.8590 LP  0  0  0  0  0  0  0  0  0  0  0  0  # atno 17320 bound_to 7965
  145.0056  140.8670  143.5255 LP  0  0  0  0  0  0  0  0  0  0  0  0  # atno 17321 bound_to 7965
  139.5593  144.7394  151.4203 LP  0  0  0  0  0  0  0  0  0  0  0  0  # atno 17342 bound_to 10162
  140.6898  143.7889  150.7238 LP  0  0  0  0  0  0  0  0  0  0  0  0  # atno 17343 bound_to 10162
  157.6553  131.0890  150.7961 LP  0  0  0  0  0  0  0  0  0  0  0  0  # atno 17370 bound_to 10713
  156.8039  130.4930  149.5365 LP  0  0  0  0  0  0  0  0  0  0  0  0  # atno 17371 bound_to 10713
  141.1975  133.8058  157.0626 LP  0  0  0  0  0  0  0  0  0  0  0  0  # atno 17394 bound_to 11000
  140.0603  134.9758  157.1292 LP  0  0  0  0  0  0  0  0  0  0  0  0  # atno 17395 bound_to 11000

$$$$
