AV-unprocessed.smi:1434|AV-procd|sdf|5852|dock1
  -GOLD-   22720 5523D 1   1.00000     0.00000
 Structure written by MMmdl.
 45 46  0  0  0  0  0  0  0  0  2 V2000
  143.8013  137.3501  158.2249 C   0  0  0  0  0  0  0  0  0  0  0  0
  145.3780  138.0955  157.6462 S   0  0  0  0  0  0  0  0  0  0  0  0
  145.4207  139.5072  158.0559 O   0  0  0  0  0  0  0  0  0  0  0  0
  146.4802  137.1886  158.0016 O   0  0  0  0  0  0  0  0  0  0  0  0
  145.1985  138.0597  155.9313 N   0  0  0  0  0  0  0  0  0  0  0  0
  146.2908  138.5749  155.1046 C   0  0  1  0  0  0  0  0  0  0  0  0
  145.9465  138.4285  153.6071 C   0  0  0  0  0  0  0  0  0  0  0  0
  146.9821  139.1371  152.7130 C   0  0  0  0  0  0  0  0  0  0  0  0
  147.2284  140.5810  153.1883 C   0  0  0  0  0  0  0  0  0  0  0  0
  147.6441  140.5489  154.6015 N   0  0  0  0  0  0  0  0  0  0  0  0
  148.9110  140.6972  155.0638 C   0  0  0  0  0  0  0  0  0  0  0  0
  149.9081  140.6028  154.3468 O   0  0  0  0  0  0  0  0  0  0  0  0
  149.0053  140.9086  156.3866 N   0  0  0  0  0  0  0  0  0  0  0  0
  150.2590  141.0755  157.1083 C   0  0  0  0  0  0  0  0  0  0  0  0
  151.0099  142.3185  156.6127 C   0  0  0  0  0  0  0  0  0  0  0  0
  151.4534  143.2106  157.7558 C   0  0  0  0  0  0  0  0  0  0  0  0
  152.4293  142.8033  158.6913 C   0  0  0  0  0  0  0  0  0  0  0  0
  152.8046  143.6874  159.7244 C   0  0  0  0  0  0  0  0  0  0  0  0
  152.1976  144.9582  159.7999 C   0  0  0  0  0  0  0  0  0  0  0  0
  151.2298  145.3138  158.8385 C   0  0  0  0  0  0  0  0  0  0  0  0
  150.8974  144.4392  157.8635 N   0  3  0  0  0  0  0  0  0  0  0  0
  146.5636  140.0491  155.4603 C   0  0  0  0  0  0  0  0  0  0  0  0
  143.8025  137.3022  159.3137 H   0  0  0  0  0  0  0  0  0  0  0  0
  143.7040  136.3435  157.8189 H   0  0  0  0  0  0  0  0  0  0  0  0
  142.9632  137.9605  157.8900 H   0  0  0  0  0  0  0  0  0  0  0  0
  144.3058  138.4637  155.6489 H   0  0  0  0  0  0  0  0  0  0  0  0
  147.1920  137.9990  155.3221 H   0  0  0  0  0  0  0  0  0  0  0  0
  145.8740  137.3762  153.3313 H   0  0  0  0  0  0  0  0  0  0  0  0
  144.9641  138.8639  153.4184 H   0  0  0  0  0  0  0  0  0  0  0  0
  147.9214  138.5829  152.7334 H   0  0  0  0  0  0  0  0  0  0  0  0
  146.6433  139.1342  151.6765 H   0  0  0  0  0  0  0  0  0  0  0  0
  147.9440  141.0700  152.5275 H   0  0  0  0  0  0  0  0  0  0  0  0
  146.3098  141.1626  153.0983 H   0  0  0  0  0  0  0  0  0  0  0  0
  148.1509  140.9584  156.9223 H   0  0  0  0  0  0  0  0  0  0  0  0
  150.0572  141.1668  158.1771 H   0  0  0  0  0  0  0  0  0  0  0  0
  150.8702  140.1823  156.9694 H   0  0  0  0  0  0  0  0  0  0  0  0
  151.8861  142.0227  156.0337 H   0  0  0  0  0  0  0  0  0  0  0  0
  150.3743  142.8939  155.9379 H   0  0  0  0  0  0  0  0  0  0  0  0
  152.8882  141.8279  158.6184 H   0  0  0  0  0  0  0  0  0  0  0  0
  153.5501  143.3946  160.4492 H   0  0  0  0  0  0  0  0  0  0  0  0
  152.4719  145.6501  160.5830 H   0  0  0  0  0  0  0  0  0  0  0  0
  150.7162  146.2638  158.8190 H   0  0  0  0  0  0  0  0  0  0  0  0
  145.6680  140.6516  155.2996 H   0  0  0  0  0  0  0  0  0  0  0  0
  146.7973  140.1473  156.5218 H   0  0  0  0  0  0  0  0  0  0  0  0
  150.1961  144.7188  157.1772 H   0  0  0  0  0  0  0  0  0  0  0  0
  1  2  1  0  0  0  0
  1 23  1  0  0  0  0
  1 24  1  0  0  0  0
  1 25  1  0  0  0  0
  2  3  2  0  0  0  0
  2  4  2  0  0  0  0
  2  5  1  0  0  0  0
  5  6  1  0  0  0  0
  5 26  1  0  0  0  0
  6 22  1  0  0  0  0
  6  7  1  0  0  0  0
  6 27  1  0  0  0  0
  7  8  1  0  0  0  0
  7 28  1  0  0  0  0
  7 29  1  0  0  0  0
  8  9  1  0  0  0  0
  8 30  1  0  0  0  0
  8 31  1  0  0  0  0
  9 10  1  0  0  0  0
  9 32  1  0  0  0  0
  9 33  1  0  0  0  0
 10 11  1  0  0  0  0
 10 22  1  0  0  0  0
 11 12  2  0  0  0  0
 11 13  1  0  0  0  0
 13 14  1  0  0  0  0
 13 34  1  0  0  0  0
 14 15  1  0  0  0  0
 14 35  1  0  0  0  0
 14 36  1  0  0  0  0
 15 16  1  0  0  0  0
 15 37  1  0  0  0  0
 15 38  1  0  0  0  0
 16 21  1  0  0  0  0
 16 17  2  0  0  0  0
 17 18  1  0  0  0  0
 17 39  1  0  0  0  0
 18 19  2  0  0  0  0
 18 40  1  0  0  0  0
 19 20  1  0  0  0  0
 19 41  1  0  0  0  0
 20 21  2  0  0  0  0
 20 42  1  0  0  0  0
 21 45  1  0  0  0  0
 22 43  1  0  0  0  0
 22 44  1  0  0  0  0
M  CHG  1  21   1
M  END
> <s_m_source_file>
AV-unprocessed.smi

> <i_m_source_file_index>
1434

> <i_lp_mmshare_version>
43012

> <i_f3d_flags>
0

> <s_epik_input>
W0NIM11TKD1PKSg9TylbTkhdW0NAQEhdMVtDSDJdW0NIMl1bQ0gyXU4oW0NIMl0xKUMoPU8pW05IXVtDSDJdW0NIMl1jMltjSF1bY0hdW2NIXVtjSF1uMg==

> <s_epik_cmdline>
J2VwaWtfcHl0aG9uJywgJy1waCcsICc3LjAnLCAnLXRuJywgJzgnLCAnLW1hJywgJzIwMCcsICctbWV0YWxfYmluZGluZycsICctaW1hZScsICc8aW5maWxlLm1hZT4nLCAnLW9tYWUnLCAnPG91dGZpbGUubWFlPic=

> <r_epik_Ionization_Penalty>
1.55113

> <r_epik_Ionization_Penalty_Charging>
1.55107

> <r_epik_Ionization_Penalty_Neutral>
6.01346e-05

> <r_epik_State_Penalty>
1.64529

> <r_epik_Charging_Adjusted_Penalty>
3.19637

> <i_epik_Tot_Q>
1

> <i_epik_Tot_abs_Q>
1

> <r_epik_Metal_State_Penalty>
1.69621

> <b_epik_Metal_Only>
0

> <s_lp_Force_Field>
OPLS_2005

> <r_lp_Energy>
28.1725

> <b_lp_Chiralities_Consistent>
1

> <s_lp_Variant>
AV-unprocessed.smi:1434-4

> <Gold.Version>
5.8.1

> <Gold.Id.Protein>
6NUR|6NUR_protein|mol2

> <Gold.PLP.Fitness>
41.3600

> <Gold.PLP.PLP>
-34.1892

> <Gold.PLP.part.hbond>
-2.0000

> <Gold.PLP.part.metal>
0.0000

> <Gold.PLP.part.buried>
-4.2709

> <Gold.PLP.part.nonpolar>
-27.8884

> <Gold.PLP.part.repulsive>
0.2148

> <Gold.PLP.ligand.clash>
0.0246

> <Gold.PLP.ligand.torsion>
0.6333

> <Gold.PLP.Chemscore.Hbond>
2.7520

> <Gold.PLP.Chemscore.CHOScore>
0.0000

> <Gold.PLP.Chemscore.Metal>
0.0000

> <Gold.Chemscore.Hbonds>
donor molecule, donor type, donor heavy atom, donor atom, acceptor molecule, acceptor atom, score
      L1  H    21    45       P1  8028  2.00
      P1  H  7989  7998       L1    12  0.77

> <Gold.PLP.Chemscore.Internal.Correction>
0.2062

> <Gold.Rescore>
     Score         DG    S(hbond)    S(metal)    S(lipo)     H(rot)  DE(clash)    DE(int)     intcor
     14.95     -16.59       1.68        0.00      93.61       2.13       0.03       1.60       ----

> <Gold.Chemscore.Fitness>
14.9541

> <Gold.Chemscore.DG>
-16.5864

> <Gold.Chemscore.ZeroCoef>
-5.4800

> <Gold.Chemscore.Hbond>
1.6808

> <Gold.Chemscore.Metal>
0.0000

> <Gold.Chemscore.Lipo>
93.6074

> <Gold.Chemscore.Internal_Hbond>
0.0000

> <Gold.Chemscore.DEClash>
0.0279

> <Gold.Chemscore.DEInternal>
1.6044

> <Gold.Chemscore.Rot>
2.1326

> <Gold.Chemscore.Internal.Correction>
   9.000000E+99

> <Gold.Chemscore.Hbonds>
donor molecule, donor type, donor heavy atom, donor atom, acceptor molecule, acceptor atom, score
      L1  H    21    45       P1  8028  0.34
      P1  H  7989  7998       L1    12  0.75

> <Gold.Chemscore.Hbond.Weighted>
-5.6138

> <Gold.Chemscore.Metal.Weighted>
-0.0000

> <Gold.Chemscore.Lipo.Weighted>
-10.9521

> <Gold.Chemscore.Internal_Hbond.Weighted>
0.0000

> <Gold.Chemscore.DEClash.Weighted>
0.0279

> <Gold.Chemscore.DEInternal.Weighted>
1.6044

> <Gold.Chemscore.Rot.Weighted>
5.4595

> <Gold.Chemscore.Internal.Correction.Weighted>
   9.000000E+99

> <Gold.Protein.RotatedTorsions>
[ 6907 6896 6895 6894 ] final  129.39 input  -60.11 | X-H torsion
[ 7974 7965 7964 7962 ] final  132.65 input  175.53 | X-H torsion
[ 8008 7997 7996 7995 ] final    5.56 input   59.86 | X-H torsion
[ 10167 10162 10161 10158 ] final -139.13 input  -65.29 | X-H torsion
[ 10718 10713 10712 10709 ] final   62.68 input   66.30 | X-H torsion
[ 10763 10752 10751 10750 ] final  114.31 input  -60.55 | X-H torsion
[ 11005 11000 10999 10996 ] final  -88.98 input  -57.11 | X-H torsion

> <Gold.Protein.ActiveResidues>
 VAL166  LYS551  ARG553  GLY616  TRP617  ASP618  TYR619  PRO620  LYS621  CYS622 
 ASP623  PHE694  ASN695  SER759  ASP760  ASP761  ALA762  ILE779  LEU786  VAL792 
 PHE793  MET794  SER795  GLU796  ALA797  LYS798  CYS799  TRP800  GLU811  SER814 

> <Gold.Protein.RotatedAtoms>
  152.3629  133.6319  159.6028 H   0  0  0  0  0  0  0  0  0  0  0  0  # atno 6907 bound_to 6896
  150.7613  133.9395  159.3460 H   0  0  0  0  0  0  0  0  0  0  0  0  # atno 6908 bound_to 6896
  151.7230  135.0891  160.0338 H   0  0  0  0  0  0  0  0  0  0  0  0  # atno 6909 bound_to 6896
  144.9946  139.4372  143.5322 H   0  0  0  0  0  0  0  0  0  0  0  0  # atno 7974 bound_to 7965
  154.7299  140.2728  155.6466 H   0  0  0  0  0  0  0  0  0  0  0  0  # atno 8008 bound_to 7997
  156.2847  140.2718  156.1921 H   0  0  0  0  0  0  0  0  0  0  0  0  # atno 8009 bound_to 7997
  155.0396  140.0371  157.2494 H   0  0  0  0  0  0  0  0  0  0  0  0  # atno 8010 bound_to 7997
  139.8410  143.7322  152.2663 H   0  0  0  0  0  0  0  0  0  0  0  0  # atno 10167 bound_to 10162
  157.5918  130.9063  149.9618 H   0  0  0  0  0  0  0  0  0  0  0  0  # atno 10718 bound_to 10713
  153.5053  135.3629  155.2560 H   0  0  0  0  0  0  0  0  0  0  0  0  # atno 10763 bound_to 10752
  154.8745  135.4010  154.3431 H   0  0  0  0  0  0  0  0  0  0  0  0  # atno 10764 bound_to 10752
  153.4074  135.7077  153.6449 H   0  0  0  0  0  0  0  0  0  0  0  0  # atno 10765 bound_to 10752
  141.1593  133.7602  156.9528 H   0  0  0  0  0  0  0  0  0  0  0  0  # atno 11005 bound_to 11000
  146.3439  139.9299  142.8755 LP  0  0  0  0  0  0  0  0  0  0  0  0  # atno 17320 bound_to 7965
  145.2237  140.9945  143.4031 LP  0  0  0  0  0  0  0  0  0  0  0  0  # atno 17321 bound_to 7965
  139.7559  144.7521  151.0436 LP  0  0  0  0  0  0  0  0  0  0  0  0  # atno 17342 bound_to 10162
  140.7798  143.4806  151.0023 LP  0  0  0  0  0  0  0  0  0  0  0  0  # atno 17343 bound_to 10162
  156.0973  130.3658  150.0282 LP  0  0  0  0  0  0  0  0  0  0  0  0  # atno 17370 bound_to 10713
  156.8403  130.9423  151.3632 LP  0  0  0  0  0  0  0  0  0  0  0  0  # atno 17371 bound_to 10713
  140.1245  134.9395  157.2251 LP  0  0  0  0  0  0  0  0  0  0  0  0  # atno 17394 bound_to 11000
  140.3030  134.3110  155.7285 LP  0  0  0  0  0  0  0  0  0  0  0  0  # atno 17395 bound_to 11000

$$$$
