AV-unprocessed.smi:107|AV-procd|sdf|1014|dock3
  -GOLD-   2262018 13D 1   1.00000     0.00000
 Structure written by MMmdl.
 31 32  0  0  0  0  0  0  0  0  1 V2000
  150.9934  144.9108  159.3269 C   0  0  0  0  0  0  0  0  0  0  0  0
  151.5081  143.5272  158.9666 C   0  0  0  0  0  0  0  0  0  0  0  0
  151.2117  142.9260  157.7862 C   0  0  0  0  0  0  0  0  0  0  0  0
  151.6685  141.6668  157.4255 N   0  0  0  0  0  0  0  0  0  0  0  0
  151.3004  141.0800  156.0833 C   0  0  1  0  0  0  0  0  0  0  0  0
  150.8284  139.6260  156.2211 C   0  0  0  0  0  0  0  0  0  0  0  0
  149.4158  139.6635  155.6558 C   0  0  1  0  0  0  0  0  0  0  0  0
  148.4618  139.6783  156.7018 O   0  0  0  0  0  0  0  0  0  0  0  0
  149.3928  140.9580  154.8282 C   0  0  1  0  0  0  0  0  0  0  0  0
  148.0053  141.5911  154.6216 C   0  0  0  0  0  0  0  0  0  0  0  0
  148.1414  142.9154  154.1525 O   0  0  0  0  0  0  0  0  0  0  0  0
  150.2488  141.8268  155.5575 O   0  0  0  0  0  0  0  0  0  0  0  0
  152.4945  140.9491  158.3157 C   0  0  0  0  0  0  0  0  0  0  0  0
  152.9345  139.8263  158.0721 O   0  0  0  0  0  0  0  0  0  0  0  0
  152.7992  141.5656  159.5283 N   0  0  0  0  0  0  0  0  0  0  0  0
  152.3591  142.8283  159.9335 C   0  0  0  0  0  0  0  0  0  0  0  0
  152.6954  143.2645  161.0333 O   0  0  0  0  0  0  0  0  0  0  0  0
  153.3872  141.0546  160.1705 H   0  0  0  0  0  0  0  0  0  0  0  0
  150.3545  145.3206  158.5442 H   0  0  0  0  0  0  0  0  0  0  0  0
  151.8258  145.5998  159.4744 H   0  0  0  0  0  0  0  0  0  0  0  0
  150.4112  144.8746  160.2483 H   0  0  0  0  0  0  0  0  0  0  0  0
  150.5859  143.4587  157.0851 H   0  0  0  0  0  0  0  0  0  0  0  0
  152.1564  141.1796  155.4147 H   0  0  0  0  0  0  0  0  0  0  0  0
  151.4772  138.9952  155.6124 H   0  0  0  0  0  0  0  0  0  0  0  0
  150.8765  139.2734  157.2529 H   0  0  0  0  0  0  0  0  0  0  0  0
  149.2135  138.7925  155.0317 H   0  0  0  0  0  0  0  0  0  0  0  0
  148.6079  140.4465  157.2322 H   0  0  0  0  0  0  0  0  0  0  0  0
  149.8588  140.7505  153.8627 H   0  0  0  0  0  0  0  0  0  0  0  0
  147.4478  141.0356  153.8668 H   0  0  0  0  0  0  0  0  0  0  0  0
  147.4187  141.5731  155.5408 H   0  0  0  0  0  0  0  0  0  0  0  0
  148.5379  143.4369  154.8335 H   0  0  0  0  0  0  0  0  0  0  0  0
  1  2  1  0  0  0  0
  1 19  1  0  0  0  0
  1 20  1  0  0  0  0
  1 21  1  0  0  0  0
  2 16  1  0  0  0  0
  2  3  2  0  0  0  0
  3  4  1  0  0  0  0
  3 22  1  0  0  0  0
  4  5  1  0  0  0  0
  4 13  1  0  0  0  0
  5 12  1  0  0  0  0
  5  6  1  0  0  0  0
  5 23  1  0  0  0  0
  6  7  1  0  0  0  0
  6 24  1  0  0  0  0
  6 25  1  0  0  0  0
  7  8  1  0  0  0  0
  7  9  1  0  0  0  0
  7 26  1  0  0  0  0
  8 27  1  0  0  0  0
  9 10  1  0  0  0  0
  9 12  1  0  0  0  0
  9 28  1  0  0  0  0
 10 11  1  0  0  0  0
 10 29  1  0  0  0  0
 10 30  1  0  0  0  0
 11 31  1  0  0  0  0
 13 14  2  0  0  0  0
 13 15  1  0  0  0  0
 15 18  1  0  0  0  0
 15 16  1  0  0  0  0
 16 17  2  0  0  0  0
M  END
> <s_m_source_file>
AV-unprocessed.smi

> <i_m_source_file_index>
107

> <i_lp_mmshare_version>
43012

> <i_f3d_flags>
0

> <s_epik_input>
Tz1jMVtuSF1jKD1PKW4oW2NIXWMxW0NIM10pW0NAQEhdMltDSDJdW0NAQEhdKFtPSF0pW0NASF0oTzIpW0NIMl1bT0hd

> <s_epik_cmdline>
J2VwaWtfcHl0aG9uJywgJy1waCcsICc3LjAnLCAnLXRuJywgJzgnLCAnLW1hJywgJzIwMCcsICctbWV0YWxfYmluZGluZycsICctaW1hZScsICc8aW5maWxlLm1hZT4nLCAnLW9tYWUnLCAnPG91dGZpbGUubWFlPic=

> <r_lp_tautomer_probability>
0.999537

> <r_epik_Ionization_Penalty>
0.00121888

> <r_epik_Ionization_Penalty_Charging>
0.00121876

> <r_epik_Ionization_Penalty_Neutral>
1.19946e-07

> <r_epik_State_Penalty>
0.000805124

> <r_epik_Charging_Adjusted_Penalty>
0.00202389

> <i_epik_Tot_Q>
0

> <i_epik_Tot_abs_Q>
0

> <r_epik_Metal_State_Penalty>
0.662472

> <b_epik_Metal_Only>
0

> <s_epik_Chemistry_Notes>
This compound contains an acetal/aminal-like group ( X-CH(R)-Y where X, Y are N, S, or O) that may be acid/base labile, releasing an aldehyde.

> <s_lp_Force_Field>
OPLS_2005

> <r_lp_Energy>
28.3693

> <b_lp_Chiralities_Consistent>
1

> <s_lp_Variant>
AV-unprocessed.smi:107-2

> <Gold.Version>
5.8.1

> <Gold.Id.Protein>
6NUR|6NUR_protein|mol2

> <Gold.PLP.Fitness>
39.0465

> <Gold.PLP.PLP>
-30.8566

> <Gold.PLP.part.hbond>
-4.1759

> <Gold.PLP.part.metal>
0.0000

> <Gold.PLP.part.buried>
-3.1855

> <Gold.PLP.part.nonpolar>
-22.1177

> <Gold.PLP.part.repulsive>
0.2674

> <Gold.PLP.ligand.clash>
0.0000

> <Gold.PLP.ligand.torsion>
0.4078

> <Gold.PLP.Chemscore.Hbond>
2.0000

> <Gold.PLP.Chemscore.CHOScore>
1.0000

> <Gold.PLP.Chemscore.Metal>
0.0000

> <Gold.Chemscore.Hbonds>
donor molecule, donor type, donor heavy atom, donor atom, acceptor molecule, acceptor atom, score
      L1  H    11    31       P1  8028  1.00
      P1  H  7997  8009       L1    14  1.00
      L1  C     3    22       P1  8028  0.98

> <Gold.PLP.Chemscore.Internal.Correction>
0.0055

> <Gold.Rescore>
     Score         DG    S(hbond)    S(metal)    S(lipo)     H(rot)  DE(clash)    DE(int)     intcor
      9.34     -11.04       1.93        0.00      52.02       2.73       0.27       1.42       ----

> <Gold.Chemscore.Fitness>
9.3400

> <Gold.Chemscore.DG>
-11.0376

> <Gold.Chemscore.ZeroCoef>
-5.4800

> <Gold.Chemscore.Hbond>
1.9307

> <Gold.Chemscore.Metal>
0.0000

> <Gold.Chemscore.Lipo>
52.0159

> <Gold.Chemscore.Internal_Hbond>
0.0000

> <Gold.Chemscore.DEClash>
0.2748

> <Gold.Chemscore.DEInternal>
1.4228

> <Gold.Chemscore.Rot>
2.7253

> <Gold.Chemscore.Internal.Correction>
   9.000000E+99

> <Gold.Chemscore.Hbonds>
donor molecule, donor type, donor heavy atom, donor atom, acceptor molecule, acceptor atom, score
      L1  H    11    31       P1  8028  0.92
      P1  H  7997  8009       L1    14  0.59

> <Gold.Chemscore.Hbond.Weighted>
-6.4486

> <Gold.Chemscore.Metal.Weighted>
-0.0000

> <Gold.Chemscore.Lipo.Weighted>
-6.0859

> <Gold.Chemscore.Internal_Hbond.Weighted>
0.0000

> <Gold.Chemscore.DEClash.Weighted>
0.2748

> <Gold.Chemscore.DEInternal.Weighted>
1.4228

> <Gold.Chemscore.Rot.Weighted>
6.9769

> <Gold.Chemscore.Internal.Correction.Weighted>
   9.000000E+99

> <Gold.Protein.RotatedTorsions>
[ 6907 6896 6895 6894 ] final   14.35 input  -60.11 | X-H torsion
[ 7974 7965 7964 7962 ] final  -64.47 input  175.53 | X-H torsion
[ 8008 7997 7996 7995 ] final  160.66 input   59.86 | X-H torsion
[ 10167 10162 10161 10158 ] final  -79.02 input  -65.29 | X-H torsion
[ 10718 10713 10712 10709 ] final   -6.60 input   66.30 | X-H torsion
[ 10763 10752 10751 10750 ] final  125.05 input  -60.55 | X-H torsion
[ 11005 11000 10999 10996 ] final   55.28 input  -57.11 | X-H torsion

> <Gold.Protein.ActiveResidues>
 VAL166  LYS551  ARG553  GLY616  TRP617  ASP618  TYR619  PRO620  LYS621  CYS622 
 ASP623  PHE694  ASN695  SER759  ASP760  ASP761  ALA762  ILE779  LEU786  VAL792 
 PHE793  MET794  SER795  GLU796  ALA797  LYS798  CYS799  TRP800  GLU811  SER814 

> <Gold.Protein.RotatedAtoms>
  151.8009  135.0709  160.0399 H   0  0  0  0  0  0  0  0  0  0  0  0  # atno 6907 bound_to 6896
  152.3090  133.5728  159.5676 H   0  0  0  0  0  0  0  0  0  0  0  0  # atno 6908 bound_to 6896
  150.7310  134.0097  159.3707 H   0  0  0  0  0  0  0  0  0  0  0  0  # atno 6909 bound_to 6896
  145.7663  140.8835  143.0403 H   0  0  0  0  0  0  0  0  0  0  0  0  # atno 7974 bound_to 7965
  156.2157  140.1798  156.7595 H   0  0  0  0  0  0  0  0  0  0  0  0  # atno 8008 bound_to 7997
  154.5788  140.0670  156.9102 H   0  0  0  0  0  0  0  0  0  0  0  0  # atno 8009 bound_to 7997
  155.2540  140.3331  155.4282 H   0  0  0  0  0  0  0  0  0  0  0  0  # atno 8010 bound_to 7997
  140.4630  143.2448  151.8320 H   0  0  0  0  0  0  0  0  0  0  0  0  # atno 10167 bound_to 10162
  156.7295  130.5175  149.5849 H   0  0  0  0  0  0  0  0  0  0  0  0  # atno 10718 bound_to 10713
  153.6711  135.3330  155.3153 H   0  0  0  0  0  0  0  0  0  0  0  0  # atno 10763 bound_to 10752
  154.8490  135.4386  154.1704 H   0  0  0  0  0  0  0  0  0  0  0  0  # atno 10764 bound_to 10752
  153.2695  135.6999  153.7571 H   0  0  0  0  0  0  0  0  0  0  0  0  # atno 10765 bound_to 10752
  140.0619  134.5590  155.9142 H   0  0  0  0  0  0  0  0  0  0  0  0  # atno 11005 bound_to 11000
  144.6821  139.9793  143.7483 LP  0  0  0  0  0  0  0  0  0  0  0  0  # atno 17320 bound_to 7965
  146.0214  139.3254  143.0811 LP  0  0  0  0  0  0  0  0  0  0  0  0  # atno 17321 bound_to 7965
  139.4808  144.4985  151.9092 LP  0  0  0  0  0  0  0  0  0  0  0  0  # atno 17342 bound_to 10162
  140.4070  144.2418  150.5890 LP  0  0  0  0  0  0  0  0  0  0  0  0  # atno 17343 bound_to 10162
  156.1539  130.6328  151.0631 LP  0  0  0  0  0  0  0  0  0  0  0  0  # atno 17370 bound_to 10713
  157.6865  131.0823  150.7229 LP  0  0  0  0  0  0  0  0  0  0  0  0  # atno 17371 bound_to 10713
  141.1977  133.6597  156.5753 LP  0  0  0  0  0  0  0  0  0  0  0  0  # atno 17394 bound_to 11000
  140.3757  134.7567  157.4628 LP  0  0  0  0  0  0  0  0  0  0  0  0  # atno 17395 bound_to 11000

$$$$
