AV-unprocessed.smi:1492|AV-procd|sdf|6045|dock9
  -GOLD-   22720 6163D 1   1.00000     0.00000
 Structure written by MMmdl.
 51 52  0  0  0  0  0  0  0  0  2 V2000
  147.5776  136.9248  162.9357 C   0  0  0  0  0  0  0  0  0  0  0  0
  147.5476  135.3857  162.9072 C   0  0  0  0  0  0  0  0  0  0  0  0
  146.7731  134.7228  161.7242 C   0  0  2  0  0  0  0  0  0  0  0  0
  147.1068  133.2069  161.7034 C   0  0  0  0  0  0  0  0  0  0  0  0
  147.3048  135.3156  160.3802 C   0  0  0  0  0  0  0  0  0  0  0  0
  147.0173  134.4474  159.2413 N   0  0  0  0  0  0  0  0  0  0  0  0
  147.9171  133.8241  158.4670 C   0  0  0  0  0  0  0  0  0  0  0  0
  149.1291  134.0306  158.5232 O   0  0  0  0  0  0  0  0  0  0  0  0
  147.3557  132.7763  157.5057 C   0  0  0  0  0  0  0  0  0  0  0  0
  148.4086  131.8791  156.8520 C   0  0  0  0  0  0  0  0  0  0  0  0
  149.3574  132.3464  155.9910 C   0  0  0  0  0  0  0  0  0  0  0  0
  149.4526  133.8050  155.5790 C   0  0  0  0  0  0  0  0  0  0  0  0
  150.3197  131.4875  155.4335 N   0  0  0  0  0  0  0  0  0  0  0  0
  150.3058  130.2456  155.7358 C   0  0  0  0  0  0  0  0  0  0  0  0
  151.3571  129.3372  155.1346 C   0  0  0  0  0  0  0  0  0  0  0  0
  149.3900  129.6730  156.5897 N   0  5  0  0  0  0  0  0  0  0  0  0
  148.4344  130.4427  157.1830 C   0  0  0  0  0  0  0  0  0  0  0  0
  147.6220  129.9750  157.9801 O   0  0  0  0  0  0  0  0  0  0  0  0
  145.2967  134.9158  161.8379 N   0  0  0  0  0  0  0  0  0  0  0  0
  144.6597  134.2708  162.9916 C   0  0  0  0  0  0  0  0  0  0  0  0
  143.1270  134.3894  162.9410 C   0  0  0  0  0  0  0  0  0  0  0  0
  142.7547  135.7605  162.8683 O   0  0  0  0  0  0  0  0  0  0  0  0
  143.3041  136.4100  161.7282 C   0  0  0  0  0  0  0  0  0  0  0  0
  144.8384  136.3085  161.7647 C   0  0  0  0  0  0  0  0  0  0  0  0
  148.1533  137.2740  163.7928 H   0  0  0  0  0  0  0  0  0  0  0  0
  146.5798  137.3525  163.0276 H   0  0  0  0  0  0  0  0  0  0  0  0
  148.0474  137.3414  162.0453 H   0  0  0  0  0  0  0  0  0  0  0  0
  148.5823  135.0448  162.9096 H   0  0  0  0  0  0  0  0  0  0  0  0
  147.1266  135.0554  163.8565 H   0  0  0  0  0  0  0  0  0  0  0  0
  148.1231  133.0141  161.3595 H   0  0  0  0  0  0  0  0  0  0  0  0
  146.4393  132.6600  161.0367 H   0  0  0  0  0  0  0  0  0  0  0  0
  147.0228  132.7549  162.6919 H   0  0  0  0  0  0  0  0  0  0  0  0
  146.8491  136.2852  160.1795 H   0  0  0  0  0  0  0  0  0  0  0  0
  148.3759  135.5147  160.4316 H   0  0  0  0  0  0  0  0  0  0  0  0
  146.0465  134.2029  159.1045 H   0  0  0  0  0  0  0  0  0  0  0  0
  146.6102  132.1808  158.0336 H   0  0  0  0  0  0  0  0  0  0  0  0
  146.7974  133.2891  156.7222 H   0  0  0  0  0  0  0  0  0  0  0  0
  149.5545  134.4471  156.4537 H   0  0  0  0  0  0  0  0  0  0  0  0
  148.5605  134.1049  155.0294 H   0  0  0  0  0  0  0  0  0  0  0  0
  150.3167  133.9779  154.9366 H   0  0  0  0  0  0  0  0  0  0  0  0
  152.3373  129.5710  155.5508 H   0  0  0  0  0  0  0  0  0  0  0  0
  151.4001  129.4702  154.0532 H   0  0  0  0  0  0  0  0  0  0  0  0
  151.1396  128.2880  155.3398 H   0  0  0  0  0  0  0  0  0  0  0  0
  144.9071  133.2114  163.0331 H   0  0  0  0  0  0  0  0  0  0  0  0
  145.0153  134.7173  163.9200 H   0  0  0  0  0  0  0  0  0  0  0  0
  142.7268  133.8494  162.0822 H   0  0  0  0  0  0  0  0  0  0  0  0
  142.6828  133.9464  163.8324 H   0  0  0  0  0  0  0  0  0  0  0  0
  142.9078  135.9613  160.8169 H   0  0  0  0  0  0  0  0  0  0  0  0
  142.9940  137.4549  161.7301 H   0  0  0  0  0  0  0  0  0  0  0  0
  145.2028  136.8711  162.6240 H   0  0  0  0  0  0  0  0  0  0  0  0
  145.2268  136.8023  160.8759 H   0  0  0  0  0  0  0  0  0  0  0  0
  1  2  1  0  0  0  0
  1 25  1  0  0  0  0
  1 26  1  0  0  0  0
  1 27  1  0  0  0  0
  2  3  1  0  0  0  0
  2 28  1  0  0  0  0
  2 29  1  0  0  0  0
  3  4  1  0  0  0  0
  3  5  1  0  0  0  0
  3 19  1  0  0  0  0
  4 30  1  0  0  0  0
  4 31  1  0  0  0  0
  4 32  1  0  0  0  0
  5  6  1  0  0  0  0
  5 33  1  0  0  0  0
  5 34  1  0  0  0  0
  6  7  1  0  0  0  0
  6 35  1  0  0  0  0
  7  8  2  0  0  0  0
  7  9  1  0  0  0  0
  9 10  1  0  0  0  0
  9 36  1  0  0  0  0
  9 37  1  0  0  0  0
 10 17  1  0  0  0  0
 10 11  2  0  0  0  0
 11 12  1  0  0  0  0
 11 13  1  0  0  0  0
 12 38  1  0  0  0  0
 12 39  1  0  0  0  0
 12 40  1  0  0  0  0
 13 14  2  0  0  0  0
 14 15  1  0  0  0  0
 14 16  1  0  0  0  0
 15 41  1  0  0  0  0
 15 42  1  0  0  0  0
 15 43  1  0  0  0  0
 16 17  1  0  0  0  0
 17 18  2  0  0  0  0
 19 24  1  0  0  0  0
 19 20  1  0  0  0  0
 20 21  1  0  0  0  0
 20 44  1  0  0  0  0
 20 45  1  0  0  0  0
 21 22  1  0  0  0  0
 21 46  1  0  0  0  0
 21 47  1  0  0  0  0
 22 23  1  0  0  0  0
 23 24  1  0  0  0  0
 23 48  1  0  0  0  0
 23 49  1  0  0  0  0
 24 50  1  0  0  0  0
 24 51  1  0  0  0  0
M  CHG  1  16  -1
M  END
> <s_m_source_file>
AV-unprocessed.smi

> <i_m_source_file_index>
1492

> <i_lp_mmshare_version>
43012

> <i_f3d_flags>
0

> <s_epik_input>
W0NIMl0xW0NIMl1PW0NIMl1bQ0gyXU4xW0NAQF0oW0NIM10pKFtDSDJdW0NIM10pW0NIMl1bTkhdQyg9TylbQ0gyXWMyYyhbQ0gzXSluYyhbQ0gzXSlbbkhdYzI9Tw==

> <s_epik_cmdline>
J2VwaWtfcHl0aG9uJywgJy1waCcsICc3LjAnLCAnLXRuJywgJzgnLCAnLW1hJywgJzIwMCcsICctbWV0YWxfYmluZGluZycsICctaW1hZScsICc8aW5maWxlLm1hZT4nLCAnLW9tYWUnLCAnPG91dGZpbGUubWFlPic=

> <r_lp_tautomer_probability>
0.839158

> <r_epik_Ionization_Penalty>
6.88574

> <r_epik_Ionization_Penalty_Charging>
6.74373e-08

> <r_epik_Ionization_Penalty_Neutral>
6.88574

> <r_epik_State_Penalty>
4.79448

> <r_epik_Charging_Adjusted_Penalty>
4.79448

> <i_epik_Tot_Q>
-1

> <i_epik_Tot_abs_Q>
1

> <r_epik_Metal_State_Penalty>
1.16421

> <b_epik_Metal_Only>
1

> <s_lp_Force_Field>
OPLS_2005

> <r_lp_Energy>
46.4707

> <b_lp_Chiralities_Consistent>
1

> <s_lp_Variant>
AV-unprocessed.smi:1492-10

> <Gold.Version>
5.8.1

> <Gold.Id.Protein>
6NUR|6NUR_protein|mol2

> <Gold.PLP.Fitness>
36.2794

> <Gold.PLP.PLP>
-34.1830

> <Gold.PLP.part.hbond>
-1.0000

> <Gold.PLP.part.metal>
0.0000

> <Gold.PLP.part.buried>
-4.6558

> <Gold.PLP.part.nonpolar>
-28.8560

> <Gold.PLP.part.repulsive>
0.1035

> <Gold.PLP.ligand.clash>
0.0000

> <Gold.PLP.ligand.torsion>
0.5090

> <Gold.PLP.Chemscore.Hbond>
1.0000

> <Gold.PLP.Chemscore.CHOScore>
0.0000

> <Gold.PLP.Chemscore.Metal>
0.0000

> <Gold.Chemscore.Hbonds>
donor molecule, donor type, donor heavy atom, donor atom, acceptor molecule, acceptor atom, score
      P1  H  6896  6907       L1     8  1.00

> <Gold.PLP.Chemscore.Internal.Correction>
0.1144

> <Gold.Rescore>
     Score         DG    S(hbond)    S(metal)    S(lipo)     H(rot)  DE(clash)    DE(int)     intcor
     12.87     -13.50       0.99        0.00      85.07       2.05       0.00       0.63       ----

> <Gold.Chemscore.Fitness>
12.8726

> <Gold.Chemscore.DG>
-13.5040

> <Gold.Chemscore.ZeroCoef>
-5.4800

> <Gold.Chemscore.Hbond>
0.9906

> <Gold.Chemscore.Metal>
0.0000

> <Gold.Chemscore.Lipo>
85.0723

> <Gold.Chemscore.Internal_Hbond>
0.0000

> <Gold.Chemscore.DEClash>
0.0047

> <Gold.Chemscore.DEInternal>
0.6267

> <Gold.Chemscore.Rot>
2.0461

> <Gold.Chemscore.Internal.Correction>
   9.000000E+99

> <Gold.Chemscore.Hbonds>
donor molecule, donor type, donor heavy atom, donor atom, acceptor molecule, acceptor atom, score
      P1  H  6896  6907       L1     8  1.00

> <Gold.Chemscore.Hbond.Weighted>
-3.3086

> <Gold.Chemscore.Metal.Weighted>
-0.0000

> <Gold.Chemscore.Lipo.Weighted>
-9.9535

> <Gold.Chemscore.Internal_Hbond.Weighted>
0.0000

> <Gold.Chemscore.DEClash.Weighted>
0.0047

> <Gold.Chemscore.DEInternal.Weighted>
0.6267

> <Gold.Chemscore.Rot.Weighted>
5.2381

> <Gold.Chemscore.Internal.Correction.Weighted>
   9.000000E+99

> <Gold.Protein.RotatedTorsions>
[ 6907 6896 6895 6894 ] final  -92.13 input  -60.11 | X-H torsion
[ 7974 7965 7964 7962 ] final   62.12 input  175.53 | X-H torsion
[ 8008 7997 7996 7995 ] final   54.34 input   59.86 | X-H torsion
[ 10167 10162 10161 10158 ] final   73.86 input  -65.29 | X-H torsion
[ 10718 10713 10712 10709 ] final -117.96 input   66.30 | X-H torsion
[ 10763 10752 10751 10750 ] final  -10.44 input  -60.55 | X-H torsion
[ 11005 11000 10999 10996 ] final  -96.83 input  -57.11 | X-H torsion

> <Gold.Protein.ActiveResidues>
 VAL166  LYS551  ARG553  GLY616  TRP617  ASP618  TYR619  PRO620  LYS621  CYS622 
 ASP623  PHE694  ASN695  SER759  ASP760  ASP761  ALA762  ILE779  LEU786  VAL792 
 PHE793  MET794  SER795  GLU796  ALA797  LYS798  CYS799  TRP800  GLU811  SER814 

> <Gold.Protein.RotatedAtoms>
  150.6902  134.2169  159.4381 H   0  0  0  0  0  0  0  0  0  0  0  0  # atno 6907 bound_to 6896
  152.0128  134.9864  160.0578 H   0  0  0  0  0  0  0  0  0  0  0  0  # atno 6908 bound_to 6896
  152.1472  133.4465  159.4833 H   0  0  0  0  0  0  0  0  0  0  0  0  # atno 6909 bound_to 6896
  145.8770  139.3417  143.0728 H   0  0  0  0  0  0  0  0  0  0  0  0  # atno 7974 bound_to 7965
  155.4831  140.3469  155.4343 H   0  0  0  0  0  0  0  0  0  0  0  0  # atno 8008 bound_to 7997
  156.1026  140.1439  156.9475 H   0  0  0  0  0  0  0  0  0  0  0  0  # atno 8009 bound_to 7997
  154.4704  140.0903  156.7107 H   0  0  0  0  0  0  0  0  0  0  0  0  # atno 8010 bound_to 7997
  140.0199  144.5549  150.7590 H   0  0  0  0  0  0  0  0  0  0  0  0  # atno 10167 bound_to 10162
  156.1071  130.6219  150.9230 H   0  0  0  0  0  0  0  0  0  0  0  0  # atno 10718 bound_to 10713
  153.4692  135.7016  153.6003 H   0  0  0  0  0  0  0  0  0  0  0  0  # atno 10763 bound_to 10752
  153.4264  135.3813  155.2144 H   0  0  0  0  0  0  0  0  0  0  0  0  # atno 10764 bound_to 10752
  154.8725  135.3940  154.4128 H   0  0  0  0  0  0  0  0  0  0  0  0  # atno 10765 bound_to 10752
  141.1399  133.8126  157.0624 H   0  0  0  0  0  0  0  0  0  0  0  0  # atno 11005 bound_to 11000
  145.9069  140.9206  143.0474 LP  0  0  0  0  0  0  0  0  0  0  0  0  # atno 17320 bound_to 7965
  144.6726  140.1107  143.7455 LP  0  0  0  0  0  0  0  0  0  0  0  0  # atno 17321 bound_to 7965
  140.7347  143.2732  151.3824 LP  0  0  0  0  0  0  0  0  0  0  0  0  # atno 17342 bound_to 10162
  139.6147  144.1027  152.2333 LP  0  0  0  0  0  0  0  0  0  0  0  0  # atno 17343 bound_to 10162
  157.6249  131.0926  150.8552 LP  0  0  0  0  0  0  0  0  0  0  0  0  # atno 17370 bound_to 10713
  156.8669  130.5132  149.5299 LP  0  0  0  0  0  0  0  0  0  0  0  0  # atno 17371 bound_to 10713
  140.0563  134.9779  157.1226 LP  0  0  0  0  0  0  0  0  0  0  0  0  # atno 17394 bound_to 11000
  140.3914  134.2180  155.7166 LP  0  0  0  0  0  0  0  0  0  0  0  0  # atno 17395 bound_to 11000

$$$$
