AV-unprocessed.smi:2540|AV-procd|sdf|9987|dock4
  -GOLD-   2272014 33D 1   1.00000     0.00000
 Structure written by MMmdl.
 28 29  0  0  0  0  0  0  0  0  2 V2000
  153.2244  138.4891  154.4434 C   0  0  0  0  0  0  0  0  0  0  0  0
  152.7971  139.6428  155.1456 O   0  0  0  0  0  0  0  0  0  0  0  0
  151.4594  139.5371  155.6049 C   0  0  0  0  0  0  0  0  0  0  0  0
  151.4004  139.8100  157.1147 C   0  0  0  0  0  0  0  0  0  0  0  0
  151.2274  141.2382  157.4188 N   0  0  0  0  0  0  0  0  0  0  0  0
  150.5322  142.2081  156.7713 C   0  0  0  0  0  0  0  0  0  0  0  0
  149.7890  142.0293  155.6060 N   0  0  0  0  0  0  0  0  0  0  0  0
  150.6701  143.3866  157.4296 N   0  3  0  0  0  0  0  0  0  0  0  0
  151.4887  143.1713  158.5425 C   0  0  0  0  0  0  0  0  0  0  0  0
  151.9322  144.0504  159.5258 C   0  0  0  0  0  0  0  0  0  0  0  0
  152.7671  143.5128  160.5273 C   0  0  0  0  0  0  0  0  0  0  0  0
  153.1317  142.1509  160.5279 C   0  0  0  0  0  0  0  0  0  0  0  0
  152.6757  141.2657  159.5291 C   0  0  0  0  0  0  0  0  0  0  0  0
  151.8498  141.8014  158.5412 C   0  0  0  0  0  0  0  0  0  0  0  0
  154.2546  138.6219  154.1129 H   0  0  0  0  0  0  0  0  0  0  0  0
  152.6080  138.3140  153.5608 H   0  0  0  0  0  0  0  0  0  0  0  0
  153.1857  137.6036  155.0790 H   0  0  0  0  0  0  0  0  0  0  0  0
  150.8261  140.2501  155.0745 H   0  0  0  0  0  0  0  0  0  0  0  0
  151.0716  138.5390  155.3962 H   0  0  0  0  0  0  0  0  0  0  0  0
  150.5607  139.2738  157.5577 H   0  0  0  0  0  0  0  0  0  0  0  0
  152.2966  139.4433  157.6149 H   0  0  0  0  0  0  0  0  0  0  0  0
  149.2935  142.7929  155.1686 H   0  0  0  0  0  0  0  0  0  0  0  0
  149.7222  141.1263  155.1584 H   0  0  0  0  0  0  0  0  0  0  0  0
  151.6571  145.0948  159.5279 H   0  0  0  0  0  0  0  0  0  0  0  0
  153.1374  144.1589  161.3100 H   0  0  0  0  0  0  0  0  0  0  0  0
  153.7763  141.7767  161.3102 H   0  0  0  0  0  0  0  0  0  0  0  0
  152.9672  140.2259  159.5367 H   0  0  0  0  0  0  0  0  0  0  0  0
  150.2460  144.2594  157.1430 H   0  0  0  0  0  0  0  0  0  0  0  0
  1  2  1  0  0  0  0
  1 15  1  0  0  0  0
  1 16  1  0  0  0  0
  1 17  1  0  0  0  0
  2  3  1  0  0  0  0
  3  4  1  0  0  0  0
  3 18  1  0  0  0  0
  3 19  1  0  0  0  0
  4  5  1  0  0  0  0
  4 20  1  0  0  0  0
  4 21  1  0  0  0  0
  5 14  1  0  0  0  0
  5  6  1  0  0  0  0
  6  7  1  0  0  0  0
  6  8  2  0  0  0  0
  7 22  1  0  0  0  0
  7 23  1  0  0  0  0
  8  9  1  0  0  0  0
  8 28  1  0  0  0  0
  9 14  2  0  0  0  0
  9 10  1  0  0  0  0
 10 11  2  0  0  0  0
 10 24  1  0  0  0  0
 11 12  1  0  0  0  0
 11 25  1  0  0  0  0
 12 13  2  0  0  0  0
 12 26  1  0  0  0  0
 13 14  1  0  0  0  0
 13 27  1  0  0  0  0
M  CHG  1   8   1
M  END
> <s_m_source_file>
AV-unprocessed.smi

> <i_m_source_file_index>
2540

> <i_lp_mmshare_version>
43012

> <i_f3d_flags>
0

> <s_epik_input>
W0NIM11PW0NIMl1bQ0gyXW4oYyhuMSlbTkgyXSljKGMxMilbY0hdW2NIXVtjSF1bY0hdMg==

> <s_epik_cmdline>
J2VwaWtfcHl0aG9uJywgJy1waCcsICc3LjAnLCAnLXRuJywgJzgnLCAnLW1hJywgJzIwMCcsICctbWV0YWxfYmluZGluZycsICctaW1hZScsICc8aW5maWxlLm1hZT4nLCAnLW9tYWUnLCAnPG91dGZpbGUubWFlPic=

> <r_epik_Ionization_Penalty>
0.266071

> <r_epik_Ionization_Penalty_Charging>
0.266069

> <r_epik_Ionization_Penalty_Neutral>
1.55827e-06

> <r_epik_State_Penalty>
0.258006

> <r_epik_Charging_Adjusted_Penalty>
0.524075

> <i_epik_Tot_Q>
1

> <i_epik_Tot_abs_Q>
1

> <r_epik_Metal_State_Penalty>
3.73495

> <b_epik_Metal_Only>
0

> <s_lp_Force_Field>
OPLS_2005

> <r_lp_Energy>
14.4512

> <b_lp_Chiralities_Consistent>
1

> <s_lp_Variant>
AV-unprocessed.smi:2540-1

> <Gold.Version>
5.8.1

> <Gold.Id.Protein>
6NUR|6NUR_protein|mol2

> <Gold.PLP.Fitness>
43.7159

> <Gold.PLP.PLP>
-34.1635

> <Gold.PLP.part.hbond>
-4.0000

> <Gold.PLP.part.metal>
0.0000

> <Gold.PLP.part.buried>
-4.4957

> <Gold.PLP.part.nonpolar>
-26.6375

> <Gold.PLP.part.repulsive>
0.1683

> <Gold.PLP.ligand.clash>
0.0000

> <Gold.PLP.ligand.torsion>
0.8842

> <Gold.PLP.Chemscore.Hbond>
3.7722

> <Gold.PLP.Chemscore.CHOScore>
0.0000

> <Gold.PLP.Chemscore.Metal>
0.0000

> <Gold.Chemscore.Hbonds>
donor molecule, donor type, donor heavy atom, donor atom, acceptor molecule, acceptor atom, score
      L1  H     7    22       P1  8028  1.44
      L1  H     8    28       P1  8028  1.33
      P1  H  7997  8008       L1     2  1.00

> <Gold.PLP.Chemscore.Internal.Correction>
0.0040

> <Gold.Rescore>
     Score         DG    S(hbond)    S(metal)    S(lipo)     H(rot)  DE(clash)    DE(int)     intcor
     17.95     -18.75       2.11        0.00      85.76       1.49       0.04       0.76       ----

> <Gold.Chemscore.Fitness>
17.9530

> <Gold.Chemscore.DG>
-18.7488

> <Gold.Chemscore.ZeroCoef>
-5.4800

> <Gold.Chemscore.Hbond>
2.1137

> <Gold.Chemscore.Metal>
0.0000

> <Gold.Chemscore.Lipo>
85.7571

> <Gold.Chemscore.Internal_Hbond>
0.0000

> <Gold.Chemscore.DEClash>
0.0372

> <Gold.Chemscore.DEInternal>
0.7586

> <Gold.Chemscore.Rot>
1.4940

> <Gold.Chemscore.Internal.Correction>
   9.000000E+99

> <Gold.Chemscore.Hbonds>
donor molecule, donor type, donor heavy atom, donor atom, acceptor molecule, acceptor atom, score
      L1  H     7    22       P1  8028  0.68
      L1  H     8    28       P1  8028  0.52
      P1  H  7997  8008       L1     2  0.26

> <Gold.Chemscore.Hbond.Weighted>
-7.0599

> <Gold.Chemscore.Metal.Weighted>
-0.0000

> <Gold.Chemscore.Lipo.Weighted>
-10.0336

> <Gold.Chemscore.Internal_Hbond.Weighted>
0.0000

> <Gold.Chemscore.DEClash.Weighted>
0.0372

> <Gold.Chemscore.DEInternal.Weighted>
0.7586

> <Gold.Chemscore.Rot.Weighted>
3.8247

> <Gold.Chemscore.Internal.Correction.Weighted>
   9.000000E+99

> <Gold.Protein.RotatedTorsions>
[ 6907 6896 6895 6894 ] final  -27.15 input  -60.11 | X-H torsion
[ 7974 7965 7964 7962 ] final  -24.12 input  175.53 | X-H torsion
[ 8008 7997 7996 7995 ] final  -16.36 input   59.86 | X-H torsion
[ 10167 10162 10161 10158 ] final   12.83 input  -65.29 | X-H torsion
[ 10718 10713 10712 10709 ] final -161.00 input   66.30 | X-H torsion
[ 10763 10752 10751 10750 ] final  -33.47 input  -60.55 | X-H torsion
[ 11005 11000 10999 10996 ] final  -89.29 input  -57.11 | X-H torsion

> <Gold.Protein.ActiveResidues>
 VAL166  LYS551  ARG553  GLY616  TRP617  ASP618  TYR619  PRO620  LYS621  CYS622 
 ASP623  PHE694  ASN695  SER759  ASP760  ASP761  ALA762  ILE779  LEU786  VAL792 
 PHE793  MET794  SER795  GLU796  ALA797  LYS798  CYS799  TRP800  GLU811  SER814 

> <Gold.Protein.RotatedAtoms>
  151.1509  135.0227  159.8667 H   0  0  0  0  0  0  0  0  0  0  0  0  # atno 6907 bound_to 6896
  152.5452  134.1389  159.8481 H   0  0  0  0  0  0  0  0  0  0  0  0  # atno 6908 bound_to 6896
  151.1475  133.4884  159.2628 H   0  0  0  0  0  0  0  0  0  0  0  0  # atno 6909 bound_to 6896
  146.1575  140.4708  142.8585 H   0  0  0  0  0  0  0  0  0  0  0  0  # atno 7974 bound_to 7965
  154.5059  140.2171  155.9252 H   0  0  0  0  0  0  0  0  0  0  0  0  # atno 8008 bound_to 7997
  156.1493  140.3164  155.8588 H   0  0  0  0  0  0  0  0  0  0  0  0  # atno 8009 bound_to 7997
  155.3971  140.0482  157.3029 H   0  0  0  0  0  0  0  0  0  0  0  0  # atno 8010 bound_to 7997
  140.6042  143.8542  150.6996 H   0  0  0  0  0  0  0  0  0  0  0  0  # atno 10167 bound_to 10162
  156.5900  130.8766  151.2887 H   0  0  0  0  0  0  0  0  0  0  0  0  # atno 10718 bound_to 10713
  153.8307  135.6866  153.4815 H   0  0  0  0  0  0  0  0  0  0  0  0  # atno 10763 bound_to 10752
  153.1512  135.4617  154.9638 H   0  0  0  0  0  0  0  0  0  0  0  0  # atno 10764 bound_to 10752
  154.7888  135.3294  154.7771 H   0  0  0  0  0  0  0  0  0  0  0  0  # atno 10765 bound_to 10752
  141.1587  133.7621  156.9574 H   0  0  0  0  0  0  0  0  0  0  0  0  # atno 11005 bound_to 11000
  144.7982  140.6163  143.6496 LP  0  0  0  0  0  0  0  0  0  0  0  0  # atno 17320 bound_to 7965
  145.4673  139.1507  143.3833 LP  0  0  0  0  0  0  0  0  0  0  0  0  # atno 17321 bound_to 7965
  140.2095  143.3895  152.1729 LP  0  0  0  0  0  0  0  0  0  0  0  0  # atno 17342 bound_to 10162
  139.5313  144.7162  151.5047 LP  0  0  0  0  0  0  0  0  0  0  0  0  # atno 17343 bound_to 10162
  157.7306  130.9687  150.1840 LP  0  0  0  0  0  0  0  0  0  0  0  0  # atno 17370 bound_to 10713
  156.2558  130.3705  149.8183 LP  0  0  0  0  0  0  0  0  0  0  0  0  # atno 17371 bound_to 10713
  140.1216  134.9413  157.2211 LP  0  0  0  0  0  0  0  0  0  0  0  0  # atno 17394 bound_to 11000
  140.3065  134.3072  155.7277 LP  0  0  0  0  0  0  0  0  0  0  0  0  # atno 17395 bound_to 11000

$$$$
