AV-unprocessed.smi:2784|AV-procd|sdf|10730|dock3
  -GOLD-   2272015163D 1   1.00000     0.00000
 Structure written by MMmdl.
 32 33  0  0  0  0  0  0  0  0  2 V2000
  153.4122  140.9069  159.7220 C   0  0  0  0  0  0  0  0  0  0  0  0
  152.1049  141.4203  159.5206 O   0  0  0  0  0  0  0  0  0  0  0  0
  152.0595  142.5387  158.6455 C   0  0  2  0  0  0  0  0  0  0  0  0
  153.0830  143.5830  159.1003 C   0  0  0  0  0  0  0  0  0  0  0  0
  152.4985  144.9139  158.6402 C   0  0  0  0  0  0  0  0  0  0  0  0
  150.9975  144.7561  158.8791 C   0  0  0  0  0  0  0  0  0  0  0  0
  150.6924  143.2616  158.6630 C   0  0  1  0  0  0  0  0  0  0  0  0
  149.9877  143.0556  157.3995 N   0  0  0  0  0  0  0  0  0  0  0  0
  149.6716  141.8625  156.8756 C   0  0  0  0  0  0  0  0  0  0  0  0
  149.9324  140.7868  157.4146 O   0  0  0  0  0  0  0  0  0  0  0  0
  149.0400  141.9923  155.6991 N   0  0  0  0  0  0  0  0  0  0  0  0
  148.6066  140.9295  154.8734 C   0  0  0  0  0  0  0  0  0  0  0  0
  147.5196  140.9781  154.1051 N   0  3  0  0  0  0  0  0  0  0  0  0
  147.3997  139.7857  153.4354 C   0  0  0  0  0  0  0  0  0  0  0  0
  148.4673  139.0210  153.8402 C   0  0  0  0  0  0  0  0  0  0  0  0
  149.2354  139.7266  154.7446 O   0  0  0  0  0  0  0  0  0  0  0  0
  153.3707  140.0675  160.4160 H   0  0  0  0  0  0  0  0  0  0  0  0
  154.0709  141.6636  160.1497 H   0  0  0  0  0  0  0  0  0  0  0  0
  153.8520  140.5471  158.7915 H   0  0  0  0  0  0  0  0  0  0  0  0
  152.3245  142.2326  157.6309 H   0  0  0  0  0  0  0  0  0  0  0  0
  153.1591  143.5818  160.1887 H   0  0  0  0  0  0  0  0  0  0  0  0
  154.0794  143.3969  158.6981 H   0  0  0  0  0  0  0  0  0  0  0  0
  152.9217  145.7663  159.1725 H   0  0  0  0  0  0  0  0  0  0  0  0
  152.6914  145.0534  157.5758 H   0  0  0  0  0  0  0  0  0  0  0  0
  150.7702  145.0219  159.9125 H   0  0  0  0  0  0  0  0  0  0  0  0
  150.4084  145.4185  158.2430 H   0  0  0  0  0  0  0  0  0  0  0  0
  150.0923  142.9000  159.5003 H   0  0  0  0  0  0  0  0  0  0  0  0
  149.7295  143.8873  156.8887 H   0  0  0  0  0  0  0  0  0  0  0  0
  146.8666  141.7449  154.0024 H   0  0  0  0  0  0  0  0  0  0  0  0
  146.5836  139.6032  152.7507 H   0  0  0  0  0  0  0  0  0  0  0  0
  148.8050  138.0236  153.5984 H   0  0  0  0  0  0  0  0  0  0  0  0
  148.8683  142.9269  155.3594 H   0  0  0  0  0  0  0  0  0  0  0  0
  1  2  1  0  0  0  0
  1 17  1  0  0  0  0
  1 18  1  0  0  0  0
  1 19  1  0  0  0  0
  2  3  1  0  0  0  0
  3  7  1  0  0  0  0
  3  4  1  0  0  0  0
  3 20  1  0  0  0  0
  4  5  1  0  0  0  0
  4 21  1  0  0  0  0
  4 22  1  0  0  0  0
  5  6  1  0  0  0  0
  5 23  1  0  0  0  0
  5 24  1  0  0  0  0
  6  7  1  0  0  0  0
  6 25  1  0  0  0  0
  6 26  1  0  0  0  0
  7  8  1  0  0  0  0
  7 27  1  0  0  0  0
  8 28  1  0  0  0  0
  8  9  1  0  0  0  0
  9 11  1  0  0  0  0
  9 10  2  0  0  0  0
 11 12  1  0  0  0  0
 11 32  1  0  0  0  0
 12 16  1  0  0  0  0
 12 13  2  0  0  0  0
 13 29  1  0  0  0  0
 13 14  1  0  0  0  0
 14 30  1  0  0  0  0
 14 15  2  0  0  0  0
 15 31  1  0  0  0  0
 15 16  1  0  0  0  0
M  CHG  1  13   1
M  END
> <s_m_source_file>
AV-unprocessed.smi

> <i_m_source_file_index>
2784

> <i_lp_mmshare_version>
43012

> <i_f3d_flags>
0

> <s_epik_input>
W0NIM11PW0NAQEhdMVtDSDJdW0NIMl1bQ0gyXVtDQEhdMVtOSF1DKD1PKVtOSF1jMm5bY0hdW2NIXW8y

> <s_epik_cmdline>
J2VwaWtfcHl0aG9uJywgJy1waCcsICc3LjAnLCAnLXRuJywgJzgnLCAnLW1hJywgJzIwMCcsICctbWV0YWxfYmluZGluZycsICctaW1hZScsICc8aW5maWxlLm1hZT4nLCAnLW9tYWUnLCAnPG91dGZpbGUubWFlPic=

> <r_epik_Ionization_Penalty>
6.73843

> <r_epik_Ionization_Penalty_Charging>
6.66704

> <r_epik_Ionization_Penalty_Neutral>
0.0713889

> <r_epik_State_Penalty>
1.94951

> <r_epik_Charging_Adjusted_Penalty>
8.61656

> <i_epik_Tot_Q>
1

> <i_epik_Tot_abs_Q>
1

> <r_epik_Metal_State_Penalty>
1.97013

> <b_epik_Metal_Only>
0

> <s_lp_Force_Field>
OPLS_2005

> <r_lp_Energy>
26.9129

> <b_lp_Chiralities_Consistent>
1

> <s_lp_Variant>
AV-unprocessed.smi:2784-5

> <Gold.Version>
5.8.1

> <Gold.Id.Protein>
6NUR|6NUR_protein|mol2

> <Gold.PLP.Fitness>
37.8457

> <Gold.PLP.PLP>
-29.4705

> <Gold.PLP.part.hbond>
-2.0000

> <Gold.PLP.part.metal>
0.0000

> <Gold.PLP.part.buried>
-3.3993

> <Gold.PLP.part.nonpolar>
-24.1041

> <Gold.PLP.part.repulsive>
0.3241

> <Gold.PLP.ligand.clash>
0.0000

> <Gold.PLP.ligand.torsion>
0.2950

> <Gold.PLP.Chemscore.Hbond>
2.0000

> <Gold.PLP.Chemscore.CHOScore>
0.9864

> <Gold.PLP.Chemscore.Metal>
0.0000

> <Gold.Chemscore.Hbonds>
donor molecule, donor type, donor heavy atom, donor atom, acceptor molecule, acceptor atom, score
      L1  H     8    28       P1  8028  1.00
      L1  H    11    32       P1  8028  0.99
      L1  C    15    31       P1  7948  1.00

> <Gold.PLP.Chemscore.Internal.Correction>
0.0059

> <Gold.Rescore>
     Score         DG    S(hbond)    S(metal)    S(lipo)     H(rot)  DE(clash)    DE(int)     intcor
     16.07     -17.48       1.89        0.00      77.95       1.34       0.00       1.42       ----

> <Gold.Chemscore.Fitness>
16.0694

> <Gold.Chemscore.DG>
-17.4847

> <Gold.Chemscore.ZeroCoef>
-5.4800

> <Gold.Chemscore.Hbond>
1.8870

> <Gold.Chemscore.Metal>
0.0000

> <Gold.Chemscore.Lipo>
77.9461

> <Gold.Chemscore.Internal_Hbond>
0.0000

> <Gold.Chemscore.DEClash>
0.0000

> <Gold.Chemscore.DEInternal>
1.4153

> <Gold.Chemscore.Rot>
1.3351

> <Gold.Chemscore.Internal.Correction>
   9.000000E+99

> <Gold.Chemscore.Hbonds>
donor molecule, donor type, donor heavy atom, donor atom, acceptor molecule, acceptor atom, score
      L1  H     8    28       P1  8028  0.92
      L1  H    11    32       P1  8028  0.94

> <Gold.Chemscore.Hbond.Weighted>
-6.3027

> <Gold.Chemscore.Metal.Weighted>
-0.0000

> <Gold.Chemscore.Lipo.Weighted>
-9.1197

> <Gold.Chemscore.Internal_Hbond.Weighted>
0.0000

> <Gold.Chemscore.DEClash.Weighted>
0.0000

> <Gold.Chemscore.DEInternal.Weighted>
1.4153

> <Gold.Chemscore.Rot.Weighted>
3.4177

> <Gold.Chemscore.Internal.Correction.Weighted>
   9.000000E+99

> <Gold.Protein.RotatedTorsions>
[ 6907 6896 6895 6894 ] final -160.14 input  -60.11 | X-H torsion
[ 7974 7965 7964 7962 ] final   25.25 input  175.53 | X-H torsion
[ 8008 7997 7996 7995 ] final   99.94 input   59.86 | X-H torsion
[ 10167 10162 10161 10158 ] final -138.82 input  -65.29 | X-H torsion
[ 10718 10713 10712 10709 ] final  -83.77 input   66.30 | X-H torsion
[ 10763 10752 10751 10750 ] final  152.94 input  -60.55 | X-H torsion
[ 11005 11000 10999 10996 ] final  -70.44 input  -57.11 | X-H torsion

> <Gold.Protein.ActiveResidues>
 VAL166  LYS551  ARG553  GLY616  TRP617  ASP618  TYR619  PRO620  LYS621  CYS622 
 ASP623  PHE694  ASN695  SER759  ASP760  ASP761  ALA762  ILE779  LEU786  VAL792 
 PHE793  MET794  SER795  GLU796  ALA797  LYS798  CYS799  TRP800  GLU811  SER814 

> <Gold.Protein.RotatedAtoms>
  151.3444  133.3949  159.2673 H   0  0  0  0  0  0  0  0  0  0  0  0  # atno 6907 bound_to 6896
  150.9851  134.9199  159.7877 H   0  0  0  0  0  0  0  0  0  0  0  0  # atno 6908 bound_to 6896
  152.5230  134.3409  159.9269 H   0  0  0  0  0  0  0  0  0  0  0  0  # atno 6909 bound_to 6896
  146.1898  139.7492  142.8840 H   0  0  0  0  0  0  0  0  0  0  0  0  # atno 7974 bound_to 7965
  156.1154  140.3221  155.8132 H   0  0  0  0  0  0  0  0  0  0  0  0  # atno 8008 bound_to 7997
  155.4599  140.0538  157.3009 H   0  0  0  0  0  0  0  0  0  0  0  0  # atno 8009 bound_to 7997
  154.4789  140.2044  155.9824 H   0  0  0  0  0  0  0  0  0  0  0  0  # atno 8010 bound_to 7997
  139.8440  143.7285  152.2662 H   0  0  0  0  0  0  0  0  0  0  0  0  # atno 10167 bound_to 10162
  156.0014  130.4676  150.4308 H   0  0  0  0  0  0  0  0  0  0  0  0  # atno 10718 bound_to 10713
  154.1282  135.2828  155.3192 H   0  0  0  0  0  0  0  0  0  0  0  0  # atno 10763 bound_to 10752
  154.6375  135.5414  153.7754 H   0  0  0  0  0  0  0  0  0  0  0  0  # atno 10764 bound_to 10752
  153.0290  135.6478  154.1433 H   0  0  0  0  0  0  0  0  0  0  0  0  # atno 10765 bound_to 10752
  141.1574  133.6790  156.6752 H   0  0  0  0  0  0  0  0  0  0  0  0  # atno 11005 bound_to 11000
  145.3828  141.0361  143.3168 LP  0  0  0  0  0  0  0  0  0  0  0  0  # atno 17320 bound_to 7965
  144.8465  139.5389  143.6876 LP  0  0  0  0  0  0  0  0  0  0  0  0  # atno 17321 bound_to 7965
  139.7531  144.7528  151.0477 LP  0  0  0  0  0  0  0  0  0  0  0  0  # atno 17342 bound_to 10162
  140.7795  143.4837  150.9984 LP  0  0  0  0  0  0  0  0  0  0  0  0  # atno 17343 bound_to 10162
  157.2357  131.0514  151.2466 LP  0  0  0  0  0  0  0  0  0  0  0  0  # atno 17370 bound_to 10713
  157.3669  130.7160  149.6538 LP  0  0  0  0  0  0  0  0  0  0  0  0  # atno 17371 bound_to 10713
  140.3144  134.8059  157.4202 LP  0  0  0  0  0  0  0  0  0  0  0  0  # atno 17394 bound_to 11000
  140.1151  134.5294  155.8232 LP  0  0  0  0  0  0  0  0  0  0  0  0  # atno 17395 bound_to 11000

$$$$
