AV-unprocessed.smi:1|AV-procd|sdf|14|dock5
  -GOLD-   2262015103D 1   1.00000     0.00000
 Structure written by MMmdl.
 57 62  0  0  0  0  0  0  0  0  1 V2000
  150.4323  142.5619  155.9720 O   0  0  0  0  0  0  0  0  0  0  0  0
  150.7359  141.8200  156.9102 C   0  0  0  0  0  0  0  0  0  0  0  0
  150.2450  140.5573  157.2158 N   0  0  0  0  0  0  0  0  0  0  0  0
  150.2458  139.6222  156.3145 C   0  0  0  0  0  0  0  0  0  0  0  0
  150.6604  139.5978  154.9768 N   0  0  0  0  0  0  0  0  0  0  0  0
  150.5744  138.4991  154.1088 C   0  0  0  0  0  0  0  0  0  0  0  0
  150.0961  137.3281  154.4329 N   0  0  0  0  0  0  0  0  0  0  0  0
  149.6799  137.2910  155.7575 C   0  0  0  0  0  0  0  0  0  0  0  0
  149.7108  138.2982  156.6988 C   0  0  0  0  0  0  0  0  0  0  0  0
  149.2007  137.8572  157.9151 N   0  0  0  0  0  0  0  0  0  0  0  0
  148.8836  136.5921  157.6555 C   0  0  0  0  0  0  0  0  0  0  0  0
  149.1387  136.1772  156.4009 N   0  0  0  0  0  0  0  0  0  0  0  0
  148.8840  134.8015  155.8662 C   0  0  1  0  0  0  0  0  0  0  0  0
  148.4431  133.9938  156.9130 O   0  0  0  0  0  0  0  0  0  0  0  0
  147.5022  133.0546  156.4181 C   0  0  1  0  0  0  0  0  0  0  0  0
  146.6351  132.5027  157.5566 C   0  0  0  0  0  0  0  0  0  0  0  0
  146.6432  133.4189  158.6398 O   0  0  0  0  0  0  0  0  0  0  0  0
  146.9897  133.0041  159.8744 C   0  0  0  0  0  0  0  0  0  0  0  0
  147.0828  131.8175  160.1953 O   0  0  0  0  0  0  0  0  0  0  0  0
  147.2544  134.1332  160.8121 C   0  0  0  0  0  0  0  0  0  0  0  0
  147.5330  135.4175  160.2888 C   0  0  0  0  0  0  0  0  0  0  0  0
  147.7849  136.5038  161.1491 C   0  0  0  0  0  0  0  0  0  0  0  0
  147.7640  136.3184  162.5437 C   0  0  0  0  0  0  0  0  0  0  0  0
  147.4904  135.0452  163.0768 C   0  0  0  0  0  0  0  0  0  0  0  0
  147.2359  133.9582  162.2179 C   0  0  0  0  0  0  0  0  0  0  0  0
  146.7448  133.8261  155.3360 C   0  0  1  0  0  0  0  0  0  0  0  0
  145.6853  134.5954  155.8782 O   0  0  0  0  0  0  0  0  0  0  0  0
  145.6462  136.0549  155.0721 S   0  0  0  0  0  0  0  0  0  0  0  0
  144.7627  135.9079  153.9052 O   0  0  0  0  0  0  0  0  0  0  0  0
  145.4799  137.1355  156.0554 O   0  0  0  0  0  0  0  0  0  0  0  0
  147.2251  136.0632  154.5261 O   0  0  0  0  0  0  0  0  0  0  0  0
  147.8017  134.7855  154.7663 C   0  0  1  0  0  0  0  0  0  0  0  0
  151.7734  142.2990  157.8725 C   0  0  0  0  0  0  0  0  0  0  0  0
  152.3719  141.3943  158.7751 C   0  0  0  0  0  0  0  0  0  0  0  0
  153.3540  141.8441  159.6790 C   0  0  0  0  0  0  0  0  0  0  0  0
  153.7423  143.1980  159.6816 C   0  0  0  0  0  0  0  0  0  0  0  0
  153.1493  144.1025  158.7795 C   0  0  0  0  0  0  0  0  0  0  0  0
  152.1665  143.6543  157.8752 C   0  0  0  0  0  0  0  0  0  0  0  0
  150.9490  138.6970  153.1035 H   0  0  0  0  0  0  0  0  0  0  0  0
  148.4559  135.9422  158.4046 H   0  0  0  0  0  0  0  0  0  0  0  0
  149.8545  134.4557  155.5080 H   0  0  0  0  0  0  0  0  0  0  0  0
  148.0652  132.2431  155.9536 H   0  0  0  0  0  0  0  0  0  0  0  0
  145.6089  132.3659  157.2139 H   0  0  0  0  0  0  0  0  0  0  0  0
  147.0051  131.5253  157.8701 H   0  0  0  0  0  0  0  0  0  0  0  0
  147.5543  135.5843  159.2214 H   0  0  0  0  0  0  0  0  0  0  0  0
  147.9944  137.4803  160.7378 H   0  0  0  0  0  0  0  0  0  0  0  0
  147.9578  137.1516  163.2032 H   0  0  0  0  0  0  0  0  0  0  0  0
  147.4754  134.9015  164.1471 H   0  0  0  0  0  0  0  0  0  0  0  0
  147.0299  132.9945  162.6602 H   0  0  0  0  0  0  0  0  0  0  0  0
  146.3368  133.1625  154.5727 H   0  0  0  0  0  0  0  0  0  0  0  0
  148.2424  134.3896  153.8509 H   0  0  0  0  0  0  0  0  0  0  0  0
  152.0810  140.3536  158.7769 H   0  0  0  0  0  0  0  0  0  0  0  0
  153.8108  141.1502  160.3692 H   0  0  0  0  0  0  0  0  0  0  0  0
  154.4960  143.5416  160.3748 H   0  0  0  0  0  0  0  0  0  0  0  0
  153.4485  145.1403  158.7804 H   0  0  0  0  0  0  0  0  0  0  0  0
  151.7175  144.3539  157.1850 H   0  0  0  0  0  0  0  0  0  0  0  0
  151.0512  140.4505  154.6028 H   0  0  0  0  0  0  0  0  0  0  0  0
  1  2  2  0  0  0  0
  2  3  1  0  0  0  0
  2 33  1  0  0  0  0
  3  4  2  0  0  0  0
  4  9  1  0  0  0  0
  4  5  1  0  0  0  0
  5  6  1  0  0  0  0
  5 57  1  0  0  0  0
  6  7  2  0  0  0  0
  6 39  1  0  0  0  0
  7  8  1  0  0  0  0
  8 12  1  0  0  0  0
  8  9  2  0  0  0  0
  9 10  1  0  0  0  0
 10 11  2  0  0  0  0
 11 12  1  0  0  0  0
 11 40  1  0  0  0  0
 12 13  1  0  0  0  0
 13 32  1  0  0  0  0
 13 14  1  0  0  0  0
 13 41  1  0  0  0  0
 14 15  1  0  0  0  0
 15 16  1  0  0  0  0
 15 26  1  0  0  0  0
 15 42  1  0  0  0  0
 16 17  1  0  0  0  0
 16 43  1  0  0  0  0
 16 44  1  0  0  0  0
 17 18  1  0  0  0  0
 18 19  2  0  0  0  0
 18 20  1  0  0  0  0
 20 25  1  0  0  0  0
 20 21  2  0  0  0  0
 21 22  1  0  0  0  0
 21 45  1  0  0  0  0
 22 23  2  0  0  0  0
 22 46  1  0  0  0  0
 23 24  1  0  0  0  0
 23 47  1  0  0  0  0
 24 25  2  0  0  0  0
 24 48  1  0  0  0  0
 25 49  1  0  0  0  0
 26 32  1  0  0  0  0
 26 27  1  0  0  0  0
 26 50  1  0  0  0  0
 27 28  1  0  0  0  0
 28 29  2  0  0  0  0
 28 30  2  0  0  0  0
 28 31  1  0  0  0  0
 31 32  1  0  0  0  0
 32 51  1  0  0  0  0
 33 38  1  0  0  0  0
 33 34  2  0  0  0  0
 34 35  1  0  0  0  0
 34 52  1  0  0  0  0
 35 36  2  0  0  0  0
 35 53  1  0  0  0  0
 36 37  1  0  0  0  0
 36 54  1  0  0  0  0
 37 38  2  0  0  0  0
 37 55  1  0  0  0  0
 38 56  1  0  0  0  0
M  END
> <s_m_source_file>
AV-unprocessed.smi

> <i_m_source_file_index>
1

> <i_lp_mmshare_version>
43012

> <i_f3d_flags>
0

> <s_epik_input>
W2NIXTFbY0hdW2NIXVtjSF1bY0hdYzFDKD1PKVtOSF1jKG5bY0hdbjIpYyhjMjMpbltjSF1uM1tDQEBIXShbQ0BIXShbQ0BIXTQ1KU9TKE81KSg9Tyk9TylPW0NASF00W0NIMl1PQyg9TyljNltjSF1bY0hdW2NIXVtjSF1bY0hdNg==

> <s_epik_cmdline>
J2VwaWtfcHl0aG9uJywgJy1waCcsICc3LjAnLCAnLXRuJywgJzgnLCAnLW1hJywgJzIwMCcsICctbWV0YWxfYmluZGluZycsICctaW1hZScsICc8aW5maWxlLm1hZT4nLCAnLW9tYWUnLCAnPG91dGZpbGUubWFlPic=

> <r_epik_Ionization_Penalty>
0.122545

> <r_epik_Ionization_Penalty_Charging>
0.122545

> <r_epik_Ionization_Penalty_Neutral>
7.8935e-16

> <r_epik_State_Penalty>
2.69178

> <r_epik_Charging_Adjusted_Penalty>
2.81433

> <i_epik_Tot_Q>
0

> <i_epik_Tot_abs_Q>
0

> <r_epik_Metal_State_Penalty>
3.02665

> <b_epik_Metal_Only>
0

> <s_epik_Chemistry_Notes>
This compound has an ester and may undergo hydrolysis at high or low pH. This compound contains an acetal/aminal-like group ( X-CH(R)-Y where X, Y are N, S, or O) that may be acid/base labile, releasing an aldehyde.

> <s_lp_Force_Field>
OPLS_2005

> <r_lp_Energy>
60.6373

> <b_lp_Chiralities_Consistent>
1

> <s_lp_Variant>
AV-unprocessed.smi:1-14

> <Gold.Version>
5.8.1

> <Gold.Id.Protein>
6NUR|6NUR_protein|mol2

> <Gold.PLP.Fitness>
59.0533

> <Gold.PLP.PLP>
-56.5522

> <Gold.PLP.part.hbond>
-2.4902

> <Gold.PLP.part.metal>
0.0000

> <Gold.PLP.part.buried>
-7.0548

> <Gold.PLP.part.nonpolar>
-49.7529

> <Gold.PLP.part.repulsive>
2.0412

> <Gold.PLP.ligand.clash>
0.0000

> <Gold.PLP.ligand.torsion>
1.8035

> <Gold.PLP.Chemscore.Hbond>
2.0000

> <Gold.PLP.Chemscore.CHOScore>
0.0000

> <Gold.PLP.Chemscore.Metal>
0.0000

> <Gold.Chemscore.Hbonds>
donor molecule, donor type, donor heavy atom, donor atom, acceptor molecule, acceptor atom, score
      L1  C     6    39       P1  7957  0.50

> <Gold.PLP.Chemscore.Internal.Correction>
0.1081

> <Gold.Rescore>
     Score         DG    S(hbond)    S(metal)    S(lipo)     H(rot)  DE(clash)    DE(int)     intcor
     17.88     -21.88       1.80        0.00     135.54       2.13       1.31       2.70       ----

> <Gold.Chemscore.Fitness>
17.8773

> <Gold.Chemscore.DG>
-21.8847

> <Gold.Chemscore.ZeroCoef>
-5.4800

> <Gold.Chemscore.Hbond>
1.7989

> <Gold.Chemscore.Metal>
0.0000

> <Gold.Chemscore.Lipo>
135.5356

> <Gold.Chemscore.Internal_Hbond>
0.0000

> <Gold.Chemscore.DEClash>
1.3086

> <Gold.Chemscore.DEInternal>
2.6988

> <Gold.Chemscore.Rot>
2.1333

> <Gold.Chemscore.Internal.Correction>
   9.000000E+99

> <Gold.Chemscore.Hbond.Weighted>
-6.0084

> <Gold.Chemscore.Metal.Weighted>
-0.0000

> <Gold.Chemscore.Lipo.Weighted>
-15.8577

> <Gold.Chemscore.Internal_Hbond.Weighted>
0.0000

> <Gold.Chemscore.DEClash.Weighted>
1.3086

> <Gold.Chemscore.DEInternal.Weighted>
2.6988

> <Gold.Chemscore.Rot.Weighted>
5.4614

> <Gold.Chemscore.Internal.Correction.Weighted>
   9.000000E+99

> <Gold.Protein.RotatedTorsions>
[ 6907 6896 6895 6894 ] final -120.89 input  -60.11 | X-H torsion
[ 7974 7965 7964 7962 ] final  -24.59 input  175.53 | X-H torsion
[ 8008 7997 7996 7995 ] final   78.86 input   59.86 | X-H torsion
[ 10167 10162 10161 10158 ] final -105.29 input  -65.29 | X-H torsion
[ 10718 10713 10712 10709 ] final  102.44 input   66.30 | X-H torsion
[ 10763 10752 10751 10750 ] final  -48.14 input  -60.55 | X-H torsion
[ 11005 11000 10999 10996 ] final  -28.44 input  -57.11 | X-H torsion

> <Gold.Protein.ActiveResidues>
 VAL166  LYS551  ARG553  GLY616  TRP617  ASP618  TYR619  PRO620  LYS621  CYS622 
 ASP623  PHE694  ASN695  SER759  ASP760  ASP761  ALA762  ILE779  LEU786  VAL792 
 PHE793  MET794  SER795  GLU796  ALA797  LYS798  CYS799  TRP800  GLU811  SER814 

> <Gold.Protein.RotatedAtoms>
  150.8433  133.7901  159.3052 H   0  0  0  0  0  0  0  0  0  0  0  0  # atno 6907 bound_to 6896
  151.5595  135.1064  159.9979 H   0  0  0  0  0  0  0  0  0  0  0  0  # atno 6908 bound_to 6896
  152.4492  133.7554  159.6773 H   0  0  0  0  0  0  0  0  0  0  0  0  # atno 6909 bound_to 6896
  146.1545  140.4772  142.8597 H   0  0  0  0  0  0  0  0  0  0  0  0  # atno 7974 bound_to 7965
  155.8616  140.3453  155.5760 H   0  0  0  0  0  0  0  0  0  0  0  0  # atno 8008 bound_to 7997
  155.7926  140.0874  157.2020 H   0  0  0  0  0  0  0  0  0  0  0  0  # atno 8009 bound_to 7997
  154.4012  140.1480  156.3168 H   0  0  0  0  0  0  0  0  0  0  0  0  # atno 8010 bound_to 7997
  140.2001  143.3825  152.1136 H   0  0  0  0  0  0  0  0  0  0  0  0  # atno 10167 bound_to 10162
  157.6802  131.0753  150.5405 H   0  0  0  0  0  0  0  0  0  0  0  0  # atno 10718 bound_to 10713
  154.0728  135.6602  153.4826 H   0  0  0  0  0  0  0  0  0  0  0  0  # atno 10763 bound_to 10752
  153.0384  135.5161  154.7550 H   0  0  0  0  0  0  0  0  0  0  0  0  # atno 10764 bound_to 10752
  154.6621  135.3016  154.9821 H   0  0  0  0  0  0  0  0  0  0  0  0  # atno 10765 bound_to 10752
  140.9208  133.7400  156.0799 H   0  0  0  0  0  0  0  0  0  0  0  0  # atno 11005 bound_to 11000
  144.7946  140.6097  143.6519 LP  0  0  0  0  0  0  0  0  0  0  0  0  # atno 17320 bound_to 7965
  145.4742  139.1501  143.3797 LP  0  0  0  0  0  0  0  0  0  0  0  0  # atno 17321 bound_to 7965
  139.5220  144.7054  151.5370 LP  0  0  0  0  0  0  0  0  0  0  0  0  # atno 17342 bound_to 10162
  140.6396  143.8915  150.6679 LP  0  0  0  0  0  0  0  0  0  0  0  0  # atno 17343 bound_to 10162
  156.5712  130.4280  149.6018 LP  0  0  0  0  0  0  0  0  0  0  0  0  # atno 17370 bound_to 10713
  156.2739  130.7032  151.1838 LP  0  0  0  0  0  0  0  0  0  0  0  0  # atno 17371 bound_to 10713
  140.7990  134.3531  157.5444 LP  0  0  0  0  0  0  0  0  0  0  0  0  # atno 17394 bound_to 11000
  139.8775  134.9186  156.3207 LP  0  0  0  0  0  0  0  0  0  0  0  0  # atno 17395 bound_to 11000

$$$$
