AV-unprocessed.smi:3328|AV-procd|sdf|12792|dock5
  -GOLD-   2272019143D 1   1.00000     0.00000
 Structure written by MMmdl.
 41 42  0  0  0  0  0  0  0  0  2 V2000
  153.0537  138.4344  157.7549 C   0  0  0  0  0  0  0  0  0  0  0  0
  152.1782  139.0136  156.6812 C   0  0  0  0  0  0  0  0  0  0  0  0
  152.5471  139.3837  155.3567 C   0  0  0  0  0  0  0  0  0  0  0  0
  151.5326  139.8634  154.6557 N   0  0  0  0  0  0  0  0  0  0  0  0
  150.4852  139.8223  155.5066 N   0  0  0  0  0  0  0  0  0  0  0  0
  149.1778  140.2762  155.0658 C   0  0  0  0  0  0  0  0  0  0  0  0
  148.6909  141.5102  155.8506 C   0  0  1  0  0  0  0  0  0  0  0  0
  148.1468  141.0997  157.2290 C   0  0  0  0  0  0  0  0  0  0  0  0
  149.7880  142.4964  155.9847 N   0  3  0  0  0  0  0  0  0  0  0  0
  150.6928  142.2875  157.1330 C   0  0  0  0  0  0  0  0  0  0  0  0
  151.5132  143.5548  157.4165 C   0  0  0  0  0  0  0  0  0  0  0  0
  151.8071  143.6956  158.8397 N   0  0  0  0  0  0  0  0  0  0  0  0
  151.4339  144.9000  159.5623 C   0  0  0  0  0  0  0  0  0  0  0  0
  151.7119  144.5785  161.0377 C   0  0  0  0  0  0  0  0  0  0  0  0
  152.5926  143.3242  161.0301 C   0  0  0  0  0  0  0  0  0  0  0  0
  152.4578  142.8125  159.6059 C   0  0  0  0  0  0  0  0  0  0  0  0
  152.9003  141.7246  159.2401 O   0  0  0  0  0  0  0  0  0  0  0  0
  150.8462  139.3128  156.7358 C   0  0  0  0  0  0  0  0  0  0  0  0
  154.0914  138.3511  157.4309 H   0  0  0  0  0  0  0  0  0  0  0  0
  152.7272  137.4356  158.0449 H   0  0  0  0  0  0  0  0  0  0  0  0
  153.0475  139.0496  158.6548 H   0  0  0  0  0  0  0  0  0  0  0  0
  153.5169  139.3158  154.8859 H   0  0  0  0  0  0  0  0  0  0  0  0
  149.2478  140.5113  154.0028 H   0  0  0  0  0  0  0  0  0  0  0  0
  148.4657  139.4540  155.1545 H   0  0  0  0  0  0  0  0  0  0  0  0
  147.8808  141.9691  155.2814 H   0  0  0  0  0  0  0  0  0  0  0  0
  147.3565  140.3549  157.1300 H   0  0  0  0  0  0  0  0  0  0  0  0
  147.7212  141.9473  157.7657 H   0  0  0  0  0  0  0  0  0  0  0  0
  148.9306  140.6683  157.8523 H   0  0  0  0  0  0  0  0  0  0  0  0
  150.3269  142.5095  155.1304 H   0  0  0  0  0  0  0  0  0  0  0  0
  150.1055  142.0274  158.0148 H   0  0  0  0  0  0  0  0  0  0  0  0
  151.3559  141.4477  156.9249 H   0  0  0  0  0  0  0  0  0  0  0  0
  152.4493  143.5330  156.8559 H   0  0  0  0  0  0  0  0  0  0  0  0
  150.9689  144.4357  157.0726 H   0  0  0  0  0  0  0  0  0  0  0  0
  152.0519  145.7312  159.2202 H   0  0  0  0  0  0  0  0  0  0  0  0
  150.3877  145.1580  159.3944 H   0  0  0  0  0  0  0  0  0  0  0  0
  152.1910  145.4131  161.5504 H   0  0  0  0  0  0  0  0  0  0  0  0
  150.7762  144.3687  161.5581 H   0  0  0  0  0  0  0  0  0  0  0  0
  153.6363  143.5699  161.2295 H   0  0  0  0  0  0  0  0  0  0  0  0
  152.2614  142.5815  161.7566 H   0  0  0  0  0  0  0  0  0  0  0  0
  150.1331  139.2046  157.5401 H   0  0  0  0  0  0  0  0  0  0  0  0
  149.3591  143.4039  156.1025 H   0  0  0  0  0  0  0  0  0  0  0  0
  1  2  1  0  0  0  0
  1 19  1  0  0  0  0
  1 20  1  0  0  0  0
  1 21  1  0  0  0  0
  2 18  2  0  0  0  0
  2  3  1  0  0  0  0
  3  4  2  0  0  0  0
  3 22  1  0  0  0  0
  4  5  1  0  0  0  0
  5  6  1  0  0  0  0
  5 18  1  0  0  0  0
  6  7  1  0  0  0  0
  6 23  1  0  0  0  0
  6 24  1  0  0  0  0
  7  8  1  0  0  0  0
  7  9  1  0  0  0  0
  7 25  1  0  0  0  0
  8 26  1  0  0  0  0
  8 27  1  0  0  0  0
  8 28  1  0  0  0  0
  9 10  1  0  0  0  0
  9 29  1  0  0  0  0
  9 41  1  0  0  0  0
 10 11  1  0  0  0  0
 10 30  1  0  0  0  0
 10 31  1  0  0  0  0
 11 12  1  0  0  0  0
 11 32  1  0  0  0  0
 11 33  1  0  0  0  0
 12 16  1  0  0  0  0
 12 13  1  0  0  0  0
 13 14  1  0  0  0  0
 13 34  1  0  0  0  0
 13 35  1  0  0  0  0
 14 15  1  0  0  0  0
 14 36  1  0  0  0  0
 14 37  1  0  0  0  0
 15 16  1  0  0  0  0
 15 38  1  0  0  0  0
 15 39  1  0  0  0  0
 16 17  2  0  0  0  0
 18 40  1  0  0  0  0
M  CHG  1   9   1
M  END
> <s_m_source_file>
AV-unprocessed.smi

> <i_m_source_file_index>
3328

> <i_lp_mmshare_version>
43012

> <i_f3d_flags>
0

> <s_epik_input>
W0NIM11jMVtjSF1ubihbY0hdMSlbQ0gyXVtDQEhdKFtDSDNdKVtOSF1bQ0gyXVtDSDJdTjJbQ0gyXVtDSDJdW0NIMl1DMj1P

> <s_epik_cmdline>
J2VwaWtfcHl0aG9uJywgJy1waCcsICc3LjAnLCAnLXRuJywgJzgnLCAnLW1hJywgJzIwMCcsICctbWV0YWxfYmluZGluZycsICctaW1hZScsICc8aW5maWxlLm1hZT4nLCAnLW9tYWUnLCAnPG91dGZpbGUubWFlPic=

> <r_lp_tautomer_probability>
1

> <r_epik_Ionization_Penalty>
0.00826719

> <r_epik_Ionization_Penalty_Charging>
0.00825899

> <r_epik_Ionization_Penalty_Neutral>
8.19932e-06

> <r_epik_State_Penalty>
0.00621436

> <r_epik_Charging_Adjusted_Penalty>
0.0144734

> <i_epik_Tot_Q>
1

> <i_epik_Tot_abs_Q>
1

> <r_epik_Metal_State_Penalty>
0.00621509

> <b_epik_Metal_Only>
0

> <s_lp_Force_Field>
OPLS_2005

> <r_lp_Energy>
19.1629

> <b_lp_Chiralities_Consistent>
1

> <s_lp_Variant>
AV-unprocessed.smi:3328-2

> <Gold.Version>
5.8.1

> <Gold.Id.Protein>
6NUR|6NUR_protein|mol2

> <Gold.PLP.Fitness>
46.1355

> <Gold.PLP.PLP>
-38.4617

> <Gold.PLP.part.hbond>
-1.8392

> <Gold.PLP.part.metal>
0.0000

> <Gold.PLP.part.buried>
-5.4261

> <Gold.PLP.part.nonpolar>
-32.6591

> <Gold.PLP.part.repulsive>
0.2082

> <Gold.PLP.ligand.clash>
0.0000

> <Gold.PLP.ligand.torsion>
0.7080

> <Gold.PLP.Chemscore.Hbond>
3.0000

> <Gold.PLP.Chemscore.CHOScore>
0.0000

> <Gold.PLP.Chemscore.Metal>
0.0000

> <Gold.Chemscore.Hbonds>
donor molecule, donor type, donor heavy atom, donor atom, acceptor molecule, acceptor atom, score
      L1  H     9    41       P1  8028  1.69
      P1  H  7989  7998       L1     4  1.00

> <Gold.PLP.Chemscore.Internal.Correction>
0.0897

> <Gold.Rescore>
     Score         DG    S(hbond)    S(metal)    S(lipo)     H(rot)  DE(clash)    DE(int)     intcor
     16.61     -17.65       1.98        0.00      90.67       1.97       0.16       0.88       ----

> <Gold.Chemscore.Fitness>
16.6103

> <Gold.Chemscore.DG>
-17.6472

> <Gold.Chemscore.ZeroCoef>
-5.4800

> <Gold.Chemscore.Hbond>
1.9777

> <Gold.Chemscore.Metal>
0.0000

> <Gold.Chemscore.Lipo>
90.6711

> <Gold.Chemscore.Internal_Hbond>
0.0000

> <Gold.Chemscore.DEClash>
0.1596

> <Gold.Chemscore.DEInternal>
0.8773

> <Gold.Chemscore.Rot>
1.9714

> <Gold.Chemscore.Internal.Correction>
   9.000000E+99

> <Gold.Chemscore.Hbonds>
donor molecule, donor type, donor heavy atom, donor atom, acceptor molecule, acceptor atom, score
      L1  H     9    41       P1  8028  0.81
      P1  H  7989  7998       L1     4  0.92

> <Gold.Chemscore.Hbond.Weighted>
-6.6055

> <Gold.Chemscore.Metal.Weighted>
-0.0000

> <Gold.Chemscore.Lipo.Weighted>
-10.6085

> <Gold.Chemscore.Internal_Hbond.Weighted>
0.0000

> <Gold.Chemscore.DEClash.Weighted>
0.1596

> <Gold.Chemscore.DEInternal.Weighted>
0.8773

> <Gold.Chemscore.Rot.Weighted>
5.0468

> <Gold.Chemscore.Internal.Correction.Weighted>
   9.000000E+99

> <Gold.Protein.RotatedTorsions>
[ 6907 6896 6895 6894 ] final  121.15 input  -60.11 | X-H torsion
[ 7974 7965 7964 7962 ] final    2.39 input  175.53 | X-H torsion
[ 8008 7997 7996 7995 ] final  153.95 input   59.86 | X-H torsion
[ 10167 10162 10161 10158 ] final   71.74 input  -65.29 | X-H torsion
[ 10718 10713 10712 10709 ] final  135.73 input   66.30 | X-H torsion
[ 10763 10752 10751 10750 ] final  167.94 input  -60.55 | X-H torsion
[ 11005 11000 10999 10996 ] final  -58.03 input  -57.11 | X-H torsion

> <Gold.Protein.ActiveResidues>
 VAL166  LYS551  ARG553  GLY616  TRP617  ASP618  TYR619  PRO620  LYS621  CYS622 
 ASP623  PHE694  ASN695  SER759  ASP760  ASP761  ALA762  ILE779  LEU786  VAL792 
 PHE793  MET794  SER795  GLU796  ALA797  LYS798  CYS799  TRP800  GLU811  SER814 

> <Gold.Protein.RotatedAtoms>
  152.4344  133.7334  159.6600 H   0  0  0  0  0  0  0  0  0  0  0  0  # atno 6907 bound_to 6896
  150.8226  133.8216  159.3138 H   0  0  0  0  0  0  0  0  0  0  0  0  # atno 6908 bound_to 6896
  151.5893  135.1056  160.0087 H   0  0  0  0  0  0  0  0  0  0  0  0  # atno 6909 bound_to 6896
  146.2443  140.0844  142.8355 H   0  0  0  0  0  0  0  0  0  0  0  0  # atno 7974 bound_to 7965
  156.2556  140.1980  156.6570 H   0  0  0  0  0  0  0  0  0  0  0  0  # atno 8008 bound_to 7997
  154.6493  140.0574  156.9962 H   0  0  0  0  0  0  0  0  0  0  0  0  # atno 8009 bound_to 7997
  155.1442  140.3245  155.4448 H   0  0  0  0  0  0  0  0  0  0  0  0  # atno 8010 bound_to 7997
  140.0429  144.5375  150.7421 H   0  0  0  0  0  0  0  0  0  0  0  0  # atno 10167 bound_to 10162
  157.4540  131.1068  150.9999 H   0  0  0  0  0  0  0  0  0  0  0  0  # atno 10718 bound_to 10713
  154.3612  135.2753  155.2319 H   0  0  0  0  0  0  0  0  0  0  0  0  # atno 10763 bound_to 10752
  154.4506  135.5932  153.6192 H   0  0  0  0  0  0  0  0  0  0  0  0  # atno 10764 bound_to 10752
  152.9843  135.6041  154.3833 H   0  0  0  0  0  0  0  0  0  0  0  0  # atno 10765 bound_to 10752
  141.1190  133.6611  156.4858 H   0  0  0  0  0  0  0  0  0  0  0  0  # atno 11005 bound_to 11000
  145.0705  140.9152  143.4885 LP  0  0  0  0  0  0  0  0  0  0  0  0  # atno 17320 bound_to 7965
  145.0977  139.2845  143.5702 LP  0  0  0  0  0  0  0  0  0  0  0  0  # atno 17321 bound_to 7965
  140.7252  143.2629  151.4144 LP  0  0  0  0  0  0  0  0  0  0  0  0  # atno 17342 bound_to 10162
  139.6002  144.1311  152.2190 LP  0  0  0  0  0  0  0  0  0  0  0  0  # atno 17343 bound_to 10162
  157.0819  130.5906  149.5422 LP  0  0  0  0  0  0  0  0  0  0  0  0  # atno 17370 bound_to 10713
  155.9999  130.5076  150.7625 LP  0  0  0  0  0  0  0  0  0  0  0  0  # atno 17371 bound_to 10713
  140.4563  134.6882  157.5064 LP  0  0  0  0  0  0  0  0  0  0  0  0  # atno 17394 bound_to 11000
  140.0132  134.6658  155.9348 LP  0  0  0  0  0  0  0  0  0  0  0  0  # atno 17395 bound_to 11000

$$$$
