AV-unprocessed.smi:26|AV-procd|sdf|184|dock7
  -GOLD-   2262015443D 1   1.00000     0.00000
 Structure written by MMmdl.
 58 61  0  0  0  0  0  0  0  0  1 V2000
  155.1287  139.4251  165.3906 C   0  0  0  0  0  0  0  0  0  0  0  0
  154.8308  139.3803  163.9256 C   0  0  0  0  0  0  0  0  0  0  0  0
  154.2712  140.3422  163.1392 C   0  0  0  0  0  0  0  0  0  0  0  0
  154.2095  139.8556  161.8068 C   0  0  0  0  0  0  0  0  0  0  0  0
  153.6674  140.5230  160.5989 C   0  0  0  0  0  0  0  0  0  0  0  0
  154.1641  140.3842  159.4815 O   0  0  0  0  0  0  0  0  0  0  0  0
  152.4512  141.4447  160.7863 C   0  0  0  0  0  0  0  0  0  0  0  0
  151.9964  141.9851  159.5101 N   0  0  0  0  0  0  0  0  0  0  0  0
  152.0920  143.3849  159.2995 C   0  0  0  0  0  0  0  0  0  0  0  0
  152.5107  144.1546  160.1650 O   0  0  0  0  0  0  0  0  0  0  0  0
  151.6564  143.8328  157.9814 C   0  0  0  0  0  0  0  0  0  0  0  0
  151.6958  145.1411  157.6778 F   0  0  0  0  0  0  0  0  0  0  0  0
  151.2124  142.9550  157.0571 C   0  0  0  0  0  0  0  0  0  0  0  0
  151.1394  141.5916  157.2845 N   0  0  0  0  0  0  0  0  0  0  0  0
  150.6321  140.6473  156.2181 C   0  0  1  0  0  0  0  0  0  0  0  0
  149.3516  139.9510  156.6921 C   0  0  0  0  0  0  0  0  0  0  0  0
  148.2760  140.8197  156.0762 C   0  0  0  0  0  0  0  0  0  0  0  0
  148.9323  141.2368  154.7657 C   0  0  0  0  0  0  0  0  0  0  0  0
  150.3160  141.3832  155.0714 O   0  0  0  0  0  0  0  0  0  0  0  0
  151.5221  141.0686  158.5388 C   0  0  0  0  0  0  0  0  0  0  0  0
  151.4428  139.8596  158.7691 O   0  0  0  0  0  0  0  0  0  0  0  0
  154.7276  138.5818  161.8070 C   0  0  0  0  0  0  0  0  0  0  0  0
  154.9173  137.6223  160.6650 C   0  0  0  0  0  0  0  0  0  0  0  0
  155.1026  138.2746  163.1222 N   0  0  0  0  0  0  0  0  0  0  0  0
  155.7216  137.0318  163.6079 C   0  0  2  0  0  0  0  0  0  0  0  0
  157.0280  136.7318  162.8467 C   0  0  0  0  0  0  0  0  0  0  0  0
  154.7229  135.8759  163.7112 C   0  0  0  0  0  0  0  0  0  0  0  0
  154.9715  134.6925  162.9803 C   0  0  0  0  0  0  0  0  0  0  0  0
  154.0765  133.6075  163.0452 C   0  0  0  0  0  0  0  0  0  0  0  0
  152.9187  133.6966  163.8399 C   0  0  0  0  0  0  0  0  0  0  0  0
  152.6573  134.8726  164.5673 C   0  0  0  0  0  0  0  0  0  0  0  0
  153.5521  135.9583  164.5023 C   0  0  0  0  0  0  0  0  0  0  0  0
  154.9194  140.4143  165.7988 H   0  0  0  0  0  0  0  0  0  0  0  0
  156.1784  139.2037  165.5847 H   0  0  0  0  0  0  0  0  0  0  0  0
  154.5172  138.7058  165.9357 H   0  0  0  0  0  0  0  0  0  0  0  0
  153.9423  141.3088  163.4914 H   0  0  0  0  0  0  0  0  0  0  0  0
  151.6141  140.9069  161.2346 H   0  0  0  0  0  0  0  0  0  0  0  0
  152.6584  142.2702  161.4674 H   0  0  0  0  0  0  0  0  0  0  0  0
  150.9000  143.3486  156.1014 H   0  0  0  0  0  0  0  0  0  0  0  0
  151.4511  139.9624  155.9945 H   0  0  0  0  0  0  0  0  0  0  0  0
  149.3234  138.9479  156.2651 H   0  0  0  0  0  0  0  0  0  0  0  0
  149.2960  139.8749  157.7789 H   0  0  0  0  0  0  0  0  0  0  0  0
  147.3313  140.2953  155.9315 H   0  0  0  0  0  0  0  0  0  0  0  0
  148.0903  141.6931  156.7023 H   0  0  0  0  0  0  0  0  0  0  0  0
  148.8196  140.4504  154.0183 H   0  0  0  0  0  0  0  0  0  0  0  0
  148.5127  142.1566  154.3581 H   0  0  0  0  0  0  0  0  0  0  0  0
  154.0665  136.9460  160.5834 H   0  0  0  0  0  0  0  0  0  0  0  0
  155.8183  137.0244  160.7756 H   0  0  0  0  0  0  0  0  0  0  0  0
  155.0197  138.1458  159.7154 H   0  0  0  0  0  0  0  0  0  0  0  0
  156.0185  137.1901  164.6436 H   0  0  0  0  0  0  0  0  0  0  0  0
  157.5554  135.8861  163.2886 H   0  0  0  0  0  0  0  0  0  0  0  0
  157.7022  137.5877  162.8880 H   0  0  0  0  0  0  0  0  0  0  0  0
  156.8578  136.5078  161.7946 H   0  0  0  0  0  0  0  0  0  0  0  0
  155.8576  134.6138  162.3673 H   0  0  0  0  0  0  0  0  0  0  0  0
  154.2787  132.7066  162.4852 H   0  0  0  0  0  0  0  0  0  0  0  0
  152.2319  132.8647  163.8909 H   0  0  0  0  0  0  0  0  0  0  0  0
  151.7688  134.9424  165.1772 H   0  0  0  0  0  0  0  0  0  0  0  0
  153.3256  136.8453  165.0737 H   0  0  0  0  0  0  0  0  0  0  0  0
  1  2  1  0  0  0  0
  1 33  1  0  0  0  0
  1 34  1  0  0  0  0
  1 35  1  0  0  0  0
  2 24  1  0  0  0  0
  2  3  2  0  0  0  0
  3  4  1  0  0  0  0
  3 36  1  0  0  0  0
  4  5  1  0  0  0  0
  4 22  2  0  0  0  0
  5  6  2  0  0  0  0
  5  7  1  0  0  0  0
  7  8  1  0  0  0  0
  7 37  1  0  0  0  0
  7 38  1  0  0  0  0
  8 20  1  0  0  0  0
  8  9  1  0  0  0  0
  9 10  2  0  0  0  0
  9 11  1  0  0  0  0
 11 12  1  0  0  0  0
 11 13  2  0  0  0  0
 13 14  1  0  0  0  0
 13 39  1  0  0  0  0
 14 15  1  0  0  0  0
 14 20  1  0  0  0  0
 15 19  1  0  0  0  0
 15 16  1  0  0  0  0
 15 40  1  0  0  0  0
 16 17  1  0  0  0  0
 16 41  1  0  0  0  0
 16 42  1  0  0  0  0
 17 18  1  0  0  0  0
 17 43  1  0  0  0  0
 17 44  1  0  0  0  0
 18 19  1  0  0  0  0
 18 45  1  0  0  0  0
 18 46  1  0  0  0  0
 20 21  2  0  0  0  0
 22 23  1  0  0  0  0
 22 24  1  0  0  0  0
 23 47  1  0  0  0  0
 23 48  1  0  0  0  0
 23 49  1  0  0  0  0
 24 25  1  0  0  0  0
 25 26  1  0  0  0  0
 25 27  1  0  0  0  0
 25 50  1  0  0  0  0
 26 51  1  0  0  0  0
 26 52  1  0  0  0  0
 26 53  1  0  0  0  0
 27 32  1  0  0  0  0
 27 28  2  0  0  0  0
 28 29  1  0  0  0  0
 28 54  1  0  0  0  0
 29 30  2  0  0  0  0
 29 55  1  0  0  0  0
 30 31  1  0  0  0  0
 30 56  1  0  0  0  0
 31 32  2  0  0  0  0
 31 57  1  0  0  0  0
 32 58  1  0  0  0  0
M  END
> <s_m_source_file>
AV-unprocessed.smi

> <i_m_source_file_index>
26

> <i_lp_mmshare_version>
43012

> <i_f3d_flags>
0

> <s_epik_input>
W2NIXTFbY0hdW2NIXVtjSF1bY0hdYzFbQ0BASF0oW0NIM10pbjJjKFtDSDNdKWMoW2NIXWMyW0NIM10pQyg9TylbQ0gyXW4zYyg9TyljKEYpW2NIXW4oYzM9TylbQ0BASF00W0NIMl1bQ0gyXVtDSDJdTzQ=

> <s_epik_cmdline>
J2VwaWtfcHl0aG9uJywgJy1waCcsICc3LjAnLCAnLXRuJywgJzgnLCAnLW1hJywgJzIwMCcsICctbWV0YWxfYmluZGluZycsICctaW1hZScsICc8aW5maWxlLm1hZT4nLCAnLW9tYWUnLCAnPG91dGZpbGUubWFlPic=

> <r_lp_tautomer_probability>
1

> <r_epik_Ionization_Penalty>
5.02402e-09

> <r_epik_Ionization_Penalty_Charging>
5.01743e-09

> <r_epik_Ionization_Penalty_Neutral>
6.58831e-12

> <r_epik_State_Penalty>
-0

> <r_epik_Charging_Adjusted_Penalty>
5.01743e-09

> <i_epik_Tot_Q>
0

> <i_epik_Tot_abs_Q>
0

> <r_epik_Metal_State_Penalty>
-0

> <b_epik_Metal_Only>
0

> <s_epik_Chemistry_Notes>
This compound contains an acetal/aminal-like group ( X-CH(R)-Y where X, Y are N, S, or O) that may be acid/base labile, releasing an aldehyde.

> <s_lp_Force_Field>
OPLS_2005

> <r_lp_Energy>
51.2992

> <b_lp_Chiralities_Consistent>
1

> <s_lp_Variant>
AV-unprocessed.smi:26-2

> <Gold.Version>
5.8.1

> <Gold.Id.Protein>
6NUR|6NUR_protein|mol2

> <Gold.PLP.Fitness>
51.6360

> <Gold.PLP.PLP>
-46.8417

> <Gold.PLP.part.hbond>
-2.0000

> <Gold.PLP.part.metal>
0.0000

> <Gold.PLP.part.buried>
-2.0230

> <Gold.PLP.part.nonpolar>
-42.6100

> <Gold.PLP.part.repulsive>
0.1288

> <Gold.PLP.ligand.clash>
0.0000

> <Gold.PLP.ligand.torsion>
0.7909

> <Gold.PLP.Chemscore.Hbond>
1.0452

> <Gold.PLP.Chemscore.CHOScore>
0.9873

> <Gold.PLP.Chemscore.Metal>
0.0000

> <Gold.Chemscore.Hbonds>
donor molecule, donor type, donor heavy atom, donor atom, acceptor molecule, acceptor atom, score
      P1  H  7989  7998       L1    19  0.43
      L1  C    13    39       P1  8028  0.94

> <Gold.PLP.Chemscore.Internal.Correction>
0.2786

> <Gold.Rescore>
     Score         DG    S(hbond)    S(metal)    S(lipo)     H(rot)  DE(clash)    DE(int)     intcor
      9.80     -17.81       0.86        0.00     121.13       1.84       1.67       6.34       ----

> <Gold.Chemscore.Fitness>
9.7962

> <Gold.Chemscore.DG>
-17.8096

> <Gold.Chemscore.ZeroCoef>
-5.4800

> <Gold.Chemscore.Hbond>
0.8553

> <Gold.Chemscore.Metal>
0.0000

> <Gold.Chemscore.Lipo>
121.1350

> <Gold.Chemscore.Internal_Hbond>
0.0000

> <Gold.Chemscore.DEClash>
1.6708

> <Gold.Chemscore.DEInternal>
6.3426

> <Gold.Chemscore.Rot>
1.8359

> <Gold.Chemscore.Internal.Correction>
   9.000000E+99

> <Gold.Chemscore.Hbonds>
donor molecule, donor type, donor heavy atom, donor atom, acceptor molecule, acceptor atom, score
      P1  H  7989  7998       L1    19  0.30
      P1  H  7997  8009       L1     6  0.02

> <Gold.Chemscore.Hbond.Weighted>
-2.8568

> <Gold.Chemscore.Metal.Weighted>
-0.0000

> <Gold.Chemscore.Lipo.Weighted>
-14.1728

> <Gold.Chemscore.Internal_Hbond.Weighted>
0.0000

> <Gold.Chemscore.DEClash.Weighted>
1.6708

> <Gold.Chemscore.DEInternal.Weighted>
6.3426

> <Gold.Chemscore.Rot.Weighted>
4.7000

> <Gold.Chemscore.Internal.Correction.Weighted>
   9.000000E+99

> <Gold.Protein.RotatedTorsions>
[ 6907 6896 6895 6894 ] final  135.06 input  -60.11 | X-H torsion
[ 7974 7965 7964 7962 ] final  -13.69 input  175.53 | X-H torsion
[ 8008 7997 7996 7995 ] final  101.21 input   59.86 | X-H torsion
[ 10167 10162 10161 10158 ] final  -38.16 input  -65.29 | X-H torsion
[ 10718 10713 10712 10709 ] final  -15.58 input   66.30 | X-H torsion
[ 10763 10752 10751 10750 ] final  -58.13 input  -60.55 | X-H torsion
[ 11005 11000 10999 10996 ] final -135.18 input  -57.11 | X-H torsion

> <Gold.Protein.ActiveResidues>
 VAL166  LYS551  ARG553  GLY616  TRP617  ASP618  TYR619  PRO620  LYS621  CYS622 
 ASP623  PHE694  ASN695  SER759  ASP760  ASP761  ALA762  ILE779  LEU786  VAL792 
 PHE793  MET794  SER795  GLU796  ALA797  LYS798  CYS799  TRP800  GLU811  SER814 

> <Gold.Protein.RotatedAtoms>
  152.3045  133.5689  159.5640 H   0  0  0  0  0  0  0  0  0  0  0  0  # atno 6907 bound_to 6896
  150.7293  134.0242  159.3720 H   0  0  0  0  0  0  0  0  0  0  0  0  # atno 6908 bound_to 6896
  151.8140  135.0672  160.0467 H   0  0  0  0  0  0  0  0  0  0  0  0  # atno 6909 bound_to 6896
  146.2104  140.3240  142.8393 H   0  0  0  0  0  0  0  0  0  0  0  0  # atno 7974 bound_to 7965
  156.1277  140.3201  155.8302 H   0  0  0  0  0  0  0  0  0  0  0  0  # atno 8008 bound_to 7997
  155.4389  140.0524  157.3029 H   0  0  0  0  0  0  0  0  0  0  0  0  # atno 8009 bound_to 7997
  154.4875  140.2079  155.9635 H   0  0  0  0  0  0  0  0  0  0  0  0  # atno 8010 bound_to 7997
  140.7099  143.3295  151.2603 H   0  0  0  0  0  0  0  0  0  0  0  0  # atno 10167 bound_to 10162
  156.5997  130.4821  149.6245 H   0  0  0  0  0  0  0  0  0  0  0  0  # atno 10718 bound_to 10713
  154.2333  135.6357  153.5182 H   0  0  0  0  0  0  0  0  0  0  0  0  # atno 10763 bound_to 10752
  152.9944  135.5524  154.5989 H   0  0  0  0  0  0  0  0  0  0  0  0  # atno 10764 bound_to 10752
  154.5477  135.2899  155.1011 H   0  0  0  0  0  0  0  0  0  0  0  0  # atno 10765 bound_to 10752
  140.8922  134.1797  157.4520 H   0  0  0  0  0  0  0  0  0  0  0  0  # atno 11005 bound_to 11000
  144.8900  140.7511  143.5933 LP  0  0  0  0  0  0  0  0  0  0  0  0  # atno 17320 bound_to 7965
  145.3162  139.1803  143.4612 LP  0  0  0  0  0  0  0  0  0  0  0  0  # atno 17321 bound_to 7965
  139.6772  143.9916  152.2788 LP  0  0  0  0  0  0  0  0  0  0  0  0  # atno 17342 bound_to 10162
  139.9534  144.6605  150.8149 LP  0  0  0  0  0  0  0  0  0  0  0  0  # atno 17343 bound_to 10162
  156.2480  130.6890  151.1618 LP  0  0  0  0  0  0  0  0  0  0  0  0  # atno 17370 bound_to 10713
  157.7283  131.0633  150.5828 LP  0  0  0  0  0  0  0  0  0  0  0  0  # atno 17371 bound_to 10713
  139.8731  134.9863  156.5319 LP  0  0  0  0  0  0  0  0  0  0  0  0  # atno 17394 bound_to 11000
  140.8333  133.8262  155.9005 LP  0  0  0  0  0  0  0  0  0  0  0  0  # atno 17395 bound_to 11000

$$$$
