AV-unprocessed.smi:1401|AV-procd|sdf|5690|dock6
  -GOLD-   22720 5313D 1   1.00000     0.00000
 Structure written by MMmdl.
 48 50  0  0  0  0  0  0  0  0  1 V2000
  150.3536  142.3584  157.2552 C   0  0  0  0  0  0  0  0  0  0  0  0
  151.1928  141.2901  157.9026 C   0  0  0  0  0  0  0  0  0  0  0  0
  150.8528  140.0649  157.6708 N   0  0  0  0  0  0  0  0  0  0  0  0
  151.5511  139.0079  158.2219 N   0  0  0  0  0  0  0  0  0  0  0  0
  151.0142  137.6854  157.8694 C   0  0  0  0  0  0  0  0  0  0  0  0
  149.6387  137.4034  158.4908 C   0  0  0  0  0  0  0  0  0  0  0  0
  149.1259  138.2014  159.2768 O   0  0  0  0  0  0  0  0  0  0  0  0
  149.0446  136.2631  158.1073 N   0  0  0  0  0  0  0  0  0  0  0  0
  147.7278  135.8026  158.5426 C   0  0  2  0  0  0  0  0  0  0  0  0
  146.7307  136.9732  158.4637 C   0  0  0  0  0  0  0  0  0  0  0  0
  147.8232  135.2098  159.9698 C   0  0  1  0  0  0  0  0  0  0  0  0
  148.1766  136.2571  161.0542 C   0  0  0  0  0  0  0  0  0  0  0  0
  147.0575  136.0829  162.0960 C   0  0  2  0  0  0  0  0  0  0  0  0
  147.2249  134.7311  162.8131 C   0  0  0  0  0  0  0  0  0  0  0  0
  146.8096  133.7203  161.7279 C   0  0  0  0  0  0  0  0  0  0  0  0
  146.4960  134.6260  160.5214 C   0  0  1  0  0  0  0  0  0  0  0  0
  145.8492  135.8259  161.2057 C   0  0  0  0  0  0  0  0  0  0  0  0
  152.6379  139.1353  159.0365 C   0  0  0  0  0  0  0  0  0  0  0  0
  153.2295  138.1632  159.5085 O   0  0  0  0  0  0  0  0  0  0  0  0
  153.0214  140.5260  159.2898 C   0  0  0  0  0  0  0  0  0  0  0  0
  154.1566  140.7050  160.1362 C   0  0  0  0  0  0  0  0  0  0  0  0
  155.0866  140.8339  160.8132 N   0  0  0  0  0  0  0  0  0  0  0  0
  152.3425  141.5724  158.7559 C   0  0  0  0  0  0  0  0  0  0  0  0
  152.6987  143.0342  158.9890 C   0  0  0  0  0  0  0  0  0  0  0  0
  150.9491  142.9467  156.5566 H   0  0  0  0  0  0  0  0  0  0  0  0
  149.9421  143.0353  158.0042 H   0  0  0  0  0  0  0  0  0  0  0  0
  149.5146  141.9362  156.6999 H   0  0  0  0  0  0  0  0  0  0  0  0
  150.9181  137.5947  156.7858 H   0  0  0  0  0  0  0  0  0  0  0  0
  151.7176  136.9045  158.1654 H   0  0  0  0  0  0  0  0  0  0  0  0
  149.5386  135.6699  157.4565 H   0  0  0  0  0  0  0  0  0  0  0  0
  147.3897  135.0158  157.8657 H   0  0  0  0  0  0  0  0  0  0  0  0
  145.7241  136.6639  158.7442 H   0  0  0  0  0  0  0  0  0  0  0  0
  146.6723  137.3743  157.4514 H   0  0  0  0  0  0  0  0  0  0  0  0
  147.0230  137.7884  159.1264 H   0  0  0  0  0  0  0  0  0  0  0  0
  148.5819  134.4254  159.9568 H   0  0  0  0  0  0  0  0  0  0  0  0
  149.1685  136.0961  161.4782 H   0  0  0  0  0  0  0  0  0  0  0  0
  148.1502  137.2718  160.6553 H   0  0  0  0  0  0  0  0  0  0  0  0
  146.9571  136.9297  162.7757 H   0  0  0  0  0  0  0  0  0  0  0  0
  148.2461  134.5726  163.1616 H   0  0  0  0  0  0  0  0  0  0  0  0
  146.5611  134.6618  163.6759 H   0  0  0  0  0  0  0  0  0  0  0  0
  147.5923  132.9917  161.5134 H   0  0  0  0  0  0  0  0  0  0  0  0
  145.9206  133.1703  162.0394 H   0  0  0  0  0  0  0  0  0  0  0  0
  145.8686  134.1339  159.7784 H   0  0  0  0  0  0  0  0  0  0  0  0
  144.9467  135.5711  161.7641 H   0  0  0  0  0  0  0  0  0  0  0  0
  145.6265  136.6499  160.5257 H   0  0  0  0  0  0  0  0  0  0  0  0
  153.5843  143.1497  159.6132 H   0  0  0  0  0  0  0  0  0  0  0  0
  151.8780  143.5527  159.4854 H   0  0  0  0  0  0  0  0  0  0  0  0
  152.8994  143.5357  158.0419 H   0  0  0  0  0  0  0  0  0  0  0  0
  1  2  1  0  0  0  0
  1 25  1  0  0  0  0
  1 26  1  0  0  0  0
  1 27  1  0  0  0  0
  2 23  1  0  0  0  0
  2  3  2  0  0  0  0
  3  4  1  0  0  0  0
  4  5  1  0  0  0  0
  4 18  1  0  0  0  0
  5  6  1  0  0  0  0
  5 28  1  0  0  0  0
  5 29  1  0  0  0  0
  6  7  2  0  0  0  0
  6  8  1  0  0  0  0
  8  9  1  0  0  0  0
  8 30  1  0  0  0  0
  9 10  1  0  0  0  0
  9 11  1  0  0  0  0
  9 31  1  0  0  0  0
 10 32  1  0  0  0  0
 10 33  1  0  0  0  0
 10 34  1  0  0  0  0
 11 16  1  0  0  0  0
 11 12  1  0  0  0  0
 11 35  1  0  0  0  0
 12 13  1  0  0  0  0
 12 36  1  0  0  0  0
 12 37  1  0  0  0  0
 13 17  1  0  0  0  0
 13 14  1  0  0  0  0
 13 38  1  0  0  0  0
 14 15  1  0  0  0  0
 14 39  1  0  0  0  0
 14 40  1  0  0  0  0
 15 16  1  0  0  0  0
 15 41  1  0  0  0  0
 15 42  1  0  0  0  0
 16 17  1  0  0  0  0
 16 43  1  0  0  0  0
 17 44  1  0  0  0  0
 17 45  1  0  0  0  0
 18 19  2  0  0  0  0
 18 20  1  0  0  0  0
 20 21  1  0  0  0  0
 20 23  2  0  0  0  0
 21 22  3  0  0  0  0
 23 24  1  0  0  0  0
 24 46  1  0  0  0  0
 24 47  1  0  0  0  0
 24 48  1  0  0  0  0
M  END
> <s_m_source_file>
AV-unprocessed.smi

> <i_m_source_file_index>
1401

> <i_lp_mmshare_version>
43012

> <i_f3d_flags>
0

> <s_epik_input>
TiNDYyhjMVtDSDNdKWMoPU8pbihuYzFbQ0gzXSlbQ0gyXUMoPU8pW05IXVtDQEhdKFtDSDNdKVtDQEhdKFtDSDJdW0NASF0yMylbQ0BIXShbQ0gyXTMpW0NIMl1bQ0gyXTI=

> <s_epik_cmdline>
J2VwaWtfcHl0aG9uJywgJy1waCcsICc3LjAnLCAnLXRuJywgJzgnLCAnLW1hJywgJzIwMCcsICctbWV0YWxfYmluZGluZycsICctaW1hZScsICc8aW5maWxlLm1hZT4nLCAnLW9tYWUnLCAnPG91dGZpbGUubWFlPic=

> <r_lp_tautomer_probability>
1

> <r_epik_Ionization_Penalty>
2.16501e-08

> <r_epik_Ionization_Penalty_Charging>
2.29436e-11

> <r_epik_Ionization_Penalty_Neutral>
2.16271e-08

> <r_epik_State_Penalty>
-0

> <r_epik_Charging_Adjusted_Penalty>
2.29436e-11

> <i_epik_Tot_Q>
0

> <i_epik_Tot_abs_Q>
0

> <r_epik_Metal_State_Penalty>
-0

> <b_epik_Metal_Only>
0

> <s_lp_Force_Field>
OPLS_2005

> <r_lp_Energy>
65.9265

> <b_lp_Chiralities_Consistent>
1

> <s_lp_Variant>
AV-unprocessed.smi:1401-3

> <Gold.Version>
5.8.1

> <Gold.Id.Protein>
6NUR|6NUR_protein|mol2

> <Gold.PLP.Fitness>
40.7988

> <Gold.PLP.PLP>
-41.4150

> <Gold.PLP.part.hbond>
-2.7389

> <Gold.PLP.part.metal>
0.0000

> <Gold.PLP.part.buried>
-4.2805

> <Gold.PLP.part.nonpolar>
-34.6948

> <Gold.PLP.part.repulsive>
0.1048

> <Gold.PLP.ligand.clash>
0.0000

> <Gold.PLP.ligand.torsion>
0.3193

> <Gold.PLP.Chemscore.Hbond>
0.0000

> <Gold.PLP.Chemscore.CHOScore>
0.0000

> <Gold.PLP.Chemscore.Metal>
0.0000

> <Gold.PLP.Chemscore.Internal.Correction>
0.0225

> <Gold.Rescore>
     Score         DG    S(hbond)    S(metal)    S(lipo)     H(rot)  DE(clash)    DE(int)     intcor
      8.44     -13.32       0.01        0.00     102.47       1.63       0.42       4.46       ----

> <Gold.Chemscore.Fitness>
8.4419

> <Gold.Chemscore.DG>
-13.3218

> <Gold.Chemscore.ZeroCoef>
-5.4800

> <Gold.Chemscore.Hbond>
0.0061

> <Gold.Chemscore.Metal>
0.0000

> <Gold.Chemscore.Lipo>
102.4718

> <Gold.Chemscore.Internal_Hbond>
0.0000

> <Gold.Chemscore.DEClash>
0.4221

> <Gold.Chemscore.DEInternal>
4.4578

> <Gold.Chemscore.Rot>
1.6281

> <Gold.Chemscore.Internal.Correction>
   9.000000E+99

> <Gold.Chemscore.Hbond.Weighted>
-0.0205

> <Gold.Chemscore.Metal.Weighted>
-0.0000

> <Gold.Chemscore.Lipo.Weighted>
-11.9892

> <Gold.Chemscore.Internal_Hbond.Weighted>
0.0000

> <Gold.Chemscore.DEClash.Weighted>
0.4221

> <Gold.Chemscore.DEInternal.Weighted>
4.4578

> <Gold.Chemscore.Rot.Weighted>
4.1678

> <Gold.Chemscore.Internal.Correction.Weighted>
   9.000000E+99

> <Gold.Protein.RotatedTorsions>
[ 6907 6896 6895 6894 ] final -162.93 input  -60.11 | X-H torsion
[ 7974 7965 7964 7962 ] final  -42.93 input  175.53 | X-H torsion
[ 8008 7997 7996 7995 ] final  -54.17 input   59.86 | X-H torsion
[ 10167 10162 10161 10158 ] final   66.02 input  -65.29 | X-H torsion
[ 10718 10713 10712 10709 ] final -105.40 input   66.30 | X-H torsion
[ 10763 10752 10751 10750 ] final -103.02 input  -60.55 | X-H torsion
[ 11005 11000 10999 10996 ] final -135.60 input  -57.11 | X-H torsion

> <Gold.Protein.ActiveResidues>
 VAL166  LYS551  ARG553  GLY616  TRP617  ASP618  TYR619  PRO620  LYS621  CYS622 
 ASP623  PHE694  ASN695  SER759  ASP760  ASP761  ALA762  ILE779  LEU786  VAL792 
 PHE793  MET794  SER795  GLU796  ALA797  LYS798  CYS799  TRP800  GLU811  SER814 

> <Gold.Protein.RotatedAtoms>
  151.3880  133.3798  159.2717 H   0  0  0  0  0  0  0  0  0  0  0  0  # atno 6907 bound_to 6896
  150.9526  134.8926  159.7692 H   0  0  0  0  0  0  0  0  0  0  0  0  # atno 6908 bound_to 6896
  152.5118  134.3836  159.9412 H   0  0  0  0  0  0  0  0  0  0  0  0  # atno 6909 bound_to 6896
  146.0068  140.7010  142.9243 H   0  0  0  0  0  0  0  0  0  0  0  0  # atno 7974 bound_to 7965
  154.4154  140.1182  156.5272 H   0  0  0  0  0  0  0  0  0  0  0  0  # atno 8008 bound_to 7997
  155.6643  140.3496  155.4775 H   0  0  0  0  0  0  0  0  0  0  0  0  # atno 8009 bound_to 7997
  155.9687  140.1137  157.0821 H   0  0  0  0  0  0  0  0  0  0  0  0  # atno 8010 bound_to 7997
  140.1049  144.4870  150.7014 H   0  0  0  0  0  0  0  0  0  0  0  0  # atno 10167 bound_to 10162
  156.0345  130.5562  150.7534 H   0  0  0  0  0  0  0  0  0  0  0  0  # atno 10718 bound_to 10713
  154.7777  135.4839  153.9778 H   0  0  0  0  0  0  0  0  0  0  0  0  # atno 10763 bound_to 10752
  153.1450  135.6780  153.8975 H   0  0  0  0  0  0  0  0  0  0  0  0  # atno 10764 bound_to 10752
  153.8638  135.3152  155.3417 H   0  0  0  0  0  0  0  0  0  0  0  0  # atno 10765 bound_to 10752
  140.8883  134.1844  157.4545 H   0  0  0  0  0  0  0  0  0  0  0  0  # atno 11005 bound_to 11000
  144.6938  140.3329  143.7213 LP  0  0  0  0  0  0  0  0  0  0  0  0  # atno 17320 bound_to 7965
  145.7403  139.1762  143.2380 LP  0  0  0  0  0  0  0  0  0  0  0  0  # atno 17321 bound_to 7965
  140.6957  143.2403  151.5006 LP  0  0  0  0  0  0  0  0  0  0  0  0  # atno 17342 bound_to 10162
  139.5651  144.2063  152.1752 LP  0  0  0  0  0  0  0  0  0  0  0  0  # atno 17343 bound_to 10162
  157.5072  131.0923  151.0242 LP  0  0  0  0  0  0  0  0  0  0  0  0  # atno 17370 bound_to 10713
  157.0607  130.5824  149.5385 LP  0  0  0  0  0  0  0  0  0  0  0  0  # atno 17371 bound_to 10713
  139.8727  134.9847  156.5252 LP  0  0  0  0  0  0  0  0  0  0  0  0  # atno 17394 bound_to 11000
  140.8378  133.8229  155.9045 LP  0  0  0  0  0  0  0  0  0  0  0  0  # atno 17395 bound_to 11000

$$$$
