AV-unprocessed.smi:1709|AV-procd|sdf|6898|dock3
  -GOLD-   22720 8103D 1   1.00000     0.00000
 Structure written by MMmdl.
 43 45  0  0  0  0  0  0  0  0  2 V2000
  144.5525  145.6317  158.4229 C   0  0  0  0  0  0  0  0  0  0  0  0
  144.5023  144.9694  159.7908 C   0  0  0  0  0  0  0  0  0  0  0  0
  143.2503  144.7642  160.4086 C   0  0  0  0  0  0  0  0  0  0  0  0
  143.2010  144.1515  161.6718 C   0  0  0  0  0  0  0  0  0  0  0  0
  144.4139  143.7669  162.2668 C   0  0  0  0  0  0  0  0  0  0  0  0
  145.6146  143.9594  161.6831 N   0  0  0  0  0  0  0  0  0  0  0  0
  145.6832  144.5526  160.4634 C   0  0  0  0  0  0  0  0  0  0  0  0
  146.9104  144.7935  159.7701 N   0  0  0  0  0  0  0  0  0  0  0  0
  148.1969  144.5498  160.1003 C   0  0  0  0  0  0  0  0  0  0  0  0
  148.4864  144.0235  161.1734 O   0  0  0  0  0  0  0  0  0  0  0  0
  149.1240  144.9095  159.1978 N   0  0  0  0  0  0  0  0  0  0  0  0
  150.5654  144.7342  159.3402 C   0  0  1  0  0  0  0  0  0  0  0  0
  151.1181  145.3655  160.6121 C   0  0  0  0  0  0  0  0  0  0  0  0
  152.4550  144.6414  160.7784 C   0  0  0  0  0  0  0  0  0  0  0  0
  152.2455  143.2708  160.2574 N   0  3  2  0  0  0  0  0  0  0  0  0
  153.4198  142.6909  159.5610 C   0  0  0  0  0  0  0  0  0  0  0  0
  153.1167  141.2605  159.0777 C   0  0  0  0  0  0  0  0  0  0  0  0
  151.7838  141.1505  158.3082 C   0  0  0  0  0  0  0  0  0  0  0  0
  151.0928  142.5120  158.1356 C   0  0  0  0  0  0  0  0  0  0  0  0
  150.9713  143.2580  159.4838 C   0  0  2  0  0  0  0  0  0  0  0  0
  143.5518  145.8578  158.0537 H   0  0  0  0  0  0  0  0  0  0  0  0
  145.0358  144.9766  157.6976 H   0  0  0  0  0  0  0  0  0  0  0  0
  145.1106  146.5670  158.4723 H   0  0  0  0  0  0  0  0  0  0  0  0
  142.3362  145.0718  159.9224 H   0  0  0  0  0  0  0  0  0  0  0  0
  142.2586  143.9808  162.1708 H   0  0  0  0  0  0  0  0  0  0  0  0
  144.4226  143.2928  163.2371 H   0  0  0  0  0  0  0  0  0  0  0  0
  146.7914  145.2175  158.8616 H   0  0  0  0  0  0  0  0  0  0  0  0
  148.7974  145.3362  158.3417 H   0  0  0  0  0  0  0  0  0  0  0  0
  151.0876  145.1817  158.4917 H   0  0  0  0  0  0  0  0  0  0  0  0
  151.2291  146.4478  160.5370 H   0  0  0  0  0  0  0  0  0  0  0  0
  150.4673  145.1483  161.4608 H   0  0  0  0  0  0  0  0  0  0  0  0
  153.2158  145.1529  160.1863 H   0  0  0  0  0  0  0  0  0  0  0  0
  152.7950  144.6258  161.8141 H   0  0  0  0  0  0  0  0  0  0  0  0
  153.6939  143.3225  158.7142 H   0  0  0  0  0  0  0  0  0  0  0  0
  154.2764  142.6832  160.2361 H   0  0  0  0  0  0  0  0  0  0  0  0
  153.9374  140.9099  158.4513 H   0  0  0  0  0  0  0  0  0  0  0  0
  153.0880  140.5881  159.9360 H   0  0  0  0  0  0  0  0  0  0  0  0
  151.9498  140.6929  157.3324 H   0  0  0  0  0  0  0  0  0  0  0  0
  151.1148  140.4779  158.8465 H   0  0  0  0  0  0  0  0  0  0  0  0
  151.6584  143.1140  157.4229 H   0  0  0  0  0  0  0  0  0  0  0  0
  150.1058  142.3717  157.6940 H   0  0  0  0  0  0  0  0  0  0  0  0
  150.2438  142.7414  160.1122 H   0  0  0  0  0  0  0  0  0  0  0  0
  152.0761  142.6818  161.0601 H   0  0  0  0  0  0  0  0  0  0  0  0
  1  2  1  0  0  0  0
  1 21  1  0  0  0  0
  1 22  1  0  0  0  0
  1 23  1  0  0  0  0
  2  7  1  0  0  0  0
  2  3  2  0  0  0  0
  3  4  1  0  0  0  0
  3 24  1  0  0  0  0
  4  5  2  0  0  0  0
  4 25  1  0  0  0  0
  5  6  1  0  0  0  0
  5 26  1  0  0  0  0
  6  7  2  0  0  0  0
  7  8  1  0  0  0  0
  8  9  1  0  0  0  0
  8 27  1  0  0  0  0
  9 10  2  0  0  0  0
  9 11  1  0  0  0  0
 11 12  1  0  0  0  0
 11 28  1  0  0  0  0
 12 20  1  0  0  0  0
 12 13  1  0  0  0  0
 12 29  1  0  0  0  0
 13 14  1  0  0  0  0
 13 30  1  0  0  0  0
 13 31  1  0  0  0  0
 14 15  1  0  0  0  0
 14 32  1  0  0  0  0
 14 33  1  0  0  0  0
 15 20  1  0  0  0  0
 15 16  1  0  0  0  0
 15 43  1  0  0  0  0
 16 17  1  0  0  0  0
 16 34  1  0  0  0  0
 16 35  1  0  0  0  0
 17 18  1  0  0  0  0
 17 36  1  0  0  0  0
 17 37  1  0  0  0  0
 18 19  1  0  0  0  0
 18 38  1  0  0  0  0
 18 39  1  0  0  0  0
 19 20  1  0  0  0  0
 19 40  1  0  0  0  0
 19 41  1  0  0  0  0
 20 42  1  0  0  0  0
M  CHG  1  15   1
M  END
> <s_m_source_file>
AV-unprocessed.smi

> <i_m_source_file_index>
1709

> <i_lp_mmshare_version>
43012

> <i_f3d_flags>
0

> <s_epik_input>
W0NIM11jMVtjSF1bY0hdW2NIXW5jMVtOSF1DKD1PKVtOSF1bQ0BIXShbQ0gyXVtDSDJdMilbQ0BASF0oTjIzKVtDSDJdW0NIMl1bQ0gyXVtDSDJdMw==

> <s_epik_cmdline>
J2VwaWtfcHl0aG9uJywgJy1waCcsICc3LjAnLCAnLXRuJywgJzgnLCAnLW1hJywgJzIwMCcsICctbWV0YWxfYmluZGluZycsICctaW1hZScsICc8aW5maWxlLm1hZT4nLCAnLW9tYWUnLCAnPG91dGZpbGUubWFlPic=

> <r_epik_Ionization_Penalty>
0.00101524

> <r_epik_Ionization_Penalty_Charging>
0.000974069

> <r_epik_Ionization_Penalty_Neutral>
4.11757e-05

> <r_epik_State_Penalty>
0.000633842

> <r_epik_Charging_Adjusted_Penalty>
0.00160791

> <i_epik_Tot_Q>
1

> <i_epik_Tot_abs_Q>
1

> <r_epik_Metal_State_Penalty>
-0

> <b_epik_Metal_Only>
0

> <s_lp_Force_Field>
OPLS_2005

> <r_lp_Energy>
44.7523

> <b_lp_Chiralities_Consistent>
1

> <s_lp_Variant>
AV-unprocessed.smi:1709-8

> <Gold.Version>
5.8.1

> <Gold.Id.Protein>
6NUR|6NUR_protein|mol2

> <Gold.PLP.Fitness>
41.5018

> <Gold.PLP.PLP>
-33.3365

> <Gold.PLP.part.hbond>
-2.9063

> <Gold.PLP.part.metal>
0.0000

> <Gold.PLP.part.buried>
-5.2801

> <Gold.PLP.part.nonpolar>
-25.4137

> <Gold.PLP.part.repulsive>
0.5835

> <Gold.PLP.ligand.clash>
0.0000

> <Gold.PLP.ligand.torsion>
0.0128

> <Gold.PLP.Chemscore.Hbond>
2.7276

> <Gold.PLP.Chemscore.CHOScore>
0.0000

> <Gold.PLP.Chemscore.Metal>
0.0000

> <Gold.Chemscore.Hbonds>
donor molecule, donor type, donor heavy atom, donor atom, acceptor molecule, acceptor atom, score
      L1  H     8    27       P1  8029  0.83
      L1  H    11    28       P1  8029  0.98
      P1  H  6933  6944       L1    10  0.91

> <Gold.PLP.Chemscore.Internal.Correction>
0.0081

> <Gold.Rescore>
     Score         DG    S(hbond)    S(metal)    S(lipo)     H(rot)  DE(clash)    DE(int)     intcor
     21.13     -24.29       2.79        0.00     102.93       1.00       0.86       2.30       ----

> <Gold.Chemscore.Fitness>
21.1264

> <Gold.Chemscore.DG>
-24.2874

> <Gold.Chemscore.ZeroCoef>
-5.4800

> <Gold.Chemscore.Hbond>
2.7920

> <Gold.Chemscore.Metal>
0.0000

> <Gold.Chemscore.Lipo>
102.9253

> <Gold.Chemscore.Internal_Hbond>
0.0000

> <Gold.Chemscore.DEClash>
0.8613

> <Gold.Chemscore.DEInternal>
2.2997

> <Gold.Chemscore.Rot>
1.0000

> <Gold.Chemscore.Internal.Correction>
   9.000000E+99

> <Gold.Chemscore.Hbonds>
donor molecule, donor type, donor heavy atom, donor atom, acceptor molecule, acceptor atom, score
      L1  H     8    27       P1  8029  0.76
      L1  H    11    28       P1  8029  0.88
      P1  H  6933  6944       L1    10  0.88

> <Gold.Chemscore.Hbond.Weighted>
-9.3251

> <Gold.Chemscore.Metal.Weighted>
-0.0000

> <Gold.Chemscore.Lipo.Weighted>
-12.0423

> <Gold.Chemscore.Internal_Hbond.Weighted>
0.0000

> <Gold.Chemscore.DEClash.Weighted>
0.8613

> <Gold.Chemscore.DEInternal.Weighted>
2.2997

> <Gold.Chemscore.Rot.Weighted>
2.5600

> <Gold.Chemscore.Internal.Correction.Weighted>
   9.000000E+99

> <Gold.Protein.RotatedTorsions>
[ 6907 6896 6895 6894 ] final  110.61 input  -60.11 | X-H torsion
[ 7974 7965 7964 7962 ] final  -47.18 input  175.53 | X-H torsion
[ 8008 7997 7996 7995 ] final  150.72 input   59.86 | X-H torsion
[ 10167 10162 10161 10158 ] final    5.34 input  -65.29 | X-H torsion
[ 10718 10713 10712 10709 ] final   51.85 input   66.30 | X-H torsion
[ 10763 10752 10751 10750 ] final  103.78 input  -60.55 | X-H torsion
[ 11005 11000 10999 10996 ] final   10.57 input  -57.11 | X-H torsion

> <Gold.Protein.ActiveResidues>
 VAL166  LYS551  ARG553  GLY616  TRP617  ASP618  TYR619  PRO620  LYS621  CYS622 
 ASP623  PHE694  ASN695  SER759  ASP760  ASP761  ALA762  ILE779  LEU786  VAL792 
 PHE793  MET794  SER795  GLU796  ALA797  LYS798  CYS799  TRP800  GLU811  SER814 

> <Gold.Protein.RotatedAtoms>
  152.5011  133.8776  159.7329 H   0  0  0  0  0  0  0  0  0  0  0  0  # atno 6907 bound_to 6896
  150.9246  133.6830  159.2831 H   0  0  0  0  0  0  0  0  0  0  0  0  # atno 6908 bound_to 6896
  151.4195  135.1000  159.9662 H   0  0  0  0  0  0  0  0  0  0  0  0  # atno 6909 bound_to 6896
  145.9642  140.7448  142.9442 H   0  0  0  0  0  0  0  0  0  0  0  0  # atno 7974 bound_to 7965
  156.2704  140.2067  156.6062 H   0  0  0  0  0  0  0  0  0  0  0  0  # atno 8008 bound_to 7997
  154.6867  140.0534  157.0346 H   0  0  0  0  0  0  0  0  0  0  0  0  # atno 8009 bound_to 7997
  155.0924  140.3198  155.4573 H   0  0  0  0  0  0  0  0  0  0  0  0  # atno 8010 bound_to 7997
  140.6487  143.7598  150.7540 H   0  0  0  0  0  0  0  0  0  0  0  0  # atno 10167 bound_to 10162
  157.5020  130.8444  149.8328 H   0  0  0  0  0  0  0  0  0  0  0  0  # atno 10718 bound_to 10713
  153.3572  135.3965  155.1691 H   0  0  0  0  0  0  0  0  0  0  0  0  # atno 10763 bound_to 10752
  154.8673  135.3670  154.5146 H   0  0  0  0  0  0  0  0  0  0  0  0  # atno 10764 bound_to 10752
  153.5603  135.7081  153.5611 H   0  0  0  0  0  0  0  0  0  0  0  0  # atno 10765 bound_to 10752
  140.5129  134.0634  155.7823 H   0  0  0  0  0  0  0  0  0  0  0  0  # atno 11005 bound_to 11000
  144.6822  140.2642  143.7315 LP  0  0  0  0  0  0  0  0  0  0  0  0  # atno 17320 bound_to 7965
  145.7997  139.1959  143.2055 LP  0  0  0  0  0  0  0  0  0  0  0  0  # atno 17321 bound_to 7965
  140.1244  143.4582  152.2293 LP  0  0  0  0  0  0  0  0  0  0  0  0  # atno 17342 bound_to 10162
  139.5700  144.7457  151.3917 LP  0  0  0  0  0  0  0  0  0  0  0  0  # atno 17343 bound_to 10162
  156.0235  130.3787  150.1892 LP  0  0  0  0  0  0  0  0  0  0  0  0  # atno 17370 bound_to 10713
  157.0082  130.9943  151.3373 LP  0  0  0  0  0  0  0  0  0  0  0  0  # atno 17371 bound_to 10713
  141.1375  133.9195  157.2400 LP  0  0  0  0  0  0  0  0  0  0  0  0  # atno 17394 bound_to 11000
  139.9648  135.0145  156.9359 LP  0  0  0  0  0  0  0  0  0  0  0  0  # atno 17395 bound_to 11000

$$$$
