AV-unprocessed.smi:1850|AV-procd|sdf|7522|dock1
  -GOLD-   22720 9233D 1   1.00000     0.00000
 Structure written by MMmdl.
 40 41  0  0  0  0  0  0  0  0  1 V2000
  151.4312  129.7231  154.7183 C   0  0  0  0  0  0  0  0  0  0  0  0
  150.9205  130.3884  156.0041 C   0  0  0  0  0  0  0  0  0  0  0  0
  150.7283  131.8333  155.8201 N   0  0  0  0  0  0  0  0  0  0  0  0
  149.8792  132.2326  154.7696 C   0  0  0  0  0  0  0  0  0  0  0  0
  149.6163  133.5306  154.5035 C   0  0  0  0  0  0  0  0  0  0  0  0
  148.7599  133.9937  153.4934 N   0  0  0  0  0  0  0  0  0  0  0  0
  147.6548  133.4158  152.9860 C   0  0  0  0  0  0  0  0  0  0  0  0
  147.2243  132.3010  153.2806 O   0  0  0  0  0  0  0  0  0  0  0  0
  147.0679  134.2161  152.0842 N   0  0  0  0  0  0  0  0  0  0  0  0
  145.8565  133.8985  151.3336 C   0  0  0  0  0  0  0  0  0  0  0  0
  144.7111  133.5193  152.2951 C   0  0  0  0  0  0  0  0  0  0  0  0
  143.4466  133.1013  151.5273 C   0  0  0  0  0  0  0  0  0  0  0  0
  143.7432  131.9586  150.5435 C   0  0  0  0  0  0  0  0  0  0  0  0
  144.8786  132.3375  149.5799 C   0  0  0  0  0  0  0  0  0  0  0  0
  146.1454  132.7522  150.3459 C   0  0  0  0  0  0  0  0  0  0  0  0
  150.2435  134.5135  155.3607 C   0  0  0  0  0  0  0  0  0  0  0  0
  151.0479  134.1424  156.3754 C   0  0  0  0  0  0  0  0  0  0  0  0
  151.3249  132.7322  156.6585 C   0  0  0  0  0  0  0  0  0  0  0  0
  152.0458  132.3827  157.5936 O   0  0  0  0  0  0  0  0  0  0  0  0
  151.5856  128.6547  154.8700 H   0  0  0  0  0  0  0  0  0  0  0  0
  152.3817  130.1537  154.4021 H   0  0  0  0  0  0  0  0  0  0  0  0
  150.7200  129.8422  153.9004 H   0  0  0  0  0  0  0  0  0  0  0  0
  149.9950  129.9082  156.3267 H   0  0  0  0  0  0  0  0  0  0  0  0
  151.6287  130.2051  156.8135 H   0  0  0  0  0  0  0  0  0  0  0  0
  149.4534  131.4027  154.2278 H   0  0  0  0  0  0  0  0  0  0  0  0
  149.0137  134.8891  153.1028 H   0  0  0  0  0  0  0  0  0  0  0  0
  147.4899  135.1150  151.9025 H   0  0  0  0  0  0  0  0  0  0  0  0
  145.5527  134.7720  150.7534 H   0  0  0  0  0  0  0  0  0  0  0  0
  145.0277  132.6991  152.9411 H   0  0  0  0  0  0  0  0  0  0  0  0
  144.4784  134.3578  152.9525 H   0  0  0  0  0  0  0  0  0  0  0  0
  142.6700  132.7960  152.2294 H   0  0  0  0  0  0  0  0  0  0  0  0
  143.0509  133.9592  150.9822 H   0  0  0  0  0  0  0  0  0  0  0  0
  144.0183  131.0607  151.0983 H   0  0  0  0  0  0  0  0  0  0  0  0
  142.8437  131.7106  149.9792 H   0  0  0  0  0  0  0  0  0  0  0  0
  145.1014  131.4990  148.9194 H   0  0  0  0  0  0  0  0  0  0  0  0
  144.5547  133.1583  148.9387 H   0  0  0  0  0  0  0  0  0  0  0  0
  146.9182  133.0548  149.6383 H   0  0  0  0  0  0  0  0  0  0  0  0
  146.5401  131.8892  150.8841 H   0  0  0  0  0  0  0  0  0  0  0  0
  150.0680  135.5653  155.1870 H   0  0  0  0  0  0  0  0  0  0  0  0
  151.5012  134.9014  156.9962 H   0  0  0  0  0  0  0  0  0  0  0  0
  1  2  1  0  0  0  0
  1 20  1  0  0  0  0
  1 21  1  0  0  0  0
  1 22  1  0  0  0  0
  2  3  1  0  0  0  0
  2 23  1  0  0  0  0
  2 24  1  0  0  0  0
  3 18  1  0  0  0  0
  3  4  1  0  0  0  0
  4  5  2  0  0  0  0
  4 25  1  0  0  0  0
  5  6  1  0  0  0  0
  5 16  1  0  0  0  0
  6  7  1  0  0  0  0
  6 26  1  0  0  0  0
  7  8  2  0  0  0  0
  7  9  1  0  0  0  0
  9 10  1  0  0  0  0
  9 27  1  0  0  0  0
 10 15  1  0  0  0  0
 10 11  1  0  0  0  0
 10 28  1  0  0  0  0
 11 12  1  0  0  0  0
 11 29  1  0  0  0  0
 11 30  1  0  0  0  0
 12 13  1  0  0  0  0
 12 31  1  0  0  0  0
 12 32  1  0  0  0  0
 13 14  1  0  0  0  0
 13 33  1  0  0  0  0
 13 34  1  0  0  0  0
 14 15  1  0  0  0  0
 14 35  1  0  0  0  0
 14 36  1  0  0  0  0
 15 37  1  0  0  0  0
 15 38  1  0  0  0  0
 16 17  2  0  0  0  0
 16 39  1  0  0  0  0
 17 18  1  0  0  0  0
 17 40  1  0  0  0  0
 18 19  2  0  0  0  0
M  END
> <s_m_source_file>
AV-unprocessed.smi

> <i_m_source_file_index>
1850

> <i_lp_mmshare_version>
43012

> <i_f3d_flags>
0

> <s_epik_input>
W0NIM11bQ0gyXW4xW2NIXWMoW2NIXVtjSF1jMT1PKVtOSF1DKD1PKVtOSF1bQ0hdMltDSDJdW0NIMl1bQ0gyXVtDSDJdW0NIMl0y

> <s_epik_cmdline>
J2VwaWtfcHl0aG9uJywgJy1waCcsICc3LjAnLCAnLXRuJywgJzgnLCAnLW1hJywgJzIwMCcsICctbWV0YWxfYmluZGluZycsICctaW1hZScsICc8aW5maWxlLm1hZT4nLCAnLW9tYWUnLCAnPG91dGZpbGUubWFlPic=

> <r_lp_tautomer_probability>
1

> <r_epik_Ionization_Penalty>
2.61962e-05

> <r_epik_Ionization_Penalty_Charging>
4.78076e-06

> <r_epik_Ionization_Penalty_Neutral>
2.14155e-05

> <r_epik_State_Penalty>
-0

> <r_epik_Charging_Adjusted_Penalty>
4.78076e-06

> <i_epik_Tot_Q>
0

> <i_epik_Tot_abs_Q>
0

> <r_epik_Metal_State_Penalty>
-0

> <b_epik_Metal_Only>
0

> <s_lp_Force_Field>
OPLS_2005

> <r_lp_Energy>
22.0322

> <b_lp_Chiralities_Consistent>
1

> <s_lp_Variant>
AV-unprocessed.smi:1850-1

> <Gold.Version>
5.8.1

> <Gold.Id.Protein>
6NUR|6NUR_protein|mol2

> <Gold.PLP.Fitness>
46.2412

> <Gold.PLP.PLP>
-38.2447

> <Gold.PLP.part.hbond>
-3.0000

> <Gold.PLP.part.metal>
0.0000

> <Gold.PLP.part.buried>
-4.8485

> <Gold.PLP.part.nonpolar>
-31.0844

> <Gold.PLP.part.repulsive>
0.1322

> <Gold.PLP.ligand.clash>
0.0000

> <Gold.PLP.ligand.torsion>
0.2795

> <Gold.PLP.Chemscore.Hbond>
2.8500

> <Gold.PLP.Chemscore.CHOScore>
0.0000

> <Gold.PLP.Chemscore.Metal>
0.0000

> <Gold.Chemscore.Hbonds>
donor molecule, donor type, donor heavy atom, donor atom, acceptor molecule, acceptor atom, score
      L1  H     6    26       P1  7948  0.75
      L1  H     9    27       P1  7948  1.00
      P1  H  6896  6908       L1    19  1.00

> <Gold.PLP.Chemscore.Internal.Correction>
0.0056

> <Gold.Rescore>
     Score         DG    S(hbond)    S(metal)    S(lipo)     H(rot)  DE(clash)    DE(int)     intcor
     17.45     -19.49       2.25        0.00      80.88       1.17       0.00       2.04       ----

> <Gold.Chemscore.Fitness>
17.4488

> <Gold.Chemscore.DG>
-19.4862

> <Gold.Chemscore.ZeroCoef>
-5.4800

> <Gold.Chemscore.Hbond>
2.2540

> <Gold.Chemscore.Metal>
0.0000

> <Gold.Chemscore.Lipo>
80.8802

> <Gold.Chemscore.Internal_Hbond>
0.0000

> <Gold.Chemscore.DEClash>
0.0000

> <Gold.Chemscore.DEInternal>
2.0374

> <Gold.Chemscore.Rot>
1.1660

> <Gold.Chemscore.Internal.Correction>
   9.000000E+99

> <Gold.Chemscore.Hbonds>
donor molecule, donor type, donor heavy atom, donor atom, acceptor molecule, acceptor atom, score
      L1  H     6    26       P1  7948  0.09
      L1  H     9    27       P1  7948  0.88
      P1  H  6896  6908       L1    19  0.92

> <Gold.Chemscore.Hbond.Weighted>
-7.5282

> <Gold.Chemscore.Metal.Weighted>
-0.0000

> <Gold.Chemscore.Lipo.Weighted>
-9.4630

> <Gold.Chemscore.Internal_Hbond.Weighted>
0.0000

> <Gold.Chemscore.DEClash.Weighted>
0.0000

> <Gold.Chemscore.DEInternal.Weighted>
2.0374

> <Gold.Chemscore.Rot.Weighted>
2.9850

> <Gold.Chemscore.Internal.Correction.Weighted>
   9.000000E+99

> <Gold.Protein.RotatedTorsions>
[ 6907 6896 6895 6894 ] final   47.48 input  -60.11 | X-H torsion
[ 7974 7965 7964 7962 ] final -137.47 input  175.53 | X-H torsion
[ 8008 7997 7996 7995 ] final   66.44 input   59.86 | X-H torsion
[ 10167 10162 10161 10158 ] final  -34.03 input  -65.29 | X-H torsion
[ 10718 10713 10712 10709 ] final -148.35 input   66.30 | X-H torsion
[ 10763 10752 10751 10750 ] final -171.15 input  -60.55 | X-H torsion
[ 11005 11000 10999 10996 ] final -125.74 input  -57.11 | X-H torsion

> <Gold.Protein.ActiveResidues>
 VAL166  LYS551  ARG553  GLY616  TRP617  ASP618  TYR619  PRO620  LYS621  CYS622 
 ASP623  PHE694  ASN695  SER759  ASP760  ASP761  ALA762  ILE779  LEU786  VAL792 
 PHE793  MET794  SER795  GLU796  ALA797  LYS798  CYS799  TRP800  GLU811  SER814 

> <Gold.Protein.RotatedAtoms>
  152.2685  134.7958  160.0418 H   0  0  0  0  0  0  0  0  0  0  0  0  # atno 6907 bound_to 6896
  151.8579  133.3446  159.3702 H   0  0  0  0  0  0  0  0  0  0  0  0  # atno 6908 bound_to 6896
  150.7143  134.5163  159.5676 H   0  0  0  0  0  0  0  0  0  0  0  0  # atno 6909 bound_to 6896
  144.8839  140.6547  143.5188 H   0  0  0  0  0  0  0  0  0  0  0  0  # atno 7974 bound_to 7965
  155.6774  140.3496  155.4842 H   0  0  0  0  0  0  0  0  0  0  0  0  # atno 8008 bound_to 7997
  155.9636  140.1142  157.0897 H   0  0  0  0  0  0  0  0  0  0  0  0  # atno 8009 bound_to 7997
  154.4149  140.1171  156.5198 H   0  0  0  0  0  0  0  0  0  0  0  0  # atno 8010 bound_to 7997
  140.7193  143.3577  151.2026 H   0  0  0  0  0  0  0  0  0  0  0  0  # atno 10167 bound_to 10162
  156.4192  130.8020  151.2242 H   0  0  0  0  0  0  0  0  0  0  0  0  # atno 10718 bound_to 10713
  154.6337  135.2890  155.0186 H   0  0  0  0  0  0  0  0  0  0  0  0  # atno 10763 bound_to 10752
  154.1337  135.6529  153.4931 H   0  0  0  0  0  0  0  0  0  0  0  0  # atno 10764 bound_to 10752
  153.0292  135.5316  154.7175 H   0  0  0  0  0  0  0  0  0  0  0  0  # atno 10765 bound_to 10752
  140.9738  134.0769  157.3841 H   0  0  0  0  0  0  0  0  0  0  0  0  # atno 11005 bound_to 11000
  145.3903  139.1618  143.4232 LP  0  0  0  0  0  0  0  0  0  0  0  0  # atno 17320 bound_to 7965
  146.3012  140.3992  142.8703 LP  0  0  0  0  0  0  0  0  0  0  0  0  # atno 17321 bound_to 7965
  139.7122  143.9358  152.2952 LP  0  0  0  0  0  0  0  0  0  0  0  0  # atno 17342 bound_to 10162
  139.9087  144.6869  150.8586 LP  0  0  0  0  0  0  0  0  0  0  0  0  # atno 17343 bound_to 10162
  157.7508  131.0233  150.3830 LP  0  0  0  0  0  0  0  0  0  0  0  0  # atno 17370 bound_to 10713
  156.4144  130.3940  149.6869 LP  0  0  0  0  0  0  0  0  0  0  0  0  # atno 17371 bound_to 10713
  139.8922  135.0123  156.6835 LP  0  0  0  0  0  0  0  0  0  0  0  0  # atno 17394 bound_to 11000
  140.7290  133.9075  155.8198 LP  0  0  0  0  0  0  0  0  0  0  0  0  # atno 17395 bound_to 11000

$$$$
