AV-unprocessed.smi:831|AV-procd|sdf|3875|dock9
  -GOLD-   22720 1333D 1   1.00000     0.00000
 Structure written by MMmdl.
 50 51  0  0  0  0  0  0  0  0  1 V2000
  148.3792  131.1213  154.5064 C   0  0  0  0  0  0  0  0  0  0  0  0
  149.6316  131.9988  154.3536 C   0  0  0  0  0  0  0  0  0  0  0  0
  150.5462  131.8641  155.5798 C   0  0  0  0  0  0  0  0  0  0  0  0
  149.2595  133.4684  154.1004 C   0  0  0  0  0  0  0  0  0  0  0  0
  148.7284  134.0278  155.2964 O   0  0  0  0  0  0  0  0  0  0  0  0
  148.4100  135.4143  155.2299 C   0  0  1  0  0  0  0  0  0  0  0  0
  147.4749  135.7214  156.4090 C   0  0  0  0  0  0  0  0  0  0  0  0
  149.7026  136.2542  155.3174 C   0  0  0  0  0  0  0  0  0  0  0  0
  150.2956  136.3348  156.3915 O   0  0  0  0  0  0  0  0  0  0  0  0
  150.1808  136.8756  154.2261 N   0  0  0  0  0  0  0  0  0  0  0  0
  151.3791  137.7024  154.1331 C   0  0  0  0  0  0  0  0  0  0  0  0
  151.4624  138.7921  155.1916 C   0  0  0  0  0  0  0  0  0  0  0  0
  150.5069  139.8258  155.2952 C   0  0  0  0  0  0  0  0  0  0  0  0
  150.6551  140.7953  156.3054 C   0  0  0  0  0  0  0  0  0  0  0  0
  151.7537  140.7075  157.1931 C   0  0  0  0  0  0  0  0  0  0  0  0
  151.9237  141.6724  158.2096 N   0  0  0  0  0  0  0  0  0  0  0  0
  151.7632  143.0629  157.7911 C   0  0  0  0  0  0  0  0  0  0  0  0
  151.6698  143.9855  159.0187 C   0  0  0  0  0  0  0  0  0  0  0  0
  152.8024  143.7879  159.8582 O   0  0  0  0  0  0  0  0  0  0  0  0
  152.8726  142.4521  160.3456 C   0  0  0  0  0  0  0  0  0  0  0  0
  153.0129  141.4766  159.1650 C   0  0  0  0  0  0  0  0  0  0  0  0
  152.6605  139.7035  157.1002 N   0  0  0  0  0  0  0  0  0  0  0  0
  152.5150  138.7783  156.1287 C   0  0  0  0  0  0  0  0  0  0  0  0
  147.7746  131.4378  155.3570 H   0  0  0  0  0  0  0  0  0  0  0  0
  148.6475  130.0757  154.6592 H   0  0  0  0  0  0  0  0  0  0  0  0
  147.7505  131.1702  153.6168 H   0  0  0  0  0  0  0  0  0  0  0  0
  150.1905  131.6402  153.4883 H   0  0  0  0  0  0  0  0  0  0  0  0
  150.0477  132.2089  156.4864 H   0  0  0  0  0  0  0  0  0  0  0  0
  151.4576  132.4503  155.4576 H   0  0  0  0  0  0  0  0  0  0  0  0
  150.8429  130.8266  155.7363 H   0  0  0  0  0  0  0  0  0  0  0  0
  150.1361  134.0184  153.7559 H   0  0  0  0  0  0  0  0  0  0  0  0
  148.5071  133.5322  153.3129 H   0  0  0  0  0  0  0  0  0  0  0  0
  147.8533  135.6057  154.3134 H   0  0  0  0  0  0  0  0  0  0  0  0
  147.1922  136.7746  156.4251 H   0  0  0  0  0  0  0  0  0  0  0  0
  147.9398  135.4832  157.3664 H   0  0  0  0  0  0  0  0  0  0  0  0
  146.5576  135.1366  156.3359 H   0  0  0  0  0  0  0  0  0  0  0  0
  149.6580  136.7564  153.3706 H   0  0  0  0  0  0  0  0  0  0  0  0
  152.2648  137.0720  154.2231 H   0  0  0  0  0  0  0  0  0  0  0  0
  151.4114  138.1748  153.1500 H   0  0  0  0  0  0  0  0  0  0  0  0
  149.6662  139.8836  154.6202 H   0  0  0  0  0  0  0  0  0  0  0  0
  149.9204  141.5813  156.3962 H   0  0  0  0  0  0  0  0  0  0  0  0
  152.6190  143.3461  157.1770 H   0  0  0  0  0  0  0  0  0  0  0  0
  150.8741  143.1996  157.1775 H   0  0  0  0  0  0  0  0  0  0  0  0
  151.6399  145.0284  158.7027 H   0  0  0  0  0  0  0  0  0  0  0  0
  150.7518  143.7966  159.5778 H   0  0  0  0  0  0  0  0  0  0  0  0
  153.7314  142.3614  161.0106 H   0  0  0  0  0  0  0  0  0  0  0  0
  151.9855  142.2222  160.9381 H   0  0  0  0  0  0  0  0  0  0  0  0
  153.0068  140.4523  159.5398 H   0  0  0  0  0  0  0  0  0  0  0  0
  153.9681  141.6351  158.6623 H   0  0  0  0  0  0  0  0  0  0  0  0
  153.2663  138.0028  156.0982 H   0  0  0  0  0  0  0  0  0  0  0  0
  1  2  1  0  0  0  0
  1 24  1  0  0  0  0
  1 25  1  0  0  0  0
  1 26  1  0  0  0  0
  2  3  1  0  0  0  0
  2  4  1  0  0  0  0
  2 27  1  0  0  0  0
  3 28  1  0  0  0  0
  3 29  1  0  0  0  0
  3 30  1  0  0  0  0
  4  5  1  0  0  0  0
  4 31  1  0  0  0  0
  4 32  1  0  0  0  0
  5  6  1  0  0  0  0
  6  7  1  0  0  0  0
  6  8  1  0  0  0  0
  6 33  1  0  0  0  0
  7 34  1  0  0  0  0
  7 35  1  0  0  0  0
  7 36  1  0  0  0  0
  8  9  2  0  0  0  0
  8 10  1  0  0  0  0
 10 11  1  0  0  0  0
 10 37  1  0  0  0  0
 11 12  1  0  0  0  0
 11 38  1  0  0  0  0
 11 39  1  0  0  0  0
 12 23  1  0  0  0  0
 12 13  2  0  0  0  0
 13 14  1  0  0  0  0
 13 40  1  0  0  0  0
 14 15  2  0  0  0  0
 14 41  1  0  0  0  0
 15 16  1  0  0  0  0
 15 22  1  0  0  0  0
 16 21  1  0  0  0  0
 16 17  1  0  0  0  0
 17 18  1  0  0  0  0
 17 42  1  0  0  0  0
 17 43  1  0  0  0  0
 18 19  1  0  0  0  0
 18 44  1  0  0  0  0
 18 45  1  0  0  0  0
 19 20  1  0  0  0  0
 20 21  1  0  0  0  0
 20 46  1  0  0  0  0
 20 47  1  0  0  0  0
 21 48  1  0  0  0  0
 21 49  1  0  0  0  0
 22 23  2  0  0  0  0
 23 50  1  0  0  0  0
M  END
> <s_m_source_file>
AV-unprocessed.smi

> <i_m_source_file_index>
831

> <i_lp_mmshare_version>
43012

> <i_f3d_flags>
0

> <s_epik_input>
W0NIM11bQ0hdKFtDSDNdKVtDSDJdT1tDQEhdKFtDSDNdKUMoPU8pW05IXVtDSDJdYzFbY0hdW2NIXWMobltjSF0xKU4yW0NIMl1bQ0gyXU9bQ0gyXVtDSDJdMg==

> <s_epik_cmdline>
J2VwaWtfcHl0aG9uJywgJy1waCcsICc3LjAnLCAnLXRuJywgJzgnLCAnLW1hJywgJzIwMCcsICctbWV0YWxfYmluZGluZycsICctaW1hZScsICc8aW5maWxlLm1hZT4nLCAnLW9tYWUnLCAnPG91dGZpbGUubWFlPic=

> <r_lp_tautomer_probability>
1

> <r_epik_Ionization_Penalty>
0.00456501

> <r_epik_Ionization_Penalty_Charging>
0

> <r_epik_Ionization_Penalty_Neutral>
0.00456501

> <r_epik_State_Penalty>
0.00329791

> <r_epik_Charging_Adjusted_Penalty>
0.00329791

> <i_epik_Tot_Q>
0

> <i_epik_Tot_abs_Q>
0

> <r_epik_Metal_State_Penalty>
-0

> <b_epik_Metal_Only>
0

> <s_lp_Force_Field>
OPLS_2005

> <r_lp_Energy>
24.1479

> <b_lp_Chiralities_Consistent>
1

> <s_lp_Variant>
AV-unprocessed.smi:831-2

> <Gold.Version>
5.8.1

> <Gold.Id.Protein>
6NUR|6NUR_protein|mol2

> <Gold.PLP.Fitness>
44.9773

> <Gold.PLP.PLP>
-40.2198

> <Gold.PLP.part.hbond>
-3.0000

> <Gold.PLP.part.metal>
0.0000

> <Gold.PLP.part.buried>
-4.4849

> <Gold.PLP.part.nonpolar>
-33.4459

> <Gold.PLP.part.repulsive>
0.1187

> <Gold.PLP.ligand.clash>
0.0000

> <Gold.PLP.ligand.torsion>
0.7349

> <Gold.PLP.Chemscore.Hbond>
1.9500

> <Gold.PLP.Chemscore.CHOScore>
0.0000

> <Gold.PLP.Chemscore.Metal>
0.0000

> <Gold.Chemscore.Hbonds>
donor molecule, donor type, donor heavy atom, donor atom, acceptor molecule, acceptor atom, score
      L1  H    10    37       P1  7948  1.00
      P1  H  7997  8010       L1    22  0.90

> <Gold.PLP.Chemscore.Internal.Correction>
0.3773

> <Gold.Rescore>
     Score         DG    S(hbond)    S(metal)    S(lipo)     H(rot)  DE(clash)    DE(int)     intcor
     15.36     -17.55       1.46        0.00     103.26       1.92       0.39       1.80       ----

> <Gold.Chemscore.Fitness>
15.3599

> <Gold.Chemscore.DG>
-17.5473

> <Gold.Chemscore.ZeroCoef>
-5.4800

> <Gold.Chemscore.Hbond>
1.4644

> <Gold.Chemscore.Metal>
0.0000

> <Gold.Chemscore.Lipo>
103.2567

> <Gold.Chemscore.Internal_Hbond>
0.0000

> <Gold.Chemscore.DEClash>
0.3858

> <Gold.Chemscore.DEInternal>
1.8016

> <Gold.Chemscore.Rot>
1.9159

> <Gold.Chemscore.Internal.Correction>
   9.000000E+99

> <Gold.Chemscore.Hbonds>
donor molecule, donor type, donor heavy atom, donor atom, acceptor molecule, acceptor atom, score
      L1  H    10    37       P1  7948  0.55
      P1  H  7997  8010       L1    22  0.17

> <Gold.Chemscore.Hbond.Weighted>
-4.8910

> <Gold.Chemscore.Metal.Weighted>
-0.0000

> <Gold.Chemscore.Lipo.Weighted>
-12.0810

> <Gold.Chemscore.Internal_Hbond.Weighted>
0.0000

> <Gold.Chemscore.DEClash.Weighted>
0.3858

> <Gold.Chemscore.DEInternal.Weighted>
1.8016

> <Gold.Chemscore.Rot.Weighted>
4.9047

> <Gold.Chemscore.Internal.Correction.Weighted>
   9.000000E+99

> <Gold.Protein.RotatedTorsions>
[ 6907 6896 6895 6894 ] final   -1.12 input  -60.11 | X-H torsion
[ 7974 7965 7964 7962 ] final   -6.94 input  175.53 | X-H torsion
[ 8008 7997 7996 7995 ] final   44.45 input   59.86 | X-H torsion
[ 10167 10162 10161 10158 ] final  -97.73 input  -65.29 | X-H torsion
[ 10718 10713 10712 10709 ] final   16.14 input   66.30 | X-H torsion
[ 10763 10752 10751 10750 ] final -128.19 input  -60.55 | X-H torsion
[ 11005 11000 10999 10996 ] final  146.69 input  -57.11 | X-H torsion

> <Gold.Protein.ActiveResidues>
 VAL166  LYS551  ARG553  GLY616  TRP617  ASP618  TYR619  PRO620  LYS621  CYS622 
 ASP623  PHE694  ASN695  SER759  ASP760  ASP761  ALA762  ILE779  LEU786  VAL792 
 PHE793  MET794  SER795  GLU796  ALA797  LYS798  CYS799  TRP800  GLU811  SER814 

> <Gold.Protein.RotatedAtoms>
  151.5512  135.1067  159.9949 H   0  0  0  0  0  0  0  0  0  0  0  0  # atno 6907 bound_to 6896
  152.4491  133.7589  159.6746 H   0  0  0  0  0  0  0  0  0  0  0  0  # atno 6908 bound_to 6896
  150.8414  133.7863  159.3083 H   0  0  0  0  0  0  0  0  0  0  0  0  # atno 6909 bound_to 6896
  146.2319  140.2246  142.8338 H   0  0  0  0  0  0  0  0  0  0  0  0  # atno 7974 bound_to 7965
  155.3196  140.3396  155.4241 H   0  0  0  0  0  0  0  0  0  0  0  0  # atno 8008 bound_to 7997
  156.1916  140.1699  156.8119 H   0  0  0  0  0  0  0  0  0  0  0  0  # atno 8009 bound_to 7997
  154.5448  140.0717  156.8555 H   0  0  0  0  0  0  0  0  0  0  0  0  # atno 8010 bound_to 7997
  140.2804  143.3286  152.0447 H   0  0  0  0  0  0  0  0  0  0  0  0  # atno 10167 bound_to 10162
  157.0636  130.6319  149.5791 H   0  0  0  0  0  0  0  0  0  0  0  0  # atno 10718 bound_to 10713
  154.8755  135.3937  154.3716 H   0  0  0  0  0  0  0  0  0  0  0  0  # atno 10763 bound_to 10752
  153.4475  135.7027  153.6135 H   0  0  0  0  0  0  0  0  0  0  0  0  # atno 10764 bound_to 10752
  153.4689  135.3795  155.2349 H   0  0  0  0  0  0  0  0  0  0  0  0  # atno 10765 bound_to 10752
  140.0814  134.9095  157.1507 H   0  0  0  0  0  0  0  0  0  0  0  0  # atno 11005 bound_to 11000
  144.9605  140.8270  143.5516 LP  0  0  0  0  0  0  0  0  0  0  0  0  # atno 17320 bound_to 7965
  145.2216  139.2156  143.5090 LP  0  0  0  0  0  0  0  0  0  0  0  0  # atno 17321 bound_to 7965
  139.4964  144.6596  151.6495 LP  0  0  0  0  0  0  0  0  0  0  0  0  # atno 17342 bound_to 10162
  140.5817  143.9935  150.6272 LP  0  0  0  0  0  0  0  0  0  0  0  0  # atno 17343 bound_to 10162
  155.9971  130.5042  150.7522 LP  0  0  0  0  0  0  0  0  0  0  0  0  # atno 17370 bound_to 10713
  157.4935  131.0913  151.0399 LP  0  0  0  0  0  0  0  0  0  0  0  0  # atno 17371 bound_to 10713
  140.3482  134.2628  155.7202 LP  0  0  0  0  0  0  0  0  0  0  0  0  # atno 17394 bound_to 11000
  141.2048  133.7877  157.0268 LP  0  0  0  0  0  0  0  0  0  0  0  0  # atno 17395 bound_to 11000

$$$$
