AV-unprocessed.smi:2509|AV-procd|sdf|9866|dock9
  -GOLD-   2272013493D 1   1.00000     0.00000
 Structure written by MMmdl.
 45 46  0  0  0  0  0  0  0  0  1 V2000
  151.0556  142.3877  156.5411 C   0  0  0  0  0  0  0  0  0  0  0  0
  150.1673  141.3628  157.2846 C   0  0  0  0  0  0  0  0  0  0  0  0
  150.9874  140.6730  158.3899 C   0  0  0  0  0  0  0  0  0  0  0  0
  149.0197  142.1780  157.9268 C   0  0  0  0  0  0  0  0  0  0  0  0
  149.6198  140.3008  156.3150 C   0  0  0  0  0  0  0  0  0  0  0  0
  148.5945  139.5543  156.7467 N   0  0  0  0  0  0  0  0  0  0  0  0
  148.0204  138.7088  155.8653 C   0  0  0  0  0  0  0  0  0  0  0  0
  148.4536  138.6183  154.5278 C   0  0  0  0  0  0  0  0  0  0  0  0
  147.7936  137.7223  153.6455 N   0  0  0  0  0  0  0  0  0  0  0  0
  146.4911  137.3938  153.6193 C   0  0  0  0  0  0  0  0  0  0  0  0
  145.6257  137.8655  154.3564 O   0  0  0  0  0  0  0  0  0  0  0  0
  146.2391  136.4926  152.6593 N   0  0  0  0  0  0  0  0  0  0  0  0
  144.9261  135.9419  152.3364 C   0  0  0  0  0  0  0  0  0  0  0  0
  144.9978  134.4292  152.0519 C   0  0  2  0  0  0  0  0  0  0  0  0
  146.0542  134.0259  151.0105 C   0  0  0  0  0  0  0  0  0  0  0  0
  145.5452  132.7333  150.3529 C   0  0  0  0  0  0  0  0  0  0  0  0
  144.1306  132.4998  150.8972 C   0  0  0  0  0  0  0  0  0  0  0  0
  143.7013  133.8472  151.4800 C   0  0  1  0  0  0  0  0  0  0  0  0
  142.7015  133.6900  152.4656 O   0  0  0  0  0  0  0  0  0  0  0  0
  149.5089  139.4872  154.1626 C   0  0  0  0  0  0  0  0  0  0  0  0
  150.0713  140.3309  155.0540 N   0  0  0  0  0  0  0  0  0  0  0  0
  151.4073  143.1704  157.2140 H   0  0  0  0  0  0  0  0  0  0  0  0
  150.5092  142.8731  155.7314 H   0  0  0  0  0  0  0  0  0  0  0  0
  151.9428  141.9227  156.1099 H   0  0  0  0  0  0  0  0  0  0  0  0
  151.8288  140.1197  157.9713 H   0  0  0  0  0  0  0  0  0  0  0  0
  150.3770  139.9661  158.9528 H   0  0  0  0  0  0  0  0  0  0  0  0
  151.3900  141.3979  159.0980 H   0  0  0  0  0  0  0  0  0  0  0  0
  149.4061  142.9626  158.5783 H   0  0  0  0  0  0  0  0  0  0  0  0
  148.3685  141.5537  158.5399 H   0  0  0  0  0  0  0  0  0  0  0  0
  148.3998  142.6579  157.1685 H   0  0  0  0  0  0  0  0  0  0  0  0
  147.2051  138.1030  156.2329 H   0  0  0  0  0  0  0  0  0  0  0  0
  148.3711  137.3201  152.9217 H   0  0  0  0  0  0  0  0  0  0  0  0
  147.0146  136.1671  152.1010 H   0  0  0  0  0  0  0  0  0  0  0  0
  144.2744  136.1218  153.1916 H   0  0  0  0  0  0  0  0  0  0  0  0
  144.4721  136.4683  151.4950 H   0  0  0  0  0  0  0  0  0  0  0  0
  145.2280  133.9045  152.9812 H   0  0  0  0  0  0  0  0  0  0  0  0
  146.1458  134.8008  150.2485 H   0  0  0  0  0  0  0  0  0  0  0  0
  147.0389  133.8969  151.4610 H   0  0  0  0  0  0  0  0  0  0  0  0
  145.5258  132.8490  149.2687 H   0  0  0  0  0  0  0  0  0  0  0  0
  146.1927  131.8853  150.5782 H   0  0  0  0  0  0  0  0  0  0  0  0
  143.4414  132.1353  150.1349 H   0  0  0  0  0  0  0  0  0  0  0  0
  144.1741  131.7482  151.6871 H   0  0  0  0  0  0  0  0  0  0  0  0
  143.3238  134.4878  150.6816 H   0  0  0  0  0  0  0  0  0  0  0  0
  142.9676  133.0037  153.0581 H   0  0  0  0  0  0  0  0  0  0  0  0
  149.8969  139.5439  153.1574 H   0  0  0  0  0  0  0  0  0  0  0  0
  1  2  1  0  0  0  0
  1 22  1  0  0  0  0
  1 23  1  0  0  0  0
  1 24  1  0  0  0  0
  2  3  1  0  0  0  0
  2  4  1  0  0  0  0
  2  5  1  0  0  0  0
  3 25  1  0  0  0  0
  3 26  1  0  0  0  0
  3 27  1  0  0  0  0
  4 28  1  0  0  0  0
  4 29  1  0  0  0  0
  4 30  1  0  0  0  0
  5 21  1  0  0  0  0
  5  6  2  0  0  0  0
  6  7  1  0  0  0  0
  7  8  2  0  0  0  0
  7 31  1  0  0  0  0
  8  9  1  0  0  0  0
  8 20  1  0  0  0  0
  9 10  1  0  0  0  0
  9 32  1  0  0  0  0
 10 11  2  0  0  0  0
 10 12  1  0  0  0  0
 12 13  1  0  0  0  0
 12 33  1  0  0  0  0
 13 14  1  0  0  0  0
 13 34  1  0  0  0  0
 13 35  1  0  0  0  0
 14 18  1  0  0  0  0
 14 15  1  0  0  0  0
 14 36  1  0  0  0  0
 15 16  1  0  0  0  0
 15 37  1  0  0  0  0
 15 38  1  0  0  0  0
 16 17  1  0  0  0  0
 16 39  1  0  0  0  0
 16 40  1  0  0  0  0
 17 18  1  0  0  0  0
 17 41  1  0  0  0  0
 17 42  1  0  0  0  0
 18 19  1  0  0  0  0
 18 43  1  0  0  0  0
 19 44  1  0  0  0  0
 20 21  2  0  0  0  0
 20 45  1  0  0  0  0
M  END
> <s_m_source_file>
AV-unprocessed.smi

> <i_m_source_file_index>
2509

> <i_lp_mmshare_version>
43012

> <i_f3d_flags>
0

> <s_epik_input>
W0NIM11DKFtDSDNdKShbQ0gzXSljMW5bY0hdYyhbY0hdbjEpW05IXUMoPU8pW05IXVtDSDJdW0NAQEhdMltDSDJdW0NIMl1bQ0gyXVtDQEhdMltPSF0=

> <s_epik_cmdline>
J2VwaWtfcHl0aG9uJywgJy1waCcsICc3LjAnLCAnLXRuJywgJzgnLCAnLW1hJywgJzIwMCcsICctbWV0YWxfYmluZGluZycsICctaW1hZScsICc8aW5maWxlLm1hZT4nLCAnLW9tYWUnLCAnPG91dGZpbGUubWFlPic=

> <r_lp_tautomer_probability>
1

> <r_epik_Ionization_Penalty>
2.77586e-05

> <r_epik_Ionization_Penalty_Charging>
0

> <r_epik_Ionization_Penalty_Neutral>
2.77586e-05

> <r_epik_State_Penalty>
-0

> <r_epik_Charging_Adjusted_Penalty>
0

> <i_epik_Tot_Q>
0

> <i_epik_Tot_abs_Q>
0

> <r_epik_Metal_State_Penalty>
-0

> <b_epik_Metal_Only>
0

> <s_lp_Force_Field>
OPLS_2005

> <r_lp_Energy>
20.4584

> <b_lp_Chiralities_Consistent>
1

> <s_lp_Variant>
AV-unprocessed.smi:2509-1

> <Gold.Version>
5.8.1

> <Gold.Id.Protein>
6NUR|6NUR_protein|mol2

> <Gold.PLP.Fitness>
39.2486

> <Gold.PLP.PLP>
-28.0628

> <Gold.PLP.part.hbond>
-3.5719

> <Gold.PLP.part.metal>
0.0000

> <Gold.PLP.part.buried>
-5.1966

> <Gold.PLP.part.nonpolar>
-19.9742

> <Gold.PLP.part.repulsive>
0.1940

> <Gold.PLP.ligand.clash>
0.0000

> <Gold.PLP.ligand.torsion>
0.7412

> <Gold.PLP.Chemscore.Hbond>
3.1717

> <Gold.PLP.Chemscore.CHOScore>
1.0000

> <Gold.PLP.Chemscore.Metal>
0.0000

> <Gold.Chemscore.Hbonds>
donor molecule, donor type, donor heavy atom, donor atom, acceptor molecule, acceptor atom, score
      L1  H     9    32       P1  7948  1.00
      L1  H    12    33       P1  7948  0.93
      L1  H    19    44       P1 10957  0.75
      P1  H  7989  7998       L1    21  0.19
      L1  C    20    45       P1  7957  1.00

> <Gold.PLP.Chemscore.Internal.Correction>
0.1530

> <Gold.Rescore>
     Score         DG    S(hbond)    S(metal)    S(lipo)     H(rot)  DE(clash)    DE(int)     intcor
     16.17     -18.04       2.94        0.00      65.07       1.91       0.15       1.72       ----

> <Gold.Chemscore.Fitness>
16.1740

> <Gold.Chemscore.DG>
-18.0361

> <Gold.Chemscore.ZeroCoef>
-5.4800

> <Gold.Chemscore.Hbond>
2.9449

> <Gold.Chemscore.Metal>
0.0000

> <Gold.Chemscore.Lipo>
65.0738

> <Gold.Chemscore.Internal_Hbond>
0.0000

> <Gold.Chemscore.DEClash>
0.1461

> <Gold.Chemscore.DEInternal>
1.7161

> <Gold.Chemscore.Rot>
1.9116

> <Gold.Chemscore.Internal.Correction>
   9.000000E+99

> <Gold.Chemscore.Hbonds>
donor molecule, donor type, donor heavy atom, donor atom, acceptor molecule, acceptor atom, score
      L1  H     9    32       P1  7948  0.99
      L1  H    12    33       P1  7948  0.89
      L1  H    19    44       P1 10957  0.43
      P1  H  7989  7998       L1    21  0.01

> <Gold.Chemscore.Hbond.Weighted>
-9.8361

> <Gold.Chemscore.Metal.Weighted>
-0.0000

> <Gold.Chemscore.Lipo.Weighted>
-7.6136

> <Gold.Chemscore.Internal_Hbond.Weighted>
0.0000

> <Gold.Chemscore.DEClash.Weighted>
0.1461

> <Gold.Chemscore.DEInternal.Weighted>
1.7161

> <Gold.Chemscore.Rot.Weighted>
4.8936

> <Gold.Chemscore.Internal.Correction.Weighted>
   9.000000E+99

> <Gold.Protein.RotatedTorsions>
[ 6907 6896 6895 6894 ] final  167.15 input  -60.11 | X-H torsion
[ 7974 7965 7964 7962 ] final   97.56 input  175.53 | X-H torsion
[ 8008 7997 7996 7995 ] final  158.62 input   59.86 | X-H torsion
[ 10167 10162 10161 10158 ] final  101.09 input  -65.29 | X-H torsion
[ 10718 10713 10712 10709 ] final  167.80 input   66.30 | X-H torsion
[ 10763 10752 10751 10750 ] final -144.01 input  -60.55 | X-H torsion
[ 11005 11000 10999 10996 ] final -148.64 input  -57.11 | X-H torsion

> <Gold.Protein.ActiveResidues>
 VAL166  LYS551  ARG553  GLY616  TRP617  ASP618  TYR619  PRO620  LYS621  CYS622 
 ASP623  PHE694  ASN695  SER759  ASP760  ASP761  ALA762  ILE779  LEU786  VAL792 
 PHE793  MET794  SER795  GLU796  ALA797  LYS798  CYS799  TRP800  GLU811  SER814 

> <Gold.Protein.RotatedAtoms>
  151.8678  133.3469  159.3724 H   0  0  0  0  0  0  0  0  0  0  0  0  # atno 6907 bound_to 6896
  150.7161  134.5143  159.5632 H   0  0  0  0  0  0  0  0  0  0  0  0  # atno 6908 bound_to 6896
  152.2669  134.7975  160.0472 H   0  0  0  0  0  0  0  0  0  0  0  0  # atno 6909 bound_to 6896
  145.4239  139.2318  143.3181 H   0  0  0  0  0  0  0  0  0  0  0  0  # atno 7974 bound_to 7965
  156.2291  140.1853  156.7289 H   0  0  0  0  0  0  0  0  0  0  0  0  # atno 8008 bound_to 7997
  154.5991  140.0639  156.9372 H   0  0  0  0  0  0  0  0  0  0  0  0  # atno 8009 bound_to 7997
  155.2205  140.3307  155.4319 H   0  0  0  0  0  0  0  0  0  0  0  0  # atno 8010 bound_to 7997
  139.7468  144.6995  151.0491 H   0  0  0  0  0  0  0  0  0  0  0  0  # atno 10167 bound_to 10162
  157.0463  131.0301  151.2696 H   0  0  0  0  0  0  0  0  0  0  0  0  # atno 10718 bound_to 10713
  154.8446  135.3452  154.6278 H   0  0  0  0  0  0  0  0  0  0  0  0  # atno 10763 bound_to 10752
  153.6888  135.6976  153.5101 H   0  0  0  0  0  0  0  0  0  0  0  0  # atno 10764 bound_to 10752
  153.2611  135.4322  155.0850 H   0  0  0  0  0  0  0  0  0  0  0  0  # atno 10765 bound_to 10752
  140.7592  134.3318  157.5106 H   0  0  0  0  0  0  0  0  0  0  0  0  # atno 11005 bound_to 11000
  146.2642  140.4967  142.8841 LP  0  0  0  0  0  0  0  0  0  0  0  0  # atno 17320 bound_to 7965
  144.8227  140.6577  143.6342 LP  0  0  0  0  0  0  0  0  0  0  0  0  # atno 17321 bound_to 7965
  140.7793  143.4856  150.9960 LP  0  0  0  0  0  0  0  0  0  0  0  0  # atno 17342 bound_to 10162
  139.8544  143.7395  152.3176 LP  0  0  0  0  0  0  0  0  0  0  0  0  # atno 17343 bound_to 10162
  157.5065  130.7912  149.7660 LP  0  0  0  0  0  0  0  0  0  0  0  0  # atno 17370 bound_to 10713
  156.0022  130.3874  150.2564 LP  0  0  0  0  0  0  0  0  0  0  0  0  # atno 17371 bound_to 10713
  139.8774  134.9191  156.3218 LP  0  0  0  0  0  0  0  0  0  0  0  0  # atno 17394 bound_to 11000
  140.9679  133.7346  156.0493 LP  0  0  0  0  0  0  0  0  0  0  0  0  # atno 17395 bound_to 11000

$$$$
