AV-unprocessed.smi:281|AV-procd|sdf|2110|dock1
  -GOLD-   2262021403D 1   1.00000     0.00000
 Structure written by MMmdl.
 55 59  0  0  0  0  0  0  0  0  1 V2000
  153.3037  139.4668  159.6909 C   0  0  0  0  0  0  0  0  0  0  0  0
  152.2799  138.8884  158.7091 C   0  0  1  0  0  0  0  0  0  0  0  0
  151.3359  137.8843  159.3855 C   0  0  0  0  0  0  0  0  0  0  0  0
  150.3287  137.4274  158.4337 N   0  0  0  0  0  0  0  0  0  0  0  0
  149.5687  136.3574  158.7861 C   0  0  0  0  0  0  0  0  0  0  0  0
  149.5412  135.2533  157.9913 N   0  0  0  0  0  0  0  0  0  0  0  0
  148.8060  134.1909  158.3315 C   0  0  0  0  0  0  0  0  0  0  0  0
  148.0315  134.0219  159.4038 N   0  0  0  0  0  0  0  0  0  0  0  0
  148.0439  135.1276  160.2014 C   0  0  0  0  0  0  0  0  0  0  0  0
  148.7797  136.3252  159.9718 C   0  0  0  0  0  0  0  0  0  0  0  0
  148.5374  137.2283  161.0000 N   0  0  0  0  0  0  0  0  0  0  0  0
  147.7161  136.5993  161.7946 C   0  0  0  0  0  0  0  0  0  0  0  0
  147.3576  135.3351  161.3858 N   0  0  0  0  0  0  0  0  0  0  0  0
  146.4587  134.4165  162.0683 C   0  0  0  0  0  0  0  0  0  0  0  0
  144.9627  134.6744  161.7702 C   0  0  1  0  0  0  0  0  0  0  0  0
  144.6889  134.3236  160.4246 O   0  0  0  0  0  0  0  0  0  0  0  0
  144.0352  133.8712  162.6732 C   0  0  0  0  0  0  0  0  0  0  0  0
  142.7935  134.7491  162.7455 C   0  0  0  0  0  0  0  0  0  0  0  0
  143.3359  136.0562  162.8257 O   0  0  0  0  0  0  0  0  0  0  0  0
  144.4959  136.1268  162.0015 C   0  0  0  0  0  0  0  0  0  0  0  0
  149.5869  138.5251  157.8205 C   0  0  0  0  0  0  0  0  0  0  0  0
  150.5313  139.5941  157.2101 C   0  0  2  0  0  0  0  0  0  0  0  0
  149.7515  140.8635  156.8802 C   0  0  0  0  0  0  0  0  0  0  0  0
  150.5143  141.4536  155.7066 C   0  0  0  0  0  0  0  0  0  0  0  0
  150.8202  140.2987  154.9500 O   0  0  0  0  0  0  0  0  0  0  0  0
  151.2228  139.2716  155.8498 C   0  0  2  0  0  0  0  0  0  0  0  0
  150.9071  137.9156  155.2034 C   0  0  0  0  0  0  0  0  0  0  0  0
  151.5122  139.9703  158.1829 O   0  0  0  0  0  0  0  0  0  0  0  0
  153.9248  138.6802  160.1197 H   0  0  0  0  0  0  0  0  0  0  0  0
  152.8119  139.9904  160.5112 H   0  0  0  0  0  0  0  0  0  0  0  0
  153.9642  140.1759  159.1913 H   0  0  0  0  0  0  0  0  0  0  0  0
  152.8218  138.3869  157.9068 H   0  0  0  0  0  0  0  0  0  0  0  0
  151.9112  137.0352  159.7577 H   0  0  0  0  0  0  0  0  0  0  0  0
  150.8444  138.3485  160.2421 H   0  0  0  0  0  0  0  0  0  0  0  0
  148.8430  133.3571  157.6460 H   0  0  0  0  0  0  0  0  0  0  0  0
  147.3454  137.0476  162.7047 H   0  0  0  0  0  0  0  0  0  0  0  0
  146.7282  133.3986  161.7826 H   0  0  0  0  0  0  0  0  0  0  0  0
  146.6469  134.4914  163.1401 H   0  0  0  0  0  0  0  0  0  0  0  0
  145.0197  135.0073  159.8624 H   0  0  0  0  0  0  0  0  0  0  0  0
  143.8294  132.8640  162.3082 H   0  0  0  0  0  0  0  0  0  0  0  0
  144.4648  133.7808  163.6723 H   0  0  0  0  0  0  0  0  0  0  0  0
  142.1930  134.6551  161.8394 H   0  0  0  0  0  0  0  0  0  0  0  0
  142.1622  134.5210  163.6045 H   0  0  0  0  0  0  0  0  0  0  0  0
  145.2421  136.7226  162.5260 H   0  0  0  0  0  0  0  0  0  0  0  0
  144.2644  136.6416  161.0677 H   0  0  0  0  0  0  0  0  0  0  0  0
  148.8829  138.1711  157.0689 H   0  0  0  0  0  0  0  0  0  0  0  0
  148.9822  138.9865  158.6029 H   0  0  0  0  0  0  0  0  0  0  0  0
  148.7410  140.6140  156.5531 H   0  0  0  0  0  0  0  0  0  0  0  0
  149.6669  141.5507  157.7228 H   0  0  0  0  0  0  0  0  0  0  0  0
  149.9241  142.1685  155.1332 H   0  0  0  0  0  0  0  0  0  0  0  0
  151.4338  141.9404  156.0358 H   0  0  0  0  0  0  0  0  0  0  0  0
  152.3043  139.3646  155.9527 H   0  0  0  0  0  0  0  0  0  0  0  0
  151.2193  137.0875  155.8393 H   0  0  0  0  0  0  0  0  0  0  0  0
  151.4334  137.8113  154.2546 H   0  0  0  0  0  0  0  0  0  0  0  0
  149.8423  137.8104  154.9972 H   0  0  0  0  0  0  0  0  0  0  0  0
  1  2  1  0  0  0  0
  1 29  1  0  0  0  0
  1 30  1  0  0  0  0
  1 31  1  0  0  0  0
  2 28  1  0  0  0  0
  2  3  1  0  0  0  0
  2 32  1  0  0  0  0
  3  4  1  0  0  0  0
  3 33  1  0  0  0  0
  3 34  1  0  0  0  0
  4  5  1  0  0  0  0
  4 21  1  0  0  0  0
  5 10  1  0  0  0  0
  5  6  2  0  0  0  0
  6  7  1  0  0  0  0
  7  8  2  0  0  0  0
  7 35  1  0  0  0  0
  8  9  1  0  0  0  0
  9 13  1  0  0  0  0
  9 10  2  0  0  0  0
 10 11  1  0  0  0  0
 11 12  2  0  0  0  0
 12 13  1  0  0  0  0
 12 36  1  0  0  0  0
 13 14  1  0  0  0  0
 14 15  1  0  0  0  0
 14 37  1  0  0  0  0
 14 38  1  0  0  0  0
 15 20  1  0  0  0  0
 15 16  1  0  0  0  0
 15 17  1  0  0  0  0
 16 39  1  0  0  0  0
 17 18  1  0  0  0  0
 17 40  1  0  0  0  0
 17 41  1  0  0  0  0
 18 19  1  0  0  0  0
 18 42  1  0  0  0  0
 18 43  1  0  0  0  0
 19 20  1  0  0  0  0
 20 44  1  0  0  0  0
 20 45  1  0  0  0  0
 21 22  1  0  0  0  0
 21 46  1  0  0  0  0
 21 47  1  0  0  0  0
 22 26  1  0  0  0  0
 22 23  1  0  0  0  0
 22 28  1  0  0  0  0
 23 24  1  0  0  0  0
 23 48  1  0  0  0  0
 23 49  1  0  0  0  0
 24 25  1  0  0  0  0
 24 50  1  0  0  0  0
 24 51  1  0  0  0  0
 25 26  1  0  0  0  0
 26 27  1  0  0  0  0
 26 52  1  0  0  0  0
 27 53  1  0  0  0  0
 27 54  1  0  0  0  0
 27 55  1  0  0  0  0
M  END
> <s_m_source_file>
AV-unprocessed.smi

> <i_m_source_file_index>
281

> <i_lp_mmshare_version>
43012

> <i_f3d_flags>
0

> <s_epik_input>
W0NIM11bQ0BASF0xT1tDSDJdW0NIMl1bQ0BAXTEyW0NIMl1OKFtDSDJdW0NASF0oTzIpW0NIM10pYyhuW2NIXW4zKWMoYzM0KW5bY0hdbjRbQ0gyXVtDQEBdNShbT0hdKVtDSDJdW0NIMl1PW0NIMl01

> <s_epik_cmdline>
J2VwaWtfcHl0aG9uJywgJy1waCcsICc3LjAnLCAnLXRuJywgJzgnLCAnLW1hJywgJzIwMCcsICctbWV0YWxfYmluZGluZycsICctaW1hZScsICc8aW5maWxlLm1hZT4nLCAnLW9tYWUnLCAnPG91dGZpbGUubWFlPic=

> <r_lp_tautomer_probability>
1

> <r_epik_Ionization_Penalty>
0.00571331

> <r_epik_Ionization_Penalty_Charging>
0

> <r_epik_Ionization_Penalty_Neutral>
0.00571331

> <r_epik_State_Penalty>
0.00399586

> <r_epik_Charging_Adjusted_Penalty>
0.00399586

> <i_epik_Tot_Q>
0

> <i_epik_Tot_abs_Q>
0

> <r_epik_Metal_State_Penalty>
-0

> <b_epik_Metal_Only>
0

> <s_lp_Force_Field>
OPLS_2005

> <r_lp_Energy>
52.955

> <b_lp_Chiralities_Consistent>
1

> <s_lp_Variant>
AV-unprocessed.smi:281-10

> <Gold.Version>
5.8.1

> <Gold.Id.Protein>
6NUR|6NUR_protein|mol2

> <Gold.PLP.Fitness>
45.9106

> <Gold.PLP.PLP>
-41.3349

> <Gold.PLP.part.hbond>
-2.9978

> <Gold.PLP.part.metal>
0.0000

> <Gold.PLP.part.buried>
-5.3188

> <Gold.PLP.part.nonpolar>
-33.0486

> <Gold.PLP.part.repulsive>
0.1487

> <Gold.PLP.ligand.clash>
0.0000

> <Gold.PLP.ligand.torsion>
0.6643

> <Gold.PLP.Chemscore.Hbond>
1.8783

> <Gold.PLP.Chemscore.CHOScore>
0.0000

> <Gold.PLP.Chemscore.Metal>
0.0000

> <Gold.Chemscore.Hbonds>
donor molecule, donor type, donor heavy atom, donor atom, acceptor molecule, acceptor atom, score
      P1  H  6931  6943       L1    11  0.75
      P1  H  6934  6947       L1    11  0.14
      P1  H  7989  7998       L1    25  1.00

> <Gold.PLP.Chemscore.Internal.Correction>
0.2695

> <Gold.Rescore>
     Score         DG    S(hbond)    S(metal)    S(lipo)     H(rot)  DE(clash)    DE(int)     intcor
     14.83     -15.73       1.64        0.00      86.67       2.09       0.12       0.77       ----

> <Gold.Chemscore.Fitness>
14.8322

> <Gold.Chemscore.DG>
-15.7251

> <Gold.Chemscore.ZeroCoef>
-5.4800

> <Gold.Chemscore.Hbond>
1.6353

> <Gold.Chemscore.Metal>
0.0000

> <Gold.Chemscore.Lipo>
86.6709

> <Gold.Chemscore.Internal_Hbond>
0.0000

> <Gold.Chemscore.DEClash>
0.1229

> <Gold.Chemscore.DEInternal>
0.7699

> <Gold.Chemscore.Rot>
2.0927

> <Gold.Chemscore.Internal.Correction>
   9.000000E+99

> <Gold.Chemscore.Hbonds>
donor molecule, donor type, donor heavy atom, donor atom, acceptor molecule, acceptor atom, score
      P1  H  6931  6943       L1    11  0.21
      P1  H  6934  6947       L1    11  0.01
      P1  H  7989  7998       L1    25  0.55

> <Gold.Chemscore.Hbond.Weighted>
-5.4620

> <Gold.Chemscore.Metal.Weighted>
-0.0000

> <Gold.Chemscore.Lipo.Weighted>
-10.1405

> <Gold.Chemscore.Internal_Hbond.Weighted>
0.0000

> <Gold.Chemscore.DEClash.Weighted>
0.1229

> <Gold.Chemscore.DEInternal.Weighted>
0.7699

> <Gold.Chemscore.Rot.Weighted>
5.3573

> <Gold.Chemscore.Internal.Correction.Weighted>
   9.000000E+99

> <Gold.Protein.RotatedTorsions>
[ 6907 6896 6895 6894 ] final -165.68 input  -60.11 | X-H torsion
[ 7974 7965 7964 7962 ] final  -57.69 input  175.53 | X-H torsion
[ 8008 7997 7996 7995 ] final  -26.91 input   59.86 | X-H torsion
[ 10167 10162 10161 10158 ] final  -88.37 input  -65.29 | X-H torsion
[ 10718 10713 10712 10709 ] final   72.59 input   66.30 | X-H torsion
[ 10763 10752 10751 10750 ] final  -81.61 input  -60.55 | X-H torsion
[ 11005 11000 10999 10996 ] final -128.46 input  -57.11 | X-H torsion

> <Gold.Protein.ActiveResidues>
 VAL166  LYS551  ARG553  GLY616  TRP617  ASP618  TYR619  PRO620  LYS621  CYS622 
 ASP623  PHE694  ASN695  SER759  ASP760  ASP761  ALA762  ILE779  LEU786  VAL792 
 PHE793  MET794  SER795  GLU796  ALA797  LYS798  CYS799  TRP800  GLU811  SER814 

> <Gold.Protein.RotatedAtoms>
  151.4315  133.3669  159.2769 H   0  0  0  0  0  0  0  0  0  0  0  0  # atno 6907 bound_to 6896
  150.9221  134.8640  159.7507 H   0  0  0  0  0  0  0  0  0  0  0  0  # atno 6908 bound_to 6896
  152.4987  134.4254  159.9546 H   0  0  0  0  0  0  0  0  0  0  0  0  # atno 6909 bound_to 6896
  145.8481  140.8371  143.0000 H   0  0  0  0  0  0  0  0  0  0  0  0  # atno 7974 bound_to 7965
  154.4402  140.1886  156.0849 H   0  0  0  0  0  0  0  0  0  0  0  0  # atno 8008 bound_to 7997
  156.0410  140.3319  155.7218 H   0  0  0  0  0  0  0  0  0  0  0  0  # atno 8009 bound_to 7997
  155.5699  140.0611  157.2800 H   0  0  0  0  0  0  0  0  0  0  0  0  # atno 8010 bound_to 7997
  140.3754  143.2774  151.9450 H   0  0  0  0  0  0  0  0  0  0  0  0  # atno 10167 bound_to 10162
  157.6508  130.9586  150.0950 H   0  0  0  0  0  0  0  0  0  0  0  0  # atno 10718 bound_to 10713
  154.5656  135.5620  153.7048 H   0  0  0  0  0  0  0  0  0  0  0  0  # atno 10763 bound_to 10752
  153.0032  135.6284  154.2184 H   0  0  0  0  0  0  0  0  0  0  0  0  # atno 10764 bound_to 10752
  154.2123  135.2873  155.2934 H   0  0  0  0  0  0  0  0  0  0  0  0  # atno 10765 bound_to 10752
  140.9514  134.1061  157.4058 H   0  0  0  0  0  0  0  0  0  0  0  0  # atno 11005 bound_to 11000
  144.6730  140.0911  143.7465 LP  0  0  0  0  0  0  0  0  0  0  0  0  # atno 17320 bound_to 7965
  145.9389  139.2656  143.1280 LP  0  0  0  0  0  0  0  0  0  0  0  0  # atno 17321 bound_to 7965
  139.4800  144.5868  151.7839 LP  0  0  0  0  0  0  0  0  0  0  0  0  # atno 17342 bound_to 10162
  140.4991  144.1195  150.5967 LP  0  0  0  0  0  0  0  0  0  0  0  0  # atno 17343 bound_to 10162
  156.1888  130.3653  149.8937 LP  0  0  0  0  0  0  0  0  0  0  0  0  # atno 17370 bound_to 10713
  156.6870  130.8881  151.3583 LP  0  0  0  0  0  0  0  0  0  0  0  0  # atno 17371 bound_to 10713
  139.8848  135.0067  156.6396 LP  0  0  0  0  0  0  0  0  0  0  0  0  # atno 17394 bound_to 11000
  140.7597  133.8827  155.8409 LP  0  0  0  0  0  0  0  0  0  0  0  0  # atno 17395 bound_to 11000

$$$$
