AV-unprocessed.smi:3112|AV-procd|sdf|11847|dock9
  -GOLD-   2272017233D 1   1.00000     0.00000
 Structure written by MMmdl.
 36 36  0  0  0  0  0  0  0  0  1 V2000
  150.0121  137.8376  154.5509 C   0  0  0  0  0  0  0  0  0  0  0  0
  151.4177  138.4256  154.7559 C   0  0  0  0  0  0  0  0  0  0  0  0
  151.4489  139.7851  155.4825 C   0  0  1  0  0  0  0  0  0  0  0  0
  150.3877  140.5854  155.0022 O   0  0  0  0  0  0  0  0  0  0  0  0
  151.3275  139.6594  157.0109 C   0  0  0  0  0  0  0  0  0  0  0  0
  151.6691  140.9199  157.6692 N   0  0  0  0  0  0  0  0  0  0  0  0
  151.9055  140.8416  159.1156 C   0  0  1  0  0  0  0  0  0  0  0  0
  152.6781  139.5447  159.4116 C   0  0  0  0  0  0  0  0  0  0  0  0
  152.6440  142.0846  159.7000 C   0  0  2  0  0  0  0  0  0  0  0  0
  152.9548  142.0267  161.2077 C   0  0  0  0  0  0  0  0  0  0  0  0
  152.0293  143.3534  159.3176 N   0  0  0  0  0  0  0  0  0  0  0  0
  151.7588  144.4424  160.1217 C   0  0  0  0  0  0  0  0  0  0  0  0
  151.2060  145.4099  159.3329 C   0  0  0  0  0  0  0  0  0  0  0  0
  151.1824  144.8178  158.0400 C   0  0  0  0  0  0  0  0  0  0  0  0
  151.6792  143.5922  158.0324 N   0  0  0  0  0  0  0  0  0  0  0  0
  150.0675  136.8871  154.0203 H   0  0  0  0  0  0  0  0  0  0  0  0
  149.3813  138.5048  153.9634 H   0  0  0  0  0  0  0  0  0  0  0  0
  149.5119  137.6523  155.5015 H   0  0  0  0  0  0  0  0  0  0  0  0
  152.0197  137.7090  155.3157 H   0  0  0  0  0  0  0  0  0  0  0  0
  151.9043  138.5268  153.7850 H   0  0  0  0  0  0  0  0  0  0  0  0
  152.3878  140.2794  155.2283 H   0  0  0  0  0  0  0  0  0  0  0  0
  150.2160  141.2635  155.6383 H   0  0  0  0  0  0  0  0  0  0  0  0
  150.3338  139.3102  157.2784 H   0  0  0  0  0  0  0  0  0  0  0  0
  152.0203  138.8912  157.3562 H   0  0  0  0  0  0  0  0  0  0  0  0
  152.4831  141.3211  157.2148 H   0  0  0  0  0  0  0  0  0  0  0  0
  150.9462  140.7485  159.6263 H   0  0  0  0  0  0  0  0  0  0  0  0
  152.8731  139.4367  160.4789 H   0  0  0  0  0  0  0  0  0  0  0  0
  153.6369  139.5150  158.8929 H   0  0  0  0  0  0  0  0  0  0  0  0
  152.1083  138.6704  159.0960 H   0  0  0  0  0  0  0  0  0  0  0  0
  153.6263  142.0822  159.2248 H   0  0  0  0  0  0  0  0  0  0  0  0
  153.3922  141.0673  161.4842 H   0  0  0  0  0  0  0  0  0  0  0  0
  152.0696  142.1862  161.8221 H   0  0  0  0  0  0  0  0  0  0  0  0
  153.6701  142.8031  161.4799 H   0  0  0  0  0  0  0  0  0  0  0  0
  151.9831  144.4387  161.1782 H   0  0  0  0  0  0  0  0  0  0  0  0
  150.8724  146.3920  159.6329 H   0  0  0  0  0  0  0  0  0  0  0  0
  150.8239  145.2399  157.1129 H   0  0  0  0  0  0  0  0  0  0  0  0
  1  2  1  0  0  0  0
  1 16  1  0  0  0  0
  1 17  1  0  0  0  0
  1 18  1  0  0  0  0
  2  3  1  0  0  0  0
  2 19  1  0  0  0  0
  2 20  1  0  0  0  0
  3  4  1  0  0  0  0
  3  5  1  0  0  0  0
  3 21  1  0  0  0  0
  4 22  1  0  0  0  0
  5  6  1  0  0  0  0
  5 23  1  0  0  0  0
  5 24  1  0  0  0  0
  6  7  1  0  0  0  0
  6 25  1  0  0  0  0
  7  8  1  0  0  0  0
  7  9  1  0  0  0  0
  7 26  1  0  0  0  0
  8 27  1  0  0  0  0
  8 28  1  0  0  0  0
  8 29  1  0  0  0  0
  9 10  1  0  0  0  0
  9 11  1  0  0  0  0
  9 30  1  0  0  0  0
 10 31  1  0  0  0  0
 10 32  1  0  0  0  0
 10 33  1  0  0  0  0
 11 15  1  0  0  0  0
 11 12  1  0  0  0  0
 12 13  2  0  0  0  0
 12 34  1  0  0  0  0
 13 14  1  0  0  0  0
 13 35  1  0  0  0  0
 14 15  2  0  0  0  0
 14 36  1  0  0  0  0
M  END
> <s_m_source_file>
AV-unprocessed.smi

> <i_m_source_file_index>
3112

> <i_lp_mmshare_version>
43012

> <i_f3d_flags>
0

> <s_epik_input>
W0NIM11bQ0gyXVtDQEhdKFtPSF0pW0NIMl1bTkhdW0NASF0oW0NIM10pW0NASF0oW0NIM10pbjFbY0hdW2NIXVtjSF1uMQ==

> <s_epik_cmdline>
J2VwaWtfcHl0aG9uJywgJy1waCcsICc3LjAnLCAnLXRuJywgJzgnLCAnLW1hJywgJzIwMCcsICctbWV0YWxfYmluZGluZycsICctaW1hZScsICc8aW5maWxlLm1hZT4nLCAnLW9tYWUnLCAnPG91dGZpbGUubWFlPic=

> <r_lp_tautomer_probability>
1

> <r_epik_Ionization_Penalty>
2.16876

> <r_epik_Ionization_Penalty_Charging>
0

> <r_epik_Ionization_Penalty_Neutral>
2.16876

> <r_epik_State_Penalty>
2.30854

> <r_epik_Charging_Adjusted_Penalty>
2.30854

> <i_epik_Tot_Q>
0

> <i_epik_Tot_abs_Q>
0

> <r_epik_Metal_State_Penalty>
2.3073

> <b_epik_Metal_Only>
0

> <s_lp_Force_Field>
OPLS_2005

> <r_lp_Energy>
21.8482

> <b_lp_Chiralities_Consistent>
1

> <s_lp_Variant>
AV-unprocessed.smi:3112-12

> <Gold.Version>
5.8.1

> <Gold.Id.Protein>
6NUR|6NUR_protein|mol2

> <Gold.PLP.Fitness>
44.9021

> <Gold.PLP.PLP>
-39.9206

> <Gold.PLP.part.hbond>
-1.0032

> <Gold.PLP.part.metal>
0.0000

> <Gold.PLP.part.buried>
-5.1552

> <Gold.PLP.part.nonpolar>
-34.0353

> <Gold.PLP.part.repulsive>
0.0542

> <Gold.PLP.ligand.clash>
0.0000

> <Gold.PLP.ligand.torsion>
0.6838

> <Gold.PLP.Chemscore.Hbond>
1.0000

> <Gold.PLP.Chemscore.CHOScore>
1.0000

> <Gold.PLP.Chemscore.Metal>
0.0000

> <Gold.Chemscore.Hbonds>
donor molecule, donor type, donor heavy atom, donor atom, acceptor molecule, acceptor atom, score
      P1  H  7989  7998       L1     4  0.14
      L1  C    14    36       P1  8028  1.00

> <Gold.PLP.Chemscore.Internal.Correction>
0.3490

> <Gold.Rescore>
     Score         DG    S(hbond)    S(metal)    S(lipo)     H(rot)  DE(clash)    DE(int)     intcor
     12.00     -13.91       0.82        0.00      99.34       2.31       0.11       1.80       ----

> <Gold.Chemscore.Fitness>
12.0011

> <Gold.Chemscore.DG>
-13.9124

> <Gold.Chemscore.ZeroCoef>
-5.4800

> <Gold.Chemscore.Hbond>
0.8161

> <Gold.Chemscore.Metal>
0.0000

> <Gold.Chemscore.Lipo>
99.3370

> <Gold.Chemscore.Internal_Hbond>
0.0000

> <Gold.Chemscore.DEClash>
0.1093

> <Gold.Chemscore.DEInternal>
1.8020

> <Gold.Chemscore.Rot>
2.3108

> <Gold.Chemscore.Internal.Correction>
   9.000000E+99

> <Gold.Chemscore.Hbond.Weighted>
-2.7257

> <Gold.Chemscore.Metal.Weighted>
-0.0000

> <Gold.Chemscore.Lipo.Weighted>
-11.6224

> <Gold.Chemscore.Internal_Hbond.Weighted>
0.0000

> <Gold.Chemscore.DEClash.Weighted>
0.1093

> <Gold.Chemscore.DEInternal.Weighted>
1.8020

> <Gold.Chemscore.Rot.Weighted>
5.9157

> <Gold.Chemscore.Internal.Correction.Weighted>
   9.000000E+99

> <Gold.Protein.RotatedTorsions>
[ 6907 6896 6895 6894 ] final -129.83 input  -60.11 | X-H torsion
[ 7974 7965 7964 7962 ] final  -70.15 input  175.53 | X-H torsion
[ 8008 7997 7996 7995 ] final  170.82 input   59.86 | X-H torsion
[ 10167 10162 10161 10158 ] final  -18.34 input  -65.29 | X-H torsion
[ 10718 10713 10712 10709 ] final  -57.86 input   66.30 | X-H torsion
[ 10763 10752 10751 10750 ] final  147.40 input  -60.55 | X-H torsion
[ 11005 11000 10999 10996 ] final -140.10 input  -57.11 | X-H torsion

> <Gold.Protein.ActiveResidues>
 VAL166  LYS551  ARG553  GLY616  TRP617  ASP618  TYR619  PRO620  LYS621  CYS622 
 ASP623  PHE694  ASN695  SER759  ASP760  ASP761  ALA762  ILE779  LEU786  VAL792 
 PHE793  MET794  SER795  GLU796  ALA797  LYS798  CYS799  TRP800  GLU811  SER814 

> <Gold.Protein.RotatedAtoms>
  150.9330  133.6745  159.2806 H   0  0  0  0  0  0  0  0  0  0  0  0  # atno 6907 bound_to 6896
  151.4160  135.0990  159.9609 H   0  0  0  0  0  0  0  0  0  0  0  0  # atno 6908 bound_to 6896
  152.5035  133.8792  159.7393 H   0  0  0  0  0  0  0  0  0  0  0  0  # atno 6909 bound_to 6896
  145.6947  140.9140  143.0763 H   0  0  0  0  0  0  0  0  0  0  0  0  # atno 7974 bound_to 7965
  156.1329  140.1528  156.9038 H   0  0  0  0  0  0  0  0  0  0  0  0  # atno 8008 bound_to 7997
  154.4924  140.0847  156.7662 H   0  0  0  0  0  0  0  0  0  0  0  0  # atno 8009 bound_to 7997
  155.4222  140.3423  155.4274 H   0  0  0  0  0  0  0  0  0  0  0  0  # atno 8010 bound_to 7997
  140.7257  143.4926  150.9972 H   0  0  0  0  0  0  0  0  0  0  0  0  # atno 10167 bound_to 10162
  156.1179  130.4169  150.0498 H   0  0  0  0  0  0  0  0  0  0  0  0  # atno 10718 bound_to 10713
  154.0376  135.2892  155.3359 H   0  0  0  0  0  0  0  0  0  0  0  0  # atno 10763 bound_to 10752
  154.6949  135.5212  153.8447 H   0  0  0  0  0  0  0  0  0  0  0  0  # atno 10764 bound_to 10752
  153.0613  135.6615  154.0584 H   0  0  0  0  0  0  0  0  0  0  0  0  # atno 10765 bound_to 10752
  140.8455  134.2350  157.4788 H   0  0  0  0  0  0  0  0  0  0  0  0  # atno 11005 bound_to 11000
  144.6986  139.8868  143.7450 LP  0  0  0  0  0  0  0  0  0  0  0  0  # atno 17320 bound_to 7965
  146.0851  139.3839  143.0440 LP  0  0  0  0  0  0  0  0  0  0  0  0  # atno 17321 bound_to 7965
  139.8631  143.7289  152.3172 LP  0  0  0  0  0  0  0  0  0  0  0  0  # atno 17342 bound_to 10162
  139.7511  144.7534  151.0505 LP  0  0  0  0  0  0  0  0  0  0  0  0  # atno 17343 bound_to 10162
  156.8444  130.9437  151.3630 LP  0  0  0  0  0  0  0  0  0  0  0  0  # atno 17370 bound_to 10713
  157.6362  130.8769  149.9364 LP  0  0  0  0  0  0  0  0  0  0  0  0  # atno 17371 bound_to 10713
  139.8703  134.9657  156.4537 LP  0  0  0  0  0  0  0  0  0  0  0  0  # atno 17394 bound_to 11000
  140.8848  133.7891  155.9506 LP  0  0  0  0  0  0  0  0  0  0  0  0  # atno 17395 bound_to 11000

$$$$
