AV-unprocessed.smi:907|AV-procd|sdf|4110|dock6
  -GOLD-   22720 2 03D 1   1.00000     0.00000
 Structure written by MMmdl.
 54 57  0  0  0  0  0  0  0  0  3 V2000
  148.6060  141.7959  154.3120 O   0  0  0  0  0  0  0  0  0  0  0  0
  148.8821  140.6866  154.7704 C   0  0  0  0  0  0  0  0  0  0  0  0
  149.3533  140.5274  156.0193 N   0  0  0  0  0  0  0  0  0  0  0  0
  149.5613  141.6088  156.9760 C   0  0  0  0  0  0  0  0  0  0  0  0
  151.0563  141.8450  157.2496 C   0  0  0  0  0  0  0  0  0  0  0  0
  151.2863  142.9649  158.2452 C   0  0  0  0  0  0  0  0  0  0  0  0
  152.1329  142.8066  159.3637 C   0  0  0  0  0  0  0  0  0  0  0  0
  152.3129  143.8883  160.2507 C   0  0  0  0  0  0  0  0  0  0  0  0
  151.6441  145.1045  160.0000 C   0  0  0  0  0  0  0  0  0  0  0  0
  150.8128  145.2086  158.8660 C   0  0  0  0  0  0  0  0  0  0  0  0
  150.6660  144.1495  158.0394 N   0  3  0  0  0  0  0  0  0  0  0  0
  148.8027  139.5446  154.0432 N   0  0  0  0  0  0  0  0  0  0  0  0
  149.2000  138.2041  154.4927 C   0  0  0  0  0  0  0  0  0  0  0  0
  147.9327  137.3864  154.8062 C   0  0  0  0  0  0  0  0  0  0  0  0
  147.0067  137.3284  153.6381 N   0  3  0  0  0  0  0  0  0  0  0  0
  145.7736  136.5400  153.9238 C   0  0  2  0  0  0  0  0  0  0  0  0
  146.0319  135.0552  154.2805 C   0  0  0  0  0  0  0  0  0  0  0  0
  145.0548  134.2990  153.3604 C   0  0  2  0  0  0  0  0  0  0  0  0
  145.6199  134.3039  151.9299 C   0  0  0  0  0  0  0  0  0  0  0  0
  145.4395  135.7722  151.5057 C   0  0  0  0  0  0  0  0  0  0  0  0
  144.7763  136.4136  152.7447 C   0  0  1  0  0  0  0  0  0  0  0  0
  143.8903  135.2746  153.2377 C   0  0  0  0  0  0  0  0  0  0  0  0
  146.7227  138.6820  153.0804 C   0  0  0  0  0  0  0  0  0  0  0  0
  148.0189  139.4660  152.8086 C   0  0  0  0  0  0  0  0  0  0  0  0
  149.5851  139.5933  156.3251 H   0  0  0  0  0  0  0  0  0  0  0  0
  149.0933  142.5225  156.6053 H   0  0  0  0  0  0  0  0  0  0  0  0
  149.0468  141.3516  157.9023 H   0  0  0  0  0  0  0  0  0  0  0  0
  151.5182  140.9312  157.6263 H   0  0  0  0  0  0  0  0  0  0  0  0
  151.5776  142.0915  156.3235 H   0  0  0  0  0  0  0  0  0  0  0  0
  152.6407  141.8692  159.5399 H   0  0  0  0  0  0  0  0  0  0  0  0
  152.9570  143.7862  161.1119 H   0  0  0  0  0  0  0  0  0  0  0  0
  151.7686  145.9450  160.6673 H   0  0  0  0  0  0  0  0  0  0  0  0
  150.2653  146.1002  158.5972 H   0  0  0  0  0  0  0  0  0  0  0  0
  149.7701  137.7171  153.7001 H   0  0  0  0  0  0  0  0  0  0  0  0
  149.8558  138.2071  155.3633 H   0  0  0  0  0  0  0  0  0  0  0  0
  148.2286  136.3835  155.1113 H   0  0  0  0  0  0  0  0  0  0  0  0
  147.4117  137.8310  155.6558 H   0  0  0  0  0  0  0  0  0  0  0  0
  145.2568  137.0190  154.7579 H   0  0  0  0  0  0  0  0  0  0  0  0
  147.0589  134.7346  154.1025 H   0  0  0  0  0  0  0  0  0  0  0  0
  145.8047  134.8708  155.3314 H   0  0  0  0  0  0  0  0  0  0  0  0
  144.7900  133.3048  153.7216 H   0  0  0  0  0  0  0  0  0  0  0  0
  146.6614  133.9823  151.8907 H   0  0  0  0  0  0  0  0  0  0  0  0
  145.0425  133.6433  151.2817 H   0  0  0  0  0  0  0  0  0  0  0  0
  146.3835  136.2445  151.2340 H   0  0  0  0  0  0  0  0  0  0  0  0
  144.7788  135.8372  150.6402 H   0  0  0  0  0  0  0  0  0  0  0  0
  144.2316  137.3324  152.5253 H   0  0  0  0  0  0  0  0  0  0  0  0
  143.1393  134.9630  152.5094 H   0  0  0  0  0  0  0  0  0  0  0  0
  143.3988  135.4844  154.1896 H   0  0  0  0  0  0  0  0  0  0  0  0
  146.1671  138.6018  152.1467 H   0  0  0  0  0  0  0  0  0  0  0  0
  146.0932  139.2365  153.7785 H   0  0  0  0  0  0  0  0  0  0  0  0
  147.7825  140.4484  152.3973 H   0  0  0  0  0  0  0  0  0  0  0  0
  148.6078  138.9616  152.0410 H   0  0  0  0  0  0  0  0  0  0  0  0
  147.4997  136.8293  152.9116 H   0  0  0  0  0  0  0  0  0  0  0  0
  150.0598  144.2480  157.2249 H   0  0  0  0  0  0  0  0  0  0  0  0
  1  2  2  0  0  0  0
  2  3  1  0  0  0  0
  2 12  1  0  0  0  0
  3  4  1  0  0  0  0
  3 25  1  0  0  0  0
  4  5  1  0  0  0  0
  4 26  1  0  0  0  0
  4 27  1  0  0  0  0
  5  6  1  0  0  0  0
  5 28  1  0  0  0  0
  5 29  1  0  0  0  0
  6 11  1  0  0  0  0
  6  7  2  0  0  0  0
  7  8  1  0  0  0  0
  7 30  1  0  0  0  0
  8  9  2  0  0  0  0
  8 31  1  0  0  0  0
  9 10  1  0  0  0  0
  9 32  1  0  0  0  0
 10 11  2  0  0  0  0
 10 33  1  0  0  0  0
 11 54  1  0  0  0  0
 12 24  1  0  0  0  0
 12 13  1  0  0  0  0
 13 14  1  0  0  0  0
 13 34  1  0  0  0  0
 13 35  1  0  0  0  0
 14 15  1  0  0  0  0
 14 36  1  0  0  0  0
 14 37  1  0  0  0  0
 15 16  1  0  0  0  0
 15 23  1  0  0  0  0
 15 53  1  0  0  0  0
 16 21  1  0  0  0  0
 16 17  1  0  0  0  0
 16 38  1  0  0  0  0
 17 18  1  0  0  0  0
 17 39  1  0  0  0  0
 17 40  1  0  0  0  0
 18 22  1  0  0  0  0
 18 19  1  0  0  0  0
 18 41  1  0  0  0  0
 19 20  1  0  0  0  0
 19 42  1  0  0  0  0
 19 43  1  0  0  0  0
 20 21  1  0  0  0  0
 20 44  1  0  0  0  0
 20 45  1  0  0  0  0
 21 22  1  0  0  0  0
 21 46  1  0  0  0  0
 22 47  1  0  0  0  0
 22 48  1  0  0  0  0
 23 24  1  0  0  0  0
 23 49  1  0  0  0  0
 23 50  1  0  0  0  0
 24 51  1  0  0  0  0
 24 52  1  0  0  0  0
M  CHG  1  11   1
M  CHG  1  15   1
M  END
> <s_m_source_file>
AV-unprocessed.smi

> <i_m_source_file_index>
907

> <i_lp_mmshare_version>
43012

> <i_f3d_flags>
0

> <s_epik_input>
W0NIMl0xW0NIMl1bQ0BASF0oW0NIMl0yKVtDQEBIXShbQ0gyXVtDQEhdMTIpTihbQ0gyXVtDSDJdMylbQ0gyXVtDSDJdTjNDKD1PKVtOSF1bQ0gyXVtDSDJdYzRbY0hdW2NIXVtjSF1bY0hdbjQ=

> <s_epik_cmdline>
J2VwaWtfcHl0aG9uJywgJy1waCcsICc3LjAnLCAnLXRuJywgJzgnLCAnLW1hJywgJzIwMCcsICctbWV0YWxfYmluZGluZycsICctaW1hZScsICc8aW5maWxlLm1hZT4nLCAnLW9tYWUnLCAnPG91dGZpbGUubWFlPic=

> <r_epik_Ionization_Penalty>
1.63018

> <r_epik_Ionization_Penalty_Charging>
1.63015

> <r_epik_Ionization_Penalty_Neutral>
2.64641e-05

> <r_epik_State_Penalty>
1.72761

> <r_epik_Charging_Adjusted_Penalty>
3.35777

> <i_epik_Tot_Q>
2

> <i_epik_Tot_abs_Q>
2

> <r_epik_Metal_State_Penalty>
1.76501

> <b_epik_Metal_Only>
0

> <s_lp_Force_Field>
OPLS_2005

> <r_lp_Energy>
102.759

> <b_lp_Chiralities_Consistent>
1

> <s_lp_Variant>
AV-unprocessed.smi:907-5

> <Gold.Version>
5.8.1

> <Gold.Id.Protein>
6NUR|6NUR_protein|mol2

> <Gold.PLP.Fitness>
52.2683

> <Gold.PLP.PLP>
-39.5560

> <Gold.PLP.part.hbond>
-3.0000

> <Gold.PLP.part.metal>
0.0000

> <Gold.PLP.part.buried>
1.5779

> <Gold.PLP.part.nonpolar>
-37.8864

> <Gold.PLP.part.repulsive>
0.2996

> <Gold.PLP.ligand.clash>
0.0000

> <Gold.PLP.ligand.torsion>
0.2306

> <Gold.PLP.Chemscore.Hbond>
4.3494

> <Gold.PLP.Chemscore.CHOScore>
0.0000

> <Gold.PLP.Chemscore.Metal>
0.0000

> <Gold.Chemscore.Hbonds>
donor molecule, donor type, donor heavy atom, donor atom, acceptor molecule, acceptor atom, score
      L1  H    11    54       P1  8028  2.00
      L1  H    15    53       P1  7948  2.00
      P1  H  8011  8017       L1     1  0.05

> <Gold.PLP.Chemscore.Internal.Correction>
0.1252

> <Gold.Rescore>
     Score         DG    S(hbond)    S(metal)    S(lipo)     H(rot)  DE(clash)    DE(int)     intcor
     20.18     -23.95       2.51        0.00     118.07       1.46       3.50       0.27       ----

> <Gold.Chemscore.Fitness>
20.1767

> <Gold.Chemscore.DG>
-23.9489

> <Gold.Chemscore.ZeroCoef>
-5.4800

> <Gold.Chemscore.Hbond>
2.5106

> <Gold.Chemscore.Metal>
0.0000

> <Gold.Chemscore.Lipo>
118.0688

> <Gold.Chemscore.Internal_Hbond>
0.0000

> <Gold.Chemscore.DEClash>
3.4988

> <Gold.Chemscore.DEInternal>
0.2734

> <Gold.Chemscore.Rot>
1.4572

> <Gold.Chemscore.Internal.Correction>
   9.000000E+99

> <Gold.Chemscore.Hbonds>
donor molecule, donor type, donor heavy atom, donor atom, acceptor molecule, acceptor atom, score
      L1  H    11    54       P1  8028  0.68
      L1  H    15    53       P1  7948  0.99
      P1  H  8011  8017       L1     1  0.06

> <Gold.Chemscore.Hbond.Weighted>
-8.3854

> <Gold.Chemscore.Metal.Weighted>
-0.0000

> <Gold.Chemscore.Lipo.Weighted>
-13.8140

> <Gold.Chemscore.Internal_Hbond.Weighted>
0.0000

> <Gold.Chemscore.DEClash.Weighted>
3.4988

> <Gold.Chemscore.DEInternal.Weighted>
0.2734

> <Gold.Chemscore.Rot.Weighted>
3.7305

> <Gold.Chemscore.Internal.Correction.Weighted>
   9.000000E+99

> <Gold.Protein.RotatedTorsions>
[ 6907 6896 6895 6894 ] final  -16.29 input  -60.11 | X-H torsion
[ 7974 7965 7964 7962 ] final   67.84 input  175.53 | X-H torsion
[ 8008 7997 7996 7995 ] final   45.02 input   59.86 | X-H torsion
[ 10167 10162 10161 10158 ] final -140.01 input  -65.29 | X-H torsion
[ 10718 10713 10712 10709 ] final   37.62 input   66.30 | X-H torsion
[ 10763 10752 10751 10750 ] final  154.27 input  -60.55 | X-H torsion
[ 11005 11000 10999 10996 ] final  -33.63 input  -57.11 | X-H torsion

> <Gold.Protein.ActiveResidues>
 VAL166  LYS551  ARG553  GLY616  TRP617  ASP618  TYR619  PRO620  LYS621  CYS622 
 ASP623  PHE694  ASN695  SER759  ASP760  ASP761  ALA762  ILE779  LEU786  VAL792 
 PHE793  MET794  SER795  GLU796  ALA797  LYS798  CYS799  TRP800  GLU811  SER814 

> <Gold.Protein.RotatedAtoms>
  151.3108  135.0794  159.9271 H   0  0  0  0  0  0  0  0  0  0  0  0  # atno 6907 bound_to 6896
  152.5278  133.9737  159.7784 H   0  0  0  0  0  0  0  0  0  0  0  0  # atno 6908 bound_to 6896
  151.0041  133.5976  159.2721 H   0  0  0  0  0  0  0  0  0  0  0  0  # atno 6909 bound_to 6896
  145.8097  139.3026  143.1106 H   0  0  0  0  0  0  0  0  0  0  0  0  # atno 7974 bound_to 7965
  155.3290  140.3401  155.4240 H   0  0  0  0  0  0  0  0  0  0  0  0  # atno 8008 bound_to 7997
  156.1871  140.1684  156.8201 H   0  0  0  0  0  0  0  0  0  0  0  0  # atno 8009 bound_to 7997
  154.5399  140.0727  156.8475 H   0  0  0  0  0  0  0  0  0  0  0  0  # atno 8010 bound_to 7997
  139.8323  143.7430  152.2665 H   0  0  0  0  0  0  0  0  0  0  0  0  # atno 10167 bound_to 10162
  157.3491  130.7588  149.6965 H   0  0  0  0  0  0  0  0  0  0  0  0  # atno 10718 bound_to 10713
  154.1497  135.2816  155.3139 H   0  0  0  0  0  0  0  0  0  0  0  0  # atno 10763 bound_to 10752
  154.6226  135.5462  153.7596 H   0  0  0  0  0  0  0  0  0  0  0  0  # atno 10764 bound_to 10752
  153.0225  135.6443  154.1641 H   0  0  0  0  0  0  0  0  0  0  0  0  # atno 10765 bound_to 10752
  140.9650  133.7142  156.1431 H   0  0  0  0  0  0  0  0  0  0  0  0  # atno 11005 bound_to 11000
  145.9790  140.8698  143.0124 LP  0  0  0  0  0  0  0  0  0  0  0  0  # atno 17320 bound_to 7965
  144.6759  140.2053  143.7383 LP  0  0  0  0  0  0  0  0  0  0  0  0  # atno 17321 bound_to 7965
  139.7642  144.7497  151.0320 LP  0  0  0  0  0  0  0  0  0  0  0  0  # atno 17342 bound_to 10162
  140.7805  143.4717  151.0137 LP  0  0  0  0  0  0  0  0  0  0  0  0  # atno 17343 bound_to 10162
  155.9719  130.4146  150.4139 LP  0  0  0  0  0  0  0  0  0  0  0  0  # atno 17370 bound_to 10713
  157.2199  131.0480  151.2552 LP  0  0  0  0  0  0  0  0  0  0  0  0  # atno 17371 bound_to 10713
  140.7412  134.4148  157.5554 LP  0  0  0  0  0  0  0  0  0  0  0  0  # atno 17394 bound_to 11000
  139.8891  134.8838  156.2437 LP  0  0  0  0  0  0  0  0  0  0  0  0  # atno 17395 bound_to 11000

$$$$
