AV-unprocessed.smi:1425|AV-procd|sdf|5804|dock5
  -GOLD-   22720 5453D 1   1.00000     0.00000
 Structure written by MMmdl.
 36 37  0  0  0  0  0  0  0  0  1 V2000
  147.6879  133.1505  152.4585 C   0  0  0  0  0  0  0  0  0  0  0  0
  146.4107  133.1952  151.6353 C   0  0  0  0  0  0  0  0  0  0  0  0
  145.7879  131.9854  151.2616 C   0  0  0  0  0  0  0  0  0  0  0  0
  144.6076  132.0282  150.5001 C   0  0  0  0  0  0  0  0  0  0  0  0
  144.0969  133.2876  150.1419 C   0  0  0  0  0  0  0  0  0  0  0  0
  144.6855  134.4487  150.4949 N   0  0  0  0  0  0  0  0  0  0  0  0
  145.8257  134.4249  151.2301 C   0  0  0  0  0  0  0  0  0  0  0  0
  146.5058  135.6084  151.6338 N   0  0  0  0  0  0  0  0  0  0  0  0
  145.9841  136.7626  152.0854 C   0  0  0  0  0  0  0  0  0  0  0  0
  144.7859  136.9834  152.2627 O   0  0  0  0  0  0  0  0  0  0  0  0
  146.9473  137.6633  152.3298 N   0  0  0  0  0  0  0  0  0  0  0  0
  146.7357  139.0215  152.8217 C   0  0  0  0  0  0  0  0  0  0  0  0
  148.0533  139.6815  153.2701 C   0  0  1  0  0  0  0  0  0  0  0  0
  147.8341  141.0998  153.8320 C   0  0  0  0  0  0  0  0  0  0  0  0
  149.1355  141.5752  154.4853 C   0  0  0  0  0  0  0  0  0  0  0  0
  149.9004  140.0755  155.2054 S   0  0  0  0  0  0  0  0  0  0  0  0
  151.2798  139.9571  154.7089 O   0  0  0  0  0  0  0  0  0  0  0  0
  149.6062  140.0179  156.6451 O   0  0  0  0  0  0  0  0  0  0  0  0
  148.8257  138.8757  154.3296 C   0  0  0  0  0  0  0  0  0  0  0  0
  147.9831  132.1243  152.6787 H   0  0  0  0  0  0  0  0  0  0  0  0
  147.5493  133.6700  153.4073 H   0  0  0  0  0  0  0  0  0  0  0  0
  148.5072  133.6260  151.9185 H   0  0  0  0  0  0  0  0  0  0  0  0
  146.2077  131.0336  151.5529 H   0  0  0  0  0  0  0  0  0  0  0  0
  144.1075  131.1201  150.1981 H   0  0  0  0  0  0  0  0  0  0  0  0
  143.1928  133.3656  149.5565 H   0  0  0  0  0  0  0  0  0  0  0  0
  147.5111  135.5744  151.5550 H   0  0  0  0  0  0  0  0  0  0  0  0
  147.9037  137.3906  152.1566 H   0  0  0  0  0  0  0  0  0  0  0  0
  146.2969  139.5996  152.0080 H   0  0  0  0  0  0  0  0  0  0  0  0
  146.0037  139.0372  153.6313 H   0  0  0  0  0  0  0  0  0  0  0  0
  148.7017  139.7806  152.3982 H   0  0  0  0  0  0  0  0  0  0  0  0
  147.5012  141.7939  153.0598 H   0  0  0  0  0  0  0  0  0  0  0  0
  147.0509  141.0679  154.5905 H   0  0  0  0  0  0  0  0  0  0  0  0
  149.8198  141.9776  153.7380 H   0  0  0  0  0  0  0  0  0  0  0  0
  148.9777  142.3282  155.2575 H   0  0  0  0  0  0  0  0  0  0  0  0
  148.1464  138.4425  155.0645 H   0  0  0  0  0  0  0  0  0  0  0  0
  149.4280  138.0740  153.9020 H   0  0  0  0  0  0  0  0  0  0  0  0
  1  2  1  0  0  0  0
  1 20  1  0  0  0  0
  1 21  1  0  0  0  0
  1 22  1  0  0  0  0
  2  7  1  0  0  0  0
  2  3  2  0  0  0  0
  3  4  1  0  0  0  0
  3 23  1  0  0  0  0
  4  5  2  0  0  0  0
  4 24  1  0  0  0  0
  5  6  1  0  0  0  0
  5 25  1  0  0  0  0
  6  7  2  0  0  0  0
  7  8  1  0  0  0  0
  8  9  1  0  0  0  0
  8 26  1  0  0  0  0
  9 10  2  0  0  0  0
  9 11  1  0  0  0  0
 11 12  1  0  0  0  0
 11 27  1  0  0  0  0
 12 13  1  0  0  0  0
 12 28  1  0  0  0  0
 12 29  1  0  0  0  0
 13 19  1  0  0  0  0
 13 14  1  0  0  0  0
 13 30  1  0  0  0  0
 14 15  1  0  0  0  0
 14 31  1  0  0  0  0
 14 32  1  0  0  0  0
 15 16  1  0  0  0  0
 15 33  1  0  0  0  0
 15 34  1  0  0  0  0
 16 17  2  0  0  0  0
 16 18  2  0  0  0  0
 16 19  1  0  0  0  0
 19 35  1  0  0  0  0
 19 36  1  0  0  0  0
M  END
> <s_m_source_file>
AV-unprocessed.smi

> <i_m_source_file_index>
1425

> <i_lp_mmshare_version>
43012

> <i_f3d_flags>
0

> <s_epik_input>
W0NIM11jMVtjSF1bY0hdW2NIXW5jMVtOSF1DKD1PKVtOSF1bQ0gyXVtDQEBIXShbQ0gyXTIpW0NIMl1bQ0gyXVMyKD1PKT1P

> <s_epik_cmdline>
J2VwaWtfcHl0aG9uJywgJy1waCcsICc3LjAnLCAnLXRuJywgJzgnLCAnLW1hJywgJzIwMCcsICctbWV0YWxfYmluZGluZycsICctaW1hZScsICc8aW5maWxlLm1hZT4nLCAnLW9tYWUnLCAnPG91dGZpbGUubWFlPic=

> <r_lp_tautomer_probability>
1

> <r_epik_Ionization_Penalty>
5.46275e-05

> <r_epik_Ionization_Penalty_Charging>
0

> <r_epik_Ionization_Penalty_Neutral>
5.46275e-05

> <r_epik_State_Penalty>
-0

> <r_epik_Charging_Adjusted_Penalty>
0

> <i_epik_Tot_Q>
0

> <i_epik_Tot_abs_Q>
0

> <r_epik_Metal_State_Penalty>
-0

> <b_epik_Metal_Only>
0

> <s_lp_Force_Field>
OPLS_2005

> <r_lp_Energy>
7.35863

> <b_lp_Chiralities_Consistent>
1

> <s_lp_Variant>
AV-unprocessed.smi:1425-2

> <Gold.Version>
5.8.1

> <Gold.Id.Protein>
6NUR|6NUR_protein|mol2

> <Gold.PLP.Fitness>
44.4021

> <Gold.PLP.PLP>
-33.2021

> <Gold.PLP.part.hbond>
-2.7828

> <Gold.PLP.part.metal>
0.0000

> <Gold.PLP.part.buried>
-1.4897

> <Gold.PLP.part.nonpolar>
-30.3047

> <Gold.PLP.part.repulsive>
0.9507

> <Gold.PLP.ligand.clash>
0.0000

> <Gold.PLP.ligand.torsion>
0.3932

> <Gold.PLP.Chemscore.Hbond>
2.9920

> <Gold.PLP.Chemscore.CHOScore>
1.0000

> <Gold.PLP.Chemscore.Metal>
0.0000

> <Gold.Chemscore.Hbonds>
donor molecule, donor type, donor heavy atom, donor atom, acceptor molecule, acceptor atom, score
      L1  H     8    26       P1  7948  1.00
      L1  H    11    27       P1  7948  0.99
      P1  H  7989  7998       L1    17  1.00
      L1  C     5    25       P1 10186  1.00

> <Gold.PLP.Chemscore.Internal.Correction>
0.0103

> <Gold.Rescore>
     Score         DG    S(hbond)    S(metal)    S(lipo)     H(rot)  DE(clash)    DE(int)     intcor
     19.89     -20.34       2.93        0.00      71.60       1.29       0.04       0.42       ----

> <Gold.Chemscore.Fitness>
19.8891

> <Gold.Chemscore.DG>
-20.3449

> <Gold.Chemscore.ZeroCoef>
-5.4800

> <Gold.Chemscore.Hbond>
2.9340

> <Gold.Chemscore.Metal>
0.0000

> <Gold.Chemscore.Lipo>
71.6024

> <Gold.Chemscore.Internal_Hbond>
0.0000

> <Gold.Chemscore.DEClash>
0.0393

> <Gold.Chemscore.DEInternal>
0.4165

> <Gold.Chemscore.Rot>
1.2939

> <Gold.Chemscore.Internal.Correction>
   9.000000E+99

> <Gold.Chemscore.Hbonds>
donor molecule, donor type, donor heavy atom, donor atom, acceptor molecule, acceptor atom, score
      L1  H     8    26       P1  7948  0.89
      L1  H    11    27       P1  7948  0.90
      P1  H  7989  7998       L1    17  0.88

> <Gold.Chemscore.Hbond.Weighted>
-9.7997

> <Gold.Chemscore.Metal.Weighted>
-0.0000

> <Gold.Chemscore.Lipo.Weighted>
-8.3775

> <Gold.Chemscore.Internal_Hbond.Weighted>
0.0000

> <Gold.Chemscore.DEClash.Weighted>
0.0393

> <Gold.Chemscore.DEInternal.Weighted>
0.4165

> <Gold.Chemscore.Rot.Weighted>
3.3123

> <Gold.Chemscore.Internal.Correction.Weighted>
   9.000000E+99

> <Gold.Protein.RotatedTorsions>
[ 6907 6896 6895 6894 ] final  -55.15 input  -60.11 | X-H torsion
[ 7974 7965 7964 7962 ] final  -37.21 input  175.53 | X-H torsion
[ 8008 7997 7996 7995 ] final  -17.57 input   59.86 | X-H torsion
[ 10167 10162 10161 10158 ] final  -23.70 input  -65.29 | X-H torsion
[ 10718 10713 10712 10709 ] final  125.00 input   66.30 | X-H torsion
[ 10763 10752 10751 10750 ] final  -75.26 input  -60.55 | X-H torsion
[ 11005 11000 10999 10996 ] final   63.70 input  -57.11 | X-H torsion

> <Gold.Protein.ActiveResidues>
 VAL166  LYS551  ARG553  GLY616  TRP617  ASP618  TYR619  PRO620  LYS621  CYS622 
 ASP623  PHE694  ASN695  SER759  ASP760  ASP761  ALA762  ILE779  LEU786  VAL792 
 PHE793  MET794  SER795  GLU796  ALA797  LYS798  CYS799  TRP800  GLU811  SER814 

> <Gold.Protein.RotatedAtoms>
  150.8276  134.7515  159.6826 H   0  0  0  0  0  0  0  0  0  0  0  0  # atno 6907 bound_to 6896
  152.4385  134.5635  159.9910 H   0  0  0  0  0  0  0  0  0  0  0  0  # atno 6908 bound_to 6896
  151.5803  133.3341  159.3043 H   0  0  0  0  0  0  0  0  0  0  0  0  # atno 6909 bound_to 6896
  146.0594  140.6370  142.9004 H   0  0  0  0  0  0  0  0  0  0  0  0  # atno 7974 bound_to 7965
  154.4969  140.2139  155.9429 H   0  0  0  0  0  0  0  0  0  0  0  0  # atno 8008 bound_to 7997
  156.1382  140.3184  155.8421 H   0  0  0  0  0  0  0  0  0  0  0  0  # atno 8009 bound_to 7997
  155.4170  140.0494  157.3019 H   0  0  0  0  0  0  0  0  0  0  0  0  # atno 8010 bound_to 7997
  140.7288  143.4420  151.0643 H   0  0  0  0  0  0  0  0  0  0  0  0  # atno 10167 bound_to 10162
  157.5539  131.1093  150.8656 H   0  0  0  0  0  0  0  0  0  0  0  0  # atno 10718 bound_to 10713
  154.4842  135.5837  153.6411 H   0  0  0  0  0  0  0  0  0  0  0  0  # atno 10763 bound_to 10752
  152.9852  135.6097  154.3208 H   0  0  0  0  0  0  0  0  0  0  0  0  # atno 10764 bound_to 10752
  154.3102  135.2845  155.2549 H   0  0  0  0  0  0  0  0  0  0  0  0  # atno 10765 bound_to 10752
  140.0007  134.6447  155.9936 H   0  0  0  0  0  0  0  0  0  0  0  0  # atno 11005 bound_to 11000
  144.7166  140.4232  143.7039 LP  0  0  0  0  0  0  0  0  0  0  0  0  # atno 17320 bound_to 7965
  145.6586  139.1577  143.2821 LP  0  0  0  0  0  0  0  0  0  0  0  0  # atno 17321 bound_to 7965
  139.8088  143.7980  152.3169 LP  0  0  0  0  0  0  0  0  0  0  0  0  # atno 17342 bound_to 10162
  139.8023  144.7369  150.9809 LP  0  0  0  0  0  0  0  0  0  0  0  0  # atno 17343 bound_to 10162
  156.9173  130.5302  149.5279 LP  0  0  0  0  0  0  0  0  0  0  0  0  # atno 17370 bound_to 10713
  156.0601  130.5655  150.9174 LP  0  0  0  0  0  0  0  0  0  0  0  0  # atno 17371 bound_to 10713
  141.1639  133.6537  156.4414 LP  0  0  0  0  0  0  0  0  0  0  0  0  # atno 17394 bound_to 11000
  140.4733  134.6732  157.5139 LP  0  0  0  0  0  0  0  0  0  0  0  0  # atno 17395 bound_to 11000

$$$$
