AV-unprocessed.smi:479|AV-procd|sdf|2675|dock7
  -GOLD-   2262023 93D 1   1.00000     0.00000
 Structure written by MMmdl.
 46 48  0  0  0  0  0  0  0  0  2 V2000
  147.5245  137.3881  163.0997 C   0  0  0  0  0  0  0  0  0  0  0  0
  148.1641  137.6844  161.8668 O   0  0  0  0  0  0  0  0  0  0  0  0
  148.1589  136.7248  160.8747 C   0  0  0  0  0  0  0  0  0  0  0  0
  147.4325  135.5093  160.9598 C   0  0  0  0  0  0  0  0  0  0  0  0
  147.4691  134.5637  159.9087 C   0  0  0  0  0  0  0  0  0  0  0  0
  146.7120  133.2805  159.9752 C   0  0  0  0  0  0  0  0  0  0  0  0
  146.7430  132.3661  158.7514 C   0  0  0  0  0  0  0  0  0  0  0  0
  146.0693  132.9227  160.9618 O   0  0  0  0  0  0  0  0  0  0  0  0
  148.2479  134.8468  158.7669 C   0  0  0  0  0  0  0  0  0  0  0  0
  148.9698  136.0495  158.6724 C   0  0  0  0  0  0  0  0  0  0  0  0
  148.9277  136.9989  159.7219 C   0  0  0  0  0  0  0  0  0  0  0  0
  149.6037  138.2008  159.6938 O   0  0  0  0  0  0  0  0  0  0  0  0
  150.6006  138.3982  158.7004 C   0  0  0  0  0  0  0  0  0  0  0  0
  151.7749  139.1621  159.3293 C   0  0  1  0  0  0  0  0  0  0  0  0
  152.6199  138.2322  159.9777 O   0  0  0  0  0  0  0  0  0  0  0  0
  152.5738  139.9652  158.2834 C   0  0  0  0  0  0  0  0  0  0  0  0
  151.9695  141.2700  157.9807 N   0  0  0  0  0  0  0  0  0  0  0  0
  151.1503  141.6274  156.9551 C   0  0  0  0  0  0  0  0  0  0  0  0
  150.8624  142.9505  157.0997 N   0  3  0  0  0  0  0  0  0  0  0  0
  151.5060  143.4462  158.2355 C   0  0  0  0  0  0  0  0  0  0  0  0
  151.5186  144.7222  158.7909 C   0  0  0  0  0  0  0  0  0  0  0  0
  152.2806  144.8941  159.9654 C   0  0  0  0  0  0  0  0  0  0  0  0
  152.9905  143.8217  160.5437 C   0  0  0  0  0  0  0  0  0  0  0  0
  152.9712  142.5326  159.9718 C   0  0  0  0  0  0  0  0  0  0  0  0
  152.2179  142.3711  158.8089 C   0  0  0  0  0  0  0  0  0  0  0  0
  147.6332  138.2375  163.7738 H   0  0  0  0  0  0  0  0  0  0  0  0
  147.9759  136.5226  163.5869 H   0  0  0  0  0  0  0  0  0  0  0  0
  146.4571  137.2117  162.9614 H   0  0  0  0  0  0  0  0  0  0  0  0
  146.8416  135.2985  161.8368 H   0  0  0  0  0  0  0  0  0  0  0  0
  147.7667  132.0723  158.5191 H   0  0  0  0  0  0  0  0  0  0  0  0
  146.3161  132.8718  157.8852 H   0  0  0  0  0  0  0  0  0  0  0  0
  146.1634  131.4614  158.9366 H   0  0  0  0  0  0  0  0  0  0  0  0
  148.3004  134.1443  157.9475 H   0  0  0  0  0  0  0  0  0  0  0  0
  149.5512  136.2187  157.7791 H   0  0  0  0  0  0  0  0  0  0  0  0
  150.9407  137.4279  158.3344 H   0  0  0  0  0  0  0  0  0  0  0  0
  150.2036  138.9614  157.8540 H   0  0  0  0  0  0  0  0  0  0  0  0
  151.3904  139.8406  160.0919 H   0  0  0  0  0  0  0  0  0  0  0  0
  152.9915  137.6584  159.3250 H   0  0  0  0  0  0  0  0  0  0  0  0
  153.6078  140.1086  158.5975 H   0  0  0  0  0  0  0  0  0  0  0  0
  152.6170  139.4120  157.3445 H   0  0  0  0  0  0  0  0  0  0  0  0
  150.7954  140.9786  156.1673 H   0  0  0  0  0  0  0  0  0  0  0  0
  150.9742  145.5447  158.3508 H   0  0  0  0  0  0  0  0  0  0  0  0
  152.3201  145.8673  160.4330 H   0  0  0  0  0  0  0  0  0  0  0  0
  153.5613  143.9905  161.4455 H   0  0  0  0  0  0  0  0  0  0  0  0
  153.5142  141.7178  160.4268 H   0  0  0  0  0  0  0  0  0  0  0  0
  150.2708  143.4742  156.4675 H   0  0  0  0  0  0  0  0  0  0  0  0
  1  2  1  0  0  0  0
  1 26  1  0  0  0  0
  1 27  1  0  0  0  0
  1 28  1  0  0  0  0
  2  3  1  0  0  0  0
  3 11  1  0  0  0  0
  3  4  2  0  0  0  0
  4  5  1  0  0  0  0
  4 29  1  0  0  0  0
  5  6  1  0  0  0  0
  5  9  2  0  0  0  0
  6  7  1  0  0  0  0
  6  8  2  0  0  0  0
  7 30  1  0  0  0  0
  7 31  1  0  0  0  0
  7 32  1  0  0  0  0
  9 10  1  0  0  0  0
  9 33  1  0  0  0  0
 10 11  2  0  0  0  0
 10 34  1  0  0  0  0
 11 12  1  0  0  0  0
 12 13  1  0  0  0  0
 13 14  1  0  0  0  0
 13 35  1  0  0  0  0
 13 36  1  0  0  0  0
 14 15  1  0  0  0  0
 14 16  1  0  0  0  0
 14 37  1  0  0  0  0
 15 38  1  0  0  0  0
 16 17  1  0  0  0  0
 16 39  1  0  0  0  0
 16 40  1  0  0  0  0
 17 25  1  0  0  0  0
 17 18  1  0  0  0  0
 18 19  2  0  0  0  0
 18 41  1  0  0  0  0
 19 20  1  0  0  0  0
 19 46  1  0  0  0  0
 20 25  2  0  0  0  0
 20 21  1  0  0  0  0
 21 22  2  0  0  0  0
 21 42  1  0  0  0  0
 22 23  1  0  0  0  0
 22 43  1  0  0  0  0
 23 24  2  0  0  0  0
 23 44  1  0  0  0  0
 24 25  1  0  0  0  0
 24 45  1  0  0  0  0
M  CHG  1  19   1
M  END
> <s_m_source_file>
AV-unprocessed.smi

> <i_m_source_file_index>
479

> <i_lp_mmshare_version>
43012

> <i_f3d_flags>
0

> <s_epik_input>
W0NIM11PYzFbY0hdYyhDKD1PKVtDSDNdKVtjSF1bY0hdYzFPW0NIMl1bQ0BIXShbT0hdKVtDSDJdbihbY0hdbjIpYyhjMjMpW2NIXVtjSF1bY0hdW2NIXTM=

> <s_epik_cmdline>
J2VwaWtfcHl0aG9uJywgJy1waCcsICc3LjAnLCAnLXRuJywgJzgnLCAnLW1hJywgJzIwMCcsICctbWV0YWxfYmluZGluZycsICctaW1hZScsICc8aW5maWxlLm1hZT4nLCAnLW9tYWUnLCAnPG91dGZpbGUubWFlPic=

> <r_lp_tautomer_probability>
0.99995

> <r_epik_Ionization_Penalty>
1.37698

> <r_epik_Ionization_Penalty_Charging>
1.37698

> <r_epik_Ionization_Penalty_Neutral>
2.3993e-06

> <r_epik_State_Penalty>
1.45717

> <r_epik_Charging_Adjusted_Penalty>
2.83415

> <i_epik_Tot_Q>
1

> <i_epik_Tot_abs_Q>
1

> <r_epik_Metal_State_Penalty>
5.49703

> <b_epik_Metal_Only>
0

> <s_lp_Force_Field>
OPLS_2005

> <r_lp_Energy>
29.5876

> <b_lp_Chiralities_Consistent>
1

> <s_lp_Variant>
AV-unprocessed.smi:479-4

> <Gold.Version>
5.8.1

> <Gold.Id.Protein>
6NUR|6NUR_protein|mol2

> <Gold.PLP.Fitness>
52.7040

> <Gold.PLP.PLP>
-44.1364

> <Gold.PLP.part.hbond>
-4.0122

> <Gold.PLP.part.metal>
0.0000

> <Gold.PLP.part.buried>
-5.6579

> <Gold.PLP.part.nonpolar>
-34.3902

> <Gold.PLP.part.repulsive>
0.0054

> <Gold.PLP.ligand.clash>
0.0000

> <Gold.PLP.ligand.torsion>
1.3211

> <Gold.PLP.Chemscore.Hbond>
3.6880

> <Gold.PLP.Chemscore.CHOScore>
0.0000

> <Gold.PLP.Chemscore.Metal>
0.0000

> <Gold.Chemscore.Hbonds>
donor molecule, donor type, donor heavy atom, donor atom, acceptor molecule, acceptor atom, score
      L1  H    19    46       P1  8028  2.00
      P1  H  6934  6947       L1     2  0.32

> <Gold.PLP.Chemscore.Internal.Correction>
0.1458

> <Gold.Rescore>
     Score         DG    S(hbond)    S(metal)    S(lipo)     H(rot)  DE(clash)    DE(int)     intcor
     17.48     -18.85       2.08        0.00     115.11       2.75       0.15       1.23       ----

> <Gold.Chemscore.Fitness>
17.4810

> <Gold.Chemscore.DG>
-18.8539

> <Gold.Chemscore.ZeroCoef>
-5.4800

> <Gold.Chemscore.Hbond>
2.0787

> <Gold.Chemscore.Metal>
0.0000

> <Gold.Chemscore.Lipo>
115.1105

> <Gold.Chemscore.Internal_Hbond>
0.0000

> <Gold.Chemscore.DEClash>
0.1466

> <Gold.Chemscore.DEInternal>
1.2264

> <Gold.Chemscore.Rot>
2.7487

> <Gold.Chemscore.Internal.Correction>
   9.000000E+99

> <Gold.Chemscore.Hbonds>
donor molecule, donor type, donor heavy atom, donor atom, acceptor molecule, acceptor atom, score
      L1  H    19    46       P1  8028  0.94
      P1  H  6934  6947       L1     2  0.05

> <Gold.Chemscore.Hbond.Weighted>
-6.9427

> <Gold.Chemscore.Metal.Weighted>
-0.0000

> <Gold.Chemscore.Lipo.Weighted>
-13.4679

> <Gold.Chemscore.Internal_Hbond.Weighted>
0.0000

> <Gold.Chemscore.DEClash.Weighted>
0.1466

> <Gold.Chemscore.DEInternal.Weighted>
1.2264

> <Gold.Chemscore.Rot.Weighted>
7.0368

> <Gold.Chemscore.Internal.Correction.Weighted>
   9.000000E+99

> <Gold.Protein.RotatedTorsions>
[ 6907 6896 6895 6894 ] final  -18.20 input  -60.11 | X-H torsion
[ 7974 7965 7964 7962 ] final  144.67 input  175.53 | X-H torsion
[ 8008 7997 7996 7995 ] final  120.77 input   59.86 | X-H torsion
[ 10167 10162 10161 10158 ] final   82.33 input  -65.29 | X-H torsion
[ 10718 10713 10712 10709 ] final   26.75 input   66.30 | X-H torsion
[ 10763 10752 10751 10750 ] final  -65.64 input  -60.55 | X-H torsion
[ 11005 11000 10999 10996 ] final   25.51 input  -57.11 | X-H torsion

> <Gold.Protein.ActiveResidues>
 VAL166  LYS551  ARG553  GLY616  TRP617  ASP618  TYR619  PRO620  LYS621  CYS622 
 ASP623  PHE694  ASN695  SER759  ASP760  ASP761  ALA762  ILE779  LEU786  VAL792 
 PHE793  MET794  SER795  GLU796  ALA797  LYS798  CYS799  TRP800  GLU811  SER814 

> <Gold.Protein.RotatedAtoms>
  151.2817  135.0716  159.9171 H   0  0  0  0  0  0  0  0  0  0  0  0  # atno 6907 bound_to 6896
  152.5333  134.0024  159.7911 H   0  0  0  0  0  0  0  0  0  0  0  0  # atno 6908 bound_to 6896
  151.0279  133.5766  159.2695 H   0  0  0  0  0  0  0  0  0  0  0  0  # atno 6909 bound_to 6896
  144.8816  139.5690  143.5840 H   0  0  0  0  0  0  0  0  0  0  0  0  # atno 7974 bound_to 7965
  156.2657  140.2823  156.1202 H   0  0  0  0  0  0  0  0  0  0  0  0  # atno 8008 bound_to 7997
  155.1163  140.0391  157.2755 H   0  0  0  0  0  0  0  0  0  0  0  0  # atno 8009 bound_to 7997
  154.6704  140.2586  155.7019 H   0  0  0  0  0  0  0  0  0  0  0  0  # atno 8010 bound_to 7997
  139.9300  144.6158  150.8355 H   0  0  0  0  0  0  0  0  0  0  0  0  # atno 10167 bound_to 10162
  157.2110  130.6934  149.6228 H   0  0  0  0  0  0  0  0  0  0  0  0  # atno 10718 bound_to 10713
  154.3480  135.6142  153.5629 H   0  0  0  0  0  0  0  0  0  0  0  0  # atno 10763 bound_to 10752
  152.9800  135.5785  154.4776 H   0  0  0  0  0  0  0  0  0  0  0  0  # atno 10764 bound_to 10752
  154.4492  135.2852  155.1770 H   0  0  0  0  0  0  0  0  0  0  0  0  # atno 10765 bound_to 10752
  140.3470  134.2270  155.7684 H   0  0  0  0  0  0  0  0  0  0  0  0  # atno 11005 bound_to 11000
  146.2998  139.7391  142.9099 LP  0  0  0  0  0  0  0  0  0  0  0  0  # atno 17320 bound_to 7965
  145.3943  141.0377  143.3106 LP  0  0  0  0  0  0  0  0  0  0  0  0  # atno 17321 bound_to 7965
  140.7640  143.3237  151.2564 LP  0  0  0  0  0  0  0  0  0  0  0  0  # atno 17342 bound_to 10162
  139.6790  143.9887  152.2798 LP  0  0  0  0  0  0  0  0  0  0  0  0  # atno 17343 bound_to 10162
  155.9690  130.4551  150.5875 LP  0  0  0  0  0  0  0  0  0  0  0  0  # atno 17370 bound_to 10713
  157.3672  131.0759  151.1588 LP  0  0  0  0  0  0  0  0  0  0  0  0  # atno 17371 bound_to 10713
  141.2023  133.7942  157.0399 LP  0  0  0  0  0  0  0  0  0  0  0  0  # atno 17394 bound_to 11000
  140.0734  134.9689  157.1505 LP  0  0  0  0  0  0  0  0  0  0  0  0  # atno 17395 bound_to 11000

$$$$
