AV-unprocessed.smi:709|AV-procd|sdf|3458|dock6
  -GOLD-   22720 0443D 1   1.00000     0.00000
 Structure written by MMmdl.
 48 50  0  0  0  0  0  0  0  0  1 V2000
  146.9572  141.9905  154.5965 C   0  0  0  0  0  0  0  0  0  0  0  0
  148.4083  142.0473  154.1153 C   0  0  0  0  0  0  0  0  0  0  0  0
  149.1647  141.0758  154.8182 O   0  0  0  0  0  0  0  0  0  0  0  0
  148.7852  139.7458  154.5005 C   0  0  2  0  0  0  0  0  0  0  0  0
  147.7016  139.2077  155.4367 C   0  0  0  0  0  0  0  0  0  0  0  0
  148.4330  137.8620  155.3910 C   0  0  1  0  0  0  0  0  0  0  0  0
  147.9257  137.0249  154.3017 N   0  0  0  0  0  0  0  0  0  0  0  0
  146.6724  136.5595  154.2166 C   0  0  0  0  0  0  0  0  0  0  0  0
  145.8059  136.8003  155.0567 O   0  0  0  0  0  0  0  0  0  0  0  0
  146.5105  135.8192  153.1046 N   0  0  0  0  0  0  0  0  0  0  0  0
  145.3786  135.1130  152.6617 C   0  0  0  0  0  0  0  0  0  0  0  0
  144.1069  135.3668  153.0616 C   0  0  0  0  0  0  0  0  0  0  0  0
  143.0026  134.5815  152.5652 C   0  0  0  0  0  0  0  0  0  0  0  0
  143.2634  133.5874  151.7051 C   0  0  0  0  0  0  0  0  0  0  0  0
  144.5733  133.3008  151.2847 N   0  0  0  0  0  0  0  0  0  0  0  0
  144.7562  132.1926  150.3437 C   0  0  0  0  0  0  0  0  0  0  0  0
  145.6566  134.0096  151.7217 C   0  0  0  0  0  0  0  0  0  0  0  0
  146.7968  133.7309  151.3419 O   0  0  0  0  0  0  0  0  0  0  0  0
  149.7320  138.6369  155.0337 C   0  0  0  0  0  0  0  0  0  0  0  0
  150.6361  138.9961  156.2164 C   0  0  0  0  0  0  0  0  0  0  0  0
  151.9983  139.3872  155.6447 C   0  0  0  0  0  0  0  0  0  0  0  0
  152.1104  138.6438  154.3122 C   0  0  0  0  0  0  0  0  0  0  0  0
  150.7328  138.0234  154.0494 C   0  0  0  0  0  0  0  0  0  0  0  0
  146.3440  142.7238  154.0724 H   0  0  0  0  0  0  0  0  0  0  0  0
  146.8921  142.2016  155.6641 H   0  0  0  0  0  0  0  0  0  0  0  0
  146.5244  141.0053  154.4214 H   0  0  0  0  0  0  0  0  0  0  0  0
  148.4557  141.8494  153.0436 H   0  0  0  0  0  0  0  0  0  0  0  0
  148.8140  143.0450  154.2807 H   0  0  0  0  0  0  0  0  0  0  0  0
  148.4987  139.6106  153.4546 H   0  0  0  0  0  0  0  0  0  0  0  0
  147.7248  139.6673  156.4263 H   0  0  0  0  0  0  0  0  0  0  0  0
  146.6940  139.2093  155.0195 H   0  0  0  0  0  0  0  0  0  0  0  0
  148.4626  137.3634  156.3614 H   0  0  0  0  0  0  0  0  0  0  0  0
  148.5761  136.7857  153.5677 H   0  0  0  0  0  0  0  0  0  0  0  0
  147.3002  135.7771  152.4767 H   0  0  0  0  0  0  0  0  0  0  0  0
  143.8774  136.1448  153.7714 H   0  0  0  0  0  0  0  0  0  0  0  0
  141.9906  134.7905  152.8796 H   0  0  0  0  0  0  0  0  0  0  0  0
  142.4924  132.9551  151.2893 H   0  0  0  0  0  0  0  0  0  0  0  0
  145.3882  131.4191  150.7823 H   0  0  0  0  0  0  0  0  0  0  0  0
  145.2330  132.5423  149.4270 H   0  0  0  0  0  0  0  0  0  0  0  0
  143.8150  131.7212  150.0593 H   0  0  0  0  0  0  0  0  0  0  0  0
  150.2252  139.7904  156.8404 H   0  0  0  0  0  0  0  0  0  0  0  0
  150.7592  138.1263  156.8631 H   0  0  0  0  0  0  0  0  0  0  0  0
  152.0322  140.4632  155.4718 H   0  0  0  0  0  0  0  0  0  0  0  0
  152.8130  139.1412  156.3262 H   0  0  0  0  0  0  0  0  0  0  0  0
  152.3916  139.3310  153.5137 H   0  0  0  0  0  0  0  0  0  0  0  0
  152.8763  137.8689  154.3566 H   0  0  0  0  0  0  0  0  0  0  0  0
  150.8018  136.9465  154.2065 H   0  0  0  0  0  0  0  0  0  0  0  0
  150.4299  138.1679  153.0120 H   0  0  0  0  0  0  0  0  0  0  0  0
  1  2  1  0  0  0  0
  1 24  1  0  0  0  0
  1 25  1  0  0  0  0
  1 26  1  0  0  0  0
  2  3  1  0  0  0  0
  2 27  1  0  0  0  0
  2 28  1  0  0  0  0
  3  4  1  0  0  0  0
  4 19  1  0  0  0  0
  4  5  1  0  0  0  0
  4 29  1  0  0  0  0
  5  6  1  0  0  0  0
  5 30  1  0  0  0  0
  5 31  1  0  0  0  0
  6  7  1  0  0  0  0
  6 19  1  0  0  0  0
  6 32  1  0  0  0  0
  7  8  1  0  0  0  0
  7 33  1  0  0  0  0
  8  9  2  0  0  0  0
  8 10  1  0  0  0  0
 10 11  1  0  0  0  0
 10 34  1  0  0  0  0
 11 17  1  0  0  0  0
 11 12  2  0  0  0  0
 12 13  1  0  0  0  0
 12 35  1  0  0  0  0
 13 14  2  0  0  0  0
 13 36  1  0  0  0  0
 14 15  1  0  0  0  0
 14 37  1  0  0  0  0
 15 16  1  0  0  0  0
 15 17  1  0  0  0  0
 16 38  1  0  0  0  0
 16 39  1  0  0  0  0
 16 40  1  0  0  0  0
 17 18  2  0  0  0  0
 19 23  1  0  0  0  0
 19 20  1  0  0  0  0
 20 21  1  0  0  0  0
 20 41  1  0  0  0  0
 20 42  1  0  0  0  0
 21 22  1  0  0  0  0
 21 43  1  0  0  0  0
 21 44  1  0  0  0  0
 22 23  1  0  0  0  0
 22 45  1  0  0  0  0
 22 46  1  0  0  0  0
 23 47  1  0  0  0  0
 23 48  1  0  0  0  0
M  END
> <s_m_source_file>
AV-unprocessed.smi

> <i_m_source_file_index>
709

> <i_lp_mmshare_version>
43012

> <i_f3d_flags>
0

> <s_epik_input>
W0NIMl0xW0NIMl1bQ0gyXVtDSDJdQzEyW0NASF0oT1tDSDJdW0NIM10pW0NIMl1bQ0BIXTJbTkhdQyg9TylbTkhdYzNbY0hdW2NIXVtjSF1uKFtDSDNdKWMzPU8=

> <s_epik_cmdline>
J2VwaWtfcHl0aG9uJywgJy1waCcsICc3LjAnLCAnLXRuJywgJzgnLCAnLW1hJywgJzIwMCcsICctbWV0YWxfYmluZGluZycsICctaW1hZScsICc8aW5maWxlLm1hZT4nLCAnLW9tYWUnLCAnPG91dGZpbGUubWFlPic=

> <r_lp_tautomer_probability>
1

> <r_epik_Ionization_Penalty>
2.50859e-05

> <r_epik_Ionization_Penalty_Charging>
5.10493e-06

> <r_epik_Ionization_Penalty_Neutral>
1.9981e-05

> <r_epik_State_Penalty>
-0

> <r_epik_Charging_Adjusted_Penalty>
5.10493e-06

> <i_epik_Tot_Q>
0

> <i_epik_Tot_abs_Q>
0

> <r_epik_Metal_State_Penalty>
-0

> <b_epik_Metal_Only>
0

> <s_lp_Force_Field>
OPLS_2005

> <r_lp_Energy>
50.6908

> <b_lp_Chiralities_Consistent>
1

> <s_lp_Variant>
AV-unprocessed.smi:709-1

> <Gold.Version>
5.8.1

> <Gold.Id.Protein>
6NUR|6NUR_protein|mol2

> <Gold.PLP.Fitness>
40.0240

> <Gold.PLP.PLP>
-32.8025

> <Gold.PLP.part.hbond>
-2.0000

> <Gold.PLP.part.metal>
0.0000

> <Gold.PLP.part.buried>
-1.5200

> <Gold.PLP.part.nonpolar>
-29.2770

> <Gold.PLP.part.repulsive>
0.3764

> <Gold.PLP.ligand.clash>
0.0000

> <Gold.PLP.ligand.torsion>
0.4801

> <Gold.PLP.Chemscore.Hbond>
2.0000

> <Gold.PLP.Chemscore.CHOScore>
0.6130

> <Gold.PLP.Chemscore.Metal>
0.0000

> <Gold.Chemscore.Hbonds>
donor molecule, donor type, donor heavy atom, donor atom, acceptor molecule, acceptor atom, score
      L1  H     7    33       P1  7948  1.00
      L1  H    10    34       P1  7948  1.00
      L1  C    14    37       P1 10186  0.33

> <Gold.PLP.Chemscore.Internal.Correction>
0.3425

> <Gold.Rescore>
     Score         DG    S(hbond)    S(metal)    S(lipo)     H(rot)  DE(clash)    DE(int)     intcor
     15.79     -18.44       1.96        0.00      84.67       1.36       0.46       2.19       ----

> <Gold.Chemscore.Fitness>
15.7898

> <Gold.Chemscore.DG>
-18.4387

> <Gold.Chemscore.ZeroCoef>
-5.4800

> <Gold.Chemscore.Hbond>
1.9562

> <Gold.Chemscore.Metal>
0.0000

> <Gold.Chemscore.Lipo>
84.6697

> <Gold.Chemscore.Internal_Hbond>
0.0000

> <Gold.Chemscore.DEClash>
0.4593

> <Gold.Chemscore.DEInternal>
2.1896

> <Gold.Chemscore.Rot>
1.3599

> <Gold.Chemscore.Internal.Correction>
   9.000000E+99

> <Gold.Chemscore.Hbonds>
donor molecule, donor type, donor heavy atom, donor atom, acceptor molecule, acceptor atom, score
      L1  H     7    33       P1  7948  0.97
      L1  H    10    34       P1  7948  0.99

> <Gold.Chemscore.Hbond.Weighted>
-6.5336

> <Gold.Chemscore.Metal.Weighted>
-0.0000

> <Gold.Chemscore.Lipo.Weighted>
-9.9064

> <Gold.Chemscore.Internal_Hbond.Weighted>
0.0000

> <Gold.Chemscore.DEClash.Weighted>
0.4593

> <Gold.Chemscore.DEInternal.Weighted>
2.1896

> <Gold.Chemscore.Rot.Weighted>
3.4813

> <Gold.Chemscore.Internal.Correction.Weighted>
   9.000000E+99

> <Gold.Protein.RotatedTorsions>
[ 6907 6896 6895 6894 ] final  -55.25 input  -60.11 | X-H torsion
[ 7974 7965 7964 7962 ] final  -53.18 input  175.53 | X-H torsion
[ 8008 7997 7996 7995 ] final    4.66 input   59.86 | X-H torsion
[ 10167 10162 10161 10158 ] final   10.36 input  -65.29 | X-H torsion
[ 10718 10713 10712 10709 ] final  -34.22 input   66.30 | X-H torsion
[ 10763 10752 10751 10750 ] final  121.51 input  -60.55 | X-H torsion
[ 11005 11000 10999 10996 ] final   93.90 input  -57.11 | X-H torsion

> <Gold.Protein.ActiveResidues>
 VAL166  LYS551  ARG553  GLY616  TRP617  ASP618  TYR619  PRO620  LYS621  CYS622 
 ASP623  PHE694  ASN695  SER759  ASP760  ASP761  ALA762  ILE779  LEU786  VAL792 
 PHE793  MET794  SER795  GLU796  ALA797  LYS798  CYS799  TRP800  GLU811  SER814 

> <Gold.Protein.RotatedAtoms>
  150.8268  134.7503  159.6819 H   0  0  0  0  0  0  0  0  0  0  0  0  # atno 6907 bound_to 6896
  152.4378  134.5649  159.9914 H   0  0  0  0  0  0  0  0  0  0  0  0  # atno 6908 bound_to 6896
  151.5819  133.3339  159.3046 H   0  0  0  0  0  0  0  0  0  0  0  0  # atno 6909 bound_to 6896
  145.8997  140.8004  142.9749 H   0  0  0  0  0  0  0  0  0  0  0  0  # atno 7974 bound_to 7965
  154.7187  140.2707  155.6562 H   0  0  0  0  0  0  0  0  0  0  0  0  # atno 8008 bound_to 7997
  156.2817  140.2739  156.1776 H   0  0  0  0  0  0  0  0  0  0  0  0  # atno 8009 bound_to 7997
  155.0537  140.0371  157.2542 H   0  0  0  0  0  0  0  0  0  0  0  0  # atno 8010 bound_to 7997
  140.6199  143.8228  150.7162 H   0  0  0  0  0  0  0  0  0  0  0  0  # atno 10167 bound_to 10162
  156.3532  130.4311  149.7687 H   0  0  0  0  0  0  0  0  0  0  0  0  # atno 10718 bound_to 10713
  153.6153  135.3423  155.2992 H   0  0  0  0  0  0  0  0  0  0  0  0  # atno 10763 bound_to 10752
  154.8611  135.4260  154.2266 H   0  0  0  0  0  0  0  0  0  0  0  0  # atno 10764 bound_to 10752
  153.3126  135.7032  153.7174 H   0  0  0  0  0  0  0  0  0  0  0  0  # atno 10765 bound_to 10752
  139.8804  134.8816  156.3786 H   0  0  0  0  0  0  0  0  0  0  0  0  # atno 11005 bound_to 11000
  144.6735  140.1658  143.7418 LP  0  0  0  0  0  0  0  0  0  0  0  0  # atno 17320 bound_to 7965
  145.8806  139.2321  143.1607 LP  0  0  0  0  0  0  0  0  0  0  0  0  # atno 17321 bound_to 7965
  140.1815  143.4110  152.1929 LP  0  0  0  0  0  0  0  0  0  0  0  0  # atno 17342 bound_to 10162
  139.5429  144.7273  151.4675 LP  0  0  0  0  0  0  0  0  0  0  0  0  # atno 17343 bound_to 10162
  156.4879  130.8071  151.3082 LP  0  0  0  0  0  0  0  0  0  0  0  0  # atno 17370 bound_to 10713
  157.7464  130.9985  150.2854 LP  0  0  0  0  0  0  0  0  0  0  0  0  # atno 17371 bound_to 10713
  140.9415  133.7511  156.0152 LP  0  0  0  0  0  0  0  0  0  0  0  0  # atno 17394 bound_to 11000
  140.8214  134.3285  157.5380 LP  0  0  0  0  0  0  0  0  0  0  0  0  # atno 17395 bound_to 11000

$$$$
