AV-unprocessed.smi:1859|AV-procd|sdf|7546|dock6
  -GOLD-   22720 9263D 1   1.00000     0.00000
 Structure written by MMmdl.
 46 48  0  0  0  0  0  0  0  0  2 V2000
  148.0875  138.9437  153.4212 O   0  0  0  0  0  0  0  0  0  0  0  0
  147.0877  139.6444  153.2595 C   0  0  0  0  0  0  0  0  0  0  0  0
  145.9960  139.2126  152.6099 N   0  0  0  0  0  0  0  0  0  0  0  0
  145.8688  137.9066  151.9756 C   0  0  0  0  0  0  0  0  0  0  0  0
  145.5202  136.8156  153.0028 C   0  0  0  0  0  0  0  0  0  0  0  0
  145.3523  135.4554  152.3560 C   0  0  0  0  0  0  0  0  0  0  0  0
  144.0838  134.8711  152.1491 C   0  0  0  0  0  0  0  0  0  0  0  0
  144.0026  133.5958  151.5515 C   0  0  0  0  0  0  0  0  0  0  0  0
  145.1892  132.9332  151.1748 C   0  0  0  0  0  0  0  0  0  0  0  0
  146.4293  133.5634  151.4050 C   0  0  0  0  0  0  0  0  0  0  0  0
  146.4657  134.7854  151.9803 N   0  3  0  0  0  0  0  0  0  0  0  0
  147.0359  141.0888  153.7922 C   0  0  1  0  0  0  0  0  0  0  0  0
  146.3844  141.1948  155.1960 C   0  0  0  0  0  0  0  0  0  0  0  0
  147.3371  140.8210  156.3537 C   0  0  0  0  0  0  0  0  0  0  0  0
  148.7017  141.5162  156.2029 C   0  0  0  0  0  0  0  0  0  0  0  0
  149.2598  141.1840  154.8842 N   0  0  0  0  0  0  0  0  0  0  0  0
  150.2981  140.3431  154.6469 C   0  0  0  0  0  0  0  0  0  0  0  0
  150.6511  140.0391  153.5060 O   0  0  0  0  0  0  0  0  0  0  0  0
  151.0146  139.7931  155.8394 C   0  0  0  0  0  0  0  0  0  0  0  0
  151.6359  140.7759  156.8150 C   0  0  0  0  0  0  0  0  0  0  0  0
  152.5164  139.9851  155.8840 C   0  0  0  0  0  0  0  0  0  0  0  0
  148.4369  141.7487  153.8045 C   0  0  0  0  0  0  0  0  0  0  0  0
  145.2126  139.8441  152.5231 H   0  0  0  0  0  0  0  0  0  0  0  0
  145.1158  137.9494  151.1869 H   0  0  0  0  0  0  0  0  0  0  0  0
  146.8155  137.6703  151.4891 H   0  0  0  0  0  0  0  0  0  0  0  0
  146.2988  136.7572  153.7646 H   0  0  0  0  0  0  0  0  0  0  0  0
  144.5971  137.0666  153.5277 H   0  0  0  0  0  0  0  0  0  0  0  0
  143.1840  135.3903  152.4461 H   0  0  0  0  0  0  0  0  0  0  0  0
  143.0415  133.1310  151.3862 H   0  0  0  0  0  0  0  0  0  0  0  0
  145.1488  131.9557  150.7168 H   0  0  0  0  0  0  0  0  0  0  0  0
  147.3858  133.1307  151.1498 H   0  0  0  0  0  0  0  0  0  0  0  0
  146.4068  141.6537  153.1024 H   0  0  0  0  0  0  0  0  0  0  0  0
  146.0545  142.2240  155.3419 H   0  0  0  0  0  0  0  0  0  0  0  0
  145.4808  140.5858  155.2479 H   0  0  0  0  0  0  0  0  0  0  0  0
  146.8835  141.0951  157.3064 H   0  0  0  0  0  0  0  0  0  0  0  0
  147.4818  139.7413  156.3899 H   0  0  0  0  0  0  0  0  0  0  0  0
  148.5772  142.5976  156.2766 H   0  0  0  0  0  0  0  0  0  0  0  0
  149.3457  141.2442  157.0375 H   0  0  0  0  0  0  0  0  0  0  0  0
  150.5980  138.8890  156.2798 H   0  0  0  0  0  0  0  0  0  0  0  0
  151.5453  141.8432  156.6218 H   0  0  0  0  0  0  0  0  0  0  0  0
  151.6276  140.4985  157.8670 H   0  0  0  0  0  0  0  0  0  0  0  0
  153.1044  139.1696  156.2997 H   0  0  0  0  0  0  0  0  0  0  0  0
  152.9887  140.5225  155.0631 H   0  0  0  0  0  0  0  0  0  0  0  0
  148.9084  141.6538  152.8248 H   0  0  0  0  0  0  0  0  0  0  0  0
  148.3336  142.8231  153.9635 H   0  0  0  0  0  0  0  0  0  0  0  0
  147.3736  135.2232  152.1390 H   0  0  0  0  0  0  0  0  0  0  0  0
  1  2  2  0  0  0  0
  2  3  1  0  0  0  0
  2 12  1  0  0  0  0
  3  4  1  0  0  0  0
  3 23  1  0  0  0  0
  4  5  1  0  0  0  0
  4 24  1  0  0  0  0
  4 25  1  0  0  0  0
  5  6  1  0  0  0  0
  5 26  1  0  0  0  0
  5 27  1  0  0  0  0
  6 11  1  0  0  0  0
  6  7  2  0  0  0  0
  7  8  1  0  0  0  0
  7 28  1  0  0  0  0
  8  9  2  0  0  0  0
  8 29  1  0  0  0  0
  9 10  1  0  0  0  0
  9 30  1  0  0  0  0
 10 11  2  0  0  0  0
 10 31  1  0  0  0  0
 11 46  1  0  0  0  0
 12 22  1  0  0  0  0
 12 13  1  0  0  0  0
 12 32  1  0  0  0  0
 13 14  1  0  0  0  0
 13 33  1  0  0  0  0
 13 34  1  0  0  0  0
 14 15  1  0  0  0  0
 14 35  1  0  0  0  0
 14 36  1  0  0  0  0
 15 16  1  0  0  0  0
 15 37  1  0  0  0  0
 15 38  1  0  0  0  0
 16 17  1  0  0  0  0
 16 22  1  0  0  0  0
 17 18  2  0  0  0  0
 17 19  1  0  0  0  0
 19 21  1  0  0  0  0
 19 20  1  0  0  0  0
 19 39  1  0  0  0  0
 20 21  1  0  0  0  0
 20 40  1  0  0  0  0
 20 41  1  0  0  0  0
 21 42  1  0  0  0  0
 21 43  1  0  0  0  0
 22 44  1  0  0  0  0
 22 45  1  0  0  0  0
M  CHG  1  11   1
M  END
> <s_m_source_file>
AV-unprocessed.smi

> <i_m_source_file_index>
1859

> <i_lp_mmshare_version>
43012

> <i_f3d_flags>
0

> <s_epik_input>
W0NIMl0xW0NIMl1bQ0hdMUMoPU8pTihbQ0gyXTIpW0NIMl1bQ0gyXVtDSDJdW0NASF0yQyg9TylbTkhdW0NIMl1bQ0gyXWMzW2NIXVtjSF1bY0hdW2NIXW4z

> <s_epik_cmdline>
J2VwaWtfcHl0aG9uJywgJy1waCcsICc3LjAnLCAnLXRuJywgJzgnLCAnLW1hJywgJzIwMCcsICctbWV0YWxfYmluZGluZycsICctaW1hZScsICc8aW5maWxlLm1hZT4nLCAnLW9tYWUnLCAnPG91dGZpbGUubWFlPic=

> <r_epik_Ionization_Penalty>
1.84754

> <r_epik_Ionization_Penalty_Charging>
1.84754

> <r_epik_Ionization_Penalty_Neutral>
7.35743e-08

> <r_epik_State_Penalty>
1.96477

> <r_epik_Charging_Adjusted_Penalty>
3.81231

> <i_epik_Tot_Q>
1

> <i_epik_Tot_abs_Q>
1

> <r_epik_Metal_State_Penalty>
1.99062

> <b_epik_Metal_Only>
0

> <s_lp_Force_Field>
OPLS_2005

> <r_lp_Energy>
29.7098

> <b_lp_Chiralities_Consistent>
1

> <s_lp_Variant>
AV-unprocessed.smi:1859-4

> <Gold.Version>
5.8.1

> <Gold.Id.Protein>
6NUR|6NUR_protein|mol2

> <Gold.PLP.Fitness>
46.5954

> <Gold.PLP.PLP>
-37.0412

> <Gold.PLP.part.hbond>
-2.9212

> <Gold.PLP.part.metal>
0.0000

> <Gold.PLP.part.buried>
-4.0442

> <Gold.PLP.part.nonpolar>
-31.1129

> <Gold.PLP.part.repulsive>
1.0540

> <Gold.PLP.ligand.clash>
0.0000

> <Gold.PLP.ligand.torsion>
1.1326

> <Gold.PLP.Chemscore.Hbond>
3.8960

> <Gold.PLP.Chemscore.CHOScore>
0.0000

> <Gold.PLP.Chemscore.Metal>
0.0000

> <Gold.Chemscore.Hbonds>
donor molecule, donor type, donor heavy atom, donor atom, acceptor molecule, acceptor atom, score
      L1  H     3    23       P1 10175  1.00
      L1  H    11    46       P1  7948  2.00
      P1  H  7989  7998       L1    18  0.21

> <Gold.PLP.Chemscore.Internal.Correction>
0.1313

> <Gold.Rescore>
     Score         DG    S(hbond)    S(metal)    S(lipo)     H(rot)  DE(clash)    DE(int)     intcor
     13.99     -18.62       2.87        0.00      67.50       1.70       0.03       4.59       ----

> <Gold.Chemscore.Fitness>
13.9945

> <Gold.Chemscore.DG>
-18.6170

> <Gold.Chemscore.ZeroCoef>
-5.4800

> <Gold.Chemscore.Hbond>
2.8700

> <Gold.Chemscore.Metal>
0.0000

> <Gold.Chemscore.Lipo>
67.5046

> <Gold.Chemscore.Internal_Hbond>
0.0000

> <Gold.Chemscore.DEClash>
0.0285

> <Gold.Chemscore.DEInternal>
4.5940

> <Gold.Chemscore.Rot>
1.6980

> <Gold.Chemscore.Internal.Correction>
   9.000000E+99

> <Gold.Chemscore.Hbonds>
donor molecule, donor type, donor heavy atom, donor atom, acceptor molecule, acceptor atom, score
      L1  H     3    23       P1 10175  0.99
      L1  H    11    46       P1  7948  0.99
      P1  H  7989  7998       L1    18  0.03

> <Gold.Chemscore.Hbond.Weighted>
-9.5858

> <Gold.Chemscore.Metal.Weighted>
-0.0000

> <Gold.Chemscore.Lipo.Weighted>
-7.8980

> <Gold.Chemscore.Internal_Hbond.Weighted>
0.0000

> <Gold.Chemscore.DEClash.Weighted>
0.0285

> <Gold.Chemscore.DEInternal.Weighted>
4.5940

> <Gold.Chemscore.Rot.Weighted>
4.3469

> <Gold.Chemscore.Internal.Correction.Weighted>
   9.000000E+99

> <Gold.Protein.RotatedTorsions>
[ 6907 6896 6895 6894 ] final  -12.31 input  -60.11 | X-H torsion
[ 7974 7965 7964 7962 ] final  -99.34 input  175.53 | X-H torsion
[ 8008 7997 7996 7995 ] final  -36.81 input   59.86 | X-H torsion
[ 10167 10162 10161 10158 ] final   43.14 input  -65.29 | X-H torsion
[ 10718 10713 10712 10709 ] final  -78.57 input   66.30 | X-H torsion
[ 10763 10752 10751 10750 ] final   88.58 input  -60.55 | X-H torsion
[ 11005 11000 10999 10996 ] final -148.82 input  -57.11 | X-H torsion

> <Gold.Protein.ActiveResidues>
 VAL166  LYS551  ARG553  GLY616  TRP617  ASP618  TYR619  PRO620  LYS621  CYS622 
 ASP623  PHE694  ASN695  SER759  ASP760  ASP761  ALA762  ILE779  LEU786  VAL792 
 PHE793  MET794  SER795  GLU796  ALA797  LYS798  CYS799  TRP800  GLU811  SER814 

> <Gold.Protein.RotatedAtoms>
  151.3726  135.0925  159.9469 H   0  0  0  0  0  0  0  0  0  0  0  0  # atno 6907 bound_to 6896
  152.5131  133.9150  159.7517 H   0  0  0  0  0  0  0  0  0  0  0  0  # atno 6908 bound_to 6896
  150.9567  133.6435  159.2791 H   0  0  0  0  0  0  0  0  0  0  0  0  # atno 6909 bound_to 6896
  145.3088  140.9395  143.2781 H   0  0  0  0  0  0  0  0  0  0  0  0  # atno 7974 bound_to 7965
  154.4065  140.1621  156.2435 H   0  0  0  0  0  0  0  0  0  0  0  0  # atno 8008 bound_to 7997
  155.9181  140.3423  155.6128 H   0  0  0  0  0  0  0  0  0  0  0  0  # atno 8009 bound_to 7997
  155.7255  140.0774  157.2302 H   0  0  0  0  0  0  0  0  0  0  0  0  # atno 8010 bound_to 7997
  140.3473  144.2394  150.6149 H   0  0  0  0  0  0  0  0  0  0  0  0  # atno 10167 bound_to 10162
  156.0114  130.4521  150.3516 H   0  0  0  0  0  0  0  0  0  0  0  0  # atno 10718 bound_to 10713
  153.1783  135.4502  154.9994 H   0  0  0  0  0  0  0  0  0  0  0  0  # atno 10763 bound_to 10752
  154.8013  135.3257  154.7546 H   0  0  0  0  0  0  0  0  0  0  0  0  # atno 10764 bound_to 10752
  153.8013  135.6962  153.4910 H   0  0  0  0  0  0  0  0  0  0  0  0  # atno 10765 bound_to 10752
  140.7572  134.3339  157.5111 H   0  0  0  0  0  0  0  0  0  0  0  0  # atno 11005 bound_to 11000
  144.9033  139.4622  143.6622 LP  0  0  0  0  0  0  0  0  0  0  0  0  # atno 17320 bound_to 7965
  146.3125  139.7799  142.9008 LP  0  0  0  0  0  0  0  0  0  0  0  0  # atno 17321 bound_to 7965
  140.5252  143.2256  151.8326 LP  0  0  0  0  0  0  0  0  0  0  0  0  # atno 17342 bound_to 10162
  139.4831  144.4788  151.9333 LP  0  0  0  0  0  0  0  0  0  0  0  0  # atno 17343 bound_to 10162
  157.1608  131.0344  151.2842 LP  0  0  0  0  0  0  0  0  0  0  0  0  # atno 17370 bound_to 10713
  157.4313  130.7492  149.6992 LP  0  0  0  0  0  0  0  0  0  0  0  0  # atno 17371 bound_to 10713
  139.8777  134.9179  156.3190 LP  0  0  0  0  0  0  0  0  0  0  0  0  # atno 17394 bound_to 11000
  140.9696  133.7335  156.0516 LP  0  0  0  0  0  0  0  0  0  0  0  0  # atno 17395 bound_to 11000

$$$$
