AV-unprocessed.smi:1120|AV-procd|sdf|4822|dock2
  -GOLD-   22720 3383D 1   1.00000     0.00000
 Structure written by MMmdl.
 47 48  0  0  0  0  0  0  0  0  2 V2000
  151.9331  144.8870  160.2218 C   0  0  0  0  0  0  0  0  0  0  0  0
  151.5838  143.5306  159.5938 C   0  0  2  0  0  0  0  0  0  0  0  0
  152.5927  142.4307  159.9977 C   0  0  0  0  0  0  0  0  0  0  0  0
  152.2867  141.0631  159.3370 C   0  0  0  0  0  0  0  0  0  0  0  0
  152.2188  141.1284  157.7919 C   0  0  1  0  0  0  0  0  0  0  0  0
  151.8108  139.8318  157.2668 N   0  5  0  0  0  0  0  0  0  0  0  0
  151.6346  139.6144  155.6683 S   0  0  0  0  0  0  0  0  0  0  0  0
  150.4976  140.3739  155.1220 O   0  0  0  0  0  0  0  0  0  0  0  0
  152.9081  139.7024  154.9351 O   0  0  0  0  0  0  0  0  0  0  0  0
  151.1411  137.8325  155.6232 C   0  0  0  0  0  0  0  0  0  0  0  0
  150.0030  137.5478  156.6051 C   0  0  0  0  0  0  0  0  0  0  0  0
  149.1189  138.3852  156.7852 O   0  0  0  0  0  0  0  0  0  0  0  0
  150.0195  136.3542  157.2132 N   0  0  0  0  0  0  0  0  0  0  0  0
  149.0306  135.8838  158.1740 C   0  0  0  0  0  0  0  0  0  0  0  0
  148.9445  136.8247  159.3880 C   0  0  0  0  0  0  0  0  0  0  0  0
  148.5949  136.1077  160.6814 C   0  0  0  0  0  0  0  0  0  0  0  0
  148.4705  134.7019  160.7150 C   0  0  0  0  0  0  0  0  0  0  0  0
  148.1175  134.0879  161.9317 C   0  0  0  0  0  0  0  0  0  0  0  0
  147.9077  134.8983  163.0640 C   0  0  0  0  0  0  0  0  0  0  0  0
  148.0596  136.2927  162.9274 C   0  0  0  0  0  0  0  0  0  0  0  0
  148.3947  136.8922  161.7645 N   0  0  0  0  0  0  0  0  0  0  0  0
  151.2159  142.2402  157.3893 C   0  0  0  0  0  0  0  0  0  0  0  0
  151.5191  143.6081  158.0510 C   0  0  0  0  0  0  0  0  0  0  0  0
  152.9141  145.2339  159.8959 H   0  0  0  0  0  0  0  0  0  0  0  0
  151.9469  144.8227  161.3101 H   0  0  0  0  0  0  0  0  0  0  0  0
  151.2017  145.6467  159.9451 H   0  0  0  0  0  0  0  0  0  0  0  0
  150.5984  143.2374  159.9595 H   0  0  0  0  0  0  0  0  0  0  0  0
  153.6060  142.7491  159.7436 H   0  0  0  0  0  0  0  0  0  0  0  0
  152.5835  142.3114  161.0816 H   0  0  0  0  0  0  0  0  0  0  0  0
  153.0430  140.3390  159.6419 H   0  0  0  0  0  0  0  0  0  0  0  0
  151.3377  140.6931  159.7290 H   0  0  0  0  0  0  0  0  0  0  0  0
  153.2074  141.4099  157.4276 H   0  0  0  0  0  0  0  0  0  0  0  0
  150.8271  137.5911  154.6077 H   0  0  0  0  0  0  0  0  0  0  0  0
  152.0115  137.2221  155.8620 H   0  0  0  0  0  0  0  0  0  0  0  0
  150.7875  135.7307  157.0066 H   0  0  0  0  0  0  0  0  0  0  0  0
  148.0518  135.8050  157.6986 H   0  0  0  0  0  0  0  0  0  0  0  0
  149.3113  134.8811  158.4987 H   0  0  0  0  0  0  0  0  0  0  0  0
  149.8969  137.3409  159.5168 H   0  0  0  0  0  0  0  0  0  0  0  0
  148.2036  137.6027  159.1991 H   0  0  0  0  0  0  0  0  0  0  0  0
  148.6290  134.1076  159.8266 H   0  0  0  0  0  0  0  0  0  0  0  0
  148.0070  133.0154  161.9940 H   0  0  0  0  0  0  0  0  0  0  0  0
  147.6350  134.4622  164.0135 H   0  0  0  0  0  0  0  0  0  0  0  0
  147.9053  136.9444  163.7747 H   0  0  0  0  0  0  0  0  0  0  0  0
  151.2163  142.3702  156.3071 H   0  0  0  0  0  0  0  0  0  0  0  0
  150.2037  141.9350  157.6590 H   0  0  0  0  0  0  0  0  0  0  0  0
  150.7505  144.3232  157.7557 H   0  0  0  0  0  0  0  0  0  0  0  0
  152.4587  144.0079  157.6639 H   0  0  0  0  0  0  0  0  0  0  0  0
  1  2  1  0  0  0  0
  1 24  1  0  0  0  0
  1 25  1  0  0  0  0
  1 26  1  0  0  0  0
  2 23  1  0  0  0  0
  2  3  1  0  0  0  0
  2 27  1  0  0  0  0
  3  4  1  0  0  0  0
  3 28  1  0  0  0  0
  3 29  1  0  0  0  0
  4  5  1  0  0  0  0
  4 30  1  0  0  0  0
  4 31  1  0  0  0  0
  5  6  1  0  0  0  0
  5 22  1  0  0  0  0
  5 32  1  0  0  0  0
  6  7  1  0  0  0  0
  7  8  2  0  0  0  0
  7  9  2  0  0  0  0
  7 10  1  0  0  0  0
 10 11  1  0  0  0  0
 10 33  1  0  0  0  0
 10 34  1  0  0  0  0
 11 12  2  0  0  0  0
 11 13  1  0  0  0  0
 13 14  1  0  0  0  0
 13 35  1  0  0  0  0
 14 15  1  0  0  0  0
 14 36  1  0  0  0  0
 14 37  1  0  0  0  0
 15 16  1  0  0  0  0
 15 38  1  0  0  0  0
 15 39  1  0  0  0  0
 16 21  1  0  0  0  0
 16 17  2  0  0  0  0
 17 18  1  0  0  0  0
 17 40  1  0  0  0  0
 18 19  2  0  0  0  0
 18 41  1  0  0  0  0
 19 20  1  0  0  0  0
 19 42  1  0  0  0  0
 20 21  2  0  0  0  0
 20 43  1  0  0  0  0
 22 23  1  0  0  0  0
 22 44  1  0  0  0  0
 22 45  1  0  0  0  0
 23 46  1  0  0  0  0
 23 47  1  0  0  0  0
M  CHG  1   6  -1
M  END
> <s_m_source_file>
AV-unprocessed.smi

> <i_m_source_file_index>
1120

> <i_lp_mmshare_version>
43012

> <i_f3d_flags>
0

> <s_epik_input>
W0NIM11bQ0BASF0xW0NIMl1bQ0gyXVtDQEhdKFtDSDJdW0NIMl0xKVtOSF1TKD1PKSg9TylbQ0gyXUMoPU8pW05IXVtDSDJdW0NIMl1jMltjSF1bY0hdW2NIXVtjSF1uMg==

> <s_epik_cmdline>
J2VwaWtfcHl0aG9uJywgJy1waCcsICc3LjAnLCAnLXRuJywgJzgnLCAnLW1hJywgJzIwMCcsICctbWV0YWxfYmluZGluZycsICctaW1hZScsICc8aW5maWxlLm1hZT4nLCAnLW9tYWUnLCAnPG91dGZpbGUubWFlPic=

> <r_epik_Ionization_Penalty>
5.68623

> <r_epik_Ionization_Penalty_Charging>
5.66033

> <r_epik_Ionization_Penalty_Neutral>
0.0259005

> <r_epik_State_Penalty>
5.67764

> <r_epik_Charging_Adjusted_Penalty>
11.338

> <i_epik_Tot_Q>
-1

> <i_epik_Tot_abs_Q>
1

> <r_epik_Metal_State_Penalty>
1.68319

> <b_epik_Metal_Only>
1

> <s_lp_Force_Field>
OPLS_2005

> <r_lp_Energy>
8.54043

> <b_lp_Chiralities_Consistent>
1

> <s_lp_Variant>
AV-unprocessed.smi:1120-5

> <Gold.Version>
5.8.1

> <Gold.Id.Protein>
6NUR|6NUR_protein|mol2

> <Gold.PLP.Fitness>
58.0763

> <Gold.PLP.PLP>
-48.7564

> <Gold.PLP.part.hbond>
-4.8909

> <Gold.PLP.part.metal>
0.0000

> <Gold.PLP.part.buried>
-6.0632

> <Gold.PLP.part.nonpolar>
-36.7585

> <Gold.PLP.part.repulsive>
0.1257

> <Gold.PLP.ligand.clash>
0.0000

> <Gold.PLP.ligand.torsion>
1.3557

> <Gold.PLP.Chemscore.Hbond>
3.5880

> <Gold.PLP.Chemscore.CHOScore>
0.0000

> <Gold.PLP.Chemscore.Metal>
0.0000

> <Gold.Chemscore.Hbonds>
donor molecule, donor type, donor heavy atom, donor atom, acceptor molecule, acceptor atom, score
      P1  H  6931  6943       L1    21  0.93
      P1  H  7989  7998       L1     8  0.49
      P1  H  7997  8009       L1     9  1.00

> <Gold.PLP.Chemscore.Internal.Correction>
1.2673

> <Gold.Rescore>
     Score         DG    S(hbond)    S(metal)    S(lipo)     H(rot)  DE(clash)    DE(int)     intcor
     21.52     -24.68       3.13        0.00     115.37       1.86       0.01       3.15       ----

> <Gold.Chemscore.Fitness>
21.5155

> <Gold.Chemscore.DG>
-24.6758

> <Gold.Chemscore.ZeroCoef>
-5.4800

> <Gold.Chemscore.Hbond>
3.1315

> <Gold.Chemscore.Metal>
0.0000

> <Gold.Chemscore.Lipo>
115.3742

> <Gold.Chemscore.Internal_Hbond>
0.0000

> <Gold.Chemscore.DEClash>
0.0137

> <Gold.Chemscore.DEInternal>
3.1466

> <Gold.Chemscore.Rot>
1.8602

> <Gold.Chemscore.Internal.Correction>
   9.000000E+99

> <Gold.Chemscore.Hbonds>
donor molecule, donor type, donor heavy atom, donor atom, acceptor molecule, acceptor atom, score
      P1  H  6931  6943       L1    21  0.80
      P1  H  7989  7998       L1     8  0.02
      P1  H  7997  8009       L1     9  0.91

> <Gold.Chemscore.Hbond.Weighted>
-10.4592

> <Gold.Chemscore.Metal.Weighted>
-0.0000

> <Gold.Chemscore.Lipo.Weighted>
-13.4988

> <Gold.Chemscore.Internal_Hbond.Weighted>
0.0000

> <Gold.Chemscore.DEClash.Weighted>
0.0137

> <Gold.Chemscore.DEInternal.Weighted>
3.1466

> <Gold.Chemscore.Rot.Weighted>
4.7622

> <Gold.Chemscore.Internal.Correction.Weighted>
   9.000000E+99

> <Gold.Protein.RotatedTorsions>
[ 6907 6896 6895 6894 ] final  -69.43 input  -60.11 | X-H torsion
[ 7974 7965 7964 7962 ] final -157.14 input  175.53 | X-H torsion
[ 8008 7997 7996 7995 ] final -143.23 input   59.86 | X-H torsion
[ 10167 10162 10161 10158 ] final -122.59 input  -65.29 | X-H torsion
[ 10718 10713 10712 10709 ] final  -63.10 input   66.30 | X-H torsion
[ 10763 10752 10751 10750 ] final  -86.23 input  -60.55 | X-H torsion
[ 11005 11000 10999 10996 ] final  -73.69 input  -57.11 | X-H torsion

> <Gold.Protein.ActiveResidues>
 VAL166  LYS551  ARG553  GLY616  TRP617  ASP618  TYR619  PRO620  LYS621  CYS622 
 ASP623  PHE694  ASN695  SER759  ASP760  ASP761  ALA762  ILE779  LEU786  VAL792 
 PHE793  MET794  SER795  GLU796  ALA797  LYS798  CYS799  TRP800  GLU811  SER814 

> <Gold.Protein.RotatedAtoms>
  150.7306  134.5598  159.5836 H   0  0  0  0  0  0  0  0  0  0  0  0  # atno 6907 bound_to 6896
  152.3064  134.7547  160.0355 H   0  0  0  0  0  0  0  0  0  0  0  0  # atno 6908 bound_to 6896
  151.8110  133.3346  159.3592 H   0  0  0  0  0  0  0  0  0  0  0  0  # atno 6909 bound_to 6896
  144.7561  140.4011  143.6011 H   0  0  0  0  0  0  0  0  0  0  0  0  # atno 7974 bound_to 7965
  155.5071  140.0580  157.2929 H   0  0  0  0  0  0  0  0  0  0  0  0  # atno 8008 bound_to 7997
  154.4565  140.1975  156.0313 H   0  0  0  0  0  0  0  0  0  0  0  0  # atno 8009 bound_to 7997
  156.0809  140.3247  155.7697 H   0  0  0  0  0  0  0  0  0  0  0  0  # atno 8010 bound_to 7997
  140.0126  143.5426  152.2256 H   0  0  0  0  0  0  0  0  0  0  0  0  # atno 10167 bound_to 10162
  156.0812  130.4217  150.1229 H   0  0  0  0  0  0  0  0  0  0  0  0  # atno 10718 bound_to 10713
  154.6201  135.5457  153.7566 H   0  0  0  0  0  0  0  0  0  0  0  0  # atno 10763 bound_to 10752
  153.0234  135.6410  154.1453 H   0  0  0  0  0  0  0  0  0  0  0  0  # atno 10764 bound_to 10752
  154.1388  135.2909  155.3146 H   0  0  0  0  0  0  0  0  0  0  0  0  # atno 10765 bound_to 10752
  141.1626  133.6886  156.7250 H   0  0  0  0  0  0  0  0  0  0  0  0  # atno 11005 bound_to 11000
  145.6774  139.1611  143.2720 LP  0  0  0  0  0  0  0  0  0  0  0  0  # atno 17320 bound_to 7965
  146.1573  140.6839  142.9294 LP  0  0  0  0  0  0  0  0  0  0  0  0  # atno 17321 bound_to 7965
  139.6195  144.7626  151.2773 LP  0  0  0  0  0  0  0  0  0  0  0  0  # atno 17342 bound_to 10162
  140.7375  143.6675  150.8110 LP  0  0  0  0  0  0  0  0  0  0  0  0  # atno 17343 bound_to 10162
  156.9260  130.9698  151.3541 LP  0  0  0  0  0  0  0  0  0  0  0  0  # atno 17370 bound_to 10713
  157.5930  130.8457  149.8687 LP  0  0  0  0  0  0  0  0  0  0  0  0  # atno 17371 bound_to 10713
  140.2787  134.8334  157.3914 LP  0  0  0  0  0  0  0  0  0  0  0  0  # atno 17394 bound_to 11000
  140.1453  134.4919  155.8001 LP  0  0  0  0  0  0  0  0  0  0  0  0  # atno 17395 bound_to 11000

$$$$
