AV-unprocessed.smi:155|AV-procd|sdf|1273|dock10
  -GOLD-   2262018533D 1   1.00000     0.00000
 Structure written by MMmdl.
 63 66  0  0  0  0  0  0  0  0  2 V2000
  145.9219  133.6077  161.8787 C   0  0  0  0  0  0  0  0  0  0  0  0
  147.1929  134.1758  161.4423 N   0  0  0  0  0  0  0  0  0  0  0  0
  147.4217  135.4045  162.1901 C   0  0  0  0  0  0  0  0  0  0  0  0
  147.1803  134.4727  160.0094 C   0  0  0  0  0  0  0  0  0  0  0  0
  148.4212  135.2839  159.5803 C   0  0  0  0  0  0  0  0  0  0  0  0
  148.5409  135.3740  158.1016 N   0  3  2  0  0  0  0  0  0  0  0  0
  147.2357  135.6063  157.4160 C   0  0  0  0  0  0  0  0  0  0  0  0
  147.2990  135.5151  155.8764 C   0  0  0  0  0  0  0  0  0  0  0  0
  148.4042  136.3776  155.2377 C   0  0  0  0  0  0  0  0  0  0  0  0
  149.7419  136.0589  155.7487 N   0  0  0  0  0  0  0  0  0  0  0  0
  150.6072  137.0770  156.0140 C   0  0  0  0  0  0  0  0  0  0  0  0
  151.9314  136.8591  155.7964 N   0  0  0  0  0  0  0  0  0  0  0  0
  152.8293  137.8202  156.0265 C   0  0  0  0  0  0  0  0  0  0  0  0
  152.6252  139.0616  156.4664 N   0  0  0  0  0  0  0  0  0  0  0  0
  151.3008  139.2942  156.6887 C   0  0  0  0  0  0  0  0  0  0  0  0
  150.2340  138.3689  156.4956 C   0  0  0  0  0  0  0  0  0  0  0  0
  149.0286  138.9820  156.8222 N   0  0  0  0  0  0  0  0  0  0  0  0
  149.3636  140.1837  157.2022 C   0  0  0  0  0  0  0  0  0  0  0  0
  150.7101  140.4559  157.1541 N   0  0  0  0  0  0  0  0  0  0  0  0
  151.3621  141.7022  157.5210 C   0  0  0  0  0  0  0  0  0  0  0  0
  152.0191  141.6789  158.9197 C   0  0  1  0  0  0  0  0  0  0  0  0
  153.2687  141.0166  158.8752 O   0  0  0  0  0  0  0  0  0  0  0  0
  152.1630  143.0587  159.6033 C   0  0  1  0  0  0  0  0  0  0  0  0
  152.8232  144.1610  158.7637 C   0  0  0  0  0  0  0  0  0  0  0  0
  152.1235  145.4381  159.2134 C   0  0  0  0  0  0  0  0  0  0  0  0
  151.1664  144.9789  160.3125 C   0  0  0  0  0  0  0  0  0  0  0  0
  150.9191  143.6195  159.9979 O   0  0  0  0  0  0  0  0  0  0  0  0
  150.0395  134.6877  156.1709 C   0  0  0  0  0  0  0  0  0  0  0  0
  149.3599  134.2812  157.5057 C   0  0  0  0  0  0  0  0  0  0  0  0
  145.7199  132.6553  161.3904 H   0  0  0  0  0  0  0  0  0  0  0  0
  145.0902  134.2817  161.6692 H   0  0  0  0  0  0  0  0  0  0  0  0
  145.9408  133.4191  162.9527 H   0  0  0  0  0  0  0  0  0  0  0  0
  148.3795  135.8485  161.9163 H   0  0  0  0  0  0  0  0  0  0  0  0
  147.4492  135.2017  163.2615 H   0  0  0  0  0  0  0  0  0  0  0  0
  146.6371  136.1386  162.0006 H   0  0  0  0  0  0  0  0  0  0  0  0
  147.1245  133.5415  159.4433 H   0  0  0  0  0  0  0  0  0  0  0  0
  146.2783  135.0285  159.7537 H   0  0  0  0  0  0  0  0  0  0  0  0
  148.3767  136.2767  160.0265 H   0  0  0  0  0  0  0  0  0  0  0  0
  149.3239  134.8247  159.9848 H   0  0  0  0  0  0  0  0  0  0  0  0
  146.5016  134.8851  157.7773 H   0  0  0  0  0  0  0  0  0  0  0  0
  146.8642  136.5936  157.6889 H   0  0  0  0  0  0  0  0  0  0  0  0
  147.4093  134.4755  155.5670 H   0  0  0  0  0  0  0  0  0  0  0  0
  146.3363  135.8256  155.4693 H   0  0  0  0  0  0  0  0  0  0  0  0
  148.4026  136.2433  154.1558 H   0  0  0  0  0  0  0  0  0  0  0  0
  148.1606  137.4244  155.4239 H   0  0  0  0  0  0  0  0  0  0  0  0
  153.8580  137.5577  155.8278 H   0  0  0  0  0  0  0  0  0  0  0  0
  148.6334  140.9091  157.5299 H   0  0  0  0  0  0  0  0  0  0  0  0
  152.1162  141.9312  156.7672 H   0  0  0  0  0  0  0  0  0  0  0  0
  150.6241  142.5034  157.4633 H   0  0  0  0  0  0  0  0  0  0  0  0
  151.3831  141.0669  159.5602 H   0  0  0  0  0  0  0  0  0  0  0  0
  153.1257  140.0957  159.0301 H   0  0  0  0  0  0  0  0  0  0  0  0
  152.7518  142.9272  160.5134 H   0  0  0  0  0  0  0  0  0  0  0  0
  153.8996  144.1972  158.9344 H   0  0  0  0  0  0  0  0  0  0  0  0
  152.6645  144.0138  157.6952 H   0  0  0  0  0  0  0  0  0  0  0  0
  152.8201  146.1974  159.5697 H   0  0  0  0  0  0  0  0  0  0  0  0
  151.5618  145.8632  158.3810 H   0  0  0  0  0  0  0  0  0  0  0  0
  151.6408  145.0420  161.2931 H   0  0  0  0  0  0  0  0  0  0  0  0
  150.2442  145.5593  160.3395 H   0  0  0  0  0  0  0  0  0  0  0  0
  149.7032  134.0156  155.3807 H   0  0  0  0  0  0  0  0  0  0  0  0
  151.1167  134.5291  156.2243 H   0  0  0  0  0  0  0  0  0  0  0  0
  150.1541  133.9937  158.1951 H   0  0  0  0  0  0  0  0  0  0  0  0
  148.7475  133.3881  157.3752 H   0  0  0  0  0  0  0  0  0  0  0  0
  149.0916  136.2059  157.9407 H   0  0  0  0  0  0  0  0  0  0  0  0
  1  2  1  0  0  0  0
  1 30  1  0  0  0  0
  1 31  1  0  0  0  0
  1 32  1  0  0  0  0
  2  3  1  0  0  0  0
  2  4  1  0  0  0  0
  3 33  1  0  0  0  0
  3 34  1  0  0  0  0
  3 35  1  0  0  0  0
  4  5  1  0  0  0  0
  4 36  1  0  0  0  0
  4 37  1  0  0  0  0
  5  6  1  0  0  0  0
  5 38  1  0  0  0  0
  5 39  1  0  0  0  0
  6 29  1  0  0  0  0
  6  7  1  0  0  0  0
  6 63  1  0  0  0  0
  7  8  1  0  0  0  0
  7 40  1  0  0  0  0
  7 41  1  0  0  0  0
  8  9  1  0  0  0  0
  8 42  1  0  0  0  0
  8 43  1  0  0  0  0
  9 10  1  0  0  0  0
  9 44  1  0  0  0  0
  9 45  1  0  0  0  0
 10 11  1  0  0  0  0
 10 28  1  0  0  0  0
 11 16  1  0  0  0  0
 11 12  2  0  0  0  0
 12 13  1  0  0  0  0
 13 14  2  0  0  0  0
 13 46  1  0  0  0  0
 14 15  1  0  0  0  0
 15 19  1  0  0  0  0
 15 16  2  0  0  0  0
 16 17  1  0  0  0  0
 17 18  2  0  0  0  0
 18 19  1  0  0  0  0
 18 47  1  0  0  0  0
 19 20  1  0  0  0  0
 20 21  1  0  0  0  0
 20 48  1  0  0  0  0
 20 49  1  0  0  0  0
 21 22  1  0  0  0  0
 21 23  1  0  0  0  0
 21 50  1  0  0  0  0
 22 51  1  0  0  0  0
 23 27  1  0  0  0  0
 23 24  1  0  0  0  0
 23 52  1  0  0  0  0
 24 25  1  0  0  0  0
 24 53  1  0  0  0  0
 24 54  1  0  0  0  0
 25 26  1  0  0  0  0
 25 55  1  0  0  0  0
 25 56  1  0  0  0  0
 26 27  1  0  0  0  0
 26 57  1  0  0  0  0
 26 58  1  0  0  0  0
 28 29  1  0  0  0  0
 28 59  1  0  0  0  0
 28 60  1  0  0  0  0
 29 61  1  0  0  0  0
 29 62  1  0  0  0  0
M  CHG  1   6   1
M  END
> <s_m_source_file>
AV-unprocessed.smi

> <i_m_source_file_index>
155

> <i_lp_mmshare_version>
43012

> <i_f3d_flags>
0

> <s_epik_input>
W0NIM11OKFtDSDNdKVtDSDJdW0NIMl1OMVtDSDJdW0NIMl1bQ0gyXU4oW0NIMl1bQ0gyXTEpYyhuW2NIXW4yKWMoYzIzKW5bY0hdbjNbQ0gyXVtDQEhdKFtPSF0pW0NAQEhdNFtDSDJdW0NIMl1bQ0gyXU80

> <s_epik_cmdline>
J2VwaWtfcHl0aG9uJywgJy1waCcsICc3LjAnLCAnLXRuJywgJzgnLCAnLW1hJywgJzIwMCcsICctbWV0YWxfYmluZGluZycsICctaW1hZScsICc8aW5maWxlLm1hZT4nLCAnLW9tYWUnLCAnPG91dGZpbGUubWFlPic=

> <r_epik_Ionization_Penalty>
0.0619615

> <r_epik_Ionization_Penalty_Charging>
0.0161638

> <r_epik_Ionization_Penalty_Neutral>
0.0457976

> <r_epik_State_Penalty>
0.403408

> <r_epik_Charging_Adjusted_Penalty>
0.419572

> <i_epik_Tot_Q>
1

> <i_epik_Tot_abs_Q>
1

> <r_epik_Metal_State_Penalty>
0.404222

> <b_epik_Metal_Only>
0

> <s_lp_Force_Field>
OPLS_2005

> <r_lp_Energy>
55.0815

> <b_lp_Chiralities_Consistent>
1

> <s_lp_Variant>
AV-unprocessed.smi:155-7

> <Gold.Version>
5.8.1

> <Gold.Id.Protein>
6NUR|6NUR_protein|mol2

> <Gold.PLP.Fitness>
42.2659

> <Gold.PLP.PLP>
-39.3695

> <Gold.PLP.part.hbond>
-3.0533

> <Gold.PLP.part.metal>
0.0000

> <Gold.PLP.part.buried>
-4.9381

> <Gold.PLP.part.nonpolar>
-33.1735

> <Gold.PLP.part.repulsive>
0.1796

> <Gold.PLP.ligand.clash>
0.0000

> <Gold.PLP.ligand.torsion>
1.6009

> <Gold.PLP.Chemscore.Hbond>
1.9750

> <Gold.PLP.Chemscore.CHOScore>
0.0000

> <Gold.PLP.Chemscore.Metal>
0.0000

> <Gold.Chemscore.Hbonds>
donor molecule, donor type, donor heavy atom, donor atom, acceptor molecule, acceptor atom, score
      P1  H  7997  8009       L1    14  1.00
      P1  H 10752 10765       L1    12  0.93

> <Gold.PLP.Chemscore.Internal.Correction>
0.1732

> <Gold.Rescore>
     Score         DG    S(hbond)    S(metal)    S(lipo)     H(rot)  DE(clash)    DE(int)     intcor
     13.90     -15.57       1.38        0.00     104.45       2.63       0.12       1.55       ----

> <Gold.Chemscore.Fitness>
13.8980

> <Gold.Chemscore.DG>
-15.5659

> <Gold.Chemscore.ZeroCoef>
-5.4800

> <Gold.Chemscore.Hbond>
1.3783

> <Gold.Chemscore.Metal>
0.0000

> <Gold.Chemscore.Lipo>
104.4546

> <Gold.Chemscore.Internal_Hbond>
0.0000

> <Gold.Chemscore.DEClash>
0.1179

> <Gold.Chemscore.DEInternal>
1.5500

> <Gold.Chemscore.Rot>
2.6324

> <Gold.Chemscore.Internal.Correction>
   9.000000E+99

> <Gold.Chemscore.Hbonds>
donor molecule, donor type, donor heavy atom, donor atom, acceptor molecule, acceptor atom, score
      P1  H  7997  8009       L1    14  0.71
      P1  H 10752 10765       L1    12  0.30

> <Gold.Chemscore.Hbond.Weighted>
-4.6036

> <Gold.Chemscore.Metal.Weighted>
-0.0000

> <Gold.Chemscore.Lipo.Weighted>
-12.2212

> <Gold.Chemscore.Internal_Hbond.Weighted>
0.0000

> <Gold.Chemscore.DEClash.Weighted>
0.1179

> <Gold.Chemscore.DEInternal.Weighted>
1.5500

> <Gold.Chemscore.Rot.Weighted>
6.7389

> <Gold.Chemscore.Internal.Correction.Weighted>
   9.000000E+99

> <Gold.Protein.RotatedTorsions>
[ 6907 6896 6895 6894 ] final -128.83 input  -60.11 | X-H torsion
[ 7974 7965 7964 7962 ] final   75.66 input  175.53 | X-H torsion
[ 8008 7997 7996 7995 ] final -165.27 input   59.86 | X-H torsion
[ 10167 10162 10161 10158 ] final  -17.48 input  -65.29 | X-H torsion
[ 10718 10713 10712 10709 ] final   43.49 input   66.30 | X-H torsion
[ 10763 10752 10751 10750 ] final  179.50 input  -60.55 | X-H torsion
[ 11005 11000 10999 10996 ] final   12.31 input  -57.11 | X-H torsion

> <Gold.Protein.ActiveResidues>
 VAL166  LYS551  ARG553  GLY616  TRP617  ASP618  TYR619  PRO620  LYS621  CYS622 
 ASP623  PHE694  ASN695  SER759  ASP760  ASP761  ALA762  ILE779  LEU786  VAL792 
 PHE793  MET794  SER795  GLU796  ALA797  LYS798  CYS799  TRP800  GLU811  SER814 

> <Gold.Protein.RotatedAtoms>
  150.9221  133.6867  159.2829 H   0  0  0  0  0  0  0  0  0  0  0  0  # atno 6907 bound_to 6896
  151.4318  135.1009  159.9654 H   0  0  0  0  0  0  0  0  0  0  0  0  # atno 6908 bound_to 6896
  152.4985  133.8650  159.7324 H   0  0  0  0  0  0  0  0  0  0  0  0  # atno 6909 bound_to 6896
  145.7128  139.2620  143.1641 H   0  0  0  0  0  0  0  0  0  0  0  0  # atno 7974 bound_to 7965
  155.8474  140.0958  157.1696 H   0  0  0  0  0  0  0  0  0  0  0  0  # atno 8008 bound_to 7997
  154.3984  140.1389  156.3864 H   0  0  0  0  0  0  0  0  0  0  0  0  # atno 8009 bound_to 7997
  155.7998  140.3453  155.5399 H   0  0  0  0  0  0  0  0  0  0  0  0  # atno 8010 bound_to 7997
  140.7247  143.5011  150.9868 H   0  0  0  0  0  0  0  0  0  0  0  0  # atno 10167 bound_to 10162
  157.4164  130.7944  149.7476 H   0  0  0  0  0  0  0  0  0  0  0  0  # atno 10718 bound_to 10713
  154.5214  135.2794  155.1259 H   0  0  0  0  0  0  0  0  0  0  0  0  # atno 10763 bound_to 10752
  154.2815  135.6284  153.5352 H   0  0  0  0  0  0  0  0  0  0  0  0  # atno 10764 bound_to 10752
  152.9937  135.5652  154.5704 H   0  0  0  0  0  0  0  0  0  0  0  0  # atno 10765 bound_to 10752
  140.4934  134.0818  155.7776 H   0  0  0  0  0  0  0  0  0  0  0  0  # atno 11005 bound_to 11000
  146.0697  140.7882  142.9694 LP  0  0  0  0  0  0  0  0  0  0  0  0  # atno 17320 bound_to 7965
  144.6937  140.3323  143.7214 LP  0  0  0  0  0  0  0  0  0  0  0  0  # atno 17321 bound_to 7965
  139.8721  143.7180  152.3165 LP  0  0  0  0  0  0  0  0  0  0  0  0  # atno 17342 bound_to 10162
  139.7432  144.7554  151.0620 LP  0  0  0  0  0  0  0  0  0  0  0  0  # atno 17343 bound_to 10162
  155.9866  130.3973  150.3202 LP  0  0  0  0  0  0  0  0  0  0  0  0  # atno 17370 bound_to 10713
  157.1346  131.0280  151.2954 LP  0  0  0  0  0  0  0  0  0  0  0  0  # atno 17371 bound_to 10713
  141.1472  133.9033  157.2186 LP  0  0  0  0  0  0  0  0  0  0  0  0  # atno 17394 bound_to 11000
  139.9756  135.0115  156.9621 LP  0  0  0  0  0  0  0  0  0  0  0  0  # atno 17395 bound_to 11000

$$$$
