AV-unprocessed.smi:2632|AV-procd|sdf|10250|dock2
  -GOLD-   2272014263D 1   1.00000     0.00000
 Structure written by MMmdl.
 38 39  0  0  0  0  0  0  0  0  1 V2000
  145.3399  144.1629  153.3902 C   0  0  0  0  0  0  0  0  0  0  0  0
  145.1803  143.0553  154.2582 O   0  0  0  0  0  0  0  0  0  0  0  0
  145.9725  143.1620  155.4298 C   0  0  0  0  0  0  0  0  0  0  0  0
  146.2120  141.7607  156.0165 C   0  0  0  0  0  0  0  0  0  0  0  0
  147.5420  141.2541  155.7423 N   0  0  0  0  0  0  0  0  0  0  0  0
  148.4819  140.9625  156.7345 C   0  0  0  0  0  0  0  0  0  0  0  0
  148.1382  141.1428  158.0638 N   0  0  0  0  0  0  0  0  0  0  0  0
  149.7265  140.5248  156.4112 C   0  0  0  0  0  0  0  0  0  0  0  0
  151.0184  140.1482  157.5716 S   0  0  0  0  0  0  0  0  0  0  0  0
  151.3049  141.7370  158.2806 C   0  0  0  0  0  0  0  0  0  0  0  0
  152.1273  141.8622  159.4178 C   0  0  0  0  0  0  0  0  0  0  0  0
  152.3476  143.1307  159.9885 C   0  0  0  0  0  0  0  0  0  0  0  0
  151.7487  144.2757  159.4229 C   0  0  0  0  0  0  0  0  0  0  0  0
  151.9868  145.6377  160.0417 C   0  0  0  0  0  0  0  0  0  0  0  0
  150.9257  144.1457  158.2843 C   0  0  0  0  0  0  0  0  0  0  0  0
  150.7048  142.8776  157.7124 C   0  0  0  0  0  0  0  0  0  0  0  0
  150.1530  140.3303  155.0236 C   0  0  0  0  0  0  0  0  0  0  0  0
  151.2516  139.9283  154.6408 O   0  0  0  0  0  0  0  0  0  0  0  0
  149.1733  140.6534  154.0854 N   0  0  0  0  0  0  0  0  0  0  0  0
  147.8903  141.1151  154.3748 C   0  0  0  0  0  0  0  0  0  0  0  0
  147.1233  141.3845  153.4497 O   0  0  0  0  0  0  0  0  0  0  0  0
  149.4163  140.5485  153.1110 H   0  0  0  0  0  0  0  0  0  0  0  0
  144.7079  144.0328  152.5119 H   0  0  0  0  0  0  0  0  0  0  0  0
  146.3732  144.2539  153.0530 H   0  0  0  0  0  0  0  0  0  0  0  0
  145.0472  145.0928  153.8797 H   0  0  0  0  0  0  0  0  0  0  0  0
  146.9300  143.6218  155.1810 H   0  0  0  0  0  0  0  0  0  0  0  0
  145.4852  143.8073  156.1621 H   0  0  0  0  0  0  0  0  0  0  0  0
  146.0722  141.7497  157.0967 H   0  0  0  0  0  0  0  0  0  0  0  0
  145.4968  141.0327  155.6292 H   0  0  0  0  0  0  0  0  0  0  0  0
  147.2251  141.4798  158.3331 H   0  0  0  0  0  0  0  0  0  0  0  0
  148.7341  140.8200  158.8127 H   0  0  0  0  0  0  0  0  0  0  0  0
  152.5869  140.9890  159.8569 H   0  0  0  0  0  0  0  0  0  0  0  0
  152.9769  143.2221  160.8617 H   0  0  0  0  0  0  0  0  0  0  0  0
  151.7659  146.4364  159.3331 H   0  0  0  0  0  0  0  0  0  0  0  0
  153.0267  145.7413  160.3532 H   0  0  0  0  0  0  0  0  0  0  0  0
  151.3506  145.7699  160.9171 H   0  0  0  0  0  0  0  0  0  0  0  0
  150.4604  145.0166  157.8463 H   0  0  0  0  0  0  0  0  0  0  0  0
  150.0714  142.7820  156.8426 H   0  0  0  0  0  0  0  0  0  0  0  0
  1  2  1  0  0  0  0
  1 23  1  0  0  0  0
  1 24  1  0  0  0  0
  1 25  1  0  0  0  0
  2  3  1  0  0  0  0
  3  4  1  0  0  0  0
  3 26  1  0  0  0  0
  3 27  1  0  0  0  0
  4  5  1  0  0  0  0
  4 28  1  0  0  0  0
  4 29  1  0  0  0  0
  5 20  1  0  0  0  0
  5  6  1  0  0  0  0
  6  7  1  0  0  0  0
  6  8  2  0  0  0  0
  7 30  1  0  0  0  0
  7 31  1  0  0  0  0
  8  9  1  0  0  0  0
  8 17  1  0  0  0  0
  9 10  1  0  0  0  0
 10 16  1  0  0  0  0
 10 11  2  0  0  0  0
 11 12  1  0  0  0  0
 11 32  1  0  0  0  0
 12 13  2  0  0  0  0
 12 33  1  0  0  0  0
 13 14  1  0  0  0  0
 13 15  1  0  0  0  0
 14 34  1  0  0  0  0
 14 35  1  0  0  0  0
 14 36  1  0  0  0  0
 15 16  2  0  0  0  0
 15 37  1  0  0  0  0
 16 38  1  0  0  0  0
 17 18  2  0  0  0  0
 17 19  1  0  0  0  0
 19 22  1  0  0  0  0
 19 20  1  0  0  0  0
 20 21  2  0  0  0  0
M  END
> <s_m_source_file>
AV-unprocessed.smi

> <i_m_source_file_index>
2632

> <i_lp_mmshare_version>
43012

> <i_f3d_flags>
0

> <s_epik_input>
W0NIM11PW0NIMl1bQ0gyXW4xYyhbTkgyXSljKGMoPU8pW25IXWMxPU8pU2MyW2NIXVtjSF1jKFtDSDNdKVtjSF1bY0hdMg==

> <s_epik_cmdline>
J2VwaWtfcHl0aG9uJywgJy1waCcsICc3LjAnLCAnLXRuJywgJzgnLCAnLW1hJywgJzIwMCcsICctbWV0YWxfYmluZGluZycsICctaW1hZScsICc8aW5maWxlLm1hZT4nLCAnLW9tYWUnLCAnPG91dGZpbGUubWFlPic=

> <r_lp_tautomer_probability>
1

> <r_epik_Ionization_Penalty>
1.3786e-05

> <r_epik_Ionization_Penalty_Charging>
1.17844e-05

> <r_epik_Ionization_Penalty_Neutral>
2.00164e-06

> <r_epik_State_Penalty>
-0

> <r_epik_Charging_Adjusted_Penalty>
1.17844e-05

> <i_epik_Tot_Q>
0

> <i_epik_Tot_abs_Q>
0

> <r_epik_Metal_State_Penalty>
0.0115847

> <b_epik_Metal_Only>
0

> <s_epik_Chemistry_Notes>
This compound has an imine and may undergo hydrolysis.

> <s_lp_Force_Field>
OPLS_2005

> <r_lp_Energy>
18.7052

> <b_lp_Chiralities_Consistent>
1

> <s_lp_Variant>
AV-unprocessed.smi:2632-1

> <Gold.Version>
5.8.1

> <Gold.Id.Protein>
6NUR|6NUR_protein|mol2

> <Gold.PLP.Fitness>
42.8642

> <Gold.PLP.PLP>
-37.9567

> <Gold.PLP.part.hbond>
-1.9835

> <Gold.PLP.part.metal>
0.0000

> <Gold.PLP.part.buried>
-6.5045

> <Gold.PLP.part.nonpolar>
-32.2116

> <Gold.PLP.part.repulsive>
0.8365

> <Gold.PLP.ligand.clash>
0.0000

> <Gold.PLP.ligand.torsion>
0.5483

> <Gold.PLP.Chemscore.Hbond>
1.9913

> <Gold.PLP.Chemscore.CHOScore>
0.0000

> <Gold.PLP.Chemscore.Metal>
0.0000

> <Gold.Chemscore.Hbonds>
donor molecule, donor type, donor heavy atom, donor atom, acceptor molecule, acceptor atom, score
      L1  H    19    22       P1  7957  1.00
      P1  H  7989  7998       L1    18  0.99

> <Gold.PLP.Chemscore.Internal.Correction>
0.0304

> <Gold.Rescore>
     Score         DG    S(hbond)    S(metal)    S(lipo)     H(rot)  DE(clash)    DE(int)     intcor
     13.67     -17.11       1.76        0.00      93.24       2.02       0.05       3.39       ----

> <Gold.Chemscore.Fitness>
13.6692

> <Gold.Chemscore.DG>
-17.1087

> <Gold.Chemscore.ZeroCoef>
-5.4800

> <Gold.Chemscore.Hbond>
1.7623

> <Gold.Chemscore.Metal>
0.0000

> <Gold.Chemscore.Lipo>
93.2360

> <Gold.Chemscore.Internal_Hbond>
0.0000

> <Gold.Chemscore.DEClash>
0.0542

> <Gold.Chemscore.DEInternal>
3.3853

> <Gold.Chemscore.Rot>
2.0180

> <Gold.Chemscore.Internal.Correction>
   9.000000E+99

> <Gold.Chemscore.Hbonds>
donor molecule, donor type, donor heavy atom, donor atom, acceptor molecule, acceptor atom, score
      L1  H    19    22       P1  7957  0.94
      P1  H  7989  7998       L1    18  0.46

> <Gold.Chemscore.Hbond.Weighted>
-5.8862

> <Gold.Chemscore.Metal.Weighted>
-0.0000

> <Gold.Chemscore.Lipo.Weighted>
-10.9086

> <Gold.Chemscore.Internal_Hbond.Weighted>
0.0000

> <Gold.Chemscore.DEClash.Weighted>
0.0542

> <Gold.Chemscore.DEInternal.Weighted>
3.3853

> <Gold.Chemscore.Rot.Weighted>
5.1661

> <Gold.Chemscore.Internal.Correction.Weighted>
   9.000000E+99

> <Gold.Protein.RotatedTorsions>
[ 6907 6896 6895 6894 ] final  -47.06 input  -60.11 | X-H torsion
[ 7974 7965 7964 7962 ] final -171.51 input  175.53 | X-H torsion
[ 8008 7997 7996 7995 ] final   -8.75 input   59.86 | X-H torsion
[ 10167 10162 10161 10158 ] final  -59.72 input  -65.29 | X-H torsion
[ 10718 10713 10712 10709 ] final  -76.99 input   66.30 | X-H torsion
[ 10763 10752 10751 10750 ] final -107.63 input  -60.55 | X-H torsion
[ 11005 11000 10999 10996 ] final   76.44 input  -57.11 | X-H torsion

> <Gold.Protein.ActiveResidues>
 VAL166  LYS551  ARG553  GLY616  TRP617  ASP618  TYR619  PRO620  LYS621  CYS622 
 ASP623  PHE694  ASN695  SER759  ASP760  ASP761  ALA762  ILE779  LEU786  VAL792 
 PHE793  MET794  SER795  GLU796  ALA797  LYS798  CYS799  TRP800  GLU811  SER814 

> <Gold.Protein.RotatedAtoms>
  150.9047  134.8461  159.7383 H   0  0  0  0  0  0  0  0  0  0  0  0  # atno 6907 bound_to 6896
  152.4912  134.4449  159.9565 H   0  0  0  0  0  0  0  0  0  0  0  0  # atno 6908 bound_to 6896
  151.4498  133.3581  159.2829 H   0  0  0  0  0  0  0  0  0  0  0  0  # atno 6909 bound_to 6896
  144.7156  140.1912  143.6348 H   0  0  0  0  0  0  0  0  0  0  0  0  # atno 7974 bound_to 7965
  154.5712  140.2373  155.8190 H   0  0  0  0  0  0  0  0  0  0  0  0  # atno 8008 bound_to 7997
  156.2108  140.3026  155.9685 H   0  0  0  0  0  0  0  0  0  0  0  0  # atno 8009 bound_to 7997
  155.2710  140.0418  157.2997 H   0  0  0  0  0  0  0  0  0  0  0  0  # atno 8010 bound_to 7997
  140.6117  143.2389  151.5693 H   0  0  0  0  0  0  0  0  0  0  0  0  # atno 10167 bound_to 10162
  156.0158  130.4479  150.3277 H   0  0  0  0  0  0  0  0  0  0  0  0  # atno 10718 bound_to 10713
  154.8087  135.4667  154.0459 H   0  0  0  0  0  0  0  0  0  0  0  0  # atno 10763 bound_to 10752
  153.1908  135.6855  153.8362 H   0  0  0  0  0  0  0  0  0  0  0  0  # atno 10764 bound_to 10752
  153.7881  135.3247  155.3352 H   0  0  0  0  0  0  0  0  0  0  0  0  # atno 10765 bound_to 10752
  139.9298  134.7601  156.1396 H   0  0  0  0  0  0  0  0  0  0  0  0  # atno 11005 bound_to 11000
  145.8767  139.2300  143.1629 LP  0  0  0  0  0  0  0  0  0  0  0  0  # atno 17320 bound_to 7965
  146.0034  140.8500  143.0007 LP  0  0  0  0  0  0  0  0  0  0  0  0  # atno 17321 bound_to 7965
  139.5367  144.2762  152.1265 LP  0  0  0  0  0  0  0  0  0  0  0  0  # atno 17342 bound_to 10162
  140.1963  144.4702  150.6453 LP  0  0  0  0  0  0  0  0  0  0  0  0  # atno 17343 bound_to 10162
  157.1376  131.0288  151.2942 LP  0  0  0  0  0  0  0  0  0  0  0  0  # atno 17370 bound_to 10713
  157.4499  130.7592  149.7142 LP  0  0  0  0  0  0  0  0  0  0  0  0  # atno 17371 bound_to 10713
  141.0879  133.6726  156.2477 LP  0  0  0  0  0  0  0  0  0  0  0  0  # atno 17394 bound_to 11000
  140.6234  134.5338  157.5550 LP  0  0  0  0  0  0  0  0  0  0  0  0  # atno 17395 bound_to 11000

$$$$
