AV-unprocessed.smi:2784|AV-procd|sdf|10738|dock10
  -GOLD-   2272015173D 1   1.00000     0.00000
 Structure written by MMmdl.
 31 32  0  0  0  0  0  0  0  0  1 V2000
  152.9528  142.6054  162.4240 C   0  0  0  0  0  0  0  0  0  0  0  0
  151.8717  142.7192  161.5118 O   0  0  0  0  0  0  0  0  0  0  0  0
  152.2628  143.1613  160.2191 C   0  0  2  0  0  0  0  0  0  0  0  0
  152.2017  144.6903  160.1631 C   0  0  0  0  0  0  0  0  0  0  0  0
  151.9332  145.0049  158.6959 C   0  0  0  0  0  0  0  0  0  0  0  0
  150.9618  143.9095  158.2582 C   0  0  0  0  0  0  0  0  0  0  0  0
  151.3170  142.6676  159.1000 C   0  0  1  0  0  0  0  0  0  0  0  0
  151.9757  141.6504  158.2836 N   0  0  0  0  0  0  0  0  0  0  0  0
  151.4804  141.1127  157.1593 C   0  0  0  0  0  0  0  0  0  0  0  0
  150.3834  141.4539  156.7058 O   0  0  0  0  0  0  0  0  0  0  0  0
  152.3506  140.1547  156.6631 N   0  0  0  0  0  0  0  0  0  0  0  0
  151.9566  139.3908  155.6919 C   0  0  0  0  0  0  0  0  0  0  0  0
  152.6772  138.3967  155.0497 N   0  0  0  0  0  0  0  0  0  0  0  0
  151.8730  137.8374  154.0954 C   0  0  0  0  0  0  0  0  0  0  0  0
  150.6941  138.4517  154.1352 C   0  0  0  0  0  0  0  0  0  0  0  0
  150.7122  139.4090  155.1042 O   0  0  0  0  0  0  0  0  0  0  0  0
  152.5766  142.2863  163.3958 H   0  0  0  0  0  0  0  0  0  0  0  0
  153.4579  143.5625  162.5580 H   0  0  0  0  0  0  0  0  0  0  0  0
  153.6844  141.8682  162.0921 H   0  0  0  0  0  0  0  0  0  0  0  0
  153.2934  142.8623  160.0153 H   0  0  0  0  0  0  0  0  0  0  0  0
  151.3680  145.0527  160.7664 H   0  0  0  0  0  0  0  0  0  0  0  0
  153.1112  145.1608  160.5372 H   0  0  0  0  0  0  0  0  0  0  0  0
  151.5313  146.0074  158.5465 H   0  0  0  0  0  0  0  0  0  0  0  0
  152.8602  144.9266  158.1263 H   0  0  0  0  0  0  0  0  0  0  0  0
  149.9428  144.2200  158.4925 H   0  0  0  0  0  0  0  0  0  0  0  0
  151.0017  143.7340  157.1823 H   0  0  0  0  0  0  0  0  0  0  0  0
  150.4034  142.2603  159.5377 H   0  0  0  0  0  0  0  0  0  0  0  0
  152.8740  141.3214  158.6065 H   0  0  0  0  0  0  0  0  0  0  0  0
  153.6276  138.1024  155.2221 H   0  0  0  0  0  0  0  0  0  0  0  0
  152.2411  137.0361  153.4716 H   0  0  0  0  0  0  0  0  0  0  0  0
  149.7834  138.3300  153.5677 H   0  0  0  0  0  0  0  0  0  0  0  0
  1  2  1  0  0  0  0
  1 17  1  0  0  0  0
  1 18  1  0  0  0  0
  1 19  1  0  0  0  0
  2  3  1  0  0  0  0
  3  7  1  0  0  0  0
  3  4  1  0  0  0  0
  3 20  1  0  0  0  0
  4  5  1  0  0  0  0
  4 21  1  0  0  0  0
  4 22  1  0  0  0  0
  5  6  1  0  0  0  0
  5 23  1  0  0  0  0
  5 24  1  0  0  0  0
  6  7  1  0  0  0  0
  6 25  1  0  0  0  0
  6 26  1  0  0  0  0
  7  8  1  0  0  0  0
  7 27  1  0  0  0  0
  8 28  1  0  0  0  0
  8  9  1  0  0  0  0
  9 11  1  0  0  0  0
  9 10  2  0  0  0  0
 11 12  2  0  0  0  0
 12 16  1  0  0  0  0
 12 13  1  0  0  0  0
 13 29  1  0  0  0  0
 13 14  1  0  0  0  0
 14 30  1  0  0  0  0
 14 15  2  0  0  0  0
 15 31  1  0  0  0  0
 15 16  1  0  0  0  0
M  END
> <s_m_source_file>
AV-unprocessed.smi

> <i_m_source_file_index>
2784

> <i_lp_mmshare_version>
43012

> <i_f3d_flags>
0

> <s_epik_input>
W0NIM11PW0NAQEhdMVtDSDJdW0NIMl1bQ0gyXVtDQEhdMVtOSF1DKD1PKVtOSF1jMm5bY0hdW2NIXW8y

> <s_epik_cmdline>
J2VwaWtfcHl0aG9uJywgJy1waCcsICc3LjAnLCAnLXRuJywgJzgnLCAnLW1hJywgJzIwMCcsICctbWV0YWxfYmluZGluZycsICctaW1hZScsICc8aW5maWxlLm1hZT4nLCAnLW9tYWUnLCAnPG91dGZpbGUubWFlPic=

> <r_lp_tautomer_probability>
0.107061

> <r_epik_Ionization_Penalty>
1.29244

> <r_epik_Ionization_Penalty_Charging>
1.29208

> <r_epik_Ionization_Penalty_Neutral>
0.000359742

> <r_epik_State_Penalty>
2.59896

> <r_epik_Charging_Adjusted_Penalty>
3.89105

> <i_epik_Tot_Q>
0

> <i_epik_Tot_abs_Q>
0

> <r_epik_Metal_State_Penalty>
3.62496

> <b_epik_Metal_Only>
0

> <s_lp_Force_Field>
OPLS_2005

> <r_lp_Energy>
42.0746

> <b_lp_Chiralities_Consistent>
1

> <s_lp_Variant>
AV-unprocessed.smi:2784-13

> <Gold.Version>
5.8.1

> <Gold.Id.Protein>
6NUR|6NUR_protein|mol2

> <Gold.PLP.Fitness>
43.4531

> <Gold.PLP.PLP>
-35.8847

> <Gold.PLP.part.hbond>
-2.0000

> <Gold.PLP.part.metal>
0.0000

> <Gold.PLP.part.buried>
-5.8563

> <Gold.PLP.part.nonpolar>
-28.4223

> <Gold.PLP.part.repulsive>
0.5220

> <Gold.PLP.ligand.clash>
0.0000

> <Gold.PLP.ligand.torsion>
0.4005

> <Gold.PLP.Chemscore.Hbond>
1.3803

> <Gold.PLP.Chemscore.CHOScore>
1.4078

> <Gold.PLP.Chemscore.Metal>
0.0000

> <Gold.Chemscore.Hbonds>
donor molecule, donor type, donor heavy atom, donor atom, acceptor molecule, acceptor atom, score
      P1  H  6933  6945       L1     2  0.40
      P1  H  7989  7998       L1    16  0.02
      P1  H  7997  8009       L1    11  1.00
      L1  C    14    30       P1  7949  0.99
      L1  C    15    31       P1  7948  0.35

> <Gold.PLP.Chemscore.Internal.Correction>
0.0053

> <Gold.Rescore>
     Score         DG    S(hbond)    S(metal)    S(lipo)     H(rot)  DE(clash)    DE(int)     intcor
     12.76     -15.98       1.17        0.00      85.37       1.32       0.05       3.16       ----

> <Gold.Chemscore.Fitness>
12.7632

> <Gold.Chemscore.DG>
-15.9751

> <Gold.Chemscore.ZeroCoef>
-5.4800

> <Gold.Chemscore.Hbond>
1.1662

> <Gold.Chemscore.Metal>
0.0000

> <Gold.Chemscore.Lipo>
85.3694

> <Gold.Chemscore.Internal_Hbond>
0.0000

> <Gold.Chemscore.DEClash>
0.0477

> <Gold.Chemscore.DEInternal>
3.1641

> <Gold.Chemscore.Rot>
1.3235

> <Gold.Chemscore.Internal.Correction>
   9.000000E+99

> <Gold.Chemscore.Hbonds>
donor molecule, donor type, donor heavy atom, donor atom, acceptor molecule, acceptor atom, score
      P1  H  6933  6945       L1     2  0.34
      P1  H  7997  8009       L1    11  0.33

> <Gold.Chemscore.Hbond.Weighted>
-3.8951

> <Gold.Chemscore.Metal.Weighted>
-0.0000

> <Gold.Chemscore.Lipo.Weighted>
-9.9882

> <Gold.Chemscore.Internal_Hbond.Weighted>
0.0000

> <Gold.Chemscore.DEClash.Weighted>
0.0477

> <Gold.Chemscore.DEInternal.Weighted>
3.1641

> <Gold.Chemscore.Rot.Weighted>
3.3882

> <Gold.Chemscore.Internal.Correction.Weighted>
   9.000000E+99

> <Gold.Protein.RotatedTorsions>
[ 6907 6896 6895 6894 ] final  150.83 input  -60.11 | X-H torsion
[ 7974 7965 7964 7962 ] final -104.31 input  175.53 | X-H torsion
[ 8008 7997 7996 7995 ] final -167.26 input   59.86 | X-H torsion
[ 10167 10162 10161 10158 ] final   15.20 input  -65.29 | X-H torsion
[ 10718 10713 10712 10709 ] final  -38.28 input   66.30 | X-H torsion
[ 10763 10752 10751 10750 ] final  -93.62 input  -60.55 | X-H torsion
[ 11005 11000 10999 10996 ] final  -84.92 input  -57.11 | X-H torsion

> <Gold.Protein.ActiveResidues>
 VAL166  LYS551  ARG553  GLY616  TRP617  ASP618  TYR619  PRO620  LYS621  CYS622 
 ASP623  PHE694  ASN695  SER759  ASP760  ASP761  ALA762  ILE779  LEU786  VAL792 
 PHE793  MET794  SER795  GLU796  ALA797  LYS798  CYS799  TRP800  GLU811  SER814 

> <Gold.Protein.RotatedAtoms>
  152.1091  133.4291  159.4622 H   0  0  0  0  0  0  0  0  0  0  0  0  # atno 6907 bound_to 6896
  150.6866  134.2670  159.4581 H   0  0  0  0  0  0  0  0  0  0  0  0  # atno 6908 bound_to 6896
  152.0537  134.9637  160.0625 H   0  0  0  0  0  0  0  0  0  0  0  0  # atno 6909 bound_to 6896
  145.2448  140.9218  143.3129 H   0  0  0  0  0  0  0  0  0  0  0  0  # atno 7974 bound_to 7965
  155.8752  140.1000  157.1523 H   0  0  0  0  0  0  0  0  0  0  0  0  # atno 8008 bound_to 7997
  154.4000  140.1339  156.4191 H   0  0  0  0  0  0  0  0  0  0  0  0  # atno 8009 bound_to 7997
  155.7705  140.3461  155.5247 H   0  0  0  0  0  0  0  0  0  0  0  0  # atno 8010 bound_to 7997
  140.5883  143.8846  150.6850 H   0  0  0  0  0  0  0  0  0  0  0  0  # atno 10167 bound_to 10162
  156.3056  130.4246  149.8100 H   0  0  0  0  0  0  0  0  0  0  0  0  # atno 10718 bound_to 10713
  154.6976  135.5188  153.8481 H   0  0  0  0  0  0  0  0  0  0  0  0  # atno 10763 bound_to 10752
  153.0679  135.6591  154.0322 H   0  0  0  0  0  0  0  0  0  0  0  0  # atno 10764 bound_to 10752
  154.0186  135.2995  155.3363 H   0  0  0  0  0  0  0  0  0  0  0  0  # atno 10765 bound_to 10752
  141.1646  133.7371  156.8939 H   0  0  0  0  0  0  0  0  0  0  0  0  # atno 11005 bound_to 11000
  144.9556  139.4035  143.6381 LP  0  0  0  0  0  0  0  0  0  0  0  0  # atno 17320 bound_to 7965
  146.3319  139.8585  142.8860 LP  0  0  0  0  0  0  0  0  0  0  0  0  # atno 17321 bound_to 7965
  140.2362  143.3698  152.1525 LP  0  0  0  0  0  0  0  0  0  0  0  0  # atno 17342 bound_to 10162
  139.5211  144.7042  151.5404 LP  0  0  0  0  0  0  0  0  0  0  0  0  # atno 17343 bound_to 10162
  156.5462  130.8322  151.3285 LP  0  0  0  0  0  0  0  0  0  0  0  0  # atno 17370 bound_to 10713
  157.7379  130.9803  150.2218 LP  0  0  0  0  0  0  0  0  0  0  0  0  # atno 17371 bound_to 10713
  140.1629  134.9153  157.2738 LP  0  0  0  0  0  0  0  0  0  0  0  0  # atno 17394 bound_to 11000
  140.2590  134.3593  155.7413 LP  0  0  0  0  0  0  0  0  0  0  0  0  # atno 17395 bound_to 11000

$$$$
