AV-unprocessed.smi:1060|AV-procd|sdf|4656|dock8
  -GOLD-   22720 3163D 1   1.00000     0.00000
 Structure written by MMmdl.
 37 38  0  0  0  0  0  0  0  0  1 V2000
  150.3623  138.1843  155.8497 O   0  0  0  0  0  0  0  0  0  0  0  0
  149.5817  138.1146  156.7988 C   0  0  0  0  0  0  0  0  0  0  0  0
  148.7398  136.8535  157.0034 C   0  0  0  0  0  0  0  0  0  0  0  0
  148.9157  136.3699  158.3261 O   0  0  0  0  0  0  0  0  0  0  0  0
  147.9661  136.8998  159.2349 C   0  0  0  0  0  0  0  0  0  0  0  0
  148.0805  136.1462  160.5657 C   0  0  2  0  0  0  0  0  0  0  0  0
  147.2434  134.8718  160.6270 C   0  0  0  0  0  0  0  0  0  0  0  0
  147.0631  134.6528  162.1192 C   0  0  0  0  0  0  0  0  0  0  0  0
  147.3046  136.0381  162.7273 C   0  0  0  0  0  0  0  0  0  0  0  0
  147.5234  136.9090  161.6242 O   0  0  0  0  0  0  0  0  0  0  0  0
  149.3934  139.0751  157.7249 N   0  0  0  0  0  0  0  0  0  0  0  0
  149.9777  140.3492  157.8328 C   0  0  0  0  0  0  0  0  0  0  0  0
  150.8490  140.7313  158.8036 C   0  0  0  0  0  0  0  0  0  0  0  0
  151.4217  142.0663  158.8452 C   0  0  0  0  0  0  0  0  0  0  0  0
  152.3297  142.5067  159.9833 C   0  0  0  0  0  0  0  0  0  0  0  0
  151.7062  143.4124  160.7353 F   0  0  0  0  0  0  0  0  0  0  0  0
  152.6639  141.4779  160.7633 F   0  0  0  0  0  0  0  0  0  0  0  0
  153.4495  143.0571  159.5148 F   0  0  0  0  0  0  0  0  0  0  0  0
  151.0394  142.9143  157.8728 C   0  0  0  0  0  0  0  0  0  0  0  0
  150.1614  142.5239  156.8595 N   0  0  0  0  0  0  0  0  0  0  0  0
  149.6013  141.2969  156.7703 C   0  0  0  0  0  0  0  0  0  0  0  0
  148.8334  141.0312  155.8460 O   0  0  0  0  0  0  0  0  0  0  0  0
  149.9356  143.2134  156.1573 H   0  0  0  0  0  0  0  0  0  0  0  0
  147.6887  137.0865  156.8248 H   0  0  0  0  0  0  0  0  0  0  0  0
  149.0463  136.0979  156.2785 H   0  0  0  0  0  0  0  0  0  0  0  0
  148.1206  137.9696  159.3840 H   0  0  0  0  0  0  0  0  0  0  0  0
  146.9655  136.7656  158.8211 H   0  0  0  0  0  0  0  0  0  0  0  0
  149.1236  135.9138  160.7890 H   0  0  0  0  0  0  0  0  0  0  0  0
  146.2710  135.0378  160.1611 H   0  0  0  0  0  0  0  0  0  0  0  0
  147.7181  134.0274  160.1266 H   0  0  0  0  0  0  0  0  0  0  0  0
  146.0701  134.2668  162.3504 H   0  0  0  0  0  0  0  0  0  0  0  0
  147.7975  133.9419  162.4997 H   0  0  0  0  0  0  0  0  0  0  0  0
  146.4606  136.3828  163.3249 H   0  0  0  0  0  0  0  0  0  0  0  0
  148.1902  136.0286  163.3638 H   0  0  0  0  0  0  0  0  0  0  0  0
  148.7571  138.8452  158.4750 H   0  0  0  0  0  0  0  0  0  0  0  0
  151.1633  140.0470  159.5736 H   0  0  0  0  0  0  0  0  0  0  0  0
  151.3639  143.9418  157.7990 H   0  0  0  0  0  0  0  0  0  0  0  0
  1  2  2  0  0  0  0
  2  3  1  0  0  0  0
  2 11  1  0  0  0  0
  3  4  1  0  0  0  0
  3 24  1  0  0  0  0
  3 25  1  0  0  0  0
  4  5  1  0  0  0  0
  5  6  1  0  0  0  0
  5 26  1  0  0  0  0
  5 27  1  0  0  0  0
  6 10  1  0  0  0  0
  6  7  1  0  0  0  0
  6 28  1  0  0  0  0
  7  8  1  0  0  0  0
  7 29  1  0  0  0  0
  7 30  1  0  0  0  0
  8  9  1  0  0  0  0
  8 31  1  0  0  0  0
  8 32  1  0  0  0  0
  9 10  1  0  0  0  0
  9 33  1  0  0  0  0
  9 34  1  0  0  0  0
 11 12  1  0  0  0  0
 11 35  1  0  0  0  0
 12 21  1  0  0  0  0
 12 13  2  0  0  0  0
 13 14  1  0  0  0  0
 13 36  1  0  0  0  0
 14 15  1  0  0  0  0
 14 19  2  0  0  0  0
 15 16  1  0  0  0  0
 15 17  1  0  0  0  0
 15 18  1  0  0  0  0
 19 20  1  0  0  0  0
 19 37  1  0  0  0  0
 20 23  1  0  0  0  0
 20 21  1  0  0  0  0
 21 22  2  0  0  0  0
M  END
> <s_m_source_file>
AV-unprocessed.smi

> <i_m_source_file_index>
1060

> <i_lp_mmshare_version>
43012

> <i_f3d_flags>
0

> <s_epik_input>
Tz1jMVtuSF1bY0hdYyhDKEYpKEYpRilbY0hdYzFbTkhdQyg9TylbQ0gyXU9bQ0gyXVtDQEBIXTJbQ0gyXVtDSDJdW0NIMl1PMg==

> <s_epik_cmdline>
J2VwaWtfcHl0aG9uJywgJy1waCcsICc3LjAnLCAnLXRuJywgJzgnLCAnLW1hJywgJzIwMCcsICctbWV0YWxfYmluZGluZycsICctaW1hZScsICc8aW5maWxlLm1hZT4nLCAnLW9tYWUnLCAnPG91dGZpbGUubWFlPic=

> <r_lp_tautomer_probability>
0.999

> <r_epik_Ionization_Penalty>
0.00950091

> <r_epik_Ionization_Penalty_Charging>
0.00950081

> <r_epik_Ionization_Penalty_Neutral>
1.00143e-07

> <r_epik_State_Penalty>
0.00721819

> <r_epik_Charging_Adjusted_Penalty>
0.016719

> <i_epik_Tot_Q>
0

> <i_epik_Tot_abs_Q>
0

> <r_epik_Metal_State_Penalty>
0.323303

> <b_epik_Metal_Only>
0

> <s_lp_Force_Field>
OPLS_2005

> <r_lp_Energy>
32.1997

> <b_lp_Chiralities_Consistent>
1

> <s_lp_Variant>
AV-unprocessed.smi:1060-1

> <Gold.Version>
5.8.1

> <Gold.Id.Protein>
6NUR|6NUR_protein|mol2

> <Gold.PLP.Fitness>
45.3915

> <Gold.PLP.PLP>
-40.7155

> <Gold.PLP.part.hbond>
-3.0000

> <Gold.PLP.part.metal>
0.0000

> <Gold.PLP.part.buried>
-5.0655

> <Gold.PLP.part.nonpolar>
-31.3885

> <Gold.PLP.part.repulsive>
0.2538

> <Gold.PLP.ligand.clash>
0.0000

> <Gold.PLP.ligand.torsion>
1.3487

> <Gold.PLP.Chemscore.Hbond>
2.4157

> <Gold.PLP.Chemscore.CHOScore>
0.0000

> <Gold.PLP.Chemscore.Metal>
0.0000

> <Gold.Chemscore.Hbonds>
donor molecule, donor type, donor heavy atom, donor atom, acceptor molecule, acceptor atom, score
      L1  H    20    23       P1  8028  0.96
      P1  H  6931  6943       L1    10  0.99
      P1  H  6934  6947       L1    10  0.40

> <Gold.PLP.Chemscore.Internal.Correction>
0.1263

> <Gold.Rescore>
     Score         DG    S(hbond)    S(metal)    S(lipo)     H(rot)  DE(clash)    DE(int)     intcor
     14.00     -15.71       1.94        0.00      74.71       1.95       0.02       1.69       ----

> <Gold.Chemscore.Fitness>
13.9969

> <Gold.Chemscore.DG>
-15.7073

> <Gold.Chemscore.ZeroCoef>
-5.4800

> <Gold.Chemscore.Hbond>
1.9416

> <Gold.Chemscore.Metal>
0.0000

> <Gold.Chemscore.Lipo>
74.7114

> <Gold.Chemscore.Internal_Hbond>
0.0000

> <Gold.Chemscore.DEClash>
0.0174

> <Gold.Chemscore.DEInternal>
1.6930

> <Gold.Chemscore.Rot>
1.9527

> <Gold.Chemscore.Internal.Correction>
   9.000000E+99

> <Gold.Chemscore.Hbonds>
donor molecule, donor type, donor heavy atom, donor atom, acceptor molecule, acceptor atom, score
      L1  H    20    23       P1  8028  0.92
      P1  H  6931  6943       L1    10  0.20
      P1  H  6934  6947       L1    10  0.29

> <Gold.Chemscore.Hbond.Weighted>
-6.4851

> <Gold.Chemscore.Metal.Weighted>
-0.0000

> <Gold.Chemscore.Lipo.Weighted>
-8.7412

> <Gold.Chemscore.Internal_Hbond.Weighted>
0.0000

> <Gold.Chemscore.DEClash.Weighted>
0.0174

> <Gold.Chemscore.DEInternal.Weighted>
1.6930

> <Gold.Chemscore.Rot.Weighted>
4.9990

> <Gold.Chemscore.Internal.Correction.Weighted>
   9.000000E+99

> <Gold.Protein.RotatedTorsions>
[ 6907 6896 6895 6894 ] final  -72.26 input  -60.11 | X-H torsion
[ 7974 7965 7964 7962 ] final -107.57 input  175.53 | X-H torsion
[ 8008 7997 7996 7995 ] final    9.76 input   59.86 | X-H torsion
[ 10167 10162 10161 10158 ] final   28.39 input  -65.29 | X-H torsion
[ 10718 10713 10712 10709 ] final  -12.36 input   66.30 | X-H torsion
[ 10763 10752 10751 10750 ] final   13.75 input  -60.55 | X-H torsion
[ 11005 11000 10999 10996 ] final    9.17 input  -57.11 | X-H torsion

> <Gold.Protein.ActiveResidues>
 VAL166  LYS551  ARG553  GLY616  TRP617  ASP618  TYR619  PRO620  LYS621  CYS622 
 ASP623  PHE694  ASN695  SER759  ASP760  ASP761  ALA762  ILE779  LEU786  VAL792 
 PHE793  MET794  SER795  GLU796  ALA797  LYS798  CYS799  TRP800  GLU811  SER814 

> <Gold.Protein.RotatedAtoms>
  150.7177  134.5189  159.5643 H   0  0  0  0  0  0  0  0  0  0  0  0  # atno 6907 bound_to 6896
  152.2748  134.7890  160.0416 H   0  0  0  0  0  0  0  0  0  0  0  0  # atno 6908 bound_to 6896
  151.8557  133.3412  159.3724 H   0  0  0  0  0  0  0  0  0  0  0  0  # atno 6909 bound_to 6896
  145.2037  140.9067  143.3355 H   0  0  0  0  0  0  0  0  0  0  0  0  # atno 7974 bound_to 7965
  154.7843  140.2824  155.6040 H   0  0  0  0  0  0  0  0  0  0  0  0  # atno 8008 bound_to 7997
  156.2955  140.2617  156.2604 H   0  0  0  0  0  0  0  0  0  0  0  0  # atno 8009 bound_to 7997
  154.9746  140.0375  157.2240 H   0  0  0  0  0  0  0  0  0  0  0  0  # atno 8010 bound_to 7997
  140.4857  144.0547  150.6280 H   0  0  0  0  0  0  0  0  0  0  0  0  # atno 10167 bound_to 10162
  156.6458  130.4941  149.6079 H   0  0  0  0  0  0  0  0  0  0  0  0  # atno 10718 bound_to 10713
  153.1690  135.6809  153.8635 H   0  0  0  0  0  0  0  0  0  0  0  0  # atno 10763 bound_to 10752
  153.8005  135.3156  155.3390 H   0  0  0  0  0  0  0  0  0  0  0  0  # atno 10764 bound_to 10752
  154.7985  135.4792  154.0309 H   0  0  0  0  0  0  0  0  0  0  0  0  # atno 10765 bound_to 10752
  140.5287  134.0487  155.7867 H   0  0  0  0  0  0  0  0  0  0  0  0  # atno 11005 bound_to 11000
  144.9923  139.3677  143.6208 LP  0  0  0  0  0  0  0  0  0  0  0  0  # atno 17320 bound_to 7965
  146.3412  139.9111  142.8780 LP  0  0  0  0  0  0  0  0  0  0  0  0  # atno 17321 bound_to 7965
  140.3801  143.2807  152.0180 LP  0  0  0  0  0  0  0  0  0  0  0  0  # atno 17342 bound_to 10162
  139.4841  144.6161  151.7343 LP  0  0  0  0  0  0  0  0  0  0  0  0  # atno 17343 bound_to 10162
  156.2123  130.6686  151.1282 LP  0  0  0  0  0  0  0  0  0  0  0  0  # atno 17370 bound_to 10713
  157.7157  131.0711  150.6337 LP  0  0  0  0  0  0  0  0  0  0  0  0  # atno 17371 bound_to 10713
  141.1293  133.9329  157.2569 LP  0  0  0  0  0  0  0  0  0  0  0  0  # atno 17394 bound_to 11000
  139.9566  135.0164  156.9144 LP  0  0  0  0  0  0  0  0  0  0  0  0  # atno 17395 bound_to 11000

$$$$
