AV-unprocessed.smi:1401|AV-procd|sdf|5690|dock2
  -GOLD-   22720 5313D 1   1.00000     0.00000
 Structure written by MMmdl.
 48 50  0  0  0  0  0  0  0  0  1 V2000
  150.4113  139.2983  154.7396 C   0  0  0  0  0  0  0  0  0  0  0  0
  150.5430  138.7332  156.1281 C   0  0  0  0  0  0  0  0  0  0  0  0
  151.7442  138.5597  156.5727 N   0  0  0  0  0  0  0  0  0  0  0  0
  151.9774  138.0401  157.8313 N   0  0  0  0  0  0  0  0  0  0  0  0
  153.4016  137.8920  158.1646 C   0  0  0  0  0  0  0  0  0  0  0  0
  154.0169  139.1589  158.7762 C   0  0  0  0  0  0  0  0  0  0  0  0
  155.2347  139.2557  158.9347 O   0  0  0  0  0  0  0  0  0  0  0  0
  153.1531  140.1343  159.0969 N   0  0  0  0  0  0  0  0  0  0  0  0
  153.5100  141.4337  159.6623 C   0  0  2  0  0  0  0  0  0  0  0  0
  153.1086  141.4663  161.1485 C   0  0  0  0  0  0  0  0  0  0  0  0
  152.8350  142.5648  158.8485 C   0  0  1  0  0  0  0  0  0  0  0  0
  151.3207  142.3418  158.6142 C   0  0  0  0  0  0  0  0  0  0  0  0
  150.6847  143.6448  159.1300 C   0  0  2  0  0  0  0  0  0  0  0  0
  151.0427  144.8046  158.1833 C   0  0  0  0  0  0  0  0  0  0  0  0
  152.5348  145.0376  158.4851 C   0  0  0  0  0  0  0  0  0  0  0  0
  152.8423  143.9548  159.5374 C   0  0  1  0  0  0  0  0  0  0  0  0
  151.5495  143.9456  160.3467 C   0  0  0  0  0  0  0  0  0  0  0  0
  151.0032  137.6714  158.7122 C   0  0  0  0  0  0  0  0  0  0  0  0
  151.2574  137.2092  159.8256 O   0  0  0  0  0  0  0  0  0  0  0  0
  149.6448  137.8766  158.2044 C   0  0  0  0  0  0  0  0  0  0  0  0
  148.5939  137.5059  159.0963 C   0  0  0  0  0  0  0  0  0  0  0  0
  147.7455  137.2224  159.8310 N   0  0  0  0  0  0  0  0  0  0  0  0
  149.4030  138.3842  156.9697 C   0  0  0  0  0  0  0  0  0  0  0  0
  148.0122  138.6152  156.3949 C   0  0  0  0  0  0  0  0  0  0  0  0
  149.9088  140.2656  154.7625 H   0  0  0  0  0  0  0  0  0  0  0  0
  149.8321  138.6298  154.1022 H   0  0  0  0  0  0  0  0  0  0  0  0
  151.3831  139.4422  154.2648 H   0  0  0  0  0  0  0  0  0  0  0  0
  153.5389  137.0751  158.8755 H   0  0  0  0  0  0  0  0  0  0  0  0
  153.9661  137.6022  157.2760 H   0  0  0  0  0  0  0  0  0  0  0  0
  152.1713  139.9683  158.9296 H   0  0  0  0  0  0  0  0  0  0  0  0
  154.5920  141.5605  159.5949 H   0  0  0  0  0  0  0  0  0  0  0  0
  153.3918  142.4065  161.6212 H   0  0  0  0  0  0  0  0  0  0  0  0
  153.5970  140.6671  161.7068 H   0  0  0  0  0  0  0  0  0  0  0  0
  152.0318  141.3456  161.2711 H   0  0  0  0  0  0  0  0  0  0  0  0
  153.3476  142.6380  157.8878 H   0  0  0  0  0  0  0  0  0  0  0  0
  151.0871  142.1513  157.5661 H   0  0  0  0  0  0  0  0  0  0  0  0
  150.9455  141.4974  159.1936 H   0  0  0  0  0  0  0  0  0  0  0  0
  149.6169  143.5594  159.3336 H   0  0  0  0  0  0  0  0  0  0  0  0
  150.8632  144.5537  157.1372 H   0  0  0  0  0  0  0  0  0  0  0  0
  150.4599  145.6958  158.4197 H   0  0  0  0  0  0  0  0  0  0  0  0
  153.1603  144.9484  157.5962 H   0  0  0  0  0  0  0  0  0  0  0  0
  152.6886  146.0345  158.9004 H   0  0  0  0  0  0  0  0  0  0  0  0
  153.7393  144.1740  160.1163 H   0  0  0  0  0  0  0  0  0  0  0  0
  151.3230  144.9069  160.8114 H   0  0  0  0  0  0  0  0  0  0  0  0
  151.5157  143.1650  161.1085 H   0  0  0  0  0  0  0  0  0  0  0  0
  147.2243  138.3538  157.1006 H   0  0  0  0  0  0  0  0  0  0  0  0
  147.8639  138.0109  155.4996 H   0  0  0  0  0  0  0  0  0  0  0  0
  147.8768  139.6637  156.1283 H   0  0  0  0  0  0  0  0  0  0  0  0
  1  2  1  0  0  0  0
  1 25  1  0  0  0  0
  1 26  1  0  0  0  0
  1 27  1  0  0  0  0
  2 23  1  0  0  0  0
  2  3  2  0  0  0  0
  3  4  1  0  0  0  0
  4  5  1  0  0  0  0
  4 18  1  0  0  0  0
  5  6  1  0  0  0  0
  5 28  1  0  0  0  0
  5 29  1  0  0  0  0
  6  7  2  0  0  0  0
  6  8  1  0  0  0  0
  8  9  1  0  0  0  0
  8 30  1  0  0  0  0
  9 10  1  0  0  0  0
  9 11  1  0  0  0  0
  9 31  1  0  0  0  0
 10 32  1  0  0  0  0
 10 33  1  0  0  0  0
 10 34  1  0  0  0  0
 11 16  1  0  0  0  0
 11 12  1  0  0  0  0
 11 35  1  0  0  0  0
 12 13  1  0  0  0  0
 12 36  1  0  0  0  0
 12 37  1  0  0  0  0
 13 17  1  0  0  0  0
 13 14  1  0  0  0  0
 13 38  1  0  0  0  0
 14 15  1  0  0  0  0
 14 39  1  0  0  0  0
 14 40  1  0  0  0  0
 15 16  1  0  0  0  0
 15 41  1  0  0  0  0
 15 42  1  0  0  0  0
 16 17  1  0  0  0  0
 16 43  1  0  0  0  0
 17 44  1  0  0  0  0
 17 45  1  0  0  0  0
 18 19  2  0  0  0  0
 18 20  1  0  0  0  0
 20 21  1  0  0  0  0
 20 23  2  0  0  0  0
 21 22  3  0  0  0  0
 23 24  1  0  0  0  0
 24 46  1  0  0  0  0
 24 47  1  0  0  0  0
 24 48  1  0  0  0  0
M  END
> <s_m_source_file>
AV-unprocessed.smi

> <i_m_source_file_index>
1401

> <i_lp_mmshare_version>
43012

> <i_f3d_flags>
0

> <s_epik_input>
TiNDYyhjMVtDSDNdKWMoPU8pbihuYzFbQ0gzXSlbQ0gyXUMoPU8pW05IXVtDQEhdKFtDSDNdKVtDQEhdKFtDSDJdW0NASF0yMylbQ0BIXShbQ0gyXTMpW0NIMl1bQ0gyXTI=

> <s_epik_cmdline>
J2VwaWtfcHl0aG9uJywgJy1waCcsICc3LjAnLCAnLXRuJywgJzgnLCAnLW1hJywgJzIwMCcsICctbWV0YWxfYmluZGluZycsICctaW1hZScsICc8aW5maWxlLm1hZT4nLCAnLW9tYWUnLCAnPG91dGZpbGUubWFlPic=

> <r_lp_tautomer_probability>
1

> <r_epik_Ionization_Penalty>
2.16501e-08

> <r_epik_Ionization_Penalty_Charging>
2.29436e-11

> <r_epik_Ionization_Penalty_Neutral>
2.16271e-08

> <r_epik_State_Penalty>
-0

> <r_epik_Charging_Adjusted_Penalty>
2.29436e-11

> <i_epik_Tot_Q>
0

> <i_epik_Tot_abs_Q>
0

> <r_epik_Metal_State_Penalty>
-0

> <b_epik_Metal_Only>
0

> <s_lp_Force_Field>
OPLS_2005

> <r_lp_Energy>
65.9265

> <b_lp_Chiralities_Consistent>
1

> <s_lp_Variant>
AV-unprocessed.smi:1401-3

> <Gold.Version>
5.8.1

> <Gold.Id.Protein>
6NUR|6NUR_protein|mol2

> <Gold.PLP.Fitness>
45.1287

> <Gold.PLP.PLP>
-38.8743

> <Gold.PLP.part.hbond>
-3.0758

> <Gold.PLP.part.metal>
0.0000

> <Gold.PLP.part.buried>
-4.2806

> <Gold.PLP.part.nonpolar>
-31.5246

> <Gold.PLP.part.repulsive>
0.0956

> <Gold.PLP.ligand.clash>
0.0000

> <Gold.PLP.ligand.torsion>
0.7538

> <Gold.PLP.Chemscore.Hbond>
2.5727

> <Gold.PLP.Chemscore.CHOScore>
0.0000

> <Gold.PLP.Chemscore.Metal>
0.0000

> <Gold.Chemscore.Hbonds>
donor molecule, donor type, donor heavy atom, donor atom, acceptor molecule, acceptor atom, score
      P1  H  6896  6909       L1    19  0.89
      P1  H  6934  6947       L1    22  0.52
      P1  H  7997  8008       L1     7  0.85

> <Gold.PLP.Chemscore.Internal.Correction>
0.0440

> <Gold.Rescore>
     Score         DG    S(hbond)    S(metal)    S(lipo)     H(rot)  DE(clash)    DE(int)     intcor
     18.87     -21.16       1.67        0.00     121.97       1.63       0.75       1.54       ----

> <Gold.Chemscore.Fitness>
18.8686

> <Gold.Chemscore.DG>
-21.1611

> <Gold.Chemscore.ZeroCoef>
-5.4800

> <Gold.Chemscore.Hbond>
1.6703

> <Gold.Chemscore.Metal>
0.0000

> <Gold.Chemscore.Lipo>
121.9661

> <Gold.Chemscore.Internal_Hbond>
0.0000

> <Gold.Chemscore.DEClash>
0.7527

> <Gold.Chemscore.DEInternal>
1.5398

> <Gold.Chemscore.Rot>
1.6281

> <Gold.Chemscore.Internal.Correction>
   9.000000E+99

> <Gold.Chemscore.Hbonds>
donor molecule, donor type, donor heavy atom, donor atom, acceptor molecule, acceptor atom, score
      P1  H  6896  6909       L1    19  0.79
      P1  H  6934  6947       L1    22  0.31
      P1  H  7997  8008       L1     7  0.14

> <Gold.Chemscore.Hbond.Weighted>
-5.5789

> <Gold.Chemscore.Metal.Weighted>
-0.0000

> <Gold.Chemscore.Lipo.Weighted>
-14.2700

> <Gold.Chemscore.Internal_Hbond.Weighted>
0.0000

> <Gold.Chemscore.DEClash.Weighted>
0.7527

> <Gold.Chemscore.DEInternal.Weighted>
1.5398

> <Gold.Chemscore.Rot.Weighted>
4.1678

> <Gold.Chemscore.Internal.Correction.Weighted>
   9.000000E+99

> <Gold.Protein.RotatedTorsions>
[ 6907 6896 6895 6894 ] final  101.02 input  -60.11 | X-H torsion
[ 7974 7965 7964 7962 ] final  126.18 input  175.53 | X-H torsion
[ 8008 7997 7996 7995 ] final -151.14 input   59.86 | X-H torsion
[ 10167 10162 10161 10158 ] final  126.09 input  -65.29 | X-H torsion
[ 10718 10713 10712 10709 ] final -162.49 input   66.30 | X-H torsion
[ 10763 10752 10751 10750 ] final  -52.38 input  -60.55 | X-H torsion
[ 11005 11000 10999 10996 ] final  107.13 input  -57.11 | X-H torsion

> <Gold.Protein.ActiveResidues>
 VAL166  LYS551  ARG553  GLY616  TRP617  ASP618  TYR619  PRO620  LYS621  CYS622 
 ASP623  PHE694  ASN695  SER759  ASP760  ASP761  ALA762  ILE779  LEU786  VAL792 
 PHE793  MET794  SER795  GLU796  ALA797  LYS798  CYS799  TRP800  GLU811  SER814 

> <Gold.Protein.RotatedAtoms>
  152.5359  134.0189  159.7972 H   0  0  0  0  0  0  0  0  0  0  0  0  # atno 6907 bound_to 6896
  151.0378  133.5725  159.2661 H   0  0  0  0  0  0  0  0  0  0  0  0  # atno 6908 bound_to 6896
  151.2706  135.0690  159.9186 H   0  0  0  0  0  0  0  0  0  0  0  0  # atno 6909 bound_to 6896
  145.0646  139.3778  143.4988 H   0  0  0  0  0  0  0  0  0  0  0  0  # atno 7974 bound_to 7965
  155.6347  140.0695  157.2638 H   0  0  0  0  0  0  0  0  0  0  0  0  # atno 8008 bound_to 7997
  154.4197  140.1761  156.1558 H   0  0  0  0  0  0  0  0  0  0  0  0  # atno 8009 bound_to 7997
  155.9904  140.3345  155.6751 H   0  0  0  0  0  0  0  0  0  0  0  0  # atno 8010 bound_to 7997
  139.5650  144.6905  151.3936 H   0  0  0  0  0  0  0  0  0  0  0  0  # atno 10167 bound_to 10162
  156.6112  130.8851  151.2937 H   0  0  0  0  0  0  0  0  0  0  0  0  # atno 10718 bound_to 10713
  154.1418  135.6504  153.4944 H   0  0  0  0  0  0  0  0  0  0  0  0  # atno 10763 bound_to 10752
  153.0164  135.5317  154.6897 H   0  0  0  0  0  0  0  0  0  0  0  0  # atno 10764 bound_to 10752
  154.6161  135.2959  155.0350 H   0  0  0  0  0  0  0  0  0  0  0  0  # atno 10765 bound_to 10752
  139.8823  134.9391  156.5772 H   0  0  0  0  0  0  0  0  0  0  0  0  # atno 11005 bound_to 11000
  146.3526  140.0361  142.8646 LP  0  0  0  0  0  0  0  0  0  0  0  0  # atno 17320 bound_to 7965
  145.1367  140.9548  143.4513 LP  0  0  0  0  0  0  0  0  0  0  0  0  # atno 17321 bound_to 7965
  140.6933  143.7810  150.7288 LP  0  0  0  0  0  0  0  0  0  0  0  0  # atno 17342 bound_to 10162
  140.1299  143.4535  152.2261 LP  0  0  0  0  0  0  0  0  0  0  0  0  # atno 17343 bound_to 10162
  157.7253  130.9615  150.1611 LP  0  0  0  0  0  0  0  0  0  0  0  0  # atno 17370 bound_to 10713
  156.2388  130.3689  149.8361 LP  0  0  0  0  0  0  0  0  0  0  0  0  # atno 17371 bound_to 10713
  140.8054  133.8471  155.8763 LP  0  0  0  0  0  0  0  0  0  0  0  0  # atno 17394 bound_to 11000
  140.9554  134.1724  157.4695 LP  0  0  0  0  0  0  0  0  0  0  0  0  # atno 17395 bound_to 11000

$$$$
