AV-unprocessed.smi:249|AV-procd|sdf|1905|dock8
  -GOLD-   2262020583D 1   1.00000     0.00000
 Structure written by MMmdl.
 64 67  0  0  0  0  0  0  0  0  2 V2000
  146.5598  132.7932  150.9578 C   0  0  0  0  0  0  0  0  0  0  0  0
  146.4987  133.1892  152.4406 C   0  0  0  0  0  0  0  0  0  0  0  0
  147.7838  133.7333  152.9563 N   0  3  1  0  0  0  0  0  0  0  0  0
  147.6378  134.3404  154.3067 C   0  0  0  0  0  0  0  0  0  0  0  0
  148.9019  135.1147  154.7123 C   0  0  0  0  0  0  0  0  0  0  0  0
  150.1479  134.2094  154.6428 C   0  0  2  0  0  0  0  0  0  0  0  0
  151.3867  134.8663  155.0813 N   0  0  0  0  0  0  0  0  0  0  0  0
  152.2965  134.1243  155.9452 C   0  0  0  0  0  0  0  0  0  0  0  0
  151.4601  136.2098  155.2550 C   0  0  0  0  0  0  0  0  0  0  0  0
  152.0691  136.9901  154.3242 N   0  0  0  0  0  0  0  0  0  0  0  0
  152.1266  138.3153  154.4882 C   0  0  0  0  0  0  0  0  0  0  0  0
  151.6470  139.0533  155.4910 N   0  0  0  0  0  0  0  0  0  0  0  0
  151.0307  138.2748  156.4255 C   0  0  0  0  0  0  0  0  0  0  0  0
  150.8899  136.8593  156.3844 C   0  0  0  0  0  0  0  0  0  0  0  0
  150.2082  136.4178  157.5121 N   0  0  0  0  0  0  0  0  0  0  0  0
  149.9592  137.5105  158.1819 C   0  0  0  0  0  0  0  0  0  0  0  0
  150.4154  138.6711  157.5987 N   0  0  0  0  0  0  0  0  0  0  0  0
  150.2818  140.0203  158.1178 C   0  0  0  0  0  0  0  0  0  0  0  0
  150.8799  141.0959  157.1781 C   0  0  1  0  0  0  0  0  0  0  0  0
  149.9737  141.3921  155.9584 C   0  0  0  0  0  0  0  0  0  0  0  0
  148.7179  141.9015  156.3584 O   0  0  0  0  0  0  0  0  0  0  0  0
  151.2642  142.3792  157.9570 C   0  0  2  0  0  0  0  0  0  0  0  0
  152.3724  142.1998  158.9795 C   0  0  0  0  0  0  0  0  0  0  0  0
  152.1925  143.4290  159.8617 C   0  0  0  0  0  0  0  0  0  0  0  0
  150.7910  143.6699  159.8910 O   0  0  0  0  0  0  0  0  0  0  0  0
  150.1500  142.9411  158.8480 C   0  0  0  0  0  0  0  0  0  0  0  0
  150.2533  133.5589  153.2462 C   0  0  0  0  0  0  0  0  0  0  0  0
  148.9609  132.8150  152.8530 C   0  0  1  0  0  0  0  0  0  0  0  0
  148.7872  131.4902  153.6270 C   0  0  0  0  0  0  0  0  0  0  0  0
  145.5669  132.5327  150.5909 H   0  0  0  0  0  0  0  0  0  0  0  0
  147.1985  131.9261  150.7914 H   0  0  0  0  0  0  0  0  0  0  0  0
  146.9331  133.6140  150.3446 H   0  0  0  0  0  0  0  0  0  0  0  0
  145.7339  133.9601  152.5425 H   0  0  0  0  0  0  0  0  0  0  0  0
  146.1605  132.3511  153.0498 H   0  0  0  0  0  0  0  0  0  0  0  0
  146.7924  135.0293  154.3080 H   0  0  0  0  0  0  0  0  0  0  0  0
  147.4078  133.5704  155.0437 H   0  0  0  0  0  0  0  0  0  0  0  0
  149.0084  135.9770  154.0557 H   0  0  0  0  0  0  0  0  0  0  0  0
  148.7764  135.5103  155.7206 H   0  0  0  0  0  0  0  0  0  0  0  0
  149.9936  133.3995  155.3562 H   0  0  0  0  0  0  0  0  0  0  0  0
  153.3285  134.2481  155.6167 H   0  0  0  0  0  0  0  0  0  0  0  0
  152.0697  133.0579  155.9300 H   0  0  0  0  0  0  0  0  0  0  0  0
  152.2198  134.4692  156.9773 H   0  0  0  0  0  0  0  0  0  0  0  0
  152.6256  138.8634  153.7027 H   0  0  0  0  0  0  0  0  0  0  0  0
  149.4286  137.5011  159.1232 H   0  0  0  0  0  0  0  0  0  0  0  0
  149.2245  140.2191  158.2980 H   0  0  0  0  0  0  0  0  0  0  0  0
  150.7692  140.0467  159.0926 H   0  0  0  0  0  0  0  0  0  0  0  0
  151.8049  140.6816  156.7743 H   0  0  0  0  0  0  0  0  0  0  0  0
  150.4457  142.1111  155.2894 H   0  0  0  0  0  0  0  0  0  0  0  0
  149.8136  140.4938  155.3622 H   0  0  0  0  0  0  0  0  0  0  0  0
  148.6591  142.8044  156.0852 H   0  0  0  0  0  0  0  0  0  0  0  0
  151.5674  143.1571  157.2540 H   0  0  0  0  0  0  0  0  0  0  0  0
  152.2112  141.2928  159.5637 H   0  0  0  0  0  0  0  0  0  0  0  0
  153.3665  142.1499  158.5348 H   0  0  0  0  0  0  0  0  0  0  0  0
  152.5968  143.2885  160.8642 H   0  0  0  0  0  0  0  0  0  0  0  0
  152.6851  144.2931  159.4140 H   0  0  0  0  0  0  0  0  0  0  0  0
  149.4583  143.5776  158.2956 H   0  0  0  0  0  0  0  0  0  0  0  0
  149.5735  142.1349  159.3037 H   0  0  0  0  0  0  0  0  0  0  0  0
  150.4497  134.3157  152.4871 H   0  0  0  0  0  0  0  0  0  0  0  0
  151.1024  132.8749  153.2152 H   0  0  0  0  0  0  0  0  0  0  0  0
  149.0841  132.5508  151.8033 H   0  0  0  0  0  0  0  0  0  0  0  0
  149.6801  130.8717  153.5323 H   0  0  0  0  0  0  0  0  0  0  0  0
  147.9574  130.9004  153.2390 H   0  0  0  0  0  0  0  0  0  0  0  0
  148.6151  131.6469  154.6912 H   0  0  0  0  0  0  0  0  0  0  0  0
  148.0010  134.5088  152.3466 H   0  0  0  0  0  0  0  0  0  0  0  0
  1  2  1  0  0  0  0
  1 30  1  0  0  0  0
  1 31  1  0  0  0  0
  1 32  1  0  0  0  0
  2  3  1  0  0  0  0
  2 33  1  0  0  0  0
  2 34  1  0  0  0  0
  3 28  1  0  0  0  0
  3  4  1  0  0  0  0
  3 64  1  0  0  0  0
  4  5  1  0  0  0  0
  4 35  1  0  0  0  0
  4 36  1  0  0  0  0
  5  6  1  0  0  0  0
  5 37  1  0  0  0  0
  5 38  1  0  0  0  0
  6  7  1  0  0  0  0
  6 27  1  0  0  0  0
  6 39  1  0  0  0  0
  7  8  1  0  0  0  0
  7  9  1  0  0  0  0
  8 40  1  0  0  0  0
  8 41  1  0  0  0  0
  8 42  1  0  0  0  0
  9 14  1  0  0  0  0
  9 10  2  0  0  0  0
 10 11  1  0  0  0  0
 11 12  2  0  0  0  0
 11 43  1  0  0  0  0
 12 13  1  0  0  0  0
 13 17  1  0  0  0  0
 13 14  2  0  0  0  0
 14 15  1  0  0  0  0
 15 16  2  0  0  0  0
 16 17  1  0  0  0  0
 16 44  1  0  0  0  0
 17 18  1  0  0  0  0
 18 19  1  0  0  0  0
 18 45  1  0  0  0  0
 18 46  1  0  0  0  0
 19 20  1  0  0  0  0
 19 22  1  0  0  0  0
 19 47  1  0  0  0  0
 20 21  1  0  0  0  0
 20 48  1  0  0  0  0
 20 49  1  0  0  0  0
 21 50  1  0  0  0  0
 22 26  1  0  0  0  0
 22 23  1  0  0  0  0
 22 51  1  0  0  0  0
 23 24  1  0  0  0  0
 23 52  1  0  0  0  0
 23 53  1  0  0  0  0
 24 25  1  0  0  0  0
 24 54  1  0  0  0  0
 24 55  1  0  0  0  0
 25 26  1  0  0  0  0
 26 56  1  0  0  0  0
 26 57  1  0  0  0  0
 27 28  1  0  0  0  0
 27 58  1  0  0  0  0
 27 59  1  0  0  0  0
 28 29  1  0  0  0  0
 28 60  1  0  0  0  0
 29 61  1  0  0  0  0
 29 62  1  0  0  0  0
 29 63  1  0  0  0  0
M  CHG  1   3   1
M  END
> <s_m_source_file>
AV-unprocessed.smi

> <i_m_source_file_index>
249

> <i_lp_mmshare_version>
43012

> <i_f3d_flags>
0

> <s_epik_input>
W0NIM11bQ0gyXU4xW0NIMl1bQ0gyXVtDQEhdKFtDSDJdW0NASF0xW0NIM10pTihbQ0gzXSljKG5bY0hdbjIpYyhjMjMpbltjSF1uM1tDSDJdW0NASF0oW0NIMl1bT0hdKVtDQEBIXTRbQ0gyXVtDSDJdT1tDSDJdNA==

> <s_epik_cmdline>
J2VwaWtfcHl0aG9uJywgJy1waCcsICc3LjAnLCAnLXRuJywgJzgnLCAnLW1hJywgJzIwMCcsICctbWV0YWxfYmluZGluZycsICctaW1hZScsICc8aW5maWxlLm1hZT4nLCAnLW9tYWUnLCAnPG91dGZpbGUubWFlPic=

> <r_lp_tautomer_probability>
1

> <r_epik_Ionization_Penalty>
0.00294688

> <r_epik_Ionization_Penalty_Charging>
0.00169971

> <r_epik_Ionization_Penalty_Neutral>
0.00124717

> <r_epik_State_Penalty>
-0

> <r_epik_Charging_Adjusted_Penalty>
0.00169971

> <i_epik_Tot_Q>
1

> <i_epik_Tot_abs_Q>
1

> <r_epik_Metal_State_Penalty>
-0

> <b_epik_Metal_Only>
0

> <s_lp_Force_Field>
OPLS_2005

> <r_lp_Energy>
52.9117

> <b_lp_Chiralities_Consistent>
1

> <s_lp_Variant>
AV-unprocessed.smi:249-8

> <Gold.Version>
5.8.1

> <Gold.Id.Protein>
6NUR|6NUR_protein|mol2

> <Gold.PLP.Fitness>
51.9363

> <Gold.PLP.PLP>
-42.9194

> <Gold.PLP.part.hbond>
-2.9869

> <Gold.PLP.part.metal>
0.0000

> <Gold.PLP.part.buried>
-5.1400

> <Gold.PLP.part.nonpolar>
-34.9005

> <Gold.PLP.part.repulsive>
0.2006

> <Gold.PLP.ligand.clash>
0.0000

> <Gold.PLP.ligand.torsion>
2.1300

> <Gold.PLP.Chemscore.Hbond>
4.0000

> <Gold.PLP.Chemscore.CHOScore>
0.0000

> <Gold.PLP.Chemscore.Metal>
0.0000

> <Gold.Chemscore.Hbonds>
donor molecule, donor type, donor heavy atom, donor atom, acceptor molecule, acceptor atom, score
      L1  H     3    64       P1  7948  2.00
      L1  H    21    50       P1  8028  1.00

> <Gold.PLP.Chemscore.Internal.Correction>
1.2770

> <Gold.Rescore>
     Score         DG    S(hbond)    S(metal)    S(lipo)     H(rot)  DE(clash)    DE(int)     intcor
     15.29     -19.12       2.72        0.00      97.07       2.65       0.09       3.74       ----

> <Gold.Chemscore.Fitness>
15.2936

> <Gold.Chemscore.DG>
-19.1201

> <Gold.Chemscore.ZeroCoef>
-5.4800

> <Gold.Chemscore.Hbond>
2.7159

> <Gold.Chemscore.Metal>
0.0000

> <Gold.Chemscore.Lipo>
97.0682

> <Gold.Chemscore.Internal_Hbond>
0.0000

> <Gold.Chemscore.DEClash>
0.0876

> <Gold.Chemscore.DEInternal>
3.7390

> <Gold.Chemscore.Rot>
2.6515

> <Gold.Chemscore.Internal.Correction>
   9.000000E+99

> <Gold.Chemscore.Hbonds>
donor molecule, donor type, donor heavy atom, donor atom, acceptor molecule, acceptor atom, score
      L1  H     3    64       P1  7948  0.33
      L1  H    21    50       P1  8028  0.98

> <Gold.Chemscore.Hbond.Weighted>
-9.0711

> <Gold.Chemscore.Metal.Weighted>
-0.0000

> <Gold.Chemscore.Lipo.Weighted>
-11.3570

> <Gold.Chemscore.Internal_Hbond.Weighted>
0.0000

> <Gold.Chemscore.DEClash.Weighted>
0.0876

> <Gold.Chemscore.DEInternal.Weighted>
3.7390

> <Gold.Chemscore.Rot.Weighted>
6.7880

> <Gold.Chemscore.Internal.Correction.Weighted>
   9.000000E+99

> <Gold.Protein.RotatedTorsions>
[ 6907 6896 6895 6894 ] final  106.73 input  -60.11 | X-H torsion
[ 7974 7965 7964 7962 ] final   13.88 input  175.53 | X-H torsion
[ 8008 7997 7996 7995 ] final  141.33 input   59.86 | X-H torsion
[ 10167 10162 10161 10158 ] final  109.57 input  -65.29 | X-H torsion
[ 10718 10713 10712 10709 ] final  164.85 input   66.30 | X-H torsion
[ 10763 10752 10751 10750 ] final   68.31 input  -60.55 | X-H torsion
[ 11005 11000 10999 10996 ] final  -96.30 input  -57.11 | X-H torsion

> <Gold.Protein.ActiveResidues>
 VAL166  LYS551  ARG553  GLY616  TRP617  ASP618  TYR619  PRO620  LYS621  CYS622 
 ASP623  PHE694  ASN695  SER759  ASP760  ASP761  ALA762  ILE779  LEU786  VAL792 
 PHE793  MET794  SER795  GLU796  ALA797  LYS798  CYS799  TRP800  GLU811  SER814 

> <Gold.Protein.RotatedAtoms>
  152.5182  133.9339  159.7593 H   0  0  0  0  0  0  0  0  0  0  0  0  # atno 6907 bound_to 6896
  150.9683  133.6362  159.2749 H   0  0  0  0  0  0  0  0  0  0  0  0  # atno 6908 bound_to 6896
  151.3583  135.0904  159.9479 H   0  0  0  0  0  0  0  0  0  0  0  0  # atno 6909 bound_to 6896
  146.2319  139.9124  142.8522 H   0  0  0  0  0  0  0  0  0  0  0  0  # atno 7974 bound_to 7965
  156.2967  140.2318  156.4547 H   0  0  0  0  0  0  0  0  0  0  0  0  # atno 8008 bound_to 7997
  154.8070  140.0445  157.1336 H   0  0  0  0  0  0  0  0  0  0  0  0  # atno 8009 bound_to 7997
  154.9467  140.3036  155.5098 H   0  0  0  0  0  0  0  0  0  0  0  0  # atno 8010 bound_to 7997
  139.6756  144.7122  151.1608 H   0  0  0  0  0  0  0  0  0  0  0  0  # atno 10167 bound_to 10162
  157.0885  131.0411  151.2547 H   0  0  0  0  0  0  0  0  0  0  0  0  # atno 10718 bound_to 10713
  153.0229  135.5252  154.7114 H   0  0  0  0  0  0  0  0  0  0  0  0  # atno 10763 bound_to 10752
  154.6195  135.2887  155.0344 H   0  0  0  0  0  0  0  0  0  0  0  0  # atno 10764 bound_to 10752
  154.1335  135.6589  153.4979 H   0  0  0  0  0  0  0  0  0  0  0  0  # atno 10765 bound_to 10752
  141.1415  133.8088  157.0553 H   0  0  0  0  0  0  0  0  0  0  0  0  # atno 11005 bound_to 11000
  145.2217  140.9937  143.4042 LP  0  0  0  0  0  0  0  0  0  0  0  0  # atno 17320 bound_to 7965
  144.9605  139.3985  143.6358 LP  0  0  0  0  0  0  0  0  0  0  0  0  # atno 17321 bound_to 7965
  140.7634  143.5777  150.8928 LP  0  0  0  0  0  0  0  0  0  0  0  0  # atno 17342 bound_to 10162
  139.9446  143.6343  152.3045 LP  0  0  0  0  0  0  0  0  0  0  0  0  # atno 17343 bound_to 10162
  157.4741  130.7726  149.7351 LP  0  0  0  0  0  0  0  0  0  0  0  0  # atno 17370 bound_to 10713
  155.9904  130.3944  150.3028 LP  0  0  0  0  0  0  0  0  0  0  0  0  # atno 17371 bound_to 10713
  140.0606  134.9757  157.1297 LP  0  0  0  0  0  0  0  0  0  0  0  0  # atno 17394 bound_to 11000
  140.3854  134.2241  155.7168 LP  0  0  0  0  0  0  0  0  0  0  0  0  # atno 17395 bound_to 11000

$$$$
