AV-unprocessed.smi:2855|AV-procd|sdf|10979|dock4
  -GOLD-   2272015433D 1   1.00000     0.00000
 Structure written by MMmdl.
 47 48  0  0  0  0  0  0  0  0  1 V2000
  152.1965  143.4232  161.2110 C   0  0  0  0  0  0  0  0  0  0  0  0
  152.2000  144.0946  159.8260 C   0  0  2  0  0  0  0  0  0  0  0  0
  150.8709  144.8028  159.5059 C   0  0  0  0  0  0  0  0  0  0  0  0
  149.7380  143.8118  159.1904 C   0  0  0  0  0  0  0  0  0  0  0  0
  150.1122  142.8511  158.0369 C   0  0  2  0  0  0  0  0  0  0  0  0
  148.9524  141.8918  157.6301 C   0  0  0  0  0  0  0  0  0  0  0  0
  149.0587  141.4278  156.1671 C   0  0  0  0  0  0  0  0  0  0  0  0
  147.5454  142.4430  157.9261 C   0  0  0  0  0  0  0  0  0  0  0  0
  151.4437  142.1212  158.3635 C   0  0  1  0  0  0  0  0  0  0  0  0
  151.8567  141.2830  157.2406 N   0  0  0  0  0  0  0  0  0  0  0  0
  152.1939  139.9867  157.3141 C   0  0  0  0  0  0  0  0  0  0  0  0
  152.2538  139.3602  158.3727 O   0  0  0  0  0  0  0  0  0  0  0  0
  152.5284  139.3010  155.9828 C   0  0  0  0  0  0  0  0  0  0  0  0
  151.6649  138.1431  155.7103 N   0  0  0  0  0  0  0  0  0  0  0  0
  151.7026  137.0282  156.5359 C   0  0  0  0  0  0  0  0  0  0  0  0
  150.9299  135.9327  156.3446 C   0  0  0  0  0  0  0  0  0  0  0  0
  149.9936  135.8750  155.2271 C   0  0  0  0  0  0  0  0  0  0  0  0
  149.2538  134.9279  154.9698 O   0  0  0  0  0  0  0  0  0  0  0  0
  149.9829  137.0164  154.4214 N   0  0  0  0  0  0  0  0  0  0  0  0
  150.7756  138.1491  154.6131 C   0  0  0  0  0  0  0  0  0  0  0  0
  150.6852  139.1052  153.8432 O   0  0  0  0  0  0  0  0  0  0  0  0
  152.5733  143.1198  158.6931 C   0  0  0  0  0  0  0  0  0  0  0  0
  149.3474  137.0237  153.6368 H   0  0  0  0  0  0  0  0  0  0  0  0
  151.4483  142.6345  161.2856 H   0  0  0  0  0  0  0  0  0  0  0  0
  151.9862  144.1501  161.9958 H   0  0  0  0  0  0  0  0  0  0  0  0
  153.1666  142.9771  161.4311 H   0  0  0  0  0  0  0  0  0  0  0  0
  152.9751  144.8611  159.8618 H   0  0  0  0  0  0  0  0  0  0  0  0
  150.5803  145.4500  160.3341 H   0  0  0  0  0  0  0  0  0  0  0  0
  151.0142  145.4596  158.6468 H   0  0  0  0  0  0  0  0  0  0  0  0
  149.4926  143.2466  160.0889 H   0  0  0  0  0  0  0  0  0  0  0  0
  148.8453  144.3825  158.9374 H   0  0  0  0  0  0  0  0  0  0  0  0
  150.3103  143.4766  157.1645 H   0  0  0  0  0  0  0  0  0  0  0  0
  149.0556  140.9821  158.2217 H   0  0  0  0  0  0  0  0  0  0  0  0
  148.8613  142.2389  155.4668 H   0  0  0  0  0  0  0  0  0  0  0  0
  148.3372  140.6375  155.9577 H   0  0  0  0  0  0  0  0  0  0  0  0
  150.0496  141.0288  155.9497 H   0  0  0  0  0  0  0  0  0  0  0  0
  147.3331  143.3438  157.3508 H   0  0  0  0  0  0  0  0  0  0  0  0
  147.4163  142.6785  158.9822 H   0  0  0  0  0  0  0  0  0  0  0  0
  146.7821  141.7076  157.6706 H   0  0  0  0  0  0  0  0  0  0  0  0
  151.2819  141.4940  159.2406 H   0  0  0  0  0  0  0  0  0  0  0  0
  151.8470  141.7148  156.3281 H   0  0  0  0  0  0  0  0  0  0  0  0
  152.4559  140.0168  155.1610 H   0  0  0  0  0  0  0  0  0  0  0  0
  153.5765  139.0001  156.0130 H   0  0  0  0  0  0  0  0  0  0  0  0
  152.3782  137.0277  157.3795 H   0  0  0  0  0  0  0  0  0  0  0  0
  151.0042  135.0948  157.0228 H   0  0  0  0  0  0  0  0  0  0  0  0
  152.8110  143.6972  157.7983 H   0  0  0  0  0  0  0  0  0  0  0  0
  153.4858  142.5822  158.9542 H   0  0  0  0  0  0  0  0  0  0  0  0
  1  2  1  0  0  0  0
  1 24  1  0  0  0  0
  1 25  1  0  0  0  0
  1 26  1  0  0  0  0
  2 22  1  0  0  0  0
  2  3  1  0  0  0  0
  2 27  1  0  0  0  0
  3  4  1  0  0  0  0
  3 28  1  0  0  0  0
  3 29  1  0  0  0  0
  4  5  1  0  0  0  0
  4 30  1  0  0  0  0
  4 31  1  0  0  0  0
  5  6  1  0  0  0  0
  5  9  1  0  0  0  0
  5 32  1  0  0  0  0
  6  7  1  0  0  0  0
  6  8  1  0  0  0  0
  6 33  1  0  0  0  0
  7 34  1  0  0  0  0
  7 35  1  0  0  0  0
  7 36  1  0  0  0  0
  8 37  1  0  0  0  0
  8 38  1  0  0  0  0
  8 39  1  0  0  0  0
  9 10  1  0  0  0  0
  9 22  1  0  0  0  0
  9 40  1  0  0  0  0
 10 11  1  0  0  0  0
 10 41  1  0  0  0  0
 11 12  2  0  0  0  0
 11 13  1  0  0  0  0
 13 14  1  0  0  0  0
 13 42  1  0  0  0  0
 13 43  1  0  0  0  0
 14 20  1  0  0  0  0
 14 15  1  0  0  0  0
 15 16  2  0  0  0  0
 15 44  1  0  0  0  0
 16 17  1  0  0  0  0
 16 45  1  0  0  0  0
 17 18  2  0  0  0  0
 17 19  1  0  0  0  0
 19 23  1  0  0  0  0
 19 20  1  0  0  0  0
 20 21  2  0  0  0  0
 22 46  1  0  0  0  0
 22 47  1  0  0  0  0
M  END
> <s_m_source_file>
AV-unprocessed.smi

> <i_m_source_file_index>
2855

> <i_lp_mmshare_version>
43012

> <i_f3d_flags>
0

> <s_epik_input>
W0NIM11bQ0BASF0xW0NIMl1bQ0gyXVtDQEBIXShbQ0hdKFtDSDNdKVtDSDNdKVtDQEhdKFtDSDJdMSlbTkhdQyg9TylbQ0gyXW4yW2NIXVtjSF1jKD1PKVtuSF1jMj1P

> <s_epik_cmdline>
J2VwaWtfcHl0aG9uJywgJy1waCcsICc3LjAnLCAnLXRuJywgJzgnLCAnLW1hJywgJzIwMCcsICctbWV0YWxfYmluZGluZycsICctaW1hZScsICc8aW5maWxlLm1hZT4nLCAnLW9tYWUnLCAnPG91dGZpbGUubWFlPic=

> <r_lp_tautomer_probability>
0.999537

> <r_epik_Ionization_Penalty>
0.00306256

> <r_epik_Ionization_Penalty_Charging>
0.00306254

> <r_epik_Ionization_Penalty_Neutral>
2.0223e-08

> <r_epik_State_Penalty>
0.0021533

> <r_epik_Charging_Adjusted_Penalty>
0.00521583

> <i_epik_Tot_Q>
0

> <i_epik_Tot_abs_Q>
0

> <r_epik_Metal_State_Penalty>
0.362116

> <b_epik_Metal_Only>
0

> <s_lp_Force_Field>
OPLS_2005

> <r_lp_Energy>
15.7359

> <b_lp_Chiralities_Consistent>
1

> <s_lp_Variant>
AV-unprocessed.smi:2855-3

> <Gold.Version>
5.8.1

> <Gold.Id.Protein>
6NUR|6NUR_protein|mol2

> <Gold.PLP.Fitness>
38.0377

> <Gold.PLP.PLP>
-33.8160

> <Gold.PLP.part.hbond>
-2.0400

> <Gold.PLP.part.metal>
0.0000

> <Gold.PLP.part.buried>
-1.2380

> <Gold.PLP.part.nonpolar>
-30.7155

> <Gold.PLP.part.repulsive>
1.1861

> <Gold.PLP.ligand.clash>
0.0000

> <Gold.PLP.ligand.torsion>
0.7425

> <Gold.PLP.Chemscore.Hbond>
1.8800

> <Gold.PLP.Chemscore.CHOScore>
0.0000

> <Gold.PLP.Chemscore.Metal>
0.0000

> <Gold.Chemscore.Hbonds>
donor molecule, donor type, donor heavy atom, donor atom, acceptor molecule, acceptor atom, score
      L1  H    19    23       P1  7948  0.88
      P1  H  7989  7998       L1    21  1.00

> <Gold.PLP.Chemscore.Internal.Correction>
0.0668

> <Gold.Rescore>
     Score         DG    S(hbond)    S(metal)    S(lipo)     H(rot)  DE(clash)    DE(int)     intcor
     14.46     -16.74       1.55        0.00      92.70       1.85       0.41       1.87       ----

> <Gold.Chemscore.Fitness>
14.4623

> <Gold.Chemscore.DG>
-16.7430

> <Gold.Chemscore.ZeroCoef>
-5.4800

> <Gold.Chemscore.Hbond>
1.5458

> <Gold.Chemscore.Metal>
0.0000

> <Gold.Chemscore.Lipo>
92.7012

> <Gold.Chemscore.Internal_Hbond>
0.0000

> <Gold.Chemscore.DEClash>
0.4144

> <Gold.Chemscore.DEInternal>
1.8663

> <Gold.Chemscore.Rot>
1.8539

> <Gold.Chemscore.Internal.Correction>
   9.000000E+99

> <Gold.Chemscore.Hbonds>
donor molecule, donor type, donor heavy atom, donor atom, acceptor molecule, acceptor atom, score
      L1  H    19    23       P1  7948  0.83
      P1  H  7989  7998       L1    21  0.91

> <Gold.Chemscore.Hbond.Weighted>
-5.1630

> <Gold.Chemscore.Metal.Weighted>
-0.0000

> <Gold.Chemscore.Lipo.Weighted>
-10.8460

> <Gold.Chemscore.Internal_Hbond.Weighted>
0.0000

> <Gold.Chemscore.DEClash.Weighted>
0.4144

> <Gold.Chemscore.DEInternal.Weighted>
1.8663

> <Gold.Chemscore.Rot.Weighted>
4.7460

> <Gold.Chemscore.Internal.Correction.Weighted>
   9.000000E+99

> <Gold.Protein.RotatedTorsions>
[ 6907 6896 6895 6894 ] final  106.37 input  -60.11 | X-H torsion
[ 7974 7965 7964 7962 ] final  -46.07 input  175.53 | X-H torsion
[ 8008 7997 7996 7995 ] final  159.77 input   59.86 | X-H torsion
[ 10167 10162 10161 10158 ] final -105.98 input  -65.29 | X-H torsion
[ 10718 10713 10712 10709 ] final  154.22 input   66.30 | X-H torsion
[ 10763 10752 10751 10750 ] final  156.47 input  -60.55 | X-H torsion
[ 11005 11000 10999 10996 ] final    5.19 input  -57.11 | X-H torsion

> <Gold.Protein.ActiveResidues>
 VAL166  LYS551  ARG553  GLY616  TRP617  ASP618  TYR619  PRO620  LYS621  CYS622 
 ASP623  PHE694  ASN695  SER759  ASP760  ASP761  ALA762  ILE779  LEU786  VAL792 
 PHE793  MET794  SER795  GLU796  ALA797  LYS798  CYS799  TRP800  GLU811  SER814 

> <Gold.Protein.RotatedAtoms>
  152.5196  133.9391  159.7617 H   0  0  0  0  0  0  0  0  0  0  0  0  # atno 6907 bound_to 6896
  150.9724  133.6321  159.2742 H   0  0  0  0  0  0  0  0  0  0  0  0  # atno 6908 bound_to 6896
  151.3528  135.0893  159.9461 H   0  0  0  0  0  0  0  0  0  0  0  0  # atno 6909 bound_to 6896
  145.9756  140.7338  142.9389 H   0  0  0  0  0  0  0  0  0  0  0  0  # atno 7974 bound_to 7965
  156.2216  140.1822  156.7462 H   0  0  0  0  0  0  0  0  0  0  0  0  # atno 8008 bound_to 7997
  154.5875  140.0656  156.9220 H   0  0  0  0  0  0  0  0  0  0  0  0  # atno 8009 bound_to 7997
  155.2394  140.3321  155.4296 H   0  0  0  0  0  0  0  0  0  0  0  0  # atno 8010 bound_to 7997
  140.1927  143.3880  152.1194 H   0  0  0  0  0  0  0  0  0  0  0  0  # atno 10167 bound_to 10162
  157.2345  131.0746  151.1832 H   0  0  0  0  0  0  0  0  0  0  0  0  # atno 10718 bound_to 10713
  154.1849  135.2797  155.3040 H   0  0  0  0  0  0  0  0  0  0  0  0  # atno 10763 bound_to 10752
  154.5974  135.5540  153.7342 H   0  0  0  0  0  0  0  0  0  0  0  0  # atno 10764 bound_to 10752
  153.0128  135.6383  154.1988 H   0  0  0  0  0  0  0  0  0  0  0  0  # atno 10765 bound_to 10752
  140.5735  134.0080  155.8018 H   0  0  0  0  0  0  0  0  0  0  0  0  # atno 11005 bound_to 11000
  144.6848  140.2822  143.7290 LP  0  0  0  0  0  0  0  0  0  0  0  0  # atno 17320 bound_to 7965
  145.7843  139.1903  143.2139 LP  0  0  0  0  0  0  0  0  0  0  0  0  # atno 17321 bound_to 7965
  139.5249  144.7090  151.5266 LP  0  0  0  0  0  0  0  0  0  0  0  0  # atno 17342 bound_to 10162
  140.6445  143.8822  150.6724 LP  0  0  0  0  0  0  0  0  0  0  0  0  # atno 17343 bound_to 10162
  157.3443  130.7049  149.6401 LP  0  0  0  0  0  0  0  0  0  0  0  0  # atno 17370 bound_to 10713
  155.9673  130.4271  150.4727 LP  0  0  0  0  0  0  0  0  0  0  0  0  # atno 17371 bound_to 10713
  141.1041  133.9721  157.3028 LP  0  0  0  0  0  0  0  0  0  0  0  0  # atno 17394 bound_to 11000
  139.9350  135.0197  156.8527 LP  0  0  0  0  0  0  0  0  0  0  0  0  # atno 17395 bound_to 11000

$$$$
