AV-unprocessed.smi:1159|AV-procd|sdf|4915|dock3
  -GOLD-   22720 3493D 1   1.00000     0.00000
 Structure written by MMmdl.
 41 42  0  0  0  0  0  0  0  0  1 V2000
  146.0905  138.1294  154.5928 O   0  0  0  0  0  0  0  0  0  0  0  0
  146.9492  137.6223  153.8711 C   0  0  0  0  0  0  0  0  0  0  0  0
  148.2325  138.0150  153.7991 N   0  0  0  0  0  0  0  0  0  0  0  0
  148.8785  139.0461  154.5331 C   0  0  0  0  0  0  0  0  0  0  0  0
  148.2139  139.9195  155.4262 C   0  0  0  0  0  0  0  0  0  0  0  0
  148.9660  140.8919  156.1124 C   0  0  0  0  0  0  0  0  0  0  0  0
  150.3561  140.9589  155.8934 C   0  0  0  0  0  0  0  0  0  0  0  0
  151.0842  141.9171  156.5679 O   0  0  0  0  0  0  0  0  0  0  0  0
  150.4888  142.5571  157.6937 C   0  0  0  0  0  0  0  0  0  0  0  0
  151.4873  143.5536  158.2936 C   0  0  0  0  0  0  0  0  0  0  0  0
  151.9100  144.4017  157.3566 F   0  0  0  0  0  0  0  0  0  0  0  0
  150.8893  144.2480  159.2609 F   0  0  0  0  0  0  0  0  0  0  0  0
  152.5293  142.9059  158.8143 F   0  0  0  0  0  0  0  0  0  0  0  0
  151.0021  140.1157  155.0503 N   0  0  0  0  0  0  0  0  0  0  0  0
  150.2753  139.1844  154.3969 C   0  0  0  0  0  0  0  0  0  0  0  0
  146.7043  136.6098  153.0270 N   0  0  0  0  0  0  0  0  0  0  0  0
  145.4109  135.9516  152.8330 C   0  0  1  0  0  0  0  0  0  0  0  0
  145.5120  134.9170  151.6896 C   0  0  0  0  0  0  0  0  0  0  0  0
  144.1640  134.5662  151.0394 C   0  0  0  0  0  0  0  0  0  0  0  0
  143.1504  133.8964  151.9788 C   0  0  0  0  0  0  0  0  0  0  0  0
  142.6737  134.8085  153.1221 C   0  0  0  0  0  0  0  0  0  0  0  0
  143.6361  134.8880  154.2139 N   0  0  0  0  0  0  0  0  0  0  0  0
  144.8843  135.3778  154.1623 C   0  0  0  0  0  0  0  0  0  0  0  0
  145.6021  135.3633  155.1620 O   0  0  0  0  0  0  0  0  0  0  0  0
  148.7967  137.5666  153.0919 H   0  0  0  0  0  0  0  0  0  0  0  0
  147.1524  139.8542  155.6083 H   0  0  0  0  0  0  0  0  0  0  0  0
  148.4844  141.5728  156.7987 H   0  0  0  0  0  0  0  0  0  0  0  0
  149.5818  143.0840  157.3931 H   0  0  0  0  0  0  0  0  0  0  0  0
  150.2122  141.8171  158.4465 H   0  0  0  0  0  0  0  0  0  0  0  0
  150.8289  138.5318  153.7377 H   0  0  0  0  0  0  0  0  0  0  0  0
  147.4723  136.2543  152.4762 H   0  0  0  0  0  0  0  0  0  0  0  0
  144.7012  136.7262  152.5355 H   0  0  0  0  0  0  0  0  0  0  0  0
  146.1572  135.3069  150.9011 H   0  0  0  0  0  0  0  0  0  0  0  0
  146.0017  134.0101  152.0473 H   0  0  0  0  0  0  0  0  0  0  0  0
  143.7229  135.4660  150.6087 H   0  0  0  0  0  0  0  0  0  0  0  0
  144.3509  133.8973  150.1988 H   0  0  0  0  0  0  0  0  0  0  0  0
  142.2820  133.6100  151.3849 H   0  0  0  0  0  0  0  0  0  0  0  0
  143.5581  132.9668  152.3785 H   0  0  0  0  0  0  0  0  0  0  0  0
  142.4294  135.8065  152.7554 H   0  0  0  0  0  0  0  0  0  0  0  0
  141.7520  134.4031  153.5401 H   0  0  0  0  0  0  0  0  0  0  0  0
  143.3262  134.5231  155.1031 H   0  0  0  0  0  0  0  0  0  0  0  0
  1  2  2  0  0  0  0
  2  3  1  0  0  0  0
  2 16  1  0  0  0  0
  3  4  1  0  0  0  0
  3 25  1  0  0  0  0
  4 15  1  0  0  0  0
  4  5  2  0  0  0  0
  5  6  1  0  0  0  0
  5 26  1  0  0  0  0
  6  7  2  0  0  0  0
  6 27  1  0  0  0  0
  7  8  1  0  0  0  0
  7 14  1  0  0  0  0
  8  9  1  0  0  0  0
  9 10  1  0  0  0  0
  9 28  1  0  0  0  0
  9 29  1  0  0  0  0
 10 11  1  0  0  0  0
 10 12  1  0  0  0  0
 10 13  1  0  0  0  0
 14 15  2  0  0  0  0
 15 30  1  0  0  0  0
 16 17  1  0  0  0  0
 16 31  1  0  0  0  0
 17 23  1  0  0  0  0
 17 18  1  0  0  0  0
 17 32  1  0  0  0  0
 18 19  1  0  0  0  0
 18 33  1  0  0  0  0
 18 34  1  0  0  0  0
 19 20  1  0  0  0  0
 19 35  1  0  0  0  0
 19 36  1  0  0  0  0
 20 21  1  0  0  0  0
 20 37  1  0  0  0  0
 20 38  1  0  0  0  0
 21 22  1  0  0  0  0
 21 39  1  0  0  0  0
 21 40  1  0  0  0  0
 22 23  1  0  0  0  0
 22 41  1  0  0  0  0
 23 24  2  0  0  0  0
M  END
> <s_m_source_file>
AV-unprocessed.smi

> <i_m_source_file_index>
1159

> <i_lp_mmshare_version>
43012

> <i_f3d_flags>
0

> <s_epik_input>
Tz1DMVtOSF1bQ0gyXVtDSDJdW0NIMl1bQ0gyXVtDQEhdMVtOSF1DKD1PKVtOSF1jMltjSF1bY0hdYyhuW2NIXTIpT1tDSDJdQyhGKShGKUY=

> <s_epik_cmdline>
J2VwaWtfcHl0aG9uJywgJy1waCcsICc3LjAnLCAnLXRuJywgJzgnLCAnLW1hJywgJzIwMCcsICctbWV0YWxfYmluZGluZycsICctaW1hZScsICc8aW5maWxlLm1hZT4nLCAnLW9tYWUnLCAnPG91dGZpbGUubWFlPic=

> <r_lp_tautomer_probability>
1

> <r_epik_Ionization_Penalty>
3.53205e-05

> <r_epik_Ionization_Penalty_Charging>
0

> <r_epik_Ionization_Penalty_Neutral>
3.53205e-05

> <r_epik_State_Penalty>
-0

> <r_epik_Charging_Adjusted_Penalty>
0

> <i_epik_Tot_Q>
0

> <i_epik_Tot_abs_Q>
0

> <r_epik_Metal_State_Penalty>
-0

> <b_epik_Metal_Only>
0

> <s_lp_Force_Field>
OPLS_2005

> <r_lp_Energy>
11.134

> <b_lp_Chiralities_Consistent>
1

> <s_lp_Variant>
AV-unprocessed.smi:1159-2

> <Gold.Version>
5.8.1

> <Gold.Id.Protein>
6NUR|6NUR_protein|mol2

> <Gold.PLP.Fitness>
45.0590

> <Gold.PLP.PLP>
-37.4660

> <Gold.PLP.part.hbond>
-3.0302

> <Gold.PLP.part.metal>
0.0000

> <Gold.PLP.part.buried>
-6.2818

> <Gold.PLP.part.nonpolar>
-29.0354

> <Gold.PLP.part.repulsive>
0.2495

> <Gold.PLP.ligand.clash>
0.0000

> <Gold.PLP.ligand.torsion>
0.2618

> <Gold.PLP.Chemscore.Hbond>
2.6920

> <Gold.PLP.Chemscore.CHOScore>
0.0000

> <Gold.PLP.Chemscore.Metal>
0.0000

> <Gold.Chemscore.Hbonds>
donor molecule, donor type, donor heavy atom, donor atom, acceptor molecule, acceptor atom, score
      L1  H     3    25       P1  7948  0.99
      L1  H    16    31       P1  7948  1.00
      P1  H  7989  7998       L1    14  0.70

> <Gold.PLP.Chemscore.Internal.Correction>
0.0407

> <Gold.Rescore>
     Score         DG    S(hbond)    S(metal)    S(lipo)     H(rot)  DE(clash)    DE(int)     intcor
     10.35     -15.44       2.09        0.00      65.04       1.81       0.33       4.76       ----

> <Gold.Chemscore.Fitness>
10.3472

> <Gold.Chemscore.DG>
-15.4357

> <Gold.Chemscore.ZeroCoef>
-5.4800

> <Gold.Chemscore.Hbond>
2.0867

> <Gold.Chemscore.Metal>
0.0000

> <Gold.Chemscore.Lipo>
65.0425

> <Gold.Chemscore.Internal_Hbond>
0.0000

> <Gold.Chemscore.DEClash>
0.3307

> <Gold.Chemscore.DEInternal>
4.7578

> <Gold.Chemscore.Rot>
1.8062

> <Gold.Chemscore.Internal.Correction>
   9.000000E+99

> <Gold.Chemscore.Hbonds>
donor molecule, donor type, donor heavy atom, donor atom, acceptor molecule, acceptor atom, score
      L1  H     3    25       P1  7948  0.93
      L1  H    16    31       P1  7948  0.97
      P1  H  7989  7998       L1    14  0.07

> <Gold.Chemscore.Hbond.Weighted>
-6.9696

> <Gold.Chemscore.Metal.Weighted>
-0.0000

> <Gold.Chemscore.Lipo.Weighted>
-7.6100

> <Gold.Chemscore.Internal_Hbond.Weighted>
0.0000

> <Gold.Chemscore.DEClash.Weighted>
0.3307

> <Gold.Chemscore.DEInternal.Weighted>
4.7578

> <Gold.Chemscore.Rot.Weighted>
4.6238

> <Gold.Chemscore.Internal.Correction.Weighted>
   9.000000E+99

> <Gold.Protein.RotatedTorsions>
[ 6907 6896 6895 6894 ] final  128.27 input  -60.11 | X-H torsion
[ 7974 7965 7964 7962 ] final  154.62 input  175.53 | X-H torsion
[ 8008 7997 7996 7995 ] final   66.44 input   59.86 | X-H torsion
[ 10167 10162 10161 10158 ] final -104.96 input  -65.29 | X-H torsion
[ 10718 10713 10712 10709 ] final  138.36 input   66.30 | X-H torsion
[ 10763 10752 10751 10750 ] final  -28.26 input  -60.55 | X-H torsion
[ 11005 11000 10999 10996 ] final  -50.47 input  -57.11 | X-H torsion

> <Gold.Protein.ActiveResidues>
 VAL166  LYS551  ARG553  GLY616  TRP617  ASP618  TYR619  PRO620  LYS621  CYS622 
 ASP623  PHE694  ASN695  SER759  ASP760  ASP761  ALA762  ILE779  LEU786  VAL792 
 PHE793  MET794  SER795  GLU796  ALA797  LYS798  CYS799  TRP800  GLU811  SER814 

> <Gold.Protein.RotatedAtoms>
  152.3735  133.6450  159.6105 H   0  0  0  0  0  0  0  0  0  0  0  0  # atno 6907 bound_to 6896
  150.7686  133.9231  159.3413 H   0  0  0  0  0  0  0  0  0  0  0  0  # atno 6908 bound_to 6896
  151.7049  135.0924  160.0309 H   0  0  0  0  0  0  0  0  0  0  0  0  # atno 6909 bound_to 6896
  144.8077  139.6958  143.6155 H   0  0  0  0  0  0  0  0  0  0  0  0  # atno 7974 bound_to 7965
  155.6774  140.3496  155.4842 H   0  0  0  0  0  0  0  0  0  0  0  0  # atno 8008 bound_to 7997
  155.9636  140.1142  157.0896 H   0  0  0  0  0  0  0  0  0  0  0  0  # atno 8009 bound_to 7997
  154.4149  140.1171  156.5198 H   0  0  0  0  0  0  0  0  0  0  0  0  # atno 8010 bound_to 7997
  140.2037  143.3799  152.1108 H   0  0  0  0  0  0  0  0  0  0  0  0  # atno 10167 bound_to 10162
  157.4262  131.1044  151.0300 H   0  0  0  0  0  0  0  0  0  0  0  0  # atno 10718 bound_to 10713
  153.7455  135.6929  153.4957 H   0  0  0  0  0  0  0  0  0  0  0  0  # atno 10763 bound_to 10752
  153.2040  135.4426  155.0299 H   0  0  0  0  0  0  0  0  0  0  0  0  # atno 10764 bound_to 10752
  154.8206  135.3420  154.6978 H   0  0  0  0  0  0  0  0  0  0  0  0  # atno 10765 bound_to 10752
  141.0817  133.6652  156.3735 H   0  0  0  0  0  0  0  0  0  0  0  0  # atno 11005 bound_to 11000
  146.2371  139.5927  142.9516 LP  0  0  0  0  0  0  0  0  0  0  0  0  # atno 17320 bound_to 7965
  145.5399  141.0421  143.2336 LP  0  0  0  0  0  0  0  0  0  0  0  0  # atno 17321 bound_to 7965
  139.5207  144.7036  151.5420 LP  0  0  0  0  0  0  0  0  0  0  0  0  # atno 17342 bound_to 10162
  140.6372  143.8960  150.6658 LP  0  0  0  0  0  0  0  0  0  0  0  0  # atno 17343 bound_to 10162
  157.1213  130.6063  149.5506 LP  0  0  0  0  0  0  0  0  0  0  0  0  # atno 17370 bound_to 10713
  155.9897  130.4945  150.7226 LP  0  0  0  0  0  0  0  0  0  0  0  0  # atno 17371 bound_to 10713
  140.5453  134.6081  157.5392 LP  0  0  0  0  0  0  0  0  0  0  0  0  # atno 17394 bound_to 11000
  139.9632  134.7417  156.0193 LP  0  0  0  0  0  0  0  0  0  0  0  0  # atno 17395 bound_to 11000

$$$$
