AV-unprocessed.smi:1433|AV-procd|sdf|5845|dock8
  -GOLD-   22720 5513D 1   1.00000     0.00000
 Structure written by MMmdl.
 45 46  0  0  0  0  0  0  0  0  2 V2000
  148.6576  140.4834  154.2397 C   0  0  0  0  0  0  0  0  0  0  0  0
  149.4758  139.2011  154.0504 C   0  0  2  0  0  0  0  0  0  0  0  0
  148.8892  138.0158  154.8416 C   0  0  0  0  0  0  0  0  0  0  0  0
  149.7449  136.8051  154.7049 N   0  3  2  0  0  0  0  0  0  0  0  0
  149.2474  135.5664  155.3894 C   0  0  2  0  0  0  0  0  0  0  0  0
  150.3119  134.4497  155.2880 C   0  0  0  0  0  0  0  0  0  0  0  0
  147.8722  135.0682  154.8646 C   0  0  0  0  0  0  0  0  0  0  0  0
  147.9421  134.5783  153.4907 N   0  0  0  0  0  0  0  0  0  0  0  0
  147.3039  133.4971  153.0138 C   0  0  0  0  0  0  0  0  0  0  0  0
  146.6141  132.7536  153.7107 O   0  0  0  0  0  0  0  0  0  0  0  0
  147.4535  133.2196  151.5166 C   0  0  0  0  0  0  0  0  0  0  0  0
  146.1663  132.9569  150.8953 N   0  0  0  0  0  0  0  0  0  0  0  0
  145.8151  131.9208  150.0552 C   0  0  0  0  0  0  0  0  0  0  0  0
  144.5039  132.0971  149.7176 C   0  0  0  0  0  0  0  0  0  0  0  0
  144.1326  133.2826  150.4110 C   0  0  0  0  0  0  0  0  0  0  0  0
  145.1291  133.7950  151.1144 N   0  0  0  0  0  0  0  0  0  0  0  0
  151.1428  137.1440  155.0860 C   0  0  0  0  0  0  0  0  0  0  0  0
  151.6632  138.3448  154.2751 C   0  0  2  0  0  0  0  0  0  0  0  0
  153.0803  138.7540  154.6921 C   0  0  0  0  0  0  0  0  0  0  0  0
  150.8019  139.4539  154.4943 O   0  0  0  0  0  0  0  0  0  0  0  0
  147.6301  140.3477  153.9013 H   0  0  0  0  0  0  0  0  0  0  0  0
  149.0878  141.3081  153.6708 H   0  0  0  0  0  0  0  0  0  0  0  0
  148.6282  140.7823  155.2878 H   0  0  0  0  0  0  0  0  0  0  0  0
  149.4941  138.9584  152.9863 H   0  0  0  0  0  0  0  0  0  0  0  0
  148.7899  138.2754  155.8970 H   0  0  0  0  0  0  0  0  0  0  0  0
  147.8889  137.8277  154.4529 H   0  0  0  0  0  0  0  0  0  0  0  0
  149.1095  135.8078  156.4447 H   0  0  0  0  0  0  0  0  0  0  0  0
  150.0304  133.5688  155.8647 H   0  0  0  0  0  0  0  0  0  0  0  0
  151.2834  134.7566  155.6706 H   0  0  0  0  0  0  0  0  0  0  0  0
  150.4512  134.1351  154.2533 H   0  0  0  0  0  0  0  0  0  0  0  0
  147.5190  134.2242  155.4567 H   0  0  0  0  0  0  0  0  0  0  0  0
  147.1209  135.8540  154.9615 H   0  0  0  0  0  0  0  0  0  0  0  0
  148.4897  135.1240  152.8410 H   0  0  0  0  0  0  0  0  0  0  0  0
  147.9177  134.0769  151.0273 H   0  0  0  0  0  0  0  0  0  0  0  0
  148.1085  132.3622  151.3544 H   0  0  0  0  0  0  0  0  0  0  0  0
  146.5201  131.1539  149.7697 H   0  0  0  0  0  0  0  0  0  0  0  0
  143.9005  131.4735  149.0749 H   0  0  0  0  0  0  0  0  0  0  0  0
  143.1754  133.7828  150.4240 H   0  0  0  0  0  0  0  0  0  0  0  0
  151.1816  137.3720  156.1526 H   0  0  0  0  0  0  0  0  0  0  0  0
  151.8079  136.2980  154.9226 H   0  0  0  0  0  0  0  0  0  0  0  0
  151.6729  138.0971  153.2122 H   0  0  0  0  0  0  0  0  0  0  0  0
  153.7871  137.9389  154.5344 H   0  0  0  0  0  0  0  0  0  0  0  0
  153.1182  139.0311  155.7461 H   0  0  0  0  0  0  0  0  0  0  0  0
  153.4257  139.6095  154.1110 H   0  0  0  0  0  0  0  0  0  0  0  0
  149.7541  136.5911  153.7177 H   0  0  0  0  0  0  0  0  0  0  0  0
  1  2  1  0  0  0  0
  1 21  1  0  0  0  0
  1 22  1  0  0  0  0
  1 23  1  0  0  0  0
  2 20  1  0  0  0  0
  2  3  1  0  0  0  0
  2 24  1  0  0  0  0
  3  4  1  0  0  0  0
  3 25  1  0  0  0  0
  3 26  1  0  0  0  0
  4  5  1  0  0  0  0
  4 17  1  0  0  0  0
  4 45  1  0  0  0  0
  5  6  1  0  0  0  0
  5  7  1  0  0  0  0
  5 27  1  0  0  0  0
  6 28  1  0  0  0  0
  6 29  1  0  0  0  0
  6 30  1  0  0  0  0
  7  8  1  0  0  0  0
  7 31  1  0  0  0  0
  7 32  1  0  0  0  0
  8  9  1  0  0  0  0
  8 33  1  0  0  0  0
  9 10  2  0  0  0  0
  9 11  1  0  0  0  0
 11 12  1  0  0  0  0
 11 34  1  0  0  0  0
 11 35  1  0  0  0  0
 12 16  1  0  0  0  0
 12 13  1  0  0  0  0
 13 14  2  0  0  0  0
 13 36  1  0  0  0  0
 14 15  1  0  0  0  0
 14 37  1  0  0  0  0
 15 16  2  0  0  0  0
 15 38  1  0  0  0  0
 17 18  1  0  0  0  0
 17 39  1  0  0  0  0
 17 40  1  0  0  0  0
 18 19  1  0  0  0  0
 18 20  1  0  0  0  0
 18 41  1  0  0  0  0
 19 42  1  0  0  0  0
 19 43  1  0  0  0  0
 19 44  1  0  0  0  0
M  CHG  1   4   1
M  END
> <s_m_source_file>
AV-unprocessed.smi

> <i_m_source_file_index>
1433

> <i_lp_mmshare_version>
43012

> <i_f3d_flags>
0

> <s_epik_input>
W0NIM11bQ0BASF0xW0NIMl1OKFtDSDJdW0NASF0oTzEpW0NIM10pW0NASF0oW0NIM10pW0NIMl1bTkhdQyg9TylbQ0gyXW4yW2NIXVtjSF1bY0hdbjI=

> <s_epik_cmdline>
J2VwaWtfcHl0aG9uJywgJy1waCcsICc3LjAnLCAnLXRuJywgJzgnLCAnLW1hJywgJzIwMCcsICctbWV0YWxfYmluZGluZycsICctaW1hZScsICc8aW5maWxlLm1hZT4nLCAnLW9tYWUnLCAnPG91dGZpbGUubWFlPic=

> <r_lp_tautomer_probability>
1

> <r_epik_Ionization_Penalty>
0.748405

> <r_epik_Ionization_Penalty_Charging>
0.748396

> <r_epik_Ionization_Penalty_Neutral>
8.54426e-06

> <r_epik_State_Penalty>
0.775162

> <r_epik_Charging_Adjusted_Penalty>
1.52356

> <i_epik_Tot_Q>
1

> <i_epik_Tot_abs_Q>
1

> <r_epik_Metal_State_Penalty>
0.775167

> <b_epik_Metal_Only>
0

> <s_lp_Force_Field>
OPLS_2005

> <r_lp_Energy>
19.9081

> <b_lp_Chiralities_Consistent>
1

> <s_lp_Variant>
AV-unprocessed.smi:1433-11

> <Gold.Version>
5.8.1

> <Gold.Id.Protein>
6NUR|6NUR_protein|mol2

> <Gold.PLP.Fitness>
53.1962

> <Gold.PLP.PLP>
-36.0859

> <Gold.PLP.part.hbond>
-2.9780

> <Gold.PLP.part.metal>
0.0000

> <Gold.PLP.part.buried>
-2.6534

> <Gold.PLP.part.nonpolar>
-30.2436

> <Gold.PLP.part.repulsive>
0.3620

> <Gold.PLP.ligand.clash>
0.0000

> <Gold.PLP.ligand.torsion>
0.4735

> <Gold.PLP.Chemscore.Hbond>
4.0000

> <Gold.PLP.Chemscore.CHOScore>
1.9981

> <Gold.PLP.Chemscore.Metal>
0.0000

> <Gold.Chemscore.Hbonds>
donor molecule, donor type, donor heavy atom, donor atom, acceptor molecule, acceptor atom, score
      L1  H     4    45       P1  7948  2.00
      L1  H     8    33       P1  7948  0.96
      P1  H  7989  7998       L1    20  1.00
      L1  C    13    36       P1 10747  1.00
      L1  C    15    38       P1 10186  1.00

> <Gold.PLP.Chemscore.Internal.Correction>
0.0630

> <Gold.Rescore>
     Score         DG    S(hbond)    S(metal)    S(lipo)     H(rot)  DE(clash)    DE(int)     intcor
     17.47     -17.90       2.12        0.00      86.40       1.87       0.05       0.39       ----

> <Gold.Chemscore.Fitness>
17.4677

> <Gold.Chemscore.DG>
-17.9031

> <Gold.Chemscore.ZeroCoef>
-5.4800

> <Gold.Chemscore.Hbond>
2.1229

> <Gold.Chemscore.Metal>
0.0000

> <Gold.Chemscore.Lipo>
86.3990

> <Gold.Chemscore.Internal_Hbond>
0.0000

> <Gold.Chemscore.DEClash>
0.0481

> <Gold.Chemscore.DEInternal>
0.3872

> <Gold.Chemscore.Rot>
1.8657

> <Gold.Chemscore.Internal.Correction>
   9.000000E+99

> <Gold.Chemscore.Hbonds>
donor molecule, donor type, donor heavy atom, donor atom, acceptor molecule, acceptor atom, score
      L1  H     4    45       P1  7948  0.47
      L1  H     8    33       P1  7948  0.68
      P1  H  7989  7998       L1    20  0.32

> <Gold.Chemscore.Hbond.Weighted>
-7.0905

> <Gold.Chemscore.Metal.Weighted>
-0.0000

> <Gold.Chemscore.Lipo.Weighted>
-10.1087

> <Gold.Chemscore.Internal_Hbond.Weighted>
0.0000

> <Gold.Chemscore.DEClash.Weighted>
0.0481

> <Gold.Chemscore.DEInternal.Weighted>
0.3872

> <Gold.Chemscore.Rot.Weighted>
4.7761

> <Gold.Chemscore.Internal.Correction.Weighted>
   9.000000E+99

> <Gold.Protein.RotatedTorsions>
[ 6907 6896 6895 6894 ] final -141.65 input  -60.11 | X-H torsion
[ 7974 7965 7964 7962 ] final   83.63 input  175.53 | X-H torsion
[ 8008 7997 7996 7995 ] final -156.60 input   59.86 | X-H torsion
[ 10167 10162 10161 10158 ] final -161.68 input  -65.29 | X-H torsion
[ 10718 10713 10712 10709 ] final -134.23 input   66.30 | X-H torsion
[ 10763 10752 10751 10750 ] final   95.47 input  -60.55 | X-H torsion
[ 11005 11000 10999 10996 ] final   11.75 input  -57.11 | X-H torsion

> <Gold.Protein.ActiveResidues>
 VAL166  LYS551  ARG553  GLY616  TRP617  ASP618  TYR619  PRO620  LYS621  CYS622 
 ASP623  PHE694  ASN695  SER759  ASP760  ASP761  ALA762  ILE779  LEU786  VAL792 
 PHE793  MET794  SER795  GLU796  ALA797  LYS798  CYS799  TRP800  GLU811  SER814 

> <Gold.Protein.RotatedAtoms>
  151.0765  133.5424  159.2623 H   0  0  0  0  0  0  0  0  0  0  0  0  # atno 6907 bound_to 6896
  151.2343  135.0565  159.9010 H   0  0  0  0  0  0  0  0  0  0  0  0  # atno 6908 bound_to 6896
  152.5418  134.0550  159.8180 H   0  0  0  0  0  0  0  0  0  0  0  0  # atno 6909 bound_to 6896
  145.6094  139.2365  143.2201 H   0  0  0  0  0  0  0  0  0  0  0  0  # atno 7974 bound_to 7965
  155.7196  140.0788  157.2336 H   0  0  0  0  0  0  0  0  0  0  0  0  # atno 8008 bound_to 7997
  154.4047  140.1615  156.2441 H   0  0  0  0  0  0  0  0  0  0  0  0  # atno 8009 bound_to 7997
  155.9208  140.3398  155.6174 H   0  0  0  0  0  0  0  0  0  0  0  0  # atno 8010 bound_to 7997
  139.6447  144.0193  152.2118 H   0  0  0  0  0  0  0  0  0  0  0  0  # atno 10167 bound_to 10162
  156.2532  130.7166  151.1073 H   0  0  0  0  0  0  0  0  0  0  0  0  # atno 10718 bound_to 10713
  153.2536  135.4253  155.0822 H   0  0  0  0  0  0  0  0  0  0  0  0  # atno 10763 bound_to 10752
  154.8391  135.3432  154.6478 H   0  0  0  0  0  0  0  0  0  0  0  0  # atno 10764 bound_to 10752
  153.6899  135.7034  153.5150 H   0  0  0  0  0  0  0  0  0  0  0  0  # atno 10765 bound_to 10752
  140.4997  134.0758  155.7790 H   0  0  0  0  0  0  0  0  0  0  0  0  # atno 11005 bound_to 11000
  146.1516  140.6917  142.9319 LP  0  0  0  0  0  0  0  0  0  0  0  0  # atno 17320 bound_to 7965
  144.7276  140.4574  143.6961 LP  0  0  0  0  0  0  0  0  0  0  0  0  # atno 17321 bound_to 7965
  139.9892  144.6373  150.7830 LP  0  0  0  0  0  0  0  0  0  0  0  0  # atno 17342 bound_to 10162
  140.7509  143.2963  151.3197 LP  0  0  0  0  0  0  0  0  0  0  0  0  # atno 17343 bound_to 10162
  157.7223  131.0674  150.6085 LP  0  0  0  0  0  0  0  0  0  0  0  0  # atno 17370 bound_to 10713
  156.6166  130.4394  149.5838 LP  0  0  0  0  0  0  0  0  0  0  0  0  # atno 17371 bound_to 10713
  141.1442  133.9085  157.2255 LP  0  0  0  0  0  0  0  0  0  0  0  0  # atno 17394 bound_to 11000
  139.9721  135.0125  156.9537 LP  0  0  0  0  0  0  0  0  0  0  0  0  # atno 17395 bound_to 11000

$$$$
