AV-unprocessed.smi:2090|AV-procd|sdf|8532|dock4
  -GOLD-   2272011253D 1   1.00000     0.00000
 Structure written by MMmdl.
 42 43  0  0  0  0  0  0  0  0  2 V2000
  151.4636  141.1120  158.2517 C   0  0  0  0  0  0  0  0  0  0  0  0
  151.1951  140.5817  156.8853 C   0  0  0  0  0  0  0  0  0  0  0  0
  150.0689  140.5267  156.1134 C   0  0  0  0  0  0  0  0  0  0  0  0
  150.5271  139.8998  154.9243 C   0  0  0  0  0  0  0  0  0  0  0  0
  149.6447  139.6619  153.8400 N   0  0  0  0  0  0  0  0  0  0  0  0
  148.3873  139.1916  153.8984 C   0  0  0  0  0  0  0  0  0  0  0  0
  147.7776  138.9192  154.9331 O   0  0  0  0  0  0  0  0  0  0  0  0
  147.8615  139.0428  152.6737 N   0  0  0  0  0  0  0  0  0  0  0  0
  146.5218  138.5345  152.4017 C   0  0  0  0  0  0  0  0  0  0  0  0
  146.1795  137.3355  153.3077 C   0  0  0  0  0  0  0  0  0  0  0  0
  146.0224  136.0724  152.5439 N   0  3  2  0  0  0  0  0  0  0  0  0
  145.0061  136.1937  151.4667 C   0  0  0  0  0  0  0  0  0  0  0  0
  144.9581  134.9240  150.6004 C   0  0  0  0  0  0  0  0  0  0  0  0
  144.6804  133.6767  151.4554 C   0  0  1  0  0  0  0  0  0  0  0  0
  144.6544  132.3984  150.6061 C   0  0  0  0  0  0  0  0  0  0  0  0
  145.7255  133.5938  152.5803 C   0  0  0  0  0  0  0  0  0  0  0  0
  145.7608  134.8900  153.4075 C   0  0  0  0  0  0  0  0  0  0  0  0
  151.8152  139.5954  154.9679 N   0  0  0  0  0  0  0  0  0  0  0  0
  152.2499  140.0302  156.2255 O   0  0  0  0  0  0  0  0  0  0  0  0
  150.6198  141.6993  158.6142 H   0  0  0  0  0  0  0  0  0  0  0  0
  152.3456  141.7528  158.2520 H   0  0  0  0  0  0  0  0  0  0  0  0
  151.6360  140.2972  158.9547 H   0  0  0  0  0  0  0  0  0  0  0  0
  149.0797  140.8825  156.3613 H   0  0  0  0  0  0  0  0  0  0  0  0
  150.0186  139.8514  152.9221 H   0  0  0  0  0  0  0  0  0  0  0  0
  148.4272  139.2944  151.8760 H   0  0  0  0  0  0  0  0  0  0  0  0
  145.7887  139.3328  152.5297 H   0  0  0  0  0  0  0  0  0  0  0  0
  146.4920  138.2503  151.3506 H   0  0  0  0  0  0  0  0  0  0  0  0
  146.9345  137.2083  154.0853 H   0  0  0  0  0  0  0  0  0  0  0  0
  145.2426  137.5515  153.8234 H   0  0  0  0  0  0  0  0  0  0  0  0
  144.0270  136.3872  151.9080 H   0  0  0  0  0  0  0  0  0  0  0  0
  145.2412  137.0478  150.8305 H   0  0  0  0  0  0  0  0  0  0  0  0
  144.1887  135.0319  149.8351 H   0  0  0  0  0  0  0  0  0  0  0  0
  145.9051  134.8085  150.0711 H   0  0  0  0  0  0  0  0  0  0  0  0
  143.6965  133.7903  151.9129 H   0  0  0  0  0  0  0  0  0  0  0  0
  145.6151  132.2224  150.1210 H   0  0  0  0  0  0  0  0  0  0  0  0
  143.8948  132.4607  149.8263 H   0  0  0  0  0  0  0  0  0  0  0  0
  144.4259  131.5257  151.2188 H   0  0  0  0  0  0  0  0  0  0  0  0
  145.5049  132.7485  153.2332 H   0  0  0  0  0  0  0  0  0  0  0  0
  146.7130  133.4063  152.1562 H   0  0  0  0  0  0  0  0  0  0  0  0
  146.5329  134.7968  154.1700 H   0  0  0  0  0  0  0  0  0  0  0  0
  144.8140  135.0245  153.9330 H   0  0  0  0  0  0  0  0  0  0  0  0
  146.9041  135.9102  152.0784 H   0  0  0  0  0  0  0  0  0  0  0  0
  1  2  1  0  0  0  0
  1 20  1  0  0  0  0
  1 21  1  0  0  0  0
  1 22  1  0  0  0  0
  2 19  1  0  0  0  0
  2  3  2  0  0  0  0
  3  4  1  0  0  0  0
  3 23  1  0  0  0  0
  4  5  1  0  0  0  0
  4 18  2  0  0  0  0
  5  6  1  0  0  0  0
  5 24  1  0  0  0  0
  6  7  2  0  0  0  0
  6  8  1  0  0  0  0
  8  9  1  0  0  0  0
  8 25  1  0  0  0  0
  9 10  1  0  0  0  0
  9 26  1  0  0  0  0
  9 27  1  0  0  0  0
 10 11  1  0  0  0  0
 10 28  1  0  0  0  0
 10 29  1  0  0  0  0
 11 17  1  0  0  0  0
 11 12  1  0  0  0  0
 11 42  1  0  0  0  0
 12 13  1  0  0  0  0
 12 30  1  0  0  0  0
 12 31  1  0  0  0  0
 13 14  1  0  0  0  0
 13 32  1  0  0  0  0
 13 33  1  0  0  0  0
 14 15  1  0  0  0  0
 14 16  1  0  0  0  0
 14 34  1  0  0  0  0
 15 35  1  0  0  0  0
 15 36  1  0  0  0  0
 15 37  1  0  0  0  0
 16 17  1  0  0  0  0
 16 38  1  0  0  0  0
 16 39  1  0  0  0  0
 17 40  1  0  0  0  0
 17 41  1  0  0  0  0
 18 19  1  0  0  0  0
M  CHG  1  11   1
M  END
> <s_m_source_file>
AV-unprocessed.smi

> <i_m_source_file_index>
2090

> <i_lp_mmshare_version>
43012

> <i_f3d_flags>
0

> <s_epik_input>
W0NIM11jMVtjSF1jKG5vMSlbTkhdQyg9TylbTkhdW0NIMl1bQ0gyXU4yW0NIMl1bQ0gyXVtDSF0oW0NIM10pW0NIMl1bQ0gyXTI=

> <s_epik_cmdline>
J2VwaWtfcHl0aG9uJywgJy1waCcsICc3LjAnLCAnLXRuJywgJzgnLCAnLW1hJywgJzIwMCcsICctbWV0YWxfYmluZGluZycsICctaW1hZScsICc8aW5maWxlLm1hZT4nLCAnLW9tYWUnLCAnPG91dGZpbGUubWFlPic=

> <r_epik_Ionization_Penalty>
0.00176265

> <r_epik_Ionization_Penalty_Charging>
0.00172695

> <r_epik_Ionization_Penalty_Neutral>
3.56992e-05

> <r_epik_State_Penalty>
0.00116803

> <r_epik_Charging_Adjusted_Penalty>
0.00289498

> <i_epik_Tot_Q>
1

> <i_epik_Tot_abs_Q>
1

> <r_epik_Metal_State_Penalty>
0.0215312

> <b_epik_Metal_Only>
0

> <s_lp_Force_Field>
OPLS_2005

> <r_lp_Energy>
12.7246

> <b_lp_Chiralities_Consistent>
1

> <s_lp_Variant>
AV-unprocessed.smi:2090-1

> <Gold.Version>
5.8.1

> <Gold.Id.Protein>
6NUR|6NUR_protein|mol2

> <Gold.PLP.Fitness>
45.1785

> <Gold.PLP.PLP>
-31.8747

> <Gold.PLP.part.hbond>
-5.7920

> <Gold.PLP.part.metal>
0.0000

> <Gold.PLP.part.buried>
-3.3130

> <Gold.PLP.part.nonpolar>
-22.9743

> <Gold.PLP.part.repulsive>
0.3100

> <Gold.PLP.ligand.clash>
0.0000

> <Gold.PLP.ligand.torsion>
0.8482

> <Gold.PLP.Chemscore.Hbond>
4.9920

> <Gold.PLP.Chemscore.CHOScore>
0.0000

> <Gold.PLP.Chemscore.Metal>
0.0000

> <Gold.Chemscore.Hbonds>
donor molecule, donor type, donor heavy atom, donor atom, acceptor molecule, acceptor atom, score
      L1  H     5    24       P1  7957  0.91
      L1  H     8    25       P1  7957  1.00
      L1  H    11    42       P1  7948  1.85
      P1  H  7997  8010       L1    19  0.86

> <Gold.PLP.Chemscore.Internal.Correction>
0.0243

> <Gold.Rescore>
     Score         DG    S(hbond)    S(metal)    S(lipo)     H(rot)  DE(clash)    DE(int)     intcor
     19.16     -21.76       3.90        0.00      62.20       1.57       0.21       2.40       ----

> <Gold.Chemscore.Fitness>
19.1572

> <Gold.Chemscore.DG>
-21.7633

> <Gold.Chemscore.ZeroCoef>
-5.4800

> <Gold.Chemscore.Hbond>
3.8994

> <Gold.Chemscore.Metal>
0.0000

> <Gold.Chemscore.Lipo>
62.2038

> <Gold.Chemscore.Internal_Hbond>
0.0000

> <Gold.Chemscore.DEClash>
0.2090

> <Gold.Chemscore.DEInternal>
2.3971

> <Gold.Chemscore.Rot>
1.5697

> <Gold.Chemscore.Internal.Correction>
   9.000000E+99

> <Gold.Chemscore.Hbonds>
donor molecule, donor type, donor heavy atom, donor atom, acceptor molecule, acceptor atom, score
      L1  H     5    24       P1  7957  0.90
      L1  H     8    25       P1  7957  0.93
      L1  H    11    42       P1  7948  0.86
      P1  H  7997  8010       L1    19  0.66

> <Gold.Chemscore.Hbond.Weighted>
-13.0240

> <Gold.Chemscore.Metal.Weighted>
-0.0000

> <Gold.Chemscore.Lipo.Weighted>
-7.2778

> <Gold.Chemscore.Internal_Hbond.Weighted>
0.0000

> <Gold.Chemscore.DEClash.Weighted>
0.2090

> <Gold.Chemscore.DEInternal.Weighted>
2.3971

> <Gold.Chemscore.Rot.Weighted>
4.0185

> <Gold.Chemscore.Internal.Correction.Weighted>
   9.000000E+99

> <Gold.Protein.RotatedTorsions>
[ 6907 6896 6895 6894 ] final  -53.39 input  -60.11 | X-H torsion
[ 7974 7965 7964 7962 ] final   69.12 input  175.53 | X-H torsion
[ 8008 7997 7996 7995 ] final   80.67 input   59.86 | X-H torsion
[ 10167 10162 10161 10158 ] final  -84.70 input  -65.29 | X-H torsion
[ 10718 10713 10712 10709 ] final   38.25 input   66.30 | X-H torsion
[ 10763 10752 10751 10750 ] final  172.82 input  -60.55 | X-H torsion
[ 11005 11000 10999 10996 ] final -176.83 input  -57.11 | X-H torsion

> <Gold.Protein.ActiveResidues>
 VAL166  LYS551  ARG553  GLY616  TRP617  ASP618  TYR619  PRO620  LYS621  CYS622 
 ASP623  PHE694  ASN695  SER759  ASP760  ASP761  ALA762  ILE779  LEU786  VAL792 
 PHE793  MET794  SER795  GLU796  ALA797  LYS798  CYS799  TRP800  GLU811  SER814 

> <Gold.Protein.RotatedAtoms>
  150.8431  134.7730  159.6948 H   0  0  0  0  0  0  0  0  0  0  0  0  # atno 6907 bound_to 6896
  152.4514  134.5382  159.9841 H   0  0  0  0  0  0  0  0  0  0  0  0  # atno 6908 bound_to 6896
  151.5518  133.3378  159.2990 H   0  0  0  0  0  0  0  0  0  0  0  0  # atno 6909 bound_to 6896
  145.7943  139.2950  143.1192 H   0  0  0  0  0  0  0  0  0  0  0  0  # atno 7974 bound_to 7965
  155.8866  140.3441  155.5926 H   0  0  0  0  0  0  0  0  0  0  0  0  # atno 8008 bound_to 7997
  155.7658  140.0839  157.2151 H   0  0  0  0  0  0  0  0  0  0  0  0  # atno 8009 bound_to 7997
  154.4029  140.1527  156.2873 H   0  0  0  0  0  0  0  0  0  0  0  0  # atno 8010 bound_to 7997
  140.4107  143.2624  151.9021 H   0  0  0  0  0  0  0  0  0  0  0  0  # atno 10167 bound_to 10162
  157.3566  130.7627  149.7017 H   0  0  0  0  0  0  0  0  0  0  0  0  # atno 10718 bound_to 10713
  154.4314  135.2760  155.1909 H   0  0  0  0  0  0  0  0  0  0  0  0  # atno 10763 bound_to 10752
  154.3814  135.6087  153.5796 H   0  0  0  0  0  0  0  0  0  0  0  0  # atno 10764 bound_to 10752
  152.9836  135.5881  154.4626 H   0  0  0  0  0  0  0  0  0  0  0  0  # atno 10765 bound_to 10752
  140.4477  134.6373  157.4787 H   0  0  0  0  0  0  0  0  0  0  0  0  # atno 11005 bound_to 11000
  145.9944  140.8575  143.0050 LP  0  0  0  0  0  0  0  0  0  0  0  0  # atno 17320 bound_to 7965
  144.6777  140.2262  143.7360 LP  0  0  0  0  0  0  0  0  0  0  0  0  # atno 17321 bound_to 7965
  139.4782  144.5539  151.8343 LP  0  0  0  0  0  0  0  0  0  0  0  0  # atno 17342 bound_to 10162
  140.4641  144.1681  150.5909 LP  0  0  0  0  0  0  0  0  0  0  0  0  # atno 17343 bound_to 10162
  155.9730  130.4125  150.4037 LP  0  0  0  0  0  0  0  0  0  0  0  0  # atno 17370 bound_to 10713
  157.2108  131.0460  151.2600 LP  0  0  0  0  0  0  0  0  0  0  0  0  # atno 17371 bound_to 10713
  140.0028  134.6810  155.9503 LP  0  0  0  0  0  0  0  0  0  0  0  0  # atno 17394 bound_to 11000
  141.1678  133.6537  156.4542 LP  0  0  0  0  0  0  0  0  0  0  0  0  # atno 17395 bound_to 11000

$$$$
