AV-unprocessed.smi:2482|AV-procd|sdf|9784|dock10
  -GOLD-   2272013423D 1   1.00000     0.00000
 Structure written by MMmdl.
 34 35  0  0  0  0  0  0  0  0  3 V2000
  149.1853  140.4488  155.0171 C   0  0  0  0  0  0  0  0  0  0  0  0
  150.3806  139.5330  155.2042 C   0  0  0  0  0  0  0  0  0  0  0  0
  151.5761  140.1513  155.3144 N   0  0  0  0  0  0  0  0  0  0  0  0
  152.6680  139.3805  155.4864 C   0  0  0  0  0  0  0  0  0  0  0  0
  152.6191  137.9753  155.5533 C   0  0  0  0  0  0  0  0  0  0  0  0
  151.3767  137.3141  155.4313 C   0  0  0  0  0  0  0  0  0  0  0  0
  151.3126  135.9740  155.4988 N   0  5  0  0  0  0  0  0  0  0  0  0
  150.5434  135.3810  156.4443 C   0  0  0  0  0  0  0  0  0  0  0  0
  150.3975  135.6983  157.6264 O   0  0  0  0  0  0  0  0  0  0  0  0
  149.7996  134.1634  155.8751 C   0  0  1  0  0  0  0  0  0  0  0  0
  149.1639  134.4348  154.4927 C   0  0  0  0  0  0  0  0  0  0  0  0
  148.5178  133.2066  153.9774 N   0  3  1  0  0  0  0  0  0  0  0  0
  147.8429  133.4187  152.6797 C   0  0  0  0  0  0  0  0  0  0  0  0
  149.4783  132.0804  153.9457 C   0  0  0  0  0  0  0  0  0  0  0  0
  150.1136  131.8832  155.3320 C   0  0  0  0  0  0  0  0  0  0  0  0
  150.7325  133.0928  155.7501 O   0  0  0  0  0  0  0  0  0  0  0  0
  150.2262  138.1269  155.2583 C   0  0  0  0  0  0  0  0  0  0  0  0
  148.6503  137.4176  155.1142 Cl  0  0  0  0  0  0  0  0  0  0  0  0
  148.6741  140.2186  154.0820 H   0  0  0  0  0  0  0  0  0  0  0  0
  149.4836  141.4976  154.9883 H   0  0  0  0  0  0  0  0  0  0  0  0
  148.4788  140.3215  155.8377 H   0  0  0  0  0  0  0  0  0  0  0  0
  153.6111  139.8990  155.5742 H   0  0  0  0  0  0  0  0  0  0  0  0
  153.5300  137.4117  155.6934 H   0  0  0  0  0  0  0  0  0  0  0  0
  149.0113  133.8754  156.5751 H   0  0  0  0  0  0  0  0  0  0  0  0
  148.4208  135.2299  154.5725 H   0  0  0  0  0  0  0  0  0  0  0  0
  149.9186  134.7681  153.7778 H   0  0  0  0  0  0  0  0  0  0  0  0
  148.5597  133.6979  151.9063 H   0  0  0  0  0  0  0  0  0  0  0  0
  147.0986  134.2118  152.7591 H   0  0  0  0  0  0  0  0  0  0  0  0
  147.3302  132.5109  152.3602 H   0  0  0  0  0  0  0  0  0  0  0  0
  148.9672  131.1675  153.6376 H   0  0  0  0  0  0  0  0  0  0  0  0
  150.2544  132.2803  153.2053 H   0  0  0  0  0  0  0  0  0  0  0  0
  149.3668  131.5708  156.0636 H   0  0  0  0  0  0  0  0  0  0  0  0
  150.8676  131.0968  155.2915 H   0  0  0  0  0  0  0  0  0  0  0  0
  147.7998  132.9582  154.6432 H   0  0  0  0  0  0  0  0  0  0  0  0
  1  2  1  0  0  0  0
  1 19  1  0  0  0  0
  1 20  1  0  0  0  0
  1 21  1  0  0  0  0
  2 17  1  0  0  0  0
  2  3  2  0  0  0  0
  3  4  1  0  0  0  0
  4  5  2  0  0  0  0
  4 22  1  0  0  0  0
  5  6  1  0  0  0  0
  5 23  1  0  0  0  0
  6  7  1  0  0  0  0
  6 17  2  0  0  0  0
  7  8  1  0  0  0  0
  8  9  2  0  0  0  0
  8 10  1  0  0  0  0
 10 16  1  0  0  0  0
 10 11  1  0  0  0  0
 10 24  1  0  0  0  0
 11 12  1  0  0  0  0
 11 25  1  0  0  0  0
 11 26  1  0  0  0  0
 12 13  1  0  0  0  0
 12 14  1  0  0  0  0
 12 34  1  0  0  0  0
 13 27  1  0  0  0  0
 13 28  1  0  0  0  0
 13 29  1  0  0  0  0
 14 15  1  0  0  0  0
 14 30  1  0  0  0  0
 14 31  1  0  0  0  0
 15 16  1  0  0  0  0
 15 32  1  0  0  0  0
 15 33  1  0  0  0  0
 17 18  1  0  0  0  0
M  CHG  1   7  -1
M  CHG  1  12   1
M  END
> <s_m_source_file>
AV-unprocessed.smi

> <i_m_source_file_index>
2482

> <i_lp_mmshare_version>
43012

> <i_f3d_flags>
0

> <s_epik_input>
W0NIM11jMW5bY0hdW2NIXWMoYzFDbClbTkhdQyg9TylbQ0BASF0yW0NIMl1OKFtDSDNdKVtDSDJdW0NIMl1PMg==

> <s_epik_cmdline>
J2VwaWtfcHl0aG9uJywgJy1waCcsICc3LjAnLCAnLXRuJywgJzgnLCAnLW1hJywgJzIwMCcsICctbWV0YWxfYmluZGluZycsICctaW1hZScsICc8aW5maWxlLm1hZT4nLCAnLW9tYWUnLCAnPG91dGZpbGUubWFlPic=

> <r_epik_Ionization_Penalty>
6.9249

> <r_epik_Ionization_Penalty_Charging>
6.74596

> <r_epik_Ionization_Penalty_Neutral>
0.178941

> <r_epik_State_Penalty>
6.78185

> <r_epik_Charging_Adjusted_Penalty>
13.5278

> <i_epik_Tot_Q>
0

> <i_epik_Tot_abs_Q>
2

> <r_epik_Metal_State_Penalty>
2.70608

> <b_epik_Metal_Only>
1

> <s_lp_Force_Field>
OPLS_2005

> <r_lp_Energy>
14.2833

> <b_lp_Chiralities_Consistent>
1

> <s_lp_Variant>
AV-unprocessed.smi:2482-10

> <Gold.Version>
5.8.1

> <Gold.Id.Protein>
6NUR|6NUR_protein|mol2

> <Gold.PLP.Fitness>
37.4836

> <Gold.PLP.PLP>
-29.6688

> <Gold.PLP.part.hbond>
-2.9746

> <Gold.PLP.part.metal>
0.0000

> <Gold.PLP.part.buried>
-3.8427

> <Gold.PLP.part.nonpolar>
-23.9683

> <Gold.PLP.part.repulsive>
0.1395

> <Gold.PLP.ligand.clash>
0.0000

> <Gold.PLP.ligand.torsion>
1.2536

> <Gold.PLP.Chemscore.Hbond>
3.2948

> <Gold.PLP.Chemscore.CHOScore>
0.0000

> <Gold.PLP.Chemscore.Metal>
0.0000

> <Gold.Chemscore.Hbonds>
donor molecule, donor type, donor heavy atom, donor atom, acceptor molecule, acceptor atom, score
      P1  H  6896  6907       L1     9  0.33
      P1  H  7989  7998       L1     3  0.86
      P1  H 10752 10763       L1     7  2.00

> <Gold.PLP.Chemscore.Internal.Correction>
0.4374

> <Gold.Rescore>
     Score         DG    S(hbond)    S(metal)    S(lipo)     H(rot)  DE(clash)    DE(int)     intcor
     13.15     -14.67       1.01        0.00      71.60       1.00       0.36       1.16       ----

> <Gold.Chemscore.Fitness>
13.1520

> <Gold.Chemscore.DG>
-14.6733

> <Gold.Chemscore.ZeroCoef>
-5.4800

> <Gold.Chemscore.Hbond>
1.0110

> <Gold.Chemscore.Metal>
0.0000

> <Gold.Chemscore.Lipo>
71.5953

> <Gold.Chemscore.Internal_Hbond>
0.0000

> <Gold.Chemscore.DEClash>
0.3572

> <Gold.Chemscore.DEInternal>
1.1640

> <Gold.Chemscore.Rot>
1.0000

> <Gold.Chemscore.Internal.Correction>
   9.000000E+99

> <Gold.Chemscore.Hbonds>
donor molecule, donor type, donor heavy atom, donor atom, acceptor molecule, acceptor atom, score
      P1  H  6896  6907       L1     9  0.33
      P1  H  7989  7998       L1     3  0.10
      P1  H 10752 10763       L1     7  0.26

> <Gold.Chemscore.Hbond.Weighted>
-3.3766

> <Gold.Chemscore.Metal.Weighted>
-0.0000

> <Gold.Chemscore.Lipo.Weighted>
-8.3766

> <Gold.Chemscore.Internal_Hbond.Weighted>
0.0000

> <Gold.Chemscore.DEClash.Weighted>
0.3572

> <Gold.Chemscore.DEInternal.Weighted>
1.1640

> <Gold.Chemscore.Rot.Weighted>
2.5600

> <Gold.Chemscore.Internal.Correction.Weighted>
   9.000000E+99

> <Gold.Protein.RotatedTorsions>
[ 6907 6896 6895 6894 ] final  -61.98 input  -60.11 | X-H torsion
[ 7974 7965 7964 7962 ] final  128.83 input  175.53 | X-H torsion
[ 8008 7997 7996 7995 ] final  -24.97 input   59.86 | X-H torsion
[ 10167 10162 10161 10158 ] final -157.79 input  -65.29 | X-H torsion
[ 10718 10713 10712 10709 ] final   -9.10 input   66.30 | X-H torsion
[ 10763 10752 10751 10750 ] final   69.60 input  -60.55 | X-H torsion
[ 11005 11000 10999 10996 ] final   27.63 input  -57.11 | X-H torsion

> <Gold.Protein.ActiveResidues>
 VAL166  LYS551  ARG553  GLY616  TRP617  ASP618  TYR619  PRO620  LYS621  CYS622 
 ASP623  PHE694  ASN695  SER759  ASP760  ASP761  ALA762  ILE779  LEU786  VAL792 
 PHE793  MET794  SER795  GLU796  ALA797  LYS798  CYS799  TRP800  GLU811  SER814 

> <Gold.Protein.RotatedAtoms>
  150.7747  134.6631  159.6350 H   0  0  0  0  0  0  0  0  0  0  0  0  # atno 6907 bound_to 6896
  152.3812  134.6584  160.0151 H   0  0  0  0  0  0  0  0  0  0  0  0  # atno 6908 bound_to 6896
  151.6913  133.3274  159.3280 H   0  0  0  0  0  0  0  0  0  0  0  0  # atno 6909 bound_to 6896
  145.0353  139.4010  143.5129 H   0  0  0  0  0  0  0  0  0  0  0  0  # atno 7974 bound_to 7965
  154.4500  140.1939  156.0547 H   0  0  0  0  0  0  0  0  0  0  0  0  # atno 8008 bound_to 7997
  156.0628  140.3294  155.7454 H   0  0  0  0  0  0  0  0  0  0  0  0  # atno 8009 bound_to 7997
  155.5386  140.0584  157.2865 H   0  0  0  0  0  0  0  0  0  0  0  0  # atno 8010 bound_to 7997
  139.6742  143.9692  152.2301 H   0  0  0  0  0  0  0  0  0  0  0  0  # atno 10167 bound_to 10162
  156.6929  130.5070  149.5938 H   0  0  0  0  0  0  0  0  0  0  0  0  # atno 10718 bound_to 10713
  153.0296  135.5204  154.7313 H   0  0  0  0  0  0  0  0  0  0  0  0  # atno 10763 bound_to 10752
  154.6340  135.2904  155.0185 H   0  0  0  0  0  0  0  0  0  0  0  0  # atno 10764 bound_to 10752
  154.1127  135.6619  153.4940 H   0  0  0  0  0  0  0  0  0  0  0  0  # atno 10765 bound_to 10752
  140.3242  134.2509  155.7712 H   0  0  0  0  0  0  0  0  0  0  0  0  # atno 11005 bound_to 11000
  146.3503  139.9925  142.8684 LP  0  0  0  0  0  0  0  0  0  0  0  0  # atno 17320 bound_to 7965
  145.1718  140.9724  143.4317 LP  0  0  0  0  0  0  0  0  0  0  0  0  # atno 17321 bound_to 7965
  139.9464  144.6648  150.8215 LP  0  0  0  0  0  0  0  0  0  0  0  0  # atno 17342 bound_to 10162
  140.7629  143.3210  151.2621 LP  0  0  0  0  0  0  0  0  0  0  0  0  # atno 17343 bound_to 10162
  156.1784  130.6483  151.0922 LP  0  0  0  0  0  0  0  0  0  0  0  0  # atno 17370 bound_to 10713
  157.7002  131.0779  150.6844 LP  0  0  0  0  0  0  0  0  0  0  0  0  # atno 17371 bound_to 10713
  141.2079  133.7792  157.0090 LP  0  0  0  0  0  0  0  0  0  0  0  0  # atno 17394 bound_to 11000
  140.0915  134.9589  157.1784 LP  0  0  0  0  0  0  0  0  0  0  0  0  # atno 17395 bound_to 11000

$$$$
