AV-unprocessed.smi:2594|AV-procd|sdf|10166|dock9
  -GOLD-   2272014183D 1   1.00000     0.00000
 Structure written by MMmdl.
 29 30  0  0  0  0  0  0  0  0  1 V2000
  151.6854  141.6227  157.3632 O   0  0  0  0  0  0  0  0  0  0  0  0
  150.8966  142.2757  156.6780 C   0  0  0  0  0  0  0  0  0  0  0  0
  149.9882  141.5833  155.6533 C   0  0  0  0  0  0  0  0  0  0  0  0
  150.3485  140.1831  155.4271 N   0  0  0  0  0  0  0  0  0  0  0  0
  150.6410  139.7904  154.1579 N   0  0  0  0  0  0  0  0  0  0  0  0
  150.9198  138.5407  154.1062 C   0  0  0  0  0  0  0  0  0  0  0  0
  150.8636  137.6642  155.6413 S   0  0  0  0  0  0  0  0  0  0  0  0
  150.4064  139.2055  156.4169 C   0  0  0  0  0  0  0  0  0  0  0  0
  150.1907  139.3215  157.6221 O   0  0  0  0  0  0  0  0  0  0  0  0
  150.7613  143.6061  156.7831 N   0  0  0  0  0  0  0  0  0  0  0  0
  151.5425  144.4578  157.6725 C   0  0  0  0  0  0  0  0  0  0  0  0
  151.2602  144.1376  159.1499 C   0  0  2  0  0  0  0  0  0  0  0  0
  151.8249  145.1689  160.1229 C   0  0  0  0  0  0  0  0  0  0  0  0
  151.9132  144.3607  161.3976 C   0  0  0  0  0  0  0  0  0  0  0  0
  152.3404  142.9896  160.8778 C   0  0  0  0  0  0  0  0  0  0  0  0
  151.8854  142.9144  159.5284 O   0  0  0  0  0  0  0  0  0  0  0  0
  148.9561  141.6566  155.9995 H   0  0  0  0  0  0  0  0  0  0  0  0
  150.0335  142.1182  154.7031 H   0  0  0  0  0  0  0  0  0  0  0  0
  151.1852  137.9772  153.2120 H   0  0  0  0  0  0  0  0  0  0  0  0
  150.0884  144.0653  156.1866 H   0  0  0  0  0  0  0  0  0  0  0  0
  152.6001  144.3108  157.4519 H   0  0  0  0  0  0  0  0  0  0  0  0
  151.3256  145.5068  157.4645 H   0  0  0  0  0  0  0  0  0  0  0  0
  150.1874  144.0388  159.3252 H   0  0  0  0  0  0  0  0  0  0  0  0
  152.8207  145.4889  159.8125 H   0  0  0  0  0  0  0  0  0  0  0  0
  151.1938  146.0529  160.2192 H   0  0  0  0  0  0  0  0  0  0  0  0
  152.6102  144.7784  162.1246 H   0  0  0  0  0  0  0  0  0  0  0  0
  150.9296  144.2948  161.8650 H   0  0  0  0  0  0  0  0  0  0  0  0
  153.4270  142.8986  160.8811 H   0  0  0  0  0  0  0  0  0  0  0  0
  151.9312  142.1775  161.4789 H   0  0  0  0  0  0  0  0  0  0  0  0
  1  2  2  0  0  0  0
  2  3  1  0  0  0  0
  2 10  1  0  0  0  0
  3  4  1  0  0  0  0
  3 17  1  0  0  0  0
  3 18  1  0  0  0  0
  4  8  1  0  0  0  0
  4  5  1  0  0  0  0
  5  6  2  0  0  0  0
  6  7  1  0  0  0  0
  6 19  1  0  0  0  0
  7  8  1  0  0  0  0
  8  9  2  0  0  0  0
 10 11  1  0  0  0  0
 10 20  1  0  0  0  0
 11 12  1  0  0  0  0
 11 21  1  0  0  0  0
 11 22  1  0  0  0  0
 12 16  1  0  0  0  0
 12 13  1  0  0  0  0
 12 23  1  0  0  0  0
 13 14  1  0  0  0  0
 13 24  1  0  0  0  0
 13 25  1  0  0  0  0
 14 15  1  0  0  0  0
 14 26  1  0  0  0  0
 14 27  1  0  0  0  0
 15 16  1  0  0  0  0
 15 28  1  0  0  0  0
 15 29  1  0  0  0  0
M  END
> <s_m_source_file>
AV-unprocessed.smi

> <i_m_source_file_index>
2594

> <i_lp_mmshare_version>
43012

> <i_f3d_flags>
0

> <s_epik_input>
TzFbQ0gyXVtDSDJdW0NIMl1bQ0BIXTFbQ0gyXVtOSF1DKD1PKVtDSDJdbjJuW2NIXXNjMj1P

> <s_epik_cmdline>
J2VwaWtfcHl0aG9uJywgJy1waCcsICc3LjAnLCAnLXRuJywgJzgnLCAnLW1hJywgJzIwMCcsICctbWV0YWxfYmluZGluZycsICctaW1hZScsICc8aW5maWxlLm1hZT4nLCAnLW9tYWUnLCAnPG91dGZpbGUubWFlPic=

> <r_lp_tautomer_probability>
1

> <r_epik_Ionization_Penalty>
2.49222e-07

> <r_epik_Ionization_Penalty_Charging>
1.4085e-08

> <r_epik_Ionization_Penalty_Neutral>
2.35137e-07

> <r_epik_State_Penalty>
-0

> <r_epik_Charging_Adjusted_Penalty>
1.4085e-08

> <i_epik_Tot_Q>
0

> <i_epik_Tot_abs_Q>
0

> <r_epik_Metal_State_Penalty>
-0

> <b_epik_Metal_Only>
0

> <s_lp_Force_Field>
OPLS_2005

> <r_lp_Energy>
18.2258

> <b_lp_Chiralities_Consistent>
1

> <s_lp_Variant>
AV-unprocessed.smi:2594-1

> <Gold.Version>
5.8.1

> <Gold.Id.Protein>
6NUR|6NUR_protein|mol2

> <Gold.PLP.Fitness>
43.9558

> <Gold.PLP.PLP>
-35.1443

> <Gold.PLP.part.hbond>
-2.0000

> <Gold.PLP.part.metal>
0.0000

> <Gold.PLP.part.buried>
-5.7071

> <Gold.PLP.part.nonpolar>
-27.8697

> <Gold.PLP.part.repulsive>
0.2075

> <Gold.PLP.ligand.clash>
0.0000

> <Gold.PLP.ligand.torsion>
0.2056

> <Gold.PLP.Chemscore.Hbond>
2.0000

> <Gold.PLP.Chemscore.CHOScore>
1.0721

> <Gold.PLP.Chemscore.Metal>
0.0000

> <Gold.Chemscore.Hbonds>
donor molecule, donor type, donor heavy atom, donor atom, acceptor molecule, acceptor atom, score
      L1  H    10    20       P1  8028  0.80
      P1  H  7989  7998       L1     5  1.00
      L1  C     6    19       P1  7949  0.76

> <Gold.PLP.Chemscore.Internal.Correction>
0.0063

> <Gold.Rescore>
     Score         DG    S(hbond)    S(metal)    S(lipo)     H(rot)  DE(clash)    DE(int)     intcor
     14.27     -16.31       1.95        0.00      80.59       2.00       0.03       2.01       ----

> <Gold.Chemscore.Fitness>
14.2676

> <Gold.Chemscore.DG>
-16.3065

> <Gold.Chemscore.ZeroCoef>
-5.4800

> <Gold.Chemscore.Hbond>
1.9477

> <Gold.Chemscore.Metal>
0.0000

> <Gold.Chemscore.Lipo>
80.5878

> <Gold.Chemscore.Internal_Hbond>
0.0000

> <Gold.Chemscore.DEClash>
0.0270

> <Gold.Chemscore.DEInternal>
2.0120

> <Gold.Chemscore.Rot>
1.9952

> <Gold.Chemscore.Internal.Correction>
   9.000000E+99

> <Gold.Chemscore.Hbonds>
donor molecule, donor type, donor heavy atom, donor atom, acceptor molecule, acceptor atom, score
      L1  H    10    20       P1  8028  0.79
      P1  H  7989  7998       L1     5  0.72

> <Gold.Chemscore.Hbond.Weighted>
-6.5055

> <Gold.Chemscore.Metal.Weighted>
-0.0000

> <Gold.Chemscore.Lipo.Weighted>
-9.4288

> <Gold.Chemscore.Internal_Hbond.Weighted>
0.0000

> <Gold.Chemscore.DEClash.Weighted>
0.0270

> <Gold.Chemscore.DEInternal.Weighted>
2.0120

> <Gold.Chemscore.Rot.Weighted>
5.1077

> <Gold.Chemscore.Internal.Correction.Weighted>
   9.000000E+99

> <Gold.Protein.RotatedTorsions>
[ 6907 6896 6895 6894 ] final  146.45 input  -60.11 | X-H torsion
[ 7974 7965 7964 7962 ] final  -97.35 input  175.53 | X-H torsion
[ 8008 7997 7996 7995 ] final  -93.03 input   59.86 | X-H torsion
[ 10167 10162 10161 10158 ] final  -77.21 input  -65.29 | X-H torsion
[ 10718 10713 10712 10709 ] final   34.84 input   66.30 | X-H torsion
[ 10763 10752 10751 10750 ] final -139.15 input  -60.55 | X-H torsion
[ 11005 11000 10999 10996 ] final   93.18 input  -57.11 | X-H torsion

> <Gold.Protein.ActiveResidues>
 VAL166  LYS551  ARG553  GLY616  TRP617  ASP618  TYR619  PRO620  LYS621  CYS622 
 ASP623  PHE694  ASN695  SER759  ASP760  ASP761  ALA762  ILE779  LEU786  VAL792 
 PHE793  MET794  SER795  GLU796  ALA797  LYS798  CYS799  TRP800  GLU811  SER814 

> <Gold.Protein.RotatedAtoms>
  152.1677  133.4623  159.4892 H   0  0  0  0  0  0  0  0  0  0  0  0  # atno 6907 bound_to 6896
  150.6915  134.1992  159.4324 H   0  0  0  0  0  0  0  0  0  0  0  0  # atno 6908 bound_to 6896
  151.9898  134.9985  160.0611 H   0  0  0  0  0  0  0  0  0  0  0  0  # atno 6909 bound_to 6896
  145.3348  140.9448  143.2641 H   0  0  0  0  0  0  0  0  0  0  0  0  # atno 7974 bound_to 7965
  154.7306  140.0503  157.0723 H   0  0  0  0  0  0  0  0  0  0  0  0  # atno 8008 bound_to 7997
  155.0307  140.3157  155.4740 H   0  0  0  0  0  0  0  0  0  0  0  0  # atno 8009 bound_to 7997
  156.2840  140.2150  156.5428 H   0  0  0  0  0  0  0  0  0  0  0  0  # atno 8010 bound_to 7997
  140.4789  143.2407  151.8088 H   0  0  0  0  0  0  0  0  0  0  0  0  # atno 10167 bound_to 10162
  157.3153  130.7420  149.6751 H   0  0  0  0  0  0  0  0  0  0  0  0  # atno 10718 bound_to 10713
  154.8617  135.3591  154.5499 H   0  0  0  0  0  0  0  0  0  0  0  0  # atno 10763 bound_to 10752
  153.6118  135.7009  153.5349 H   0  0  0  0  0  0  0  0  0  0  0  0  # atno 10764 bound_to 10752
  153.3203  135.4153  155.1371 H   0  0  0  0  0  0  0  0  0  0  0  0  # atno 10765 bound_to 10752
  139.8813  134.8775  156.3681 H   0  0  0  0  0  0  0  0  0  0  0  0  # atno 11005 bound_to 11000
  144.8836  139.4870  143.6711 LP  0  0  0  0  0  0  0  0  0  0  0  0  # atno 17320 bound_to 7965
  146.3031  139.7491  142.9076 LP  0  0  0  0  0  0  0  0  0  0  0  0  # atno 17321 bound_to 7965
  139.4830  144.4797  151.9322 LP  0  0  0  0  0  0  0  0  0  0  0  0  # atno 17342 bound_to 10162
  140.3882  144.2649  150.5902 LP  0  0  0  0  0  0  0  0  0  0  0  0  # atno 17343 bound_to 10162
  155.9681  130.4239  150.4584 LP  0  0  0  0  0  0  0  0  0  0  0  0  # atno 17370 bound_to 10713
  157.2589  131.0562  151.2332 LP  0  0  0  0  0  0  0  0  0  0  0  0  # atno 17371 bound_to 10713
  140.9483  133.7468  156.0238 LP  0  0  0  0  0  0  0  0  0  0  0  0  # atno 17394 bound_to 11000
  140.8136  134.3371  157.5404 LP  0  0  0  0  0  0  0  0  0  0  0  0  # atno 17395 bound_to 11000

$$$$
