AV-unprocessed.smi:1784|AV-procd|sdf|7196|dock4
  -GOLD-   22720 8433D 1   1.00000     0.00000
 Structure written by MMmdl.
 43 45  0  0  0  0  0  0  0  0  1 V2000
  145.1496  137.7986  153.5040 O   0  0  0  0  0  0  0  0  0  0  0  0
  146.2094  137.3291  153.0894 C   0  0  0  0  0  0  0  0  0  0  0  0
  146.3247  136.0892  152.5982 N   0  0  0  0  0  0  0  0  0  0  0  0
  145.2298  135.1338  152.5096 C   0  0  0  0  0  0  0  0  0  0  0  0
  145.1988  134.4776  151.1228 C   0  0  2  0  0  0  0  0  0  0  0  0
  144.1077  133.4210  150.9662 C   0  0  0  0  0  0  0  0  0  0  0  0
  144.6620  132.5801  149.8392 C   0  0  0  0  0  0  0  0  0  0  0  0
  146.1542  132.5695  150.1600 C   0  0  0  0  0  0  0  0  0  0  0  0
  146.4161  133.7813  150.8646 O   0  0  0  0  0  0  0  0  0  0  0  0
  147.3857  137.9769  153.0476 N   0  0  0  0  0  0  0  0  0  0  0  0
  147.6866  139.3023  153.4735 C   0  0  0  0  0  0  0  0  0  0  0  0
  146.7742  140.3780  153.3455 C   0  0  0  0  0  0  0  0  0  0  0  0
  147.1455  141.6517  153.8132 C   0  0  0  0  0  0  0  0  0  0  0  0
  148.4139  141.8047  154.4009 C   0  0  0  0  0  0  0  0  0  0  0  0
  149.2879  140.7880  154.5450 N   0  0  0  0  0  0  0  0  0  0  0  0
  148.9353  139.5585  154.0963 C   0  0  0  0  0  0  0  0  0  0  0  0
  149.8601  138.5124  154.2667 N   0  0  0  0  0  0  0  0  0  0  0  0
  151.1911  138.9080  154.6959 C   0  0  0  0  0  0  0  0  0  0  0  0
  151.8666  137.6158  155.1607 C   0  0  0  0  0  0  0  0  0  0  0  0
  150.7102  136.6689  155.5041 C   0  0  0  0  0  0  0  0  0  0  0  0
  149.4400  137.4589  155.1755 C   0  0  0  0  0  0  0  0  0  0  0  0
  147.2301  135.7802  152.2757 H   0  0  0  0  0  0  0  0  0  0  0  0
  145.3384  134.3747  153.2860 H   0  0  0  0  0  0  0  0  0  0  0  0
  144.2882  135.6532  152.6944 H   0  0  0  0  0  0  0  0  0  0  0  0
  145.0725  135.2355  150.3478 H   0  0  0  0  0  0  0  0  0  0  0  0
  144.0202  132.8189  151.8719 H   0  0  0  0  0  0  0  0  0  0  0  0
  143.1301  133.8484  150.7418 H   0  0  0  0  0  0  0  0  0  0  0  0
  144.2279  131.5810  149.7924 H   0  0  0  0  0  0  0  0  0  0  0  0
  144.4864  133.0759  148.8835 H   0  0  0  0  0  0  0  0  0  0  0  0
  146.3986  131.7310  150.8130 H   0  0  0  0  0  0  0  0  0  0  0  0
  146.7689  132.4901  149.2632 H   0  0  0  0  0  0  0  0  0  0  0  0
  148.1432  137.4907  152.5905 H   0  0  0  0  0  0  0  0  0  0  0  0
  145.7941  140.2484  152.9132 H   0  0  0  0  0  0  0  0  0  0  0  0
  146.4713  142.4909  153.7276 H   0  0  0  0  0  0  0  0  0  0  0  0
  148.7330  142.7676  154.7711 H   0  0  0  0  0  0  0  0  0  0  0  0
  151.7426  139.3801  153.8821 H   0  0  0  0  0  0  0  0  0  0  0  0
  151.1356  139.6181  155.5220 H   0  0  0  0  0  0  0  0  0  0  0  0
  152.4646  137.1911  154.3536 H   0  0  0  0  0  0  0  0  0  0  0  0
  152.5288  137.7901  156.0092 H   0  0  0  0  0  0  0  0  0  0  0  0
  150.7703  135.7697  154.8896 H   0  0  0  0  0  0  0  0  0  0  0  0
  150.7268  136.3586  156.5493 H   0  0  0  0  0  0  0  0  0  0  0  0
  149.0168  137.8852  156.0862 H   0  0  0  0  0  0  0  0  0  0  0  0
  148.6807  136.8249  154.7165 H   0  0  0  0  0  0  0  0  0  0  0  0
  1  2  2  0  0  0  0
  2  3  1  0  0  0  0
  2 10  1  0  0  0  0
  3  4  1  0  0  0  0
  3 22  1  0  0  0  0
  4  5  1  0  0  0  0
  4 23  1  0  0  0  0
  4 24  1  0  0  0  0
  5  9  1  0  0  0  0
  5  6  1  0  0  0  0
  5 25  1  0  0  0  0
  6  7  1  0  0  0  0
  6 26  1  0  0  0  0
  6 27  1  0  0  0  0
  7  8  1  0  0  0  0
  7 28  1  0  0  0  0
  7 29  1  0  0  0  0
  8  9  1  0  0  0  0
  8 30  1  0  0  0  0
  8 31  1  0  0  0  0
 10 11  1  0  0  0  0
 10 32  1  0  0  0  0
 11 16  1  0  0  0  0
 11 12  2  0  0  0  0
 12 13  1  0  0  0  0
 12 33  1  0  0  0  0
 13 14  2  0  0  0  0
 13 34  1  0  0  0  0
 14 15  1  0  0  0  0
 14 35  1  0  0  0  0
 15 16  2  0  0  0  0
 16 17  1  0  0  0  0
 17 21  1  0  0  0  0
 17 18  1  0  0  0  0
 18 19  1  0  0  0  0
 18 36  1  0  0  0  0
 18 37  1  0  0  0  0
 19 20  1  0  0  0  0
 19 38  1  0  0  0  0
 19 39  1  0  0  0  0
 20 21  1  0  0  0  0
 20 40  1  0  0  0  0
 20 41  1  0  0  0  0
 21 42  1  0  0  0  0
 21 43  1  0  0  0  0
M  END
> <s_m_source_file>
AV-unprocessed.smi

> <i_m_source_file_index>
1784

> <i_lp_mmshare_version>
43012

> <i_f3d_flags>
0

> <s_epik_input>
TzFbQ0gyXVtDSDJdW0NIMl1bQ0BIXTFbQ0gyXVtOSF1DKD1PKVtOSF1jMltjSF1bY0hdW2NIXW5jMk4zW0NIMl1bQ0gyXVtDSDJdW0NIMl0z

> <s_epik_cmdline>
J2VwaWtfcHl0aG9uJywgJy1waCcsICc3LjAnLCAnLXRuJywgJzgnLCAnLW1hJywgJzIwMCcsICctbWV0YWxfYmluZGluZycsICctaW1hZScsICc8aW5maWxlLm1hZT4nLCAnLW9tYWUnLCAnPG91dGZpbGUubWFlPic=

> <r_lp_tautomer_probability>
1

> <r_epik_Ionization_Penalty>
0.0982482

> <r_epik_Ionization_Penalty_Charging>
0

> <r_epik_Ionization_Penalty_Neutral>
0.0982482

> <r_epik_State_Penalty>
0.0877864

> <r_epik_Charging_Adjusted_Penalty>
0.0877864

> <i_epik_Tot_Q>
0

> <i_epik_Tot_abs_Q>
0

> <r_epik_Metal_State_Penalty>
0.0752567

> <b_epik_Metal_Only>
0

> <s_lp_Force_Field>
OPLS_2005

> <r_lp_Energy>
47.4963

> <b_lp_Chiralities_Consistent>
1

> <s_lp_Variant>
AV-unprocessed.smi:1784-1

> <Gold.Version>
5.8.1

> <Gold.Id.Protein>
6NUR|6NUR_protein|mol2

> <Gold.PLP.Fitness>
41.7943

> <Gold.PLP.PLP>
-33.7759

> <Gold.PLP.part.hbond>
-2.0796

> <Gold.PLP.part.metal>
0.0000

> <Gold.PLP.part.buried>
-1.9629

> <Gold.PLP.part.nonpolar>
-29.9250

> <Gold.PLP.part.repulsive>
0.7951

> <Gold.PLP.ligand.clash>
0.0000

> <Gold.PLP.ligand.torsion>
0.4772

> <Gold.PLP.Chemscore.Hbond>
1.9760

> <Gold.PLP.Chemscore.CHOScore>
1.0000

> <Gold.PLP.Chemscore.Metal>
0.0000

> <Gold.Chemscore.Hbonds>
donor molecule, donor type, donor heavy atom, donor atom, acceptor molecule, acceptor atom, score
      L1  H     3    22       P1  7948  0.98
      L1  H    10    32       P1  7948  1.00
      L1  C    14    35       P1  8028  1.00

> <Gold.PLP.Chemscore.Internal.Correction>
0.0448

> <Gold.Rescore>
     Score         DG    S(hbond)    S(metal)    S(lipo)     H(rot)  DE(clash)    DE(int)     intcor
     16.28     -18.65       1.95        0.00      87.08       1.38       0.11       2.27       ----

> <Gold.Chemscore.Fitness>
16.2803

> <Gold.Chemscore.DG>
-18.6523

> <Gold.Chemscore.ZeroCoef>
-5.4800

> <Gold.Chemscore.Hbond>
1.9507

> <Gold.Chemscore.Metal>
0.0000

> <Gold.Chemscore.Lipo>
87.0809

> <Gold.Chemscore.Internal_Hbond>
0.0000

> <Gold.Chemscore.DEClash>
0.1051

> <Gold.Chemscore.DEInternal>
2.2668

> <Gold.Chemscore.Rot>
1.3796

> <Gold.Chemscore.Internal.Correction>
   9.000000E+99

> <Gold.Chemscore.Hbonds>
donor molecule, donor type, donor heavy atom, donor atom, acceptor molecule, acceptor atom, score
      L1  H     3    22       P1  7948  0.92
      L1  H    10    32       P1  7948  0.99

> <Gold.Chemscore.Hbond.Weighted>
-6.5155

> <Gold.Chemscore.Metal.Weighted>
-0.0000

> <Gold.Chemscore.Lipo.Weighted>
-10.1885

> <Gold.Chemscore.Internal_Hbond.Weighted>
0.0000

> <Gold.Chemscore.DEClash.Weighted>
0.1051

> <Gold.Chemscore.DEInternal.Weighted>
2.2668

> <Gold.Chemscore.Rot.Weighted>
3.5317

> <Gold.Chemscore.Internal.Correction.Weighted>
   9.000000E+99

> <Gold.Protein.RotatedTorsions>
[ 6907 6896 6895 6894 ] final -153.01 input  -60.11 | X-H torsion
[ 7974 7965 7964 7962 ] final  176.45 input  175.53 | X-H torsion
[ 8008 7997 7996 7995 ] final   82.63 input   59.86 | X-H torsion
[ 10167 10162 10161 10158 ] final  -20.16 input  -65.29 | X-H torsion
[ 10718 10713 10712 10709 ] final  163.42 input   66.30 | X-H torsion
[ 10763 10752 10751 10750 ] final -119.49 input  -60.55 | X-H torsion
[ 11005 11000 10999 10996 ] final  -42.54 input  -57.11 | X-H torsion

> <Gold.Protein.ActiveResidues>
 VAL166  LYS551  ARG553  GLY616  TRP617  ASP618  TYR619  PRO620  LYS621  CYS622 
 ASP623  PHE694  ASN695  SER759  ASP760  ASP761  ALA762  ILE779  LEU786  VAL792 
 PHE793  MET794  SER795  GLU796  ALA797  LYS798  CYS799  TRP800  GLU811  SER814 

> <Gold.Protein.RotatedAtoms>
  151.2362  133.4424  159.2605 H   0  0  0  0  0  0  0  0  0  0  0  0  # atno 6907 bound_to 6896
  151.0748  134.9821  159.8337 H   0  0  0  0  0  0  0  0  0  0  0  0  # atno 6908 bound_to 6896
  152.5417  134.2305  159.8876 H   0  0  0  0  0  0  0  0  0  0  0  0  # atno 6909 bound_to 6896
  144.7184  140.0098  143.6440 H   0  0  0  0  0  0  0  0  0  0  0  0  # atno 7974 bound_to 7965
  155.9132  140.3426  155.6115 H   0  0  0  0  0  0  0  0  0  0  0  0  # atno 8008 bound_to 7997
  155.7363  140.0802  157.2285 H   0  0  0  0  0  0  0  0  0  0  0  0  # atno 8009 bound_to 7997
  154.4058  140.1579  156.2552 H   0  0  0  0  0  0  0  0  0  0  0  0  # atno 8010 bound_to 7997
  140.7274  143.4749  151.0196 H   0  0  0  0  0  0  0  0  0  0  0  0  # atno 10167 bound_to 10162
  157.1087  131.0462  151.2466 H   0  0  0  0  0  0  0  0  0  0  0  0  # atno 10718 bound_to 10713
  154.8618  135.4236  154.2307 H   0  0  0  0  0  0  0  0  0  0  0  0  # atno 10763 bound_to 10752
  153.3293  135.6987  153.6968 H   0  0  0  0  0  0  0  0  0  0  0  0  # atno 10764 bound_to 10752
  153.5991  135.3540  155.2912 H   0  0  0  0  0  0  0  0  0  0  0  0  # atno 10765 bound_to 10752
  141.0323  133.6815  156.2609 H   0  0  0  0  0  0  0  0  0  0  0  0  # atno 11005 bound_to 11000
  146.0267  139.3299  143.0780 LP  0  0  0  0  0  0  0  0  0  0  0  0  # atno 17320 bound_to 7965
  145.8502  140.9533  143.0753 LP  0  0  0  0  0  0  0  0  0  0  0  0  # atno 17321 bound_to 7965
  139.8443  143.7522  152.3179 LP  0  0  0  0  0  0  0  0  0  0  0  0  # atno 17342 bound_to 10162
  139.7681  144.7485  151.0264 LP  0  0  0  0  0  0  0  0  0  0  0  0  # atno 17343 bound_to 10162
  157.4578  130.7635  149.7208 LP  0  0  0  0  0  0  0  0  0  0  0  0  # atno 17370 bound_to 10713
  155.9855  130.3982  150.3256 LP  0  0  0  0  0  0  0  0  0  0  0  0  # atno 17371 bound_to 10713
  140.6385  134.5190  157.5567 LP  0  0  0  0  0  0  0  0  0  0  0  0  # atno 17394 bound_to 11000
  139.9216  134.8137  156.1194 LP  0  0  0  0  0  0  0  0  0  0  0  0  # atno 17395 bound_to 11000

$$$$
