AV-unprocessed.smi:1581|AV-procd|sdf|6360|dock4
  -GOLD-   22720 6583D 1   1.00000     0.00000
 Structure written by MMmdl.
 34 35  0  0  0  0  0  0  0  0  1 V2000
  149.5113  134.7720  155.4456 C   0  0  0  0  0  0  0  0  0  0  0  0
  150.5369  135.8892  155.6022 C   0  0  0  0  0  0  0  0  0  0  0  0
  151.1040  136.0617  156.6804 O   0  0  0  0  0  0  0  0  0  0  0  0
  150.7601  136.6451  154.5167 N   0  0  0  0  0  0  0  0  0  0  0  0
  151.6926  137.7669  154.4556 C   0  0  0  0  0  0  0  0  0  0  0  0
  151.1302  139.1007  154.9326 C   0  0  0  0  0  0  0  0  0  0  0  0
  149.9699  139.6198  154.3257 C   0  0  0  0  0  0  0  0  0  0  0  0
  149.4579  140.8450  154.7907 C   0  0  0  0  0  0  0  0  0  0  0  0
  150.0237  141.5515  155.7910 N   0  0  0  0  0  0  0  0  0  0  0  0
  151.1427  141.0659  156.3830 C   0  0  0  0  0  0  0  0  0  0  0  0
  151.7327  141.8177  157.4213 N   0  0  0  0  0  0  0  0  0  0  0  0
  151.3200  143.2174  157.4883 C   0  0  0  0  0  0  0  0  0  0  0  0
  152.2287  143.9994  158.4528 C   0  0  0  0  0  0  0  0  0  0  0  0
  152.2461  143.3626  159.7262 O   0  0  0  0  0  0  0  0  0  0  0  0
  152.7582  142.0365  159.6489 C   0  0  0  0  0  0  0  0  0  0  0  0
  151.8587  141.1884  158.7343 C   0  0  0  0  0  0  0  0  0  0  0  0
  151.7194  139.8362  155.9860 C   0  0  0  0  0  0  0  0  0  0  0  0
  148.5215  135.1891  155.2586 H   0  0  0  0  0  0  0  0  0  0  0  0
  149.4604  134.1626  156.3486 H   0  0  0  0  0  0  0  0  0  0  0  0
  149.7773  134.1231  154.6109 H   0  0  0  0  0  0  0  0  0  0  0  0
  150.2460  136.4331  153.6740 H   0  0  0  0  0  0  0  0  0  0  0  0
  152.5902  137.5263  155.0280 H   0  0  0  0  0  0  0  0  0  0  0  0
  152.0116  137.8838  153.4199 H   0  0  0  0  0  0  0  0  0  0  0  0
  149.4791  139.0916  153.5215 H   0  0  0  0  0  0  0  0  0  0  0  0
  148.5693  141.2694  154.3476 H   0  0  0  0  0  0  0  0  0  0  0  0
  151.3482  143.6930  156.5089 H   0  0  0  0  0  0  0  0  0  0  0  0
  150.2858  143.2621  157.8322 H   0  0  0  0  0  0  0  0  0  0  0  0
  153.2430  144.0720  158.0572 H   0  0  0  0  0  0  0  0  0  0  0  0
  151.8602  145.0184  158.5714 H   0  0  0  0  0  0  0  0  0  0  0  0
  153.7850  142.0522  159.2794 H   0  0  0  0  0  0  0  0  0  0  0  0
  152.7868  141.6071  160.6503 H   0  0  0  0  0  0  0  0  0  0  0  0
  150.8694  141.0801  159.1813 H   0  0  0  0  0  0  0  0  0  0  0  0
  152.2834  140.1887  158.6334 H   0  0  0  0  0  0  0  0  0  0  0  0
  152.5947  139.4578  156.4918 H   0  0  0  0  0  0  0  0  0  0  0  0
  1  2  1  0  0  0  0
  1 18  1  0  0  0  0
  1 19  1  0  0  0  0
  1 20  1  0  0  0  0
  2  3  2  0  0  0  0
  2  4  1  0  0  0  0
  4  5  1  0  0  0  0
  4 21  1  0  0  0  0
  5  6  1  0  0  0  0
  5 22  1  0  0  0  0
  5 23  1  0  0  0  0
  6 17  1  0  0  0  0
  6  7  2  0  0  0  0
  7  8  1  0  0  0  0
  7 24  1  0  0  0  0
  8  9  2  0  0  0  0
  8 25  1  0  0  0  0
  9 10  1  0  0  0  0
 10 11  1  0  0  0  0
 10 17  2  0  0  0  0
 11 16  1  0  0  0  0
 11 12  1  0  0  0  0
 12 13  1  0  0  0  0
 12 26  1  0  0  0  0
 12 27  1  0  0  0  0
 13 14  1  0  0  0  0
 13 28  1  0  0  0  0
 13 29  1  0  0  0  0
 14 15  1  0  0  0  0
 15 16  1  0  0  0  0
 15 30  1  0  0  0  0
 15 31  1  0  0  0  0
 16 32  1  0  0  0  0
 16 33  1  0  0  0  0
 17 34  1  0  0  0  0
M  END
> <s_m_source_file>
AV-unprocessed.smi

> <i_m_source_file_index>
1581

> <i_lp_mmshare_version>
43012

> <i_f3d_flags>
0

> <s_epik_input>
W0NIM11DKD1PKVtOSF1bQ0gyXWMxW2NIXVtjSF1uYyhbY0hdMSlOMltDSDJdW0NIMl1PW0NIMl1bQ0gyXTI=

> <s_epik_cmdline>
J2VwaWtfcHl0aG9uJywgJy1waCcsICc3LjAnLCAnLXRuJywgJzgnLCAnLW1hJywgJzIwMCcsICctbWV0YWxfYmluZGluZycsICctaW1hZScsICc8aW5maWxlLm1hZT4nLCAnLW9tYWUnLCAnPG91dGZpbGUubWFlPic=

> <r_lp_tautomer_probability>
1

> <r_epik_Ionization_Penalty>
0.0056686

> <r_epik_Ionization_Penalty_Charging>
0

> <r_epik_Ionization_Penalty_Neutral>
0.0056686

> <r_epik_State_Penalty>
0.00415614

> <r_epik_Charging_Adjusted_Penalty>
0.00415614

> <i_epik_Tot_Q>
0

> <i_epik_Tot_abs_Q>
0

> <r_epik_Metal_State_Penalty>
-0

> <b_epik_Metal_Only>
0

> <s_lp_Force_Field>
OPLS_2005

> <r_lp_Energy>
12.8791

> <b_lp_Chiralities_Consistent>
1

> <s_lp_Variant>
AV-unprocessed.smi:1581-1

> <Gold.Version>
5.8.1

> <Gold.Id.Protein>
6NUR|6NUR_protein|mol2

> <Gold.PLP.Fitness>
37.8513

> <Gold.PLP.PLP>
-35.3795

> <Gold.PLP.part.hbond>
-1.8088

> <Gold.PLP.part.metal>
0.0000

> <Gold.PLP.part.buried>
-3.7193

> <Gold.PLP.part.nonpolar>
-30.9470

> <Gold.PLP.part.repulsive>
0.2037

> <Gold.PLP.ligand.clash>
0.0000

> <Gold.PLP.ligand.torsion>
0.4204

> <Gold.PLP.Chemscore.Hbond>
1.0000

> <Gold.PLP.Chemscore.CHOScore>
0.0000

> <Gold.PLP.Chemscore.Metal>
0.0000

> <Gold.Chemscore.Hbonds>
donor molecule, donor type, donor heavy atom, donor atom, acceptor molecule, acceptor atom, score
      L1  H     4    21       P1  7948  0.37

> <Gold.PLP.Chemscore.Internal.Correction>
0.3126

> <Gold.Rescore>
     Score         DG    S(hbond)    S(metal)    S(lipo)     H(rot)  DE(clash)    DE(int)     intcor
     13.63     -14.12       0.91        0.00      81.71       1.54       0.10       0.40       ----

> <Gold.Chemscore.Fitness>
13.6299

> <Gold.Chemscore.DG>
-14.1209

> <Gold.Chemscore.ZeroCoef>
-5.4800

> <Gold.Chemscore.Hbond>
0.9089

> <Gold.Chemscore.Metal>
0.0000

> <Gold.Chemscore.Lipo>
81.7074

> <Gold.Chemscore.Internal_Hbond>
0.0000

> <Gold.Chemscore.DEClash>
0.0955

> <Gold.Chemscore.DEInternal>
0.3955

> <Gold.Chemscore.Rot>
1.5448

> <Gold.Chemscore.Internal.Correction>
   9.000000E+99

> <Gold.Chemscore.Hbonds>
donor molecule, donor type, donor heavy atom, donor atom, acceptor molecule, acceptor atom, score
      L1  H     4    21       P1  7948  0.03

> <Gold.Chemscore.Hbond.Weighted>
-3.0357

> <Gold.Chemscore.Metal.Weighted>
-0.0000

> <Gold.Chemscore.Lipo.Weighted>
-9.5598

> <Gold.Chemscore.Internal_Hbond.Weighted>
0.0000

> <Gold.Chemscore.DEClash.Weighted>
0.0955

> <Gold.Chemscore.DEInternal.Weighted>
0.3955

> <Gold.Chemscore.Rot.Weighted>
3.9546

> <Gold.Chemscore.Internal.Correction.Weighted>
   9.000000E+99

> <Gold.Protein.RotatedTorsions>
[ 6907 6896 6895 6894 ] final -101.88 input  -60.11 | X-H torsion
[ 7974 7965 7964 7962 ] final -175.60 input  175.53 | X-H torsion
[ 8008 7997 7996 7995 ] final -178.06 input   59.86 | X-H torsion
[ 10167 10162 10161 10158 ] final  163.08 input  -65.29 | X-H torsion
[ 10718 10713 10712 10709 ] final   74.17 input   66.30 | X-H torsion
[ 10763 10752 10751 10750 ] final   52.92 input  -60.55 | X-H torsion
[ 11005 11000 10999 10996 ] final  126.83 input  -57.11 | X-H torsion

> <Gold.Protein.ActiveResidues>
 VAL166  LYS551  ARG553  GLY616  TRP617  ASP618  TYR619  PRO620  LYS621  CYS622 
 ASP623  PHE694  ASN695  SER759  ASP760  ASP761  ALA762  ILE779  LEU786  VAL792 
 PHE793  MET794  SER795  GLU796  ALA797  LYS798  CYS799  TRP800  GLU811  SER814 

> <Gold.Protein.RotatedAtoms>
  150.7173  134.0666  159.3849 H   0  0  0  0  0  0  0  0  0  0  0  0  # atno 6907 bound_to 6896
  151.8647  135.0509  160.0482 H   0  0  0  0  0  0  0  0  0  0  0  0  # atno 6908 bound_to 6896
  152.2690  133.5329  159.5464 H   0  0  0  0  0  0  0  0  0  0  0  0  # atno 6909 bound_to 6896
  144.7128  140.1296  143.6399 H   0  0  0  0  0  0  0  0  0  0  0  0  # atno 7974 bound_to 7965
  156.0144  140.1247  157.0421 H   0  0  0  0  0  0  0  0  0  0  0  0  # atno 8008 bound_to 7997
  154.4288  140.1081  156.5945 H   0  0  0  0  0  0  0  0  0  0  0  0  # atno 8009 bound_to 7997
  155.6034  140.3471  155.4603 H   0  0  0  0  0  0  0  0  0  0  0  0  # atno 8010 bound_to 7997
  139.4869  144.4373  151.8996 H   0  0  0  0  0  0  0  0  0  0  0  0  # atno 10167 bound_to 10162
  157.6580  130.9664  150.1173 H   0  0  0  0  0  0  0  0  0  0  0  0  # atno 10718 bound_to 10713
  152.9792  135.5796  154.4657 H   0  0  0  0  0  0  0  0  0  0  0  0  # atno 10763 bound_to 10752
  154.4227  135.2772  155.1967 H   0  0  0  0  0  0  0  0  0  0  0  0  # atno 10764 bound_to 10752
  154.3709  135.6168  153.5793 H   0  0  0  0  0  0  0  0  0  0  0  0  # atno 10765 bound_to 10752
  139.9476  134.9627  156.8765 H   0  0  0  0  0  0  0  0  0  0  0  0  # atno 11005 bound_to 11000
  145.9298  139.2599  143.1332 LP  0  0  0  0  0  0  0  0  0  0  0  0  # atno 17320 bound_to 7965
  145.9534  140.8891  143.0247 LP  0  0  0  0  0  0  0  0  0  0  0  0  # atno 17321 bound_to 7965
  140.3823  144.2720  150.5907 LP  0  0  0  0  0  0  0  0  0  0  0  0  # atno 17342 bound_to 10162
  140.5222  143.2263  151.8371 LP  0  0  0  0  0  0  0  0  0  0  0  0  # atno 17343 bound_to 10162
  156.2053  130.3663  149.8737 LP  0  0  0  0  0  0  0  0  0  0  0  0  # atno 17370 bound_to 10713
  156.6630  130.8789  151.3550 LP  0  0  0  0  0  0  0  0  0  0  0  0  # atno 17371 bound_to 10713
  140.5796  134.0365  155.7459 LP  0  0  0  0  0  0  0  0  0  0  0  0  # atno 17394 bound_to 11000
  141.1131  133.9584  157.2873 LP  0  0  0  0  0  0  0  0  0  0  0  0  # atno 17395 bound_to 11000

$$$$
