AV-unprocessed.smi:3221|AV-procd|sdf|12302|dock10
  -GOLD-   2272018143D 1   1.00000     0.00000
 Structure written by MMmdl.
 27 28  0  0  0  0  0  0  0  0  2 V2000
  151.8255  137.3680  158.8172 F   0  0  0  0  0  0  0  0  0  0  0  0
  153.0796  137.8118  158.7333 C   0  0  0  0  0  0  0  0  0  0  0  0
  153.8694  136.8928  159.2879 F   0  0  0  0  0  0  0  0  0  0  0  0
  153.3929  137.8894  157.4402 F   0  0  0  0  0  0  0  0  0  0  0  0
  153.2414  139.1433  159.4083 C   0  0  0  0  0  0  0  0  0  0  0  0
  154.1057  139.4593  160.4282 C   0  0  0  0  0  0  0  0  0  0  0  0
  153.9566  141.1240  160.9193 S   0  0  0  0  0  0  0  0  0  0  0  0
  152.7029  141.3388  159.7033 C   0  0  0  0  0  0  0  0  0  0  0  0
  151.9939  142.6363  159.4767 C   0  0  1  0  0  0  0  0  0  0  0  0
  152.9529  143.8414  159.4808 C   0  0  0  0  0  0  0  0  0  0  0  0
  152.1764  145.1460  159.2441 C   0  0  0  0  0  0  0  0  0  0  0  0
  151.3276  145.0563  157.9648 C   0  0  0  0  0  0  0  0  0  0  0  0
  150.4095  143.8981  158.0269 N   0  3  0  0  0  0  0  0  0  0  0  0
  151.1138  142.6098  158.2105 C   0  0  0  0  0  0  0  0  0  0  0  0
  152.4528  140.2268  159.0059 N   0  0  0  0  0  0  0  0  0  0  0  0
  154.8186  138.8139  160.9199 H   0  0  0  0  0  0  0  0  0  0  0  0
  151.3209  142.7663  160.3257 H   0  0  0  0  0  0  0  0  0  0  0  0
  153.4910  143.8951  160.4280 H   0  0  0  0  0  0  0  0  0  0  0  0
  153.7055  143.7210  158.7005 H   0  0  0  0  0  0  0  0  0  0  0  0
  151.5306  145.3492  160.0996 H   0  0  0  0  0  0  0  0  0  0  0  0
  152.8694  145.9849  159.1745 H   0  0  0  0  0  0  0  0  0  0  0  0
  150.7430  145.9671  157.8334 H   0  0  0  0  0  0  0  0  0  0  0  0
  151.9701  144.9596  157.0885 H   0  0  0  0  0  0  0  0  0  0  0  0
  149.7767  144.0315  158.8027 H   0  0  0  0  0  0  0  0  0  0  0  0
  151.7216  142.4123  157.3260 H   0  0  0  0  0  0  0  0  0  0  0  0
  150.3754  141.8102  158.2752 H   0  0  0  0  0  0  0  0  0  0  0  0
  149.8727  143.8585  157.1722 H   0  0  0  0  0  0  0  0  0  0  0  0
  1  2  1  0  0  0  0
  2  3  1  0  0  0  0
  2  4  1  0  0  0  0
  2  5  1  0  0  0  0
  5 15  1  0  0  0  0
  5  6  2  0  0  0  0
  6  7  1  0  0  0  0
  6 16  1  0  0  0  0
  7  8  1  0  0  0  0
  8  9  1  0  0  0  0
  8 15  2  0  0  0  0
  9 14  1  0  0  0  0
  9 10  1  0  0  0  0
  9 17  1  0  0  0  0
 10 11  1  0  0  0  0
 10 18  1  0  0  0  0
 10 19  1  0  0  0  0
 11 12  1  0  0  0  0
 11 20  1  0  0  0  0
 11 21  1  0  0  0  0
 12 13  1  0  0  0  0
 12 22  1  0  0  0  0
 12 23  1  0  0  0  0
 13 14  1  0  0  0  0
 13 24  1  0  0  0  0
 13 27  1  0  0  0  0
 14 25  1  0  0  0  0
 14 26  1  0  0  0  0
M  CHG  1  13   1
M  END
> <s_m_source_file>
AV-unprocessed.smi

> <i_m_source_file_index>
3221

> <i_lp_mmshare_version>
43012

> <i_f3d_flags>
0

> <s_epik_input>
RkMoRikoRiljMVtjSF1zYyhuMSlbQ0BASF0yW0NIMl1bQ0gyXVtDSDJdW05IXVtDSDJdMg==

> <s_epik_cmdline>
J2VwaWtfcHl0aG9uJywgJy1waCcsICc3LjAnLCAnLXRuJywgJzgnLCAnLW1hJywgJzIwMCcsICctbWV0YWxfYmluZGluZycsICctaW1hZScsICc8aW5maWxlLm1hZT4nLCAnLW9tYWUnLCAnPG91dGZpbGUubWFlPic=

> <r_epik_Ionization_Penalty>
0.000426856

> <r_epik_Ionization_Penalty_Charging>
0.000426856

> <r_epik_Ionization_Penalty_Neutral>
2.38238e-11

> <r_epik_State_Penalty>
0.00026276

> <r_epik_Charging_Adjusted_Penalty>
0.000689616

> <i_epik_Tot_Q>
1

> <i_epik_Tot_abs_Q>
1

> <r_epik_Metal_State_Penalty>
-0

> <b_epik_Metal_Only>
0

> <s_lp_Force_Field>
OPLS_2005

> <r_lp_Energy>
6.82196

> <b_lp_Chiralities_Consistent>
1

> <s_lp_Variant>
AV-unprocessed.smi:3221-2

> <Gold.Version>
5.8.1

> <Gold.Id.Protein>
6NUR|6NUR_protein|mol2

> <Gold.PLP.Fitness>
35.4959

> <Gold.PLP.PLP>
-30.0805

> <Gold.PLP.part.hbond>
-1.0522

> <Gold.PLP.part.metal>
0.0000

> <Gold.PLP.part.buried>
-4.4811

> <Gold.PLP.part.nonpolar>
-24.4168

> <Gold.PLP.part.repulsive>
0.0347

> <Gold.PLP.ligand.clash>
0.0000

> <Gold.PLP.ligand.torsion>
0.3187

> <Gold.PLP.Chemscore.Hbond>
2.0000

> <Gold.PLP.Chemscore.CHOScore>
0.0000

> <Gold.PLP.Chemscore.Metal>
0.0000

> <Gold.Chemscore.Hbonds>
donor molecule, donor type, donor heavy atom, donor atom, acceptor molecule, acceptor atom, score
      L1  H    13    27       P1  8028  2.00

> <Gold.PLP.Chemscore.Internal.Correction>
0.0528

> <Gold.Rescore>
     Score         DG    S(hbond)    S(metal)    S(lipo)     H(rot)  DE(clash)    DE(int)     intcor
     16.06     -16.26       0.81        0.00      90.82       1.00       0.04       0.17       ----

> <Gold.Chemscore.Fitness>
16.0571

> <Gold.Chemscore.DG>
-16.2583

> <Gold.Chemscore.ZeroCoef>
-5.4800

> <Gold.Chemscore.Hbond>
0.8119

> <Gold.Chemscore.Metal>
0.0000

> <Gold.Chemscore.Lipo>
90.8245

> <Gold.Chemscore.Internal_Hbond>
0.0000

> <Gold.Chemscore.DEClash>
0.0354

> <Gold.Chemscore.DEInternal>
0.1658

> <Gold.Chemscore.Rot>
1.0000

> <Gold.Chemscore.Internal.Correction>
   9.000000E+99

> <Gold.Chemscore.Hbonds>
donor molecule, donor type, donor heavy atom, donor atom, acceptor molecule, acceptor atom, score
      L1  H    13    27       P1  8028  0.82

> <Gold.Chemscore.Hbond.Weighted>
-2.7118

> <Gold.Chemscore.Metal.Weighted>
-0.0000

> <Gold.Chemscore.Lipo.Weighted>
-10.6265

> <Gold.Chemscore.Internal_Hbond.Weighted>
0.0000

> <Gold.Chemscore.DEClash.Weighted>
0.0354

> <Gold.Chemscore.DEInternal.Weighted>
0.1658

> <Gold.Chemscore.Rot.Weighted>
2.5600

> <Gold.Chemscore.Internal.Correction.Weighted>
   9.000000E+99

> <Gold.Protein.RotatedTorsions>
[ 6907 6896 6895 6894 ] final   71.22 input  -60.11 | X-H torsion
[ 7974 7965 7964 7962 ] final   63.15 input  175.53 | X-H torsion
[ 8008 7997 7996 7995 ] final   43.67 input   59.86 | X-H torsion
[ 10167 10162 10161 10158 ] final    0.45 input  -65.29 | X-H torsion
[ 10718 10713 10712 10709 ] final    0.37 input   66.30 | X-H torsion
[ 10763 10752 10751 10750 ] final   91.29 input  -60.55 | X-H torsion
[ 11005 11000 10999 10996 ] final  -21.41 input  -57.11 | X-H torsion

> <Gold.Protein.ActiveResidues>
 VAL166  LYS551  ARG553  GLY616  TRP617  ASP618  TYR619  PRO620  LYS621  CYS622 
 ASP623  PHE694  ASN695  SER759  ASP760  ASP761  ALA762  ILE779  LEU786  VAL792 
 PHE793  MET794  SER795  GLU796  ALA797  LYS798  CYS799  TRP800  GLU811  SER814 

> <Gold.Protein.RotatedAtoms>
  152.4796  134.4753  159.9648 H   0  0  0  0  0  0  0  0  0  0  0  0  # atno 6907 bound_to 6896
  151.4762  133.3551  159.2839 H   0  0  0  0  0  0  0  0  0  0  0  0  # atno 6908 bound_to 6896
  150.8860  134.8283  159.7320 H   0  0  0  0  0  0  0  0  0  0  0  0  # atno 6909 bound_to 6896
  145.8651  139.3340  143.0796 H   0  0  0  0  0  0  0  0  0  0  0  0  # atno 7974 bound_to 7965
  155.3065  140.3388  155.4245 H   0  0  0  0  0  0  0  0  0  0  0  0  # atno 8008 bound_to 7997
  156.1976  140.1721  156.8004 H   0  0  0  0  0  0  0  0  0  0  0  0  # atno 8009 bound_to 7997
  154.5518  140.0704  156.8664 H   0  0  0  0  0  0  0  0  0  0  0  0  # atno 8010 bound_to 7997
  140.6728  143.7001  150.7958 H   0  0  0  0  0  0  0  0  0  0  0  0  # atno 10167 bound_to 10162
  156.8323  130.5493  149.5685 H   0  0  0  0  0  0  0  0  0  0  0  0  # atno 10718 bound_to 10713
  153.2067  135.4403  155.0331 H   0  0  0  0  0  0  0  0  0  0  0  0  # atno 10763 bound_to 10752
  154.8177  135.3323  154.7130 H   0  0  0  0  0  0  0  0  0  0  0  0  # atno 10764 bound_to 10752
  153.7571  135.6994  153.4989 H   0  0  0  0  0  0  0  0  0  0  0  0  # atno 10765 bound_to 10752
  140.8559  133.7823  156.0018 H   0  0  0  0  0  0  0  0  0  0  0  0  # atno 11005 bound_to 11000
  145.9202  140.9120  143.0409 LP  0  0  0  0  0  0  0  0  0  0  0  0  # atno 17320 bound_to 7965
  144.6726  140.1279  143.7445 LP  0  0  0  0  0  0  0  0  0  0  0  0  # atno 17321 bound_to 7965
  140.0689  143.5080  152.2590 LP  0  0  0  0  0  0  0  0  0  0  0  0  # atno 17342 bound_to 10162
  139.6004  144.7581  151.3185 LP  0  0  0  0  0  0  0  0  0  0  0  0  # atno 17343 bound_to 10162
  156.0927  130.5908  150.9760 LP  0  0  0  0  0  0  0  0  0  0  0  0  # atno 17370 bound_to 10713
  157.6400  131.0911  150.8271 LP  0  0  0  0  0  0  0  0  0  0  0  0  # atno 17371 bound_to 10713
  140.8738  134.2694  157.5178 LP  0  0  0  0  0  0  0  0  0  0  0  0  # atno 17394 bound_to 11000
  139.8705  134.9581  156.4288 LP  0  0  0  0  0  0  0  0  0  0  0  0  # atno 17395 bound_to 11000

$$$$
