AV-unprocessed.smi:1703|AV-procd|sdf|6873|dock1
  -GOLD-   22720 8 73D 1   1.00000     0.00000
 Structure written by MMmdl.
 50 52  0  0  0  0  0  0  0  0  3 V2000
  149.3152  132.2686  154.0588 C   0  0  0  0  0  0  0  0  0  0  0  0
  149.0259  133.7708  154.1500 C   0  0  2  0  0  0  0  0  0  0  0  0
  150.2802  134.5791  154.5286 C   0  0  0  0  0  0  0  0  0  0  0  0
  149.9409  136.0110  154.6919 N   0  3  2  0  0  0  0  0  0  0  0  0
  151.1353  136.8591  154.9367 C   0  0  0  0  0  0  0  0  0  0  0  0
  150.7956  138.3626  154.9646 C   0  0  2  0  0  0  0  0  0  0  0  0
  151.7341  139.0573  154.1652 O   0  0  0  0  0  0  0  0  0  0  0  0
  150.8183  138.9293  156.3981 C   0  0  0  0  0  0  0  0  0  0  0  0
  150.5613  140.3789  156.4415 N   0  0  0  0  0  0  0  0  0  0  0  0
  149.7473  141.1472  155.6604 C   0  0  0  0  0  0  0  0  0  0  0  0
  148.8899  140.6739  154.5295 C   0  0  0  0  0  0  0  0  0  0  0  0
  149.3752  141.0624  153.2616 O   0  0  0  0  0  0  0  0  0  0  0  0
  149.8730  142.4346  156.0922 N   0  3  0  0  0  0  0  0  0  0  0  0
  150.7689  142.4918  157.1597 C   0  0  0  0  0  0  0  0  0  0  0  0
  151.2124  143.5709  157.9177 C   0  0  0  0  0  0  0  0  0  0  0  0
  152.1398  143.2867  158.9412 C   0  0  0  0  0  0  0  0  0  0  0  0
  152.5901  141.9720  159.1784 C   0  0  0  0  0  0  0  0  0  0  0  0
  152.1328  140.8859  158.4032 C   0  0  0  0  0  0  0  0  0  0  0  0
  151.2153  141.1744  157.3923 C   0  0  0  0  0  0  0  0  0  0  0  0
  148.8740  136.1730  155.7097 C   0  0  0  0  0  0  0  0  0  0  0  0
  147.6381  135.3237  155.3531 C   0  0  1  0  0  0  0  0  0  0  0  0
  146.8220  135.8930  154.1789 C   0  0  0  0  0  0  0  0  0  0  0  0
  148.0193  133.9643  155.1403 O   0  0  0  0  0  0  0  0  0  0  0  0
  150.0758  132.0595  153.3064 H   0  0  0  0  0  0  0  0  0  0  0  0
  148.4167  131.7150  153.7847 H   0  0  0  0  0  0  0  0  0  0  0  0
  149.6700  131.8754  155.0119 H   0  0  0  0  0  0  0  0  0  0  0  0
  148.6565  134.1023  153.1793 H   0  0  0  0  0  0  0  0  0  0  0  0
  150.7152  134.1993  155.4548 H   0  0  0  0  0  0  0  0  0  0  0  0
  151.0346  134.4649  153.7489 H   0  0  0  0  0  0  0  0  0  0  0  0
  151.6071  136.5543  155.8722 H   0  0  0  0  0  0  0  0  0  0  0  0
  151.8757  136.6867  154.1539 H   0  0  0  0  0  0  0  0  0  0  0  0
  149.8052  138.5327  154.5434 H   0  0  0  0  0  0  0  0  0  0  0  0
  152.5499  139.1188  154.6381 H   0  0  0  0  0  0  0  0  0  0  0  0
  150.0480  138.4462  156.9998 H   0  0  0  0  0  0  0  0  0  0  0  0
  151.7631  138.7122  156.8961 H   0  0  0  0  0  0  0  0  0  0  0  0
  148.8259  139.5862  154.5656 H   0  0  0  0  0  0  0  0  0  0  0  0
  147.8788  141.0629  154.6482 H   0  0  0  0  0  0  0  0  0  0  0  0
  149.1204  140.4096  152.6273 H   0  0  0  0  0  0  0  0  0  0  0  0
  150.8696  144.5793  157.7371 H   0  0  0  0  0  0  0  0  0  0  0  0
  152.5136  144.0928  159.5559 H   0  0  0  0  0  0  0  0  0  0  0  0
  153.3019  141.7928  159.9712 H   0  0  0  0  0  0  0  0  0  0  0  0
  152.4899  139.8857  158.5964 H   0  0  0  0  0  0  0  0  0  0  0  0
  149.2605  135.8633  156.6819 H   0  0  0  0  0  0  0  0  0  0  0  0
  148.5831  137.2183  155.8078 H   0  0  0  0  0  0  0  0  0  0  0  0
  146.9782  135.3185  156.2212 H   0  0  0  0  0  0  0  0  0  0  0  0
  146.4344  136.8824  154.4224 H   0  0  0  0  0  0  0  0  0  0  0  0
  145.9688  135.2531  153.9519 H   0  0  0  0  0  0  0  0  0  0  0  0
  147.4157  135.9945  153.2709 H   0  0  0  0  0  0  0  0  0  0  0  0
  149.5558  136.3122  153.8078 H   0  0  0  0  0  0  0  0  0  0  0  0
  149.3807  143.2164  155.6791 H   0  0  0  0  0  0  0  0  0  0  0  0
  1  2  1  0  0  0  0
  1 24  1  0  0  0  0
  1 25  1  0  0  0  0
  1 26  1  0  0  0  0
  2 23  1  0  0  0  0
  2  3  1  0  0  0  0
  2 27  1  0  0  0  0
  3  4  1  0  0  0  0
  3 28  1  0  0  0  0
  3 29  1  0  0  0  0
  4  5  1  0  0  0  0
  4 20  1  0  0  0  0
  4 49  1  0  0  0  0
  5  6  1  0  0  0  0
  5 30  1  0  0  0  0
  5 31  1  0  0  0  0
  6  7  1  0  0  0  0
  6  8  1  0  0  0  0
  6 32  1  0  0  0  0
  7 33  1  0  0  0  0
  8  9  1  0  0  0  0
  8 34  1  0  0  0  0
  8 35  1  0  0  0  0
  9 19  1  0  0  0  0
  9 10  1  0  0  0  0
 10 11  1  0  0  0  0
 10 13  2  0  0  0  0
 11 12  1  0  0  0  0
 11 36  1  0  0  0  0
 11 37  1  0  0  0  0
 12 38  1  0  0  0  0
 13 14  1  0  0  0  0
 13 50  1  0  0  0  0
 14 19  2  0  0  0  0
 14 15  1  0  0  0  0
 15 16  2  0  0  0  0
 15 39  1  0  0  0  0
 16 17  1  0  0  0  0
 16 40  1  0  0  0  0
 17 18  2  0  0  0  0
 17 41  1  0  0  0  0
 18 19  1  0  0  0  0
 18 42  1  0  0  0  0
 20 21  1  0  0  0  0
 20 43  1  0  0  0  0
 20 44  1  0  0  0  0
 21 22  1  0  0  0  0
 21 23  1  0  0  0  0
 21 45  1  0  0  0  0
 22 46  1  0  0  0  0
 22 47  1  0  0  0  0
 22 48  1  0  0  0  0
M  CHG  1   4   1
M  CHG  1  13   1
M  END
> <s_m_source_file>
AV-unprocessed.smi

> <i_m_source_file_index>
1703

> <i_lp_mmshare_version>
43012

> <i_f3d_flags>
0

> <s_epik_input>
W0NIM11bQ0BASF0xW0NIMl1OKFtDSDJdW0NASF0oTzEpW0NIM10pW0NIMl1bQ0BIXShbT0hdKVtDSDJdbihjKG4yKVtDSDJdW09IXSljKGMyMylbY0hdW2NIXVtjSF1bY0hdMw==

> <s_epik_cmdline>
J2VwaWtfcHl0aG9uJywgJy1waCcsICc3LjAnLCAnLXRuJywgJzgnLCAnLW1hJywgJzIwMCcsICctbWV0YWxfYmluZGluZycsICctaW1hZScsICc8aW5maWxlLm1hZT4nLCAnLW9tYWUnLCAnPG91dGZpbGUubWFlPic=

> <r_epik_Ionization_Penalty>
2.22579

> <r_epik_Ionization_Penalty_Charging>
2.22492

> <r_epik_Ionization_Penalty_Neutral>
0.000870007

> <r_epik_State_Penalty>
2.3141

> <r_epik_Charging_Adjusted_Penalty>
4.53902

> <i_epik_Tot_Q>
2

> <i_epik_Tot_abs_Q>
2

> <r_epik_Metal_State_Penalty>
6.36517

> <b_epik_Metal_Only>
0

> <s_lp_Force_Field>
OPLS_2005

> <r_lp_Energy>
31.3711

> <b_lp_Chiralities_Consistent>
1

> <s_lp_Variant>
AV-unprocessed.smi:1703-21

> <Gold.Version>
5.8.1

> <Gold.Id.Protein>
6NUR|6NUR_protein|mol2

> <Gold.PLP.Fitness>
58.2264

> <Gold.PLP.PLP>
-40.5144

> <Gold.PLP.part.hbond>
-5.4656

> <Gold.PLP.part.metal>
0.0000

> <Gold.PLP.part.buried>
-1.6144

> <Gold.PLP.part.nonpolar>
-33.7754

> <Gold.PLP.part.repulsive>
0.2122

> <Gold.PLP.ligand.clash>
0.0000

> <Gold.PLP.ligand.torsion>
1.1435

> <Gold.PLP.Chemscore.Hbond>
6.6480

> <Gold.PLP.Chemscore.CHOScore>
0.0000

> <Gold.PLP.Chemscore.Metal>
0.0000

> <Gold.Chemscore.Hbonds>
donor molecule, donor type, donor heavy atom, donor atom, acceptor molecule, acceptor atom, score
      L1  H     4    49       P1  7948  2.00
      L1  H    12    38       P1  7957  0.67
      L1  H    13    50       P1  8028  2.00
      P1  H  7989  7998       L1     7  0.87
      P1  H  8011  8017       L1    12  1.00

> <Gold.PLP.Chemscore.Internal.Correction>
0.0551

> <Gold.Rescore>
     Score         DG    S(hbond)    S(metal)    S(lipo)     H(rot)  DE(clash)    DE(int)     intcor
     20.55     -22.27       3.84        0.00     100.49       3.04       0.59       1.13       ----

> <Gold.Chemscore.Fitness>
20.5504

> <Gold.Chemscore.DG>
-22.2712

> <Gold.Chemscore.ZeroCoef>
-5.4800

> <Gold.Chemscore.Hbond>
3.8356

> <Gold.Chemscore.Metal>
0.0000

> <Gold.Chemscore.Lipo>
100.4860

> <Gold.Chemscore.Internal_Hbond>
0.0000

> <Gold.Chemscore.DEClash>
0.5861

> <Gold.Chemscore.DEInternal>
1.1348

> <Gold.Chemscore.Rot>
3.0378

> <Gold.Chemscore.Internal.Correction>
   9.000000E+99

> <Gold.Chemscore.Hbonds>
donor molecule, donor type, donor heavy atom, donor atom, acceptor molecule, acceptor atom, score
      L1  H     4    49       P1  7948  0.62
      L1  H    12    38       P1  7957  0.67
      L1  H    13    50       P1  8028  0.95
      P1  H  7989  7998       L1     7  0.19
      P1  H  8011  8017       L1    12  0.44

> <Gold.Chemscore.Hbond.Weighted>
-12.8110

> <Gold.Chemscore.Metal.Weighted>
-0.0000

> <Gold.Chemscore.Lipo.Weighted>
-11.7569

> <Gold.Chemscore.Internal_Hbond.Weighted>
0.0000

> <Gold.Chemscore.DEClash.Weighted>
0.5861

> <Gold.Chemscore.DEInternal.Weighted>
1.1348

> <Gold.Chemscore.Rot.Weighted>
7.7767

> <Gold.Chemscore.Internal.Correction.Weighted>
   9.000000E+99

> <Gold.Protein.RotatedTorsions>
[ 6907 6896 6895 6894 ] final -169.78 input  -60.11 | X-H torsion
[ 7974 7965 7964 7962 ] final  158.05 input  175.53 | X-H torsion
[ 8008 7997 7996 7995 ] final  -30.48 input   59.86 | X-H torsion
[ 10167 10162 10161 10158 ] final  135.40 input  -65.29 | X-H torsion
[ 10718 10713 10712 10709 ] final  125.00 input   66.30 | X-H torsion
[ 10763 10752 10751 10750 ] final -124.09 input  -60.55 | X-H torsion
[ 11005 11000 10999 10996 ] final  -72.63 input  -57.11 | X-H torsion

> <Gold.Protein.ActiveResidues>
 VAL166  LYS551  ARG553  GLY616  TRP617  ASP618  TYR619  PRO620  LYS621  CYS622 
 ASP623  PHE694  ASN695  SER759  ASP760  ASP761  ALA762  ILE779  LEU786  VAL792 
 PHE793  MET794  SER795  GLU796  ALA797  LYS798  CYS799  TRP800  GLU811  SER814 

> <Gold.Protein.RotatedAtoms>
  151.4972  133.3512  159.2862 H   0  0  0  0  0  0  0  0  0  0  0  0  # atno 6907 bound_to 6896
  150.8796  134.8187  159.7226 H   0  0  0  0  0  0  0  0  0  0  0  0  # atno 6908 bound_to 6896
  152.4754  134.4868  159.9734 H   0  0  0  0  0  0  0  0  0  0  0  0  # atno 6909 bound_to 6896
  144.7868  139.7424  143.6237 H   0  0  0  0  0  0  0  0  0  0  0  0  # atno 7974 bound_to 7965
  154.4249  140.1790  156.1414 H   0  0  0  0  0  0  0  0  0  0  0  0  # atno 8008 bound_to 7997
  155.9988  140.3362  155.6800 H   0  0  0  0  0  0  0  0  0  0  0  0  # atno 8009 bound_to 7997
  155.6271  140.0666  157.2651 H   0  0  0  0  0  0  0  0  0  0  0  0  # atno 8010 bound_to 7997
  139.5219  144.6519  151.5277 H   0  0  0  0  0  0  0  0  0  0  0  0  # atno 10167 bound_to 10162
  157.5539  131.1093  150.8655 H   0  0  0  0  0  0  0  0  0  0  0  0  # atno 10718 bound_to 10713
  154.8718  135.4075  154.3050 H   0  0  0  0  0  0  0  0  0  0  0  0  # atno 10763 bound_to 10752
  153.3903  135.7014  153.6505 H   0  0  0  0  0  0  0  0  0  0  0  0  # atno 10764 bound_to 10752
  153.5291  135.3671  155.2638 H   0  0  0  0  0  0  0  0  0  0  0  0  # atno 10765 bound_to 10752
  141.1611  133.6853  156.7089 H   0  0  0  0  0  0  0  0  0  0  0  0  # atno 11005 bound_to 11000
  146.2103  139.5455  142.9685 LP  0  0  0  0  0  0  0  0  0  0  0  0  # atno 17320 bound_to 7965
  145.5900  141.0371  143.2075 LP  0  0  0  0  0  0  0  0  0  0  0  0  # atno 17321 bound_to 7965
  140.6327  143.9044  150.6620 LP  0  0  0  0  0  0  0  0  0  0  0  0  # atno 17342 bound_to 10162
  140.2353  143.3704  152.1531 LP  0  0  0  0  0  0  0  0  0  0  0  0  # atno 17343 bound_to 10162
  156.9172  130.5302  149.5279 LP  0  0  0  0  0  0  0  0  0  0  0  0  # atno 17370 bound_to 10713
  156.0601  130.5655  150.9175 LP  0  0  0  0  0  0  0  0  0  0  0  0  # atno 17371 bound_to 10713
  140.2902  134.8246  157.4010 LP  0  0  0  0  0  0  0  0  0  0  0  0  # atno 17394 bound_to 11000
  140.1353  134.5042  155.8073 LP  0  0  0  0  0  0  0  0  0  0  0  0  # atno 17395 bound_to 11000

$$$$
