AV-unprocessed.smi:907|AV-procd|sdf|4108|dock1
  -GOLD-   22720 2 03D 1   1.00000     0.00000
 Structure written by MMmdl.
 53 56  0  0  0  0  0  0  0  0  2 V2000
  150.2037  136.8606  159.2434 O   0  0  0  0  0  0  0  0  0  0  0  0
  149.8265  137.5584  158.3015 C   0  0  0  0  0  0  0  0  0  0  0  0
  148.6204  137.3983  157.7336 N   0  0  0  0  0  0  0  0  0  0  0  0
  147.6238  136.4271  158.1631 C   0  0  0  0  0  0  0  0  0  0  0  0
  146.7432  137.0149  159.2746 C   0  0  0  0  0  0  0  0  0  0  0  0
  146.9554  136.3197  160.6060 C   0  0  0  0  0  0  0  0  0  0  0  0
  146.7498  134.9295  160.7342 C   0  0  0  0  0  0  0  0  0  0  0  0
  146.9677  134.3326  161.9909 C   0  0  0  0  0  0  0  0  0  0  0  0
  147.3812  135.1441  163.0650 C   0  0  0  0  0  0  0  0  0  0  0  0
  147.5589  136.5227  162.8335 C   0  0  0  0  0  0  0  0  0  0  0  0
  147.3523  137.1050  161.6326 N   0  0  0  0  0  0  0  0  0  0  0  0
  150.5960  138.5238  157.7383 N   0  0  0  0  0  0  0  0  0  0  0  0
  150.1800  139.4839  156.7088 C   0  0  0  0  0  0  0  0  0  0  0  0
  150.0199  140.8667  157.3629 C   0  0  0  0  0  0  0  0  0  0  0  0
  151.2709  141.3139  158.0457 N   0  3  0  0  0  0  0  0  0  0  0  0
  151.1046  142.6615  158.6727 C   0  0  2  0  0  0  0  0  0  0  0  0
  151.2590  143.8040  157.6330 C   0  0  0  0  0  0  0  0  0  0  0  0
  152.3381  144.7113  158.2454 C   0  0  1  0  0  0  0  0  0  0  0  0
  151.7693  145.4238  159.4833 C   0  0  0  0  0  0  0  0  0  0  0  0
  151.6819  144.2830  160.5115 C   0  0  0  0  0  0  0  0  0  0  0  0
  152.1850  143.0600  159.7182 C   0  0  2  0  0  0  0  0  0  0  0  0
  153.2800  143.6864  158.8627 C   0  0  0  0  0  0  0  0  0  0  0  0
  151.8112  140.2666  158.9628 C   0  0  0  0  0  0  0  0  0  0  0  0
  151.9064  138.8901  158.2773 C   0  0  0  0  0  0  0  0  0  0  0  0
  148.3764  137.9906  156.9534 H   0  0  0  0  0  0  0  0  0  0  0  0
  147.0098  136.1405  157.3080 H   0  0  0  0  0  0  0  0  0  0  0  0
  148.1232  135.5249  158.5205 H   0  0  0  0  0  0  0  0  0  0  0  0
  146.9544  138.0787  159.3954 H   0  0  0  0  0  0  0  0  0  0  0  0
  145.6912  136.9411  158.9954 H   0  0  0  0  0  0  0  0  0  0  0  0
  146.4349  134.3325  159.8910 H   0  0  0  0  0  0  0  0  0  0  0  0
  146.8219  133.2713  162.1283 H   0  0  0  0  0  0  0  0  0  0  0  0
  147.5586  134.7206  164.0423 H   0  0  0  0  0  0  0  0  0  0  0  0
  147.8761  137.1746  163.6339 H   0  0  0  0  0  0  0  0  0  0  0  0
  150.9420  139.5263  155.9291 H   0  0  0  0  0  0  0  0  0  0  0  0
  149.2577  139.2118  156.1957 H   0  0  0  0  0  0  0  0  0  0  0  0
  149.7194  141.5817  156.5982 H   0  0  0  0  0  0  0  0  0  0  0  0
  149.2074  140.8317  158.0906 H   0  0  0  0  0  0  0  0  0  0  0  0
  150.1182  142.6949  159.1389 H   0  0  0  0  0  0  0  0  0  0  0  0
  151.6173  143.4352  156.6710 H   0  0  0  0  0  0  0  0  0  0  0  0
  150.3219  144.3328  157.4550 H   0  0  0  0  0  0  0  0  0  0  0  0
  152.8006  145.3873  157.5254 H   0  0  0  0  0  0  0  0  0  0  0  0
  152.4481  146.2034  159.8310 H   0  0  0  0  0  0  0  0  0  0  0  0
  150.8006  145.8849  159.2869 H   0  0  0  0  0  0  0  0  0  0  0  0
  152.3353  144.4871  161.3609 H   0  0  0  0  0  0  0  0  0  0  0  0
  150.6712  144.1455  160.8977 H   0  0  0  0  0  0  0  0  0  0  0  0
  152.5208  142.2742  160.3907 H   0  0  0  0  0  0  0  0  0  0  0  0
  153.7098  142.9959  158.1348 H   0  0  0  0  0  0  0  0  0  0  0  0
  154.0838  144.1358  159.4487 H   0  0  0  0  0  0  0  0  0  0  0  0
  152.8133  140.5256  159.2971 H   0  0  0  0  0  0  0  0  0  0  0  0
  151.1792  140.1994  159.8500 H   0  0  0  0  0  0  0  0  0  0  0  0
  152.2960  138.1513  158.9795 H   0  0  0  0  0  0  0  0  0  0  0  0
  152.6309  138.9284  157.4627 H   0  0  0  0  0  0  0  0  0  0  0  0
  151.9655  141.4233  157.3207 H   0  0  0  0  0  0  0  0  0  0  0  0
  1  2  2  0  0  0  0
  2  3  1  0  0  0  0
  2 12  1  0  0  0  0
  3  4  1  0  0  0  0
  3 25  1  0  0  0  0
  4  5  1  0  0  0  0
  4 26  1  0  0  0  0
  4 27  1  0  0  0  0
  5  6  1  0  0  0  0
  5 28  1  0  0  0  0
  5 29  1  0  0  0  0
  6 11  1  0  0  0  0
  6  7  2  0  0  0  0
  7  8  1  0  0  0  0
  7 30  1  0  0  0  0
  8  9  2  0  0  0  0
  8 31  1  0  0  0  0
  9 10  1  0  0  0  0
  9 32  1  0  0  0  0
 10 11  2  0  0  0  0
 10 33  1  0  0  0  0
 12 24  1  0  0  0  0
 12 13  1  0  0  0  0
 13 14  1  0  0  0  0
 13 34  1  0  0  0  0
 13 35  1  0  0  0  0
 14 15  1  0  0  0  0
 14 36  1  0  0  0  0
 14 37  1  0  0  0  0
 15 16  1  0  0  0  0
 15 23  1  0  0  0  0
 15 53  1  0  0  0  0
 16 21  1  0  0  0  0
 16 17  1  0  0  0  0
 16 38  1  0  0  0  0
 17 18  1  0  0  0  0
 17 39  1  0  0  0  0
 17 40  1  0  0  0  0
 18 22  1  0  0  0  0
 18 19  1  0  0  0  0
 18 41  1  0  0  0  0
 19 20  1  0  0  0  0
 19 42  1  0  0  0  0
 19 43  1  0  0  0  0
 20 21  1  0  0  0  0
 20 44  1  0  0  0  0
 20 45  1  0  0  0  0
 21 22  1  0  0  0  0
 21 46  1  0  0  0  0
 22 47  1  0  0  0  0
 22 48  1  0  0  0  0
 23 24  1  0  0  0  0
 23 49  1  0  0  0  0
 23 50  1  0  0  0  0
 24 51  1  0  0  0  0
 24 52  1  0  0  0  0
M  CHG  1  15   1
M  END
> <s_m_source_file>
AV-unprocessed.smi

> <i_m_source_file_index>
907

> <i_lp_mmshare_version>
43012

> <i_f3d_flags>
0

> <s_epik_input>
W0NIMl0xW0NIMl1bQ0BASF0oW0NIMl0yKVtDQEBIXShbQ0gyXVtDQEhdMTIpTihbQ0gyXVtDSDJdMylbQ0gyXVtDSDJdTjNDKD1PKVtOSF1bQ0gyXVtDSDJdYzRbY0hdW2NIXVtjSF1bY0hdbjQ=

> <s_epik_cmdline>
J2VwaWtfcHl0aG9uJywgJy1waCcsICc3LjAnLCAnLXRuJywgJzgnLCAnLW1hJywgJzIwMCcsICctbWV0YWxfYmluZGluZycsICctaW1hZScsICc8aW5maWxlLm1hZT4nLCAnLW9tYWUnLCAnPG91dGZpbGUubWFlPic=

> <r_epik_Ionization_Penalty>
0.0419258

> <r_epik_Ionization_Penalty_Charging>
0.00262064

> <r_epik_Ionization_Penalty_Neutral>
0.0393052

> <r_epik_State_Penalty>
0.0329887

> <r_epik_Charging_Adjusted_Penalty>
0.0356093

> <i_epik_Tot_Q>
1

> <i_epik_Tot_abs_Q>
1

> <r_epik_Metal_State_Penalty>
0.0309172

> <b_epik_Metal_Only>
0

> <s_lp_Force_Field>
OPLS_2005

> <r_lp_Energy>
96.3886

> <b_lp_Chiralities_Consistent>
1

> <s_lp_Variant>
AV-unprocessed.smi:907-3

> <Gold.Version>
5.8.1

> <Gold.Id.Protein>
6NUR|6NUR_protein|mol2

> <Gold.PLP.Fitness>
58.5080

> <Gold.PLP.PLP>
-53.4298

> <Gold.PLP.part.hbond>
-3.0000

> <Gold.PLP.part.metal>
0.0000

> <Gold.PLP.part.buried>
-7.0066

> <Gold.PLP.part.nonpolar>
-43.1248

> <Gold.PLP.part.repulsive>
0.1508

> <Gold.PLP.ligand.clash>
0.0000

> <Gold.PLP.ligand.torsion>
1.0379

> <Gold.PLP.Chemscore.Hbond>
2.3440

> <Gold.PLP.Chemscore.CHOScore>
0.0000

> <Gold.PLP.Chemscore.Metal>
0.0000

> <Gold.Chemscore.Hbonds>
donor molecule, donor type, donor heavy atom, donor atom, acceptor molecule, acceptor atom, score
      P1  H  6896  6908       L1     1  0.78
      P1  H  6931  6943       L1    11  0.45
      P1  H  6934  6947       L1    11  0.86

> <Gold.PLP.Chemscore.Internal.Correction>
0.1220

> <Gold.Rescore>
     Score         DG    S(hbond)    S(metal)    S(lipo)     H(rot)  DE(clash)    DE(int)     intcor
     24.73     -25.80       1.90        0.00     149.45       1.37       0.17       0.90       ----

> <Gold.Chemscore.Fitness>
24.7344

> <Gold.Chemscore.DG>
-25.8002

> <Gold.Chemscore.ZeroCoef>
-5.4800

> <Gold.Chemscore.Hbond>
1.9013

> <Gold.Chemscore.Metal>
0.0000

> <Gold.Chemscore.Lipo>
149.4451

> <Gold.Chemscore.Internal_Hbond>
0.0000

> <Gold.Chemscore.DEClash>
0.1666

> <Gold.Chemscore.DEInternal>
0.8992

> <Gold.Chemscore.Rot>
1.3731

> <Gold.Chemscore.Internal.Correction>
   9.000000E+99

> <Gold.Chemscore.Hbonds>
donor molecule, donor type, donor heavy atom, donor atom, acceptor molecule, acceptor atom, score
      P1  H  6896  6908       L1     1  0.78
      P1  H  6931  6943       L1    11  0.02
      P1  H  6934  6947       L1    11  0.44

> <Gold.Chemscore.Hbond.Weighted>
-6.3503

> <Gold.Chemscore.Metal.Weighted>
-0.0000

> <Gold.Chemscore.Lipo.Weighted>
-17.4851

> <Gold.Chemscore.Internal_Hbond.Weighted>
0.0000

> <Gold.Chemscore.DEClash.Weighted>
0.1666

> <Gold.Chemscore.DEInternal.Weighted>
0.8992

> <Gold.Chemscore.Rot.Weighted>
3.5152

> <Gold.Chemscore.Internal.Correction.Weighted>
   9.000000E+99

> <Gold.Protein.RotatedTorsions>
[ 6907 6896 6895 6894 ] final -166.41 input  -60.11 | X-H torsion
[ 7974 7965 7964 7962 ] final -110.55 input  175.53 | X-H torsion
[ 8008 7997 7996 7995 ] final   81.81 input   59.86 | X-H torsion
[ 10167 10162 10161 10158 ] final -111.41 input  -65.29 | X-H torsion
[ 10718 10713 10712 10709 ] final  147.94 input   66.30 | X-H torsion
[ 10763 10752 10751 10750 ] final -146.65 input  -60.55 | X-H torsion
[ 11005 11000 10999 10996 ] final -140.71 input  -57.11 | X-H torsion

> <Gold.Protein.ActiveResidues>
 VAL166  LYS551  ARG553  GLY616  TRP617  ASP618  TYR619  PRO620  LYS621  CYS622 
 ASP623  PHE694  ASN695  SER759  ASP760  ASP761  ALA762  ILE779  LEU786  VAL792 
 PHE793  MET794  SER795  GLU796  ALA797  LYS798  CYS799  TRP800  GLU811  SER814 

> <Gold.Protein.RotatedAtoms>
  151.4432  133.3637  159.2784 H   0  0  0  0  0  0  0  0  0  0  0  0  # atno 6907 bound_to 6896
  150.9143  134.8561  159.7457 H   0  0  0  0  0  0  0  0  0  0  0  0  # atno 6908 bound_to 6896
  152.4948  134.4365  159.9581 H   0  0  0  0  0  0  0  0  0  0  0  0  # atno 6909 bound_to 6896
  145.1668  140.8906  143.3558 H   0  0  0  0  0  0  0  0  0  0  0  0  # atno 7974 bound_to 7965
  155.9021  140.3432  155.6034 H   0  0  0  0  0  0  0  0  0  0  0  0  # atno 8008 bound_to 7997
  155.7487  140.0817  157.2230 H   0  0  0  0  0  0  0  0  0  0  0  0  # atno 8009 bound_to 7997
  154.4045  140.1557  156.2686 H   0  0  0  0  0  0  0  0  0  0  0  0  # atno 8010 bound_to 7997
  140.1339  143.4337  152.1608 H   0  0  0  0  0  0  0  0  0  0  0  0  # atno 10167 bound_to 10162
  157.3148  131.0894  151.1287 H   0  0  0  0  0  0  0  0  0  0  0  0  # atno 10718 bound_to 10713
  154.8325  135.3381  154.6695 H   0  0  0  0  0  0  0  0  0  0  0  0  # atno 10763 bound_to 10752
  153.7313  135.6952  153.4993 H   0  0  0  0  0  0  0  0  0  0  0  0  # atno 10764 bound_to 10752
  153.2310  135.4416  155.0547 H   0  0  0  0  0  0  0  0  0  0  0  0  # atno 10765 bound_to 10752
  140.8396  134.2418  157.4817 H   0  0  0  0  0  0  0  0  0  0  0  0  # atno 11005 bound_to 11000
  145.0274  139.3371  143.6042 LP  0  0  0  0  0  0  0  0  0  0  0  0  # atno 17320 bound_to 7965
  146.3474  139.9598  142.8719 LP  0  0  0  0  0  0  0  0  0  0  0  0  # atno 17321 bound_to 7965
  139.5506  144.7334  151.4448 LP  0  0  0  0  0  0  0  0  0  0  0  0  # atno 17342 bound_to 10162
  140.6801  143.8102  150.7109 LP  0  0  0  0  0  0  0  0  0  0  0  0  # atno 17343 bound_to 10162
  157.2595  130.6652  149.5968 LP  0  0  0  0  0  0  0  0  0  0  0  0  # atno 17370 bound_to 10713
  155.9680  130.4513  150.5730 LP  0  0  0  0  0  0  0  0  0  0  0  0  # atno 17371 bound_to 10713
  139.8703  134.9628  156.4442 LP  0  0  0  0  0  0  0  0  0  0  0  0  # atno 17394 bound_to 11000
  140.8910  133.7848  155.9572 LP  0  0  0  0  0  0  0  0  0  0  0  0  # atno 17395 bound_to 11000

$$$$
