AV-unprocessed.smi:707|AV-procd|sdf|3454|dock4
  -GOLD-   22720 0443D 1   1.00000     0.00000
 Structure written by MMmdl.
 44 45  0  0  0  0  0  0  0  0  1 V2000
  146.1864  144.1872  152.6741 C   0  0  0  0  0  0  0  0  0  0  0  0
  145.6849  143.8964  154.0514 C   0  0  0  0  0  0  0  0  0  0  0  0
  144.8971  144.7253  154.7463 N   0  0  0  0  0  0  0  0  0  0  0  0
  144.6648  144.0926  155.9519 N   0  0  0  0  0  0  0  0  0  0  0  0
  145.3366  142.9452  155.8634 C   0  0  0  0  0  0  0  0  0  0  0  0
  145.9935  142.7599  154.7084 N   0  0  0  0  0  0  0  0  0  0  0  0
  146.8049  141.6279  154.3008 C   0  0  0  0  0  0  0  0  0  0  0  0
  148.1961  142.0731  153.8306 C   0  0  0  0  0  0  0  0  0  0  0  0
  149.1134  142.1631  154.9572 N   0  0  0  0  0  0  0  0  0  0  0  0
  150.0112  141.2209  155.2797 C   0  0  0  0  0  0  0  0  0  0  0  0
  150.1530  140.1765  154.6446 O   0  0  0  0  0  0  0  0  0  0  0  0
  150.8958  141.5046  156.4923 C   0  0  0  0  0  0  0  0  0  0  0  0
  150.5800  142.7931  157.0030 O   0  0  0  0  0  0  0  0  0  0  0  0
  151.5584  143.3344  157.8818 C   0  0  1  0  0  0  0  0  0  0  0  0
  150.9662  144.6152  158.4940 C   0  0  0  0  0  0  0  0  0  0  0  0
  151.9250  145.2398  159.5187 C   0  0  0  0  0  0  0  0  0  0  0  0
  152.2931  144.2326  160.6193 C   0  0  0  0  0  0  0  0  0  0  0  0
  152.8876  142.9403  160.0271 C   0  0  1  0  0  0  0  0  0  0  0  0
  153.2460  141.9320  161.1283 C   0  0  0  0  0  0  0  0  0  0  0  0
  151.9251  142.3257  158.9915 C   0  0  0  0  0  0  0  0  0  0  0  0
  145.7355  145.1025  152.2896 H   0  0  0  0  0  0  0  0  0  0  0  0
  145.9348  143.3700  151.9982 H   0  0  0  0  0  0  0  0  0  0  0  0
  147.2689  144.3134  152.6878 H   0  0  0  0  0  0  0  0  0  0  0  0
  145.3489  142.2194  156.6633 H   0  0  0  0  0  0  0  0  0  0  0  0
  146.8840  140.9319  155.1367 H   0  0  0  0  0  0  0  0  0  0  0  0
  146.2845  141.1006  153.5000 H   0  0  0  0  0  0  0  0  0  0  0  0
  148.5930  141.3644  153.1020 H   0  0  0  0  0  0  0  0  0  0  0  0
  148.1319  143.0429  153.3343 H   0  0  0  0  0  0  0  0  0  0  0  0
  149.0615  142.9903  155.5337 H   0  0  0  0  0  0  0  0  0  0  0  0
  150.7349  140.7318  157.2441 H   0  0  0  0  0  0  0  0  0  0  0  0
  151.9418  141.4603  156.1855 H   0  0  0  0  0  0  0  0  0  0  0  0
  152.4527  143.6059  157.3175 H   0  0  0  0  0  0  0  0  0  0  0  0
  150.7456  145.3365  157.7067 H   0  0  0  0  0  0  0  0  0  0  0  0
  150.0158  144.3863  158.9786 H   0  0  0  0  0  0  0  0  0  0  0  0
  152.8305  145.5784  159.0138 H   0  0  0  0  0  0  0  0  0  0  0  0
  151.4692  146.1249  159.9631 H   0  0  0  0  0  0  0  0  0  0  0  0
  153.0041  144.6894  161.3087 H   0  0  0  0  0  0  0  0  0  0  0  0
  151.4040  143.9955  161.2054 H   0  0  0  0  0  0  0  0  0  0  0  0
  153.8117  143.2028  159.5097 H   0  0  0  0  0  0  0  0  0  0  0  0
  152.3628  141.6286  161.6912 H   0  0  0  0  0  0  0  0  0  0  0  0
  153.9604  142.3576  161.8334 H   0  0  0  0  0  0  0  0  0  0  0  0
  153.6967  141.0333  160.7060 H   0  0  0  0  0  0  0  0  0  0  0  0
  151.0154  141.9887  159.4905 H   0  0  0  0  0  0  0  0  0  0  0  0
  152.3854  141.4376  158.5592 H   0  0  0  0  0  0  0  0  0  0  0  0
  1  2  1  0  0  0  0
  1 21  1  0  0  0  0
  1 22  1  0  0  0  0
  1 23  1  0  0  0  0
  2  6  1  0  0  0  0
  2  3  2  0  0  0  0
  3  4  1  0  0  0  0
  4  5  2  0  0  0  0
  5  6  1  0  0  0  0
  5 24  1  0  0  0  0
  6  7  1  0  0  0  0
  7  8  1  0  0  0  0
  7 25  1  0  0  0  0
  7 26  1  0  0  0  0
  8  9  1  0  0  0  0
  8 27  1  0  0  0  0
  8 28  1  0  0  0  0
  9 10  1  0  0  0  0
  9 29  1  0  0  0  0
 10 11  2  0  0  0  0
 10 12  1  0  0  0  0
 12 13  1  0  0  0  0
 12 30  1  0  0  0  0
 12 31  1  0  0  0  0
 13 14  1  0  0  0  0
 14 20  1  0  0  0  0
 14 15  1  0  0  0  0
 14 32  1  0  0  0  0
 15 16  1  0  0  0  0
 15 33  1  0  0  0  0
 15 34  1  0  0  0  0
 16 17  1  0  0  0  0
 16 35  1  0  0  0  0
 16 36  1  0  0  0  0
 17 18  1  0  0  0  0
 17 37  1  0  0  0  0
 17 38  1  0  0  0  0
 18 19  1  0  0  0  0
 18 20  1  0  0  0  0
 18 39  1  0  0  0  0
 19 40  1  0  0  0  0
 19 41  1  0  0  0  0
 19 42  1  0  0  0  0
 20 43  1  0  0  0  0
 20 44  1  0  0  0  0
M  END
> <s_m_source_file>
AV-unprocessed.smi

> <i_m_source_file_index>
707

> <i_lp_mmshare_version>
43012

> <i_f3d_flags>
0

> <s_epik_input>
W0NIM11jMW5uW2NIXW4xW0NIMl1bQ0gyXVtOSF1DKD1PKVtDSDJdT1tDQEBIXTJbQ0gyXVtDSDJdW0NIMl1bQ0BASF0oW0NIM10pW0NIMl0y

> <s_epik_cmdline>
J2VwaWtfcHl0aG9uJywgJy1waCcsICc3LjAnLCAnLXRuJywgJzgnLCAnLW1hJywgJzIwMCcsICctbWV0YWxfYmluZGluZycsICctaW1hZScsICc8aW5maWxlLm1hZT4nLCAnLW9tYWUnLCAnPG91dGZpbGUubWFlPic=

> <r_lp_tautomer_probability>
1

> <r_epik_Ionization_Penalty>
0.000271783

> <r_epik_Ionization_Penalty_Charging>
0

> <r_epik_Ionization_Penalty_Neutral>
0.000271783

> <r_epik_State_Penalty>
-0

> <r_epik_Charging_Adjusted_Penalty>
0

> <i_epik_Tot_Q>
0

> <i_epik_Tot_abs_Q>
0

> <r_epik_Metal_State_Penalty>
-0

> <b_epik_Metal_Only>
0

> <s_lp_Force_Field>
OPLS_2005

> <r_lp_Energy>
13.3019

> <b_lp_Chiralities_Consistent>
1

> <s_lp_Variant>
AV-unprocessed.smi:707-2

> <Gold.Version>
5.8.1

> <Gold.Id.Protein>
6NUR|6NUR_protein|mol2

> <Gold.PLP.Fitness>
50.5683

> <Gold.PLP.PLP>
-46.1111

> <Gold.PLP.part.hbond>
-2.0000

> <Gold.PLP.part.metal>
0.0000

> <Gold.PLP.part.buried>
-6.8741

> <Gold.PLP.part.nonpolar>
-37.7018

> <Gold.PLP.part.repulsive>
2.0085

> <Gold.PLP.ligand.clash>
0.0000

> <Gold.PLP.ligand.torsion>
0.4595

> <Gold.PLP.Chemscore.Hbond>
1.7680

> <Gold.PLP.Chemscore.CHOScore>
0.0000

> <Gold.PLP.Chemscore.Metal>
0.0000

> <Gold.Chemscore.Hbonds>
donor molecule, donor type, donor heavy atom, donor atom, acceptor molecule, acceptor atom, score
      L1  H     9    29       P1  8028  0.98
      P1  H  7989  7998       L1    11  0.75

> <Gold.PLP.Chemscore.Internal.Correction>
0.0722

> <Gold.Rescore>
     Score         DG    S(hbond)    S(metal)    S(lipo)     H(rot)  DE(clash)    DE(int)     intcor
     14.50     -14.76       0.92        0.00     106.09       2.42       0.04       0.22       ----

> <Gold.Chemscore.Fitness>
14.4984

> <Gold.Chemscore.DG>
-14.7607

> <Gold.Chemscore.ZeroCoef>
-5.4800

> <Gold.Chemscore.Hbond>
0.9164

> <Gold.Chemscore.Metal>
0.0000

> <Gold.Chemscore.Lipo>
106.0936

> <Gold.Chemscore.Internal_Hbond>
0.0000

> <Gold.Chemscore.DEClash>
0.0423

> <Gold.Chemscore.DEInternal>
0.2200

> <Gold.Chemscore.Rot>
2.4191

> <Gold.Chemscore.Internal.Correction>
   9.000000E+99

> <Gold.Chemscore.Hbonds>
donor molecule, donor type, donor heavy atom, donor atom, acceptor molecule, acceptor atom, score
      L1  H     9    29       P1  8028  0.93
      P1  H  7989  7998       L1    11  0.09

> <Gold.Chemscore.Hbond.Weighted>
-3.0607

> <Gold.Chemscore.Metal.Weighted>
-0.0000

> <Gold.Chemscore.Lipo.Weighted>
-12.4130

> <Gold.Chemscore.Internal_Hbond.Weighted>
0.0000

> <Gold.Chemscore.DEClash.Weighted>
0.0423

> <Gold.Chemscore.DEInternal.Weighted>
0.2200

> <Gold.Chemscore.Rot.Weighted>
6.1929

> <Gold.Chemscore.Internal.Correction.Weighted>
   9.000000E+99

> <Gold.Protein.RotatedTorsions>
[ 6907 6896 6895 6894 ] final -176.16 input  -60.11 | X-H torsion
[ 7974 7965 7964 7962 ] final  -77.94 input  175.53 | X-H torsion
[ 8008 7997 7996 7995 ] final   91.17 input   59.86 | X-H torsion
[ 10167 10162 10161 10158 ] final  -59.10 input  -65.29 | X-H torsion
[ 10718 10713 10712 10709 ] final   34.90 input   66.30 | X-H torsion
[ 10763 10752 10751 10750 ] final  -19.24 input  -60.55 | X-H torsion
[ 11005 11000 10999 10996 ] final  153.52 input  -57.11 | X-H torsion

> <Gold.Protein.ActiveResidues>
 VAL166  LYS551  ARG553  GLY616  TRP617  ASP618  TYR619  PRO620  LYS621  CYS622 
 ASP623  PHE694  ASN695  SER759  ASP760  ASP761  ALA762  ILE779  LEU786  VAL792 
 PHE793  MET794  SER795  GLU796  ALA797  LYS798  CYS799  TRP800  GLU811  SER814 

> <Gold.Protein.RotatedAtoms>
  151.6003  133.3357  159.3045 H   0  0  0  0  0  0  0  0  0  0  0  0  # atno 6907 bound_to 6896
  150.8211  134.7423  159.6785 H   0  0  0  0  0  0  0  0  0  0  0  0  # atno 6908 bound_to 6896
  152.4305  134.5793  159.9995 H   0  0  0  0  0  0  0  0  0  0  0  0  # atno 6909 bound_to 6896
  145.5931  140.9425  143.1281 H   0  0  0  0  0  0  0  0  0  0  0  0  # atno 7974 bound_to 7965
  156.0206  140.3341  155.7035 H   0  0  0  0  0  0  0  0  0  0  0  0  # atno 8008 bound_to 7997
  155.6027  140.0657  157.2746 H   0  0  0  0  0  0  0  0  0  0  0  0  # atno 8009 bound_to 7997
  154.4315  140.1807  156.1178 H   0  0  0  0  0  0  0  0  0  0  0  0  # atno 8010 bound_to 7997
  140.6156  143.2401  151.5606 H   0  0  0  0  0  0  0  0  0  0  0  0  # atno 10167 bound_to 10162
  157.3161  130.7424  149.6755 H   0  0  0  0  0  0  0  0  0  0  0  0  # atno 10718 bound_to 10713
  153.6018  135.6999  153.5381 H   0  0  0  0  0  0  0  0  0  0  0  0  # atno 10763 bound_to 10752
  153.3091  135.4106  155.1319 H   0  0  0  0  0  0  0  0  0  0  0  0  # atno 10764 bound_to 10752
  154.8581  135.3667  154.5553 H   0  0  0  0  0  0  0  0  0  0  0  0  # atno 10765 bound_to 10752
  140.1406  134.8742  157.2325 H   0  0  0  0  0  0  0  0  0  0  0  0  # atno 11005 bound_to 11000
  144.7342  139.7633  143.7335 LP  0  0  0  0  0  0  0  0  0  0  0  0  # atno 17320 bound_to 7965
  146.1632  139.4754  142.9975 LP  0  0  0  0  0  0  0  0  0  0  0  0  # atno 17321 bound_to 7965
  139.5396  144.2685  152.1323 LP  0  0  0  0  0  0  0  0  0  0  0  0  # atno 17342 bound_to 10162
  140.1894  144.4767  150.6487 LP  0  0  0  0  0  0  0  0  0  0  0  0  # atno 17343 bound_to 10162
  155.9681  130.4237  150.4574 LP  0  0  0  0  0  0  0  0  0  0  0  0  # atno 17370 bound_to 10713
  157.2581  131.0561  151.2337 LP  0  0  0  0  0  0  0  0  0  0  0  0  # atno 17371 bound_to 10713
  140.2727  134.3441  155.7368 LP  0  0  0  0  0  0  0  0  0  0  0  0  # atno 17394 bound_to 11000
  141.2185  133.7433  156.9247 LP  0  0  0  0  0  0  0  0  0  0  0  0  # atno 17395 bound_to 11000

$$$$
