AV-unprocessed.smi:515|AV-procd|sdf|2782|dock2
  -GOLD-   2262023253D 1   1.00000     0.00000
 Structure written by MMmdl.
 46 48  0  0  0  0  0  0  0  0  2 V2000
  151.3142  138.6032  154.5017 C   0  0  0  0  0  0  0  0  0  0  0  0
  150.6145  137.6535  155.4767 C   0  0  0  0  0  0  0  0  0  0  0  0
  151.5020  136.5992  155.8086 O   0  0  0  0  0  0  0  0  0  0  0  0
  151.2085  136.0135  157.0657 C   0  0  0  0  0  0  0  0  0  0  0  0
  149.7912  135.4297  157.0235 C   0  0  0  0  0  0  0  0  0  0  0  0
  149.4087  134.8606  158.3115 N   0  0  0  0  0  0  0  0  0  0  0  0
  149.5293  133.5671  158.7119 C   0  0  0  0  0  0  0  0  0  0  0  0
  150.0989  132.4916  157.8236 C   0  0  0  0  0  0  0  0  0  0  0  0
  151.5491  132.5482  157.6337 N   0  0  0  0  0  0  0  0  0  0  0  0
  152.2556  132.0675  158.8152 C   0  0  0  0  0  0  0  0  0  0  0  0
  153.7822  132.1265  158.6319 C   0  0  0  0  0  0  0  0  0  0  0  0
  154.1540  131.3776  157.4790 O   0  0  0  0  0  0  0  0  0  0  0  0
  153.5155  131.8395  156.2928 C   0  0  0  0  0  0  0  0  0  0  0  0
  151.9892  131.7767  156.4721 C   0  0  0  0  0  0  0  0  0  0  0  0
  149.0598  133.3364  159.9432 N   0  0  0  0  0  0  0  0  0  0  0  0
  148.6213  134.5833  160.3598 C   0  0  0  0  0  0  0  0  0  0  0  0
  148.8119  135.5168  159.3915 C   0  0  0  0  0  0  0  0  0  0  0  0
  148.4184  136.9364  159.5269 C   0  0  0  0  0  0  0  0  0  0  0  0
  148.5910  137.7336  158.6070 O   0  0  0  0  0  0  0  0  0  0  0  0
  147.8641  137.2038  160.7518 N   0  5  0  0  0  0  0  0  0  0  0  0
  147.6598  136.2915  161.7652 C   0  0  0  0  0  0  0  0  0  0  0  0
  147.1546  136.6166  162.8406 O   0  0  0  0  0  0  0  0  0  0  0  0
  148.0238  134.9824  161.5863 N   0  0  0  0  0  0  0  0  0  0  0  0
  147.8151  133.9891  162.6436 C   0  0  0  0  0  0  0  0  0  0  0  0
  150.6604  139.4313  154.2275 H   0  0  0  0  0  0  0  0  0  0  0  0
  151.5986  138.0837  153.5865 H   0  0  0  0  0  0  0  0  0  0  0  0
  152.2179  139.0228  154.9445 H   0  0  0  0  0  0  0  0  0  0  0  0
  150.3196  138.1951  156.3769 H   0  0  0  0  0  0  0  0  0  0  0  0
  149.7084  137.2530  155.0197 H   0  0  0  0  0  0  0  0  0  0  0  0
  151.9321  135.2292  157.2927 H   0  0  0  0  0  0  0  0  0  0  0  0
  151.2804  136.7665  157.8522 H   0  0  0  0  0  0  0  0  0  0  0  0
  149.0796  136.1993  156.7314 H   0  0  0  0  0  0  0  0  0  0  0  0
  149.7118  134.6642  156.2529 H   0  0  0  0  0  0  0  0  0  0  0  0
  149.8275  131.5344  158.2706 H   0  0  0  0  0  0  0  0  0  0  0  0
  149.6155  132.5267  156.8482 H   0  0  0  0  0  0  0  0  0  0  0  0
  151.9743  132.6646  159.6833 H   0  0  0  0  0  0  0  0  0  0  0  0
  151.9575  131.0408  159.0330 H   0  0  0  0  0  0  0  0  0  0  0  0
  154.1191  133.1589  158.5272 H   0  0  0  0  0  0  0  0  0  0  0  0
  154.2858  131.7120  159.5054 H   0  0  0  0  0  0  0  0  0  0  0  0
  153.8360  132.8586  156.0713 H   0  0  0  0  0  0  0  0  0  0  0  0
  153.8254  131.2163  155.4541 H   0  0  0  0  0  0  0  0  0  0  0  0
  151.6830  130.7354  156.5819 H   0  0  0  0  0  0  0  0  0  0  0  0
  151.5109  132.1449  155.5650 H   0  0  0  0  0  0  0  0  0  0  0  0
  148.3805  134.2590  163.5367 H   0  0  0  0  0  0  0  0  0  0  0  0
  148.1295  132.9882  162.3483 H   0  0  0  0  0  0  0  0  0  0  0  0
  146.7592  133.9314  162.9117 H   0  0  0  0  0  0  0  0  0  0  0  0
  1  2  1  0  0  0  0
  1 25  1  0  0  0  0
  1 26  1  0  0  0  0
  1 27  1  0  0  0  0
  2  3  1  0  0  0  0
  2 28  1  0  0  0  0
  2 29  1  0  0  0  0
  3  4  1  0  0  0  0
  4  5  1  0  0  0  0
  4 30  1  0  0  0  0
  4 31  1  0  0  0  0
  5  6  1  0  0  0  0
  5 32  1  0  0  0  0
  5 33  1  0  0  0  0
  6 17  1  0  0  0  0
  6  7  1  0  0  0  0
  7  8  1  0  0  0  0
  7 15  2  0  0  0  0
  8  9  1  0  0  0  0
  8 34  1  0  0  0  0
  8 35  1  0  0  0  0
  9 14  1  0  0  0  0
  9 10  1  0  0  0  0
 10 11  1  0  0  0  0
 10 36  1  0  0  0  0
 10 37  1  0  0  0  0
 11 12  1  0  0  0  0
 11 38  1  0  0  0  0
 11 39  1  0  0  0  0
 12 13  1  0  0  0  0
 13 14  1  0  0  0  0
 13 40  1  0  0  0  0
 13 41  1  0  0  0  0
 14 42  1  0  0  0  0
 14 43  1  0  0  0  0
 15 16  1  0  0  0  0
 16 23  1  0  0  0  0
 16 17  2  0  0  0  0
 17 18  1  0  0  0  0
 18 19  2  0  0  0  0
 18 20  1  0  0  0  0
 20 21  1  0  0  0  0
 21 22  2  0  0  0  0
 21 23  1  0  0  0  0
 23 24  1  0  0  0  0
 24 44  1  0  0  0  0
 24 45  1  0  0  0  0
 24 46  1  0  0  0  0
M  CHG  1  20  -1
M  END
> <s_m_source_file>
AV-unprocessed.smi

> <i_m_source_file_index>
515

> <i_lp_mmshare_version>
43012

> <i_f3d_flags>
0

> <s_epik_input>
W0NIM11uMWMoPU8pW25IXWMoPU8pYyhjMTIpbihbQ0gyXVtDSDJdT1tDSDJdW0NIM10pYyhuMilbQ0gyXU4zW0NIMl1bQ0gyXU9bQ0gyXVtDSDJdMw==

> <s_epik_cmdline>
J2VwaWtfcHl0aG9uJywgJy1waCcsICc3LjAnLCAnLXRuJywgJzgnLCAnLW1hJywgJzIwMCcsICctbWV0YWxfYmluZGluZycsICctaW1hZScsICc8aW5maWxlLm1hZT4nLCAnLW9tYWUnLCAnPG91dGZpbGUubWFlPic=

> <r_epik_Ionization_Penalty>
4.8833

> <r_epik_Ionization_Penalty_Charging>
0.035962

> <r_epik_Ionization_Penalty_Neutral>
4.84734

> <r_epik_State_Penalty>
4.83718

> <r_epik_Charging_Adjusted_Penalty>
4.87314

> <i_epik_Tot_Q>
-1

> <i_epik_Tot_abs_Q>
1

> <r_epik_Metal_State_Penalty>
1.06056

> <b_epik_Metal_Only>
1

> <s_lp_Force_Field>
OPLS_2005

> <r_lp_Energy>
45.1348

> <b_lp_Chiralities_Consistent>
1

> <s_lp_Variant>
AV-unprocessed.smi:515-3

> <Gold.Version>
5.8.1

> <Gold.Id.Protein>
6NUR|6NUR_protein|mol2

> <Gold.PLP.Fitness>
41.0592

> <Gold.PLP.PLP>
-30.3244

> <Gold.PLP.part.hbond>
-3.0000

> <Gold.PLP.part.metal>
0.0000

> <Gold.PLP.part.buried>
-5.3313

> <Gold.PLP.part.nonpolar>
-22.9070

> <Gold.PLP.part.repulsive>
0.0807

> <Gold.PLP.ligand.clash>
0.0000

> <Gold.PLP.ligand.torsion>
0.7771

> <Gold.PLP.Chemscore.Hbond>
4.0807

> <Gold.PLP.Chemscore.CHOScore>
0.0000

> <Gold.PLP.Chemscore.Metal>
0.0000

> <Gold.Chemscore.Hbonds>
donor molecule, donor type, donor heavy atom, donor atom, acceptor molecule, acceptor atom, score
      P1  H  6931  6943       L1    20  0.92
      P1  H  6934  6947       L1    20  1.66
      P1  H 10752 10765       L1     3  0.86

> <Gold.PLP.Chemscore.Internal.Correction>
0.0469

> <Gold.Rescore>
     Score         DG    S(hbond)    S(metal)    S(lipo)     H(rot)  DE(clash)    DE(int)     intcor
     12.06     -12.51       1.91        0.00      51.52       2.10       0.02       0.43       ----

> <Gold.Chemscore.Fitness>
12.0597

> <Gold.Chemscore.DG>
-12.5126

> <Gold.Chemscore.ZeroCoef>
-5.4800

> <Gold.Chemscore.Hbond>
1.9098

> <Gold.Chemscore.Metal>
0.0000

> <Gold.Chemscore.Lipo>
51.5181

> <Gold.Chemscore.Internal_Hbond>
0.0000

> <Gold.Chemscore.DEClash>
0.0188

> <Gold.Chemscore.DEInternal>
0.4341

> <Gold.Chemscore.Rot>
2.0991

> <Gold.Chemscore.Internal.Correction>
   9.000000E+99

> <Gold.Chemscore.Hbonds>
donor molecule, donor type, donor heavy atom, donor atom, acceptor molecule, acceptor atom, score
      P1  H  6931  6943       L1    20  0.02
      P1  H  6934  6947       L1    20  0.70
      P1  H 10752 10765       L1     3  0.69

> <Gold.Chemscore.Hbond.Weighted>
-6.3787

> <Gold.Chemscore.Metal.Weighted>
-0.0000

> <Gold.Chemscore.Lipo.Weighted>
-6.0276

> <Gold.Chemscore.Internal_Hbond.Weighted>
0.0000

> <Gold.Chemscore.DEClash.Weighted>
0.0188

> <Gold.Chemscore.DEInternal.Weighted>
0.4341

> <Gold.Chemscore.Rot.Weighted>
5.3737

> <Gold.Chemscore.Internal.Correction.Weighted>
   9.000000E+99

> <Gold.Protein.RotatedTorsions>
[ 6907 6896 6895 6894 ] final   68.80 input  -60.11 | X-H torsion
[ 7974 7965 7964 7962 ] final  -99.99 input  175.53 | X-H torsion
[ 8008 7997 7996 7995 ] final  172.55 input   59.86 | X-H torsion
[ 10167 10162 10161 10158 ] final  171.95 input  -65.29 | X-H torsion
[ 10718 10713 10712 10709 ] final   35.87 input   66.30 | X-H torsion
[ 10763 10752 10751 10750 ] final -169.81 input  -60.55 | X-H torsion
[ 11005 11000 10999 10996 ] final  140.08 input  -57.11 | X-H torsion

> <Gold.Protein.ActiveResidues>
 VAL166  LYS551  ARG553  GLY616  TRP617  ASP618  TYR619  PRO620  LYS621  CYS622 
 ASP623  PHE694  ASN695  SER759  ASP760  ASP761  ALA762  ILE779  LEU786  VAL792 
 PHE793  MET794  SER795  GLU796  ALA797  LYS798  CYS799  TRP800  GLU811  SER814 

> <Gold.Protein.RotatedAtoms>
  152.4644  134.5110  159.9753 H   0  0  0  0  0  0  0  0  0  0  0  0  # atno 6907 bound_to 6896
  151.5151  133.3471  159.2899 H   0  0  0  0  0  0  0  0  0  0  0  0  # atno 6908 bound_to 6896
  150.8621  134.8005  159.7153 H   0  0  0  0  0  0  0  0  0  0  0  0  # atno 6909 bound_to 6896
  145.3003  140.9375  143.2827 H   0  0  0  0  0  0  0  0  0  0  0  0  # atno 7974 bound_to 7965
  156.1163  140.1483  156.9268 H   0  0  0  0  0  0  0  0  0  0  0  0  # atno 8008 bound_to 7997
  154.4803  140.0881  156.7403 H   0  0  0  0  0  0  0  0  0  0  0  0  # atno 8009 bound_to 7997
  155.4507  140.3434  155.4303 H   0  0  0  0  0  0  0  0  0  0  0  0  # atno 8010 bound_to 7997
  139.5062  144.3429  152.0000 H   0  0  0  0  0  0  0  0  0  0  0  0  # atno 10167 bound_to 10162
  157.3280  130.7483  149.6828 H   0  0  0  0  0  0  0  0  0  0  0  0  # atno 10718 bound_to 10713
  154.6483  135.2908  155.0019 H   0  0  0  0  0  0  0  0  0  0  0  0  # atno 10763 bound_to 10752
  154.1121  135.6561  153.4891 H   0  0  0  0  0  0  0  0  0  0  0  0  # atno 10764 bound_to 10752
  153.0362  135.5267  154.7379 H   0  0  0  0  0  0  0  0  0  0  0  0  # atno 10765 bound_to 10752
  140.0301  134.9356  157.0645 H   0  0  0  0  0  0  0  0  0  0  0  0  # atno 11005 bound_to 11000
  144.9099  139.4542  143.6592 LP  0  0  0  0  0  0  0  0  0  0  0  0  # atno 17320 bound_to 7965
  146.3154  139.7901  142.8987 LP  0  0  0  0  0  0  0  0  0  0  0  0  # atno 17321 bound_to 7965
  140.2866  144.3800  150.6101 LP  0  0  0  0  0  0  0  0  0  0  0  0  # atno 17342 bound_to 10162
  140.5978  143.2167  151.7131 LP  0  0  0  0  0  0  0  0  0  0  0  0  # atno 17343 bound_to 10162
  155.9692  130.4203  150.4419 LP  0  0  0  0  0  0  0  0  0  0  0  0  # atno 17370 bound_to 10713
  157.2446  131.0533  151.2416 LP  0  0  0  0  0  0  0  0  0  0  0  0  # atno 17371 bound_to 10713
  140.4240  134.1850  155.7165 LP  0  0  0  0  0  0  0  0  0  0  0  0  # atno 17394 bound_to 11000
  141.1826  133.8382  157.1204 LP  0  0  0  0  0  0  0  0  0  0  0  0  # atno 17395 bound_to 11000

$$$$
