AV-unprocessed.smi:702|AV-procd|sdf|3420|dock2
  -GOLD-   22720 0403D 1   1.00000     0.00000
 Structure written by MMmdl.
 51 53  0  0  0  0  0  0  0  0  3 V2000
  148.2115  141.2855  154.4674 C   0  0  0  0  0  0  0  0  0  0  0  0
  148.6635  141.1685  155.9410 C   0  0  2  0  0  0  0  0  0  0  0  0
  148.1393  142.3219  156.6793 N   0  0  0  0  0  0  0  0  0  0  0  0
  147.5786  142.3040  157.8978 C   0  0  0  0  0  0  0  0  0  0  0  0
  147.4760  141.2891  158.5849 O   0  0  0  0  0  0  0  0  0  0  0  0
  147.1460  143.5283  158.2478 N   0  0  0  0  0  0  0  0  0  0  0  0
  146.4500  143.9309  159.4216 C   0  0  0  0  0  0  0  0  0  0  0  0
  146.6380  145.2602  159.8623 C   0  0  0  0  0  0  0  0  0  0  0  0
  145.9786  145.7101  161.0242 C   0  0  0  0  0  0  0  0  0  0  0  0
  145.1791  144.8674  161.7119 N   0  3  0  0  0  0  0  0  0  0  0  0
  144.9779  143.5855  161.3389 C   0  0  0  0  0  0  0  0  0  0  0  0
  145.6119  143.0784  160.1858 C   0  0  0  0  0  0  0  0  0  0  0  0
  150.2085  140.9971  156.1947 C   0  0  0  0  0  0  0  0  0  0  0  0
  150.7518  139.8698  155.3408 N   0  3  0  0  0  0  0  0  0  0  0  0
  152.2358  139.7059  155.3646 C   0  0  0  0  0  0  0  0  0  0  0  0
  152.6844  138.6793  154.3123 C   0  0  0  0  0  0  0  0  0  0  0  0
  152.0557  137.4322  154.5661 O   0  0  0  0  0  0  0  0  0  0  0  0
  150.6424  137.5323  154.4756 C   0  0  0  0  0  0  0  0  0  0  0  0
  150.1217  138.5268  155.5271 C   0  0  0  0  0  0  0  0  0  0  0  0
  150.9817  142.3218  155.9246 C   0  0  0  0  0  0  0  0  0  0  0  0
  151.3591  142.8987  157.2906 C   0  0  0  0  0  0  0  0  0  0  0  0
  151.5598  141.6672  158.1655 C   0  0  0  0  0  0  0  0  0  0  0  0
  150.4473  140.7201  157.7141 C   0  0  0  0  0  0  0  0  0  0  0  0
  148.5416  140.4374  153.8691 H   0  0  0  0  0  0  0  0  0  0  0  0
  148.5596  142.1932  153.9773 H   0  0  0  0  0  0  0  0  0  0  0  0
  147.1226  141.2992  154.4079 H   0  0  0  0  0  0  0  0  0  0  0  0
  148.1539  140.2664  156.2730 H   0  0  0  0  0  0  0  0  0  0  0  0
  148.1736  143.2080  156.1960 H   0  0  0  0  0  0  0  0  0  0  0  0
  147.2593  144.2486  157.5493 H   0  0  0  0  0  0  0  0  0  0  0  0
  147.2776  145.9366  159.3134 H   0  0  0  0  0  0  0  0  0  0  0  0
  146.0666  146.7111  161.4211 H   0  0  0  0  0  0  0  0  0  0  0  0
  144.3231  143.0050  161.9725 H   0  0  0  0  0  0  0  0  0  0  0  0
  145.4461  142.0459  159.9212 H   0  0  0  0  0  0  0  0  0  0  0  0
  152.7617  140.6316  155.1534 H   0  0  0  0  0  0  0  0  0  0  0  0
  152.5663  139.3797  156.3510 H   0  0  0  0  0  0  0  0  0  0  0  0
  152.4487  139.0256  153.3045 H   0  0  0  0  0  0  0  0  0  0  0  0
  153.7650  138.5433  154.3574 H   0  0  0  0  0  0  0  0  0  0  0  0
  150.3497  137.8391  153.4700 H   0  0  0  0  0  0  0  0  0  0  0  0
  150.2092  136.5464  154.6454 H   0  0  0  0  0  0  0  0  0  0  0  0
  150.3357  138.1393  156.5230 H   0  0  0  0  0  0  0  0  0  0  0  0
  149.0393  138.5511  155.4320 H   0  0  0  0  0  0  0  0  0  0  0  0
  151.9083  142.1459  155.3806 H   0  0  0  0  0  0  0  0  0  0  0  0
  150.4181  143.0330  155.3203 H   0  0  0  0  0  0  0  0  0  0  0  0
  152.2460  143.5315  157.2474 H   0  0  0  0  0  0  0  0  0  0  0  0
  150.5404  143.5019  157.6840 H   0  0  0  0  0  0  0  0  0  0  0  0
  152.5370  141.2258  157.9669 H   0  0  0  0  0  0  0  0  0  0  0  0
  151.5086  141.8969  159.2302 H   0  0  0  0  0  0  0  0  0  0  0  0
  149.5695  140.9622  158.3079 H   0  0  0  0  0  0  0  0  0  0  0  0
  150.6412  139.6777  157.9621 H   0  0  0  0  0  0  0  0  0  0  0  0
  150.5249  140.1372  154.3938 H   0  0  0  0  0  0  0  0  0  0  0  0
  144.7105  145.2124  162.5504 H   0  0  0  0  0  0  0  0  0  0  0  0
  1  2  1  0  0  0  0
  1 24  1  0  0  0  0
  1 25  1  0  0  0  0
  1 26  1  0  0  0  0
  2  3  1  0  0  0  0
  2 13  1  0  0  0  0
  2 27  1  0  0  0  0
  3  4  1  0  0  0  0
  3 28  1  0  0  0  0
  4  5  2  0  0  0  0
  4  6  1  0  0  0  0
  6  7  1  0  0  0  0
  6 29  1  0  0  0  0
  7 12  1  0  0  0  0
  7  8  2  0  0  0  0
  8  9  1  0  0  0  0
  8 30  1  0  0  0  0
  9 10  2  0  0  0  0
  9 31  1  0  0  0  0
 10 11  1  0  0  0  0
 10 51  1  0  0  0  0
 11 12  2  0  0  0  0
 11 32  1  0  0  0  0
 12 33  1  0  0  0  0
 13 23  1  0  0  0  0
 13 14  1  0  0  0  0
 13 20  1  0  0  0  0
 14 19  1  0  0  0  0
 14 15  1  0  0  0  0
 14 50  1  0  0  0  0
 15 16  1  0  0  0  0
 15 34  1  0  0  0  0
 15 35  1  0  0  0  0
 16 17  1  0  0  0  0
 16 36  1  0  0  0  0
 16 37  1  0  0  0  0
 17 18  1  0  0  0  0
 18 19  1  0  0  0  0
 18 38  1  0  0  0  0
 18 39  1  0  0  0  0
 19 40  1  0  0  0  0
 19 41  1  0  0  0  0
 20 21  1  0  0  0  0
 20 42  1  0  0  0  0
 20 43  1  0  0  0  0
 21 22  1  0  0  0  0
 21 44  1  0  0  0  0
 21 45  1  0  0  0  0
 22 23  1  0  0  0  0
 22 46  1  0  0  0  0
 22 47  1  0  0  0  0
 23 48  1  0  0  0  0
 23 49  1  0  0  0  0
M  CHG  1  10   1
M  CHG  1  14   1
M  END
> <s_m_source_file>
AV-unprocessed.smi

> <i_m_source_file_index>
702

> <i_lp_mmshare_version>
43012

> <i_f3d_flags>
0

> <s_epik_input>
W0NIMl0xW0NIMl1PW0NIMl1bQ0gyXU4xQzIoW0NIMl1bQ0gyXVtDSDJdW0NIMl0yKVtDQEhdKFtDSDNdKVtOSF1DKD1PKVtOSF1jM1tjSF1bY0hdbltjSF1bY0hdMw==

> <s_epik_cmdline>
J2VwaWtfcHl0aG9uJywgJy1waCcsICc3LjAnLCAnLXRuJywgJzgnLCAnLW1hJywgJzIwMCcsICctbWV0YWxfYmluZGluZycsICctaW1hZScsICc8aW5maWxlLm1hZT4nLCAnLW9tYWUnLCAnPG91dGZpbGUubWFlPic=

> <r_epik_Ionization_Penalty>
1.42147

> <r_epik_Ionization_Penalty_Charging>
1.42145

> <r_epik_Ionization_Penalty_Neutral>
1.94713e-05

> <r_epik_State_Penalty>
1.44789

> <r_epik_Charging_Adjusted_Penalty>
2.86934

> <i_epik_Tot_Q>
2

> <i_epik_Tot_abs_Q>
2

> <r_epik_Metal_State_Penalty>
1.5401

> <b_epik_Metal_Only>
0

> <s_lp_Force_Field>
OPLS_2005

> <r_lp_Energy>
70.747

> <b_lp_Chiralities_Consistent>
1

> <s_lp_Variant>
AV-unprocessed.smi:702-5

> <Gold.Version>
5.8.1

> <Gold.Id.Protein>
6NUR|6NUR_protein|mol2

> <Gold.PLP.Fitness>
42.7664

> <Gold.PLP.PLP>
-35.2133

> <Gold.PLP.part.hbond>
-5.0000

> <Gold.PLP.part.metal>
0.0000

> <Gold.PLP.part.buried>
-5.0257

> <Gold.PLP.part.nonpolar>
-27.5283

> <Gold.PLP.part.repulsive>
0.4186

> <Gold.PLP.ligand.clash>
0.0000

> <Gold.PLP.ligand.torsion>
0.6067

> <Gold.PLP.Chemscore.Hbond>
2.8618

> <Gold.PLP.Chemscore.CHOScore>
0.0000

> <Gold.PLP.Chemscore.Metal>
0.0000

> <Gold.Chemscore.Hbonds>
donor molecule, donor type, donor heavy atom, donor atom, acceptor molecule, acceptor atom, score
      L1  H     3    28       P1  8028  1.00
      L1  H     6    29       P1  8029  0.36
      P1  H  6934  6946       L1     5  0.11
      P1  H 10752 10765       L1    17  0.85

> <Gold.PLP.Chemscore.Internal.Correction>
0.1812

> <Gold.Rescore>
     Score         DG    S(hbond)    S(metal)    S(lipo)     H(rot)  DE(clash)    DE(int)     intcor
     17.05     -17.94       1.63        0.00      92.43       1.48       0.24       0.65       ----

> <Gold.Chemscore.Fitness>
17.0536

> <Gold.Chemscore.DG>
-17.9447

> <Gold.Chemscore.ZeroCoef>
-5.4800

> <Gold.Chemscore.Hbond>
1.6274

> <Gold.Chemscore.Metal>
0.0000

> <Gold.Chemscore.Lipo>
92.4312

> <Gold.Chemscore.Internal_Hbond>
0.0000

> <Gold.Chemscore.DEClash>
0.2405

> <Gold.Chemscore.DEInternal>
0.6506

> <Gold.Chemscore.Rot>
1.4787

> <Gold.Chemscore.Internal.Correction>
   9.000000E+99

> <Gold.Chemscore.Hbonds>
donor molecule, donor type, donor heavy atom, donor atom, acceptor molecule, acceptor atom, score
      L1  H     3    28       P1  8028  0.55
      L1  H     6    29       P1  8029  0.01
      P1  H  6934  6946       L1     5  0.12
      P1  H 10752 10765       L1    17  0.78

> <Gold.Chemscore.Hbond.Weighted>
-5.4356

> <Gold.Chemscore.Metal.Weighted>
-0.0000

> <Gold.Chemscore.Lipo.Weighted>
-10.8144

> <Gold.Chemscore.Internal_Hbond.Weighted>
0.0000

> <Gold.Chemscore.DEClash.Weighted>
0.2405

> <Gold.Chemscore.DEInternal.Weighted>
0.6506

> <Gold.Chemscore.Rot.Weighted>
3.7854

> <Gold.Chemscore.Internal.Correction.Weighted>
   9.000000E+99

> <Gold.Protein.RotatedTorsions>
[ 6907 6896 6895 6894 ] final   -0.96 input  -60.11 | X-H torsion
[ 7974 7965 7964 7962 ] final -111.29 input  175.53 | X-H torsion
[ 8008 7997 7996 7995 ] final -166.74 input   59.86 | X-H torsion
[ 10167 10162 10161 10158 ] final  112.77 input  -65.29 | X-H torsion
[ 10718 10713 10712 10709 ] final -168.22 input   66.30 | X-H torsion
[ 10763 10752 10751 10750 ] final  171.06 input  -60.55 | X-H torsion
[ 11005 11000 10999 10996 ] final -123.90 input  -57.11 | X-H torsion

> <Gold.Protein.ActiveResidues>
 VAL166  LYS551  ARG553  GLY616  TRP617  ASP618  TYR619  PRO620  LYS621  CYS622 
 ASP623  PHE694  ASN695  SER759  ASP760  ASP761  ALA762  ILE779  LEU786  VAL792 
 PHE793  MET794  SER795  GLU796  ALA797  LYS798  CYS799  TRP800  GLU811  SER814 

> <Gold.Protein.RotatedAtoms>
  151.5538  135.1067  159.9955 H   0  0  0  0  0  0  0  0  0  0  0  0  # atno 6907 bound_to 6896
  152.4479  133.7568  159.6735 H   0  0  0  0  0  0  0  0  0  0  0  0  # atno 6908 bound_to 6896
  150.8399  133.7885  159.3089 H   0  0  0  0  0  0  0  0  0  0  0  0  # atno 6909 bound_to 6896
  145.1579  140.8863  143.3608 H   0  0  0  0  0  0  0  0  0  0  0  0  # atno 7974 bound_to 7965
  155.8680  140.0989  157.1569 H   0  0  0  0  0  0  0  0  0  0  0  0  # atno 8008 bound_to 7997
  154.3995  140.1352  156.4106 H   0  0  0  0  0  0  0  0  0  0  0  0  # atno 8009 bound_to 7997
  155.7782  140.3459  155.5286 H   0  0  0  0  0  0  0  0  0  0  0  0  # atno 8010 bound_to 7997
  139.6511  144.7128  151.2047 H   0  0  0  0  0  0  0  0  0  0  0  0  # atno 10167 bound_to 10162
  156.6938  130.9169  151.3072 H   0  0  0  0  0  0  0  0  0  0  0  0  # atno 10718 bound_to 10713
  154.4065  135.2755  155.2064 H   0  0  0  0  0  0  0  0  0  0  0  0  # atno 10763 bound_to 10752
  154.4068  135.6032  153.5933 H   0  0  0  0  0  0  0  0  0  0  0  0  # atno 10764 bound_to 10752
  152.9831  135.5940  154.4340 H   0  0  0  0  0  0  0  0  0  0  0  0  # atno 10765 bound_to 10752
  140.9883  134.0575  157.3685 H   0  0  0  0  0  0  0  0  0  0  0  0  # atno 11005 bound_to 11000
  145.0362  139.3299  143.6000 LP  0  0  0  0  0  0  0  0  0  0  0  0  # atno 17320 bound_to 7965
  146.3486  139.9718  142.8705 LP  0  0  0  0  0  0  0  0  0  0  0  0  # atno 17321 bound_to 7965
  140.7538  143.6149  150.8569 LP  0  0  0  0  0  0  0  0  0  0  0  0  # atno 17342 bound_to 10162
  139.9797  143.5964  152.2947 LP  0  0  0  0  0  0  0  0  0  0  0  0  # atno 17343 bound_to 10162
  157.6999  130.9322  150.0754 LP  0  0  0  0  0  0  0  0  0  0  0  0  # atno 17370 bound_to 10713
  156.1778  130.3649  149.9076 LP  0  0  0  0  0  0  0  0  0  0  0  0  # atno 17371 bound_to 10713
  139.8980  135.0153  156.7129 LP  0  0  0  0  0  0  0  0  0  0  0  0  # atno 17394 bound_to 11000
  140.7080  133.9248  155.8066 LP  0  0  0  0  0  0  0  0  0  0  0  0  # atno 17395 bound_to 11000

$$$$
