AV-unprocessed.smi:3046|AV-procd|sdf|11613|dock7
  -GOLD-   2272016593D 1   1.00000     0.00000
 Structure written by MMmdl.
 38 38  0  0  0  0  0  0  0  0  2 V2000
  146.8021  133.5521  151.7756 C   0  0  0  0  0  0  0  0  0  0  0  0
  146.9564  133.9302  153.0534 C   0  0  0  0  0  0  0  0  0  0  0  0
  146.2312  135.0922  153.6972 C   0  0  0  0  0  0  0  0  0  0  0  0
  146.6509  136.3504  153.0981 N   0  0  0  0  0  0  0  0  0  0  0  0
  146.1882  137.5550  153.4633 C   0  0  0  0  0  0  0  0  0  0  0  0
  145.3563  137.7132  154.3578 O   0  0  0  0  0  0  0  0  0  0  0  0
  146.7604  138.7625  152.7110 C   0  0  2  0  0  0  0  0  0  0  0  0
  146.4841  138.6248  151.2030 C   0  0  0  0  0  0  0  0  0  0  0  0
  148.2136  138.8924  152.9733 N   0  3  0  0  0  0  0  0  0  0  0  0
  148.5948  139.3857  154.3162 C   0  0  2  0  0  0  0  0  0  0  0  0
  147.8111  140.6722  154.6243 C   0  0  0  0  0  0  0  0  0  0  0  0
  150.1249  139.5923  154.4082 C   0  0  0  0  0  0  0  0  0  0  0  0
  150.5341  140.3000  155.6080 N   0  0  0  0  0  0  0  0  0  0  0  0
  150.3516  141.6298  155.9252 C   0  0  0  0  0  0  0  0  0  0  0  0
  150.9188  141.8364  157.1500 C   0  0  0  0  0  0  0  0  0  0  0  0
  151.4370  140.5590  157.5028 C   0  0  0  0  0  0  0  0  0  0  0  0
  151.2092  139.6425  156.5754 N   0  0  0  0  0  0  0  0  0  0  0  0
  146.1255  134.0718  151.1128 H   0  0  0  0  0  0  0  0  0  0  0  0
  147.3536  132.7141  151.3751 H   0  0  0  0  0  0  0  0  0  0  0  0
  147.6462  133.3868  153.6827 H   0  0  0  0  0  0  0  0  0  0  0  0
  145.1584  134.9563  153.5547 H   0  0  0  0  0  0  0  0  0  0  0  0
  146.4213  135.1091  154.7716 H   0  0  0  0  0  0  0  0  0  0  0  0
  147.3400  136.3005  152.3613 H   0  0  0  0  0  0  0  0  0  0  0  0
  146.2499  139.6507  153.0844 H   0  0  0  0  0  0  0  0  0  0  0  0
  145.4177  138.5093  151.0045 H   0  0  0  0  0  0  0  0  0  0  0  0
  146.9946  137.7580  150.7808 H   0  0  0  0  0  0  0  0  0  0  0  0
  146.8168  139.5040  150.6516 H   0  0  0  0  0  0  0  0  0  0  0  0
  148.6423  137.9870  152.8439 H   0  0  0  0  0  0  0  0  0  0  0  0
  148.2933  138.6421  155.0543 H   0  0  0  0  0  0  0  0  0  0  0  0
  147.9999  141.0253  155.6385 H   0  0  0  0  0  0  0  0  0  0  0  0
  146.7369  140.5057  154.5381 H   0  0  0  0  0  0  0  0  0  0  0  0
  148.0797  141.4753  153.9371 H   0  0  0  0  0  0  0  0  0  0  0  0
  150.6523  138.6385  154.3914 H   0  0  0  0  0  0  0  0  0  0  0  0
  150.4780  140.1547  153.5427 H   0  0  0  0  0  0  0  0  0  0  0  0
  149.8382  142.3108  155.2622 H   0  0  0  0  0  0  0  0  0  0  0  0
  150.9604  142.7603  157.7077 H   0  0  0  0  0  0  0  0  0  0  0  0
  151.9700  140.2731  158.3977 H   0  0  0  0  0  0  0  0  0  0  0  0
  148.5907  139.5191  152.2767 H   0  0  0  0  0  0  0  0  0  0  0  0
  1  2  2  0  0  0  0
  1 18  1  0  0  0  0
  1 19  1  0  0  0  0
  2  3  1  0  0  0  0
  2 20  1  0  0  0  0
  3  4  1  0  0  0  0
  3 21  1  0  0  0  0
  3 22  1  0  0  0  0
  4  5  1  0  0  0  0
  4 23  1  0  0  0  0
  5  6  2  0  0  0  0
  5  7  1  0  0  0  0
  7  8  1  0  0  0  0
  7  9  1  0  0  0  0
  7 24  1  0  0  0  0
  8 25  1  0  0  0  0
  8 26  1  0  0  0  0
  8 27  1  0  0  0  0
  9 10  1  0  0  0  0
  9 28  1  0  0  0  0
  9 38  1  0  0  0  0
 10 11  1  0  0  0  0
 10 12  1  0  0  0  0
 10 29  1  0  0  0  0
 11 30  1  0  0  0  0
 11 31  1  0  0  0  0
 11 32  1  0  0  0  0
 12 13  1  0  0  0  0
 12 33  1  0  0  0  0
 12 34  1  0  0  0  0
 13 17  1  0  0  0  0
 13 14  1  0  0  0  0
 14 15  2  0  0  0  0
 14 35  1  0  0  0  0
 15 16  1  0  0  0  0
 15 36  1  0  0  0  0
 16 17  2  0  0  0  0
 16 37  1  0  0  0  0
M  CHG  1   9   1
M  END
> <s_m_source_file>
AV-unprocessed.smi

> <i_m_source_file_index>
3046

> <i_lp_mmshare_version>
43012

> <i_f3d_flags>
0

> <s_epik_input>
W0NIMl09W0NIXVtDSDJdW05IXUMoPU8pW0NASF0oW0NIM10pW05IXVtDQEhdKFtDSDNdKVtDSDJdbjFbY0hdW2NIXVtjSF1uMQ==

> <s_epik_cmdline>
J2VwaWtfcHl0aG9uJywgJy1waCcsICc3LjAnLCAnLXRuJywgJzgnLCAnLW1hJywgJzIwMCcsICctbWV0YWxfYmluZGluZycsICctaW1hZScsICc8aW5maWxlLm1hZT4nLCAnLW9tYWUnLCAnPG91dGZpbGUubWFlPic=

> <r_lp_tautomer_probability>
1

> <r_epik_Ionization_Penalty>
0.132961

> <r_epik_Ionization_Penalty_Charging>
0.132956

> <r_epik_Ionization_Penalty_Neutral>
5.00268e-06

> <r_epik_State_Penalty>
0.122332

> <r_epik_Charging_Adjusted_Penalty>
0.255288

> <i_epik_Tot_Q>
1

> <i_epik_Tot_abs_Q>
1

> <r_epik_Metal_State_Penalty>
0.122338

> <b_epik_Metal_Only>
0

> <s_lp_Force_Field>
OPLS_2005

> <r_lp_Energy>
6.28532

> <b_lp_Chiralities_Consistent>
1

> <s_lp_Variant>
AV-unprocessed.smi:3046-1

> <Gold.Version>
5.8.1

> <Gold.Id.Protein>
6NUR|6NUR_protein|mol2

> <Gold.PLP.Fitness>
43.7024

> <Gold.PLP.PLP>
-29.3839

> <Gold.PLP.part.hbond>
-3.0000

> <Gold.PLP.part.metal>
0.0000

> <Gold.PLP.part.buried>
0.1887

> <Gold.PLP.part.nonpolar>
-27.1065

> <Gold.PLP.part.repulsive>
0.1641

> <Gold.PLP.ligand.clash>
0.0000

> <Gold.PLP.ligand.torsion>
0.3413

> <Gold.PLP.Chemscore.Hbond>
4.0000

> <Gold.PLP.Chemscore.CHOScore>
0.9835

> <Gold.PLP.Chemscore.Metal>
0.0000

> <Gold.Chemscore.Hbonds>
donor molecule, donor type, donor heavy atom, donor atom, acceptor molecule, acceptor atom, score
      L1  H     4    23       P1  7948  1.00
      L1  H     9    28       P1  7948  2.00
      L1  H     9    38       P1  7957  1.00
      L1  C    14    35       P1  8028  0.79

> <Gold.PLP.Chemscore.Internal.Correction>
0.0507

> <Gold.Rescore>
     Score         DG    S(hbond)    S(metal)    S(lipo)     H(rot)  DE(clash)    DE(int)     intcor
     16.25     -17.22       2.94        0.00      66.07       2.26       0.05       0.92       ----

> <Gold.Chemscore.Fitness>
16.2527

> <Gold.Chemscore.DG>
-17.2214

> <Gold.Chemscore.ZeroCoef>
-5.4800

> <Gold.Chemscore.Hbond>
2.9350

> <Gold.Chemscore.Metal>
0.0000

> <Gold.Chemscore.Lipo>
66.0731

> <Gold.Chemscore.Internal_Hbond>
0.0000

> <Gold.Chemscore.DEClash>
0.0515

> <Gold.Chemscore.DEInternal>
0.9172

> <Gold.Chemscore.Rot>
2.2626

> <Gold.Chemscore.Internal.Correction>
   9.000000E+99

> <Gold.Chemscore.Hbonds>
donor molecule, donor type, donor heavy atom, donor atom, acceptor molecule, acceptor atom, score
      L1  H     4    23       P1  7948  0.96
      L1  H     9    28       P1  7948  0.93
      L1  H     9    38       P1  7957  0.97

> <Gold.Chemscore.Hbond.Weighted>
-9.8030

> <Gold.Chemscore.Metal.Weighted>
-0.0000

> <Gold.Chemscore.Lipo.Weighted>
-7.7306

> <Gold.Chemscore.Internal_Hbond.Weighted>
0.0000

> <Gold.Chemscore.DEClash.Weighted>
0.0515

> <Gold.Chemscore.DEInternal.Weighted>
0.9172

> <Gold.Chemscore.Rot.Weighted>
5.7922

> <Gold.Chemscore.Internal.Correction.Weighted>
   9.000000E+99

> <Gold.Protein.RotatedTorsions>
[ 6907 6896 6895 6894 ] final  102.33 input  -60.11 | X-H torsion
[ 7974 7965 7964 7962 ] final   15.72 input  175.53 | X-H torsion
[ 8008 7997 7996 7995 ] final   99.92 input   59.86 | X-H torsion
[ 10167 10162 10161 10158 ] final  104.41 input  -65.29 | X-H torsion
[ 10718 10713 10712 10709 ] final   75.91 input   66.30 | X-H torsion
[ 10763 10752 10751 10750 ] final -142.55 input  -60.55 | X-H torsion
[ 11005 11000 10999 10996 ] final -157.24 input  -57.11 | X-H torsion

> <Gold.Protein.ActiveResidues>
 VAL166  LYS551  ARG553  GLY616  TRP617  ASP618  TYR619  PRO620  LYS621  CYS622 
 ASP623  PHE694  ASN695  SER759  ASP760  ASP761  ALA762  ILE779  LEU786  VAL792 
 PHE793  MET794  SER795  GLU796  ALA797  LYS798  CYS799  TRP800  GLU811  SER814 

> <Gold.Protein.RotatedAtoms>
  152.5326  133.9992  159.7886 H   0  0  0  0  0  0  0  0  0  0  0  0  # atno 6907 bound_to 6896
  151.0214  133.5865  159.2678 H   0  0  0  0  0  0  0  0  0  0  0  0  # atno 6908 bound_to 6896
  151.2904  135.0747  159.9255 H   0  0  0  0  0  0  0  0  0  0  0  0  # atno 6909 bound_to 6896
  146.2270  139.8852  142.8564 H   0  0  0  0  0  0  0  0  0  0  0  0  # atno 7974 bound_to 7965
  156.1152  140.3221  155.8129 H   0  0  0  0  0  0  0  0  0  0  0  0  # atno 8008 bound_to 7997
  155.4602  140.0539  157.3009 H   0  0  0  0  0  0  0  0  0  0  0  0  # atno 8009 bound_to 7997
  154.4788  140.2044  155.9828 H   0  0  0  0  0  0  0  0  0  0  0  0  # atno 8010 bound_to 7997
  139.7179  144.7064  151.0920 H   0  0  0  0  0  0  0  0  0  0  0  0  # atno 10167 bound_to 10162
  157.6653  130.9749  150.1421 H   0  0  0  0  0  0  0  0  0  0  0  0  # atno 10718 bound_to 10713
  154.8505  135.3493  154.6045 H   0  0  0  0  0  0  0  0  0  0  0  0  # atno 10763 bound_to 10752
  153.6654  135.6987  153.5168 H   0  0  0  0  0  0  0  0  0  0  0  0  # atno 10764 bound_to 10752
  153.2784  135.4271  155.1012 H   0  0  0  0  0  0  0  0  0  0  0  0  # atno 10765 bound_to 10752
  140.6668  134.4290  157.5233 H   0  0  0  0  0  0  0  0  0  0  0  0  # atno 11005 bound_to 11000
  145.2472  141.0031  143.3901 LP  0  0  0  0  0  0  0  0  0  0  0  0  # atno 17320 bound_to 7965
  144.9403  139.4196  143.6452 LP  0  0  0  0  0  0  0  0  0  0  0  0  # atno 17321 bound_to 7965
  140.7747  143.5205  150.9542 LP  0  0  0  0  0  0  0  0  0  0  0  0  # atno 17342 bound_to 10162
  139.8891  143.6975  152.3147 LP  0  0  0  0  0  0  0  0  0  0  0  0  # atno 17343 bound_to 10162
  156.2241  130.3676  149.8521 LP  0  0  0  0  0  0  0  0  0  0  0  0  # atno 17370 bound_to 10713
  156.6366  130.8687  151.3506 LP  0  0  0  0  0  0  0  0  0  0  0  0  # atno 17371 bound_to 10713
  139.8994  134.8591  156.1959 LP  0  0  0  0  0  0  0  0  0  0  0  0  # atno 17394 bound_to 11000
  141.0423  133.6931  156.1620 LP  0  0  0  0  0  0  0  0  0  0  0  0  # atno 17395 bound_to 11000

$$$$
