AV-unprocessed.smi:1503|AV-procd|sdf|6069|dock8
  -GOLD-   22720 6183D 1   1.00000     0.00000
 Structure written by MMmdl.
 44 45  0  0  0  0  0  0  0  0  1 V2000
  149.0413  133.2263  153.5993 C   0  0  0  0  0  0  0  0  0  0  0  0
  149.2588  133.4937  154.8957 C   0  0  0  0  0  0  0  0  0  0  0  0
  150.2007  134.5672  155.4033 C   0  0  0  0  0  0  0  0  0  0  0  0
  149.8734  135.8724  154.8432 N   0  0  0  0  0  0  0  0  0  0  0  0
  149.8566  137.0241  155.5315 C   0  0  0  0  0  0  0  0  0  0  0  0
  150.1296  137.0964  156.7304 O   0  0  0  0  0  0  0  0  0  0  0  0
  149.4763  138.2737  154.7309 C   0  0  0  0  0  0  0  0  0  0  0  0
  150.6617  139.2199  154.4580 C   0  0  0  0  0  0  0  0  0  0  0  0
  150.8331  140.2591  155.5622 C   0  0  0  0  0  0  0  0  0  0  0  0
  150.0684  141.3730  155.6555 C   0  0  0  0  0  0  0  0  0  0  0  0
  148.9390  141.7206  154.7016 C   0  0  0  0  0  0  0  0  0  0  0  0
  150.2675  142.2921  156.6690 N   0  0  0  0  0  0  0  0  0  0  0  0
  151.2830  142.0760  157.5925 C   0  0  0  0  0  0  0  0  0  0  0  0
  151.4004  143.0692  158.5642 N   0  0  0  0  0  0  0  0  0  0  0  0
  151.1746  144.4693  158.2047 C   0  0  0  0  0  0  0  0  0  0  0  0
  150.8585  145.3194  159.4468 C   0  0  0  0  0  0  0  0  0  0  0  0
  151.9050  145.1830  160.3988 O   0  0  0  0  0  0  0  0  0  0  0  0
  152.0427  143.8358  160.8308 C   0  0  0  0  0  0  0  0  0  0  0  0
  152.3934  142.9407  159.6306 C   0  0  0  0  0  0  0  0  0  0  0  0
  152.0547  141.0276  157.5652 N   0  0  0  0  0  0  0  0  0  0  0  0
  151.8939  140.0525  156.5696 C   0  0  0  0  0  0  0  0  0  0  0  0
  152.6164  139.0571  156.5488 O   0  0  0  0  0  0  0  0  0  0  0  0
  149.6639  143.1008  156.6991 H   0  0  0  0  0  0  0  0  0  0  0  0
  149.5459  133.7788  152.8203 H   0  0  0  0  0  0  0  0  0  0  0  0
  148.3543  132.4485  153.3009 H   0  0  0  0  0  0  0  0  0  0  0  0
  148.7345  132.9213  155.6471 H   0  0  0  0  0  0  0  0  0  0  0  0
  150.1927  134.6032  156.4943 H   0  0  0  0  0  0  0  0  0  0  0  0
  151.2160  134.3088  155.1022 H   0  0  0  0  0  0  0  0  0  0  0  0
  149.6374  135.9022  153.8618 H   0  0  0  0  0  0  0  0  0  0  0  0
  149.0349  137.9536  153.7865 H   0  0  0  0  0  0  0  0  0  0  0  0
  148.6970  138.8089  155.2752 H   0  0  0  0  0  0  0  0  0  0  0  0
  151.5856  138.6496  154.3479 H   0  0  0  0  0  0  0  0  0  0  0  0
  150.5208  139.7225  153.5013 H   0  0  0  0  0  0  0  0  0  0  0  0
  148.2157  140.9062  154.6548 H   0  0  0  0  0  0  0  0  0  0  0  0
  149.3289  141.8946  153.6986 H   0  0  0  0  0  0  0  0  0  0  0  0
  148.4097  142.6210  155.0159 H   0  0  0  0  0  0  0  0  0  0  0  0
  150.3579  144.5671  157.4889 H   0  0  0  0  0  0  0  0  0  0  0  0
  152.0694  144.8522  157.7121 H   0  0  0  0  0  0  0  0  0  0  0  0
  150.7673  146.3696  159.1694 H   0  0  0  0  0  0  0  0  0  0  0  0
  149.9058  145.0224  159.8886 H   0  0  0  0  0  0  0  0  0  0  0  0
  152.8316  143.7830  161.5811 H   0  0  0  0  0  0  0  0  0  0  0  0
  151.1225  143.4995  161.3112 H   0  0  0  0  0  0  0  0  0  0  0  0
  153.3738  143.2122  159.2370 H   0  0  0  0  0  0  0  0  0  0  0  0
  152.4595  141.9037  159.9631 H   0  0  0  0  0  0  0  0  0  0  0  0
  1  2  2  0  0  0  0
  1 24  1  0  0  0  0
  1 25  1  0  0  0  0
  2  3  1  0  0  0  0
  2 26  1  0  0  0  0
  3  4  1  0  0  0  0
  3 27  1  0  0  0  0
  3 28  1  0  0  0  0
  4  5  1  0  0  0  0
  4 29  1  0  0  0  0
  5  6  2  0  0  0  0
  5  7  1  0  0  0  0
  7  8  1  0  0  0  0
  7 30  1  0  0  0  0
  7 31  1  0  0  0  0
  8 32  1  0  0  0  0
  8 33  1  0  0  0  0
  8  9  1  0  0  0  0
  9 21  1  0  0  0  0
  9 10  2  0  0  0  0
 10 12  1  0  0  0  0
 10 11  1  0  0  0  0
 11 34  1  0  0  0  0
 11 35  1  0  0  0  0
 11 36  1  0  0  0  0
 12 23  1  0  0  0  0
 12 13  1  0  0  0  0
 13 14  1  0  0  0  0
 13 20  2  0  0  0  0
 14 19  1  0  0  0  0
 14 15  1  0  0  0  0
 15 16  1  0  0  0  0
 15 37  1  0  0  0  0
 15 38  1  0  0  0  0
 16 17  1  0  0  0  0
 16 39  1  0  0  0  0
 16 40  1  0  0  0  0
 17 18  1  0  0  0  0
 18 19  1  0  0  0  0
 18 41  1  0  0  0  0
 18 42  1  0  0  0  0
 19 43  1  0  0  0  0
 19 44  1  0  0  0  0
 20 21  1  0  0  0  0
 21 22  2  0  0  0  0
M  END
> <s_m_source_file>
AV-unprocessed.smi

> <i_m_source_file_index>
1503

> <i_lp_mmshare_version>
43012

> <i_f3d_flags>
0

> <s_epik_input>
W0NIMl09W0NIXVtDSDJdW05IXUMoPU8pW0NIMl1bQ0gyXWMxYyhbQ0gzXSluYyhbbkhdYzE9TylOMltDSDJdW0NIMl1PW0NIMl1bQ0gyXTI=

> <s_epik_cmdline>
J2VwaWtfcHl0aG9uJywgJy1waCcsICc3LjAnLCAnLXRuJywgJzgnLCAnLW1hJywgJzIwMCcsICctbWV0YWxfYmluZGluZycsICctaW1hZScsICc8aW5maWxlLm1hZT4nLCAnLW9tYWUnLCAnPG91dGZpbGUubWFlPic=

> <r_lp_tautomer_probability>
0.108306

> <r_epik_Ionization_Penalty>
0.0745381

> <r_epik_Ionization_Penalty_Charging>
0.0625831

> <r_epik_Ionization_Penalty_Neutral>
0.0119549

> <r_epik_State_Penalty>
1.70762

> <r_epik_Charging_Adjusted_Penalty>
1.7702

> <i_epik_Tot_Q>
0

> <i_epik_Tot_abs_Q>
0

> <r_epik_Metal_State_Penalty>
2.68249

> <b_epik_Metal_Only>
0

> <s_lp_Force_Field>
OPLS_2005

> <r_lp_Energy>
25.2683

> <b_lp_Chiralities_Consistent>
1

> <s_lp_Variant>
AV-unprocessed.smi:1503-2

> <Gold.Version>
5.8.1

> <Gold.Id.Protein>
6NUR|6NUR_protein|mol2

> <Gold.PLP.Fitness>
51.9704

> <Gold.PLP.PLP>
-45.5596

> <Gold.PLP.part.hbond>
-3.0000

> <Gold.PLP.part.metal>
0.0000

> <Gold.PLP.part.buried>
-1.7412

> <Gold.PLP.part.nonpolar>
-39.9051

> <Gold.PLP.part.repulsive>
0.2677

> <Gold.PLP.ligand.clash>
0.0000

> <Gold.PLP.ligand.torsion>
0.9741

> <Gold.PLP.Chemscore.Hbond>
2.6746

> <Gold.PLP.Chemscore.CHOScore>
0.0000

> <Gold.PLP.Chemscore.Metal>
0.0000

> <Gold.Chemscore.Hbonds>
donor molecule, donor type, donor heavy atom, donor atom, acceptor molecule, acceptor atom, score
      L1  H     4    29       P1  7948  0.81
      L1  H    12    23       P1  8028  0.84
      P1  H  7997  8008       L1    22  0.67

> <Gold.PLP.Chemscore.Internal.Correction>
0.3352

> <Gold.Rescore>
     Score         DG    S(hbond)    S(metal)    S(lipo)     H(rot)  DE(clash)    DE(int)     intcor
     15.97     -17.52       1.58        0.00      99.93       1.92       0.65       0.90       ----

> <Gold.Chemscore.Fitness>
15.9750

> <Gold.Chemscore.DG>
-17.5247

> <Gold.Chemscore.ZeroCoef>
-5.4800

> <Gold.Chemscore.Hbond>
1.5762

> <Gold.Chemscore.Metal>
0.0000

> <Gold.Chemscore.Lipo>
99.9342

> <Gold.Chemscore.Internal_Hbond>
0.0000

> <Gold.Chemscore.DEClash>
0.6532

> <Gold.Chemscore.DEInternal>
0.8966

> <Gold.Chemscore.Rot>
1.9187

> <Gold.Chemscore.Internal.Correction>
   9.000000E+99

> <Gold.Chemscore.Hbonds>
donor molecule, donor type, donor heavy atom, donor atom, acceptor molecule, acceptor atom, score
      L1  H     4    29       P1  7948  0.28
      L1  H    12    23       P1  8028  0.79
      P1  H  7997  8008       L1    22  0.07

> <Gold.Chemscore.Hbond.Weighted>
-5.2644

> <Gold.Chemscore.Metal.Weighted>
-0.0000

> <Gold.Chemscore.Lipo.Weighted>
-11.6923

> <Gold.Chemscore.Internal_Hbond.Weighted>
0.0000

> <Gold.Chemscore.DEClash.Weighted>
0.6532

> <Gold.Chemscore.DEInternal.Weighted>
0.8966

> <Gold.Chemscore.Rot.Weighted>
4.9119

> <Gold.Chemscore.Internal.Correction.Weighted>
   9.000000E+99

> <Gold.Protein.RotatedTorsions>
[ 6907 6896 6895 6894 ] final -144.04 input  -60.11 | X-H torsion
[ 7974 7965 7964 7962 ] final   -5.39 input  175.53 | X-H torsion
[ 8008 7997 7996 7995 ] final  -38.12 input   59.86 | X-H torsion
[ 10167 10162 10161 10158 ] final  -25.93 input  -65.29 | X-H torsion
[ 10718 10713 10712 10709 ] final  -99.56 input   66.30 | X-H torsion
[ 10763 10752 10751 10750 ] final  176.64 input  -60.55 | X-H torsion
[ 11005 11000 10999 10996 ] final -140.74 input  -57.11 | X-H torsion

> <Gold.Protein.ActiveResidues>
 VAL166  LYS551  ARG553  GLY616  TRP617  ASP618  TYR619  PRO620  LYS621  CYS622 
 ASP623  PHE694  ASN695  SER759  ASP760  ASP761  ALA762  ILE779  LEU786  VAL792 
 PHE793  MET794  SER795  GLU796  ALA797  LYS798  CYS799  TRP800  GLU811  SER814 

> <Gold.Protein.RotatedAtoms>
  151.1086  133.5189  159.2606 H   0  0  0  0  0  0  0  0  0  0  0  0  # atno 6907 bound_to 6896
  151.1992  135.0435  159.8875 H   0  0  0  0  0  0  0  0  0  0  0  0  # atno 6908 bound_to 6896
  152.5448  134.0917  159.8333 H   0  0  0  0  0  0  0  0  0  0  0  0  # atno 6909 bound_to 6896
  146.2353  140.2014  142.8334 H   0  0  0  0  0  0  0  0  0  0  0  0  # atno 7974 bound_to 7965
  154.4042  140.1586  156.2648 H   0  0  0  0  0  0  0  0  0  0  0  0  # atno 8008 bound_to 7997
  155.9005  140.3433  155.6001 H   0  0  0  0  0  0  0  0  0  0  0  0  # atno 8009 bound_to 7997
  155.7453  140.0798  157.2217 H   0  0  0  0  0  0  0  0  0  0  0  0  # atno 8010 bound_to 7997
  140.7285  143.4222  151.0933 H   0  0  0  0  0  0  0  0  0  0  0  0  # atno 10167 bound_to 10162
  156.0137  130.5288  150.6688 H   0  0  0  0  0  0  0  0  0  0  0  0  # atno 10718 bound_to 10713
  154.4838  135.2776  155.1550 H   0  0  0  0  0  0  0  0  0  0  0  0  # atno 10763 bound_to 10752
  154.3249  135.6202  153.5528 H   0  0  0  0  0  0  0  0  0  0  0  0  # atno 10764 bound_to 10752
  152.9878  135.5751  154.5244 H   0  0  0  0  0  0  0  0  0  0  0  0  # atno 10765 bound_to 10752
  140.8393  134.2421  157.4818 H   0  0  0  0  0  0  0  0  0  0  0  0  # atno 11005 bound_to 11000
  144.9779  140.8431  143.5415 LP  0  0  0  0  0  0  0  0  0  0  0  0  # atno 17320 bound_to 7965
  145.2004  139.2255  143.5196 LP  0  0  0  0  0  0  0  0  0  0  0  0  # atno 17321 bound_to 7965
  139.7869  143.8274  152.3146 LP  0  0  0  0  0  0  0  0  0  0  0  0  # atno 17342 bound_to 10162
  139.8245  144.7281  150.9530 LP  0  0  0  0  0  0  0  0  0  0  0  0  # atno 17343 bound_to 10162
  157.4415  131.0862  151.0939 LP  0  0  0  0  0  0  0  0  0  0  0  0  # atno 17370 bound_to 10713
  157.1482  130.6172  149.5574 LP  0  0  0  0  0  0  0  0  0  0  0  0  # atno 17371 bound_to 10713
  139.8703  134.9627  156.4438 LP  0  0  0  0  0  0  0  0  0  0  0  0  # atno 17394 bound_to 11000
  140.8912  133.7846  155.9574 LP  0  0  0  0  0  0  0  0  0  0  0  0  # atno 17395 bound_to 11000

$$$$
