AV-unprocessed.smi:2279|AV-procd|sdf|9188|dock1
  -GOLD-   2272012403D 1   1.00000     0.00000
 Structure written by MMmdl.
 57 59  0  0  0  0  0  0  0  0  2 V2000
  151.6885  144.8277  158.7464 C   0  0  0  0  0  0  0  0  0  0  0  0
  152.0640  143.4045  159.1023 C   0  0  0  0  0  0  0  0  0  0  0  0
  152.9696  143.1362  160.1464 C   0  0  0  0  0  0  0  0  0  0  0  0
  153.2795  141.7912  160.4284 C   0  0  0  0  0  0  0  0  0  0  0  0
  154.2445  141.4301  161.5379 C   0  0  0  0  0  0  0  0  0  0  0  0
  152.7525  140.7545  159.7424 N   0  0  0  0  0  0  0  0  0  0  0  0
  151.8804  141.0010  158.7336 C   0  0  0  0  0  0  0  0  0  0  0  0
  151.2683  139.9830  157.9551 N   0  0  0  0  0  0  0  0  0  0  0  0
  151.4091  138.6506  158.0698 C   0  0  0  0  0  0  0  0  0  0  0  0
  152.1367  138.0775  158.8813 O   0  0  0  0  0  0  0  0  0  0  0  0
  150.6518  138.0042  157.1712 N   0  0  0  0  0  0  0  0  0  0  0  0
  150.5788  136.5538  157.0211 C   0  0  0  0  0  0  0  0  0  0  0  0
  151.0611  136.1207  155.6305 C   0  0  0  0  0  0  0  0  0  0  0  0
  150.8496  134.6117  155.4221 C   0  0  0  0  0  0  0  0  0  0  0  0
  149.4298  134.2429  155.5497 N   0  0  0  0  0  0  0  0  0  0  0  0
  149.2421  132.8186  155.1954 C   0  0  2  0  0  0  0  0  0  0  0  0
  149.8155  132.5025  153.7905 C   0  0  0  0  0  0  0  0  0  0  0  0
  148.9483  133.0944  152.6641 C   0  0  0  0  0  0  0  0  0  0  0  0
  147.5482  132.6134  152.7522 N   0  3  2  0  0  0  0  0  0  0  0  0
  146.7166  133.0910  151.6268 C   0  0  0  0  0  0  0  0  0  0  0  0
  146.9383  132.9117  154.0703 C   0  0  0  0  0  0  0  0  0  0  0  0
  147.7767  132.3132  155.2136 C   0  0  0  0  0  0  0  0  0  0  0  0
  148.9991  134.5723  156.9174 C   0  0  0  0  0  0  0  0  0  0  0  0
  149.1336  136.0792  157.2015 C   0  0  0  0  0  0  0  0  0  0  0  0
  151.5130  142.3211  158.3886 C   0  0  0  0  0  0  0  0  0  0  0  0
  152.0377  145.5300  159.5040 H   0  0  0  0  0  0  0  0  0  0  0  0
  150.6057  144.9269  158.6647 H   0  0  0  0  0  0  0  0  0  0  0  0
  152.1332  145.1058  157.7908 H   0  0  0  0  0  0  0  0  0  0  0  0
  153.4152  143.9392  160.7154 H   0  0  0  0  0  0  0  0  0  0  0  0
  154.4712  142.2947  162.1622 H   0  0  0  0  0  0  0  0  0  0  0  0
  155.1787  141.0569  161.1177 H   0  0  0  0  0  0  0  0  0  0  0  0
  153.8202  140.6538  162.1756 H   0  0  0  0  0  0  0  0  0  0  0  0
  150.6473  140.3077  157.2291 H   0  0  0  0  0  0  0  0  0  0  0  0
  150.0844  138.5550  156.5440 H   0  0  0  0  0  0  0  0  0  0  0  0
  151.1973  136.0751  157.7830 H   0  0  0  0  0  0  0  0  0  0  0  0
  150.5271  136.6739  154.8562 H   0  0  0  0  0  0  0  0  0  0  0  0
  152.1181  136.3614  155.5097 H   0  0  0  0  0  0  0  0  0  0  0  0
  151.2412  134.3624  154.4392 H   0  0  0  0  0  0  0  0  0  0  0  0
  151.4451  134.0496  156.1435 H   0  0  0  0  0  0  0  0  0  0  0  0
  149.7870  132.2298  155.9352 H   0  0  0  0  0  0  0  0  0  0  0  0
  150.8469  132.8257  153.6687 H   0  0  0  0  0  0  0  0  0  0  0  0
  149.8486  131.4194  153.6657 H   0  0  0  0  0  0  0  0  0  0  0  0
  148.9662  134.1847  152.7079 H   0  0  0  0  0  0  0  0  0  0  0  0
  149.3674  132.8112  151.6978 H   0  0  0  0  0  0  0  0  0  0  0  0
  146.6224  134.1775  151.6442 H   0  0  0  0  0  0  0  0  0  0  0  0
  145.7163  132.6596  151.6766 H   0  0  0  0  0  0  0  0  0  0  0  0
  147.1560  132.8001  150.6721 H   0  0  0  0  0  0  0  0  0  0  0  0
  146.8415  133.9914  154.1950 H   0  0  0  0  0  0  0  0  0  0  0  0
  145.9300  132.4975  154.1048 H   0  0  0  0  0  0  0  0  0  0  0  0
  147.7894  131.2293  155.0900 H   0  0  0  0  0  0  0  0  0  0  0  0
  147.2924  132.4628  156.1777 H   0  0  0  0  0  0  0  0  0  0  0  0
  147.9480  134.3286  157.0592 H   0  0  0  0  0  0  0  0  0  0  0  0
  149.5699  133.9911  157.6431 H   0  0  0  0  0  0  0  0  0  0  0  0
  148.7959  136.2930  158.2162 H   0  0  0  0  0  0  0  0  0  0  0  0
  148.4720  136.6317  156.5322 H   0  0  0  0  0  0  0  0  0  0  0  0
  150.8167  142.5037  157.5827 H   0  0  0  0  0  0  0  0  0  0  0  0
  147.5854  131.6071  152.6740 H   0  0  0  0  0  0  0  0  0  0  0  0
  1  2  1  0  0  0  0
  1 26  1  0  0  0  0
  1 27  1  0  0  0  0
  1 28  1  0  0  0  0
  2 25  1  0  0  0  0
  2  3  2  0  0  0  0
  3  4  1  0  0  0  0
  3 29  1  0  0  0  0
  4  5  1  0  0  0  0
  4  6  2  0  0  0  0
  5 30  1  0  0  0  0
  5 31  1  0  0  0  0
  5 32  1  0  0  0  0
  6  7  1  0  0  0  0
  7  8  1  0  0  0  0
  7 25  2  0  0  0  0
  8  9  1  0  0  0  0
  8 33  1  0  0  0  0
  9 10  2  0  0  0  0
  9 11  1  0  0  0  0
 11 12  1  0  0  0  0
 11 34  1  0  0  0  0
 12 24  1  0  0  0  0
 12 13  1  0  0  0  0
 12 35  1  0  0  0  0
 13 14  1  0  0  0  0
 13 36  1  0  0  0  0
 13 37  1  0  0  0  0
 14 15  1  0  0  0  0
 14 38  1  0  0  0  0
 14 39  1  0  0  0  0
 15 16  1  0  0  0  0
 15 23  1  0  0  0  0
 16 22  1  0  0  0  0
 16 17  1  0  0  0  0
 16 40  1  0  0  0  0
 17 18  1  0  0  0  0
 17 41  1  0  0  0  0
 17 42  1  0  0  0  0
 18 19  1  0  0  0  0
 18 43  1  0  0  0  0
 18 44  1  0  0  0  0
 19 20  1  0  0  0  0
 19 21  1  0  0  0  0
 19 57  1  0  0  0  0
 20 45  1  0  0  0  0
 20 46  1  0  0  0  0
 20 47  1  0  0  0  0
 21 22  1  0  0  0  0
 21 48  1  0  0  0  0
 21 49  1  0  0  0  0
 22 50  1  0  0  0  0
 22 51  1  0  0  0  0
 23 24  1  0  0  0  0
 23 52  1  0  0  0  0
 23 53  1  0  0  0  0
 24 54  1  0  0  0  0
 24 55  1  0  0  0  0
 25 56  1  0  0  0  0
M  CHG  1  19   1
M  END
> <s_m_source_file>
AV-unprocessed.smi

> <i_m_source_file_index>
2279

> <i_lp_mmshare_version>
43012

> <i_f3d_flags>
0

> <s_epik_input>
W0NIM11jMVtjSF1jKFtDSDNdKW5jKFtjSF0xKVtOSF1DKD1PKVtOSF1bQ0hdMltDSDJdW0NIMl1OKFtDSDJdW0NIMl0yKVtDSF0zW0NIMl1bQ0gyXU4oW0NIM10pW0NIMl1bQ0gyXTM=

> <s_epik_cmdline>
J2VwaWtfcHl0aG9uJywgJy1waCcsICc3LjAnLCAnLXRuJywgJzgnLCAnLW1hJywgJzIwMCcsICctbWV0YWxfYmluZGluZycsICctaW1hZScsICc8aW5maWxlLm1hZT4nLCAnLW9tYWUnLCAnPG91dGZpbGUubWFlPic=

> <r_epik_Ionization_Penalty>
1.01001

> <r_epik_Ionization_Penalty_Charging>
0.000974969

> <r_epik_Ionization_Penalty_Neutral>
1.00904

> <r_epik_State_Penalty>
1.10286

> <r_epik_Charging_Adjusted_Penalty>
1.10383

> <i_epik_Tot_Q>
1

> <i_epik_Tot_abs_Q>
1

> <r_epik_Metal_State_Penalty>
1.10279

> <b_epik_Metal_Only>
0

> <s_lp_Force_Field>
OPLS_2005

> <r_lp_Energy>
36.6633

> <b_lp_Chiralities_Consistent>
1

> <s_lp_Variant>
AV-unprocessed.smi:2279-6

> <Gold.Version>
5.8.1

> <Gold.Id.Protein>
6NUR|6NUR_protein|mol2

> <Gold.PLP.Fitness>
40.4002

> <Gold.PLP.PLP>
-40.4385

> <Gold.PLP.part.hbond>
0.0000

> <Gold.PLP.part.metal>
0.0000

> <Gold.PLP.part.buried>
-6.6529

> <Gold.PLP.part.nonpolar>
-34.1792

> <Gold.PLP.part.repulsive>
0.1351

> <Gold.PLP.ligand.clash>
0.0000

> <Gold.PLP.ligand.torsion>
0.0213

> <Gold.PLP.Chemscore.Hbond>
0.0000

> <Gold.PLP.Chemscore.CHOScore>
0.0000

> <Gold.PLP.Chemscore.Metal>
0.0000

> <Gold.PLP.Chemscore.Internal.Correction>
0.0045

> <Gold.Rescore>
     Score         DG    S(hbond)    S(metal)    S(lipo)     H(rot)  DE(clash)    DE(int)     intcor
     14.48     -15.85       0.00        0.00     114.85       1.20       0.03       1.34       ----

> <Gold.Chemscore.Fitness>
14.4843

> <Gold.Chemscore.DG>
-15.8500

> <Gold.Chemscore.ZeroCoef>
-5.4800

> <Gold.Chemscore.Hbond>
0.0000

> <Gold.Chemscore.Metal>
0.0000

> <Gold.Chemscore.Lipo>
114.8480

> <Gold.Chemscore.Internal_Hbond>
0.0000

> <Gold.Chemscore.DEClash>
0.0282

> <Gold.Chemscore.DEInternal>
1.3374

> <Gold.Chemscore.Rot>
1.1981

> <Gold.Chemscore.Internal.Correction>
   9.000000E+99

> <Gold.Chemscore.Hbond.Weighted>
-0.0000

> <Gold.Chemscore.Metal.Weighted>
-0.0000

> <Gold.Chemscore.Lipo.Weighted>
-13.4372

> <Gold.Chemscore.Internal_Hbond.Weighted>
0.0000

> <Gold.Chemscore.DEClash.Weighted>
0.0282

> <Gold.Chemscore.DEInternal.Weighted>
1.3374

> <Gold.Chemscore.Rot.Weighted>
3.0673

> <Gold.Chemscore.Internal.Correction.Weighted>
   9.000000E+99

> <Gold.Protein.RotatedTorsions>
[ 6907 6896 6895 6894 ] final -106.67 input  -60.11 | X-H torsion
[ 7974 7965 7964 7962 ] final  123.92 input  175.53 | X-H torsion
[ 8008 7997 7996 7995 ] final  -38.99 input   59.86 | X-H torsion
[ 10167 10162 10161 10158 ] final   84.82 input  -65.29 | X-H torsion
[ 10718 10713 10712 10709 ] final   52.30 input   66.30 | X-H torsion
[ 10763 10752 10751 10750 ] final  149.51 input  -60.55 | X-H torsion
[ 11005 11000 10999 10996 ] final    3.18 input  -57.11 | X-H torsion

> <Gold.Protein.ActiveResidues>
 VAL166  LYS551  ARG553  GLY616  TRP617  ASP618  TYR619  PRO620  LYS621  CYS622 
 ASP623  PHE694  ASN695  SER759  ASP760  ASP761  ALA762  ILE779  LEU786  VAL792 
 PHE793  MET794  SER795  GLU796  ALA797  LYS798  CYS799  TRP800  GLU811  SER814 

> <Gold.Protein.RotatedAtoms>
  150.7402  133.9941  159.3616 H   0  0  0  0  0  0  0  0  0  0  0  0  # atno 6907 bound_to 6896
  151.7891  135.0739  160.0394 H   0  0  0  0  0  0  0  0  0  0  0  0  # atno 6908 bound_to 6896
  152.3221  133.5828  159.5787 H   0  0  0  0  0  0  0  0  0  0  0  0  # atno 6909 bound_to 6896
  145.0903  139.3592  143.4864 H   0  0  0  0  0  0  0  0  0  0  0  0  # atno 7974 bound_to 7965
  154.4029  140.1563  156.2791 H   0  0  0  0  0  0  0  0  0  0  0  0  # atno 8008 bound_to 7997
  155.8886  140.3440  155.5917 H   0  0  0  0  0  0  0  0  0  0  0  0  # atno 8009 bound_to 7997
  155.7585  140.0814  157.2157 H   0  0  0  0  0  0  0  0  0  0  0  0  # atno 8010 bound_to 7997
  139.9041  144.6312  150.8606 H   0  0  0  0  0  0  0  0  0  0  0  0  # atno 10167 bound_to 10162
  157.5062  130.8470  149.8377 H   0  0  0  0  0  0  0  0  0  0  0  0  # atno 10718 bound_to 10713
  154.0724  135.2865  155.3306 H   0  0  0  0  0  0  0  0  0  0  0  0  # atno 10763 bound_to 10752
  154.6738  135.5289  153.8176 H   0  0  0  0  0  0  0  0  0  0  0  0  # atno 10764 bound_to 10752
  153.0480  135.6564  154.0904 H   0  0  0  0  0  0  0  0  0  0  0  0  # atno 10765 bound_to 10752
  140.5960  133.9880  155.8110 H   0  0  0  0  0  0  0  0  0  0  0  0  # atno 11005 bound_to 11000
  146.3531  140.0734  142.8622 LP  0  0  0  0  0  0  0  0  0  0  0  0  # atno 17320 bound_to 7965
  145.1074  140.9383  143.4677 LP  0  0  0  0  0  0  0  0  0  0  0  0  # atno 17321 bound_to 7965
  140.7700  143.3415  151.2199 LP  0  0  0  0  0  0  0  0  0  0  0  0  # atno 17342 bound_to 10162
  139.7000  143.9549  152.2901 LP  0  0  0  0  0  0  0  0  0  0  0  0  # atno 17343 bound_to 10162
  156.0259  130.3779  150.1823 LP  0  0  0  0  0  0  0  0  0  0  0  0  # atno 17370 bound_to 10713
  157.0013  130.9923  151.3390 LP  0  0  0  0  0  0  0  0  0  0  0  0  # atno 17371 bound_to 10713
  141.0904  133.9926  157.3246 LP  0  0  0  0  0  0  0  0  0  0  0  0  # atno 17394 bound_to 11000
  139.9253  135.0201  156.8213 LP  0  0  0  0  0  0  0  0  0  0  0  0  # atno 17395 bound_to 11000

$$$$
