AV-unprocessed.smi:107|AV-procd|sdf|1019|dock7
  -GOLD-   2262018 23D 1   1.00000     0.00000
 Structure written by MMmdl.
 31 32  0  0  0  0  0  0  0  0  1 V2000
  152.8242  142.5965  159.5856 C   0  0  0  0  0  0  0  0  0  0  0  0
  152.0678  142.1350  158.3510 C   0  0  0  0  0  0  0  0  0  0  0  0
  152.1544  140.8661  157.8759 C   0  0  0  0  0  0  0  0  0  0  0  0
  151.4779  140.4096  156.7515 N   0  0  0  0  0  0  0  0  0  0  0  0
  151.6979  139.0089  156.2161 C   0  0  2  0  0  0  0  0  0  0  0  0
  151.9898  138.9474  154.7047 C   0  0  0  0  0  0  0  0  0  0  0  0
  150.8473  138.0998  154.1619 C   0  0  2  0  0  0  0  0  0  0  0  0
  149.8499  138.9101  153.5701 O   0  0  0  0  0  0  0  0  0  0  0  0
  150.3385  137.3566  155.4077 C   0  0  2  0  0  0  0  0  0  0  0  0
  148.8819  136.8616  155.3811 C   0  0  0  0  0  0  0  0  0  0  0  0
  148.7240  135.8517  154.4076 O   0  0  0  0  0  0  0  0  0  0  0  0
  150.5410  138.2772  156.4698 O   0  0  0  0  0  0  0  0  0  0  0  0
  150.7371  141.3348  155.9825 C   0  0  0  0  0  0  0  0  0  0  0  0
  150.1874  141.0431  154.9211 O   0  0  0  0  0  0  0  0  0  0  0  0
  150.6340  142.6339  156.4772 N   0  0  0  0  0  0  0  0  0  0  0  0
  151.2400  143.1121  157.6405 C   0  0  0  0  0  0  0  0  0  0  0  0
  151.0630  144.2803  157.9824 O   0  0  0  0  0  0  0  0  0  0  0  0
  150.0841  143.2894  155.9412 H   0  0  0  0  0  0  0  0  0  0  0  0
  153.4076  141.7889  160.0286 H   0  0  0  0  0  0  0  0  0  0  0  0
  152.1302  142.9623  160.3433 H   0  0  0  0  0  0  0  0  0  0  0  0
  153.5115  143.4043  159.3314 H   0  0  0  0  0  0  0  0  0  0  0  0
  152.8025  140.1836  158.4022 H   0  0  0  0  0  0  0  0  0  0  0  0
  152.5324  138.5760  156.7695 H   0  0  0  0  0  0  0  0  0  0  0  0
  152.0871  139.9283  154.2394 H   0  0  0  0  0  0  0  0  0  0  0  0
  152.9387  138.4270  154.5673 H   0  0  0  0  0  0  0  0  0  0  0  0
  151.1984  137.3996  153.4033 H   0  0  0  0  0  0  0  0  0  0  0  0
  150.0392  138.9900  152.6474 H   0  0  0  0  0  0  0  0  0  0  0  0
  150.9995  136.5090  155.5995 H   0  0  0  0  0  0  0  0  0  0  0  0
  148.6151  136.4454  156.3528 H   0  0  0  0  0  0  0  0  0  0  0  0
  148.1846  137.6762  155.1843 H   0  0  0  0  0  0  0  0  0  0  0  0
  148.8661  136.2327  153.5542 H   0  0  0  0  0  0  0  0  0  0  0  0
  1  2  1  0  0  0  0
  1 19  1  0  0  0  0
  1 20  1  0  0  0  0
  1 21  1  0  0  0  0
  2 16  1  0  0  0  0
  2  3  2  0  0  0  0
  3  4  1  0  0  0  0
  3 22  1  0  0  0  0
  4  5  1  0  0  0  0
  4 13  1  0  0  0  0
  5 12  1  0  0  0  0
  5  6  1  0  0  0  0
  5 23  1  0  0  0  0
  6  7  1  0  0  0  0
  6 24  1  0  0  0  0
  6 25  1  0  0  0  0
  7  8  1  0  0  0  0
  7  9  1  0  0  0  0
  7 26  1  0  0  0  0
  8 27  1  0  0  0  0
  9 10  1  0  0  0  0
  9 12  1  0  0  0  0
  9 28  1  0  0  0  0
 10 11  1  0  0  0  0
 10 29  1  0  0  0  0
 10 30  1  0  0  0  0
 11 31  1  0  0  0  0
 13 14  2  0  0  0  0
 13 15  1  0  0  0  0
 15 18  1  0  0  0  0
 15 16  1  0  0  0  0
 16 17  2  0  0  0  0
M  END
> <s_m_source_file>
AV-unprocessed.smi

> <i_m_source_file_index>
107

> <i_lp_mmshare_version>
43012

> <i_f3d_flags>
0

> <s_epik_input>
Tz1jMVtuSF1jKD1PKW4oW2NIXWMxW0NIM10pW0NAQEhdMltDSDJdW0NAQEhdKFtPSF0pW0NASF0oTzIpW0NIMl1bT0hd

> <s_epik_cmdline>
J2VwaWtfcHl0aG9uJywgJy1waCcsICc3LjAnLCAnLXRuJywgJzgnLCAnLW1hJywgJzIwMCcsICctbWV0YWxfYmluZGluZycsICctaW1hZScsICc8aW5maWxlLm1hZT4nLCAnLW9tYWUnLCAnPG91dGZpbGUubWFlPic=

> <r_lp_tautomer_probability>
0.999537

> <r_epik_Ionization_Penalty>
0.00121888

> <r_epik_Ionization_Penalty_Charging>
0.00121876

> <r_epik_Ionization_Penalty_Neutral>
1.19946e-07

> <r_epik_State_Penalty>
0.000805124

> <r_epik_Charging_Adjusted_Penalty>
0.00202389

> <i_epik_Tot_Q>
0

> <i_epik_Tot_abs_Q>
0

> <r_epik_Metal_State_Penalty>
0.662472

> <b_epik_Metal_Only>
0

> <s_epik_Chemistry_Notes>
This compound contains an acetal/aminal-like group ( X-CH(R)-Y where X, Y are N, S, or O) that may be acid/base labile, releasing an aldehyde.

> <s_lp_Force_Field>
OPLS_2005

> <r_lp_Energy>
26.1821

> <b_lp_Chiralities_Consistent>
1

> <s_lp_Variant>
AV-unprocessed.smi:107-7

> <Gold.Version>
5.8.1

> <Gold.Id.Protein>
6NUR|6NUR_protein|mol2

> <Gold.PLP.Fitness>
41.1061

> <Gold.PLP.PLP>
-31.1943

> <Gold.PLP.part.hbond>
-4.2403

> <Gold.PLP.part.metal>
0.0000

> <Gold.PLP.part.buried>
-4.3654

> <Gold.PLP.part.nonpolar>
-21.8026

> <Gold.PLP.part.repulsive>
0.3558

> <Gold.PLP.ligand.clash>
0.0000

> <Gold.PLP.ligand.torsion>
0.3982

> <Gold.PLP.Chemscore.Hbond>
3.5360

> <Gold.PLP.Chemscore.CHOScore>
0.0000

> <Gold.PLP.Chemscore.Metal>
0.0000

> <Gold.Chemscore.Hbonds>
donor molecule, donor type, donor heavy atom, donor atom, acceptor molecule, acceptor atom, score
      L1  H     8    27       P1  7957  0.85
      L1  H    11    31       P1  7948  1.00
      L1  H    15    18       P1  8028  1.00
      P1  H  7989  7998       L1    14  0.67

> <Gold.PLP.Chemscore.Internal.Correction>
0.1003

> <Gold.Rescore>
     Score         DG    S(hbond)    S(metal)    S(lipo)     H(rot)  DE(clash)    DE(int)     intcor
     11.51     -15.12       3.21        0.00      50.31       2.73       0.03       3.58       ----

> <Gold.Chemscore.Fitness>
11.5144

> <Gold.Chemscore.DG>
-15.1207

> <Gold.Chemscore.ZeroCoef>
-5.4800

> <Gold.Chemscore.Hbond>
3.2130

> <Gold.Chemscore.Metal>
0.0000

> <Gold.Chemscore.Lipo>
50.3079

> <Gold.Chemscore.Internal_Hbond>
0.0000

> <Gold.Chemscore.DEClash>
0.0252

> <Gold.Chemscore.DEInternal>
3.5811

> <Gold.Chemscore.Rot>
2.7253

> <Gold.Chemscore.Internal.Correction>
   9.000000E+99

> <Gold.Chemscore.Hbonds>
donor molecule, donor type, donor heavy atom, donor atom, acceptor molecule, acceptor atom, score
      L1  H     8    27       P1  7957  0.54
      L1  H    11    31       P1  7948  0.98
      L1  H    15    18       P1  8028  0.99
      P1  H  7989  7998       L1    14  0.42

> <Gold.Chemscore.Hbond.Weighted>
-10.7316

> <Gold.Chemscore.Metal.Weighted>
-0.0000

> <Gold.Chemscore.Lipo.Weighted>
-5.8860

> <Gold.Chemscore.Internal_Hbond.Weighted>
0.0000

> <Gold.Chemscore.DEClash.Weighted>
0.0252

> <Gold.Chemscore.DEInternal.Weighted>
3.5811

> <Gold.Chemscore.Rot.Weighted>
6.9769

> <Gold.Chemscore.Internal.Correction.Weighted>
   9.000000E+99

> <Gold.Protein.RotatedTorsions>
[ 6907 6896 6895 6894 ] final -149.48 input  -60.11 | X-H torsion
[ 7974 7965 7964 7962 ] final   71.72 input  175.53 | X-H torsion
[ 8008 7997 7996 7995 ] final   68.21 input   59.86 | X-H torsion
[ 10167 10162 10161 10158 ] final   37.47 input  -65.29 | X-H torsion
[ 10718 10713 10712 10709 ] final  100.26 input   66.30 | X-H torsion
[ 10763 10752 10751 10750 ] final  135.37 input  -60.55 | X-H torsion
[ 11005 11000 10999 10996 ] final   97.98 input  -57.11 | X-H torsion

> <Gold.Protein.ActiveResidues>
 VAL166  LYS551  ARG553  GLY616  TRP617  ASP618  TYR619  PRO620  LYS621  CYS622 
 ASP623  PHE694  ASN695  SER759  ASP760  ASP761  ALA762  ILE779  LEU786  VAL792 
 PHE793  MET794  SER795  GLU796  ALA797  LYS798  CYS799  TRP800  GLU811  SER814 

> <Gold.Protein.RotatedAtoms>
  151.1847  133.4703  159.2594 H   0  0  0  0  0  0  0  0  0  0  0  0  # atno 6907 bound_to 6896
  151.1223  135.0086  159.8554 H   0  0  0  0  0  0  0  0  0  0  0  0  # atno 6908 bound_to 6896
  152.5456  134.1757  159.8668 H   0  0  0  0  0  0  0  0  0  0  0  0  # atno 6909 bound_to 6896
  145.7623  139.2806  143.1369 H   0  0  0  0  0  0  0  0  0  0  0  0  # atno 7974 bound_to 7965
  155.7048  140.3495  155.4948 H   0  0  0  0  0  0  0  0  0  0  0  0  # atno 8008 bound_to 7997
  155.9408  140.1101  157.1079 H   0  0  0  0  0  0  0  0  0  0  0  0  # atno 8009 bound_to 7997
  154.4102  140.1213  156.4911 H   0  0  0  0  0  0  0  0  0  0  0  0  # atno 8010 bound_to 7997
  140.4029  144.1698  150.6134 H   0  0  0  0  0  0  0  0  0  0  0  0  # atno 10167 bound_to 10162
  157.6858  131.0693  150.5074 H   0  0  0  0  0  0  0  0  0  0  0  0  # atno 10718 bound_to 10713
  153.8390  135.3094  155.3424 H   0  0  0  0  0  0  0  0  0  0  0  0  # atno 10763 bound_to 10752
  154.7941  135.4766  154.0123 H   0  0  0  0  0  0  0  0  0  0  0  0  # atno 10764 bound_to 10752
  153.1587  135.6857  153.8865 H   0  0  0  0  0  0  0  0  0  0  0  0  # atno 10765 bound_to 10752
  139.8774  134.9027  156.4387 H   0  0  0  0  0  0  0  0  0  0  0  0  # atno 11005 bound_to 11000
  146.0252  140.8311  142.9903 LP  0  0  0  0  0  0  0  0  0  0  0  0  # atno 17320 bound_to 7965
  144.6828  140.2687  143.7309 LP  0  0  0  0  0  0  0  0  0  0  0  0  # atno 17321 bound_to 7965
  140.4720  143.2409  151.9075 LP  0  0  0  0  0  0  0  0  0  0  0  0  # atno 17342 bound_to 10162
  139.4784  144.5360  151.8598 LP  0  0  0  0  0  0  0  0  0  0  0  0  # atno 17343 bound_to 10162
  156.5393  130.4204  149.6162 LP  0  0  0  0  0  0  0  0  0  0  0  0  # atno 17370 bound_to 10713
  156.3000  130.7171  151.2041 LP  0  0  0  0  0  0  0  0  0  0  0  0  # atno 17371 bound_to 10713
  140.9015  133.7776  155.9685 LP  0  0  0  0  0  0  0  0  0  0  0  0  # atno 17394 bound_to 11000
  140.8646  134.2799  157.5219 LP  0  0  0  0  0  0  0  0  0  0  0  0  # atno 17395 bound_to 11000

$$$$
