AV-unprocessed.smi:2559|AV-procd|sdf|10036|dock9
  -GOLD-   2272014 83D 1   1.00000     0.00000
 Structure written by MMmdl.
 43 45  0  0  0  0  0  0  0  0  2 V2000
  153.3055  138.0439  159.2273 C   0  0  0  0  0  0  0  0  0  0  0  0
  152.7498  138.3284  157.9009 N   0  0  0  0  0  0  0  0  0  0  0  0
  152.7599  137.3793  156.9135 C   0  0  0  0  0  0  0  0  0  0  0  0
  153.2465  136.2765  157.1666 O   0  0  0  0  0  0  0  0  0  0  0  0
  152.2307  137.6738  155.6762 N   0  5  0  0  0  0  0  0  0  0  0  0
  151.6615  138.8638  155.3046 C   0  0  0  0  0  0  0  0  0  0  0  0
  151.1740  139.1275  154.2081 O   0  0  0  0  0  0  0  0  0  0  0  0
  151.6763  139.8598  156.4021 C   0  0  0  0  0  0  0  0  0  0  0  0
  152.1839  139.6057  157.6390 C   0  0  0  0  0  0  0  0  0  0  0  0
  152.0305  140.6965  158.4793 N   0  0  0  0  0  0  0  0  0  0  0  0
  151.4434  141.6011  157.6945 C   0  0  0  0  0  0  0  0  0  0  0  0
  151.0812  142.8731  158.1440 N   0  0  0  0  0  0  0  0  0  0  0  0
  149.7723  143.2616  158.6709 C   0  0  0  0  0  0  0  0  0  0  0  0
  149.8990  144.0261  160.0007 C   0  0  0  0  0  0  0  0  0  0  0  0
  150.7715  145.2753  159.8185 C   0  0  0  0  0  0  0  0  0  0  0  0
  152.1044  144.8946  159.1582 C   0  0  0  0  0  0  0  0  0  0  0  0
  151.8672  144.0765  157.8754 C   0  0  0  0  0  0  0  0  0  0  0  0
  151.1798  141.1700  156.4298 N   0  0  0  0  0  0  0  0  0  0  0  0
  150.4826  141.8939  155.3648 C   0  0  0  0  0  0  0  0  0  0  0  0
  149.3178  141.0808  154.7664 C   0  0  2  0  0  0  0  0  0  0  0  0
  149.1713  141.4125  153.3993 O   0  0  0  0  0  0  0  0  0  0  0  0
  147.9913  141.3672  155.4902 C   0  0  0  0  0  0  0  0  0  0  0  0
  147.4035  142.5493  154.9890 O   0  0  0  0  0  0  0  0  0  0  0  0
  154.3330  137.6862  159.1479 H   0  0  0  0  0  0  0  0  0  0  0  0
  152.7149  137.2762  159.7282 H   0  0  0  0  0  0  0  0  0  0  0  0
  153.3212  138.9209  159.8737 H   0  0  0  0  0  0  0  0  0  0  0  0
  149.2740  143.8917  157.9330 H   0  0  0  0  0  0  0  0  0  0  0  0
  149.1317  142.3881  158.7847 H   0  0  0  0  0  0  0  0  0  0  0  0
  148.9120  144.3109  160.3659 H   0  0  0  0  0  0  0  0  0  0  0  0
  150.3365  143.3804  160.7619 H   0  0  0  0  0  0  0  0  0  0  0  0
  150.2475  145.9974  159.1911 H   0  0  0  0  0  0  0  0  0  0  0  0
  150.9461  145.7617  160.7784 H   0  0  0  0  0  0  0  0  0  0  0  0
  152.6768  145.7935  158.9283 H   0  0  0  0  0  0  0  0  0  0  0  0
  152.7077  144.3131  159.8565 H   0  0  0  0  0  0  0  0  0  0  0  0
  152.8280  143.7951  157.4428 H   0  0  0  0  0  0  0  0  0  0  0  0
  151.3554  144.6825  157.1268 H   0  0  0  0  0  0  0  0  0  0  0  0
  150.1129  142.8366  155.7568 H   0  0  0  0  0  0  0  0  0  0  0  0
  151.1815  142.1913  154.5874 H   0  0  0  0  0  0  0  0  0  0  0  0
  149.5539  140.0189  154.8419 H   0  0  0  0  0  0  0  0  0  0  0  0
  149.2550  140.6225  152.8875 H   0  0  0  0  0  0  0  0  0  0  0  0
  147.2834  140.5565  155.3155 H   0  0  0  0  0  0  0  0  0  0  0  0
  148.1326  141.4416  156.5693 H   0  0  0  0  0  0  0  0  0  0  0  0
  148.0188  143.2580  155.0961 H   0  0  0  0  0  0  0  0  0  0  0  0
  1  2  1  0  0  0  0
  1 24  1  0  0  0  0
  1 25  1  0  0  0  0
  1 26  1  0  0  0  0
  2  9  1  0  0  0  0
  2  3  1  0  0  0  0
  3  4  2  0  0  0  0
  3  5  1  0  0  0  0
  5  6  1  0  0  0  0
  6  7  2  0  0  0  0
  6  8  1  0  0  0  0
  8 18  1  0  0  0  0
  8  9  2  0  0  0  0
  9 10  1  0  0  0  0
 10 11  2  0  0  0  0
 11 12  1  0  0  0  0
 11 18  1  0  0  0  0
 12 17  1  0  0  0  0
 12 13  1  0  0  0  0
 13 14  1  0  0  0  0
 13 27  1  0  0  0  0
 13 28  1  0  0  0  0
 14 15  1  0  0  0  0
 14 29  1  0  0  0  0
 14 30  1  0  0  0  0
 15 16  1  0  0  0  0
 15 31  1  0  0  0  0
 15 32  1  0  0  0  0
 16 17  1  0  0  0  0
 16 33  1  0  0  0  0
 16 34  1  0  0  0  0
 17 35  1  0  0  0  0
 17 36  1  0  0  0  0
 18 19  1  0  0  0  0
 19 20  1  0  0  0  0
 19 37  1  0  0  0  0
 19 38  1  0  0  0  0
 20 21  1  0  0  0  0
 20 22  1  0  0  0  0
 20 39  1  0  0  0  0
 21 40  1  0  0  0  0
 22 23  1  0  0  0  0
 22 41  1  0  0  0  0
 22 42  1  0  0  0  0
 23 43  1  0  0  0  0
M  CHG  1   5  -1
M  END
> <s_m_source_file>
AV-unprocessed.smi

> <i_m_source_file_index>
2559

> <i_lp_mmshare_version>
43012

> <i_f3d_flags>
0

> <s_epik_input>
Tz1jMVtuSF1jKD1PKW4oW0NIM10pYyhjMTIpbmMobjJbQ0gyXVtDQEhdKFtPSF0pW0NIMl1bT0hdKU4zW0NIMl1bQ0gyXVtDSDJdW0NIMl1bQ0gyXTM=

> <s_epik_cmdline>
J2VwaWtfcHl0aG9uJywgJy1waCcsICc3LjAnLCAnLXRuJywgJzgnLCAnLW1hJywgJzIwMCcsICctbWV0YWxfYmluZGluZycsICctaW1hZScsICc8aW5maWxlLm1hZT4nLCAnLW9tYWUnLCAnPG91dGZpbGUubWFlPic=

> <r_lp_tautomer_probability>
1

> <r_epik_Ionization_Penalty>
5.90509

> <r_epik_Ionization_Penalty_Charging>
0.0759636

> <r_epik_Ionization_Penalty_Neutral>
5.82913

> <r_epik_State_Penalty>
5.18635

> <r_epik_Charging_Adjusted_Penalty>
5.26231

> <i_epik_Tot_Q>
-1

> <i_epik_Tot_abs_Q>
1

> <r_epik_Metal_State_Penalty>
1.25614

> <b_epik_Metal_Only>
1

> <s_lp_Force_Field>
OPLS_2005

> <r_lp_Energy>
44.2417

> <b_lp_Chiralities_Consistent>
1

> <s_lp_Variant>
AV-unprocessed.smi:2559-3

> <Gold.Version>
5.8.1

> <Gold.Id.Protein>
6NUR|6NUR_protein|mol2

> <Gold.PLP.Fitness>
51.0013

> <Gold.PLP.PLP>
-40.4763

> <Gold.PLP.part.hbond>
-6.6403

> <Gold.PLP.part.metal>
0.0000

> <Gold.PLP.part.buried>
-2.5493

> <Gold.PLP.part.nonpolar>
-31.7084

> <Gold.PLP.part.repulsive>
0.1955

> <Gold.PLP.ligand.clash>
0.0000

> <Gold.PLP.ligand.torsion>
2.1674

> <Gold.PLP.Chemscore.Hbond>
4.7520

> <Gold.PLP.Chemscore.CHOScore>
0.0000

> <Gold.PLP.Chemscore.Metal>
0.0000

> <Gold.Chemscore.Hbonds>
donor molecule, donor type, donor heavy atom, donor atom, acceptor molecule, acceptor atom, score
      L1  H    21    40       P1  7957  0.82
      L1  H    23    43       P1  8028  1.00
      P1  H  7989  7998       L1     7  1.00
      P1  H  8011  8017       L1    21  0.80
      P1  H 10752 10764       L1     4  0.91

> <Gold.PLP.Chemscore.Internal.Correction>
0.6038

> <Gold.Rescore>
     Score         DG    S(hbond)    S(metal)    S(lipo)     H(rot)  DE(clash)    DE(int)     intcor
     13.70     -20.47       3.88        0.00      81.49       2.93       3.11       3.65       ----

> <Gold.Chemscore.Fitness>
13.7029

> <Gold.Chemscore.DG>
-20.4673

> <Gold.Chemscore.ZeroCoef>
-5.4800

> <Gold.Chemscore.Hbond>
3.8806

> <Gold.Chemscore.Metal>
0.0000

> <Gold.Chemscore.Lipo>
81.4909

> <Gold.Chemscore.Internal_Hbond>
0.0000

> <Gold.Chemscore.DEClash>
3.1116

> <Gold.Chemscore.DEInternal>
3.6528

> <Gold.Chemscore.Rot>
2.9330

> <Gold.Chemscore.Internal.Correction>
   9.000000E+99

> <Gold.Chemscore.Hbonds>
donor molecule, donor type, donor heavy atom, donor atom, acceptor molecule, acceptor atom, score
      L1  H    21    40       P1  7957  0.81
      L1  H    23    43       P1  8028  0.82
      P1  H  7989  7998       L1     7  0.91
      P1  H  8011  8017       L1    21  0.13
      P1  H 10752 10764       L1     4  0.62

> <Gold.Chemscore.Hbond.Weighted>
-12.9612

> <Gold.Chemscore.Metal.Weighted>
-0.0000

> <Gold.Chemscore.Lipo.Weighted>
-9.5344

> <Gold.Chemscore.Internal_Hbond.Weighted>
0.0000

> <Gold.Chemscore.DEClash.Weighted>
3.1116

> <Gold.Chemscore.DEInternal.Weighted>
3.6528

> <Gold.Chemscore.Rot.Weighted>
7.5084

> <Gold.Chemscore.Internal.Correction.Weighted>
   9.000000E+99

> <Gold.Protein.RotatedTorsions>
[ 6907 6896 6895 6894 ] final -163.38 input  -60.11 | X-H torsion
[ 7974 7965 7964 7962 ] final  -81.04 input  175.53 | X-H torsion
[ 8008 7997 7996 7995 ] final  159.85 input   59.86 | X-H torsion
[ 10167 10162 10161 10158 ] final   33.31 input  -65.29 | X-H torsion
[ 10718 10713 10712 10709 ] final  -82.13 input   66.30 | X-H torsion
[ 10763 10752 10751 10750 ] final   12.38 input  -60.55 | X-H torsion
[ 11005 11000 10999 10996 ] final  -75.03 input  -57.11 | X-H torsion

> <Gold.Protein.ActiveResidues>
 VAL166  LYS551  ARG553  GLY616  TRP617  ASP618  TYR619  PRO620  LYS621  CYS622 
 ASP623  PHE694  ASN695  SER759  ASP760  ASP761  ALA762  ILE779  LEU786  VAL792 
 PHE793  MET794  SER795  GLU796  ALA797  LYS798  CYS799  TRP800  GLU811  SER814 

> <Gold.Protein.RotatedAtoms>
  151.3951  133.3776  159.2725 H   0  0  0  0  0  0  0  0  0  0  0  0  # atno 6907 bound_to 6896
  150.9475  134.8880  159.7662 H   0  0  0  0  0  0  0  0  0  0  0  0  # atno 6908 bound_to 6896
  152.5098  134.3905  159.9434 H   0  0  0  0  0  0  0  0  0  0  0  0  # atno 6909 bound_to 6896
  145.5520  140.9495  143.1494 H   0  0  0  0  0  0  0  0  0  0  0  0  # atno 7974 bound_to 7965
  156.2211  140.1820  156.7473 H   0  0  0  0  0  0  0  0  0  0  0  0  # atno 8008 bound_to 7997
  154.5867  140.0657  156.9210 H   0  0  0  0  0  0  0  0  0  0  0  0  # atno 8009 bound_to 7997
  155.2406  140.3321  155.4295 H   0  0  0  0  0  0  0  0  0  0  0  0  # atno 8010 bound_to 7997
  140.4419  144.1175  150.6175 H   0  0  0  0  0  0  0  0  0  0  0  0  # atno 10167 bound_to 10162
  156.0038  130.4625  150.4058 H   0  0  0  0  0  0  0  0  0  0  0  0  # atno 10718 bound_to 10713
  153.1829  135.6830  153.8454 H   0  0  0  0  0  0  0  0  0  0  0  0  # atno 10763 bound_to 10752
  153.7780  135.3186  155.3363 H   0  0  0  0  0  0  0  0  0  0  0  0  # atno 10764 bound_to 10752
  154.8070  135.4742  154.0514 H   0  0  0  0  0  0  0  0  0  0  0  0  # atno 10765 bound_to 10752
  141.1641  133.6932  156.7454 H   0  0  0  0  0  0  0  0  0  0  0  0  # atno 11005 bound_to 11000
  144.7525  139.7158  143.7267 LP  0  0  0  0  0  0  0  0  0  0  0  0  # atno 17320 bound_to 7965
  146.1910  139.5151  142.9805 LP  0  0  0  0  0  0  0  0  0  0  0  0  # atno 17321 bound_to 7965
  140.4308  143.2569  151.9597 LP  0  0  0  0  0  0  0  0  0  0  0  0  # atno 17342 bound_to 10162
  139.4790  144.5745  151.8034 LP  0  0  0  0  0  0  0  0  0  0  0  0  # atno 17343 bound_to 10162
  157.2124  131.0463  151.2592 LP  0  0  0  0  0  0  0  0  0  0  0  0  # atno 17370 bound_to 10713
  157.3877  130.7265  149.6675 LP  0  0  0  0  0  0  0  0  0  0  0  0  # atno 17371 bound_to 10713
  140.2643  134.8442  157.3788 LP  0  0  0  0  0  0  0  0  0  0  0  0  # atno 17394 bound_to 11000
  140.1581  134.4763  155.7913 LP  0  0  0  0  0  0  0  0  0  0  0  0  # atno 17395 bound_to 11000

$$$$
