AV-unprocessed.smi:160|AV-procd|sdf|1357|dock8
  -GOLD-   2262019 63D 1   1.00000     0.00000
 Structure written by MMmdl.
 29 30  0  0  0  0  0  0  0  0  1 V2000
  152.9842  142.7186  160.7734 N   0  0  0  0  0  0  0  0  0  0  0  0
  153.5622  141.7048  160.1208 C   0  0  0  0  0  0  0  0  0  0  0  0
  154.7318  141.3776  160.3152 O   0  0  0  0  0  0  0  0  0  0  0  0
  152.7004  140.9783  159.1256 C   0  0  0  0  0  0  0  0  0  0  0  0
  153.1941  139.9388  158.3896 N   0  0  0  0  0  0  0  0  0  0  0  0
  152.1067  139.6450  157.6884 C   0  0  0  0  0  0  0  0  0  0  0  0
  151.0508  140.4167  157.9652 N   0  0  0  0  0  0  0  0  0  0  0  0
  149.6667  140.3909  157.3871 C   0  0  2  0  0  0  0  0  0  0  0  0
  149.6114  139.3807  156.4234 O   0  0  0  0  0  0  0  0  0  0  0  0
  149.6650  139.9551  155.1213 C   0  0  1  0  0  0  0  0  0  0  0  0
  149.0855  138.9735  154.0914 C   0  0  0  0  0  0  0  0  0  0  0  0
  150.0865  138.0749  153.6626 O   0  0  0  0  0  0  0  0  0  0  0  0
  148.8205  141.2151  155.3160 C   0  0  2  0  0  0  0  0  0  0  0  0
  149.0004  142.1660  154.2830 O   0  0  0  0  0  0  0  0  0  0  0  0
  149.2623  141.7136  156.6914 C   0  0  2  0  0  0  0  0  0  0  0  0
  150.3026  142.6774  156.6167 O   0  0  0  0  0  0  0  0  0  0  0  0
  151.4256  141.3098  158.9158 N   0  0  0  0  0  0  0  0  0  0  0  0
  149.0258  140.1332  158.2311 H   0  0  0  0  0  0  0  0  0  0  0  0
  150.6905  140.2318  154.8690 H   0  0  0  0  0  0  0  0  0  0  0  0
  147.7656  140.9394  155.3607 H   0  0  0  0  0  0  0  0  0  0  0  0
  148.4247  142.1601  157.2284 H   0  0  0  0  0  0  0  0  0  0  0  0
  153.5112  143.2454  161.4541 H   0  0  0  0  0  0  0  0  0  0  0  0
  152.0206  142.9505  160.5790 H   0  0  0  0  0  0  0  0  0  0  0  0
  152.0785  138.8484  156.9595 H   0  0  0  0  0  0  0  0  0  0  0  0
  148.2321  138.4288  154.4961 H   0  0  0  0  0  0  0  0  0  0  0  0
  148.7368  139.5156  153.2119 H   0  0  0  0  0  0  0  0  0  0  0  0
  149.7462  137.5669  152.9422 H   0  0  0  0  0  0  0  0  0  0  0  0
  149.1454  143.0124  154.6771 H   0  0  0  0  0  0  0  0  0  0  0  0
  150.0341  143.3682  156.0305 H   0  0  0  0  0  0  0  0  0  0  0  0
  1  2  1  0  0  0  0
  1 22  1  0  0  0  0
  1 23  1  0  0  0  0
  2  3  2  0  0  0  0
  2  4  1  0  0  0  0
  4 17  2  0  0  0  0
  4  5  1  0  0  0  0
  5  6  2  0  0  0  0
  6  7  1  0  0  0  0
  6 24  1  0  0  0  0
  7  8  1  0  0  0  0
  7 17  1  0  0  0  0
  8 18  1  0  0  0  0
  8 15  1  0  0  0  0
  8  9  1  0  0  0  0
  9 10  1  0  0  0  0
 10 19  1  0  0  0  0
 10 11  1  0  0  0  0
 10 13  1  0  0  0  0
 11 12  1  0  0  0  0
 11 25  1  0  0  0  0
 11 26  1  0  0  0  0
 12 27  1  0  0  0  0
 13 20  1  0  0  0  0
 13 14  1  0  0  0  0
 13 15  1  0  0  0  0
 14 28  1  0  0  0  0
 15 21  1  0  0  0  0
 15 16  1  0  0  0  0
 16 29  1  0  0  0  0
M  END
> <s_m_source_file>
AV-unprocessed.smi

> <i_m_source_file_index>
160

> <i_lp_mmshare_version>
43012

> <i_f3d_flags>
0

> <s_epik_input>
W05IMl1DKD1PKWMxbltjSF1uKG4xKVtDQEBIXTJPW0NASF0oW0NIMl1bT0hdKVtDQEBIXShbT0hdKVtDQEhdMltPSF0=

> <s_epik_cmdline>
J2VwaWtfcHl0aG9uJywgJy1waCcsICc3LjAnLCAnLXRuJywgJzgnLCAnLW1hJywgJzIwMCcsICctbWV0YWxfYmluZGluZycsICctaW1hZScsICc8aW5maWxlLm1hZT4nLCAnLW9tYWUnLCAnPG91dGZpbGUubWFlPic=

> <r_lp_tautomer_probability>
1

> <r_epik_Ionization_Penalty>
1.06932e-05

> <r_epik_Ionization_Penalty_Charging>
0

> <r_epik_Ionization_Penalty_Neutral>
1.06932e-05

> <r_epik_State_Penalty>
-0

> <r_epik_Charging_Adjusted_Penalty>
0

> <i_epik_Tot_Q>
0

> <i_epik_Tot_abs_Q>
0

> <r_epik_Metal_State_Penalty>
0.0142097

> <b_epik_Metal_Only>
0

> <s_epik_Chemistry_Notes>
This compound contains an acetal/aminal-like group ( X-CH(R)-Y where X, Y are N, S, or O) that may be acid/base labile, releasing an aldehyde.

> <s_lp_Force_Field>
OPLS_2005

> <r_lp_Energy>
46.1783

> <b_lp_Chiralities_Consistent>
1

> <s_lp_Variant>
AV-unprocessed.smi:160-15

> <Gold.Version>
5.8.1

> <Gold.Id.Protein>
6NUR|6NUR_protein|mol2

> <Gold.PLP.Fitness>
38.2544

> <Gold.PLP.PLP>
-26.0506

> <Gold.PLP.part.hbond>
-6.7923

> <Gold.PLP.part.metal>
0.0000

> <Gold.PLP.part.buried>
-3.8966

> <Gold.PLP.part.nonpolar>
-15.4756

> <Gold.PLP.part.repulsive>
0.0461

> <Gold.PLP.ligand.clash>
0.0000

> <Gold.PLP.ligand.torsion>
0.2244

> <Gold.PLP.Chemscore.Hbond>
4.2122

> <Gold.PLP.Chemscore.CHOScore>
0.0000

> <Gold.PLP.Chemscore.Metal>
0.0000

> <Gold.Chemscore.Hbonds>
donor molecule, donor type, donor heavy atom, donor atom, acceptor molecule, acceptor atom, score
      L1  H    12    27       P1  7948  1.00
      L1  H    14    28       P1  8028  1.00
      L1  H    16    29       P1  8028  0.98
      P1  H  7997  8009       L1     5  1.00
      P1  H  8011  8017       L1    14  0.24

> <Gold.PLP.Chemscore.Internal.Correction>
0.0161

> <Gold.Rescore>
     Score         DG    S(hbond)    S(metal)    S(lipo)     H(rot)  DE(clash)    DE(int)     intcor
     10.61     -10.92       3.95        0.00      22.58       4.06       0.02       0.29       ----

> <Gold.Chemscore.Fitness>
10.6071

> <Gold.Chemscore.DG>
-10.9206

> <Gold.Chemscore.ZeroCoef>
-5.4800

> <Gold.Chemscore.Hbond>
3.9499

> <Gold.Chemscore.Metal>
0.0000

> <Gold.Chemscore.Lipo>
22.5775

> <Gold.Chemscore.Internal_Hbond>
0.0000

> <Gold.Chemscore.DEClash>
0.0198

> <Gold.Chemscore.DEInternal>
0.2938

> <Gold.Chemscore.Rot>
4.0600

> <Gold.Chemscore.Internal.Correction>
   9.000000E+99

> <Gold.Chemscore.Hbonds>
donor molecule, donor type, donor heavy atom, donor atom, acceptor molecule, acceptor atom, score
      L1  H    12    27       P1  7948  0.50
      L1  H    14    28       P1  8028  0.98
      L1  H    16    29       P1  8028  0.93
      P1  H  7997  8009       L1     5  0.66
      P1  H  8011  8017       L1    14  0.08

> <Gold.Chemscore.Hbond.Weighted>
-13.1927

> <Gold.Chemscore.Metal.Weighted>
-0.0000

> <Gold.Chemscore.Lipo.Weighted>
-2.6416

> <Gold.Chemscore.Internal_Hbond.Weighted>
0.0000

> <Gold.Chemscore.DEClash.Weighted>
0.0198

> <Gold.Chemscore.DEInternal.Weighted>
0.2938

> <Gold.Chemscore.Rot.Weighted>
10.3936

> <Gold.Chemscore.Internal.Correction.Weighted>
   9.000000E+99

> <Gold.Protein.RotatedTorsions>
[ 6907 6896 6895 6894 ] final -152.91 input  -60.11 | X-H torsion
[ 7974 7965 7964 7962 ] final -179.59 input  175.53 | X-H torsion
[ 8008 7997 7996 7995 ] final  142.83 input   59.86 | X-H torsion
[ 10167 10162 10161 10158 ] final -127.62 input  -65.29 | X-H torsion
[ 10718 10713 10712 10709 ] final -128.30 input   66.30 | X-H torsion
[ 10763 10752 10751 10750 ] final   38.61 input  -60.55 | X-H torsion
[ 11005 11000 10999 10996 ] final -152.06 input  -57.11 | X-H torsion

> <Gold.Protein.ActiveResidues>
 VAL166  LYS551  ARG553  GLY616  TRP617  ASP618  TYR619  PRO620  LYS621  CYS622 
 ASP623  PHE694  ASN695  SER759  ASP760  ASP761  ALA762  ILE779  LEU786  VAL792 
 PHE793  MET794  SER795  GLU796  ALA797  LYS798  CYS799  TRP800  GLU811  SER814 

> <Gold.Protein.RotatedAtoms>
  151.2348  133.4431  159.2604 H   0  0  0  0  0  0  0  0  0  0  0  0  # atno 6907 bound_to 6896
  151.0761  134.9829  159.8343 H   0  0  0  0  0  0  0  0  0  0  0  0  # atno 6908 bound_to 6896
  152.5418  134.2290  159.8870 H   0  0  0  0  0  0  0  0  0  0  0  0  # atno 6909 bound_to 6896
  144.7138  140.0694  143.6430 H   0  0  0  0  0  0  0  0  0  0  0  0  # atno 7974 bound_to 7965
  156.2942  140.2278  156.4792 H   0  0  0  0  0  0  0  0  0  0  0  0  # atno 8008 bound_to 7997
  154.7867  140.0457  157.1191 H   0  0  0  0  0  0  0  0  0  0  0  0  # atno 8009 bound_to 7997
  154.9693  140.3064  155.4998 H   0  0  0  0  0  0  0  0  0  0  0  0  # atno 8010 bound_to 7997
  139.9589  143.5972  152.2451 H   0  0  0  0  0  0  0  0  0  0  0  0  # atno 10167 bound_to 10162
  156.1938  130.6813  151.0457 H   0  0  0  0  0  0  0  0  0  0  0  0  # atno 10718 bound_to 10713
  152.9995  135.6244  154.2333 H   0  0  0  0  0  0  0  0  0  0  0  0  # atno 10763 bound_to 10752
  154.2074  135.2801  155.2972 H   0  0  0  0  0  0  0  0  0  0  0  0  # atno 10764 bound_to 10752
  154.5634  135.5698  153.7087 H   0  0  0  0  0  0  0  0  0  0  0  0  # atno 10765 bound_to 10752
  140.7229  134.3707  157.5180 H   0  0  0  0  0  0  0  0  0  0  0  0  # atno 11005 bound_to 11000
  145.9796  139.2931  143.1050 LP  0  0  0  0  0  0  0  0  0  0  0  0  # atno 17320 bound_to 7965
  145.9025  140.9233  143.0495 LP  0  0  0  0  0  0  0  0  0  0  0  0  # atno 17321 bound_to 7965
  139.6570  144.7662  151.2037 LP  0  0  0  0  0  0  0  0  0  0  0  0  # atno 17342 bound_to 10162
  140.7559  143.6071  150.8642 LP  0  0  0  0  0  0  0  0  0  0  0  0  # atno 17343 bound_to 10162
  157.6945  131.0799  150.7009 LP  0  0  0  0  0  0  0  0  0  0  0  0  # atno 17370 bound_to 10713
  156.7066  130.4639  149.5558 LP  0  0  0  0  0  0  0  0  0  0  0  0  # atno 17371 bound_to 10713
  139.8844  134.8967  156.2706 LP  0  0  0  0  0  0  0  0  0  0  0  0  # atno 17394 bound_to 11000
  140.9988  133.7164  156.0928 LP  0  0  0  0  0  0  0  0  0  0  0  0  # atno 17395 bound_to 11000

$$$$
