AV-unprocessed.smi:2564|AV-procd|sdf|10062|dock5
  -GOLD-   2272014103D 1   1.00000     0.00000
 Structure written by MMmdl.
 29 30  0  0  0  0  0  0  0  0  2 V2000
  150.9096  138.5650  154.2882 C   0  0  0  0  0  0  0  0  0  0  0  0
  152.1640  137.9473  154.1324 C   0  0  0  0  0  0  0  0  0  0  0  0
  153.1613  138.0872  155.0345 N   0  0  0  0  0  0  0  0  0  0  0  0
  152.9758  138.8367  156.1269 N   0  0  0  0  0  0  0  0  0  0  0  0
  151.7906  139.4612  156.3422 C   0  0  0  0  0  0  0  0  0  0  0  0
  151.6302  140.2413  157.4951 N   0  0  0  0  0  0  0  0  0  0  0  0
  150.3218  140.7721  157.8514 C   0  0  0  0  0  0  0  0  0  0  0  0
  150.3405  142.3030  157.9573 C   0  0  2  0  0  0  0  0  0  0  0  0
  151.3160  142.9316  156.9424 C   0  0  0  0  0  0  0  0  0  0  0  0
  151.3741  144.3946  157.1296 N   0  3  0  0  0  0  0  0  0  0  0  0
  151.7163  144.7510  158.5201 C   0  0  0  0  0  0  0  0  0  0  0  0
  150.7442  144.0639  159.4936 C   0  0  0  0  0  0  0  0  0  0  0  0
  150.7655  142.6577  159.2717 O   0  0  0  0  0  0  0  0  0  0  0  0
  150.7163  139.3516  155.4370 C   0  0  0  0  0  0  0  0  0  0  0  0
  150.1275  138.4397  153.5543 H   0  0  0  0  0  0  0  0  0  0  0  0
  152.3728  137.3311  153.2706 H   0  0  0  0  0  0  0  0  0  0  0  0
  152.4430  140.5535  158.0064 H   0  0  0  0  0  0  0  0  0  0  0  0
  149.5815  140.4531  157.1163 H   0  0  0  0  0  0  0  0  0  0  0  0
  150.0275  140.3459  158.8114 H   0  0  0  0  0  0  0  0  0  0  0  0
  149.3342  142.6874  157.7790 H   0  0  0  0  0  0  0  0  0  0  0  0
  152.3168  142.5152  157.0662 H   0  0  0  0  0  0  0  0  0  0  0  0
  151.0016  142.7147  155.9212 H   0  0  0  0  0  0  0  0  0  0  0  0
  152.0614  144.7878  156.5023 H   0  0  0  0  0  0  0  0  0  0  0  0
  152.7408  144.4400  158.7285 H   0  0  0  0  0  0  0  0  0  0  0  0
  151.6777  145.8342  158.6372 H   0  0  0  0  0  0  0  0  0  0  0  0
  151.0379  144.2655  160.5239 H   0  0  0  0  0  0  0  0  0  0  0  0
  149.7303  144.4480  159.3702 H   0  0  0  0  0  0  0  0  0  0  0  0
  149.7759  139.8525  155.6145 H   0  0  0  0  0  0  0  0  0  0  0  0
  150.4678  144.7833  156.9104 H   0  0  0  0  0  0  0  0  0  0  0  0
  1 14  1  0  0  0  0
  1  2  2  0  0  0  0
  1 15  1  0  0  0  0
  2  3  1  0  0  0  0
  2 16  1  0  0  0  0
  3  4  2  0  0  0  0
  4  5  1  0  0  0  0
  5  6  1  0  0  0  0
  5 14  2  0  0  0  0
  6  7  1  0  0  0  0
  6 17  1  0  0  0  0
  7  8  1  0  0  0  0
  7 18  1  0  0  0  0
  7 19  1  0  0  0  0
  8 13  1  0  0  0  0
  8  9  1  0  0  0  0
  8 20  1  0  0  0  0
  9 10  1  0  0  0  0
  9 21  1  0  0  0  0
  9 22  1  0  0  0  0
 10 11  1  0  0  0  0
 10 23  1  0  0  0  0
 10 29  1  0  0  0  0
 11 12  1  0  0  0  0
 11 24  1  0  0  0  0
 11 25  1  0  0  0  0
 12 13  1  0  0  0  0
 12 26  1  0  0  0  0
 12 27  1  0  0  0  0
 14 28  1  0  0  0  0
M  CHG  1  10   1
M  END
> <s_m_source_file>
AV-unprocessed.smi

> <i_m_source_file_index>
2564

> <i_lp_mmshare_version>
43012

> <i_f3d_flags>
0

> <s_epik_input>
W2NIXTFbY0hdW2NIXW5uYzFbTkhdW0NIMl1bQ0BASF0yW0NIMl1bTkhdW0NIMl1bQ0gyXU8y

> <s_epik_cmdline>
J2VwaWtfcHl0aG9uJywgJy1waCcsICc3LjAnLCAnLXRuJywgJzgnLCAnLW1hJywgJzIwMCcsICctbWV0YWxfYmluZGluZycsICctaW1hZScsICc8aW5maWxlLm1hZT4nLCAnLW9tYWUnLCAnPG91dGZpbGUubWFlPic=

> <r_lp_tautomer_probability>
0.999978

> <r_epik_Ionization_Penalty>
0.0278973

> <r_epik_Ionization_Penalty_Charging>
0.00959556

> <r_epik_Ionization_Penalty_Neutral>
0.0183017

> <r_epik_State_Penalty>
0.0323017

> <r_epik_Charging_Adjusted_Penalty>
0.0418973

> <i_epik_Tot_Q>
1

> <i_epik_Tot_abs_Q>
1

> <r_epik_Metal_State_Penalty>
0.0301524

> <b_epik_Metal_Only>
0

> <s_lp_Force_Field>
OPLS_2005

> <r_lp_Energy>
19.9275

> <b_lp_Chiralities_Consistent>
1

> <s_lp_Variant>
AV-unprocessed.smi:2564-1

> <Gold.Version>
5.8.1

> <Gold.Id.Protein>
6NUR|6NUR_protein|mol2

> <Gold.PLP.Fitness>
37.6746

> <Gold.PLP.PLP>
-26.6328

> <Gold.PLP.part.hbond>
-3.5909

> <Gold.PLP.part.metal>
0.0000

> <Gold.PLP.part.buried>
-4.7691

> <Gold.PLP.part.nonpolar>
-17.6800

> <Gold.PLP.part.repulsive>
0.1654

> <Gold.PLP.ligand.clash>
0.0000

> <Gold.PLP.ligand.torsion>
0.3119

> <Gold.PLP.Chemscore.Hbond>
2.8880

> <Gold.PLP.Chemscore.CHOScore>
1.0000

> <Gold.PLP.Chemscore.Metal>
0.0000

> <Gold.Chemscore.Hbonds>
donor molecule, donor type, donor heavy atom, donor atom, acceptor molecule, acceptor atom, score
      L1  H    10    29       P1  8028  1.89
      P1  H  7997  8009       L1     4  1.00
      L1  C     2    16       P1  7949  1.00

> <Gold.PLP.Chemscore.Internal.Correction>
0.0015

> <Gold.Rescore>
     Score         DG    S(hbond)    S(metal)    S(lipo)     H(rot)  DE(clash)    DE(int)     intcor
     14.53     -15.25       1.68        0.00      64.43       1.33       0.37       0.35       ----

> <Gold.Chemscore.Fitness>
14.5299

> <Gold.Chemscore.DG>
-15.2492

> <Gold.Chemscore.ZeroCoef>
-5.4800

> <Gold.Chemscore.Hbond>
1.6835

> <Gold.Chemscore.Metal>
0.0000

> <Gold.Chemscore.Lipo>
64.4321

> <Gold.Chemscore.Internal_Hbond>
0.0000

> <Gold.Chemscore.DEClash>
0.3695

> <Gold.Chemscore.DEInternal>
0.3499

> <Gold.Chemscore.Rot>
1.3251

> <Gold.Chemscore.Internal.Correction>
   9.000000E+99

> <Gold.Chemscore.Hbonds>
donor molecule, donor type, donor heavy atom, donor atom, acceptor molecule, acceptor atom, score
      L1  H    10    29       P1  8028  0.58
      P1  H  7997  8009       L1     4  0.48

> <Gold.Chemscore.Hbond.Weighted>
-5.6230

> <Gold.Chemscore.Metal.Weighted>
-0.0000

> <Gold.Chemscore.Lipo.Weighted>
-7.5386

> <Gold.Chemscore.Internal_Hbond.Weighted>
0.0000

> <Gold.Chemscore.DEClash.Weighted>
0.3695

> <Gold.Chemscore.DEInternal.Weighted>
0.3499

> <Gold.Chemscore.Rot.Weighted>
3.3924

> <Gold.Chemscore.Internal.Correction.Weighted>
   9.000000E+99

> <Gold.Protein.RotatedTorsions>
[ 6907 6896 6895 6894 ] final  -90.53 input  -60.11 | X-H torsion
[ 7974 7965 7964 7962 ] final  -37.28 input  175.53 | X-H torsion
[ 8008 7997 7996 7995 ] final -159.06 input   59.86 | X-H torsion
[ 10167 10162 10161 10158 ] final  105.78 input  -65.29 | X-H torsion
[ 10718 10713 10712 10709 ] final   -8.88 input   66.30 | X-H torsion
[ 10763 10752 10751 10750 ] final  173.44 input  -60.55 | X-H torsion
[ 11005 11000 10999 10996 ] final   23.08 input  -57.11 | X-H torsion

> <Gold.Protein.ActiveResidues>
 VAL166  LYS551  ARG553  GLY616  TRP617  ASP618  TYR619  PRO620  LYS621  CYS622 
 ASP623  PHE694  ASN695  SER759  ASP760  ASP761  ALA762  ILE779  LEU786  VAL792 
 PHE793  MET794  SER795  GLU796  ALA797  LYS798  CYS799  TRP800  GLU811  SER814 

> <Gold.Protein.RotatedAtoms>
  150.6883  134.2417  159.4474 H   0  0  0  0  0  0  0  0  0  0  0  0  # atno 6907 bound_to 6896
  152.0361  134.9736  160.0582 H   0  0  0  0  0  0  0  0  0  0  0  0  # atno 6908 bound_to 6896
  152.1257  133.4344  159.4733 H   0  0  0  0  0  0  0  0  0  0  0  0  # atno 6909 bound_to 6896
  146.0588  140.6378  142.9007 H   0  0  0  0  0  0  0  0  0  0  0  0  # atno 7974 bound_to 7965
  155.7570  140.0834  157.2174 H   0  0  0  0  0  0  0  0  0  0  0  0  # atno 8008 bound_to 7997
  154.4007  140.1550  156.2845 H   0  0  0  0  0  0  0  0  0  0  0  0  # atno 8009 bound_to 7997
  155.8876  140.3417  155.5935 H   0  0  0  0  0  0  0  0  0  0  0  0  # atno 8010 bound_to 7997
  139.7064  144.7085  151.1099 H   0  0  0  0  0  0  0  0  0  0  0  0  # atno 10167 bound_to 10162
  156.6961  130.5079  149.5930 H   0  0  0  0  0  0  0  0  0  0  0  0  # atno 10718 bound_to 10713
  154.4400  135.2762  155.1854 H   0  0  0  0  0  0  0  0  0  0  0  0  # atno 10763 bound_to 10752
  154.3724  135.6106  153.5750 H   0  0  0  0  0  0  0  0  0  0  0  0  # atno 10764 bound_to 10752
  152.9840  135.5860  154.4726 H   0  0  0  0  0  0  0  0  0  0  0  0  # atno 10765 bound_to 10752
  140.3735  134.1997  155.7666 H   0  0  0  0  0  0  0  0  0  0  0  0  # atno 11005 bound_to 11000
  144.7163  140.4221  143.7042 LP  0  0  0  0  0  0  0  0  0  0  0  0  # atno 17320 bound_to 7965
  145.6596  139.1579  143.2816 LP  0  0  0  0  0  0  0  0  0  0  0  0  # atno 17321 bound_to 7965
  140.7722  143.5353  150.9376 LP  0  0  0  0  0  0  0  0  0  0  0  0  # atno 17342 bound_to 10162
  139.9036  143.6805  152.3127 LP  0  0  0  0  0  0  0  0  0  0  0  0  # atno 17343 bound_to 10162
  156.1762  130.6469  151.0897 LP  0  0  0  0  0  0  0  0  0  0  0  0  # atno 17370 bound_to 10713
  157.6990  131.0783  150.6878 LP  0  0  0  0  0  0  0  0  0  0  0  0  # atno 17371 bound_to 10713
  141.1947  133.8123  157.0747 LP  0  0  0  0  0  0  0  0  0  0  0  0  # atno 17394 bound_to 11000
  140.0533  134.9794  157.1176 LP  0  0  0  0  0  0  0  0  0  0  0  0  # atno 17395 bound_to 11000

$$$$
