AV-unprocessed.smi:2829|AV-procd|sdf|10900|dock3
  -GOLD-   2272015343D 1   1.00000     0.00000
 Structure written by MMmdl.
 50 53  0  0  0  0  0  0  0  0  1 V2000
  152.0195  144.3163  157.8168 C   0  0  0  0  0  0  0  0  0  0  0  0
  151.6072  144.4359  159.2987 C   0  0  0  0  0  0  0  0  0  0  0  0
  151.7490  145.8995  159.7662 C   0  0  0  0  0  0  0  0  0  0  0  0
  150.1112  144.0600  159.3960 C   0  0  0  0  0  0  0  0  0  0  0  0
  152.5004  143.5259  160.1610 C   0  0  0  0  0  0  0  0  0  0  0  0
  152.4104  143.4632  161.5699 C   0  0  0  0  0  0  0  0  0  0  0  0
  153.2798  142.5881  162.2425 C   0  0  0  0  0  0  0  0  0  0  0  0
  154.1877  141.8260  161.4806 C   0  0  0  0  0  0  0  0  0  0  0  0
  155.0253  140.9575  162.2260 N   0  0  0  0  0  0  0  0  0  0  0  0
  155.4262  139.7100  161.9116 C   0  0  0  0  0  0  0  0  0  0  0  0
  155.1932  139.1462  160.8441 O   0  0  0  0  0  0  0  0  0  0  0  0
  156.1304  139.1021  162.8826 N   0  0  0  0  0  0  0  0  0  0  0  0
  156.7036  137.7557  162.8539 C   0  0  2  0  0  0  0  0  0  0  0  0
  157.1958  137.3585  161.4491 C   0  0  1  0  0  0  0  0  0  0  0  0
  158.6587  137.0949  161.2129 C   0  0  0  0  0  0  0  0  0  0  0  0
  158.7509  135.5692  161.3065 C   0  0  0  0  0  0  0  0  0  0  0  0
  157.6098  135.1858  162.0702 O   0  0  0  0  0  0  0  0  0  0  0  0
  156.5222  136.0066  161.6554 C   0  0  1  0  0  0  0  0  0  0  0  0
  155.6735  136.6069  162.7827 C   0  0  0  0  0  0  0  0  0  0  0  0
  154.1661  136.8391  162.5629 C   0  0  0  0  0  0  0  0  0  0  0  0
  153.9255  136.4360  164.0200 C   0  0  0  0  0  0  0  0  0  0  0  0
  155.3104  135.7819  164.0257 C   0  0  0  0  0  0  0  0  0  0  0  0
  154.2213  141.9374  160.1292 N   0  0  0  0  0  0  0  0  0  0  0  0
  153.3969  142.7676  159.4836 N   0  0  0  0  0  0  0  0  0  0  0  0
  151.3907  144.9370  157.1777 H   0  0  0  0  0  0  0  0  0  0  0  0
  151.9329  143.2879  157.4641 H   0  0  0  0  0  0  0  0  0  0  0  0
  153.0507  144.6329  157.6561 H   0  0  0  0  0  0  0  0  0  0  0  0
  152.7720  146.2618  159.6592 H   0  0  0  0  0  0  0  0  0  0  0  0
  151.4703  146.0082  160.8152 H   0  0  0  0  0  0  0  0  0  0  0  0
  151.1107  146.5662  159.1856 H   0  0  0  0  0  0  0  0  0  0  0  0
  149.4978  144.7173  158.7783 H   0  0  0  0  0  0  0  0  0  0  0  0
  149.7395  144.1453  160.4178 H   0  0  0  0  0  0  0  0  0  0  0  0
  149.9280  143.0408  159.0535 H   0  0  0  0  0  0  0  0  0  0  0  0
  151.7078  144.0523  162.1384 H   0  0  0  0  0  0  0  0  0  0  0  0
  153.2449  142.5038  163.3192 H   0  0  0  0  0  0  0  0  0  0  0  0
  155.3124  141.3010  163.1306 H   0  0  0  0  0  0  0  0  0  0  0  0
  156.2900  139.6331  163.7268 H   0  0  0  0  0  0  0  0  0  0  0  0
  157.4705  137.5749  163.6101 H   0  0  0  0  0  0  0  0  0  0  0  0
  156.7031  137.9265  160.6574 H   0  0  0  0  0  0  0  0  0  0  0  0
  159.0000  137.4588  160.2434 H   0  0  0  0  0  0  0  0  0  0  0  0
  159.2696  137.5685  161.9820 H   0  0  0  0  0  0  0  0  0  0  0  0
  158.6806  135.1194  160.3150 H   0  0  0  0  0  0  0  0  0  0  0  0
  159.6773  135.2303  161.7706 H   0  0  0  0  0  0  0  0  0  0  0  0
  155.9839  135.6344  160.7825 H   0  0  0  0  0  0  0  0  0  0  0  0
  153.8667  137.8583  162.3195 H   0  0  0  0  0  0  0  0  0  0  0  0
  153.7316  136.1247  161.8623 H   0  0  0  0  0  0  0  0  0  0  0  0
  153.8560  137.2925  164.6908 H   0  0  0  0  0  0  0  0  0  0  0  0
  153.0967  135.7431  164.1669 H   0  0  0  0  0  0  0  0  0  0  0  0
  155.2704  134.7108  163.8221 H   0  0  0  0  0  0  0  0  0  0  0  0
  155.9095  136.0012  164.9099 H   0  0  0  0  0  0  0  0  0  0  0  0
  1  2  1  0  0  0  0
  1 25  1  0  0  0  0
  1 26  1  0  0  0  0
  1 27  1  0  0  0  0
  2  3  1  0  0  0  0
  2  4  1  0  0  0  0
  2  5  1  0  0  0  0
  3 28  1  0  0  0  0
  3 29  1  0  0  0  0
  3 30  1  0  0  0  0
  4 31  1  0  0  0  0
  4 32  1  0  0  0  0
  4 33  1  0  0  0  0
  5 24  1  0  0  0  0
  5  6  2  0  0  0  0
  6  7  1  0  0  0  0
  6 34  1  0  0  0  0
  7  8  2  0  0  0  0
  7 35  1  0  0  0  0
  8  9  1  0  0  0  0
  8 23  1  0  0  0  0
  9 10  1  0  0  0  0
  9 36  1  0  0  0  0
 10 11  2  0  0  0  0
 10 12  1  0  0  0  0
 12 13  1  0  0  0  0
 12 37  1  0  0  0  0
 13 19  1  0  0  0  0
 13 14  1  0  0  0  0
 13 38  1  0  0  0  0
 14 18  1  0  0  0  0
 14 15  1  0  0  0  0
 14 39  1  0  0  0  0
 15 16  1  0  0  0  0
 15 40  1  0  0  0  0
 15 41  1  0  0  0  0
 16 17  1  0  0  0  0
 16 42  1  0  0  0  0
 16 43  1  0  0  0  0
 17 18  1  0  0  0  0
 18 19  1  0  0  0  0
 18 44  1  0  0  0  0
 19 22  1  0  0  0  0
 19 20  1  0  0  0  0
 20 21  1  0  0  0  0
 20 45  1  0  0  0  0
 20 46  1  0  0  0  0
 21 22  1  0  0  0  0
 21 47  1  0  0  0  0
 21 48  1  0  0  0  0
 22 49  1  0  0  0  0
 22 50  1  0  0  0  0
 23 24  2  0  0  0  0
M  END
> <s_m_source_file>
AV-unprocessed.smi

> <i_m_source_file_index>
2829

> <i_lp_mmshare_version>
43012

> <i_f3d_flags>
0

> <s_epik_input>
W0NIM11DKFtDSDNdKShbQ0gzXSljMVtjSF1bY0hdYyhubjEpW05IXUMoPU8pW05IXVtDQEBIXTJbQ0BIXShbQ0gyXVtDSDJdTzMpW0NAQEhdM0MyNFtDSDJdW0NIMl1bQ0gyXTQ=

> <s_epik_cmdline>
J2VwaWtfcHl0aG9uJywgJy1waCcsICc3LjAnLCAnLXRuJywgJzgnLCAnLW1hJywgJzIwMCcsICctbWV0YWxfYmluZGluZycsICctaW1hZScsICc8aW5maWxlLm1hZT4nLCAnLW9tYWUnLCAnPG91dGZpbGUubWFlPic=

> <r_lp_tautomer_probability>
1

> <r_epik_Ionization_Penalty>
0.011915

> <r_epik_Ionization_Penalty_Charging>
0

> <r_epik_Ionization_Penalty_Neutral>
0.011915

> <r_epik_State_Penalty>
0.00486223

> <r_epik_Charging_Adjusted_Penalty>
0.00486223

> <i_epik_Tot_Q>
0

> <i_epik_Tot_abs_Q>
0

> <r_epik_Metal_State_Penalty>
-0

> <b_epik_Metal_Only>
0

> <s_lp_Force_Field>
OPLS_2005

> <r_lp_Energy>
59.5843

> <b_lp_Chiralities_Consistent>
1

> <s_lp_Variant>
AV-unprocessed.smi:2829-3

> <Gold.Version>
5.8.1

> <Gold.Id.Protein>
6NUR|6NUR_protein|mol2

> <Gold.PLP.Fitness>
44.6002

> <Gold.PLP.PLP>
-45.4398

> <Gold.PLP.part.hbond>
-1.0000

> <Gold.PLP.part.metal>
0.0000

> <Gold.PLP.part.buried>
-4.0659

> <Gold.PLP.part.nonpolar>
-38.9634

> <Gold.PLP.part.repulsive>
0.0000

> <Gold.PLP.ligand.clash>
0.0000

> <Gold.PLP.ligand.torsion>
0.5192

> <Gold.PLP.Chemscore.Hbond>
0.0000

> <Gold.PLP.Chemscore.CHOScore>
0.0000

> <Gold.PLP.Chemscore.Metal>
0.0000

> <Gold.PLP.Chemscore.Internal.Correction>
0.1986

> <Gold.Rescore>
     Score         DG    S(hbond)    S(metal)    S(lipo)     H(rot)  DE(clash)    DE(int)     intcor
     13.27     -16.47       0.00        0.00     119.35       1.16       0.04       3.16       ----

> <Gold.Chemscore.Fitness>
13.2713

> <Gold.Chemscore.DG>
-16.4701

> <Gold.Chemscore.ZeroCoef>
-5.4800

> <Gold.Chemscore.Hbond>
0.0000

> <Gold.Chemscore.Metal>
0.0000

> <Gold.Chemscore.Lipo>
119.3523

> <Gold.Chemscore.Internal_Hbond>
0.0000

> <Gold.Chemscore.DEClash>
0.0358

> <Gold.Chemscore.DEInternal>
3.1630

> <Gold.Chemscore.Rot>
1.1618

> <Gold.Chemscore.Internal.Correction>
   9.000000E+99

> <Gold.Chemscore.Hbond.Weighted>
-0.0000

> <Gold.Chemscore.Metal.Weighted>
-0.0000

> <Gold.Chemscore.Lipo.Weighted>
-13.9642

> <Gold.Chemscore.Internal_Hbond.Weighted>
0.0000

> <Gold.Chemscore.DEClash.Weighted>
0.0358

> <Gold.Chemscore.DEInternal.Weighted>
3.1630

> <Gold.Chemscore.Rot.Weighted>
2.9741

> <Gold.Chemscore.Internal.Correction.Weighted>
   9.000000E+99

> <Gold.Protein.RotatedTorsions>
[ 6907 6896 6895 6894 ] final  110.97 input  -60.11 | X-H torsion
[ 7974 7965 7964 7962 ] final  -93.51 input  175.53 | X-H torsion
[ 8008 7997 7996 7995 ] final  -94.63 input   59.86 | X-H torsion
[ 10167 10162 10161 10158 ] final   11.70 input  -65.29 | X-H torsion
[ 10718 10713 10712 10709 ] final   76.56 input   66.30 | X-H torsion
[ 10763 10752 10751 10750 ] final   98.72 input  -60.55 | X-H torsion
[ 11005 11000 10999 10996 ] final   50.13 input  -57.11 | X-H torsion

> <Gold.Protein.ActiveResidues>
 VAL166  LYS551  ARG553  GLY616  TRP617  ASP618  TYR619  PRO620  LYS621  CYS622 
 ASP623  PHE694  ASN695  SER759  ASP760  ASP761  ALA762  ILE779  LEU786  VAL792 
 PHE793  MET794  SER795  GLU796  ALA797  LYS798  CYS799  TRP800  GLU811  SER814 

> <Gold.Protein.RotatedAtoms>
  152.4993  133.8725  159.7305 H   0  0  0  0  0  0  0  0  0  0  0  0  # atno 6907 bound_to 6896
  150.9208  133.6874  159.2839 H   0  0  0  0  0  0  0  0  0  0  0  0  # atno 6908 bound_to 6896
  151.4252  135.1007  159.9678 H   0  0  0  0  0  0  0  0  0  0  0  0  # atno 6909 bound_to 6896
  145.3855  140.9522  143.2369 H   0  0  0  0  0  0  0  0  0  0  0  0  # atno 7974 bound_to 7965
  154.7509  140.0487  157.0892 H   0  0  0  0  0  0  0  0  0  0  0  0  # atno 8008 bound_to 7997
  155.0058  140.3130  155.4830 H   0  0  0  0  0  0  0  0  0  0  0  0  # atno 8009 bound_to 7997
  156.2885  140.2193  156.5170 H   0  0  0  0  0  0  0  0  0  0  0  0  # atno 8010 bound_to 7997
  140.6115  143.8398  150.7070 H   0  0  0  0  0  0  0  0  0  0  0  0  # atno 10167 bound_to 10162
  157.6678  130.9780  150.1515 H   0  0  0  0  0  0  0  0  0  0  0  0  # atno 10718 bound_to 10713
  153.2926  135.4138  155.1180 H   0  0  0  0  0  0  0  0  0  0  0  0  # atno 10763 bound_to 10752
  154.8525  135.3522  154.5961 H   0  0  0  0  0  0  0  0  0  0  0  0  # atno 10764 bound_to 10752
  153.6383  135.7058  153.5308 H   0  0  0  0  0  0  0  0  0  0  0  0  # atno 10765 bound_to 10752
  140.1044  134.5038  155.8733 H   0  0  0  0  0  0  0  0  0  0  0  0  # atno 11005 bound_to 11000
  144.8477  139.5371  143.6871 LP  0  0  0  0  0  0  0  0  0  0  0  0  # atno 17320 bound_to 7965
  146.2822  139.6907  142.9221 LP  0  0  0  0  0  0  0  0  0  0  0  0  # atno 17321 bound_to 7965
  140.1967  143.3992  152.1822 LP  0  0  0  0  0  0  0  0  0  0  0  0  # atno 17342 bound_to 10162
  139.5365  144.7214  151.4877 LP  0  0  0  0  0  0  0  0  0  0  0  0  # atno 17343 bound_to 10162
  156.2313  130.3682  149.8442 LP  0  0  0  0  0  0  0  0  0  0  0  0  # atno 17370 bound_to 10713
  156.6267  130.8649  151.3487 LP  0  0  0  0  0  0  0  0  0  0  0  0  # atno 17371 bound_to 10713
  141.2114  133.6706  156.6581 LP  0  0  0  0  0  0  0  0  0  0  0  0  # atno 17394 bound_to 11000
  140.3176  134.8034  157.4227 LP  0  0  0  0  0  0  0  0  0  0  0  0  # atno 17395 bound_to 11000

$$$$
