AV-unprocessed.smi:2580|AV-procd|sdf|10127|dock2
  -GOLD-   2272014143D 1   1.00000     0.00000
 Structure written by MMmdl.
 29 30  0  0  0  0  0  0  0  0  1 V2000
  149.3590  138.8345  154.7145 C   0  0  0  0  0  0  0  0  0  0  0  0
  150.8320  139.2741  154.7176 C   0  0  2  0  0  0  0  0  0  0  0  0
  151.7905  138.1836  154.2840 C   0  0  0  0  0  0  0  0  0  0  0  0
  153.1213  138.6994  154.8198 C   0  0  0  0  0  0  0  0  0  0  0  0
  152.8065  139.4261  156.0036 O   0  0  0  0  0  0  0  0  0  0  0  0
  151.3960  139.6342  156.1021 C   0  0  1  0  0  0  0  0  0  0  0  0
  151.1085  141.0682  156.5740 C   0  0  0  0  0  0  0  0  0  0  0  0
  150.3827  141.8029  155.9036 O   0  0  0  0  0  0  0  0  0  0  0  0
  151.6817  141.4249  157.7390 N   0  0  0  0  0  0  0  0  0  0  0  0
  151.6043  142.6674  158.4258 C   0  0  0  0  0  0  0  0  0  0  0  0
  150.7956  143.6825  158.0287 N   0  0  0  0  0  0  0  0  0  0  0  0
  150.7788  144.8320  158.7350 C   0  0  0  0  0  0  0  0  0  0  0  0
  151.5664  145.0418  159.8808 C   0  0  0  0  0  0  0  0  0  0  0  0
  152.4083  143.9988  160.3049 C   0  0  0  0  0  0  0  0  0  0  0  0
  152.4304  142.7959  159.5715 C   0  0  0  0  0  0  0  0  0  0  0  0
  153.4660  141.5108  160.0915 Cl  0  0  0  0  0  0  0  0  0  0  0  0
  149.1956  137.9851  155.3783 H   0  0  0  0  0  0  0  0  0  0  0  0
  149.0447  138.5392  153.7132 H   0  0  0  0  0  0  0  0  0  0  0  0
  148.7018  139.6406  155.0400 H   0  0  0  0  0  0  0  0  0  0  0  0
  150.9504  140.1239  154.0424 H   0  0  0  0  0  0  0  0  0  0  0  0
  151.5369  137.2384  154.7664 H   0  0  0  0  0  0  0  0  0  0  0  0
  151.8002  138.0246  153.2053 H   0  0  0  0  0  0  0  0  0  0  0  0
  153.8300  137.8956  155.0213 H   0  0  0  0  0  0  0  0  0  0  0  0
  153.5788  139.3842  154.1050 H   0  0  0  0  0  0  0  0  0  0  0  0
  151.0145  138.9369  156.8495 H   0  0  0  0  0  0  0  0  0  0  0  0
  152.2552  140.7212  158.1818 H   0  0  0  0  0  0  0  0  0  0  0  0
  150.1175  145.6065  158.3753 H   0  0  0  0  0  0  0  0  0  0  0  0
  151.5251  145.9771  160.4192 H   0  0  0  0  0  0  0  0  0  0  0  0
  153.0284  144.1200  161.1808 H   0  0  0  0  0  0  0  0  0  0  0  0
  1  2  1  0  0  0  0
  1 17  1  0  0  0  0
  1 18  1  0  0  0  0
  1 19  1  0  0  0  0
  2  6  1  0  0  0  0
  2  3  1  0  0  0  0
  2 20  1  0  0  0  0
  3  4  1  0  0  0  0
  3 21  1  0  0  0  0
  3 22  1  0  0  0  0
  4  5  1  0  0  0  0
  4 23  1  0  0  0  0
  4 24  1  0  0  0  0
  5  6  1  0  0  0  0
  6  7  1  0  0  0  0
  6 25  1  0  0  0  0
  7  8  2  0  0  0  0
  7  9  1  0  0  0  0
  9 10  1  0  0  0  0
  9 26  1  0  0  0  0
 10 15  1  0  0  0  0
 10 11  2  0  0  0  0
 11 12  1  0  0  0  0
 12 13  2  0  0  0  0
 12 27  1  0  0  0  0
 13 14  1  0  0  0  0
 13 28  1  0  0  0  0
 14 15  2  0  0  0  0
 14 29  1  0  0  0  0
 15 16  1  0  0  0  0
M  END
> <s_m_source_file>
AV-unprocessed.smi

> <i_m_source_file_index>
2580

> <i_lp_mmshare_version>
43012

> <i_f3d_flags>
0

> <s_epik_input>
W0NIM11bQ0BASF0xW0NIMl1bQ0gyXU9bQ0BIXTFDKD1PKVtOSF1jMm5bY0hdW2NIXVtjSF1jMkNs

> <s_epik_cmdline>
J2VwaWtfcHl0aG9uJywgJy1waCcsICc3LjAnLCAnLXRuJywgJzgnLCAnLW1hJywgJzIwMCcsICctbWV0YWxfYmluZGluZycsICctaW1hZScsICc8aW5maWxlLm1hZT4nLCAnLW9tYWUnLCAnPG91dGZpbGUubWFlPic=

> <r_lp_tautomer_probability>
1

> <r_epik_Ionization_Penalty>
4.32497e-05

> <r_epik_Ionization_Penalty_Charging>
0

> <r_epik_Ionization_Penalty_Neutral>
4.32497e-05

> <r_epik_State_Penalty>
-0

> <r_epik_Charging_Adjusted_Penalty>
0

> <i_epik_Tot_Q>
0

> <i_epik_Tot_abs_Q>
0

> <r_epik_Metal_State_Penalty>
-0

> <b_epik_Metal_Only>
0

> <s_lp_Force_Field>
OPLS_2005

> <r_lp_Energy>
21.1187

> <b_lp_Chiralities_Consistent>
1

> <s_lp_Variant>
AV-unprocessed.smi:2580-1

> <Gold.Version>
5.8.1

> <Gold.Id.Protein>
6NUR|6NUR_protein|mol2

> <Gold.PLP.Fitness>
44.9438

> <Gold.PLP.PLP>
-39.0471

> <Gold.PLP.part.hbond>
-1.0000

> <Gold.PLP.part.metal>
0.0000

> <Gold.PLP.part.buried>
-4.9987

> <Gold.PLP.part.nonpolar>
-33.0847

> <Gold.PLP.part.repulsive>
0.3259

> <Gold.PLP.ligand.clash>
0.0000

> <Gold.PLP.ligand.torsion>
0.0516

> <Gold.PLP.Chemscore.Hbond>
1.0000

> <Gold.PLP.Chemscore.CHOScore>
0.9991

> <Gold.PLP.Chemscore.Metal>
0.0000

> <Gold.Chemscore.Hbonds>
donor molecule, donor type, donor heavy atom, donor atom, acceptor molecule, acceptor atom, score
      P1  H  7997  8009       L1     5  1.00
      L1  C    12    27       P1  8029  1.00

> <Gold.PLP.Chemscore.Internal.Correction>
0.0025

> <Gold.Rescore>
     Score         DG    S(hbond)    S(metal)    S(lipo)     H(rot)  DE(clash)    DE(int)     intcor
     15.59     -16.92       0.86        0.00      95.06       1.00       0.00       1.33       ----

> <Gold.Chemscore.Fitness>
15.5857

> <Gold.Chemscore.DG>
-16.9191

> <Gold.Chemscore.ZeroCoef>
-5.4800

> <Gold.Chemscore.Hbond>
0.8613

> <Gold.Chemscore.Metal>
0.0000

> <Gold.Chemscore.Lipo>
95.0636

> <Gold.Chemscore.Internal_Hbond>
0.0000

> <Gold.Chemscore.DEClash>
0.0000

> <Gold.Chemscore.DEInternal>
1.3334

> <Gold.Chemscore.Rot>
1.0000

> <Gold.Chemscore.Internal.Correction>
   9.000000E+99

> <Gold.Chemscore.Hbonds>
donor molecule, donor type, donor heavy atom, donor atom, acceptor molecule, acceptor atom, score
      P1  H  7997  8009       L1     5  0.30

> <Gold.Chemscore.Hbond.Weighted>
-2.8767

> <Gold.Chemscore.Metal.Weighted>
-0.0000

> <Gold.Chemscore.Lipo.Weighted>
-11.1224

> <Gold.Chemscore.Internal_Hbond.Weighted>
0.0000

> <Gold.Chemscore.DEClash.Weighted>
0.0000

> <Gold.Chemscore.DEInternal.Weighted>
1.3334

> <Gold.Chemscore.Rot.Weighted>
2.5600

> <Gold.Chemscore.Internal.Correction.Weighted>
   9.000000E+99

> <Gold.Protein.RotatedTorsions>
[ 6907 6896 6895 6894 ] final   10.09 input  -60.11 | X-H torsion
[ 7974 7965 7964 7962 ] final   28.03 input  175.53 | X-H torsion
[ 8008 7997 7996 7995 ] final -166.22 input   59.86 | X-H torsion
[ 10167 10162 10161 10158 ] final  130.07 input  -65.29 | X-H torsion
[ 10718 10713 10712 10709 ] final  -34.86 input   66.30 | X-H torsion
[ 10763 10752 10751 10750 ] final  -51.16 input  -60.55 | X-H torsion
[ 11005 11000 10999 10996 ] final  158.91 input  -57.11 | X-H torsion

> <Gold.Protein.ActiveResidues>
 VAL166  LYS551  ARG553  GLY616  TRP617  ASP618  TYR619  PRO620  LYS621  CYS622 
 ASP623  PHE694  ASN695  SER759  ASP760  ASP761  ALA762  ILE779  LEU786  VAL792 
 PHE793  MET794  SER795  GLU796  ALA797  LYS798  CYS799  TRP800  GLU811  SER814 

> <Gold.Protein.RotatedAtoms>
  151.7327  135.0871  160.0302 H   0  0  0  0  0  0  0  0  0  0  0  0  # atno 6907 bound_to 6896
  152.3530  133.6199  159.5967 H   0  0  0  0  0  0  0  0  0  0  0  0  # atno 6908 bound_to 6896
  150.7552  133.9460  159.3512 H   0  0  0  0  0  0  0  0  0  0  0  0  # atno 6909 bound_to 6896
  146.1751  139.7111  142.8940 H   0  0  0  0  0  0  0  0  0  0  0  0  # atno 7974 bound_to 7965
  155.8607  140.0977  157.1615 H   0  0  0  0  0  0  0  0  0  0  0  0  # atno 8008 bound_to 7997
  154.3990  140.1365  156.4020 H   0  0  0  0  0  0  0  0  0  0  0  0  # atno 8009 bound_to 7997
  155.7859  140.3457  155.5325 H   0  0  0  0  0  0  0  0  0  0  0  0  # atno 8010 bound_to 7997
  139.5447  144.6763  151.4510 H   0  0  0  0  0  0  0  0  0  0  0  0  # atno 10167 bound_to 10162
  156.3456  130.4300  149.7749 H   0  0  0  0  0  0  0  0  0  0  0  0  # atno 10718 bound_to 10713
  154.1221  135.6533  153.4905 H   0  0  0  0  0  0  0  0  0  0  0  0  # atno 10763 bound_to 10752
  153.0222  135.5273  154.7086 H   0  0  0  0  0  0  0  0  0  0  0  0  # atno 10764 bound_to 10752
  154.6297  135.2974  155.0201 H   0  0  0  0  0  0  0  0  0  0  0  0  # atno 10765 bound_to 10752
  140.1911  134.8406  157.2913 H   0  0  0  0  0  0  0  0  0  0  0  0  # atno 11005 bound_to 11000
  145.4233  141.0408  143.2952 LP  0  0  0  0  0  0  0  0  0  0  0  0  # atno 17320 bound_to 7965
  144.8224  139.5768  143.6981 LP  0  0  0  0  0  0  0  0  0  0  0  0  # atno 17321 bound_to 7965
  140.6691  143.8333  150.6978 LP  0  0  0  0  0  0  0  0  0  0  0  0  # atno 17342 bound_to 10162
  140.1751  143.4161  152.1973 LP  0  0  0  0  0  0  0  0  0  0  0  0  # atno 17343 bound_to 10162
  156.4969  130.8111  151.3117 LP  0  0  0  0  0  0  0  0  0  0  0  0  # atno 17370 bound_to 10713
  157.7453  130.9957  150.2754 LP  0  0  0  0  0  0  0  0  0  0  0  0  # atno 17371 bound_to 10713
  140.2159  134.4082  155.7589 LP  0  0  0  0  0  0  0  0  0  0  0  0  # atno 17394 bound_to 11000
  141.2226  133.7141  156.8412 LP  0  0  0  0  0  0  0  0  0  0  0  0  # atno 17395 bound_to 11000

$$$$
