AV-unprocessed.smi:139|AV-procd|sdf|1182|dock10
  -GOLD-   2262018333D 1   1.00000     0.00000
 Structure written by MMmdl.
 50 53  0  0  0  0  0  0  0  0  1 V2000
  150.5345  136.9397  156.7037 O   0  0  0  0  0  0  0  0  0  0  0  0
  150.3515  136.9800  155.4864 C   0  0  0  0  0  0  0  0  0  0  0  0
  151.0095  138.0737  154.6335 C   0  0  0  0  0  0  0  0  0  0  0  0
  150.6042  139.4326  155.0534 N   0  0  0  0  0  0  0  0  0  0  0  0
  149.3976  139.9800  154.5503 C   0  0  0  0  0  0  0  0  0  0  0  0
  148.6898  139.3524  153.7615 O   0  0  0  0  0  0  0  0  0  0  0  0
  149.0631  141.3156  155.0325 C   0  0  0  0  0  0  0  0  0  0  0  0
  147.9480  141.9224  154.5920 F   0  0  0  0  0  0  0  0  0  0  0  0
  149.8582  141.9547  155.9151 C   0  0  0  0  0  0  0  0  0  0  0  0
  151.0203  141.3978  156.4154 N   0  0  0  0  0  0  0  0  0  0  0  0
  151.8772  142.1462  157.4099 C   0  0  1  0  0  0  0  0  0  0  0  0
  152.0417  143.6078  156.9766 C   0  0  0  0  0  0  0  0  0  0  0  0
  151.0155  144.3124  157.8382 C   0  0  0  0  0  0  0  0  0  0  0  0
  151.0523  143.4716  159.1084 C   0  0  0  0  0  0  0  0  0  0  0  0
  151.2379  142.1356  158.6539 O   0  0  0  0  0  0  0  0  0  0  0  0
  151.4274  140.1193  155.9783 C   0  0  0  0  0  0  0  0  0  0  0  0
  152.4739  139.6142  156.3912 O   0  0  0  0  0  0  0  0  0  0  0  0
  149.5860  136.0982  154.8265 N   0  0  0  0  0  0  0  0  0  0  0  0
  148.9062  134.9498  155.4201 C   0  0  2  0  0  0  0  0  0  0  0  0
  149.9010  134.1043  156.2406 C   0  0  0  0  0  0  0  0  0  0  0  0
  150.7145  133.1566  155.3543 C   0  0  0  0  0  0  0  0  0  0  0  0
  149.7995  132.1839  154.6011 C   0  0  0  0  0  0  0  0  0  0  0  0
  148.6015  132.8594  153.9506 C   0  0  0  0  0  0  0  0  0  0  0  0
  147.8966  132.1672  152.9434 C   0  0  0  0  0  0  0  0  0  0  0  0
  146.7765  132.7537  152.3249 C   0  0  0  0  0  0  0  0  0  0  0  0
  146.3538  134.0387  152.7108 C   0  0  0  0  0  0  0  0  0  0  0  0
  147.0505  134.7346  153.7161 C   0  0  0  0  0  0  0  0  0  0  0  0
  148.1726  134.1532  154.3458 C   0  0  0  0  0  0  0  0  0  0  0  0
  152.0959  137.9754  154.6799 H   0  0  0  0  0  0  0  0  0  0  0  0
  150.7688  137.8772  153.5880 H   0  0  0  0  0  0  0  0  0  0  0  0
  149.5651  142.9432  156.2361 H   0  0  0  0  0  0  0  0  0  0  0  0
  152.8199  141.6023  157.4866 H   0  0  0  0  0  0  0  0  0  0  0  0
  153.0491  143.9352  157.2361 H   0  0  0  0  0  0  0  0  0  0  0  0
  151.8911  143.7436  155.9048 H   0  0  0  0  0  0  0  0  0  0  0  0
  151.2511  145.3622  158.0142 H   0  0  0  0  0  0  0  0  0  0  0  0
  150.0298  144.2558  157.3752 H   0  0  0  0  0  0  0  0  0  0  0  0
  151.9043  143.7554  159.7281 H   0  0  0  0  0  0  0  0  0  0  0  0
  150.1461  143.5691  159.7066 H   0  0  0  0  0  0  0  0  0  0  0  0
  149.4851  136.2153  153.8287 H   0  0  0  0  0  0  0  0  0  0  0  0
  148.1412  135.3208  156.1053 H   0  0  0  0  0  0  0  0  0  0  0  0
  150.5589  134.7403  156.8345 H   0  0  0  0  0  0  0  0  0  0  0  0
  149.3426  133.5014  156.9577 H   0  0  0  0  0  0  0  0  0  0  0  0
  151.2898  133.7454  154.6389 H   0  0  0  0  0  0  0  0  0  0  0  0
  151.4395  132.6015  155.9502 H   0  0  0  0  0  0  0  0  0  0  0  0
  150.3745  131.6488  153.8442 H   0  0  0  0  0  0  0  0  0  0  0  0
  149.4198  131.4320  155.2938 H   0  0  0  0  0  0  0  0  0  0  0  0
  148.2139  131.1793  152.6428 H   0  0  0  0  0  0  0  0  0  0  0  0
  146.2420  132.2171  151.5549 H   0  0  0  0  0  0  0  0  0  0  0  0
  145.4955  134.4908  152.2364 H   0  0  0  0  0  0  0  0  0  0  0  0
  146.7213  135.7220  154.0058 H   0  0  0  0  0  0  0  0  0  0  0  0
  1  2  2  0  0  0  0
  2  3  1  0  0  0  0
  2 18  1  0  0  0  0
  3  4  1  0  0  0  0
  3 29  1  0  0  0  0
  3 30  1  0  0  0  0
  4 16  1  0  0  0  0
  4  5  1  0  0  0  0
  5  6  2  0  0  0  0
  5  7  1  0  0  0  0
  7  8  1  0  0  0  0
  7  9  2  0  0  0  0
  9 10  1  0  0  0  0
  9 31  1  0  0  0  0
 10 11  1  0  0  0  0
 10 16  1  0  0  0  0
 11 15  1  0  0  0  0
 11 12  1  0  0  0  0
 11 32  1  0  0  0  0
 12 13  1  0  0  0  0
 12 33  1  0  0  0  0
 12 34  1  0  0  0  0
 13 14  1  0  0  0  0
 13 35  1  0  0  0  0
 13 36  1  0  0  0  0
 14 15  1  0  0  0  0
 14 37  1  0  0  0  0
 14 38  1  0  0  0  0
 16 17  2  0  0  0  0
 18 19  1  0  0  0  0
 18 39  1  0  0  0  0
 19 28  1  0  0  0  0
 19 20  1  0  0  0  0
 19 40  1  0  0  0  0
 20 21  1  0  0  0  0
 20 41  1  0  0  0  0
 20 42  1  0  0  0  0
 21 22  1  0  0  0  0
 21 43  1  0  0  0  0
 21 44  1  0  0  0  0
 22 23  1  0  0  0  0
 22 45  1  0  0  0  0
 22 46  1  0  0  0  0
 23 28  2  0  0  0  0
 23 24  1  0  0  0  0
 24 25  2  0  0  0  0
 24 47  1  0  0  0  0
 25 26  1  0  0  0  0
 25 48  1  0  0  0  0
 26 27  2  0  0  0  0
 26 49  1  0  0  0  0
 27 28  1  0  0  0  0
 27 50  1  0  0  0  0
M  END
> <s_m_source_file>
AV-unprocessed.smi

> <i_m_source_file_index>
139

> <i_lp_mmshare_version>
43012

> <i_f3d_flags>
0

> <s_epik_input>
W2NIXTFbY0hdW2NIXVtjSF1jKGMxMilbQ0BASF0oW0NIMl1bQ0gyXVtDSDJdMilbTkhdQyg9TylbQ0gyXW4zYyg9TyljKEYpW2NIXW4oYzM9TylbQ0BASF00W0NIMl1bQ0gyXVtDSDJdTzQ=

> <s_epik_cmdline>
J2VwaWtfcHl0aG9uJywgJy1waCcsICc3LjAnLCAnLXRuJywgJzgnLCAnLW1hJywgJzIwMCcsICctbWV0YWxfYmluZGluZycsICctaW1hZScsICc8aW5maWxlLm1hZT4nLCAnLW9tYWUnLCAnPG91dGZpbGUubWFlPic=

> <r_lp_tautomer_probability>
1

> <r_epik_Ionization_Penalty>
3.261e-08

> <r_epik_Ionization_Penalty_Charging>
3.6725e-09

> <r_epik_Ionization_Penalty_Neutral>
2.89375e-08

> <r_epik_State_Penalty>
-0

> <r_epik_Charging_Adjusted_Penalty>
3.6725e-09

> <i_epik_Tot_Q>
0

> <i_epik_Tot_abs_Q>
0

> <r_epik_Metal_State_Penalty>
-0

> <b_epik_Metal_Only>
0

> <s_epik_Chemistry_Notes>
This compound contains an acetal/aminal-like group ( X-CH(R)-Y where X, Y are N, S, or O) that may be acid/base labile, releasing an aldehyde.

> <s_lp_Force_Field>
OPLS_2005

> <r_lp_Energy>
30.9445

> <b_lp_Chiralities_Consistent>
1

> <s_lp_Variant>
AV-unprocessed.smi:139-2

> <Gold.Version>
5.8.1

> <Gold.Id.Protein>
6NUR|6NUR_protein|mol2

> <Gold.PLP.Fitness>
48.7426

> <Gold.PLP.PLP>
-41.2087

> <Gold.PLP.part.hbond>
-2.0000

> <Gold.PLP.part.metal>
0.0000

> <Gold.PLP.part.buried>
-1.2375

> <Gold.PLP.part.nonpolar>
-38.3656

> <Gold.PLP.part.repulsive>
1.7469

> <Gold.PLP.ligand.clash>
0.0000

> <Gold.PLP.ligand.torsion>
0.7307

> <Gold.PLP.Chemscore.Hbond>
2.0000

> <Gold.PLP.Chemscore.CHOScore>
0.9861

> <Gold.PLP.Chemscore.Metal>
0.0000

> <Gold.Chemscore.Hbonds>
donor molecule, donor type, donor heavy atom, donor atom, acceptor molecule, acceptor atom, score
      L1  H    18    39       P1  7948  1.00
      P1  H  7997  8008       L1    17  1.00
      L1  C     9    31       P1  8028  0.89

> <Gold.PLP.Chemscore.Internal.Correction>
0.0371

> <Gold.Rescore>
     Score         DG    S(hbond)    S(metal)    S(lipo)     H(rot)  DE(clash)    DE(int)     intcor
     14.65     -18.41       1.79        0.00      99.17       1.82       1.99       1.76       ----

> <Gold.Chemscore.Fitness>
14.6536

> <Gold.Chemscore.DG>
-18.4052

> <Gold.Chemscore.ZeroCoef>
-5.4800

> <Gold.Chemscore.Hbond>
1.7888

> <Gold.Chemscore.Metal>
0.0000

> <Gold.Chemscore.Lipo>
99.1698

> <Gold.Chemscore.Internal_Hbond>
0.0000

> <Gold.Chemscore.DEClash>
1.9899

> <Gold.Chemscore.DEInternal>
1.7616

> <Gold.Chemscore.Rot>
1.8174

> <Gold.Chemscore.Internal.Correction>
   9.000000E+99

> <Gold.Chemscore.Hbonds>
donor molecule, donor type, donor heavy atom, donor atom, acceptor molecule, acceptor atom, score
      L1  H    18    39       P1  7948  0.67
      P1  H  7997  8008       L1    17  1.00

> <Gold.Chemscore.Hbond.Weighted>
-5.9747

> <Gold.Chemscore.Metal.Weighted>
-0.0000

> <Gold.Chemscore.Lipo.Weighted>
-11.6029

> <Gold.Chemscore.Internal_Hbond.Weighted>
0.0000

> <Gold.Chemscore.DEClash.Weighted>
1.9899

> <Gold.Chemscore.DEInternal.Weighted>
1.7616

> <Gold.Chemscore.Rot.Weighted>
4.6524

> <Gold.Chemscore.Internal.Correction.Weighted>
   9.000000E+99

> <Gold.Protein.RotatedTorsions>
[ 6907 6896 6895 6894 ] final -165.92 input  -60.11 | X-H torsion
[ 7974 7965 7964 7962 ] final -102.76 input  175.53 | X-H torsion
[ 8008 7997 7996 7995 ] final  -44.99 input   59.86 | X-H torsion
[ 10167 10162 10161 10158 ] final   50.96 input  -65.29 | X-H torsion
[ 10718 10713 10712 10709 ] final -156.42 input   66.30 | X-H torsion
[ 10763 10752 10751 10750 ] final  -40.08 input  -60.55 | X-H torsion
[ 11005 11000 10999 10996 ] final    2.80 input  -57.11 | X-H torsion

> <Gold.Protein.ActiveResidues>
 VAL166  LYS551  ARG553  GLY616  TRP617  ASP618  TYR619  PRO620  LYS621  CYS622 
 ASP623  PHE694  ASN695  SER759  ASP760  ASP761  ALA762  ILE779  LEU786  VAL792 
 PHE793  MET794  SER795  GLU796  ALA797  LYS798  CYS799  TRP800  GLU811  SER814 

> <Gold.Protein.RotatedAtoms>
  151.4354  133.3658  159.2774 H   0  0  0  0  0  0  0  0  0  0  0  0  # atno 6907 bound_to 6896
  150.9195  134.8614  159.7490 H   0  0  0  0  0  0  0  0  0  0  0  0  # atno 6908 bound_to 6896
  152.4974  134.4291  159.9558 H   0  0  0  0  0  0  0  0  0  0  0  0  # atno 6909 bound_to 6896
  145.2646  140.9280  143.3021 H   0  0  0  0  0  0  0  0  0  0  0  0  # atno 7974 bound_to 7965
  154.3999  140.1408  156.3774 H   0  0  0  0  0  0  0  0  0  0  0  0  # atno 8008 bound_to 7997
  155.8036  140.3475  155.5396 H   0  0  0  0  0  0  0  0  0  0  0  0  # atno 8009 bound_to 7997
  155.8458  140.0934  157.1696 H   0  0  0  0  0  0  0  0  0  0  0  0  # atno 8010 bound_to 7997
  140.2670  144.3309  150.6301 H   0  0  0  0  0  0  0  0  0  0  0  0  # atno 10167 bound_to 10162
  156.5264  130.8501  151.2700 H   0  0  0  0  0  0  0  0  0  0  0  0  # atno 10718 bound_to 10713
  153.9401  135.6762  153.4744 H   0  0  0  0  0  0  0  0  0  0  0  0  # atno 10763 bound_to 10752
  153.0936  135.4862  154.8733 H   0  0  0  0  0  0  0  0  0  0  0  0  # atno 10764 bound_to 10752
  154.7382  135.3154  154.8733 H   0  0  0  0  0  0  0  0  0  0  0  0  # atno 10765 bound_to 10752
  140.6003  133.9842  155.8129 H   0  0  0  0  0  0  0  0  0  0  0  0  # atno 11005 bound_to 11000
  144.9388  139.4213  143.6459 LP  0  0  0  0  0  0  0  0  0  0  0  0  # atno 17320 bound_to 7965
  146.3265  139.8337  142.8903 LP  0  0  0  0  0  0  0  0  0  0  0  0  # atno 17321 bound_to 7965
  140.5920  143.2168  151.7234 LP  0  0  0  0  0  0  0  0  0  0  0  0  # atno 17342 bound_to 10162
  139.5000  144.3924  152.0266 LP  0  0  0  0  0  0  0  0  0  0  0  0  # atno 17343 bound_to 10162
  157.7429  130.9900  150.2550 LP  0  0  0  0  0  0  0  0  0  0  0  0  # atno 17370 bound_to 10713
  156.3101  130.3770  149.7669 LP  0  0  0  0  0  0  0  0  0  0  0  0  # atno 17371 bound_to 10713
  141.0877  133.9966  157.3288 LP  0  0  0  0  0  0  0  0  0  0  0  0  # atno 17394 bound_to 11000
  139.9235  135.0201  156.8151 LP  0  0  0  0  0  0  0  0  0  0  0  0  # atno 17395 bound_to 11000

$$$$
