AV-unprocessed.smi:1046|AV-procd|sdf|4548|dock4
  -GOLD-   22720 2573D 1   1.00000     0.00000
 Structure written by MMmdl.
 53 55  0  0  0  0  0  0  0  0  2 V2000
  152.2158  143.0433  160.5413 C   0  0  0  0  0  0  0  0  0  0  0  0
  151.7039  142.4065  159.2614 C   0  0  0  0  0  0  0  0  0  0  0  0
  152.3985  141.3023  158.7184 C   0  0  0  0  0  0  0  0  0  0  0  0
  151.9567  140.6828  157.5291 C   0  0  0  0  0  0  0  0  0  0  0  0
  152.4767  139.6077  156.8291 N   0  0  0  0  0  0  0  0  0  0  0  0
  151.6253  139.5125  155.8125 C   0  0  0  0  0  0  0  0  0  0  0  0
  150.6137  140.4007  155.7698 N   0  0  0  0  0  0  0  0  0  0  0  0
  149.5743  140.4895  154.7599 C   0  0  0  0  0  0  0  0  0  0  0  0
  149.0397  139.1057  154.3442 C   0  0  2  0  0  0  0  0  0  0  0  0
  149.9916  138.4617  153.5182 O   0  0  0  0  0  0  0  0  0  0  0  0
  147.7066  139.2134  153.5780 C   0  0  0  0  0  0  0  0  0  0  0  0
  147.2473  137.9080  153.0381 N   0  3  0  0  0  0  0  0  0  0  0  0
  146.3165  138.0655  151.8909 C   0  0  0  0  0  0  0  0  0  0  0  0
  145.9293  136.6865  151.3181 C   0  0  0  0  0  0  0  0  0  0  0  0
  145.3321  135.7947  152.3119 N   0  0  0  0  0  0  0  0  0  0  0  0
  143.9747  136.1980  152.6935 C   0  0  0  0  0  0  0  0  0  0  0  0
  143.2854  135.2717  153.7082 C   0  0  0  0  0  0  0  0  0  0  0  0
  142.8059  134.1239  153.0432 O   0  0  0  0  0  0  0  0  0  0  0  0
  146.2645  135.6579  153.4334 C   0  0  0  0  0  0  0  0  0  0  0  0
  146.6619  137.0068  154.0669 C   0  0  0  0  0  0  0  0  0  0  0  0
  150.7904  141.2011  156.8934 C   0  0  0  0  0  0  0  0  0  0  0  0
  150.0901  142.2985  157.4247 C   0  0  0  0  0  0  0  0  0  0  0  0
  150.5458  142.9062  158.6134 C   0  0  0  0  0  0  0  0  0  0  0  0
  149.7840  144.0916  159.1789 C   0  0  0  0  0  0  0  0  0  0  0  0
  153.1307  142.5615  160.8875 H   0  0  0  0  0  0  0  0  0  0  0  0
  151.4721  142.9584  161.3338 H   0  0  0  0  0  0  0  0  0  0  0  0
  152.4344  144.0995  160.3829 H   0  0  0  0  0  0  0  0  0  0  0  0
  153.2803  140.9208  159.2119 H   0  0  0  0  0  0  0  0  0  0  0  0
  151.7451  138.7549  155.0520 H   0  0  0  0  0  0  0  0  0  0  0  0
  148.7643  141.0997  155.1618 H   0  0  0  0  0  0  0  0  0  0  0  0
  149.9681  141.0272  153.8963 H   0  0  0  0  0  0  0  0  0  0  0  0
  148.9118  138.5048  155.2440 H   0  0  0  0  0  0  0  0  0  0  0  0
  149.6284  137.6428  153.2161 H   0  0  0  0  0  0  0  0  0  0  0  0
  146.9277  139.6274  154.2203 H   0  0  0  0  0  0  0  0  0  0  0  0
  147.8341  139.9250  152.7603 H   0  0  0  0  0  0  0  0  0  0  0  0
  145.4315  138.6217  152.2028 H   0  0  0  0  0  0  0  0  0  0  0  0
  146.7978  138.6546  151.1094 H   0  0  0  0  0  0  0  0  0  0  0  0
  145.2479  136.8132  150.4761 H   0  0  0  0  0  0  0  0  0  0  0  0
  146.8217  136.2128  150.9068 H   0  0  0  0  0  0  0  0  0  0  0  0
  143.9706  137.2179  153.0769 H   0  0  0  0  0  0  0  0  0  0  0  0
  143.3559  136.2181  151.7955 H   0  0  0  0  0  0  0  0  0  0  0  0
  143.9835  134.9657  154.4879 H   0  0  0  0  0  0  0  0  0  0  0  0
  142.4422  135.7630  154.1927 H   0  0  0  0  0  0  0  0  0  0  0  0
  143.0578  133.3605  153.5405 H   0  0  0  0  0  0  0  0  0  0  0  0
  145.8536  134.9954  154.1941 H   0  0  0  0  0  0  0  0  0  0  0  0
  147.1686  135.1609  153.0791 H   0  0  0  0  0  0  0  0  0  0  0  0
  147.3844  136.8194  154.8599 H   0  0  0  0  0  0  0  0  0  0  0  0
  145.8012  137.4837  154.5374 H   0  0  0  0  0  0  0  0  0  0  0  0
  149.2102  142.6704  156.9217 H   0  0  0  0  0  0  0  0  0  0  0  0
  148.9129  144.3327  158.5689 H   0  0  0  0  0  0  0  0  0  0  0  0
  150.4232  144.9740  159.2132 H   0  0  0  0  0  0  0  0  0  0  0  0
  149.4350  143.8758  160.1890 H   0  0  0  0  0  0  0  0  0  0  0  0
  148.0673  137.4446  152.6725 H   0  0  0  0  0  0  0  0  0  0  0  0
  1  2  1  0  0  0  0
  1 25  1  0  0  0  0
  1 26  1  0  0  0  0
  1 27  1  0  0  0  0
  2 23  1  0  0  0  0
  2  3  2  0  0  0  0
  3  4  1  0  0  0  0
  3 28  1  0  0  0  0
  4 21  2  0  0  0  0
  4  5  1  0  0  0  0
  5  6  2  0  0  0  0
  6  7  1  0  0  0  0
  6 29  1  0  0  0  0
  7  8  1  0  0  0  0
  7 21  1  0  0  0  0
  8  9  1  0  0  0  0
  8 30  1  0  0  0  0
  8 31  1  0  0  0  0
  9 10  1  0  0  0  0
  9 11  1  0  0  0  0
  9 32  1  0  0  0  0
 10 33  1  0  0  0  0
 11 12  1  0  0  0  0
 11 34  1  0  0  0  0
 11 35  1  0  0  0  0
 12 20  1  0  0  0  0
 12 13  1  0  0  0  0
 12 53  1  0  0  0  0
 13 14  1  0  0  0  0
 13 36  1  0  0  0  0
 13 37  1  0  0  0  0
 14 15  1  0  0  0  0
 14 38  1  0  0  0  0
 14 39  1  0  0  0  0
 15 16  1  0  0  0  0
 15 19  1  0  0  0  0
 16 17  1  0  0  0  0
 16 40  1  0  0  0  0
 16 41  1  0  0  0  0
 17 18  1  0  0  0  0
 17 42  1  0  0  0  0
 17 43  1  0  0  0  0
 18 44  1  0  0  0  0
 19 20  1  0  0  0  0
 19 45  1  0  0  0  0
 19 46  1  0  0  0  0
 20 47  1  0  0  0  0
 20 48  1  0  0  0  0
 21 22  1  0  0  0  0
 22 23  2  0  0  0  0
 22 49  1  0  0  0  0
 23 24  1  0  0  0  0
 24 50  1  0  0  0  0
 24 51  1  0  0  0  0
 24 52  1  0  0  0  0
M  CHG  1  12   1
M  END
> <s_m_source_file>
AV-unprocessed.smi

> <i_m_source_file_index>
1046

> <i_lp_mmshare_version>
43012

> <i_f3d_flags>
0

> <s_epik_input>
W0NIM11jKFtjSF0xKWMoW0NIM10pW2NIXWMoYzEyKW4oW2NIXW4yKVtDSDJdW0NASF0oW09IXSlbQ0gyXU4zW0NIMl1bQ0gyXU4oW0NIMl1bQ0gyXTMpW0NIMl1bQ0gyXVtPSF0=

> <s_epik_cmdline>
J2VwaWtfcHl0aG9uJywgJy1waCcsICc3LjAnLCAnLXRuJywgJzgnLCAnLW1hJywgJzIwMCcsICctbWV0YWxfYmluZGluZycsICctaW1hZScsICc8aW5maWxlLm1hZT4nLCAnLW9tYWUnLCAnPG91dGZpbGUubWFlPic=

> <r_epik_Ionization_Penalty>
0.131947

> <r_epik_Ionization_Penalty_Charging>
0.00213896

> <r_epik_Ionization_Penalty_Neutral>
0.129808

> <r_epik_State_Penalty>
0.319681

> <r_epik_Charging_Adjusted_Penalty>
0.32182

> <i_epik_Tot_Q>
1

> <i_epik_Tot_abs_Q>
1

> <r_epik_Metal_State_Penalty>
0.225417

> <b_epik_Metal_Only>
0

> <s_lp_Force_Field>
OPLS_2005

> <r_lp_Energy>
31.2013

> <b_lp_Chiralities_Consistent>
1

> <s_lp_Variant>
AV-unprocessed.smi:1046-1

> <Gold.Version>
5.8.1

> <Gold.Id.Protein>
6NUR|6NUR_protein|mol2

> <Gold.PLP.Fitness>
57.4841

> <Gold.PLP.PLP>
-43.5569

> <Gold.PLP.part.hbond>
-5.0000

> <Gold.PLP.part.metal>
0.0000

> <Gold.PLP.part.buried>
-3.3710

> <Gold.PLP.part.nonpolar>
-35.5138

> <Gold.PLP.part.repulsive>
0.1501

> <Gold.PLP.ligand.clash>
0.0000

> <Gold.PLP.ligand.torsion>
0.6506

> <Gold.PLP.Chemscore.Hbond>
5.0000

> <Gold.PLP.Chemscore.CHOScore>
0.0000

> <Gold.PLP.Chemscore.Metal>
0.0000

> <Gold.Chemscore.Hbonds>
donor molecule, donor type, donor heavy atom, donor atom, acceptor molecule, acceptor atom, score
      L1  H    10    33       P1  7948  0.99
      L1  H    12    53       P1  7948  2.00
      L1  H    18    44       P1 10957  0.94
      P1  H  7997  8008       L1     5  1.00

> <Gold.PLP.Chemscore.Internal.Correction>
0.2283

> <Gold.Rescore>
     Score         DG    S(hbond)    S(metal)    S(lipo)     H(rot)  DE(clash)    DE(int)     intcor
     19.89     -20.60       3.49        0.00      99.87       3.21       0.13       0.59       ----

> <Gold.Chemscore.Fitness>
19.8858

> <Gold.Chemscore.DG>
-20.6006

> <Gold.Chemscore.ZeroCoef>
-5.4800

> <Gold.Chemscore.Hbond>
3.4858

> <Gold.Chemscore.Metal>
0.0000

> <Gold.Chemscore.Lipo>
99.8693

> <Gold.Chemscore.Internal_Hbond>
0.0000

> <Gold.Chemscore.DEClash>
0.1253

> <Gold.Chemscore.DEInternal>
0.5895

> <Gold.Chemscore.Rot>
3.2058

> <Gold.Chemscore.Internal.Correction>
   9.000000E+99

> <Gold.Chemscore.Hbonds>
donor molecule, donor type, donor heavy atom, donor atom, acceptor molecule, acceptor atom, score
      L1  H    10    33       P1  7948  0.72
      L1  H    12    53       P1  7948  0.99
      L1  H    18    44       P1 10957  0.86
      P1  H  7997  8008       L1     5  0.43

> <Gold.Chemscore.Hbond.Weighted>
-11.6426

> <Gold.Chemscore.Metal.Weighted>
-0.0000

> <Gold.Chemscore.Lipo.Weighted>
-11.6847

> <Gold.Chemscore.Internal_Hbond.Weighted>
0.0000

> <Gold.Chemscore.DEClash.Weighted>
0.1253

> <Gold.Chemscore.DEInternal.Weighted>
0.5895

> <Gold.Chemscore.Rot.Weighted>
8.2067

> <Gold.Chemscore.Internal.Correction.Weighted>
   9.000000E+99

> <Gold.Protein.RotatedTorsions>
[ 6907 6896 6895 6894 ] final  -49.49 input  -60.11 | X-H torsion
[ 7974 7965 7964 7962 ] final  145.27 input  175.53 | X-H torsion
[ 8008 7997 7996 7995 ] final  -51.35 input   59.86 | X-H torsion
[ 10167 10162 10161 10158 ] final  159.57 input  -65.29 | X-H torsion
[ 10718 10713 10712 10709 ] final -143.37 input   66.30 | X-H torsion
[ 10763 10752 10751 10750 ] final -161.10 input  -60.55 | X-H torsion
[ 11005 11000 10999 10996 ] final   65.65 input  -57.11 | X-H torsion

> <Gold.Protein.ActiveResidues>
 VAL166  LYS551  ARG553  GLY616  TRP617  ASP618  TYR619  PRO620  LYS621  CYS622 
 ASP623  PHE694  ASN695  SER759  ASP760  ASP761  ALA762  ILE779  LEU786  VAL792 
 PHE793  MET794  SER795  GLU796  ALA797  LYS798  CYS799  TRP800  GLU811  SER814 

> <Gold.Protein.RotatedAtoms>
  150.8800  134.8190  159.7217 H   0  0  0  0  0  0  0  0  0  0  0  0  # atno 6907 bound_to 6896
  152.4772  134.4811  159.9675 H   0  0  0  0  0  0  0  0  0  0  0  0  # atno 6908 bound_to 6896
  151.4887  133.3491  159.2885 H   0  0  0  0  0  0  0  0  0  0  0  0  # atno 6909 bound_to 6896
  144.8766  139.5762  143.5862 H   0  0  0  0  0  0  0  0  0  0  0  0  # atno 7974 bound_to 7965
  154.4081  140.1250  156.4814 H   0  0  0  0  0  0  0  0  0  0  0  0  # atno 8008 bound_to 7997
  155.7081  140.3494  155.4942 H   0  0  0  0  0  0  0  0  0  0  0  0  # atno 8009 bound_to 7997
  155.9325  140.1072  157.1111 H   0  0  0  0  0  0  0  0  0  0  0  0  # atno 8010 bound_to 7997
  139.4833  144.4717  151.8567 H   0  0  0  0  0  0  0  0  0  0  0  0  # atno 10167 bound_to 10162
  156.3572  130.7719  151.1881 H   0  0  0  0  0  0  0  0  0  0  0  0  # atno 10718 bound_to 10713
  154.7333  135.3051  154.8854 H   0  0  0  0  0  0  0  0  0  0  0  0  # atno 10763 bound_to 10752
  153.9690  135.6744  153.4751 H   0  0  0  0  0  0  0  0  0  0  0  0  # atno 10764 bound_to 10752
  153.0939  135.4945  154.8663 H   0  0  0  0  0  0  0  0  0  0  0  0  # atno 10765 bound_to 10752
  139.9881  134.6635  156.0139 H   0  0  0  0  0  0  0  0  0  0  0  0  # atno 11005 bound_to 11000
  146.2967  139.7299  142.9121 LP  0  0  0  0  0  0  0  0  0  0  0  0  # atno 17320 bound_to 7965
  145.4030  141.0387  143.3059 LP  0  0  0  0  0  0  0  0  0  0  0  0  # atno 17321 bound_to 7965
  140.4186  144.2273  150.5887 LP  0  0  0  0  0  0  0  0  0  0  0  0  # atno 17342 bound_to 10162
  140.4896  143.2352  151.8838 LP  0  0  0  0  0  0  0  0  0  0  0  0  # atno 17343 bound_to 10162
  157.7469  131.0410  150.4627 LP  0  0  0  0  0  0  0  0  0  0  0  0  # atno 17370 bound_to 10713
  156.4832  130.4078  149.6449 LP  0  0  0  0  0  0  0  0  0  0  0  0  # atno 17371 bound_to 10713
  141.1542  133.6544  156.4110 LP  0  0  0  0  0  0  0  0  0  0  0  0  # atno 17394 bound_to 11000
  140.4962  134.6529  157.5230 LP  0  0  0  0  0  0  0  0  0  0  0  0  # atno 17395 bound_to 11000

$$$$
