AV-unprocessed.smi:19|AV-procd|sdf|109|dock8
  -GOLD-   2262015273D 1   1.00000     0.00000
 Structure written by MMmdl.
 57 60  0  0  0  0  0  0  0  0  1 V2000
  151.0913  141.7631  157.7825 C   0  0  0  0  0  0  0  0  0  0  0  0
  149.9922  142.2227  157.0118 O   0  0  0  0  0  0  0  0  0  0  0  0
  149.1637  141.1873  156.4989 C   0  0  0  0  0  0  0  0  0  0  0  0
  149.5331  140.8160  155.0443 C   0  0  2  0  0  0  0  0  0  0  0  0
  148.7105  139.6410  154.4822 C   0  0  0  0  0  0  0  0  0  0  0  0
  149.1484  138.3796  155.0689 N   0  0  0  0  0  0  0  0  0  0  0  0
  148.3014  137.3348  154.8924 C   0  0  0  0  0  0  0  0  0  0  0  0
  148.4736  136.1914  155.6082 N   0  0  0  0  0  0  0  0  0  0  0  0
  147.6483  135.1553  155.4332 C   0  0  0  0  0  0  0  0  0  0  0  0
  146.6003  135.0529  154.6144 N   0  0  0  0  0  0  0  0  0  0  0  0
  146.4126  136.2007  153.9026 C   0  0  0  0  0  0  0  0  0  0  0  0
  147.2126  137.3761  153.9764 C   0  0  0  0  0  0  0  0  0  0  0  0
  146.7172  138.3397  153.1062 N   0  0  0  0  0  0  0  0  0  0  0  0
  145.6933  137.7623  152.5408 C   0  0  0  0  0  0  0  0  0  0  0  0
  145.4249  136.4827  152.9737 N   0  0  0  0  0  0  0  0  0  0  0  0
  144.3467  135.6161  152.5161 C   0  0  0  0  0  0  0  0  0  0  0  0
  144.8052  134.3704  151.6999 C   0  0  0  0  0  0  0  0  0  0  0  0
  145.8018  134.7854  150.5798 C   0  0  0  0  0  0  0  0  0  0  0  0
  145.1847  135.5660  149.5758 O   0  0  0  0  0  0  0  0  0  0  0  0
  145.4847  133.3416  152.6400 C   0  0  0  0  0  0  0  0  0  0  0  0
  145.6704  131.9568  151.9913 C   0  0  0  0  0  0  0  0  0  0  0  0
  144.4233  131.4621  151.5226 O   0  0  0  0  0  0  0  0  0  0  0  0
  143.8424  132.2914  150.5248 C   0  0  0  0  0  0  0  0  0  0  0  0
  143.5466  133.6823  151.1125 C   0  0  0  0  0  0  0  0  0  0  0  0
  150.5806  138.1464  154.9163 C   0  0  0  0  0  0  0  0  0  0  0  0
  151.3714  139.3286  155.5042 C   0  0  1  0  0  0  0  0  0  0  0  0
  152.8763  139.1909  155.2530 C   0  0  0  0  0  0  0  0  0  0  0  0
  150.9302  140.5458  154.9017 O   0  0  0  0  0  0  0  0  0  0  0  0
  151.6526  142.6192  158.1569 H   0  0  0  0  0  0  0  0  0  0  0  0
  151.7760  141.1509  157.1961 H   0  0  0  0  0  0  0  0  0  0  0  0
  150.7544  141.1844  158.6435 H   0  0  0  0  0  0  0  0  0  0  0  0
  149.2125  140.3095  157.1452 H   0  0  0  0  0  0  0  0  0  0  0  0
  148.1349  141.5441  156.5466 H   0  0  0  0  0  0  0  0  0  0  0  0
  149.3464  141.6839  154.4135 H   0  0  0  0  0  0  0  0  0  0  0  0
  147.6486  139.8219  154.6454 H   0  0  0  0  0  0  0  0  0  0  0  0
  148.8513  139.5815  153.4020 H   0  0  0  0  0  0  0  0  0  0  0  0
  147.8576  134.2836  156.0354 H   0  0  0  0  0  0  0  0  0  0  0  0
  145.0949  138.2629  151.7934 H   0  0  0  0  0  0  0  0  0  0  0  0
  143.7878  135.2999  153.3979 H   0  0  0  0  0  0  0  0  0  0  0  0
  143.6504  136.2184  151.9313 H   0  0  0  0  0  0  0  0  0  0  0  0
  146.6365  135.3517  150.9934 H   0  0  0  0  0  0  0  0  0  0  0  0
  146.2434  133.9187  150.0911 H   0  0  0  0  0  0  0  0  0  0  0  0
  145.3903  135.1897  148.7336 H   0  0  0  0  0  0  0  0  0  0  0  0
  146.4541  133.7093  152.9775 H   0  0  0  0  0  0  0  0  0  0  0  0
  144.8772  133.2150  153.5372 H   0  0  0  0  0  0  0  0  0  0  0  0
  146.3938  131.9874  151.1761 H   0  0  0  0  0  0  0  0  0  0  0  0
  146.0654  131.2562  152.7273 H   0  0  0  0  0  0  0  0  0  0  0  0
  144.4947  132.3534  149.6533 H   0  0  0  0  0  0  0  0  0  0  0  0
  142.9150  131.8284  150.1873 H   0  0  0  0  0  0  0  0  0  0  0  0
  142.8010  133.5598  151.8995 H   0  0  0  0  0  0  0  0  0  0  0  0
  143.0756  134.3115  150.3566 H   0  0  0  0  0  0  0  0  0  0  0  0
  150.8685  137.2245  155.4235 H   0  0  0  0  0  0  0  0  0  0  0  0
  150.8149  138.0242  153.8579 H   0  0  0  0  0  0  0  0  0  0  0  0
  151.2119  139.3742  156.5818 H   0  0  0  0  0  0  0  0  0  0  0  0
  153.2669  138.2781  155.7038 H   0  0  0  0  0  0  0  0  0  0  0  0
  153.4216  140.0324  155.6813 H   0  0  0  0  0  0  0  0  0  0  0  0
  153.0969  139.1586  154.1857 H   0  0  0  0  0  0  0  0  0  0  0  0
  1  2  1  0  0  0  0
  1 29  1  0  0  0  0
  1 30  1  0  0  0  0
  1 31  1  0  0  0  0
  2  3  1  0  0  0  0
  3  4  1  0  0  0  0
  3 32  1  0  0  0  0
  3 33  1  0  0  0  0
  4 28  1  0  0  0  0
  4  5  1  0  0  0  0
  4 34  1  0  0  0  0
  5  6  1  0  0  0  0
  5 35  1  0  0  0  0
  5 36  1  0  0  0  0
  6  7  1  0  0  0  0
  6 25  1  0  0  0  0
  7 12  1  0  0  0  0
  7  8  2  0  0  0  0
  8  9  1  0  0  0  0
  9 10  2  0  0  0  0
  9 37  1  0  0  0  0
 10 11  1  0  0  0  0
 11 15  1  0  0  0  0
 11 12  2  0  0  0  0
 12 13  1  0  0  0  0
 13 14  2  0  0  0  0
 14 15  1  0  0  0  0
 14 38  1  0  0  0  0
 15 16  1  0  0  0  0
 16 17  1  0  0  0  0
 16 39  1  0  0  0  0
 16 40  1  0  0  0  0
 17 24  1  0  0  0  0
 17 18  1  0  0  0  0
 17 20  1  0  0  0  0
 18 19  1  0  0  0  0
 18 41  1  0  0  0  0
 18 42  1  0  0  0  0
 19 43  1  0  0  0  0
 20 21  1  0  0  0  0
 20 44  1  0  0  0  0
 20 45  1  0  0  0  0
 21 22  1  0  0  0  0
 21 46  1  0  0  0  0
 21 47  1  0  0  0  0
 22 23  1  0  0  0  0
 23 24  1  0  0  0  0
 23 48  1  0  0  0  0
 23 49  1  0  0  0  0
 24 50  1  0  0  0  0
 24 51  1  0  0  0  0
 25 26  1  0  0  0  0
 25 52  1  0  0  0  0
 25 53  1  0  0  0  0
 26 27  1  0  0  0  0
 26 28  1  0  0  0  0
 26 54  1  0  0  0  0
 27 55  1  0  0  0  0
 27 56  1  0  0  0  0
 27 57  1  0  0  0  0
M  END
> <s_m_source_file>
AV-unprocessed.smi

> <i_m_source_file_index>
19

> <i_lp_mmshare_version>
43012

> <i_f3d_flags>
0

> <s_epik_input>
W0NIM11PW0NIMl1bQ0BASF0xW0NIMl1OKFtDSDJdW0NASF0oTzEpW0NIM10pYyhuW2NIXW4yKWMoYzIzKW5bY0hdbjNbQ0gyXUM0KFtDSDJdW09IXSlbQ0gyXVtDSDJdT1tDSDJdW0NIMl00

> <s_epik_cmdline>
J2VwaWtfcHl0aG9uJywgJy1waCcsICc3LjAnLCAnLXRuJywgJzgnLCAnLW1hJywgJzIwMCcsICctbWV0YWxfYmluZGluZycsICctaW1hZScsICc8aW5maWxlLm1hZT4nLCAnLW9tYWUnLCAnPG91dGZpbGUubWFlPic=

> <r_lp_tautomer_probability>
1

> <r_epik_Ionization_Penalty>
6.20357e-05

> <r_epik_Ionization_Penalty_Charging>
0

> <r_epik_Ionization_Penalty_Neutral>
6.20357e-05

> <r_epik_State_Penalty>
-0

> <r_epik_Charging_Adjusted_Penalty>
0

> <i_epik_Tot_Q>
0

> <i_epik_Tot_abs_Q>
0

> <r_epik_Metal_State_Penalty>
-0

> <b_epik_Metal_Only>
0

> <s_lp_Force_Field>
OPLS_2005

> <r_lp_Energy>
39.3548

> <b_lp_Chiralities_Consistent>
1

> <s_lp_Variant>
AV-unprocessed.smi:19-1

> <Gold.Version>
5.8.1

> <Gold.Id.Protein>
6NUR|6NUR_protein|mol2

> <Gold.PLP.Fitness>
43.2943

> <Gold.PLP.PLP>
-32.1986

> <Gold.PLP.part.hbond>
-2.9844

> <Gold.PLP.part.metal>
0.0000

> <Gold.PLP.part.buried>
0.9531

> <Gold.PLP.part.nonpolar>
-30.2808

> <Gold.PLP.part.repulsive>
0.8630

> <Gold.PLP.ligand.clash>
0.0182

> <Gold.PLP.ligand.torsion>
0.6299

> <Gold.PLP.Chemscore.Hbond>
1.9760

> <Gold.PLP.Chemscore.CHOScore>
1.9999

> <Gold.PLP.Chemscore.Metal>
0.0000

> <Gold.Chemscore.Hbonds>
donor molecule, donor type, donor heavy atom, donor atom, acceptor molecule, acceptor atom, score
      L1  H    19    43       P1  7921  0.60
      P1  H  7989  7998       L1    28  1.00
      L1  C    14    38       P1 10171  1.00
      L1  C    14    38       P1 10175  0.50

> <Gold.PLP.Chemscore.Internal.Correction>
0.4460

> <Gold.Rescore>
     Score         DG    S(hbond)    S(metal)    S(lipo)     H(rot)  DE(clash)    DE(int)     intcor
     10.42     -14.55       1.88        0.00      86.67       2.87       0.66       3.47       ----

> <Gold.Chemscore.Fitness>
10.4191

> <Gold.Chemscore.DG>
-14.5507

> <Gold.Chemscore.ZeroCoef>
-5.4800

> <Gold.Chemscore.Hbond>
1.8816

> <Gold.Chemscore.Metal>
0.0000

> <Gold.Chemscore.Lipo>
86.6728

> <Gold.Chemscore.Internal_Hbond>
0.0000

> <Gold.Chemscore.DEClash>
0.6599

> <Gold.Chemscore.DEInternal>
3.4718

> <Gold.Chemscore.Rot>
2.8729

> <Gold.Chemscore.Internal.Correction>
   9.000000E+99

> <Gold.Chemscore.Hbonds>
donor molecule, donor type, donor heavy atom, donor atom, acceptor molecule, acceptor atom, score
      L1  H    19    43       P1  7921  0.60
      P1  H  7989  7998       L1    28  0.82

> <Gold.Chemscore.Hbond.Weighted>
-6.2846

> <Gold.Chemscore.Metal.Weighted>
-0.0000

> <Gold.Chemscore.Lipo.Weighted>
-10.1407

> <Gold.Chemscore.Internal_Hbond.Weighted>
0.0000

> <Gold.Chemscore.DEClash.Weighted>
0.6599

> <Gold.Chemscore.DEInternal.Weighted>
3.4718

> <Gold.Chemscore.Rot.Weighted>
7.3546

> <Gold.Chemscore.Internal.Correction.Weighted>
   9.000000E+99

> <Gold.Protein.RotatedTorsions>
[ 6907 6896 6895 6894 ] final  129.23 input  -60.11 | X-H torsion
[ 7974 7965 7964 7962 ] final   56.29 input  175.53 | X-H torsion
[ 8008 7997 7996 7995 ] final  171.45 input   59.86 | X-H torsion
[ 10167 10162 10161 10158 ] final  104.89 input  -65.29 | X-H torsion
[ 10718 10713 10712 10709 ] final  169.60 input   66.30 | X-H torsion
[ 10763 10752 10751 10750 ] final  114.61 input  -60.55 | X-H torsion
[ 11005 11000 10999 10996 ] final   33.64 input  -57.11 | X-H torsion

> <Gold.Protein.ActiveResidues>
 VAL166  LYS551  ARG553  GLY616  TRP617  ASP618  TYR619  PRO620  LYS621  CYS622 
 ASP623  PHE694  ASN695  SER759  ASP760  ASP761  ALA762  ILE779  LEU786  VAL792 
 PHE793  MET794  SER795  GLU796  ALA797  LYS798  CYS799  TRP800  GLU811  SER814 

> <Gold.Protein.RotatedAtoms>
  152.3644  133.6337  159.6038 H   0  0  0  0  0  0  0  0  0  0  0  0  # atno 6907 bound_to 6896
  150.7623  133.9372  159.3454 H   0  0  0  0  0  0  0  0  0  0  0  0  # atno 6908 bound_to 6896
  151.7205  135.0896  160.0334 H   0  0  0  0  0  0  0  0  0  0  0  0  # atno 6909 bound_to 6896
  145.9413  139.3891  143.0362 H   0  0  0  0  0  0  0  0  0  0  0  0  # atno 7974 bound_to 7965
  156.1270  140.1511  156.9122 H   0  0  0  0  0  0  0  0  0  0  0  0  # atno 8008 bound_to 7997
  154.4879  140.0860  156.7569 H   0  0  0  0  0  0  0  0  0  0  0  0  # atno 8009 bound_to 7997
  155.4326  140.3427  155.4284 H   0  0  0  0  0  0  0  0  0  0  0  0  # atno 8010 bound_to 7997
  139.7139  144.7072  151.0982 H   0  0  0  0  0  0  0  0  0  0  0  0  # atno 10167 bound_to 10162
  157.0203  131.0230  151.2776 H   0  0  0  0  0  0  0  0  0  0  0  0  # atno 10718 bound_to 10713
  153.5099  135.3620  155.2581 H   0  0  0  0  0  0  0  0  0  0  0  0  # atno 10763 bound_to 10752
  154.8742  135.4020  154.3381 H   0  0  0  0  0  0  0  0  0  0  0  0  # atno 10764 bound_to 10752
  153.4032  135.7075  153.6478 H   0  0  0  0  0  0  0  0  0  0  0  0  # atno 10765 bound_to 10752
  140.2611  134.3192  155.7857 H   0  0  0  0  0  0  0  0  0  0  0  0  # atno 11005 bound_to 11000
  145.8296  140.9638  143.0856 LP  0  0  0  0  0  0  0  0  0  0  0  0  # atno 17320 bound_to 7965
  144.6779  140.0145  143.7484 LP  0  0  0  0  0  0  0  0  0  0  0  0  # atno 17321 bound_to 7965
  140.7739  143.5256  150.9484 LP  0  0  0  0  0  0  0  0  0  0  0  0  # atno 17342 bound_to 10162
  139.8941  143.6916  152.3141 LP  0  0  0  0  0  0  0  0  0  0  0  0  # atno 17343 bound_to 10162
  157.5254  130.8025  149.7856 LP  0  0  0  0  0  0  0  0  0  0  0  0  # atno 17370 bound_to 10713
  156.0104  130.3836  150.2283 LP  0  0  0  0  0  0  0  0  0  0  0  0  # atno 17371 bound_to 10713
  141.2190  133.7410  156.9187 LP  0  0  0  0  0  0  0  0  0  0  0  0  # atno 17394 bound_to 11000
  140.1464  134.9259  157.2535 LP  0  0  0  0  0  0  0  0  0  0  0  0  # atno 17395 bound_to 11000

$$$$
