AV-unprocessed.smi:2032|AV-procd|sdf|8258|dock6
  -GOLD-   2272010533D 1   1.00000     0.00000
 Structure written by MMmdl.
 42 43  0  0  0  0  0  0  0  0  3 V2000
  146.1004  136.7468  152.6420 C   0  0  0  0  0  0  0  0  0  0  0  0
  146.1959  137.2594  154.0903 C   0  0  1  0  0  0  0  0  0  0  0  0
  147.3714  136.6509  154.8821 C   0  0  0  0  0  0  0  0  0  0  0  0
  148.6760  137.2291  154.4589 N   0  3  2  0  0  0  0  0  0  0  0  0
  149.8928  136.6689  155.1310 C   0  0  1  0  0  0  0  0  0  0  0  0
  150.1749  135.1877  154.7808 C   0  0  0  0  0  0  0  0  0  0  0  0
  151.1291  137.5432  154.7952 C   0  0  0  0  0  0  0  0  0  0  0  0
  151.7236  138.1633  155.9751 N   0  0  0  0  0  0  0  0  0  0  0  0
  151.7872  139.4806  156.2147 C   0  0  0  0  0  0  0  0  0  0  0  0
  151.3352  140.2773  155.3886 O   0  0  0  0  0  0  0  0  0  0  0  0
  152.3630  139.7902  157.3976 N   0  5  0  0  0  0  0  0  0  0  0  0
  151.9601  140.8765  158.0767 C   0  0  0  0  0  0  0  0  0  0  0  0
  151.0131  141.7078  157.6273 N   0  0  0  0  0  0  0  0  0  0  0  0
  150.7556  142.7744  158.4902 C   0  0  0  0  0  0  0  0  0  0  0  0
  151.5308  142.7596  159.6193 C   0  0  0  0  0  0  0  0  0  0  0  0
  152.6140  141.3971  159.6323 S   0  0  0  0  0  0  0  0  0  0  0  0
  148.6109  138.7111  154.5549 C   0  0  0  0  0  0  0  0  0  0  0  0
  147.4496  139.2671  153.7137 C   0  0  2  0  0  0  0  0  0  0  0  0
  147.3183  140.7882  153.8499 C   0  0  0  0  0  0  0  0  0  0  0  0
  146.2293  138.6833  154.1560 O   0  0  0  0  0  0  0  0  0  0  0  0
  145.9285  135.6703  152.6240 H   0  0  0  0  0  0  0  0  0  0  0  0
  147.0104  136.9374  152.0737 H   0  0  0  0  0  0  0  0  0  0  0  0
  145.2712  137.2201  152.1159 H   0  0  0  0  0  0  0  0  0  0  0  0
  145.2732  136.9597  154.5883 H   0  0  0  0  0  0  0  0  0  0  0  0
  147.2314  136.8335  155.9487 H   0  0  0  0  0  0  0  0  0  0  0  0
  147.3495  135.5717  154.7339 H   0  0  0  0  0  0  0  0  0  0  0  0
  149.7156  136.7034  156.2071 H   0  0  0  0  0  0  0  0  0  0  0  0
  151.0767  134.8234  155.2730 H   0  0  0  0  0  0  0  0  0  0  0  0
  150.3123  135.0494  153.7079 H   0  0  0  0  0  0  0  0  0  0  0  0
  149.3726  134.5289  155.1132 H   0  0  0  0  0  0  0  0  0  0  0  0
  151.8950  136.9287  154.3213 H   0  0  0  0  0  0  0  0  0  0  0  0
  150.8934  138.3305  154.0798 H   0  0  0  0  0  0  0  0  0  0  0  0
  152.1099  137.5457  156.6743 H   0  0  0  0  0  0  0  0  0  0  0  0
  150.0025  143.4996  158.2203 H   0  0  0  0  0  0  0  0  0  0  0  0
  151.5323  143.4625  160.4384 H   0  0  0  0  0  0  0  0  0  0  0  0
  148.4884  139.0007  155.6002 H   0  0  0  0  0  0  0  0  0  0  0  0
  149.5397  139.1657  154.2140 H   0  0  0  0  0  0  0  0  0  0  0  0
  147.6138  139.0359  152.6611 H   0  0  0  0  0  0  0  0  0  0  0  0
  148.2274  141.2920  153.5208 H   0  0  0  0  0  0  0  0  0  0  0  0
  147.1310  141.0778  154.8843 H   0  0  0  0  0  0  0  0  0  0  0  0
  146.4931  141.1642  153.2444 H   0  0  0  0  0  0  0  0  0  0  0  0
  148.7716  137.0010  153.4797 H   0  0  0  0  0  0  0  0  0  0  0  0
  1  2  1  0  0  0  0
  1 21  1  0  0  0  0
  1 22  1  0  0  0  0
  1 23  1  0  0  0  0
  2 20  1  0  0  0  0
  2  3  1  0  0  0  0
  2 24  1  0  0  0  0
  3  4  1  0  0  0  0
  3 25  1  0  0  0  0
  3 26  1  0  0  0  0
  4  5  1  0  0  0  0
  4 17  1  0  0  0  0
  4 42  1  0  0  0  0
  5  6  1  0  0  0  0
  5  7  1  0  0  0  0
  5 27  1  0  0  0  0
  6 28  1  0  0  0  0
  6 29  1  0  0  0  0
  6 30  1  0  0  0  0
  7  8  1  0  0  0  0
  7 31  1  0  0  0  0
  7 32  1  0  0  0  0
  8  9  1  0  0  0  0
  8 33  1  0  0  0  0
  9 10  2  0  0  0  0
  9 11  1  0  0  0  0
 11 12  1  0  0  0  0
 12 16  1  0  0  0  0
 12 13  2  0  0  0  0
 13 14  1  0  0  0  0
 14 15  2  0  0  0  0
 14 34  1  0  0  0  0
 15 16  1  0  0  0  0
 15 35  1  0  0  0  0
 17 18  1  0  0  0  0
 17 36  1  0  0  0  0
 17 37  1  0  0  0  0
 18 19  1  0  0  0  0
 18 20  1  0  0  0  0
 18 38  1  0  0  0  0
 19 39  1  0  0  0  0
 19 40  1  0  0  0  0
 19 41  1  0  0  0  0
M  CHG  1   4   1
M  CHG  1  11  -1
M  END
> <s_m_source_file>
AV-unprocessed.smi

> <i_m_source_file_index>
2032

> <i_lp_mmshare_version>
43012

> <i_f3d_flags>
0

> <s_epik_input>
W0NIM11bQ0BASF0xW0NIMl1OKFtDSDJdW0NASF0oTzEpW0NIM10pW0NASF0oW0NIM10pW0NIMl1bTkhdQyg9TylbTkhdYzJuW2NIXVtjSF1zMg==

> <s_epik_cmdline>
J2VwaWtfcHl0aG9uJywgJy1waCcsICc3LjAnLCAnLXRuJywgJzgnLCAnLW1hJywgJzIwMCcsICctbWV0YWxfYmluZGluZycsICctaW1hZScsICc8aW5maWxlLm1hZT4nLCAnLW9tYWUnLCAnPG91dGZpbGUubWFlPic=

> <r_lp_tautomer_probability>
0.999

> <r_epik_Ionization_Penalty>
6.71699

> <r_epik_Ionization_Penalty_Charging>
5.88592

> <r_epik_Ionization_Penalty_Neutral>
0.831074

> <r_epik_State_Penalty>
6.08365

> <r_epik_Charging_Adjusted_Penalty>
11.9696

> <i_epik_Tot_Q>
0

> <i_epik_Tot_abs_Q>
2

> <r_epik_Metal_State_Penalty>
2.0947

> <b_epik_Metal_Only>
1

> <s_lp_Force_Field>
OPLS_2005

> <r_lp_Energy>
13.797

> <b_lp_Chiralities_Consistent>
1

> <s_lp_Variant>
AV-unprocessed.smi:2032-28

> <Gold.Version>
5.8.1

> <Gold.Id.Protein>
6NUR|6NUR_protein|mol2

> <Gold.PLP.Fitness>
44.4155

> <Gold.PLP.PLP>
-28.6074

> <Gold.PLP.part.hbond>
-3.0000

> <Gold.PLP.part.metal>
0.0000

> <Gold.PLP.part.buried>
-3.6758

> <Gold.PLP.part.nonpolar>
-21.9073

> <Gold.PLP.part.repulsive>
0.3689

> <Gold.PLP.ligand.clash>
0.0000

> <Gold.PLP.ligand.torsion>
1.1239

> <Gold.PLP.Chemscore.Hbond>
5.0000

> <Gold.PLP.Chemscore.CHOScore>
0.9958

> <Gold.PLP.Chemscore.Metal>
0.0000

> <Gold.Chemscore.Hbonds>
donor molecule, donor type, donor heavy atom, donor atom, acceptor molecule, acceptor atom, score
      L1  H     4    42       P1  7948  2.00
      P1  H  7989  7998       L1    10  0.98
      P1  H  7997  8010       L1    11  1.20

> <Gold.PLP.Chemscore.Internal.Correction>
0.0684

> <Gold.Rescore>
     Score         DG    S(hbond)    S(metal)    S(lipo)     H(rot)  DE(clash)    DE(int)     intcor
     15.63     -18.46       2.70        0.00      68.30       1.58       0.19       2.64       ----

> <Gold.Chemscore.Fitness>
15.6332

> <Gold.Chemscore.DG>
-18.4607

> <Gold.Chemscore.ZeroCoef>
-5.4800

> <Gold.Chemscore.Hbond>
2.7043

> <Gold.Chemscore.Metal>
0.0000

> <Gold.Chemscore.Lipo>
68.2980

> <Gold.Chemscore.Internal_Hbond>
0.0000

> <Gold.Chemscore.DEClash>
0.1889

> <Gold.Chemscore.DEInternal>
2.6385

> <Gold.Chemscore.Rot>
1.5791

> <Gold.Chemscore.Internal.Correction>
   9.000000E+99

> <Gold.Chemscore.Hbonds>
donor molecule, donor type, donor heavy atom, donor atom, acceptor molecule, acceptor atom, score
      L1  H     4    42       P1  7948  1.00
      P1  H  7989  7998       L1    10  0.90
      P1  H  7997  8010       L1    11  0.09

> <Gold.Chemscore.Hbond.Weighted>
-9.0323

> <Gold.Chemscore.Metal.Weighted>
-0.0000

> <Gold.Chemscore.Lipo.Weighted>
-7.9909

> <Gold.Chemscore.Internal_Hbond.Weighted>
0.0000

> <Gold.Chemscore.DEClash.Weighted>
0.1889

> <Gold.Chemscore.DEInternal.Weighted>
2.6385

> <Gold.Chemscore.Rot.Weighted>
4.0425

> <Gold.Chemscore.Internal.Correction.Weighted>
   9.000000E+99

> <Gold.Protein.RotatedTorsions>
[ 6907 6896 6895 6894 ] final  155.82 input  -60.11 | X-H torsion
[ 7974 7965 7964 7962 ] final   97.92 input  175.53 | X-H torsion
[ 8008 7997 7996 7995 ] final   57.62 input   59.86 | X-H torsion
[ 10167 10162 10161 10158 ] final   37.44 input  -65.29 | X-H torsion
[ 10718 10713 10712 10709 ] final  -96.57 input   66.30 | X-H torsion
[ 10763 10752 10751 10750 ] final  139.27 input  -60.55 | X-H torsion
[ 11005 11000 10999 10996 ] final  101.36 input  -57.11 | X-H torsion

> <Gold.Protein.ActiveResidues>
 VAL166  LYS551  ARG553  GLY616  TRP617  ASP618  TYR619  PRO620  LYS621  CYS622 
 ASP623  PHE694  ASN695  SER759  ASP760  ASP761  ALA762  ILE779  LEU786  VAL792 
 PHE793  MET794  SER795  GLU796  ALA797  LYS798  CYS799  TRP800  GLU811  SER814 

> <Gold.Protein.RotatedAtoms>
  152.0387  133.3968  159.4327 H   0  0  0  0  0  0  0  0  0  0  0  0  # atno 6907 bound_to 6896
  150.6877  134.3439  159.4889 H   0  0  0  0  0  0  0  0  0  0  0  0  # atno 6908 bound_to 6896
  152.1235  134.9188  160.0612 H   0  0  0  0  0  0  0  0  0  0  0  0  # atno 6909 bound_to 6896
  145.4190  139.2324  143.3206 H   0  0  0  0  0  0  0  0  0  0  0  0  # atno 7974 bound_to 7965
  155.5368  140.3483  155.4438 H   0  0  0  0  0  0  0  0  0  0  0  0  # atno 8008 bound_to 7997
  156.0680  140.1356  156.9890 H   0  0  0  0  0  0  0  0  0  0  0  0  # atno 8009 bound_to 7997
  154.4513  140.0971  156.6600 H   0  0  0  0  0  0  0  0  0  0  0  0  # atno 8010 bound_to 7997
  140.4032  144.1695  150.6135 H   0  0  0  0  0  0  0  0  0  0  0  0  # atno 10167 bound_to 10162
  156.0065  130.5157  150.6245 H   0  0  0  0  0  0  0  0  0  0  0  0  # atno 10718 bound_to 10713
  153.9034  135.3019  155.3448 H   0  0  0  0  0  0  0  0  0  0  0  0  # atno 10763 bound_to 10752
  154.7659  135.4911  153.9556 H   0  0  0  0  0  0  0  0  0  0  0  0  # atno 10764 bound_to 10752
  153.1232  135.6787  153.9401 H   0  0  0  0  0  0  0  0  0  0  0  0  # atno 10765 bound_to 10752
  139.8773  134.9180  156.4895 H   0  0  0  0  0  0  0  0  0  0  0  0  # atno 11005 bound_to 11000
  146.2666  140.4912  142.8831 LP  0  0  0  0  0  0  0  0  0  0  0  0  # atno 17320 bound_to 7965
  144.8258  140.6625  143.6323 LP  0  0  0  0  0  0  0  0  0  0  0  0  # atno 17321 bound_to 7965
  140.4717  143.2410  151.9079 LP  0  0  0  0  0  0  0  0  0  0  0  0  # atno 17342 bound_to 10162
  139.4784  144.5362  151.8595 LP  0  0  0  0  0  0  0  0  0  0  0  0  # atno 17343 bound_to 10162
  157.4055  131.0816  151.1269 LP  0  0  0  0  0  0  0  0  0  0  0  0  # atno 17370 bound_to 10713
  157.1917  130.6355  149.5707 LP  0  0  0  0  0  0  0  0  0  0  0  0  # atno 17371 bound_to 10713
  140.8669  133.8018  155.9323 LP  0  0  0  0  0  0  0  0  0  0  0  0  # atno 17394 bound_to 11000
  140.8993  134.2399  157.5051 LP  0  0  0  0  0  0  0  0  0  0  0  0  # atno 17395 bound_to 11000

$$$$
