AV-unprocessed.smi:215|AV-procd|sdf|1652|dock3
  -GOLD-   2262020 33D 1   1.00000     0.00000
 Structure written by MMmdl.
 59 62  0  0  0  0  0  0  0  0  2 V2000
  146.3263  140.8574  156.8222 C   0  0  0  0  0  0  0  0  0  0  0  0
  147.2465  140.5010  155.6336 C   0  0  2  0  0  0  0  0  0  0  0  0
  148.0948  141.6886  155.1108 C   0  0  1  0  0  0  0  0  0  0  0  0
  149.4337  141.8638  155.7542 N   0  3  2  0  0  0  0  0  0  0  0  0
  150.4984  140.9673  155.2423 C   0  0  0  0  0  0  0  0  0  0  0  0
  149.3687  141.8321  157.2412 C   0  0  0  0  0  0  0  0  0  0  0  0
  150.5718  142.5426  157.8828 C   0  0  0  0  0  0  0  0  0  0  0  0
  150.3960  143.9424  157.8217 O   0  0  0  0  0  0  0  0  0  0  0  0
  148.2363  141.3476  153.6190 C   0  0  0  0  0  0  0  0  0  0  0  0
  146.9258  140.6605  153.2551 C   0  0  0  0  0  0  0  0  0  0  0  0
  146.4365  140.0734  154.4916 N   0  0  0  0  0  0  0  0  0  0  0  0
  145.8525  138.8465  154.4357 C   0  0  0  0  0  0  0  0  0  0  0  0
  145.2986  138.3167  155.5585 N   0  0  0  0  0  0  0  0  0  0  0  0
  144.7207  137.1128  155.5271 C   0  0  0  0  0  0  0  0  0  0  0  0
  144.5867  136.2797  154.4946 N   0  0  0  0  0  0  0  0  0  0  0  0
  145.1350  136.8034  153.3612 C   0  0  0  0  0  0  0  0  0  0  0  0
  145.7791  138.0682  153.2436 C   0  0  0  0  0  0  0  0  0  0  0  0
  146.1905  138.2639  151.9302 N   0  0  0  0  0  0  0  0  0  0  0  0
  145.8132  137.1794  151.3098 C   0  0  0  0  0  0  0  0  0  0  0  0
  145.1846  136.2403  152.0971 N   0  0  0  0  0  0  0  0  0  0  0  0
  144.6434  134.9771  151.6809 C   0  0  0  0  0  0  0  0  0  0  0  0
  145.3331  133.6463  151.9961 C   0  0  0  0  0  0  0  0  0  0  0  0
  144.7979  133.0702  150.6639 C   0  0  0  0  0  0  0  0  0  0  0  0
  145.8006  132.1873  149.9000 C   0  0  0  0  0  0  0  0  0  0  0  0
  146.3375  131.1697  150.7199 O   0  0  0  0  0  0  0  0  0  0  0  0
  143.4592  132.3139  150.8038 C   0  0  0  0  0  0  0  0  0  0  0  0
  142.7978  132.1618  149.5649 O   0  0  0  0  0  0  0  0  0  0  0  0
  144.7101  134.5484  150.2164 C   0  0  0  0  0  0  0  0  0  0  0  0
  147.9152  139.6837  155.9075 H   0  0  0  0  0  0  0  0  0  0  0  0
  147.5179  142.6099  155.2134 H   0  0  0  0  0  0  0  0  0  0  0  0
  146.8758  141.1742  157.7052 H   0  0  0  0  0  0  0  0  0  0  0  0
  145.7191  140.0046  157.1250 H   0  0  0  0  0  0  0  0  0  0  0  0
  145.6415  141.6640  156.5582 H   0  0  0  0  0  0  0  0  0  0  0  0
  150.2213  139.9200  155.3681 H   0  0  0  0  0  0  0  0  0  0  0  0
  151.4371  141.1265  155.7718 H   0  0  0  0  0  0  0  0  0  0  0  0
  150.7052  141.1571  154.1896 H   0  0  0  0  0  0  0  0  0  0  0  0
  148.4578  142.2987  157.6146 H   0  0  0  0  0  0  0  0  0  0  0  0
  149.3204  140.7957  157.5788 H   0  0  0  0  0  0  0  0  0  0  0  0
  150.6597  142.2551  158.9308 H   0  0  0  0  0  0  0  0  0  0  0  0
  151.5106  142.2713  157.4005 H   0  0  0  0  0  0  0  0  0  0  0  0
  151.1844  144.3327  157.4755 H   0  0  0  0  0  0  0  0  0  0  0  0
  148.4251  142.2150  152.9865 H   0  0  0  0  0  0  0  0  0  0  0  0
  149.0589  140.6454  153.4744 H   0  0  0  0  0  0  0  0  0  0  0  0
  146.1944  141.3879  152.9014 H   0  0  0  0  0  0  0  0  0  0  0  0
  147.0790  139.9207  152.4682 H   0  0  0  0  0  0  0  0  0  0  0  0
  144.3080  136.7667  156.4633 H   0  0  0  0  0  0  0  0  0  0  0  0
  145.9819  137.0413  150.2521 H   0  0  0  0  0  0  0  0  0  0  0  0
  143.6120  134.9493  152.0366 H   0  0  0  0  0  0  0  0  0  0  0  0
  146.4212  133.7205  152.0211 H   0  0  0  0  0  0  0  0  0  0  0  0
  144.9608  133.1488  152.8924 H   0  0  0  0  0  0  0  0  0  0  0  0
  145.3204  131.6992  149.0516 H   0  0  0  0  0  0  0  0  0  0  0  0
  146.6191  132.7791  149.4894 H   0  0  0  0  0  0  0  0  0  0  0  0
  146.9585  130.6700  150.2126 H   0  0  0  0  0  0  0  0  0  0  0  0
  143.6093  131.3272  151.2428 H   0  0  0  0  0  0  0  0  0  0  0  0
  142.7780  132.8390  151.4735 H   0  0  0  0  0  0  0  0  0  0  0  0
  142.0000  132.6677  149.5854 H   0  0  0  0  0  0  0  0  0  0  0  0
  143.8262  134.8050  149.6317 H   0  0  0  0  0  0  0  0  0  0  0  0
  145.6186  134.8959  149.7206 H   0  0  0  0  0  0  0  0  0  0  0  0
  149.7221  142.8018  155.5126 H   0  0  0  0  0  0  0  0  0  0  0  0
  1  2  1  0  0  0  0
  1 31  1  0  0  0  0
  1 32  1  0  0  0  0
  1 33  1  0  0  0  0
  2 29  1  0  0  0  0
  2 11  1  0  0  0  0
  2  3  1  0  0  0  0
  3 30  1  0  0  0  0
  3  4  1  0  0  0  0
  3  9  1  0  0  0  0
  4  5  1  0  0  0  0
  4  6  1  0  0  0  0
  4 59  1  0  0  0  0
  5 34  1  0  0  0  0
  5 35  1  0  0  0  0
  5 36  1  0  0  0  0
  6  7  1  0  0  0  0
  6 37  1  0  0  0  0
  6 38  1  0  0  0  0
  7  8  1  0  0  0  0
  7 39  1  0  0  0  0
  7 40  1  0  0  0  0
  8 41  1  0  0  0  0
  9 10  1  0  0  0  0
  9 42  1  0  0  0  0
  9 43  1  0  0  0  0
 10 11  1  0  0  0  0
 10 44  1  0  0  0  0
 10 45  1  0  0  0  0
 11 12  1  0  0  0  0
 12 17  1  0  0  0  0
 12 13  2  0  0  0  0
 13 14  1  0  0  0  0
 14 15  2  0  0  0  0
 14 46  1  0  0  0  0
 15 16  1  0  0  0  0
 16 20  1  0  0  0  0
 16 17  2  0  0  0  0
 17 18  1  0  0  0  0
 18 19  2  0  0  0  0
 19 20  1  0  0  0  0
 19 47  1  0  0  0  0
 20 21  1  0  0  0  0
 21 28  1  0  0  0  0
 21 22  1  0  0  0  0
 21 48  1  0  0  0  0
 22 23  1  0  0  0  0
 22 49  1  0  0  0  0
 22 50  1  0  0  0  0
 23 24  1  0  0  0  0
 23 26  1  0  0  0  0
 23 28  1  0  0  0  0
 24 25  1  0  0  0  0
 24 51  1  0  0  0  0
 24 52  1  0  0  0  0
 25 53  1  0  0  0  0
 26 27  1  0  0  0  0
 26 54  1  0  0  0  0
 26 55  1  0  0  0  0
 27 56  1  0  0  0  0
 28 57  1  0  0  0  0
 28 58  1  0  0  0  0
M  CHG  1   4   1
M  END
> <s_m_source_file>
AV-unprocessed.smi

> <i_m_source_file_index>
215

> <i_lp_mmshare_version>
43012

> <i_f3d_flags>
0

> <s_epik_input>
W09IXVtDSDJdW0NIMl1OKFtDSDNdKVtDQEBIXShbQ0BIXTFbQ0gzXSlbQ0gyXVtDSDJdTjFjKG5bY0hdbjIpYyhjMjMpbltjSF1uM1tDSF0oW0NIMl00KVtDSDJdQzQoW0NIMl1bT0hdKVtDSDJdW09IXQ==

> <s_epik_cmdline>
J2VwaWtfcHl0aG9uJywgJy1waCcsICc3LjAnLCAnLXRuJywgJzgnLCAnLW1hJywgJzIwMCcsICctbWV0YWxfYmluZGluZycsICctaW1hZScsICc8aW5maWxlLm1hZT4nLCAnLW9tYWUnLCAnPG91dGZpbGUubWFlPic=

> <r_lp_tautomer_probability>
1

> <r_epik_Ionization_Penalty>
0.0036237

> <r_epik_Ionization_Penalty_Charging>
0.0032725

> <r_epik_Ionization_Penalty_Neutral>
0.000351196

> <r_epik_State_Penalty>
-0

> <r_epik_Charging_Adjusted_Penalty>
0.0032725

> <i_epik_Tot_Q>
1

> <i_epik_Tot_abs_Q>
1

> <r_epik_Metal_State_Penalty>
-0

> <b_epik_Metal_Only>
0

> <s_lp_Force_Field>
OPLS_2005

> <r_lp_Energy>
64.69

> <b_lp_Chiralities_Consistent>
1

> <s_lp_Variant>
AV-unprocessed.smi:215-3

> <Gold.Version>
5.8.1

> <Gold.Id.Protein>
6NUR|6NUR_protein|mol2

> <Gold.PLP.Fitness>
50.4257

> <Gold.PLP.PLP>
-40.4825

> <Gold.PLP.part.hbond>
-6.3512

> <Gold.PLP.part.metal>
0.0000

> <Gold.PLP.part.buried>
-2.1053

> <Gold.PLP.part.nonpolar>
-33.7887

> <Gold.PLP.part.repulsive>
0.4787

> <Gold.PLP.ligand.clash>
0.0000

> <Gold.PLP.ligand.torsion>
1.4550

> <Gold.PLP.Chemscore.Hbond>
3.9123

> <Gold.PLP.Chemscore.CHOScore>
0.0727

> <Gold.PLP.Chemscore.Metal>
0.0000

> <Gold.Chemscore.Hbonds>
donor molecule, donor type, donor heavy atom, donor atom, acceptor molecule, acceptor atom, score
      L1  H     4    59       P1  8028  1.22
      L1  H    25    53       P1 10747  0.54
      L1  H    27    56       P1 10186  1.00
      P1  H 10785 10796       L1    27  0.54
      L1  C    19    47       P1 10171  0.13

> <Gold.PLP.Chemscore.Internal.Correction>
0.8984

> <Gold.Rescore>
     Score         DG    S(hbond)    S(metal)    S(lipo)     H(rot)  DE(clash)    DE(int)     intcor
      8.38     -12.48       2.75        0.00      79.35       4.48       0.41       3.69       ----

> <Gold.Chemscore.Fitness>
8.3835

> <Gold.Chemscore.DG>
-12.4792

> <Gold.Chemscore.ZeroCoef>
-5.4800

> <Gold.Chemscore.Hbond>
2.7488

> <Gold.Chemscore.Metal>
0.0000

> <Gold.Chemscore.Lipo>
79.3477

> <Gold.Chemscore.Internal_Hbond>
0.0000

> <Gold.Chemscore.DEClash>
0.4072

> <Gold.Chemscore.DEInternal>
3.6886

> <Gold.Chemscore.Rot>
4.4787

> <Gold.Chemscore.Internal.Correction>
   9.000000E+99

> <Gold.Chemscore.Hbonds>
donor molecule, donor type, donor heavy atom, donor atom, acceptor molecule, acceptor atom, score
      L1  H     4    59       P1  8028  0.59
      L1  H    25    53       P1 10747  0.51
      L1  H    27    56       P1 10186  0.93
      P1  H 10785 10796       L1    27  0.40

> <Gold.Chemscore.Hbond.Weighted>
-9.1810

> <Gold.Chemscore.Metal.Weighted>
-0.0000

> <Gold.Chemscore.Lipo.Weighted>
-9.2837

> <Gold.Chemscore.Internal_Hbond.Weighted>
0.0000

> <Gold.Chemscore.DEClash.Weighted>
0.4072

> <Gold.Chemscore.DEInternal.Weighted>
3.6886

> <Gold.Chemscore.Rot.Weighted>
11.4655

> <Gold.Chemscore.Internal.Correction.Weighted>
   9.000000E+99

> <Gold.Protein.RotatedTorsions>
[ 6907 6896 6895 6894 ] final  -49.93 input  -60.11 | X-H torsion
[ 7974 7965 7964 7962 ] final  141.54 input  175.53 | X-H torsion
[ 8008 7997 7996 7995 ] final -157.95 input   59.86 | X-H torsion
[ 10167 10162 10161 10158 ] final -110.31 input  -65.29 | X-H torsion
[ 10718 10713 10712 10709 ] final   81.62 input   66.30 | X-H torsion
[ 10763 10752 10751 10750 ] final   12.21 input  -60.55 | X-H torsion
[ 11005 11000 10999 10996 ] final  -98.21 input  -57.11 | X-H torsion

> <Gold.Protein.ActiveResidues>
 VAL166  LYS551  ARG553  GLY616  TRP617  ASP618  TYR619  PRO620  LYS621  CYS622 
 ASP623  PHE694  ASN695  SER759  ASP760  ASP761  ALA762  ILE779  LEU786  VAL792 
 PHE793  MET794  SER795  GLU796  ALA797  LYS798  CYS799  TRP800  GLU811  SER814 

> <Gold.Protein.RotatedAtoms>
  150.8756  134.8138  159.7187 H   0  0  0  0  0  0  0  0  0  0  0  0  # atno 6907 bound_to 6896
  152.4744  134.4877  159.9695 H   0  0  0  0  0  0  0  0  0  0  0  0  # atno 6908 bound_to 6896
  151.4959  133.3476  159.2896 H   0  0  0  0  0  0  0  0  0  0  0  0  # atno 6909 bound_to 6896
  144.9087  139.5322  143.5719 H   0  0  0  0  0  0  0  0  0  0  0  0  # atno 7974 bound_to 7965
  155.7401  140.0813  157.2249 H   0  0  0  0  0  0  0  0  0  0  0  0  # atno 8008 bound_to 7997
  154.4023  140.1579  156.2662 H   0  0  0  0  0  0  0  0  0  0  0  0  # atno 8009 bound_to 7997
  155.9028  140.3408  155.6042 H   0  0  0  0  0  0  0  0  0  0  0  0  # atno 8010 bound_to 7997
  140.1459  143.4240  152.1529 H   0  0  0  0  0  0  0  0  0  0  0  0  # atno 10167 bound_to 10162
  157.6837  131.0012  150.2253 H   0  0  0  0  0  0  0  0  0  0  0  0  # atno 10718 bound_to 10713
  153.1846  135.6833  153.8433 H   0  0  0  0  0  0  0  0  0  0  0  0  # atno 10763 bound_to 10752
  153.7753  135.3190  155.3359 H   0  0  0  0  0  0  0  0  0  0  0  0  # atno 10764 bound_to 10752
  154.8080  135.4735  154.0539 H   0  0  0  0  0  0  0  0  0  0  0  0  # atno 10765 bound_to 10752
  141.1352  133.8228  157.0809 H   0  0  0  0  0  0  0  0  0  0  0  0  # atno 11005 bound_to 11000
  146.3147  139.7876  142.8992 LP  0  0  0  0  0  0  0  0  0  0  0  0  # atno 17320 bound_to 7965
  145.3491  141.0304  143.3349 LP  0  0  0  0  0  0  0  0  0  0  0  0  # atno 17321 bound_to 7965
  139.5449  144.7290  151.4614 LP  0  0  0  0  0  0  0  0  0  0  0  0  # atno 17342 bound_to 10162
  140.6732  143.8247  150.7025 LP  0  0  0  0  0  0  0  0  0  0  0  0  # atno 17343 bound_to 10162
  156.2897  130.3744  149.7854 LP  0  0  0  0  0  0  0  0  0  0  0  0  # atno 17370 bound_to 10713
  156.5517  130.8345  151.3301 LP  0  0  0  0  0  0  0  0  0  0  0  0  # atno 17371 bound_to 10713
  140.0452  134.9834  157.1035 LP  0  0  0  0  0  0  0  0  0  0  0  0  # atno 17394 bound_to 11000
  140.4074  134.2018  155.7163 LP  0  0  0  0  0  0  0  0  0  0  0  0  # atno 17395 bound_to 11000

$$$$
