AV-unprocessed.smi:703|AV-procd|sdf|3434|dock3
  -GOLD-   22720 0423D 1   1.00000     0.00000
 Structure written by MMmdl.
 37 38  0  0  0  0  0  0  0  0  3 V2000
  150.0954  137.6299  154.7600 C   0  0  0  0  0  0  0  0  0  0  0  0
  150.4658  136.1662  155.0343 C   0  0  0  0  0  0  0  0  0  0  0  0
  149.4407  135.2222  154.5259 N   0  3  1  0  0  0  0  0  0  0  0  0
  149.8619  133.8008  154.5007 C   0  0  0  0  0  0  0  0  0  0  0  0
  148.5883  132.9928  154.7696 C   0  0  1  0  0  0  0  0  0  0  0  0
  148.8280  131.5271  155.1896 C   0  0  0  0  0  0  0  0  0  0  0  0
  147.7957  133.8926  155.7358 C   0  0  1  0  0  0  0  0  0  0  0  0
  148.2756  133.7472  157.1056 N   0  5  0  0  0  0  0  0  0  0  0  0
  148.2105  135.0162  158.1108 S   0  0  0  0  0  0  0  0  0  0  0  0
  149.5287  135.6394  158.3117 O   0  0  0  0  0  0  0  0  0  0  0  0
  147.0843  135.9154  157.8112 O   0  0  0  0  0  0  0  0  0  0  0  0
  147.7890  134.1723  159.6946 C   0  0  0  0  0  0  0  0  0  0  0  0
  147.5823  135.1877  160.7834 C   0  0  0  0  0  0  0  0  0  0  0  0
  147.2897  134.9662  162.1579 C   0  0  0  0  0  0  0  0  0  0  0  0
  147.2130  136.2267  162.6754 C   0  0  0  0  0  0  0  0  0  0  0  0
  147.4471  137.1516  161.7107 O   0  0  0  0  0  0  0  0  0  0  0  0
  147.6856  136.4786  160.5069 N   0  0  0  0  0  0  0  0  0  0  0  0
  148.1353  135.3043  155.2314 C   0  0  0  0  0  0  0  0  0  0  0  0
  150.8316  138.3020  155.2015 H   0  0  0  0  0  0  0  0  0  0  0  0
  149.1230  137.8776  155.1864 H   0  0  0  0  0  0  0  0  0  0  0  0
  150.0588  137.8429  153.6914 H   0  0  0  0  0  0  0  0  0  0  0  0
  151.4373  135.9296  154.5975 H   0  0  0  0  0  0  0  0  0  0  0  0
  150.5637  136.0272  156.1117 H   0  0  0  0  0  0  0  0  0  0  0  0
  150.3142  133.5451  153.5419 H   0  0  0  0  0  0  0  0  0  0  0  0
  150.6108  133.6092  155.2740 H   0  0  0  0  0  0  0  0  0  0  0  0
  148.0238  132.9655  153.8358 H   0  0  0  0  0  0  0  0  0  0  0  0
  149.4422  131.4453  156.0881 H   0  0  0  0  0  0  0  0  0  0  0  0
  149.3472  130.9857  154.3986 H   0  0  0  0  0  0  0  0  0  0  0  0
  147.8903  131.0014  155.3780 H   0  0  0  0  0  0  0  0  0  0  0  0
  146.7254  133.7033  155.6466 H   0  0  0  0  0  0  0  0  0  0  0  0
  146.8879  133.5799  159.5372 H   0  0  0  0  0  0  0  0  0  0  0  0
  148.5997  133.4861  159.9402 H   0  0  0  0  0  0  0  0  0  0  0  0
  147.1509  134.0297  162.6775 H   0  0  0  0  0  0  0  0  0  0  0  0
  147.0117  136.6119  163.6640 H   0  0  0  0  0  0  0  0  0  0  0  0
  148.1274  136.0494  156.0296 H   0  0  0  0  0  0  0  0  0  0  0  0
  147.3895  135.6214  154.5017 H   0  0  0  0  0  0  0  0  0  0  0  0
  149.2482  135.4839  153.5699 H   0  0  0  0  0  0  0  0  0  0  0  0
  1  2  1  0  0  0  0
  1 19  1  0  0  0  0
  1 20  1  0  0  0  0
  1 21  1  0  0  0  0
  2  3  1  0  0  0  0
  2 22  1  0  0  0  0
  2 23  1  0  0  0  0
  3 18  1  0  0  0  0
  3  4  1  0  0  0  0
  3 37  1  0  0  0  0
  4  5  1  0  0  0  0
  4 24  1  0  0  0  0
  4 25  1  0  0  0  0
  5  6  1  0  0  0  0
  5  7  1  0  0  0  0
  5 26  1  0  0  0  0
  6 27  1  0  0  0  0
  6 28  1  0  0  0  0
  6 29  1  0  0  0  0
  7  8  1  0  0  0  0
  7 18  1  0  0  0  0
  7 30  1  0  0  0  0
  8  9  1  0  0  0  0
  9 10  2  0  0  0  0
  9 11  2  0  0  0  0
  9 12  1  0  0  0  0
 12 13  1  0  0  0  0
 12 31  1  0  0  0  0
 12 32  1  0  0  0  0
 13 17  2  0  0  0  0
 13 14  1  0  0  0  0
 14 15  2  0  0  0  0
 14 33  1  0  0  0  0
 15 16  1  0  0  0  0
 15 34  1  0  0  0  0
 16 17  1  0  0  0  0
 18 35  1  0  0  0  0
 18 36  1  0  0  0  0
M  CHG  1   3   1
M  CHG  1   8  -1
M  END
> <s_m_source_file>
AV-unprocessed.smi

> <i_m_source_file_index>
703

> <i_lp_mmshare_version>
43012

> <i_f3d_flags>
0

> <s_epik_input>
W0NIM11bQ0gyXU4xW0NIMl1bQ0BASF0oW0NIM10pW0NASF0oW0NIMl0xKVtOSF1TKD1PKSg9TylbQ0gyXWMyW2NIXVtjSF1vbjI=

> <s_epik_cmdline>
J2VwaWtfcHl0aG9uJywgJy1waCcsICc3LjAnLCAnLXRuJywgJzgnLCAnLW1hJywgJzIwMCcsICctbWV0YWxfYmluZGluZycsICctaW1hZScsICc8aW5maWxlLm1hZT4nLCAnLW9tYWUnLCAnPG91dGZpbGUubWFlPic=

> <r_epik_Ionization_Penalty>
3.62494

> <r_epik_Ionization_Penalty_Charging>
3.62494

> <r_epik_Ionization_Penalty_Neutral>
2.0321e-10

> <r_epik_State_Penalty>
3.62558

> <r_epik_Charging_Adjusted_Penalty>
7.25052

> <i_epik_Tot_Q>
0

> <i_epik_Tot_abs_Q>
2

> <r_epik_Metal_State_Penalty>
0.530836

> <b_epik_Metal_Only>
1

> <s_lp_Force_Field>
OPLS_2005

> <r_lp_Energy>
18.2255

> <b_lp_Chiralities_Consistent>
1

> <s_lp_Variant>
AV-unprocessed.smi:703-9

> <Gold.Version>
5.8.1

> <Gold.Id.Protein>
6NUR|6NUR_protein|mol2

> <Gold.PLP.Fitness>
39.2343

> <Gold.PLP.PLP>
-26.1599

> <Gold.PLP.part.hbond>
-4.0000

> <Gold.PLP.part.metal>
0.0000

> <Gold.PLP.part.buried>
-3.7520

> <Gold.PLP.part.nonpolar>
-18.6333

> <Gold.PLP.part.repulsive>
0.0322

> <Gold.PLP.ligand.clash>
0.0000

> <Gold.PLP.ligand.torsion>
1.0221

> <Gold.PLP.Chemscore.Hbond>
4.6912

> <Gold.PLP.Chemscore.CHOScore>
0.0000

> <Gold.PLP.Chemscore.Metal>
0.0000

> <Gold.Chemscore.Hbonds>
donor molecule, donor type, donor heavy atom, donor atom, acceptor molecule, acceptor atom, score
      L1  H     3    37       P1  7948  2.00
      P1  H  6896  6909       L1    10  1.00
      P1  H  6931  6943       L1    16  0.94
      P1  H  6934  6947       L1    16  0.73

> <Gold.PLP.Chemscore.Internal.Correction>
1.0450

> <Gold.Rescore>
     Score         DG    S(hbond)    S(metal)    S(lipo)     H(rot)  DE(clash)    DE(int)     intcor
     13.13     -17.14       2.76        0.00      56.63       1.63       0.03       3.97       ----

> <Gold.Chemscore.Fitness>
13.1345

> <Gold.Chemscore.DG>
-17.1353

> <Gold.Chemscore.ZeroCoef>
-5.4800

> <Gold.Chemscore.Hbond>
2.7582

> <Gold.Chemscore.Metal>
0.0000

> <Gold.Chemscore.Lipo>
56.6274

> <Gold.Chemscore.Internal_Hbond>
0.0000

> <Gold.Chemscore.DEClash>
0.0270

> <Gold.Chemscore.DEInternal>
3.9738

> <Gold.Chemscore.Rot>
1.6338

> <Gold.Chemscore.Internal.Correction>
   9.000000E+99

> <Gold.Chemscore.Hbonds>
donor molecule, donor type, donor heavy atom, donor atom, acceptor molecule, acceptor atom, score
      L1  H     3    37       P1  7948  0.45
      P1  H  6896  6909       L1    10  0.83
      P1  H  6931  6943       L1    16  0.34
      P1  H  6934  6947       L1    16  0.13

> <Gold.Chemscore.Hbond.Weighted>
-9.2124

> <Gold.Chemscore.Metal.Weighted>
-0.0000

> <Gold.Chemscore.Lipo.Weighted>
-6.6254

> <Gold.Chemscore.Internal_Hbond.Weighted>
0.0000

> <Gold.Chemscore.DEClash.Weighted>
0.0270

> <Gold.Chemscore.DEInternal.Weighted>
3.9738

> <Gold.Chemscore.Rot.Weighted>
4.1825

> <Gold.Chemscore.Internal.Correction.Weighted>
   9.000000E+99

> <Gold.Protein.RotatedTorsions>
[ 6907 6896 6895 6894 ] final   51.96 input  -60.11 | X-H torsion
[ 7974 7965 7964 7962 ] final  -43.58 input  175.53 | X-H torsion
[ 8008 7997 7996 7995 ] final  -25.38 input   59.86 | X-H torsion
[ 10167 10162 10161 10158 ] final  161.09 input  -65.29 | X-H torsion
[ 10718 10713 10712 10709 ] final  124.27 input   66.30 | X-H torsion
[ 10763 10752 10751 10750 ] final  110.50 input  -60.55 | X-H torsion
[ 11005 11000 10999 10996 ] final   -1.48 input  -57.11 | X-H torsion

> <Gold.Protein.ActiveResidues>
 VAL166  LYS551  ARG553  GLY616  TRP617  ASP618  TYR619  PRO620  LYS621  CYS622 
 ASP623  PHE694  ASN695  SER759  ASP760  ASP761  ALA762  ILE779  LEU786  VAL792 
 PHE793  MET794  SER795  GLU796  ALA797  LYS798  CYS799  TRP800  GLU811  SER814 

> <Gold.Protein.RotatedAtoms>
  152.3182  134.7413  160.0319 H   0  0  0  0  0  0  0  0  0  0  0  0  # atno 6907 bound_to 6896
  151.7870  133.3350  159.3496 H   0  0  0  0  0  0  0  0  0  0  0  0  # atno 6908 bound_to 6896
  150.7356  134.5808  159.5982 H   0  0  0  0  0  0  0  0  0  0  0  0  # atno 6909 bound_to 6896
  146.0005  140.7080  142.9273 H   0  0  0  0  0  0  0  0  0  0  0  0  # atno 7974 bound_to 7965
  154.4479  140.1928  156.0611 H   0  0  0  0  0  0  0  0  0  0  0  0  # atno 8008 bound_to 7997
  156.0582  140.3300  155.7403 H   0  0  0  0  0  0  0  0  0  0  0  0  # atno 8009 bound_to 7997
  155.5453  140.0590  157.2852 H   0  0  0  0  0  0  0  0  0  0  0  0  # atno 8010 bound_to 7997
  139.4846  144.4571  151.8754 H   0  0  0  0  0  0  0  0  0  0  0  0  # atno 10167 bound_to 10162
  157.5598  131.1090  150.8558 H   0  0  0  0  0  0  0  0  0  0  0  0  # atno 10718 bound_to 10713
  153.4498  135.3746  155.2277 H   0  0  0  0  0  0  0  0  0  0  0  0  # atno 10763 bound_to 10752
  154.8756  135.3883  154.4052 H   0  0  0  0  0  0  0  0  0  0  0  0  # atno 10764 bound_to 10752
  153.4609  135.7086  153.6114 H   0  0  0  0  0  0  0  0  0  0  0  0  # atno 10765 bound_to 10752
  140.6478  133.9432  155.8362 H   0  0  0  0  0  0  0  0  0  0  0  0  # atno 11005 bound_to 11000
  144.6918  140.3225  143.7230 LP  0  0  0  0  0  0  0  0  0  0  0  0  # atno 17320 bound_to 7965
  145.7495  139.1789  143.2330 LP  0  0  0  0  0  0  0  0  0  0  0  0  # atno 17321 bound_to 7965
  140.4031  144.2467  150.5892 LP  0  0  0  0  0  0  0  0  0  0  0  0  # atno 17342 bound_to 10162
  140.5038  143.2310  151.8638 LP  0  0  0  0  0  0  0  0  0  0  0  0  # atno 17343 bound_to 10162
  156.9059  130.5263  149.5281 LP  0  0  0  0  0  0  0  0  0  0  0  0  # atno 17370 bound_to 10713
  156.0652  130.5697  150.9274 LP  0  0  0  0  0  0  0  0  0  0  0  0  # atno 17371 bound_to 10713
  141.0559  134.0416  157.3722 LP  0  0  0  0  0  0  0  0  0  0  0  0  # atno 17394 bound_to 11000
  139.9057  135.0178  156.7473 LP  0  0  0  0  0  0  0  0  0  0  0  0  # atno 17395 bound_to 11000

$$$$
