AV-unprocessed.smi:1629|AV-procd|sdf|6522|dock6
  -GOLD-   22720 7193D 1   1.00000     0.00000
 Structure written by MMmdl.
 45 46  0  0  0  0  0  0  0  0  2 V2000
  148.2065  135.0361  163.0031 C   0  0  0  0  0  0  0  0  0  0  0  0
  147.3411  136.5337  162.3821 S   0  0  0  0  0  0  0  0  0  0  0  0
  145.9776  136.5591  162.9324 O   0  0  0  0  0  0  0  0  0  0  0  0
  148.2344  137.6892  162.5577 O   0  0  0  0  0  0  0  0  0  0  0  0
  147.2136  136.2086  160.6907 N   0  0  0  0  0  0  0  0  0  0  0  0
  148.4340  136.0165  159.9021 C   0  0  0  0  0  0  0  0  0  0  0  0
  149.3793  137.2291  160.0508 C   0  0  0  0  0  0  0  0  0  0  0  0
  150.5752  137.1194  159.0874 C   0  0  0  0  0  0  0  0  0  0  0  0
  150.0709  136.9824  157.7099 N   0  0  0  0  0  0  0  0  0  0  0  0
  150.0976  137.9391  156.7477 C   0  0  0  0  0  0  0  0  0  0  0  0
  149.9698  137.6946  155.5470 O   0  0  0  0  0  0  0  0  0  0  0  0
  150.3266  139.1837  157.1973 N   0  0  0  0  0  0  0  0  0  0  0  0
  150.4456  140.3602  156.3474 C   0  0  0  0  0  0  0  0  0  0  0  0
  149.8633  141.5962  157.0464 C   0  0  0  0  0  0  0  0  0  0  0  0
  150.9457  142.5337  157.5466 C   0  0  0  0  0  0  0  0  0  0  0  0
  151.9350  142.1162  158.4635 C   0  0  0  0  0  0  0  0  0  0  0  0
  152.9197  143.0358  158.8811 C   0  0  0  0  0  0  0  0  0  0  0  0
  152.8954  144.3513  158.3732 C   0  0  0  0  0  0  0  0  0  0  0  0
  151.8863  144.7140  157.4579 C   0  0  0  0  0  0  0  0  0  0  0  0
  150.9606  143.8042  157.0817 N   0  3  0  0  0  0  0  0  0  0  0  0
  149.3201  135.7316  157.5401 C   0  0  0  0  0  0  0  0  0  0  0  0
  148.0617  135.7756  158.4253 C   0  0  0  0  0  0  0  0  0  0  0  0
  148.3587  135.1251  164.0785 H   0  0  0  0  0  0  0  0  0  0  0  0
  149.1731  134.9431  162.5078 H   0  0  0  0  0  0  0  0  0  0  0  0
  147.6040  134.1525  162.7940 H   0  0  0  0  0  0  0  0  0  0  0  0
  146.5838  136.8706  160.2379 H   0  0  0  0  0  0  0  0  0  0  0  0
  148.9469  135.1264  160.2682 H   0  0  0  0  0  0  0  0  0  0  0  0
  148.8352  138.1526  159.8469 H   0  0  0  0  0  0  0  0  0  0  0  0
  149.7418  137.3024  161.0766 H   0  0  0  0  0  0  0  0  0  0  0  0
  151.2403  137.9699  159.2346 H   0  0  0  0  0  0  0  0  0  0  0  0
  151.1716  136.2406  159.3369 H   0  0  0  0  0  0  0  0  0  0  0  0
  150.4382  139.3168  158.1920 H   0  0  0  0  0  0  0  0  0  0  0  0
  151.4970  140.5307  156.1094 H   0  0  0  0  0  0  0  0  0  0  0  0
  149.9261  140.1766  155.4056 H   0  0  0  0  0  0  0  0  0  0  0  0
  149.2102  142.1410  156.3628 H   0  0  0  0  0  0  0  0  0  0  0  0
  149.2409  141.2902  157.8886 H   0  0  0  0  0  0  0  0  0  0  0  0
  151.9427  141.1039  158.8410 H   0  0  0  0  0  0  0  0  0  0  0  0
  153.6853  142.7356  159.5816 H   0  0  0  0  0  0  0  0  0  0  0  0
  153.6404  145.0707  158.6808 H   0  0  0  0  0  0  0  0  0  0  0  0
  151.7925  145.6964  157.0186 H   0  0  0  0  0  0  0  0  0  0  0  0
  149.0396  135.5465  156.5022 H   0  0  0  0  0  0  0  0  0  0  0  0
  149.9514  134.8898  157.8281 H   0  0  0  0  0  0  0  0  0  0  0  0
  147.5046  134.8434  158.3260 H   0  0  0  0  0  0  0  0  0  0  0  0
  147.4023  136.5700  158.0719 H   0  0  0  0  0  0  0  0  0  0  0  0
  150.2403  144.0889  156.4175 H   0  0  0  0  0  0  0  0  0  0  0  0
  1  2  1  0  0  0  0
  1 23  1  0  0  0  0
  1 24  1  0  0  0  0
  1 25  1  0  0  0  0
  2  3  2  0  0  0  0
  2  4  2  0  0  0  0
  2  5  1  0  0  0  0
  5  6  1  0  0  0  0
  5 26  1  0  0  0  0
  6 22  1  0  0  0  0
  6  7  1  0  0  0  0
  6 27  1  0  0  0  0
  7  8  1  0  0  0  0
  7 28  1  0  0  0  0
  7 29  1  0  0  0  0
  8  9  1  0  0  0  0
  8 30  1  0  0  0  0
  8 31  1  0  0  0  0
  9 10  1  0  0  0  0
  9 21  1  0  0  0  0
 10 11  2  0  0  0  0
 10 12  1  0  0  0  0
 12 13  1  0  0  0  0
 12 32  1  0  0  0  0
 13 14  1  0  0  0  0
 13 33  1  0  0  0  0
 13 34  1  0  0  0  0
 14 15  1  0  0  0  0
 14 35  1  0  0  0  0
 14 36  1  0  0  0  0
 15 20  1  0  0  0  0
 15 16  2  0  0  0  0
 16 17  1  0  0  0  0
 16 37  1  0  0  0  0
 17 18  2  0  0  0  0
 17 38  1  0  0  0  0
 18 19  1  0  0  0  0
 18 39  1  0  0  0  0
 19 20  2  0  0  0  0
 19 40  1  0  0  0  0
 20 45  1  0  0  0  0
 21 22  1  0  0  0  0
 21 41  1  0  0  0  0
 21 42  1  0  0  0  0
 22 43  1  0  0  0  0
 22 44  1  0  0  0  0
M  CHG  1  20   1
M  END
> <s_m_source_file>
AV-unprocessed.smi

> <i_m_source_file_index>
1629

> <i_lp_mmshare_version>
43012

> <i_f3d_flags>
0

> <s_epik_input>
W0NIM11TKD1PKSg9TylbTkhdW0NIXTFbQ0gyXVtDSDJdTihbQ0gyXVtDSDJdMSlDKD1PKVtOSF1bQ0gyXVtDSDJdYzJbY0hdW2NIXVtjSF1bY0hdbjI=

> <s_epik_cmdline>
J2VwaWtfcHl0aG9uJywgJy1waCcsICc3LjAnLCAnLXRuJywgJzgnLCAnLW1hJywgJzIwMCcsICctbWV0YWxfYmluZGluZycsICctaW1hZScsICc8aW5maWxlLm1hZT4nLCAnLW9tYWUnLCAnPG91dGZpbGUubWFlPic=

> <r_epik_Ionization_Penalty>
1.55223

> <r_epik_Ionization_Penalty_Charging>
1.55216

> <r_epik_Ionization_Penalty_Neutral>
6.06433e-05

> <r_epik_State_Penalty>
1.64647

> <r_epik_Charging_Adjusted_Penalty>
3.19864

> <i_epik_Tot_Q>
1

> <i_epik_Tot_abs_Q>
1

> <r_epik_Metal_State_Penalty>
1.69511

> <b_epik_Metal_Only>
0

> <s_lp_Force_Field>
OPLS_2005

> <r_lp_Energy>
29.0489

> <b_lp_Chiralities_Consistent>
1

> <s_lp_Variant>
AV-unprocessed.smi:1629-2

> <Gold.Version>
5.8.1

> <Gold.Id.Protein>
6NUR|6NUR_protein|mol2

> <Gold.PLP.Fitness>
44.6079

> <Gold.PLP.PLP>
-35.1630

> <Gold.PLP.part.hbond>
-3.0000

> <Gold.PLP.part.metal>
0.0000

> <Gold.PLP.part.buried>
-5.2007

> <Gold.PLP.part.nonpolar>
-27.6848

> <Gold.PLP.part.repulsive>
0.1286

> <Gold.PLP.ligand.clash>
0.0000

> <Gold.PLP.ligand.torsion>
0.7586

> <Gold.PLP.Chemscore.Hbond>
3.5892

> <Gold.PLP.Chemscore.CHOScore>
0.0000

> <Gold.PLP.Chemscore.Metal>
0.0000

> <Gold.Chemscore.Hbonds>
donor molecule, donor type, donor heavy atom, donor atom, acceptor molecule, acceptor atom, score
      L1  H    20    45       P1  8028  2.00
      P1  H  6931  6943       L1     4  0.02
      P1  H  6934  6947       L1     4  0.04

> <Gold.PLP.Chemscore.Internal.Correction>
0.1946

> <Gold.Rescore>
     Score         DG    S(hbond)    S(metal)    S(lipo)     H(rot)  DE(clash)    DE(int)     intcor
     17.44     -19.90       2.66        0.00      94.11       2.13       0.26       2.21       ----

> <Gold.Chemscore.Fitness>
17.4411

> <Gold.Chemscore.DG>
-19.9017

> <Gold.Chemscore.ZeroCoef>
-5.4800

> <Gold.Chemscore.Hbond>
2.6559

> <Gold.Chemscore.Metal>
0.0000

> <Gold.Chemscore.Lipo>
94.1079

> <Gold.Chemscore.Internal_Hbond>
0.0000

> <Gold.Chemscore.DEClash>
0.2556

> <Gold.Chemscore.DEInternal>
2.2050

> <Gold.Chemscore.Rot>
2.1326

> <Gold.Chemscore.Internal.Correction>
   9.000000E+99

> <Gold.Chemscore.Hbonds>
donor molecule, donor type, donor heavy atom, donor atom, acceptor molecule, acceptor atom, score
      L1  H    20    45       P1  8028  1.00
      P1  H  6931  6943       L1     4  0.06
      P1  H  6934  6947       L1     4  0.01

> <Gold.Chemscore.Hbond.Weighted>
-8.8706

> <Gold.Chemscore.Metal.Weighted>
-0.0000

> <Gold.Chemscore.Lipo.Weighted>
-11.0106

> <Gold.Chemscore.Internal_Hbond.Weighted>
0.0000

> <Gold.Chemscore.DEClash.Weighted>
0.2556

> <Gold.Chemscore.DEInternal.Weighted>
2.2050

> <Gold.Chemscore.Rot.Weighted>
5.4595

> <Gold.Chemscore.Internal.Correction.Weighted>
   9.000000E+99

> <Gold.Protein.RotatedTorsions>
[ 6907 6896 6895 6894 ] final   44.75 input  -60.11 | X-H torsion
[ 7974 7965 7964 7962 ] final   95.56 input  175.53 | X-H torsion
[ 8008 7997 7996 7995 ] final -104.98 input   59.86 | X-H torsion
[ 10167 10162 10161 10158 ] final   27.02 input  -65.29 | X-H torsion
[ 10718 10713 10712 10709 ] final  -24.80 input   66.30 | X-H torsion
[ 10763 10752 10751 10750 ] final  -97.91 input  -60.55 | X-H torsion
[ 11005 11000 10999 10996 ] final  -28.89 input  -57.11 | X-H torsion

> <Gold.Protein.ActiveResidues>
 VAL166  LYS551  ARG553  GLY616  TRP617  ASP618  TYR619  PRO620  LYS621  CYS622 
 ASP623  PHE694  ASN695  SER759  ASP760  ASP761  ALA762  ILE779  LEU786  VAL792 
 PHE793  MET794  SER795  GLU796  ALA797  LYS798  CYS799  TRP800  GLU811  SER814 

> <Gold.Protein.RotatedAtoms>
  152.2363  134.8273  160.0466 H   0  0  0  0  0  0  0  0  0  0  0  0  # atno 6907 bound_to 6896
  151.9004  133.3531  159.3837 H   0  0  0  0  0  0  0  0  0  0  0  0  # atno 6908 bound_to 6896
  150.7040  134.4760  159.5492 H   0  0  0  0  0  0  0  0  0  0  0  0  # atno 6909 bound_to 6896
  145.4506  139.2293  143.3042 H   0  0  0  0  0  0  0  0  0  0  0  0  # atno 7974 bound_to 7965
  154.8931  140.0415  157.1850 H   0  0  0  0  0  0  0  0  0  0  0  0  # atno 8008 bound_to 7997
  154.8520  140.2931  155.5571 H   0  0  0  0  0  0  0  0  0  0  0  0  # atno 8009 bound_to 7997
  156.2996  140.2463  156.3480 H   0  0  0  0  0  0  0  0  0  0  0  0  # atno 8010 bound_to 7997
  140.4973  144.0371  150.6319 H   0  0  0  0  0  0  0  0  0  0  0  0  # atno 10167 bound_to 10162
  156.4728  130.4528  149.6859 H   0  0  0  0  0  0  0  0  0  0  0  0  # atno 10718 bound_to 10713
  154.7369  135.5029  153.9057 H   0  0  0  0  0  0  0  0  0  0  0  0  # atno 10763 bound_to 10752
  153.1004  135.6683  153.9692 H   0  0  0  0  0  0  0  0  0  0  0  0  # atno 10764 bound_to 10752
  153.9479  135.3061  155.3419 H   0  0  0  0  0  0  0  0  0  0  0  0  # atno 10765 bound_to 10752
  140.9248  133.7376  156.0852 H   0  0  0  0  0  0  0  0  0  0  0  0  # atno 11005 bound_to 11000
  146.2506  140.5265  142.8895 LP  0  0  0  0  0  0  0  0  0  0  0  0  # atno 17320 bound_to 7965
  144.8064  140.6307  143.6444 LP  0  0  0  0  0  0  0  0  0  0  0  0  # atno 17321 bound_to 7965
  140.3657  143.2883  152.0334 LP  0  0  0  0  0  0  0  0  0  0  0  0  # atno 17342 bound_to 10162
  139.4864  144.6269  151.7147 LP  0  0  0  0  0  0  0  0  0  0  0  0  # atno 17343 bound_to 10162
  156.3601  130.7477  151.2448 LP  0  0  0  0  0  0  0  0  0  0  0  0  # atno 17370 bound_to 10713
  157.7490  131.0353  150.4355 LP  0  0  0  0  0  0  0  0  0  0  0  0  # atno 17371 bound_to 10713
  140.7940  134.3584  157.5457 LP  0  0  0  0  0  0  0  0  0  0  0  0  # atno 17394 bound_to 11000
  139.8783  134.9158  156.3139 LP  0  0  0  0  0  0  0  0  0  0  0  0  # atno 17395 bound_to 11000

$$$$
