AV-unprocessed.smi:1641|AV-procd|sdf|6564|dock7
  -GOLD-   22720 7253D 1   1.00000     0.00000
 Structure written by MMmdl.
 40 41  0  0  0  0  0  0  0  0  2 V2000
  148.3481  122.4225  151.0622 C   0  0  0  0  0  0  0  0  0  0  0  0
  148.0884  123.8569  151.3716 C   0  0  0  0  0  0  0  0  0  0  0  0
  147.6692  124.2757  152.5683 N   0  0  0  0  0  0  0  0  0  0  0  0
  147.4983  125.6520  152.6101 N   0  0  0  0  0  0  0  0  0  0  0  0
  147.7773  126.2521  151.4440 C   0  0  0  0  0  0  0  0  0  0  0  0
  147.6784  127.5810  151.2742 N   0  5  0  0  0  0  0  0  0  0  0  0
  147.0549  128.3371  152.2065 C   0  0  0  0  0  0  0  0  0  0  0  0
  146.5514  127.9311  153.2563 O   0  0  0  0  0  0  0  0  0  0  0  0
  147.0121  129.6410  151.8985 N   0  0  0  0  0  0  0  0  0  0  0  0
  146.3933  130.6975  152.6914 C   0  0  0  0  0  0  0  0  0  0  0  0
  146.7719  132.0734  152.1199 C   0  0  0  0  0  0  0  0  0  0  0  0
  145.6487  132.8659  151.6217 N   0  0  0  0  0  0  0  0  0  0  0  0
  145.0437  132.2365  150.4553 C   0  0  0  0  0  0  0  0  0  0  0  0
  143.8287  133.0280  149.9397 C   0  0  2  0  0  0  0  0  0  0  0  0
  143.2379  132.4133  148.6668 C   0  0  0  0  0  0  0  0  0  0  0  0
  144.2268  134.3656  149.6439 O   0  0  0  0  0  0  0  0  0  0  0  0
  144.8633  135.0620  150.7167 C   0  0  1  0  0  0  0  0  0  0  0  0
  143.8542  135.4927  151.7949 C   0  0  0  0  0  0  0  0  0  0  0  0
  146.0367  134.2319  151.2762 C   0  0  0  0  0  0  0  0  0  0  0  0
  148.3039  125.1339  150.1864 S   0  0  0  0  0  0  0  0  0  0  0  0
  147.4353  121.9493  150.6999 H   0  0  0  0  0  0  0  0  0  0  0  0
  148.6873  121.8957  151.9546 H   0  0  0  0  0  0  0  0  0  0  0  0
  149.1170  122.3365  150.2943 H   0  0  0  0  0  0  0  0  0  0  0  0
  147.4431  129.9208  151.0297 H   0  0  0  0  0  0  0  0  0  0  0  0
  145.3067  130.6000  152.7079 H   0  0  0  0  0  0  0  0  0  0  0  0
  146.7399  130.5873  153.7184 H   0  0  0  0  0  0  0  0  0  0  0  0
  147.3218  132.6438  152.8701 H   0  0  0  0  0  0  0  0  0  0  0  0
  147.4719  131.9055  151.2998 H   0  0  0  0  0  0  0  0  0  0  0  0
  145.7851  132.1439  149.6599 H   0  0  0  0  0  0  0  0  0  0  0  0
  144.7288  131.2229  150.7064 H   0  0  0  0  0  0  0  0  0  0  0  0
  143.0519  133.0418  150.7048 H   0  0  0  0  0  0  0  0  0  0  0  0
  142.9061  131.3898  148.8432 H   0  0  0  0  0  0  0  0  0  0  0  0
  143.9713  132.3937  147.8601 H   0  0  0  0  0  0  0  0  0  0  0  0
  142.3773  132.9864  148.3209 H   0  0  0  0  0  0  0  0  0  0  0  0
  145.2754  135.9750  150.2861 H   0  0  0  0  0  0  0  0  0  0  0  0
  144.3353  136.1174  152.5476 H   0  0  0  0  0  0  0  0  0  0  0  0
  143.4177  134.6389  152.3130 H   0  0  0  0  0  0  0  0  0  0  0  0
  143.0402  136.0708  151.3572 H   0  0  0  0  0  0  0  0  0  0  0  0
  146.4484  134.7448  152.1448 H   0  0  0  0  0  0  0  0  0  0  0  0
  146.8332  134.2028  150.5309 H   0  0  0  0  0  0  0  0  0  0  0  0
  1  2  1  0  0  0  0
  1 21  1  0  0  0  0
  1 22  1  0  0  0  0
  1 23  1  0  0  0  0
  2 20  1  0  0  0  0
  2  3  2  0  0  0  0
  3  4  1  0  0  0  0
  4  5  2  0  0  0  0
  5  6  1  0  0  0  0
  5 20  1  0  0  0  0
  6  7  1  0  0  0  0
  7  8  2  0  0  0  0
  7  9  1  0  0  0  0
  9 10  1  0  0  0  0
  9 24  1  0  0  0  0
 10 11  1  0  0  0  0
 10 25  1  0  0  0  0
 10 26  1  0  0  0  0
 11 12  1  0  0  0  0
 11 27  1  0  0  0  0
 11 28  1  0  0  0  0
 12 19  1  0  0  0  0
 12 13  1  0  0  0  0
 13 14  1  0  0  0  0
 13 29  1  0  0  0  0
 13 30  1  0  0  0  0
 14 15  1  0  0  0  0
 14 16  1  0  0  0  0
 14 31  1  0  0  0  0
 15 32  1  0  0  0  0
 15 33  1  0  0  0  0
 15 34  1  0  0  0  0
 16 17  1  0  0  0  0
 17 18  1  0  0  0  0
 17 19  1  0  0  0  0
 17 35  1  0  0  0  0
 18 36  1  0  0  0  0
 18 37  1  0  0  0  0
 18 38  1  0  0  0  0
 19 39  1  0  0  0  0
 19 40  1  0  0  0  0
M  CHG  1   6  -1
M  END
> <s_m_source_file>
AV-unprocessed.smi

> <i_m_source_file_index>
1641

> <i_lp_mmshare_version>
43012

> <i_f3d_flags>
0

> <s_epik_input>
W0NIM11jMW5uYyhzMSlbTkhdQyg9TylbTkhdW0NIMl1bQ0gyXU4yW0NIMl1bQ0BASF0oW0NIM10pT1tDQEBIXShbQ0gzXSlbQ0gyXTI=

> <s_epik_cmdline>
J2VwaWtfcHl0aG9uJywgJy1waCcsICc3LjAnLCAnLXRuJywgJzgnLCAnLW1hJywgJzIwMCcsICctbWV0YWxfYmluZGluZycsICctaW1hZScsICc8aW5maWxlLm1hZT4nLCAnLW9tYWUnLCAnPG91dGZpbGUubWFlPic=

> <r_lp_tautomer_probability>
1

> <r_epik_Ionization_Penalty>
3.81681

> <r_epik_Ionization_Penalty_Charging>
3.36369

> <r_epik_Ionization_Penalty_Neutral>
0.45313

> <r_epik_State_Penalty>
3.571

> <r_epik_Charging_Adjusted_Penalty>
6.93469

> <i_epik_Tot_Q>
-1

> <i_epik_Tot_abs_Q>
1

> <r_epik_Metal_State_Penalty>
0.710322

> <b_epik_Metal_Only>
1

> <s_lp_Force_Field>
OPLS_2005

> <r_lp_Energy>
21.0176

> <b_lp_Chiralities_Consistent>
1

> <s_lp_Variant>
AV-unprocessed.smi:1641-9

> <Gold.Version>
5.8.1

> <Gold.Id.Protein>
6NUR|6NUR_protein|mol2

> <Gold.PLP.Fitness>
38.3253

> <Gold.PLP.PLP>
-36.2734

> <Gold.PLP.part.hbond>
-1.8194

> <Gold.PLP.part.metal>
0.0000

> <Gold.PLP.part.buried>
-7.6110

> <Gold.PLP.part.nonpolar>
-28.4832

> <Gold.PLP.part.repulsive>
3.1736

> <Gold.PLP.ligand.clash>
0.0000

> <Gold.PLP.ligand.torsion>
0.4772

> <Gold.PLP.Chemscore.Hbond>
1.0000

> <Gold.PLP.Chemscore.CHOScore>
0.0000

> <Gold.PLP.Chemscore.Metal>
0.0000

> <Gold.Chemscore.Hbonds>
donor molecule, donor type, donor heavy atom, donor atom, acceptor molecule, acceptor atom, score
      L1  H     9    24       P1 10747  0.88

> <Gold.PLP.Chemscore.Internal.Correction>
0.0063

> <Gold.Rescore>
     Score         DG    S(hbond)    S(metal)    S(lipo)     H(rot)  DE(clash)    DE(int)     intcor
     10.77     -13.07       1.00        0.00      70.76       1.57       0.19       2.12       ----

> <Gold.Chemscore.Fitness>
10.7717

> <Gold.Chemscore.DG>
-13.0743

> <Gold.Chemscore.ZeroCoef>
-5.4800

> <Gold.Chemscore.Hbond>
0.9973

> <Gold.Chemscore.Metal>
0.0000

> <Gold.Chemscore.Lipo>
70.7615

> <Gold.Chemscore.Internal_Hbond>
0.0000

> <Gold.Chemscore.DEClash>
0.1870

> <Gold.Chemscore.DEInternal>
2.1156

> <Gold.Chemscore.Rot>
1.5686

> <Gold.Chemscore.Internal.Correction>
   9.000000E+99

> <Gold.Chemscore.Hbonds>
donor molecule, donor type, donor heavy atom, donor atom, acceptor molecule, acceptor atom, score
      L1  H     9    24       P1 10747  0.86

> <Gold.Chemscore.Hbond.Weighted>
-3.3309

> <Gold.Chemscore.Metal.Weighted>
-0.0000

> <Gold.Chemscore.Lipo.Weighted>
-8.2791

> <Gold.Chemscore.Internal_Hbond.Weighted>
0.0000

> <Gold.Chemscore.DEClash.Weighted>
0.1870

> <Gold.Chemscore.DEInternal.Weighted>
2.1156

> <Gold.Chemscore.Rot.Weighted>
4.0157

> <Gold.Chemscore.Internal.Correction.Weighted>
   9.000000E+99

> <Gold.Protein.RotatedTorsions>
[ 6907 6896 6895 6894 ] final   99.82 input  -60.11 | X-H torsion
[ 7974 7965 7964 7962 ] final   42.01 input  175.53 | X-H torsion
[ 8008 7997 7996 7995 ] final -164.94 input   59.86 | X-H torsion
[ 10167 10162 10161 10158 ] final   54.97 input  -65.29 | X-H torsion
[ 10718 10713 10712 10709 ] final   36.61 input   66.30 | X-H torsion
[ 10763 10752 10751 10750 ] final -164.40 input  -60.55 | X-H torsion
[ 11005 11000 10999 10996 ] final   52.05 input  -57.11 | X-H torsion

> <Gold.Protein.ActiveResidues>
 VAL166  LYS551  ARG553  GLY616  TRP617  ASP618  TYR619  PRO620  LYS621  CYS622 
 ASP623  PHE694  ASN695  SER759  ASP760  ASP761  ALA762  ILE779  LEU786  VAL792 
 PHE793  MET794  SER795  GLU796  ALA797  LYS798  CYS799  TRP800  GLU811  SER814 

> <Gold.Protein.RotatedAtoms>
  152.5384  134.0371  159.8050 H   0  0  0  0  0  0  0  0  0  0  0  0  # atno 6907 bound_to 6896
  151.0532  133.5598  159.2647 H   0  0  0  0  0  0  0  0  0  0  0  0  # atno 6908 bound_to 6896
  151.2525  135.0634  159.9121 H   0  0  0  0  0  0  0  0  0  0  0  0  # atno 6909 bound_to 6896
  146.0776  139.5349  142.9558 H   0  0  0  0  0  0  0  0  0  0  0  0  # atno 7974 bound_to 7965
  155.8427  140.0951  157.1724 H   0  0  0  0  0  0  0  0  0  0  0  0  # atno 8008 bound_to 7997
  154.3982  140.1398  156.3810 H   0  0  0  0  0  0  0  0  0  0  0  0  # atno 8009 bound_to 7997
  155.8046  140.3451  155.5425 H   0  0  0  0  0  0  0  0  0  0  0  0  # atno 8010 bound_to 7997
  140.2245  144.3753  150.6438 H   0  0  0  0  0  0  0  0  0  0  0  0  # atno 10167 bound_to 10162
  157.3370  130.7527  149.6885 H   0  0  0  0  0  0  0  0  0  0  0  0  # atno 10718 bound_to 10713
  154.7032  135.2992  154.9310 H   0  0  0  0  0  0  0  0  0  0  0  0  # atno 10763 bound_to 10752
  154.0235  135.6679  153.4778 H   0  0  0  0  0  0  0  0  0  0  0  0  # atno 10764 bound_to 10752
  153.0697  135.5068  154.8188 H   0  0  0  0  0  0  0  0  0  0  0  0  # atno 10765 bound_to 10752
  140.0881  134.5246  155.8879 H   0  0  0  0  0  0  0  0  0  0  0  0  # atno 11005 bound_to 11000
  145.6278  141.0310  143.1880 LP  0  0  0  0  0  0  0  0  0  0  0  0  # atno 17320 bound_to 7965
  144.7271  139.7840  143.7361 LP  0  0  0  0  0  0  0  0  0  0  0  0  # atno 17321 bound_to 7965
  140.6231  143.2178  151.6653 LP  0  0  0  0  0  0  0  0  0  0  0  0  # atno 17342 bound_to 10162
  139.5132  144.3451  152.0704 LP  0  0  0  0  0  0  0  0  0  0  0  0  # atno 17343 bound_to 10162
  155.9702  130.4179  150.4300 LP  0  0  0  0  0  0  0  0  0  0  0  0  # atno 17370 bound_to 10713
  157.2341  131.0511  151.2475 LP  0  0  0  0  0  0  0  0  0  0  0  0  # atno 17371 bound_to 10713
  141.2069  133.6659  156.6272 LP  0  0  0  0  0  0  0  0  0  0  0  0  # atno 17394 bound_to 11000
  140.3391  134.7864  157.4384 LP  0  0  0  0  0  0  0  0  0  0  0  0  # atno 17395 bound_to 11000

$$$$
