AV-unprocessed.smi:3162|AV-procd|sdf|12065|dock4
  -GOLD-   2272017493D 1   1.00000     0.00000
 Structure written by MMmdl.
 37 37  0  0  0  0  0  0  0  0  2 V2000
  147.3409  141.3493  153.3563 C   0  0  0  0  0  0  0  0  0  0  0  0
  146.9768  140.1040  154.1799 C   0  0  0  0  0  0  0  0  0  0  0  0
  147.2727  138.7601  153.4785 C   0  0  2  0  0  0  0  0  0  0  0  0
  148.7310  138.6513  153.2340 N   0  3  0  0  0  0  0  0  0  0  0  0
  149.6179  138.8761  154.4003 C   0  0  1  0  0  0  0  0  0  0  0  0
  150.7417  137.8230  154.4720 C   0  0  0  0  0  0  0  0  0  0  0  0
  150.1623  140.3182  154.3456 C   0  0  0  0  0  0  0  0  0  0  0  0
  150.8150  140.7245  155.5775 N   0  0  0  0  0  0  0  0  0  0  0  0
  150.9008  141.9879  156.1225 C   0  0  0  0  0  0  0  0  0  0  0  0
  151.6127  141.8875  157.2839 C   0  0  0  0  0  0  0  0  0  0  0  0
  151.9838  142.9738  158.2519 C   0  0  0  0  0  0  0  0  0  0  0  0
  151.9245  140.5002  157.3618 C   0  0  0  0  0  0  0  0  0  0  0  0
  151.4481  139.8077  156.3398 N   0  0  0  0  0  0  0  0  0  0  0  0
  146.4992  138.6359  152.1559 C   0  0  0  0  0  0  0  0  0  0  0  0
  145.1660  138.5902  152.2261 N   0  0  0  0  0  0  0  0  0  0  0  0
  147.0981  138.5868  151.0830 O   0  0  0  0  0  0  0  0  0  0  0  0
  147.0354  142.2575  153.8765 H   0  0  0  0  0  0  0  0  0  0  0  0
  146.8421  141.3402  152.3870 H   0  0  0  0  0  0  0  0  0  0  0  0
  148.4147  141.4208  153.1826 H   0  0  0  0  0  0  0  0  0  0  0  0
  147.4890  140.1458  155.1427 H   0  0  0  0  0  0  0  0  0  0  0  0
  145.9110  140.1542  154.4081 H   0  0  0  0  0  0  0  0  0  0  0  0
  146.9650  137.9563  154.1499 H   0  0  0  0  0  0  0  0  0  0  0  0
  148.9259  137.7466  152.8285 H   0  0  0  0  0  0  0  0  0  0  0  0
  149.0069  138.7905  155.3003 H   0  0  0  0  0  0  0  0  0  0  0  0
  151.3852  137.9807  155.3374 H   0  0  0  0  0  0  0  0  0  0  0  0
  151.3709  137.8546  153.5818 H   0  0  0  0  0  0  0  0  0  0  0  0
  150.3427  136.8133  154.5637 H   0  0  0  0  0  0  0  0  0  0  0  0
  150.8665  140.4279  153.5188 H   0  0  0  0  0  0  0  0  0  0  0  0
  149.3490  141.0196  154.1542 H   0  0  0  0  0  0  0  0  0  0  0  0
  150.4526  142.8459  155.6434 H   0  0  0  0  0  0  0  0  0  0  0  0
  152.6352  142.6059  159.0450 H   0  0  0  0  0  0  0  0  0  0  0  0
  151.1039  143.4024  158.7318 H   0  0  0  0  0  0  0  0  0  0  0  0
  152.5108  143.7900  157.7574 H   0  0  0  0  0  0  0  0  0  0  0  0
  152.4815  139.9791  158.1268 H   0  0  0  0  0  0  0  0  0  0  0  0
  144.6142  138.5011  151.3852 H   0  0  0  0  0  0  0  0  0  0  0  0
  144.7114  138.6375  153.1271 H   0  0  0  0  0  0  0  0  0  0  0  0
  148.9646  139.3582  152.5520 H   0  0  0  0  0  0  0  0  0  0  0  0
  1  2  1  0  0  0  0
  1 17  1  0  0  0  0
  1 18  1  0  0  0  0
  1 19  1  0  0  0  0
  2  3  1  0  0  0  0
  2 20  1  0  0  0  0
  2 21  1  0  0  0  0
  3  4  1  0  0  0  0
  3 14  1  0  0  0  0
  3 22  1  0  0  0  0
  4  5  1  0  0  0  0
  4 23  1  0  0  0  0
  4 37  1  0  0  0  0
  5  6  1  0  0  0  0
  5  7  1  0  0  0  0
  5 24  1  0  0  0  0
  6 25  1  0  0  0  0
  6 26  1  0  0  0  0
  6 27  1  0  0  0  0
  7  8  1  0  0  0  0
  7 28  1  0  0  0  0
  7 29  1  0  0  0  0
  8 13  1  0  0  0  0
  8  9  1  0  0  0  0
  9 10  2  0  0  0  0
  9 30  1  0  0  0  0
 10 11  1  0  0  0  0
 10 12  1  0  0  0  0
 11 31  1  0  0  0  0
 11 32  1  0  0  0  0
 11 33  1  0  0  0  0
 12 13  2  0  0  0  0
 12 34  1  0  0  0  0
 14 15  1  0  0  0  0
 14 16  2  0  0  0  0
 15 35  1  0  0  0  0
 15 36  1  0  0  0  0
M  CHG  1   4   1
M  END
> <s_m_source_file>
AV-unprocessed.smi

> <i_m_source_file_index>
3162

> <i_lp_mmshare_version>
43012

> <i_f3d_flags>
0

> <s_epik_input>
W0NIM11bQ0gyXVtDQEBIXShDKD1PKVtOSDJdKVtOSF1bQ0BIXShbQ0gzXSlbQ0gyXW4xW2NIXWMoW0NIM10pW2NIXW4x

> <s_epik_cmdline>
J2VwaWtfcHl0aG9uJywgJy1waCcsICc3LjAnLCAnLXRuJywgJzgnLCAnLW1hJywgJzIwMCcsICctbWV0YWxfYmluZGluZycsICctaW1hZScsICc8aW5maWxlLm1hZT4nLCAnLW9tYWUnLCAnPG91dGZpbGUubWFlPic=

> <r_lp_tautomer_probability>
1

> <r_epik_Ionization_Penalty>
0.112112

> <r_epik_Ionization_Penalty_Charging>
0.112102

> <r_epik_Ionization_Penalty_Neutral>
9.73799e-06

> <r_epik_State_Penalty>
0.101811

> <r_epik_Charging_Adjusted_Penalty>
0.213914

> <i_epik_Tot_Q>
1

> <i_epik_Tot_abs_Q>
1

> <r_epik_Metal_State_Penalty>
0.101821

> <b_epik_Metal_Only>
0

> <s_lp_Force_Field>
OPLS_2005

> <r_lp_Energy>
6.55783

> <b_lp_Chiralities_Consistent>
1

> <s_lp_Variant>
AV-unprocessed.smi:3162-3

> <Gold.Version>
5.8.1

> <Gold.Id.Protein>
6NUR|6NUR_protein|mol2

> <Gold.PLP.Fitness>
48.7084

> <Gold.PLP.PLP>
-32.7194

> <Gold.PLP.part.hbond>
-5.0000

> <Gold.PLP.part.metal>
0.0000

> <Gold.PLP.part.buried>
-2.3154

> <Gold.PLP.part.nonpolar>
-26.6465

> <Gold.PLP.part.repulsive>
2.4305

> <Gold.PLP.ligand.clash>
0.0000

> <Gold.PLP.ligand.torsion>
1.1037

> <Gold.PLP.Chemscore.Hbond>
5.0000

> <Gold.PLP.Chemscore.CHOScore>
1.0000

> <Gold.PLP.Chemscore.Metal>
0.0000

> <Gold.Chemscore.Hbonds>
donor molecule, donor type, donor heavy atom, donor atom, acceptor molecule, acceptor atom, score
      L1  H     4    23       P1  7948  2.00
      L1  H     4    37       P1  7957  1.00
      L1  H    15    35       P1 10171  1.00
      P1  H  7954  7966       L1    16  1.00
      L1  C     9    30       P1  8028  1.00

> <Gold.PLP.Chemscore.Internal.Correction>
0.1964

> <Gold.Rescore>
     Score         DG    S(hbond)    S(metal)    S(lipo)     H(rot)  DE(clash)    DE(int)     intcor
     17.09     -20.48       3.99        0.00      69.03       2.51       1.40       1.98       ----

> <Gold.Chemscore.Fitness>
17.0926

> <Gold.Chemscore.DG>
-20.4757

> <Gold.Chemscore.ZeroCoef>
-5.4800

> <Gold.Chemscore.Hbond>
3.9924

> <Gold.Chemscore.Metal>
0.0000

> <Gold.Chemscore.Lipo>
69.0339

> <Gold.Chemscore.Internal_Hbond>
0.0000

> <Gold.Chemscore.DEClash>
1.4037

> <Gold.Chemscore.DEInternal>
1.9794

> <Gold.Chemscore.Rot>
2.5062

> <Gold.Chemscore.Internal.Correction>
   9.000000E+99

> <Gold.Chemscore.Hbonds>
donor molecule, donor type, donor heavy atom, donor atom, acceptor molecule, acceptor atom, score
      L1  H     4    23       P1  7948  1.00
      L1  H     4    37       P1  7957  0.99
      L1  H    15    35       P1 10171  1.00
      P1  H  7954  7966       L1    16  0.95

> <Gold.Chemscore.Hbond.Weighted>
-13.3346

> <Gold.Chemscore.Metal.Weighted>
-0.0000

> <Gold.Chemscore.Lipo.Weighted>
-8.0770

> <Gold.Chemscore.Internal_Hbond.Weighted>
0.0000

> <Gold.Chemscore.DEClash.Weighted>
1.4037

> <Gold.Chemscore.DEInternal.Weighted>
1.9794

> <Gold.Chemscore.Rot.Weighted>
6.4159

> <Gold.Chemscore.Internal.Correction.Weighted>
   9.000000E+99

> <Gold.Protein.RotatedTorsions>
[ 6907 6896 6895 6894 ] final -123.89 input  -60.11 | X-H torsion
[ 7974 7965 7964 7962 ] final   38.19 input  175.53 | X-H torsion
[ 8008 7997 7996 7995 ] final -118.35 input   59.86 | X-H torsion
[ 10167 10162 10161 10158 ] final -178.59 input  -65.29 | X-H torsion
[ 10718 10713 10712 10709 ] final -176.55 input   66.30 | X-H torsion
[ 10763 10752 10751 10750 ] final  -55.53 input  -60.55 | X-H torsion
[ 11005 11000 10999 10996 ] final  -52.18 input  -57.11 | X-H torsion

> <Gold.Protein.ActiveResidues>
 VAL166  LYS551  ARG553  GLY616  TRP617  ASP618  TYR619  PRO620  LYS621  CYS622 
 ASP623  PHE694  ASN695  SER759  ASP760  ASP761  ALA762  ILE779  LEU786  VAL792 
 PHE793  MET794  SER795  GLU796  ALA797  LYS798  CYS799  TRP800  GLU811  SER814 

> <Gold.Protein.RotatedAtoms>
  150.8714  133.7500  159.2959 H   0  0  0  0  0  0  0  0  0  0  0  0  # atno 6907 bound_to 6896
  151.5110  135.1063  159.9863 H   0  0  0  0  0  0  0  0  0  0  0  0  # atno 6908 bound_to 6896
  152.4698  133.7958  159.6982 H   0  0  0  0  0  0  0  0  0  0  0  0  # atno 6909 bound_to 6896
  146.1081  139.5803  142.9370 H   0  0  0  0  0  0  0  0  0  0  0  0  # atno 7974 bound_to 7965
  155.0982  140.0395  157.2689 H   0  0  0  0  0  0  0  0  0  0  0  0  # atno 8008 bound_to 7997
  154.6779  140.2626  155.6914 H   0  0  0  0  0  0  0  0  0  0  0  0  # atno 8009 bound_to 7997
  156.2683  140.2784  156.1312 H   0  0  0  0  0  0  0  0  0  0  0  0  # atno 8010 bound_to 7997
  139.5425  144.2324  152.0924 H   0  0  0  0  0  0  0  0  0  0  0  0  # atno 10167 bound_to 10162
  156.8163  130.9604  151.3114 H   0  0  0  0  0  0  0  0  0  0  0  0  # atno 10718 bound_to 10713
  154.1923  135.6425  153.5063 H   0  0  0  0  0  0  0  0  0  0  0  0  # atno 10763 bound_to 10752
  153.0032  135.5431  154.6402 H   0  0  0  0  0  0  0  0  0  0  0  0  # atno 10764 bound_to 10752
  154.5794  135.2924  155.0721 H   0  0  0  0  0  0  0  0  0  0  0  0  # atno 10765 bound_to 10752
  141.0911  133.6632  156.3987 H   0  0  0  0  0  0  0  0  0  0  0  0  # atno 11005 bound_to 11000
  145.5720  141.0393  143.2169 LP  0  0  0  0  0  0  0  0  0  0  0  0  # atno 17320 bound_to 7965
  144.7488  139.7249  143.7281 LP  0  0  0  0  0  0  0  0  0  0  0  0  # atno 17321 bound_to 7965
  140.1805  144.4849  150.6531 LP  0  0  0  0  0  0  0  0  0  0  0  0  # atno 17342 bound_to 10162
  140.6661  143.2268  151.5740 LP  0  0  0  0  0  0  0  0  0  0  0  0  # atno 17343 bound_to 10162
  157.6480  130.8860  149.9576 LP  0  0  0  0  0  0  0  0  0  0  0  0  # atno 17370 bound_to 10713
  156.1015  130.3655  150.0210 LP  0  0  0  0  0  0  0  0  0  0  0  0  # atno 17371 bound_to 10713
  140.5250  134.6267  157.5331 LP  0  0  0  0  0  0  0  0  0  0  0  0  # atno 17394 bound_to 11000
  139.9737  134.7251  155.9991 LP  0  0  0  0  0  0  0  0  0  0  0  0  # atno 17395 bound_to 11000

$$$$
