AV-unprocessed.smi:1427|AV-procd|sdf|5809|dock4
  -GOLD-   22720 5463D 1   1.00000     0.00000
 Structure written by MMmdl.
 33 34  0  0  0  0  0  0  0  0  1 V2000
  151.1096  140.7645  157.7788 C   0  0  0  0  0  0  0  0  0  0  0  0
  151.0982  142.1125  157.0428 C   0  0  2  0  0  0  0  0  0  0  0  0
  150.9611  143.2955  158.0214 C   0  0  0  0  0  0  0  0  0  0  0  0
  151.7905  143.1308  159.2034 N   0  0  0  0  0  0  0  0  0  0  0  0
  153.0819  142.6544  159.2830 C   0  0  0  0  0  0  0  0  0  0  0  0
  153.4523  142.7020  160.5965 C   0  0  0  0  0  0  0  0  0  0  0  0
  152.3056  143.2303  161.2527 C   0  0  0  0  0  0  0  0  0  0  0  0
  151.3114  143.4822  160.4170 N   0  0  0  0  0  0  0  0  0  0  0  0
  150.0048  142.1470  156.0763 N   0  0  0  0  0  0  0  0  0  0  0  0
  149.8404  141.3123  155.0371 C   0  0  0  0  0  0  0  0  0  0  0  0
  150.5717  140.3425  154.8382 O   0  0  0  0  0  0  0  0  0  0  0  0
  148.6846  141.6021  154.0596 C   0  0  2  0  0  0  0  0  0  0  0  0
  147.3496  141.9390  154.7528 C   0  0  0  0  0  0  0  0  0  0  0  0
  146.5302  140.6431  154.6877 C   0  0  0  0  0  0  0  0  0  0  0  0
  147.1875  139.8951  153.5390 C   0  0  0  0  0  0  0  0  0  0  0  0
  146.7015  138.8987  153.0094 O   0  0  0  0  0  0  0  0  0  0  0  0
  148.3416  140.4739  153.2035 N   0  0  0  0  0  0  0  0  0  0  0  0
  151.9294  140.7179  158.4958 H   0  0  0  0  0  0  0  0  0  0  0  0
  151.2369  139.9351  157.0824 H   0  0  0  0  0  0  0  0  0  0  0  0
  150.1797  140.6022  158.3248 H   0  0  0  0  0  0  0  0  0  0  0  0
  152.0479  142.2211  156.5156 H   0  0  0  0  0  0  0  0  0  0  0  0
  151.2214  144.2353  157.5306 H   0  0  0  0  0  0  0  0  0  0  0  0
  149.9255  143.3932  158.3490 H   0  0  0  0  0  0  0  0  0  0  0  0
  153.6242  142.3285  158.4077 H   0  0  0  0  0  0  0  0  0  0  0  0
  154.3994  142.4068  161.0229 H   0  0  0  0  0  0  0  0  0  0  0  0
  152.1669  143.4365  162.3036 H   0  0  0  0  0  0  0  0  0  0  0  0
  149.3560  142.9165  156.1602 H   0  0  0  0  0  0  0  0  0  0  0  0
  148.9921  142.4371  153.4289 H   0  0  0  0  0  0  0  0  0  0  0  0
  147.4722  142.2917  155.7779 H   0  0  0  0  0  0  0  0  0  0  0  0
  146.8343  142.7270  154.2016 H   0  0  0  0  0  0  0  0  0  0  0  0
  146.6349  140.0585  155.6024 H   0  0  0  0  0  0  0  0  0  0  0  0
  145.4715  140.8275  154.5033 H   0  0  0  0  0  0  0  0  0  0  0  0
  148.9469  140.1463  152.4646 H   0  0  0  0  0  0  0  0  0  0  0  0
  1  2  1  0  0  0  0
  1 18  1  0  0  0  0
  1 19  1  0  0  0  0
  1 20  1  0  0  0  0
  2  3  1  0  0  0  0
  2  9  1  0  0  0  0
  2 21  1  0  0  0  0
  3  4  1  0  0  0  0
  3 22  1  0  0  0  0
  3 23  1  0  0  0  0
  4  8  1  0  0  0  0
  4  5  1  0  0  0  0
  5  6  2  0  0  0  0
  5 24  1  0  0  0  0
  6  7  1  0  0  0  0
  6 25  1  0  0  0  0
  7  8  2  0  0  0  0
  7 26  1  0  0  0  0
  9 10  1  0  0  0  0
  9 27  1  0  0  0  0
 10 11  2  0  0  0  0
 10 12  1  0  0  0  0
 12 17  1  0  0  0  0
 12 13  1  0  0  0  0
 12 28  1  0  0  0  0
 13 14  1  0  0  0  0
 13 29  1  0  0  0  0
 13 30  1  0  0  0  0
 14 15  1  0  0  0  0
 14 31  1  0  0  0  0
 14 32  1  0  0  0  0
 15 16  2  0  0  0  0
 15 17  1  0  0  0  0
 17 33  1  0  0  0  0
M  END
> <s_m_source_file>
AV-unprocessed.smi

> <i_m_source_file_index>
1427

> <i_lp_mmshare_version>
43012

> <i_f3d_flags>
0

> <s_epik_input>
bjFbY0hdW2NIXVtjSF1uMVtDSDJdW0NAQEhdKFtDSDNdKVtOSF1DKD1PKVtDQEBIXTJbQ0gyXVtDSDJdQyg9TylbTkhdMg==

> <s_epik_cmdline>
J2VwaWtfcHl0aG9uJywgJy1waCcsICc3LjAnLCAnLXRuJywgJzgnLCAnLW1hJywgJzIwMCcsICctbWV0YWxfYmluZGluZycsICctaW1hZScsICc8aW5maWxlLm1hZT4nLCAnLW9tYWUnLCAnPG91dGZpbGUubWFlPic=

> <r_lp_tautomer_probability>
1

> <r_epik_Ionization_Penalty>
0.000310707

> <r_epik_Ionization_Penalty_Charging>
0

> <r_epik_Ionization_Penalty_Neutral>
0.000310707

> <r_epik_State_Penalty>
-0

> <r_epik_Charging_Adjusted_Penalty>
0

> <i_epik_Tot_Q>
0

> <i_epik_Tot_abs_Q>
0

> <r_epik_Metal_State_Penalty>
-0

> <b_epik_Metal_Only>
0

> <s_lp_Force_Field>
OPLS_2005

> <r_lp_Energy>
13.3236

> <b_lp_Chiralities_Consistent>
1

> <s_lp_Variant>
AV-unprocessed.smi:1427-1

> <Gold.Version>
5.8.1

> <Gold.Id.Protein>
6NUR|6NUR_protein|mol2

> <Gold.PLP.Fitness>
45.3439

> <Gold.PLP.PLP>
-37.9235

> <Gold.PLP.part.hbond>
-3.5132

> <Gold.PLP.part.metal>
0.0000

> <Gold.PLP.part.buried>
-4.1915

> <Gold.PLP.part.nonpolar>
-29.9879

> <Gold.PLP.part.repulsive>
0.6513

> <Gold.PLP.ligand.clash>
0.0000

> <Gold.PLP.ligand.torsion>
0.8011

> <Gold.PLP.Chemscore.Hbond>
3.0000

> <Gold.PLP.Chemscore.CHOScore>
0.0000

> <Gold.PLP.Chemscore.Metal>
0.0000

> <Gold.Chemscore.Hbonds>
donor molecule, donor type, donor heavy atom, donor atom, acceptor molecule, acceptor atom, score
      L1  H     9    27       P1  8028  0.96
      L1  H    17    33       P1  7957  0.83
      P1  H  7989  7998       L1    11  1.00

> <Gold.PLP.Chemscore.Internal.Correction>
0.0225

> <Gold.Rescore>
     Score         DG    S(hbond)    S(metal)    S(lipo)     H(rot)  DE(clash)    DE(int)     intcor
     16.51     -17.56       2.39        0.00      76.22       1.88       0.40       0.65       ----

> <Gold.Chemscore.Fitness>
16.5135

> <Gold.Chemscore.DG>
-17.5618

> <Gold.Chemscore.ZeroCoef>
-5.4800

> <Gold.Chemscore.Hbond>
2.3900

> <Gold.Chemscore.Metal>
0.0000

> <Gold.Chemscore.Lipo>
76.2164

> <Gold.Chemscore.Internal_Hbond>
0.0000

> <Gold.Chemscore.DEClash>
0.4000

> <Gold.Chemscore.DEInternal>
0.6483

> <Gold.Chemscore.Rot>
1.8821

> <Gold.Chemscore.Internal.Correction>
   9.000000E+99

> <Gold.Chemscore.Hbonds>
donor molecule, donor type, donor heavy atom, donor atom, acceptor molecule, acceptor atom, score
      L1  H     9    27       P1  8028  0.92
      L1  H    17    33       P1  7957  0.82
      P1  H  7989  7998       L1    11  0.39

> <Gold.Chemscore.Hbond.Weighted>
-7.9825

> <Gold.Chemscore.Metal.Weighted>
-0.0000

> <Gold.Chemscore.Lipo.Weighted>
-8.9173

> <Gold.Chemscore.Internal_Hbond.Weighted>
0.0000

> <Gold.Chemscore.DEClash.Weighted>
0.4000

> <Gold.Chemscore.DEInternal.Weighted>
0.6483

> <Gold.Chemscore.Rot.Weighted>
4.8181

> <Gold.Chemscore.Internal.Correction.Weighted>
   9.000000E+99

> <Gold.Protein.RotatedTorsions>
[ 6907 6896 6895 6894 ] final   77.31 input  -60.11 | X-H torsion
[ 7974 7965 7964 7962 ] final   68.58 input  175.53 | X-H torsion
[ 8008 7997 7996 7995 ] final -132.29 input   59.86 | X-H torsion
[ 10167 10162 10161 10158 ] final -150.09 input  -65.29 | X-H torsion
[ 10718 10713 10712 10709 ] final -125.30 input   66.30 | X-H torsion
[ 10763 10752 10751 10750 ] final -154.03 input  -60.55 | X-H torsion
[ 11005 11000 10999 10996 ] final    1.51 input  -57.11 | X-H torsion

> <Gold.Protein.ActiveResidues>
 VAL166  LYS551  ARG553  GLY616  TRP617  ASP618  TYR619  PRO620  LYS621  CYS622 
 ASP623  PHE694  ASN695  SER759  ASP760  ASP761  ALA762  ILE779  LEU786  VAL792 
 PHE793  MET794  SER795  GLU796  ALA797  LYS798  CYS799  TRP800  GLU811  SER814 

> <Gold.Protein.RotatedAtoms>
  152.5112  134.3837  159.9359 H   0  0  0  0  0  0  0  0  0  0  0  0  # atno 6907 bound_to 6896
  151.3795  133.3820  159.2716 H   0  0  0  0  0  0  0  0  0  0  0  0  # atno 6908 bound_to 6896
  150.9516  134.8935  159.7734 H   0  0  0  0  0  0  0  0  0  0  0  0  # atno 6909 bound_to 6896
  145.8008  139.2981  143.1156 H   0  0  0  0  0  0  0  0  0  0  0  0  # atno 7974 bound_to 7965
  155.3265  140.0465  157.3041 H   0  0  0  0  0  0  0  0  0  0  0  0  # atno 8008 bound_to 7997
  154.5351  140.2270  155.8702 H   0  0  0  0  0  0  0  0  0  0  0  0  # atno 8009 bound_to 7997
  156.1827  140.3070  155.9186 H   0  0  0  0  0  0  0  0  0  0  0  0  # atno 8010 bound_to 7997
  139.7385  143.8699  152.2555 H   0  0  0  0  0  0  0  0  0  0  0  0  # atno 10167 bound_to 10162
  156.1663  130.6637  151.0120 H   0  0  0  0  0  0  0  0  0  0  0  0  # atno 10718 bound_to 10713
  154.7887  135.3199  154.7828 H   0  0  0  0  0  0  0  0  0  0  0  0  # atno 10763 bound_to 10752
  153.8522  135.6861  153.4795 H   0  0  0  0  0  0  0  0  0  0  0  0  # atno 10764 bound_to 10752
  153.1548  135.4684  154.9628 H   0  0  0  0  0  0  0  0  0  0  0  0  # atno 10765 bound_to 10752
  140.6146  133.9716  155.8194 H   0  0  0  0  0  0  0  0  0  0  0  0  # atno 11005 bound_to 11000
  145.9879  140.8627  143.0081 LP  0  0  0  0  0  0  0  0  0  0  0  0  # atno 17320 bound_to 7965
  144.6769  140.2174  143.7370 LP  0  0  0  0  0  0  0  0  0  0  0  0  # atno 17321 bound_to 7965
  139.8642  144.7101  150.9063 LP  0  0  0  0  0  0  0  0  0  0  0  0  # atno 17342 bound_to 10162
  140.7782  143.3792  151.1508 LP  0  0  0  0  0  0  0  0  0  0  0  0  # atno 17343 bound_to 10162
  157.6770  131.0848  150.7468 LP  0  0  0  0  0  0  0  0  0  0  0  0  # atno 17370 bound_to 10713
  156.7528  130.4774  149.5453 LP  0  0  0  0  0  0  0  0  0  0  0  0  # atno 17371 bound_to 10713
  141.0784  134.0099  157.3423 LP  0  0  0  0  0  0  0  0  0  0  0  0  # atno 17394 bound_to 11000
  139.9178  135.0198  156.7948 LP  0  0  0  0  0  0  0  0  0  0  0  0  # atno 17395 bound_to 11000

$$$$
