AV-unprocessed.smi:2684|AV-procd|sdf|10381|dock3
  -GOLD-   2272014413D 1   1.00000     0.00000
 Structure written by MMmdl.
 44 45  0  0  0  0  0  0  0  0  1 V2000
  143.8756  132.9186  149.3391 C   0  0  0  0  0  0  0  0  0  0  0  0
  144.8432  133.3216  150.4144 C   0  0  0  0  0  0  0  0  0  0  0  0
  144.8445  134.5202  151.1827 C   0  0  0  0  0  0  0  0  0  0  0  0
  145.8338  134.5680  152.0600 N   0  0  0  0  0  0  0  0  0  0  0  0
  146.5065  133.4121  151.8736 N   0  0  0  0  0  0  0  0  0  0  0  0
  147.6745  133.1126  152.6837 C   0  0  0  0  0  0  0  0  0  0  0  0
  147.4478  133.2872  154.2040 C   0  0  1  0  0  0  0  0  0  0  0  0
  146.3209  132.3653  154.6908 C   0  0  0  0  0  0  0  0  0  0  0  0
  148.6450  132.9336  154.9628 N   0  0  0  0  0  0  0  0  0  0  0  0
  149.8346  133.6854  154.5388 C   0  0  0  0  0  0  0  0  0  0  0  0
  150.0171  135.0090  155.2967 C   0  0  0  0  0  0  0  0  0  0  0  0
  150.3203  135.0061  156.4891 O   0  0  0  0  0  0  0  0  0  0  0  0
  149.8375  136.1663  154.6370 N   0  0  0  0  0  0  0  0  0  0  0  0
  149.9623  137.5217  155.1709 C   0  0  0  0  0  0  0  0  0  0  0  0
  149.3755  138.5486  154.1876 C   0  0  0  0  0  0  0  0  0  0  0  0
  149.6392  139.9801  154.6806 C   0  0  0  0  0  0  0  0  0  0  0  0
  151.0364  140.1817  154.8664 O   0  0  0  0  0  0  0  0  0  0  0  0
  151.5971  139.3214  155.8528 C   0  0  0  0  0  0  0  0  0  0  0  0
  151.4403  137.8533  155.4225 C   0  0  0  0  0  0  0  0  0  0  0  0
  145.9253  132.6378  150.8919 C   0  0  0  0  0  0  0  0  0  0  0  0
  142.8430  133.0931  149.6415 H   0  0  0  0  0  0  0  0  0  0  0  0
  143.9627  131.8608  149.0903 H   0  0  0  0  0  0  0  0  0  0  0  0
  144.0402  133.4788  148.4192 H   0  0  0  0  0  0  0  0  0  0  0  0
  144.1558  135.3507  151.1317 H   0  0  0  0  0  0  0  0  0  0  0  0
  147.9626  132.0825  152.4702 H   0  0  0  0  0  0  0  0  0  0  0  0
  148.5035  133.7371  152.3474 H   0  0  0  0  0  0  0  0  0  0  0  0
  147.1429  134.3117  154.4244 H   0  0  0  0  0  0  0  0  0  0  0  0
  145.3843  132.5905  154.1798 H   0  0  0  0  0  0  0  0  0  0  0  0
  146.1459  132.4863  155.7606 H   0  0  0  0  0  0  0  0  0  0  0  0
  146.5540  131.3157  154.5071 H   0  0  0  0  0  0  0  0  0  0  0  0
  148.7936  131.9356  154.9228 H   0  0  0  0  0  0  0  0  0  0  0  0
  150.7212  133.0730  154.6818 H   0  0  0  0  0  0  0  0  0  0  0  0
  149.7602  133.9101  153.4739 H   0  0  0  0  0  0  0  0  0  0  0  0
  149.5785  136.0976  153.6634 H   0  0  0  0  0  0  0  0  0  0  0  0
  149.4416  137.6029  156.1261 H   0  0  0  0  0  0  0  0  0  0  0  0
  149.8271  138.4201  153.2029 H   0  0  0  0  0  0  0  0  0  0  0  0
  148.3051  138.3913  154.0597 H   0  0  0  0  0  0  0  0  0  0  0  0
  149.2756  140.7012  153.9486 H   0  0  0  0  0  0  0  0  0  0  0  0
  149.1040  140.1746  155.6113 H   0  0  0  0  0  0  0  0  0  0  0  0
  152.6527  139.5657  155.9735 H   0  0  0  0  0  0  0  0  0  0  0  0
  151.1185  139.4974  156.8173 H   0  0  0  0  0  0  0  0  0  0  0  0
  151.8518  137.1940  156.1875 H   0  0  0  0  0  0  0  0  0  0  0  0
  152.0214  137.6816  154.5151 H   0  0  0  0  0  0  0  0  0  0  0  0
  146.3276  131.6743  150.6151 H   0  0  0  0  0  0  0  0  0  0  0  0
  1  2  1  0  0  0  0
  1 21  1  0  0  0  0
  1 22  1  0  0  0  0
  1 23  1  0  0  0  0
  2 20  2  0  0  0  0
  2  3  1  0  0  0  0
  3  4  2  0  0  0  0
  3 24  1  0  0  0  0
  4  5  1  0  0  0  0
  5  6  1  0  0  0  0
  5 20  1  0  0  0  0
  6  7  1  0  0  0  0
  6 25  1  0  0  0  0
  6 26  1  0  0  0  0
  7  8  1  0  0  0  0
  7  9  1  0  0  0  0
  7 27  1  0  0  0  0
  8 28  1  0  0  0  0
  8 29  1  0  0  0  0
  8 30  1  0  0  0  0
  9 10  1  0  0  0  0
  9 31  1  0  0  0  0
 10 11  1  0  0  0  0
 10 32  1  0  0  0  0
 10 33  1  0  0  0  0
 11 12  2  0  0  0  0
 11 13  1  0  0  0  0
 13 14  1  0  0  0  0
 13 34  1  0  0  0  0
 14 19  1  0  0  0  0
 14 15  1  0  0  0  0
 14 35  1  0  0  0  0
 15 16  1  0  0  0  0
 15 36  1  0  0  0  0
 15 37  1  0  0  0  0
 16 17  1  0  0  0  0
 16 38  1  0  0  0  0
 16 39  1  0  0  0  0
 17 18  1  0  0  0  0
 18 19  1  0  0  0  0
 18 40  1  0  0  0  0
 18 41  1  0  0  0  0
 19 42  1  0  0  0  0
 19 43  1  0  0  0  0
 20 44  1  0  0  0  0
M  END
> <s_m_source_file>
AV-unprocessed.smi

> <i_m_source_file_index>
2684

> <i_lp_mmshare_version>
43012

> <i_f3d_flags>
0

> <s_epik_input>
W0NIM11jMVtjSF1ubihbY0hdMSlbQ0gyXVtDQEhdKFtDSDNdKVtOSF1bQ0gyXUMoPU8pW05IXVtDSF0yW0NIMl1bQ0gyXU9bQ0gyXVtDSDJdMg==

> <s_epik_cmdline>
J2VwaWtfcHl0aG9uJywgJy1waCcsICc3LjAnLCAnLXRuJywgJzgnLCAnLW1hJywgJzIwMCcsICctbWV0YWxfYmluZGluZycsICctaW1hZScsICc8aW5maWxlLm1hZT4nLCAnLW9tYWUnLCAnPG91dGZpbGUubWFlPic=

> <r_lp_tautomer_probability>
1

> <r_epik_Ionization_Penalty>
0.968507

> <r_epik_Ionization_Penalty_Charging>
0

> <r_epik_Ionization_Penalty_Neutral>
0.968507

> <r_epik_State_Penalty>
1.01412

> <r_epik_Charging_Adjusted_Penalty>
1.01412

> <i_epik_Tot_Q>
0

> <i_epik_Tot_abs_Q>
0

> <r_epik_Metal_State_Penalty>
1.01401

> <b_epik_Metal_Only>
0

> <s_lp_Force_Field>
OPLS_2005

> <r_lp_Energy>
12.4601

> <b_lp_Chiralities_Consistent>
1

> <s_lp_Variant>
AV-unprocessed.smi:2684-4

> <Gold.Version>
5.8.1

> <Gold.Id.Protein>
6NUR|6NUR_protein|mol2

> <Gold.PLP.Fitness>
43.1476

> <Gold.PLP.PLP>
-35.0788

> <Gold.PLP.part.hbond>
-2.2446

> <Gold.PLP.part.metal>
0.0000

> <Gold.PLP.part.buried>
-6.3263

> <Gold.PLP.part.nonpolar>
-27.6968

> <Gold.PLP.part.repulsive>
0.2442

> <Gold.PLP.ligand.clash>
0.0000

> <Gold.PLP.ligand.torsion>
0.4897

> <Gold.PLP.Chemscore.Hbond>
2.0000

> <Gold.PLP.Chemscore.CHOScore>
1.0000

> <Gold.PLP.Chemscore.Metal>
0.0000

> <Gold.Chemscore.Hbonds>
donor molecule, donor type, donor heavy atom, donor atom, acceptor molecule, acceptor atom, score
      L1  H    13    34       P1  7948  1.00
      P1  H  7989  7998       L1    17  1.00
      L1  C    20    44       P1 10747  0.36

> <Gold.PLP.Chemscore.Internal.Correction>
0.0482

> <Gold.Rescore>
     Score         DG    S(hbond)    S(metal)    S(lipo)     H(rot)  DE(clash)    DE(int)     intcor
     14.73     -15.28       1.58        0.00      81.68       1.97       0.05       0.49       ----

> <Gold.Chemscore.Fitness>
14.7296

> <Gold.Chemscore.DG>
-15.2769

> <Gold.Chemscore.ZeroCoef>
-5.4800

> <Gold.Chemscore.Hbond>
1.5846

> <Gold.Chemscore.Metal>
0.0000

> <Gold.Chemscore.Lipo>
81.6807

> <Gold.Chemscore.Internal_Hbond>
0.0000

> <Gold.Chemscore.DEClash>
0.0533

> <Gold.Chemscore.DEInternal>
0.4940

> <Gold.Chemscore.Rot>
1.9736

> <Gold.Chemscore.Internal.Correction>
   9.000000E+99

> <Gold.Chemscore.Hbonds>
donor molecule, donor type, donor heavy atom, donor atom, acceptor molecule, acceptor atom, score
      L1  H    13    34       P1  7948  0.45
      P1  H  7989  7998       L1    17  0.65

> <Gold.Chemscore.Hbond.Weighted>
-5.2926

> <Gold.Chemscore.Metal.Weighted>
-0.0000

> <Gold.Chemscore.Lipo.Weighted>
-9.5566

> <Gold.Chemscore.Internal_Hbond.Weighted>
0.0000

> <Gold.Chemscore.DEClash.Weighted>
0.0533

> <Gold.Chemscore.DEInternal.Weighted>
0.4940

> <Gold.Chemscore.Rot.Weighted>
5.0523

> <Gold.Chemscore.Internal.Correction.Weighted>
   9.000000E+99

> <Gold.Protein.RotatedTorsions>
[ 6907 6896 6895 6894 ] final   -5.57 input  -60.11 | X-H torsion
[ 7974 7965 7964 7962 ] final -178.70 input  175.53 | X-H torsion
[ 8008 7997 7996 7995 ] final  -64.11 input   59.86 | X-H torsion
[ 10167 10162 10161 10158 ] final  -74.53 input  -65.29 | X-H torsion
[ 10718 10713 10712 10709 ] final    9.16 input   66.30 | X-H torsion
[ 10763 10752 10751 10750 ] final -154.46 input  -60.55 | X-H torsion
[ 11005 11000 10999 10996 ] final -148.43 input  -57.11 | X-H torsion

> <Gold.Protein.ActiveResidues>
 VAL166  LYS551  ARG553  GLY616  TRP617  ASP618  TYR619  PRO620  LYS621  CYS622 
 ASP623  PHE694  ASN695  SER759  ASP760  ASP761  ALA762  ILE779  LEU786  VAL792 
 PHE793  MET794  SER795  GLU796  ALA797  LYS798  CYS799  TRP800  GLU811  SER814 

> <Gold.Protein.RotatedAtoms>
  151.4795  135.1051  159.9773 H   0  0  0  0  0  0  0  0  0  0  0  0  # atno 6907 bound_to 6896
  152.4785  133.8192  159.7055 H   0  0  0  0  0  0  0  0  0  0  0  0  # atno 6908 bound_to 6896
  150.8839  133.7272  159.2950 H   0  0  0  0  0  0  0  0  0  0  0  0  # atno 6909 bound_to 6896
  144.7132  140.0829  143.6425 H   0  0  0  0  0  0  0  0  0  0  0  0  # atno 7974 bound_to 7965
  154.4593  140.0960  156.6846 H   0  0  0  0  0  0  0  0  0  0  0  0  # atno 8008 bound_to 7997
  155.5044  140.3474  155.4358 H   0  0  0  0  0  0  0  0  0  0  0  0  # atno 8009 bound_to 7997
  156.0839  140.1380  156.9667 H   0  0  0  0  0  0  0  0  0  0  0  0  # atno 8010 bound_to 7997
  140.5019  143.2360  151.7738 H   0  0  0  0  0  0  0  0  0  0  0  0  # atno 10167 bound_to 10162
  156.9622  130.5937  149.5663 H   0  0  0  0  0  0  0  0  0  0  0  0  # atno 10718 bound_to 10713
  154.7857  135.3189  154.7891 H   0  0  0  0  0  0  0  0  0  0  0  0  # atno 10763 bound_to 10752
  153.8592  135.6855  153.4789 H   0  0  0  0  0  0  0  0  0  0  0  0  # atno 10764 bound_to 10752
  153.1508  135.4700  154.9572 H   0  0  0  0  0  0  0  0  0  0  0  0  # atno 10765 bound_to 10752
  140.7613  134.3295  157.5101 H   0  0  0  0  0  0  0  0  0  0  0  0  # atno 11005 bound_to 11000
  145.9687  139.2853  143.1112 LP  0  0  0  0  0  0  0  0  0  0  0  0  # atno 17320 bound_to 7965
  145.9141  140.9160  143.0439 LP  0  0  0  0  0  0  0  0  0  0  0  0  # atno 17321 bound_to 7965
  139.4874  144.4510  151.9653 LP  0  0  0  0  0  0  0  0  0  0  0  0  # atno 17342 bound_to 10162
  140.3600  144.2985  150.5935 LP  0  0  0  0  0  0  0  0  0  0  0  0  # atno 17343 bound_to 10162
  156.0317  130.5408  150.8552 LP  0  0  0  0  0  0  0  0  0  0  0  0  # atno 17370 bound_to 10713
  157.5650  131.0946  150.9503 LP  0  0  0  0  0  0  0  0  0  0  0  0  # atno 17371 bound_to 10713
  139.8770  134.9203  156.3249 LP  0  0  0  0  0  0  0  0  0  0  0  0  # atno 17394 bound_to 11000
  140.9661  133.7357  156.0468 LP  0  0  0  0  0  0  0  0  0  0  0  0  # atno 17395 bound_to 11000

$$$$
