AV-unprocessed.smi:1995|AV-procd|sdf|8078|dock10
  -GOLD-   2272010293D 1   1.00000     0.00000
 Structure written by MMmdl.
 43 44  0  0  0  0  0  0  0  0  2 V2000
  148.2574  138.5407  155.1948 C   0  0  0  0  0  0  0  0  0  0  0  0
  148.2187  139.1363  153.7763 C   0  0  0  0  0  0  0  0  0  0  0  0
  146.8034  139.4664  153.2102 C   0  0  1  0  0  0  0  0  0  0  0  0
  146.9274  139.8122  151.7034 C   0  0  0  0  0  0  0  0  0  0  0  0
  145.8862  138.2086  153.3318 C   0  0  0  0  0  0  0  0  0  0  0  0
  146.3644  137.0460  152.5812 N   0  0  0  0  0  0  0  0  0  0  0  0
  145.6018  136.0398  152.1297 C   0  0  0  0  0  0  0  0  0  0  0  0
  144.3876  135.9701  152.3199 O   0  0  0  0  0  0  0  0  0  0  0  0
  146.3365  135.1378  151.4558 N   0  0  0  0  0  0  0  0  0  0  0  0
  145.9020  133.9283  150.8523 C   0  0  0  0  0  0  0  0  0  0  0  0
  146.7229  132.9914  150.3631 N   0  0  0  0  0  0  0  0  0  0  0  0
  146.0217  131.9088  149.8258 C   0  0  0  0  0  0  0  0  0  0  0  0
  144.6581  132.0411  149.9117 C   0  0  0  0  0  0  0  0  0  0  0  0
  144.1974  133.5387  150.6765 S   0  0  0  0  0  0  0  0  0  0  0  0
  146.1858  140.6319  153.9453 N   0  3  0  0  0  0  0  0  0  0  0  0
  145.8802  140.3991  155.3854 C   0  0  0  0  0  0  0  0  0  0  0  0
  145.0597  141.5672  155.9555 C   0  0  0  0  0  0  0  0  0  0  0  0
  145.7840  142.7785  155.7937 O   0  0  0  0  0  0  0  0  0  0  0  0
  146.0258  143.0693  154.4242 C   0  0  0  0  0  0  0  0  0  0  0  0
  146.8684  141.9484  153.7915 C   0  0  0  0  0  0  0  0  0  0  0  0
  149.2879  138.3563  155.4991 H   0  0  0  0  0  0  0  0  0  0  0  0
  147.7320  137.5879  155.2518 H   0  0  0  0  0  0  0  0  0  0  0  0
  147.8221  139.2137  155.9328 H   0  0  0  0  0  0  0  0  0  0  0  0
  148.8344  140.0351  153.7897 H   0  0  0  0  0  0  0  0  0  0  0  0
  148.7298  138.4363  153.1160 H   0  0  0  0  0  0  0  0  0  0  0  0
  147.1266  138.9264  151.0998 H   0  0  0  0  0  0  0  0  0  0  0  0
  147.7441  140.5069  151.5065 H   0  0  0  0  0  0  0  0  0  0  0  0
  146.0119  140.2592  151.3152 H   0  0  0  0  0  0  0  0  0  0  0  0
  145.7381  137.9338  154.3774 H   0  0  0  0  0  0  0  0  0  0  0  0
  144.8850  138.4350  152.9648 H   0  0  0  0  0  0  0  0  0  0  0  0
  147.3498  137.0230  152.3631 H   0  0  0  0  0  0  0  0  0  0  0  0
  147.3213  135.3378  151.3608 H   0  0  0  0  0  0  0  0  0  0  0  0
  146.5745  131.0841  149.4004 H   0  0  0  0  0  0  0  0  0  0  0  0
  143.9000  131.3509  149.5728 H   0  0  0  0  0  0  0  0  0  0  0  0
  145.3140  139.4814  155.5320 H   0  0  0  0  0  0  0  0  0  0  0  0
  146.8034  140.3013  155.9570 H   0  0  0  0  0  0  0  0  0  0  0  0
  144.0871  141.6381  155.4656 H   0  0  0  0  0  0  0  0  0  0  0  0
  144.8708  141.4103  157.0177 H   0  0  0  0  0  0  0  0  0  0  0  0
  145.0801  143.1918  153.8935 H   0  0  0  0  0  0  0  0  0  0  0  0
  146.5540  144.0205  154.3550 H   0  0  0  0  0  0  0  0  0  0  0  0
  147.8507  141.9220  154.2636 H   0  0  0  0  0  0  0  0  0  0  0  0
  147.0207  142.2055  152.7452 H   0  0  0  0  0  0  0  0  0  0  0  0
  145.2874  140.7549  153.5005 H   0  0  0  0  0  0  0  0  0  0  0  0
  1  2  1  0  0  0  0
  1 21  1  0  0  0  0
  1 22  1  0  0  0  0
  1 23  1  0  0  0  0
  2  3  1  0  0  0  0
  2 24  1  0  0  0  0
  2 25  1  0  0  0  0
  3  4  1  0  0  0  0
  3  5  1  0  0  0  0
  3 15  1  0  0  0  0
  4 26  1  0  0  0  0
  4 27  1  0  0  0  0
  4 28  1  0  0  0  0
  5  6  1  0  0  0  0
  5 29  1  0  0  0  0
  5 30  1  0  0  0  0
  6  7  1  0  0  0  0
  6 31  1  0  0  0  0
  7  8  2  0  0  0  0
  7  9  1  0  0  0  0
  9 10  1  0  0  0  0
  9 32  1  0  0  0  0
 10 14  1  0  0  0  0
 10 11  2  0  0  0  0
 11 12  1  0  0  0  0
 12 13  2  0  0  0  0
 12 33  1  0  0  0  0
 13 14  1  0  0  0  0
 13 34  1  0  0  0  0
 15 20  1  0  0  0  0
 15 16  1  0  0  0  0
 15 43  1  0  0  0  0
 16 17  1  0  0  0  0
 16 35  1  0  0  0  0
 16 36  1  0  0  0  0
 17 18  1  0  0  0  0
 17 37  1  0  0  0  0
 17 38  1  0  0  0  0
 18 19  1  0  0  0  0
 19 20  1  0  0  0  0
 19 39  1  0  0  0  0
 19 40  1  0  0  0  0
 20 41  1  0  0  0  0
 20 42  1  0  0  0  0
M  CHG  1  15   1
M  END
> <s_m_source_file>
AV-unprocessed.smi

> <i_m_source_file_index>
1995

> <i_lp_mmshare_version>
43012

> <i_f3d_flags>
0

> <s_epik_input>
W0NIMl0xW0NIMl1PW0NIMl1bQ0gyXU4xW0NAQF0oW0NIM10pKFtDSDJdW0NIM10pW0NIMl1bTkhdQyg9TylbTkhdYzJuW2NIXVtjSF1zMg==

> <s_epik_cmdline>
J2VwaWtfcHl0aG9uJywgJy1waCcsICc3LjAnLCAnLXRuJywgJzgnLCAnLW1hJywgJzIwMCcsICctbWV0YWxfYmluZGluZycsICctaW1hZScsICc8aW5maWxlLm1hZT4nLCAnLW9tYWUnLCAnPG91dGZpbGUubWFlPic=

> <r_lp_tautomer_probability>
0.999

> <r_epik_Ionization_Penalty>
0.55406

> <r_epik_Ionization_Penalty_Charging>
0.553838

> <r_epik_Ionization_Penalty_Neutral>
0.000222147

> <r_epik_State_Penalty>
0.564424

> <r_epik_Charging_Adjusted_Penalty>
1.11826

> <i_epik_Tot_Q>
1

> <i_epik_Tot_abs_Q>
1

> <r_epik_Metal_State_Penalty>
0.573776

> <b_epik_Metal_Only>
0

> <s_lp_Force_Field>
OPLS_2005

> <r_lp_Energy>
32.5614

> <b_lp_Chiralities_Consistent>
1

> <s_lp_Variant>
AV-unprocessed.smi:1995-3

> <Gold.Version>
5.8.1

> <Gold.Id.Protein>
6NUR|6NUR_protein|mol2

> <Gold.PLP.Fitness>
45.2731

> <Gold.PLP.PLP>
-31.6920

> <Gold.PLP.part.hbond>
-3.1063

> <Gold.PLP.part.metal>
0.0000

> <Gold.PLP.part.buried>
-0.9345

> <Gold.PLP.part.nonpolar>
-28.1467

> <Gold.PLP.part.repulsive>
0.7961

> <Gold.PLP.ligand.clash>
0.0000

> <Gold.PLP.ligand.torsion>
0.3068

> <Gold.PLP.Chemscore.Hbond>
4.0000

> <Gold.PLP.Chemscore.CHOScore>
0.6865

> <Gold.PLP.Chemscore.Metal>
0.0000

> <Gold.Chemscore.Hbonds>
donor molecule, donor type, donor heavy atom, donor atom, acceptor molecule, acceptor atom, score
      L1  H     6    31       P1  7948  1.00
      L1  H     9    32       P1  7948  1.00
      L1  H    15    43       P1 10175  2.00
      L1  C    12    33       P1 10747  0.69

> <Gold.PLP.Chemscore.Internal.Correction>
0.1352

> <Gold.Rescore>
     Score         DG    S(hbond)    S(metal)    S(lipo)     H(rot)  DE(clash)    DE(int)     intcor
     16.07     -19.01       2.80        0.00      74.94       1.79       1.25       1.68       ----

> <Gold.Chemscore.Fitness>
16.0701

> <Gold.Chemscore.DG>
-19.0089

> <Gold.Chemscore.ZeroCoef>
-5.4800

> <Gold.Chemscore.Hbond>
2.8006

> <Gold.Chemscore.Metal>
0.0000

> <Gold.Chemscore.Lipo>
74.9411

> <Gold.Chemscore.Internal_Hbond>
0.0000

> <Gold.Chemscore.DEClash>
1.2540

> <Gold.Chemscore.DEInternal>
1.6848

> <Gold.Chemscore.Rot>
1.7942

> <Gold.Chemscore.Internal.Correction>
   9.000000E+99

> <Gold.Chemscore.Hbonds>
donor molecule, donor type, donor heavy atom, donor atom, acceptor molecule, acceptor atom, score
      L1  H     6    31       P1  7948  0.98
      L1  H     9    32       P1  7948  0.80
      L1  H    15    43       P1 10175  0.88

> <Gold.Chemscore.Hbond.Weighted>
-9.3538

> <Gold.Chemscore.Metal.Weighted>
-0.0000

> <Gold.Chemscore.Lipo.Weighted>
-8.7681

> <Gold.Chemscore.Internal_Hbond.Weighted>
0.0000

> <Gold.Chemscore.DEClash.Weighted>
1.2540

> <Gold.Chemscore.DEInternal.Weighted>
1.6848

> <Gold.Chemscore.Rot.Weighted>
4.5931

> <Gold.Chemscore.Internal.Correction.Weighted>
   9.000000E+99

> <Gold.Protein.RotatedTorsions>
[ 6907 6896 6895 6894 ] final  131.09 input  -60.11 | X-H torsion
[ 7974 7965 7964 7962 ] final   71.11 input  175.53 | X-H torsion
[ 8008 7997 7996 7995 ] final   35.38 input   59.86 | X-H torsion
[ 10167 10162 10161 10158 ] final -169.82 input  -65.29 | X-H torsion
[ 10718 10713 10712 10709 ] final  152.00 input   66.30 | X-H torsion
[ 10763 10752 10751 10750 ] final  -95.04 input  -60.55 | X-H torsion
[ 11005 11000 10999 10996 ] final -157.45 input  -57.11 | X-H torsion

> <Gold.Protein.ActiveResidues>
 VAL166  LYS551  ARG553  GLY616  TRP617  ASP618  TYR619  PRO620  LYS621  CYS622 
 ASP623  PHE694  ASN695  SER759  ASP760  ASP761  ALA762  ILE779  LEU786  VAL792 
 PHE793  MET794  SER795  GLU796  ALA797  LYS798  CYS799  TRP800  GLU811  SER814 

> <Gold.Protein.RotatedAtoms>
  152.3461  133.6124  159.5910 H   0  0  0  0  0  0  0  0  0  0  0  0  # atno 6907 bound_to 6896
  150.7508  133.9647  159.3535 H   0  0  0  0  0  0  0  0  0  0  0  0  # atno 6908 bound_to 6896
  151.7505  135.0834  160.0381 H   0  0  0  0  0  0  0  0  0  0  0  0  # atno 6909 bound_to 6896
  145.7699  139.2838  143.1327 H   0  0  0  0  0  0  0  0  0  0  0  0  # atno 7974 bound_to 7965
  155.1701  140.3291  155.4394 H   0  0  0  0  0  0  0  0  0  0  0  0  # atno 8008 bound_to 7997
  156.2513  140.1945  156.6755 H   0  0  0  0  0  0  0  0  0  0  0  0  # atno 8009 bound_to 7997
  154.6343  140.0578  156.9756 H   0  0  0  0  0  0  0  0  0  0  0  0  # atno 8010 bound_to 7997
  139.5899  144.1236  152.1621 H   0  0  0  0  0  0  0  0  0  0  0  0  # atno 10167 bound_to 10162
  157.2635  131.0803  151.1649 H   0  0  0  0  0  0  0  0  0  0  0  0  # atno 10718 bound_to 10713
  154.7111  135.5135  153.8668 H   0  0  0  0  0  0  0  0  0  0  0  0  # atno 10763 bound_to 10752
  153.0781  135.6623  154.0111 H   0  0  0  0  0  0  0  0  0  0  0  0  # atno 10764 bound_to 10752
  153.9952  135.3016  155.3387 H   0  0  0  0  0  0  0  0  0  0  0  0  # atno 10765 bound_to 10752
  140.6645  134.4314  157.5233 H   0  0  0  0  0  0  0  0  0  0  0  0  # atno 11005 bound_to 11000
  146.0180  140.8374  142.9937 LP  0  0  0  0  0  0  0  0  0  0  0  0  # atno 17320 bound_to 7965
  144.6814  140.2587  143.7322 LP  0  0  0  0  0  0  0  0  0  0  0  0  # atno 17321 bound_to 7965
  140.0808  144.5702  150.7124 LP  0  0  0  0  0  0  0  0  0  0  0  0  # atno 17342 bound_to 10162
  140.7164  143.2548  151.4420 LP  0  0  0  0  0  0  0  0  0  0  0  0  # atno 17343 bound_to 10162
  157.3150  130.6908  149.6237 LP  0  0  0  0  0  0  0  0  0  0  0  0  # atno 17370 bound_to 10713
  155.9664  130.4352  150.5082 LP  0  0  0  0  0  0  0  0  0  0  0  0  # atno 17371 bound_to 10713
  139.9002  134.8574  156.1930 LP  0  0  0  0  0  0  0  0  0  0  0  0  # atno 17394 bound_to 11000
  141.0440  133.6923  156.1649 LP  0  0  0  0  0  0  0  0  0  0  0  0  # atno 17395 bound_to 11000

$$$$
