AV-unprocessed.smi:1758|AV-procd|sdf|7082|dock7
  -GOLD-   22720 8303D 1   1.00000     0.00000
 Structure written by MMmdl.
 44 46  0  0  0  0  0  0  0  0  2 V2000
  149.6487  141.8828  157.3599 C   0  0  0  0  0  0  0  0  0  0  0  0
  150.2382  141.9174  155.9445 C   0  0  0  0  0  0  0  0  0  0  0  0
  150.0663  140.6512  155.2596 N   0  0  0  0  0  0  0  0  0  0  0  0
  148.8874  140.0155  154.9231 C   0  0  0  0  0  0  0  0  0  0  0  0
  149.2579  138.8641  154.2876 C   0  0  0  0  0  0  0  0  0  0  0  0
  148.4478  137.8467  153.7239 N   0  0  0  0  0  0  0  0  0  0  0  0
  147.2071  137.4935  154.0965 C   0  0  0  0  0  0  0  0  0  0  0  0
  146.5767  137.9944  155.0273 O   0  0  0  0  0  0  0  0  0  0  0  0
  146.7336  136.4995  153.3312 N   0  0  0  0  0  0  0  0  0  0  0  0
  145.4194  135.8754  153.4754 C   0  0  1  0  0  0  0  0  0  0  0  0
  144.2881  136.7026  152.8351 C   0  0  0  0  0  0  0  0  0  0  0  0
  143.3835  135.6651  152.1621 C   0  0  0  0  0  0  0  0  0  0  0  0
  144.3338  134.6316  151.7358 N   0  3  2  0  0  0  0  0  0  0  0  0
  143.8056  133.3405  151.2512 C   0  0  0  0  0  0  0  0  0  0  0  0
  144.9829  132.5127  150.6922 C   0  0  0  0  0  0  0  0  0  0  0  0
  146.1436  132.3871  151.7053 C   0  0  0  0  0  0  0  0  0  0  0  0
  146.5612  133.7610  152.2733 C   0  0  0  0  0  0  0  0  0  0  0  0
  145.3142  134.4754  152.8244 C   0  0  1  0  0  0  0  0  0  0  0  0
  150.6769  138.8678  154.2745 C   0  0  0  0  0  0  0  0  0  0  0  0
  151.1583  139.9495  154.8672 N   0  0  0  0  0  0  0  0  0  0  0  0
  149.7973  142.8375  157.8647 H   0  0  0  0  0  0  0  0  0  0  0  0
  150.1229  141.1092  157.9646 H   0  0  0  0  0  0  0  0  0  0  0  0
  148.5772  141.6814  157.3381 H   0  0  0  0  0  0  0  0  0  0  0  0
  149.7650  142.7030  155.3541 H   0  0  0  0  0  0  0  0  0  0  0  0
  151.3029  142.1496  155.9871 H   0  0  0  0  0  0  0  0  0  0  0  0
  147.9210  140.4369  155.1574 H   0  0  0  0  0  0  0  0  0  0  0  0
  148.8594  137.3330  152.9587 H   0  0  0  0  0  0  0  0  0  0  0  0
  147.3248  136.1515  152.5906 H   0  0  0  0  0  0  0  0  0  0  0  0
  145.1924  135.7735  154.5388 H   0  0  0  0  0  0  0  0  0  0  0  0
  143.7522  137.3149  153.5611 H   0  0  0  0  0  0  0  0  0  0  0  0
  144.6922  137.3731  152.0748 H   0  0  0  0  0  0  0  0  0  0  0  0
  142.6785  135.2450  152.8815 H   0  0  0  0  0  0  0  0  0  0  0  0
  142.8214  136.0756  151.3230 H   0  0  0  0  0  0  0  0  0  0  0  0
  143.3050  132.8096  152.0623 H   0  0  0  0  0  0  0  0  0  0  0  0
  143.0641  133.5148  150.4709 H   0  0  0  0  0  0  0  0  0  0  0  0
  144.6364  131.5224  150.3955 H   0  0  0  0  0  0  0  0  0  0  0  0
  145.3549  132.9901  149.7847 H   0  0  0  0  0  0  0  0  0  0  0  0
  145.8337  131.7385  152.5256 H   0  0  0  0  0  0  0  0  0  0  0  0
  146.9992  131.8998  151.2367 H   0  0  0  0  0  0  0  0  0  0  0  0
  147.3033  133.6230  153.0601 H   0  0  0  0  0  0  0  0  0  0  0  0
  147.0302  134.3614  151.4926 H   0  0  0  0  0  0  0  0  0  0  0  0
  144.8644  133.8239  153.5770 H   0  0  0  0  0  0  0  0  0  0  0  0
  151.3595  138.1383  153.8643 H   0  0  0  0  0  0  0  0  0  0  0  0
  144.8410  135.0389  150.9631 H   0  0  0  0  0  0  0  0  0  0  0  0
  1  2  1  0  0  0  0
  1 21  1  0  0  0  0
  1 22  1  0  0  0  0
  1 23  1  0  0  0  0
  2  3  1  0  0  0  0
  2 24  1  0  0  0  0
  2 25  1  0  0  0  0
  3 20  1  0  0  0  0
  3  4  1  0  0  0  0
  4  5  2  0  0  0  0
  4 26  1  0  0  0  0
  5  6  1  0  0  0  0
  5 19  1  0  0  0  0
  6  7  1  0  0  0  0
  6 27  1  0  0  0  0
  7  8  2  0  0  0  0
  7  9  1  0  0  0  0
  9 10  1  0  0  0  0
  9 28  1  0  0  0  0
 10 18  1  0  0  0  0
 10 11  1  0  0  0  0
 10 29  1  0  0  0  0
 11 12  1  0  0  0  0
 11 30  1  0  0  0  0
 11 31  1  0  0  0  0
 12 13  1  0  0  0  0
 12 32  1  0  0  0  0
 12 33  1  0  0  0  0
 13 18  1  0  0  0  0
 13 14  1  0  0  0  0
 13 44  1  0  0  0  0
 14 15  1  0  0  0  0
 14 34  1  0  0  0  0
 14 35  1  0  0  0  0
 15 16  1  0  0  0  0
 15 36  1  0  0  0  0
 15 37  1  0  0  0  0
 16 17  1  0  0  0  0
 16 38  1  0  0  0  0
 16 39  1  0  0  0  0
 17 18  1  0  0  0  0
 17 40  1  0  0  0  0
 17 41  1  0  0  0  0
 18 42  1  0  0  0  0
 19 20  2  0  0  0  0
 19 43  1  0  0  0  0
M  CHG  1  13   1
M  END
> <s_m_source_file>
AV-unprocessed.smi

> <i_m_source_file_index>
1758

> <i_lp_mmshare_version>
43012

> <i_f3d_flags>
0

> <s_epik_input>
W0NIM11bQ0gyXW4xW2NIXWMoW2NIXW4xKVtOSF1DKD1PKVtOSF1bQ0BIXShbQ0gyXVtDSDJdMilbQ0BASF0oTjIzKVtDSDJdW0NIMl1bQ0gyXVtDSDJdMw==

> <s_epik_cmdline>
J2VwaWtfcHl0aG9uJywgJy1waCcsICc3LjAnLCAnLXRuJywgJzgnLCAnLW1hJywgJzIwMCcsICctbWV0YWxfYmluZGluZycsICctaW1hZScsICc8aW5maWxlLm1hZT4nLCAnLW9tYWUnLCAnPG91dGZpbGUubWFlPic=

> <r_lp_tautomer_probability>
1

> <r_epik_Ionization_Penalty>
0.00111541

> <r_epik_Ionization_Penalty_Charging>
0.000974069

> <r_epik_Ionization_Penalty_Neutral>
0.000141346

> <r_epik_State_Penalty>
0.000633842

> <r_epik_Charging_Adjusted_Penalty>
0.00160791

> <i_epik_Tot_Q>
1

> <i_epik_Tot_abs_Q>
1

> <r_epik_Metal_State_Penalty>
-0

> <b_epik_Metal_Only>
0

> <s_lp_Force_Field>
OPLS_2005

> <r_lp_Energy>
45.3498

> <b_lp_Chiralities_Consistent>
1

> <s_lp_Variant>
AV-unprocessed.smi:1758-4

> <Gold.Version>
5.8.1

> <Gold.Id.Protein>
6NUR|6NUR_protein|mol2

> <Gold.PLP.Fitness>
38.1640

> <Gold.PLP.PLP>
-30.2752

> <Gold.PLP.part.hbond>
-2.9233

> <Gold.PLP.part.metal>
0.0000

> <Gold.PLP.part.buried>
-5.1324

> <Gold.PLP.part.nonpolar>
-23.0686

> <Gold.PLP.part.repulsive>
0.1163

> <Gold.PLP.ligand.clash>
0.0000

> <Gold.PLP.ligand.torsion>
0.4483

> <Gold.PLP.Chemscore.Hbond>
2.9280

> <Gold.PLP.Chemscore.CHOScore>
0.0000

> <Gold.PLP.Chemscore.Metal>
0.0000

> <Gold.Chemscore.Hbonds>
donor molecule, donor type, donor heavy atom, donor atom, acceptor molecule, acceptor atom, score
      L1  H     6    27       P1  7948  1.00
      L1  H     9    28       P1  7948  0.91
      P1  H  7989  7998       L1    20  1.00

> <Gold.PLP.Chemscore.Internal.Correction>
0.0014

> <Gold.Rescore>
     Score         DG    S(hbond)    S(metal)    S(lipo)     H(rot)  DE(clash)    DE(int)     intcor
     16.65     -17.15       1.91        0.00      71.13       1.19       0.00       0.49       ----

> <Gold.Chemscore.Fitness>
16.6539

> <Gold.Chemscore.DG>
-17.1457

> <Gold.Chemscore.ZeroCoef>
-5.4800

> <Gold.Chemscore.Hbond>
1.9120

> <Gold.Chemscore.Metal>
0.0000

> <Gold.Chemscore.Lipo>
71.1259

> <Gold.Chemscore.Internal_Hbond>
0.0000

> <Gold.Chemscore.DEClash>
0.0004

> <Gold.Chemscore.DEInternal>
0.4914

> <Gold.Chemscore.Rot>
1.1884

> <Gold.Chemscore.Internal.Correction>
   9.000000E+99

> <Gold.Chemscore.Hbonds>
donor molecule, donor type, donor heavy atom, donor atom, acceptor molecule, acceptor atom, score
      L1  H     6    27       P1  7948  0.94
      L1  H     9    28       P1  7948  0.90
      P1  H  7989  7998       L1    20  0.08

> <Gold.Chemscore.Hbond.Weighted>
-6.3862

> <Gold.Chemscore.Metal.Weighted>
-0.0000

> <Gold.Chemscore.Lipo.Weighted>
-8.3217

> <Gold.Chemscore.Internal_Hbond.Weighted>
0.0000

> <Gold.Chemscore.DEClash.Weighted>
0.0004

> <Gold.Chemscore.DEInternal.Weighted>
0.4914

> <Gold.Chemscore.Rot.Weighted>
3.0423

> <Gold.Chemscore.Internal.Correction.Weighted>
   9.000000E+99

> <Gold.Protein.RotatedTorsions>
[ 6907 6896 6895 6894 ] final -137.98 input  -60.11 | X-H torsion
[ 7974 7965 7964 7962 ] final   78.53 input  175.53 | X-H torsion
[ 8008 7997 7996 7995 ] final  103.30 input   59.86 | X-H torsion
[ 10167 10162 10161 10158 ] final   83.06 input  -65.29 | X-H torsion
[ 10718 10713 10712 10709 ] final  -38.56 input   66.30 | X-H torsion
[ 10763 10752 10751 10750 ] final  -64.24 input  -60.55 | X-H torsion
[ 11005 11000 10999 10996 ] final  152.94 input  -57.11 | X-H torsion

> <Gold.Protein.ActiveResidues>
 VAL166  LYS551  ARG553  GLY616  TRP617  ASP618  TYR619  PRO620  LYS621  CYS622 
 ASP623  PHE694  ASN695  SER759  ASP760  ASP761  ALA762  ILE779  LEU786  VAL792 
 PHE793  MET794  SER795  GLU796  ALA797  LYS798  CYS799  TRP800  GLU811  SER814 

> <Gold.Protein.RotatedAtoms>
  151.0293  133.5805  159.2662 H   0  0  0  0  0  0  0  0  0  0  0  0  # atno 6907 bound_to 6896
  151.2892  135.0736  159.9208 H   0  0  0  0  0  0  0  0  0  0  0  0  # atno 6908 bound_to 6896
  152.5341  133.9994  159.7942 H   0  0  0  0  0  0  0  0  0  0  0  0  # atno 6909 bound_to 6896
  145.6760  139.2510  143.1841 H   0  0  0  0  0  0  0  0  0  0  0  0  # atno 7974 bound_to 7965
  156.1472  140.3167  155.8588 H   0  0  0  0  0  0  0  0  0  0  0  0  # atno 8008 bound_to 7997
  155.4042  140.0501  157.3052 H   0  0  0  0  0  0  0  0  0  0  0  0  # atno 8009 bound_to 7997
  154.5026  140.2135  155.9327 H   0  0  0  0  0  0  0  0  0  0  0  0  # atno 8010 bound_to 7997
  139.9223  144.6205  150.8427 H   0  0  0  0  0  0  0  0  0  0  0  0  # atno 10167 bound_to 10162
  156.3024  130.4242  149.8130 H   0  0  0  0  0  0  0  0  0  0  0  0  # atno 10718 bound_to 10713
  154.3271  135.6184  153.5534 H   0  0  0  0  0  0  0  0  0  0  0  0  # atno 10763 bound_to 10752
  152.9814  135.5738  154.5004 H   0  0  0  0  0  0  0  0  0  0  0  0  # atno 10764 bound_to 10752
  154.4684  135.2858  155.1638 H   0  0  0  0  0  0  0  0  0  0  0  0  # atno 10765 bound_to 10752
  140.1352  134.8775  157.2258 H   0  0  0  0  0  0  0  0  0  0  0  0  # atno 11005 bound_to 11000
  146.1005  140.7549  142.9551 LP  0  0  0  0  0  0  0  0  0  0  0  0  # atno 17320 bound_to 7965
  144.7041  140.3780  143.7132 LP  0  0  0  0  0  0  0  0  0  0  0  0  # atno 17321 bound_to 7965
  140.7659  143.3288  151.2456 LP  0  0  0  0  0  0  0  0  0  0  0  0  # atno 17342 bound_to 10162
  139.6851  143.9788  152.2830 LP  0  0  0  0  0  0  0  0  0  0  0  0  # atno 17343 bound_to 10162
  156.5503  130.8339  151.3297 LP  0  0  0  0  0  0  0  0  0  0  0  0  # atno 17370 bound_to 10713
  157.7371  130.9790  150.2175 LP  0  0  0  0  0  0  0  0  0  0  0  0  # atno 17371 bound_to 10713
  140.2791  134.3371  155.7349 LP  0  0  0  0  0  0  0  0  0  0  0  0  # atno 17394 bound_to 11000
  141.2177  133.7468  156.9337 LP  0  0  0  0  0  0  0  0  0  0  0  0  # atno 17395 bound_to 11000

$$$$
