AV-unprocessed.smi:367|AV-procd|sdf|2431|dock4
  -GOLD-   2262022373D 1   1.00000     0.00000
 Structure written by MMmdl.
 22 22  0  0  0  0  0  0  0  0  2 V2000
  151.5441  145.2922  158.8957 C   0  0  0  0  0  0  0  0  0  0  0  0
  151.6824  143.8272  158.5385 C   0  0  0  0  0  0  0  0  0  0  0  0
  152.4283  142.9948  159.1871 N   0  0  0  0  0  0  0  0  0  0  0  0
  152.4728  141.6590  158.7630 C   0  0  0  0  0  0  0  0  0  0  0  0
  153.3659  140.7410  159.5793 C   0  0  0  0  0  0  0  0  0  0  0  0
  151.7546  141.2252  157.6855 C   0  0  0  0  0  0  0  0  0  0  0  0
  151.7790  139.7745  157.2002 C   0  0  0  0  0  0  0  0  0  0  0  0
  152.2568  139.5892  155.7549 C   0  0  0  0  0  0  0  0  0  0  0  0
  153.3279  138.9638  155.5987 O   0  0  0  0  0  0  0  0  0  0  0  0
  151.5615  140.0705  154.8323 O   0  5  0  0  0  0  0  0  0  0  0  0
  150.9106  142.1863  156.9493 C   0  0  0  0  0  0  0  0  0  0  0  0
  150.2264  141.9068  155.9658 O   0  0  0  0  0  0  0  0  0  0  0  0
  150.9252  143.4493  157.4313 N   0  0  0  0  0  0  0  0  0  0  0  0
  150.3601  144.1428  156.9641 H   0  0  0  0  0  0  0  0  0  0  0  0
  151.1544  145.3960  159.9086 H   0  0  0  0  0  0  0  0  0  0  0  0
  150.8682  145.8115  158.2150 H   0  0  0  0  0  0  0  0  0  0  0  0
  152.5167  145.7823  158.8505 H   0  0  0  0  0  0  0  0  0  0  0  0
  154.1893  140.3682  158.9701 H   0  0  0  0  0  0  0  0  0  0  0  0
  152.7998  139.8892  159.9569 H   0  0  0  0  0  0  0  0  0  0  0  0
  153.7927  141.2627  160.4366 H   0  0  0  0  0  0  0  0  0  0  0  0
  152.4010  139.1599  157.8518 H   0  0  0  0  0  0  0  0  0  0  0  0
  150.7770  139.3537  157.2851 H   0  0  0  0  0  0  0  0  0  0  0  0
  1  2  1  0  0  0  0
  1 15  1  0  0  0  0
  1 16  1  0  0  0  0
  1 17  1  0  0  0  0
  2 13  1  0  0  0  0
  2  3  2  0  0  0  0
  3  4  1  0  0  0  0
  4  5  1  0  0  0  0
  4  6  2  0  0  0  0
  5 18  1  0  0  0  0
  5 19  1  0  0  0  0
  5 20  1  0  0  0  0
  6  7  1  0  0  0  0
  6 11  1  0  0  0  0
  7  8  1  0  0  0  0
  7 21  1  0  0  0  0
  7 22  1  0  0  0  0
  8  9  2  0  0  0  0
  8 10  1  0  0  0  0
 11 12  2  0  0  0  0
 11 13  1  0  0  0  0
 13 14  1  0  0  0  0
M  CHG  1  10  -1
M  END
> <s_m_source_file>
AV-unprocessed.smi

> <i_m_source_file_index>
367

> <i_lp_mmshare_version>
43012

> <i_f3d_flags>
0

> <s_epik_input>
W0NIM11jMW5jKFtDSDNdKWMoYyg9TylbbkhdMSlbQ0gyXUMoPU8pW09IXQ==

> <s_epik_cmdline>
J2VwaWtfcHl0aG9uJywgJy1waCcsICc3LjAnLCAnLXRuJywgJzgnLCAnLW1hJywgJzIwMCcsICctbWV0YWxfYmluZGluZycsICctaW1hZScsICc8aW5maWxlLm1hZT4nLCAnLW9tYWUnLCAnPG91dGZpbGUubWFlPic=

> <r_lp_tautomer_probability>
0.839158

> <r_epik_Ionization_Penalty>
0.000902249

> <r_epik_Ionization_Penalty_Charging>
0.000677242

> <r_epik_Ionization_Penalty_Neutral>
0.000225007

> <r_epik_State_Penalty>
0.09125

> <r_epik_Charging_Adjusted_Penalty>
0.0919273

> <i_epik_Tot_Q>
-1

> <i_epik_Tot_abs_Q>
1

> <r_epik_Metal_State_Penalty>
0.14165

> <b_epik_Metal_Only>
0

> <s_lp_Force_Field>
OPLS_2005

> <r_lp_Energy>
4.26247

> <b_lp_Chiralities_Consistent>
1

> <s_lp_Variant>
AV-unprocessed.smi:367-1

> <Gold.Version>
5.8.1

> <Gold.Id.Protein>
6NUR|6NUR_protein|mol2

> <Gold.PLP.Fitness>
38.9971

> <Gold.PLP.PLP>
-27.0504

> <Gold.PLP.part.hbond>
-3.0000

> <Gold.PLP.part.metal>
0.0000

> <Gold.PLP.part.buried>
-5.5862

> <Gold.PLP.part.nonpolar>
-19.0352

> <Gold.PLP.part.repulsive>
0.1665

> <Gold.PLP.ligand.clash>
0.0000

> <Gold.PLP.ligand.torsion>
0.0267

> <Gold.PLP.Chemscore.Hbond>
4.0000

> <Gold.PLP.Chemscore.CHOScore>
0.0000

> <Gold.PLP.Chemscore.Metal>
0.0000

> <Gold.Chemscore.Hbonds>
donor molecule, donor type, donor heavy atom, donor atom, acceptor molecule, acceptor atom, score
      L1  H    13    14       P1  8028  1.00
      P1  H  7989  7998       L1    10  1.00
      P1  H  7997  8010       L1     9  1.90

> <Gold.PLP.Chemscore.Internal.Correction>
0.0001

> <Gold.Rescore>
     Score         DG    S(hbond)    S(metal)    S(lipo)     H(rot)  DE(clash)    DE(int)     intcor
     13.74     -15.62       2.79        0.00      40.94       1.55       0.13       1.75       ----

> <Gold.Chemscore.Fitness>
13.7408

> <Gold.Chemscore.DG>
-15.6198

> <Gold.Chemscore.ZeroCoef>
-5.4800

> <Gold.Chemscore.Hbond>
2.7881

> <Gold.Chemscore.Metal>
0.0000

> <Gold.Chemscore.Lipo>
40.9380

> <Gold.Chemscore.Internal_Hbond>
0.0000

> <Gold.Chemscore.DEClash>
0.1326

> <Gold.Chemscore.DEInternal>
1.7464

> <Gold.Chemscore.Rot>
1.5477

> <Gold.Chemscore.Internal.Correction>
   9.000000E+99

> <Gold.Chemscore.Hbonds>
donor molecule, donor type, donor heavy atom, donor atom, acceptor molecule, acceptor atom, score
      L1  H    13    14       P1  8028  0.88
      P1  H  7989  7998       L1    10  0.93
      P1  H  7997  8010       L1     9  0.21

> <Gold.Chemscore.Hbond.Weighted>
-9.3121

> <Gold.Chemscore.Metal.Weighted>
-0.0000

> <Gold.Chemscore.Lipo.Weighted>
-4.7897

> <Gold.Chemscore.Internal_Hbond.Weighted>
0.0000

> <Gold.Chemscore.DEClash.Weighted>
0.1326

> <Gold.Chemscore.DEInternal.Weighted>
1.7464

> <Gold.Chemscore.Rot.Weighted>
3.9621

> <Gold.Chemscore.Internal.Correction.Weighted>
   9.000000E+99

> <Gold.Protein.RotatedTorsions>
[ 6907 6896 6895 6894 ] final   -7.74 input  -60.11 | X-H torsion
[ 7974 7965 7964 7962 ] final   35.76 input  175.53 | X-H torsion
[ 8008 7997 7996 7995 ] final   93.02 input   59.86 | X-H torsion
[ 10167 10162 10161 10158 ] final   27.54 input  -65.29 | X-H torsion
[ 10718 10713 10712 10709 ] final -114.02 input   66.30 | X-H torsion
[ 10763 10752 10751 10750 ] final  -64.84 input  -60.55 | X-H torsion
[ 11005 11000 10999 10996 ] final  100.71 input  -57.11 | X-H torsion

> <Gold.Protein.ActiveResidues>
 VAL166  LYS551  ARG553  GLY616  TRP617  ASP618  TYR619  PRO620  LYS621  CYS622 
 ASP623  PHE694  ASN695  SER759  ASP760  ASP761  ALA762  ILE779  LEU786  VAL792 
 PHE793  MET794  SER795  GLU796  ALA797  LYS798  CYS799  TRP800  GLU811  SER814 

> <Gold.Protein.RotatedAtoms>
  151.4447  135.1024  159.9680 H   0  0  0  0  0  0  0  0  0  0  0  0  # atno 6907 bound_to 6896
  152.4910  133.8496  159.7205 H   0  0  0  0  0  0  0  0  0  0  0  0  # atno 6908 bound_to 6896
  150.9063  133.6994  159.2893 H   0  0  0  0  0  0  0  0  0  0  0  0  # atno 6909 bound_to 6896
  146.1260  139.6102  142.9258 H   0  0  0  0  0  0  0  0  0  0  0  0  # atno 7974 bound_to 7965
  156.0420  140.3318  155.7254 H   0  0  0  0  0  0  0  0  0  0  0  0  # atno 8008 bound_to 7997
  155.5730  140.0629  157.2819 H   0  0  0  0  0  0  0  0  0  0  0  0  # atno 8009 bound_to 7997
  154.4397  140.1857  156.0887 H   0  0  0  0  0  0  0  0  0  0  0  0  # atno 8010 bound_to 7997
  140.4929  144.0438  150.6303 H   0  0  0  0  0  0  0  0  0  0  0  0  # atno 10167 bound_to 10162
  156.0803  130.6004  150.8719 H   0  0  0  0  0  0  0  0  0  0  0  0  # atno 10718 bound_to 10713
  154.3360  135.6166  153.5574 H   0  0  0  0  0  0  0  0  0  0  0  0  # atno 10763 bound_to 10752
  152.9807  135.5758  154.4907 H   0  0  0  0  0  0  0  0  0  0  0  0  # atno 10764 bound_to 10752
  154.4602  135.2855  155.1695 H   0  0  0  0  0  0  0  0  0  0  0  0  # atno 10765 bound_to 10752
  139.8771  134.9152  156.4798 H   0  0  0  0  0  0  0  0  0  0  0  0  # atno 11005 bound_to 11000
  145.5364  141.0424  143.2355 LP  0  0  0  0  0  0  0  0  0  0  0  0  # atno 17320 bound_to 7965
  144.7643  139.6882  143.7221 LP  0  0  0  0  0  0  0  0  0  0  0  0  # atno 17321 bound_to 7965
  140.3712  143.2853  152.0276 LP  0  0  0  0  0  0  0  0  0  0  0  0  # atno 17342 bound_to 10162
  139.4855  144.6228  151.7222 LP  0  0  0  0  0  0  0  0  0  0  0  0  # atno 17343 bound_to 10162
  157.5917  131.0944  150.9108 LP  0  0  0  0  0  0  0  0  0  0  0  0  # atno 17370 bound_to 10713
  156.9283  130.5340  149.5279 LP  0  0  0  0  0  0  0  0  0  0  0  0  # atno 17371 bound_to 10713
  140.8736  133.7970  155.9390 LP  0  0  0  0  0  0  0  0  0  0  0  0  # atno 17394 bound_to 11000
  140.8927  134.2475  157.5085 LP  0  0  0  0  0  0  0  0  0  0  0  0  # atno 17395 bound_to 11000

$$$$
