AV-unprocessed.smi:2718|AV-procd|sdf|10489|dock2
  -GOLD-   2272014533D 1   1.00000     0.00000
 Structure written by MMmdl.
 47 48  0  0  0  0  0  0  0  0  1 V2000
  151.6024  145.0033  159.5351 C   0  0  0  0  0  0  0  0  0  0  0  0
  152.1478  143.6477  159.1316 C   0  0  0  0  0  0  0  0  0  0  0  0
  153.6148  143.4307  159.4590 C   0  0  0  0  0  0  0  0  0  0  0  0
  151.3743  142.7250  158.5284 C   0  0  0  0  0  0  0  0  0  0  0  0
  151.7924  141.3713  158.0781 C   0  0  1  0  0  0  0  0  0  0  0  0
  151.2833  140.1316  158.7892 C   0  0  2  0  0  0  0  0  0  0  0  0
  152.2292  138.9952  159.0218 C   0  0  0  0  0  0  0  0  0  0  0  0
  151.9433  137.8146  158.8203 O   0  0  0  0  0  0  0  0  0  0  0  0
  153.4389  139.3867  159.4481 N   0  0  0  0  0  0  0  0  0  0  0  0
  154.5744  138.5028  159.6951 C   0  0  0  0  0  0  0  0  0  0  0  0
  155.7901  139.2421  160.2979 C   0  0  2  0  0  0  0  0  0  0  0  0
  156.1337  140.5126  159.5065 C   0  0  0  0  0  0  0  0  0  0  0  0
  156.9908  138.3475  160.4611 C   0  0  0  0  0  0  0  0  0  0  0  0
  157.5200  137.6329  159.4587 N   0  0  0  0  0  0  0  0  0  0  0  0
  158.5767  136.9376  160.0108 N   0  0  0  0  0  0  0  0  0  0  0  0
  158.5819  137.2996  161.2926 C   0  0  0  0  0  0  0  0  0  0  0  0
  157.6248  138.1726  161.6408 N   0  0  0  0  0  0  0  0  0  0  0  0
  157.3674  138.7495  162.9457 C   0  0  0  0  0  0  0  0  0  0  0  0
  150.8213  140.4401  157.3696 C   0  0  0  0  0  0  0  0  0  0  0  0
  149.3580  140.8116  157.1808 C   0  0  0  0  0  0  0  0  0  0  0  0
  151.3082  139.6730  156.1457 C   0  0  0  0  0  0  0  0  0  0  0  0
  151.7040  145.1473  160.6110 H   0  0  0  0  0  0  0  0  0  0  0  0
  150.5477  145.1053  159.2775 H   0  0  0  0  0  0  0  0  0  0  0  0
  152.1530  145.7969  159.0294 H   0  0  0  0  0  0  0  0  0  0  0  0
  154.2296  144.1506  158.9186 H   0  0  0  0  0  0  0  0  0  0  0  0
  153.9585  142.4311  159.1949 H   0  0  0  0  0  0  0  0  0  0  0  0
  153.7857  143.5699  160.5265 H   0  0  0  0  0  0  0  0  0  0  0  0
  150.3379  142.9670  158.3425 H   0  0  0  0  0  0  0  0  0  0  0  0
  152.8288  141.3644  157.7446 H   0  0  0  0  0  0  0  0  0  0  0  0
  150.5435  140.2864  159.5741 H   0  0  0  0  0  0  0  0  0  0  0  0
  153.5945  140.3751  159.5854 H   0  0  0  0  0  0  0  0  0  0  0  0
  154.2350  137.7322  160.3879 H   0  0  0  0  0  0  0  0  0  0  0  0
  154.8547  137.9862  158.7757 H   0  0  0  0  0  0  0  0  0  0  0  0
  155.4878  139.5808  161.2884 H   0  0  0  0  0  0  0  0  0  0  0  0
  156.9394  141.0675  159.9880 H   0  0  0  0  0  0  0  0  0  0  0  0
  155.2714  141.1763  159.4366 H   0  0  0  0  0  0  0  0  0  0  0  0
  156.4526  140.2754  158.4909 H   0  0  0  0  0  0  0  0  0  0  0  0
  159.3042  136.9148  161.9975 H   0  0  0  0  0  0  0  0  0  0  0  0
  158.1227  138.4171  163.6584 H   0  0  0  0  0  0  0  0  0  0  0  0
  156.3857  138.4368  163.3012 H   0  0  0  0  0  0  0  0  0  0  0  0
  157.3987  139.8373  162.8816 H   0  0  0  0  0  0  0  0  0  0  0  0
  148.7576  139.9147  157.0250 H   0  0  0  0  0  0  0  0  0  0  0  0
  149.2387  141.4654  156.3166 H   0  0  0  0  0  0  0  0  0  0  0  0
  148.9683  141.3310  158.0568 H   0  0  0  0  0  0  0  0  0  0  0  0
  150.8721  138.6741  156.1277 H   0  0  0  0  0  0  0  0  0  0  0  0
  152.3934  139.5797  156.1346 H   0  0  0  0  0  0  0  0  0  0  0  0
  151.0190  140.1931  155.2320 H   0  0  0  0  0  0  0  0  0  0  0  0
  1  2  1  0  0  0  0
  1 22  1  0  0  0  0
  1 23  1  0  0  0  0
  1 24  1  0  0  0  0
  2  3  1  0  0  0  0
  2  4  2  0  0  0  0
  3 25  1  0  0  0  0
  3 26  1  0  0  0  0
  3 27  1  0  0  0  0
  4  5  1  0  0  0  0
  4 28  1  0  0  0  0
  5 19  1  0  0  0  0
  5  6  1  0  0  0  0
  5 29  1  0  0  0  0
  6  7  1  0  0  0  0
  6 19  1  0  0  0  0
  6 30  1  0  0  0  0
  7  8  2  0  0  0  0
  7  9  1  0  0  0  0
  9 10  1  0  0  0  0
  9 31  1  0  0  0  0
 10 11  1  0  0  0  0
 10 32  1  0  0  0  0
 10 33  1  0  0  0  0
 11 12  1  0  0  0  0
 11 13  1  0  0  0  0
 11 34  1  0  0  0  0
 12 35  1  0  0  0  0
 12 36  1  0  0  0  0
 12 37  1  0  0  0  0
 13 17  1  0  0  0  0
 13 14  2  0  0  0  0
 14 15  1  0  0  0  0
 15 16  2  0  0  0  0
 16 17  1  0  0  0  0
 16 38  1  0  0  0  0
 17 18  1  0  0  0  0
 18 39  1  0  0  0  0
 18 40  1  0  0  0  0
 18 41  1  0  0  0  0
 19 20  1  0  0  0  0
 19 21  1  0  0  0  0
 20 42  1  0  0  0  0
 20 43  1  0  0  0  0
 20 44  1  0  0  0  0
 21 45  1  0  0  0  0
 21 46  1  0  0  0  0
 21 47  1  0  0  0  0
M  END
> <s_m_source_file>
AV-unprocessed.smi

> <i_m_source_file_index>
2718

> <i_lp_mmshare_version>
43012

> <i_f3d_flags>
0

> <s_epik_input>
W0NIM11DKFtDSDNdKT1bQ0hdW0NAQEhdKEMxKFtDSDNdKVtDSDNdKVtDQEhdMUMoPU8pW05IXVtDSDJdW0NASF0oW0NIM10pYzJubltjSF1uMltDSDNd

> <s_epik_cmdline>
J2VwaWtfcHl0aG9uJywgJy1waCcsICc3LjAnLCAnLXRuJywgJzgnLCAnLW1hJywgJzIwMCcsICctbWV0YWxfYmluZGluZycsICctaW1hZScsICc8aW5maWxlLm1hZT4nLCAnLW9tYWUnLCAnPG91dGZpbGUubWFlPic=

> <r_lp_tautomer_probability>
1

> <r_epik_Ionization_Penalty>
0.000449586

> <r_epik_Ionization_Penalty_Charging>
0

> <r_epik_Ionization_Penalty_Neutral>
0.000449586

> <r_epik_State_Penalty>
0.000243372

> <r_epik_Charging_Adjusted_Penalty>
0.000243372

> <i_epik_Tot_Q>
0

> <i_epik_Tot_abs_Q>
0

> <r_epik_Metal_State_Penalty>
-0

> <b_epik_Metal_Only>
0

> <s_lp_Force_Field>
OPLS_2005

> <r_lp_Energy>
15.8619

> <b_lp_Chiralities_Consistent>
1

> <s_lp_Variant>
AV-unprocessed.smi:2718-4

> <Gold.Version>
5.8.1

> <Gold.Id.Protein>
6NUR|6NUR_protein|mol2

> <Gold.PLP.Fitness>
41.8871

> <Gold.PLP.PLP>
-42.5816

> <Gold.PLP.part.hbond>
0.0000

> <Gold.PLP.part.metal>
0.0000

> <Gold.PLP.part.buried>
-4.8030

> <Gold.PLP.part.nonpolar>
-37.9141

> <Gold.PLP.part.repulsive>
0.1105

> <Gold.PLP.ligand.clash>
0.0000

> <Gold.PLP.ligand.torsion>
0.4847

> <Gold.PLP.Chemscore.Hbond>
0.0000

> <Gold.PLP.Chemscore.CHOScore>
0.0000

> <Gold.PLP.Chemscore.Metal>
0.0000

> <Gold.PLP.Chemscore.Internal.Correction>
0.2749

> <Gold.Rescore>
     Score         DG    S(hbond)    S(metal)    S(lipo)     H(rot)  DE(clash)    DE(int)     intcor
     12.08     -13.17       0.00        0.00     108.42       1.95       0.09       0.99       ----

> <Gold.Chemscore.Fitness>
12.0830

> <Gold.Chemscore.DG>
-13.1650

> <Gold.Chemscore.ZeroCoef>
-5.4800

> <Gold.Chemscore.Hbond>
0.0000

> <Gold.Chemscore.Metal>
0.0000

> <Gold.Chemscore.Lipo>
108.4239

> <Gold.Chemscore.Internal_Hbond>
0.0000

> <Gold.Chemscore.DEClash>
0.0924

> <Gold.Chemscore.DEInternal>
0.9897

> <Gold.Chemscore.Rot>
1.9533

> <Gold.Chemscore.Internal.Correction>
   9.000000E+99

> <Gold.Chemscore.Hbond.Weighted>
-0.0000

> <Gold.Chemscore.Metal.Weighted>
-0.0000

> <Gold.Chemscore.Lipo.Weighted>
-12.6856

> <Gold.Chemscore.Internal_Hbond.Weighted>
0.0000

> <Gold.Chemscore.DEClash.Weighted>
0.0924

> <Gold.Chemscore.DEInternal.Weighted>
0.9897

> <Gold.Chemscore.Rot.Weighted>
5.0005

> <Gold.Chemscore.Internal.Correction.Weighted>
   9.000000E+99

> <Gold.Protein.RotatedTorsions>
[ 6907 6896 6895 6894 ] final  109.47 input  -60.11 | X-H torsion
[ 7974 7965 7964 7962 ] final   40.23 input  175.53 | X-H torsion
[ 8008 7997 7996 7995 ] final  -99.11 input   59.86 | X-H torsion
[ 10167 10162 10161 10158 ] final   92.92 input  -65.29 | X-H torsion
[ 10718 10713 10712 10709 ] final   75.15 input   66.30 | X-H torsion
[ 10763 10752 10751 10750 ] final   29.75 input  -60.55 | X-H torsion
[ 11005 11000 10999 10996 ] final   23.18 input  -57.11 | X-H torsion

> <Gold.Protein.ActiveResidues>
 VAL166  LYS551  ARG553  GLY616  TRP617  ASP618  TYR619  PRO620  LYS621  CYS622 
 ASP623  PHE694  ASN695  SER759  ASP760  ASP761  ALA762  ILE779  LEU786  VAL792 
 PHE793  MET794  SER795  GLU796  ALA797  LYS798  CYS799  TRP800  GLU811  SER814 

> <Gold.Protein.RotatedAtoms>
  152.5065  133.8939  159.7407 H   0  0  0  0  0  0  0  0  0  0  0  0  # atno 6907 bound_to 6896
  150.9371  133.6690  159.2805 H   0  0  0  0  0  0  0  0  0  0  0  0  # atno 6908 bound_to 6896
  151.4015  135.0976  159.9610 H   0  0  0  0  0  0  0  0  0  0  0  0  # atno 6909 bound_to 6896
  146.0922  139.5558  142.9468 H   0  0  0  0  0  0  0  0  0  0  0  0  # atno 7974 bound_to 7965
  154.8104  140.0450  157.1338 H   0  0  0  0  0  0  0  0  0  0  0  0  # atno 8008 bound_to 7997
  154.9375  140.3048  155.5117 H   0  0  0  0  0  0  0  0  0  0  0  0  # atno 8009 bound_to 7997
  156.2971  140.2311  156.4441 H   0  0  0  0  0  0  0  0  0  0  0  0  # atno 8010 bound_to 7997
  139.8230  144.6722  150.9494 H   0  0  0  0  0  0  0  0  0  0  0  0  # atno 10167 bound_to 10162
  157.6622  130.9712  150.1312 H   0  0  0  0  0  0  0  0  0  0  0  0  # atno 10718 bound_to 10713
  153.0411  135.6481  154.0939 H   0  0  0  0  0  0  0  0  0  0  0  0  # atno 10763 bound_to 10752
  154.0646  135.2885  155.3320 H   0  0  0  0  0  0  0  0  0  0  0  0  # atno 10764 bound_to 10752
  154.6635  135.5383  153.8113 H   0  0  0  0  0  0  0  0  0  0  0  0  # atno 10765 bound_to 10752
  140.3724  134.2008  155.7666 H   0  0  0  0  0  0  0  0  0  0  0  0  # atno 11005 bound_to 11000
  145.6018  141.0354  143.2014 LP  0  0  0  0  0  0  0  0  0  0  0  0  # atno 17320 bound_to 7965
  144.7368  139.7562  143.7326 LP  0  0  0  0  0  0  0  0  0  0  0  0  # atno 17321 bound_to 7965
  140.7812  143.4073  151.1050 LP  0  0  0  0  0  0  0  0  0  0  0  0  # atno 17342 bound_to 10162
  139.7732  143.8463  152.3124 LP  0  0  0  0  0  0  0  0  0  0  0  0  # atno 17343 bound_to 10162
  156.2158  130.3670  149.8615 LP  0  0  0  0  0  0  0  0  0  0  0  0  # atno 17370 bound_to 10713
  156.6481  130.8732  151.3526 LP  0  0  0  0  0  0  0  0  0  0  0  0  # atno 17371 bound_to 10713
  141.1950  133.8115  157.0733 LP  0  0  0  0  0  0  0  0  0  0  0  0  # atno 17394 bound_to 11000
  140.0541  134.9790  157.1189 LP  0  0  0  0  0  0  0  0  0  0  0  0  # atno 17395 bound_to 11000

$$$$
