AV-unprocessed.smi:989|AV-procd|sdf|4325|dock4
  -GOLD-   22720 2233D 1   1.00000     0.00000
 Structure written by MMmdl.
 26 27  0  0  0  0  0  0  0  0  2 V2000
  152.4079  137.4128  155.0378 O   0  0  0  0  0  0  0  0  0  0  0  0
  152.7984  138.5176  155.4753 C   0  0  0  0  0  0  0  0  0  0  0  0
  153.1846  139.4799  154.7748 O   0  5  0  0  0  0  0  0  0  0  0  0
  152.8265  138.6975  156.9955 C   0  0  0  0  0  0  0  0  0  0  0  0
  152.3325  140.0786  157.3218 C   0  0  0  0  0  0  0  0  0  0  0  0
  151.4585  140.8368  156.5799 C   0  0  0  0  0  0  0  0  0  0  0  0
  151.1444  142.3851  157.3145 S   0  0  0  0  0  0  0  0  0  0  0  0
  152.2520  141.9478  158.6184 C   0  0  0  0  0  0  0  0  0  0  0  0
  152.5506  142.7567  159.7564 N   0  0  0  0  0  0  0  0  0  0  0  0
  153.5076  142.2090  160.7352 C   0  0  0  0  0  0  0  0  0  0  0  0
  153.1628  142.6392  162.1626 C   0  0  0  0  0  0  0  0  0  0  0  0
  152.9824  144.1546  162.2016 C   0  0  0  0  0  0  0  0  0  0  0  0
  152.1690  144.6089  161.0791 N   0  0  0  0  0  0  0  0  0  0  0  0
  152.0396  144.0157  159.8742 C   0  0  0  0  0  0  0  0  0  0  0  0
  151.4388  144.5964  158.9706 O   0  0  0  0  0  0  0  0  0  0  0  0
  152.7800  140.7270  158.4790 N   0  0  0  0  0  0  0  0  0  0  0  0
  152.2108  137.9348  157.4746 H   0  0  0  0  0  0  0  0  0  0  0  0
  153.8460  138.5529  157.3548 H   0  0  0  0  0  0  0  0  0  0  0  0
  150.9737  140.5699  155.6529 H   0  0  0  0  0  0  0  0  0  0  0  0
  153.5292  141.1189  160.6940 H   0  0  0  0  0  0  0  0  0  0  0  0
  154.5085  142.5536  160.4708 H   0  0  0  0  0  0  0  0  0  0  0  0
  152.2371  142.1526  162.4734 H   0  0  0  0  0  0  0  0  0  0  0  0
  153.9362  142.3225  162.8630 H   0  0  0  0  0  0  0  0  0  0  0  0
  152.5198  144.4633  163.1392 H   0  0  0  0  0  0  0  0  0  0  0  0
  153.9521  144.6499  162.1428 H   0  0  0  0  0  0  0  0  0  0  0  0
  151.7402  145.5170  161.1848 H   0  0  0  0  0  0  0  0  0  0  0  0
  1  2  2  0  0  0  0
  2  3  1  0  0  0  0
  2  4  1  0  0  0  0
  4  5  1  0  0  0  0
  4 17  1  0  0  0  0
  4 18  1  0  0  0  0
  5 16  1  0  0  0  0
  5  6  2  0  0  0  0
  6  7  1  0  0  0  0
  6 19  1  0  0  0  0
  7  8  1  0  0  0  0
  8  9  1  0  0  0  0
  8 16  2  0  0  0  0
  9 14  1  0  0  0  0
  9 10  1  0  0  0  0
 10 11  1  0  0  0  0
 10 20  1  0  0  0  0
 10 21  1  0  0  0  0
 11 12  1  0  0  0  0
 11 22  1  0  0  0  0
 11 23  1  0  0  0  0
 12 13  1  0  0  0  0
 12 24  1  0  0  0  0
 12 25  1  0  0  0  0
 13 14  1  0  0  0  0
 13 26  1  0  0  0  0
 14 15  2  0  0  0  0
M  CHG  1   3  -1
M  END
> <s_m_source_file>
AV-unprocessed.smi

> <i_m_source_file_index>
989

> <i_lp_mmshare_version>
43012

> <i_f3d_flags>
0

> <s_epik_input>
Tz1DKFtPSF0pW0NIMl1jMVtjSF1zYyhuMSlOMltDSDJdW0NIMl1bQ0gyXVtOSF1DMj1P

> <s_epik_cmdline>
J2VwaWtfcHl0aG9uJywgJy1waCcsICc3LjAnLCAnLXRuJywgJzgnLCAnLW1hJywgJzIwMCcsICctbWV0YWxfYmluZGluZycsICctaW1hZScsICc8aW5maWxlLm1hZT4nLCAnLW9tYWUnLCAnPG91dGZpbGUubWFlPic=

> <r_lp_tautomer_probability>
1

> <r_epik_Ionization_Penalty>
0.00100312

> <r_epik_Ionization_Penalty_Charging>
0.000722293

> <r_epik_Ionization_Penalty_Neutral>
0.000280832

> <r_epik_State_Penalty>
0.000460635

> <r_epik_Charging_Adjusted_Penalty>
0.00118293

> <i_epik_Tot_Q>
-1

> <i_epik_Tot_abs_Q>
1

> <r_epik_Metal_State_Penalty>
-0

> <b_epik_Metal_Only>
0

> <s_lp_Force_Field>
OPLS_2005

> <r_lp_Energy>
35.7011

> <b_lp_Chiralities_Consistent>
1

> <s_lp_Variant>
AV-unprocessed.smi:989-1

> <Gold.Version>
5.8.1

> <Gold.Id.Protein>
6NUR|6NUR_protein|mol2

> <Gold.PLP.Fitness>
46.5626

> <Gold.PLP.PLP>
-36.5433

> <Gold.PLP.part.hbond>
-3.4217

> <Gold.PLP.part.metal>
0.0000

> <Gold.PLP.part.buried>
-5.7933

> <Gold.PLP.part.nonpolar>
-27.8619

> <Gold.PLP.part.repulsive>
0.3011

> <Gold.PLP.ligand.clash>
0.0000

> <Gold.PLP.ligand.torsion>
0.6351

> <Gold.PLP.Chemscore.Hbond>
3.7609

> <Gold.PLP.Chemscore.CHOScore>
0.0000

> <Gold.PLP.Chemscore.Metal>
0.0000

> <Gold.Chemscore.Hbonds>
donor molecule, donor type, donor heavy atom, donor atom, acceptor molecule, acceptor atom, score
      P1  H  7989  7998       L1     3  0.03
      P1  H  7997  8008       L1     3  2.00
      P1  H 10752 10765       L1     1  1.31

> <Gold.PLP.Chemscore.Internal.Correction>
0.0070

> <Gold.Rescore>
     Score         DG    S(hbond)    S(metal)    S(lipo)     H(rot)  DE(clash)    DE(int)     intcor
     12.54     -14.44       1.74        0.00      60.44       1.54       0.05       1.84       ----

> <Gold.Chemscore.Fitness>
12.5414

> <Gold.Chemscore.DG>
-14.4371

> <Gold.Chemscore.ZeroCoef>
-5.4800

> <Gold.Chemscore.Hbond>
1.7437

> <Gold.Chemscore.Metal>
0.0000

> <Gold.Chemscore.Lipo>
60.4431

> <Gold.Chemscore.Internal_Hbond>
0.0000

> <Gold.Chemscore.DEClash>
0.0538

> <Gold.Chemscore.DEInternal>
1.8418

> <Gold.Chemscore.Rot>
1.5386

> <Gold.Chemscore.Internal.Correction>
   9.000000E+99

> <Gold.Chemscore.Hbonds>
donor molecule, donor type, donor heavy atom, donor atom, acceptor molecule, acceptor atom, score
      P1  H  7989  7998       L1     3  0.04
      P1  H  7997  8008       L1     3  0.55
      P1  H 10752 10765       L1     1  0.66

> <Gold.Chemscore.Hbond.Weighted>
-5.8240

> <Gold.Chemscore.Metal.Weighted>
-0.0000

> <Gold.Chemscore.Lipo.Weighted>
-7.0718

> <Gold.Chemscore.Internal_Hbond.Weighted>
0.0000

> <Gold.Chemscore.DEClash.Weighted>
0.0538

> <Gold.Chemscore.DEInternal.Weighted>
1.8418

> <Gold.Chemscore.Rot.Weighted>
3.9388

> <Gold.Chemscore.Internal.Correction.Weighted>
   9.000000E+99

> <Gold.Protein.RotatedTorsions>
[ 6907 6896 6895 6894 ] final   14.94 input  -60.11 | X-H torsion
[ 7974 7965 7964 7962 ] final -109.59 input  175.53 | X-H torsion
[ 8008 7997 7996 7995 ] final   -0.10 input   59.86 | X-H torsion
[ 10167 10162 10161 10158 ] final   25.41 input  -65.29 | X-H torsion
[ 10718 10713 10712 10709 ] final   34.29 input   66.30 | X-H torsion
[ 10763 10752 10751 10750 ] final  174.72 input  -60.55 | X-H torsion
[ 11005 11000 10999 10996 ] final   21.88 input  -57.11 | X-H torsion

> <Gold.Protein.ActiveResidues>
 VAL166  LYS551  ARG553  GLY616  TRP617  ASP618  TYR619  PRO620  LYS621  CYS622 
 ASP623  PHE694  ASN695  SER759  ASP760  ASP761  ALA762  ILE779  LEU786  VAL792 
 PHE793  MET794  SER795  GLU796  ALA797  LYS798  CYS799  TRP800  GLU811  SER814 

> <Gold.Protein.RotatedAtoms>
  151.8102  135.0683  160.0411 H   0  0  0  0  0  0  0  0  0  0  0  0  # atno 6907 bound_to 6896
  152.3026  133.5666  159.5636 H   0  0  0  0  0  0  0  0  0  0  0  0  # atno 6908 bound_to 6896
  150.7280  134.0186  159.3735 H   0  0  0  0  0  0  0  0  0  0  0  0  # atno 6909 bound_to 6896
  145.1786  140.8960  143.3493 H   0  0  0  0  0  0  0  0  0  0  0  0  # atno 7974 bound_to 7965
  154.6620  140.2592  155.7099 H   0  0  0  0  0  0  0  0  0  0  0  0  # atno 8008 bound_to 7997
  156.2622  140.2847  156.1017 H   0  0  0  0  0  0  0  0  0  0  0  0  # atno 8009 bound_to 7997
  155.1295  140.0378  157.2761 H   0  0  0  0  0  0  0  0  0  0  0  0  # atno 8010 bound_to 7997
  140.5108  144.0163  150.6372 H   0  0  0  0  0  0  0  0  0  0  0  0  # atno 10167 bound_to 10162
  157.3085  130.7387  149.6710 H   0  0  0  0  0  0  0  0  0  0  0  0  # atno 10718 bound_to 10713
  154.4578  135.2766  155.1735 H   0  0  0  0  0  0  0  0  0  0  0  0  # atno 10763 bound_to 10752
  154.3535  135.6145  153.5658 H   0  0  0  0  0  0  0  0  0  0  0  0  # atno 10764 bound_to 10752
  152.9852  135.5817  154.4934 H   0  0  0  0  0  0  0  0  0  0  0  0  # atno 10765 bound_to 10752
  140.3867  134.1863  155.7663 H   0  0  0  0  0  0  0  0  0  0  0  0  # atno 11005 bound_to 11000
  145.0159  139.3468  143.6097 LP  0  0  0  0  0  0  0  0  0  0  0  0  # atno 17320 bound_to 7965
  146.3457  139.9440  142.8737 LP  0  0  0  0  0  0  0  0  0  0  0  0  # atno 17321 bound_to 7965
  140.3485  143.2977  152.0512 LP  0  0  0  0  0  0  0  0  0  0  0  0  # atno 17342 bound_to 10162
  139.4895  144.6391  151.6915 LP  0  0  0  0  0  0  0  0  0  0  0  0  # atno 17343 bound_to 10162
  155.9676  130.4258  150.4672 LP  0  0  0  0  0  0  0  0  0  0  0  0  # atno 17370 bound_to 10713
  157.2666  131.0578  151.2287 LP  0  0  0  0  0  0  0  0  0  0  0  0  # atno 17371 bound_to 10713
  141.1905  133.8216  157.0916 LP  0  0  0  0  0  0  0  0  0  0  0  0  # atno 17394 bound_to 11000
  140.0437  134.9841  157.1010 LP  0  0  0  0  0  0  0  0  0  0  0  0  # atno 17395 bound_to 11000

$$$$
