AV-unprocessed.smi:766|AV-procd|sdf|3651|dock5
  -GOLD-   22720 1 53D 1   1.00000     0.00000
 Structure written by MMmdl.
 47 49  0  0  0  0  0  0  0  0  2 V2000
  153.3229  142.6340  160.9302 C   0  0  0  0  0  0  0  0  0  0  0  0
  152.5049  142.2871  159.6986 C   0  0  0  0  0  0  0  0  0  0  0  0
  152.2704  140.9281  159.3895 C   0  0  0  0  0  0  0  0  0  0  0  0
  151.5120  140.5638  158.2555 C   0  0  0  0  0  0  0  0  0  0  0  0
  151.1613  139.3156  157.7707 N   0  0  0  0  0  0  0  0  0  0  0  0
  150.4526  139.6357  156.6921 C   0  0  0  0  0  0  0  0  0  0  0  0
  150.3008  140.9465  156.4211 N   0  0  0  0  0  0  0  0  0  0  0  0
  149.5735  141.5373  155.3123 C   0  0  0  0  0  0  0  0  0  0  0  0
  148.8823  140.4771  154.4335 C   0  0  2  0  0  0  0  0  0  0  0  0
  149.8526  139.8196  153.6402 O   0  0  0  0  0  0  0  0  0  0  0  0
  147.8200  141.0948  153.5105 C   0  0  0  0  0  0  0  0  0  0  0  0
  147.2985  140.0948  152.5583 N   0  3  0  0  0  0  0  0  0  0  0  0
  146.7576  138.8755  153.1915 C   0  0  0  0  0  0  0  0  0  0  0  0
  146.1222  137.9329  152.1563 C   0  0  0  0  0  0  0  0  0  0  0  0
  145.0776  137.1031  152.7303 N   0  0  0  0  0  0  0  0  0  0  0  0
  143.7106  137.2542  152.6278 C   0  0  0  0  0  0  0  0  0  0  0  0
  143.1355  136.2353  153.3318 C   0  0  0  0  0  0  0  0  0  0  0  0
  144.2461  135.5015  153.8341 C   0  0  0  0  0  0  0  0  0  0  0  0
  145.4074  136.0244  153.4739 N   0  0  0  0  0  0  0  0  0  0  0  0
  150.9914  141.6048  157.4324 C   0  0  0  0  0  0  0  0  0  0  0  0
  151.2203  142.9600  157.7273 C   0  0  0  0  0  0  0  0  0  0  0  0
  151.9800  143.3065  158.8640 C   0  0  0  0  0  0  0  0  0  0  0  0
  152.2208  144.7731  159.1743 C   0  0  0  0  0  0  0  0  0  0  0  0
  153.5856  141.7409  161.4981 H   0  0  0  0  0  0  0  0  0  0  0  0
  152.7613  143.2949  161.5909 H   0  0  0  0  0  0  0  0  0  0  0  0
  154.2483  143.1342  160.6440 H   0  0  0  0  0  0  0  0  0  0  0  0
  152.6717  140.1512  160.0236 H   0  0  0  0  0  0  0  0  0  0  0  0
  150.0148  138.8731  156.0645 H   0  0  0  0  0  0  0  0  0  0  0  0
  148.8349  142.2265  155.7231 H   0  0  0  0  0  0  0  0  0  0  0  0
  150.2647  142.1377  154.7187 H   0  0  0  0  0  0  0  0  0  0  0  0
  148.4092  139.7350  155.0784 H   0  0  0  0  0  0  0  0  0  0  0  0
  149.5588  139.8148  152.7417 H   0  0  0  0  0  0  0  0  0  0  0  0
  146.9856  141.4654  154.1078 H   0  0  0  0  0  0  0  0  0  0  0  0
  148.2298  141.9485  152.9684 H   0  0  0  0  0  0  0  0  0  0  0  0
  146.5682  140.5263  152.0095 H   0  0  0  0  0  0  0  0  0  0  0  0
  147.5509  138.3583  153.7330 H   0  0  0  0  0  0  0  0  0  0  0  0
  146.0074  139.1680  153.9271 H   0  0  0  0  0  0  0  0  0  0  0  0
  145.6828  138.5186  151.3479 H   0  0  0  0  0  0  0  0  0  0  0  0
  146.8776  137.2913  151.6998 H   0  0  0  0  0  0  0  0  0  0  0  0
  143.2650  138.0640  152.0689 H   0  0  0  0  0  0  0  0  0  0  0  0
  142.0815  136.0417  153.4654 H   0  0  0  0  0  0  0  0  0  0  0  0
  144.2430  134.6114  154.4458 H   0  0  0  0  0  0  0  0  0  0  0  0
  150.8134  143.7264  157.0843 H   0  0  0  0  0  0  0  0  0  0  0  0
  151.8026  145.4172  158.4004 H   0  0  0  0  0  0  0  0  0  0  0  0
  153.2888  144.9813  159.2397 H   0  0  0  0  0  0  0  0  0  0  0  0
  151.7554  145.0428  160.1225 H   0  0  0  0  0  0  0  0  0  0  0  0
  148.0460  139.8239  151.9347 H   0  0  0  0  0  0  0  0  0  0  0  0
  1  2  1  0  0  0  0
  1 24  1  0  0  0  0
  1 25  1  0  0  0  0
  1 26  1  0  0  0  0
  2 22  1  0  0  0  0
  2  3  2  0  0  0  0
  3  4  1  0  0  0  0
  3 27  1  0  0  0  0
  4 20  2  0  0  0  0
  4  5  1  0  0  0  0
  5  6  2  0  0  0  0
  6  7  1  0  0  0  0
  6 28  1  0  0  0  0
  7  8  1  0  0  0  0
  7 20  1  0  0  0  0
  8  9  1  0  0  0  0
  8 29  1  0  0  0  0
  8 30  1  0  0  0  0
  9 10  1  0  0  0  0
  9 11  1  0  0  0  0
  9 31  1  0  0  0  0
 10 32  1  0  0  0  0
 11 12  1  0  0  0  0
 11 33  1  0  0  0  0
 11 34  1  0  0  0  0
 12 13  1  0  0  0  0
 12 35  1  0  0  0  0
 12 47  1  0  0  0  0
 13 14  1  0  0  0  0
 13 36  1  0  0  0  0
 13 37  1  0  0  0  0
 14 15  1  0  0  0  0
 14 38  1  0  0  0  0
 14 39  1  0  0  0  0
 15 19  1  0  0  0  0
 15 16  1  0  0  0  0
 16 17  2  0  0  0  0
 16 40  1  0  0  0  0
 17 18  1  0  0  0  0
 17 41  1  0  0  0  0
 18 19  2  0  0  0  0
 18 42  1  0  0  0  0
 20 21  1  0  0  0  0
 21 22  2  0  0  0  0
 21 43  1  0  0  0  0
 22 23  1  0  0  0  0
 23 44  1  0  0  0  0
 23 45  1  0  0  0  0
 23 46  1  0  0  0  0
M  CHG  1  12   1
M  END
> <s_m_source_file>
AV-unprocessed.smi

> <i_m_source_file_index>
766

> <i_lp_mmshare_version>
43012

> <i_f3d_flags>
0

> <s_epik_input>
W0NIM11jKFtjSF0xKWMoW0NIM10pW2NIXWMoYzEyKW4oW2NIXW4yKVtDSDJdW0NASF0oW09IXSlbQ0gyXVtOSF1bQ0gyXVtDSDJdbjNbY0hdW2NIXVtjSF1uMw==

> <s_epik_cmdline>
J2VwaWtfcHl0aG9uJywgJy1waCcsICc3LjAnLCAnLXRuJywgJzgnLCAnLW1hJywgJzIwMCcsICctbWV0YWxfYmluZGluZycsICctaW1hZScsICc8aW5maWxlLm1hZT4nLCAnLW9tYWUnLCAnPG91dGZpbGUubWFlPic=

> <r_lp_tautomer_probability>
1

> <r_epik_Ionization_Penalty>
0.127222

> <r_epik_Ionization_Penalty_Charging>
0.043815

> <r_epik_Ionization_Penalty_Neutral>
0.0834074

> <r_epik_State_Penalty>
0.115563

> <r_epik_Charging_Adjusted_Penalty>
0.159378

> <i_epik_Tot_Q>
1

> <i_epik_Tot_abs_Q>
1

> <r_epik_Metal_State_Penalty>
0.102594

> <b_epik_Metal_Only>
0

> <s_lp_Force_Field>
OPLS_2005

> <r_lp_Energy>
9.49244

> <b_lp_Chiralities_Consistent>
1

> <s_lp_Variant>
AV-unprocessed.smi:766-1

> <Gold.Version>
5.8.1

> <Gold.Id.Protein>
6NUR|6NUR_protein|mol2

> <Gold.PLP.Fitness>
61.2737

> <Gold.PLP.PLP>
-48.4794

> <Gold.PLP.part.hbond>
-2.6969

> <Gold.PLP.part.metal>
0.0000

> <Gold.PLP.part.buried>
-4.2245

> <Gold.PLP.part.nonpolar>
-41.7334

> <Gold.PLP.part.repulsive>
0.1519

> <Gold.PLP.ligand.clash>
0.0000

> <Gold.PLP.ligand.torsion>
0.5628

> <Gold.PLP.Chemscore.Hbond>
2.7200

> <Gold.PLP.Chemscore.CHOScore>
1.8539

> <Gold.PLP.Chemscore.Metal>
0.0000

> <Gold.Chemscore.Hbonds>
donor molecule, donor type, donor heavy atom, donor atom, acceptor molecule, acceptor atom, score
      L1  H    10    32       P1  7957  1.00
      L1  H    12    47       P1  7957  1.00
      P1  H  7989  7998       L1    10  0.71
      L1  C    16    40       P1 10171  0.89
      L1  C    16    40       P1 10175  0.93

> <Gold.PLP.Chemscore.Internal.Correction>
0.1983

> <Gold.Rescore>
     Score         DG    S(hbond)    S(metal)    S(lipo)     H(rot)  DE(clash)    DE(int)     intcor
     19.58     -20.35       2.37        0.00     123.62       2.93       0.06       0.70       ----

> <Gold.Chemscore.Fitness>
19.5845

> <Gold.Chemscore.DG>
-20.3490

> <Gold.Chemscore.ZeroCoef>
-5.4800

> <Gold.Chemscore.Hbond>
2.3699

> <Gold.Chemscore.Metal>
0.0000

> <Gold.Chemscore.Lipo>
123.6178

> <Gold.Chemscore.Internal_Hbond>
0.0000

> <Gold.Chemscore.DEClash>
0.0607

> <Gold.Chemscore.DEInternal>
0.7037

> <Gold.Chemscore.Rot>
2.9335

> <Gold.Chemscore.Internal.Correction>
   9.000000E+99

> <Gold.Chemscore.Hbonds>
donor molecule, donor type, donor heavy atom, donor atom, acceptor molecule, acceptor atom, score
      L1  H    10    32       P1  7957  0.97
      L1  H    12    47       P1  7957  0.98
      P1  H  7989  7998       L1    10  0.15

> <Gold.Chemscore.Hbond.Weighted>
-7.9153

> <Gold.Chemscore.Metal.Weighted>
-0.0000

> <Gold.Chemscore.Lipo.Weighted>
-14.4633

> <Gold.Chemscore.Internal_Hbond.Weighted>
0.0000

> <Gold.Chemscore.DEClash.Weighted>
0.0607

> <Gold.Chemscore.DEInternal.Weighted>
0.7037

> <Gold.Chemscore.Rot.Weighted>
7.5097

> <Gold.Chemscore.Internal.Correction.Weighted>
   9.000000E+99

> <Gold.Protein.RotatedTorsions>
[ 6907 6896 6895 6894 ] final  174.30 input  -60.11 | X-H torsion
[ 7974 7965 7964 7962 ] final -175.03 input  175.53 | X-H torsion
[ 8008 7997 7996 7995 ] final  -69.68 input   59.86 | X-H torsion
[ 10167 10162 10161 10158 ] final   54.50 input  -65.29 | X-H torsion
[ 10718 10713 10712 10709 ] final    6.18 input   66.30 | X-H torsion
[ 10763 10752 10751 10750 ] final    8.35 input  -60.55 | X-H torsion
[ 11005 11000 10999 10996 ] final -132.27 input  -57.11 | X-H torsion

> <Gold.Protein.ActiveResidues>
 VAL166  LYS551  ARG553  GLY616  TRP617  ASP618  TYR619  PRO620  LYS621  CYS622 
 ASP623  PHE694  ASN695  SER759  ASP760  ASP761  ALA762  ILE779  LEU786  VAL792 
 PHE793  MET794  SER795  GLU796  ALA797  LYS798  CYS799  TRP800  GLU811  SER814 

> <Gold.Protein.RotatedAtoms>
  151.7545  133.3329  159.3400 H   0  0  0  0  0  0  0  0  0  0  0  0  # atno 6907 bound_to 6896
  150.7522  134.6162  159.6121 H   0  0  0  0  0  0  0  0  0  0  0  0  # atno 6908 bound_to 6896
  152.3446  134.7090  160.0305 H   0  0  0  0  0  0  0  0  0  0  0  0  # atno 6909 bound_to 6896
  144.7129  140.1383  143.6393 H   0  0  0  0  0  0  0  0  0  0  0  0  # atno 7974 bound_to 7965
  154.4956  140.0849  156.7690 H   0  0  0  0  0  0  0  0  0  0  0  0  # atno 8008 bound_to 7997
  155.4124  140.3442  155.4246 H   0  0  0  0  0  0  0  0  0  0  0  0  # atno 8009 bound_to 7997
  156.1389  140.1523  156.8938 H   0  0  0  0  0  0  0  0  0  0  0  0  # atno 8010 bound_to 7997
  140.2295  144.3702  150.6420 H   0  0  0  0  0  0  0  0  0  0  0  0  # atno 10167 bound_to 10162
  156.9184  130.5782  149.5647 H   0  0  0  0  0  0  0  0  0  0  0  0  # atno 10718 bound_to 10713
  153.2260  135.6887  153.7945 H   0  0  0  0  0  0  0  0  0  0  0  0  # atno 10763 bound_to 10752
  153.7126  135.3280  155.3250 H   0  0  0  0  0  0  0  0  0  0  0  0  # atno 10764 bound_to 10752
  154.8292  135.4594  154.1126 H   0  0  0  0  0  0  0  0  0  0  0  0  # atno 10765 bound_to 10752
  140.9185  134.1475  157.4333 H   0  0  0  0  0  0  0  0  0  0  0  0  # atno 11005 bound_to 11000
  145.9225  139.2554  143.1373 LP  0  0  0  0  0  0  0  0  0  0  0  0  # atno 17320 bound_to 7965
  145.9606  140.8839  143.0213 LP  0  0  0  0  0  0  0  0  0  0  0  0  # atno 17321 bound_to 7965
  140.6196  143.2175  151.6722 LP  0  0  0  0  0  0  0  0  0  0  0  0  # atno 17342 bound_to 10162
  139.5115  144.3507  152.0655 LP  0  0  0  0  0  0  0  0  0  0  0  0  # atno 17343 bound_to 10162
  156.0502  130.5573  150.8973 LP  0  0  0  0  0  0  0  0  0  0  0  0  # atno 17370 bound_to 10713
  157.5923  131.0944  150.9098 LP  0  0  0  0  0  0  0  0  0  0  0  0  # atno 17371 bound_to 10713
  139.8771  134.9963  156.5786 LP  0  0  0  0  0  0  0  0  0  0  0  0  # atno 17394 bound_to 11000
  140.8018  133.8499  155.8733 LP  0  0  0  0  0  0  0  0  0  0  0  0  # atno 17395 bound_to 11000

$$$$
