AV-unprocessed.smi:864|AV-procd|sdf|3986|dock10
  -GOLD-   22720 1463D 1   1.00000     0.00000
 Structure written by MMmdl.
 44 46  0  0  0  0  0  0  0  0  1 V2000
  144.8619  131.3723  150.9661 C   0  0  0  0  0  0  0  0  0  0  0  0
  145.9756  131.8314  151.8837 C   0  0  0  0  0  0  0  0  0  0  0  0
  146.5353  133.1202  151.7556 C   0  0  0  0  0  0  0  0  0  0  0  0
  147.5717  133.4920  152.6335 C   0  0  0  0  0  0  0  0  0  0  0  0
  148.0060  132.5656  153.6031 C   0  0  0  0  0  0  0  0  0  0  0  0
  149.1311  132.9125  154.5636 C   0  0  0  0  0  0  0  0  0  0  0  0
  148.9052  134.2345  155.3270 C   0  0  0  0  0  0  0  0  0  0  0  0
  149.2254  135.4156  154.5306 N   0  0  0  0  0  0  0  0  0  0  0  0
  149.9291  136.4686  154.9675 C   0  0  0  0  0  0  0  0  0  0  0  0
  150.3429  136.5923  156.1205 O   0  0  0  0  0  0  0  0  0  0  0  0
  150.1642  137.3506  153.9869 N   0  0  0  0  0  0  0  0  0  0  0  0
  151.0127  138.5310  154.1213 C   0  0  2  0  0  0  0  0  0  0  0  0
  152.2356  138.2597  155.0072 C   0  0  0  0  0  0  0  0  0  0  0  0
  152.2238  139.4080  156.0021 C   0  0  0  0  0  0  0  0  0  0  0  0
  153.0987  139.5512  156.8554 O   0  0  0  0  0  0  0  0  0  0  0  0
  151.1603  140.2010  155.8253 N   0  0  0  0  0  0  0  0  0  0  0  0
  150.7949  141.2826  156.6945 C   0  0  0  0  0  0  0  0  0  0  0  0
  150.6236  141.0734  158.1877 C   0  0  0  0  0  0  0  0  0  0  0  0
  149.4132  141.2643  157.3083 C   0  0  0  0  0  0  0  0  0  0  0  0
  150.2584  139.6886  154.8038 C   0  0  0  0  0  0  0  0  0  0  0  0
  147.3743  131.3041  153.6516 C   0  0  0  0  0  0  0  0  0  0  0  0
  146.3835  130.9373  152.8111 N   0  0  0  0  0  0  0  0  0  0  0  0
  144.6312  132.1282  150.2150 H   0  0  0  0  0  0  0  0  0  0  0  0
  143.9561  131.1744  151.5399 H   0  0  0  0  0  0  0  0  0  0  0  0
  145.1492  130.4561  150.4492 H   0  0  0  0  0  0  0  0  0  0  0  0
  146.1823  133.8092  151.0023 H   0  0  0  0  0  0  0  0  0  0  0  0
  148.0266  134.4688  152.5604 H   0  0  0  0  0  0  0  0  0  0  0  0
  149.2552  132.0953  155.2747 H   0  0  0  0  0  0  0  0  0  0  0  0
  150.0662  132.9642  154.0045 H   0  0  0  0  0  0  0  0  0  0  0  0
  147.8548  134.3125  155.6089 H   0  0  0  0  0  0  0  0  0  0  0  0
  149.4757  134.2411  156.2570 H   0  0  0  0  0  0  0  0  0  0  0  0
  148.9344  135.4044  153.5641 H   0  0  0  0  0  0  0  0  0  0  0  0
  149.7810  137.1632  153.0719 H   0  0  0  0  0  0  0  0  0  0  0  0
  151.3609  138.8497  153.1366 H   0  0  0  0  0  0  0  0  0  0  0  0
  152.1589  137.3147  155.5470 H   0  0  0  0  0  0  0  0  0  0  0  0
  153.1616  138.2550  154.4315 H   0  0  0  0  0  0  0  0  0  0  0  0
  151.1772  142.2626  156.4124 H   0  0  0  0  0  0  0  0  0  0  0  0
  150.7763  140.0842  158.6131 H   0  0  0  0  0  0  0  0  0  0  0  0
  150.9005  141.8990  158.8399 H   0  0  0  0  0  0  0  0  0  0  0  0
  148.8837  142.2121  157.3797 H   0  0  0  0  0  0  0  0  0  0  0  0
  148.7867  140.3937  157.1236 H   0  0  0  0  0  0  0  0  0  0  0  0
  150.0028  140.4622  154.0789 H   0  0  0  0  0  0  0  0  0  0  0  0
  149.3354  139.3520  155.2803 H   0  0  0  0  0  0  0  0  0  0  0  0
  147.6797  130.5628  154.3756 H   0  0  0  0  0  0  0  0  0  0  0  0
  1  2  1  0  0  0  0
  1 23  1  0  0  0  0
  1 24  1  0  0  0  0
  1 25  1  0  0  0  0
  2 22  1  0  0  0  0
  2  3  2  0  0  0  0
  3  4  1  0  0  0  0
  3 26  1  0  0  0  0
  4  5  2  0  0  0  0
  4 27  1  0  0  0  0
  5  6  1  0  0  0  0
  5 21  1  0  0  0  0
  6  7  1  0  0  0  0
  6 28  1  0  0  0  0
  6 29  1  0  0  0  0
  7  8  1  0  0  0  0
  7 30  1  0  0  0  0
  7 31  1  0  0  0  0
  8  9  1  0  0  0  0
  8 32  1  0  0  0  0
  9 10  2  0  0  0  0
  9 11  1  0  0  0  0
 11 12  1  0  0  0  0
 11 33  1  0  0  0  0
 12 20  1  0  0  0  0
 12 13  1  0  0  0  0
 12 34  1  0  0  0  0
 13 14  1  0  0  0  0
 13 35  1  0  0  0  0
 13 36  1  0  0  0  0
 14 15  2  0  0  0  0
 14 16  1  0  0  0  0
 16 17  1  0  0  0  0
 16 20  1  0  0  0  0
 17 19  1  0  0  0  0
 17 18  1  0  0  0  0
 17 37  1  0  0  0  0
 18 19  1  0  0  0  0
 18 38  1  0  0  0  0
 18 39  1  0  0  0  0
 19 40  1  0  0  0  0
 19 41  1  0  0  0  0
 20 42  1  0  0  0  0
 20 43  1  0  0  0  0
 21 22  2  0  0  0  0
 21 44  1  0  0  0  0
M  END
> <s_m_source_file>
AV-unprocessed.smi

> <i_m_source_file_index>
864

> <i_lp_mmshare_version>
43012

> <i_f3d_flags>
0

> <s_epik_input>
W0NIM11jMVtjSF1bY0hdYyhbY0hdbjEpW0NIMl1bQ0gyXVtOSF1DKD1PKVtOSF1bQ0BASF0yW0NIMl1DKD1PKU4oW0NIMl0yKVtDSF0zW0NIMl1bQ0gyXTM=

> <s_epik_cmdline>
J2VwaWtfcHl0aG9uJywgJy1waCcsICc3LjAnLCAnLXRuJywgJzgnLCAnLW1hJywgJzIwMCcsICctbWV0YWxfYmluZGluZycsICctaW1hZScsICc8aW5maWxlLm1hZT4nLCAnLW9tYWUnLCAnPG91dGZpbGUubWFlPic=

> <r_epik_Ionization_Penalty>
0.0559435

> <r_epik_Ionization_Penalty_Charging>
0

> <r_epik_Ionization_Penalty_Neutral>
0.0559435

> <r_epik_State_Penalty>
0.0481757

> <r_epik_Charging_Adjusted_Penalty>
0.0481757

> <i_epik_Tot_Q>
0

> <i_epik_Tot_abs_Q>
0

> <r_epik_Metal_State_Penalty>
0.0439988

> <b_epik_Metal_Only>
0

> <s_lp_Force_Field>
OPLS_2005

> <r_lp_Energy>
33.3792

> <b_lp_Chiralities_Consistent>
1

> <s_lp_Variant>
AV-unprocessed.smi:864-1

> <Gold.Version>
5.8.1

> <Gold.Id.Protein>
6NUR|6NUR_protein|mol2

> <Gold.PLP.Fitness>
48.3814

> <Gold.PLP.PLP>
-40.6499

> <Gold.PLP.part.hbond>
-3.6953

> <Gold.PLP.part.metal>
0.0000

> <Gold.PLP.part.buried>
-1.7951

> <Gold.PLP.part.nonpolar>
-34.7572

> <Gold.PLP.part.repulsive>
0.2714

> <Gold.PLP.ligand.clash>
0.0000

> <Gold.PLP.ligand.torsion>
0.6920

> <Gold.PLP.Chemscore.Hbond>
2.9436

> <Gold.PLP.Chemscore.CHOScore>
0.0000

> <Gold.PLP.Chemscore.Metal>
0.0000

> <Gold.Chemscore.Hbonds>
donor molecule, donor type, donor heavy atom, donor atom, acceptor molecule, acceptor atom, score
      L1  H     8    32       P1  7948  0.98
      L1  H    11    33       P1  7948  1.00
      P1  H  7997  8010       L1    15  0.87

> <Gold.PLP.Chemscore.Internal.Correction>
0.2846

> <Gold.Rescore>
     Score         DG    S(hbond)    S(metal)    S(lipo)     H(rot)  DE(clash)    DE(int)     intcor
     16.62     -18.98       2.42        0.00      84.66       1.75       0.02       2.34       ----

> <Gold.Chemscore.Fitness>
16.6211

> <Gold.Chemscore.DG>
-18.9753

> <Gold.Chemscore.ZeroCoef>
-5.4800

> <Gold.Chemscore.Hbond>
2.4174

> <Gold.Chemscore.Metal>
0.0000

> <Gold.Chemscore.Lipo>
84.6635

> <Gold.Chemscore.Internal_Hbond>
0.0000

> <Gold.Chemscore.DEClash>
0.0183

> <Gold.Chemscore.DEInternal>
2.3359

> <Gold.Chemscore.Rot>
1.7518

> <Gold.Chemscore.Internal.Correction>
   9.000000E+99

> <Gold.Chemscore.Hbonds>
donor molecule, donor type, donor heavy atom, donor atom, acceptor molecule, acceptor atom, score
      L1  H     8    32       P1  7948  0.69
      L1  H    11    33       P1  7948  0.39
      P1  H  7997  8010       L1    15  0.67

> <Gold.Chemscore.Hbond.Weighted>
-8.0743

> <Gold.Chemscore.Metal.Weighted>
-0.0000

> <Gold.Chemscore.Lipo.Weighted>
-9.9056

> <Gold.Chemscore.Internal_Hbond.Weighted>
0.0000

> <Gold.Chemscore.DEClash.Weighted>
0.0183

> <Gold.Chemscore.DEInternal.Weighted>
2.3359

> <Gold.Chemscore.Rot.Weighted>
4.4846

> <Gold.Chemscore.Internal.Correction.Weighted>
   9.000000E+99

> <Gold.Protein.RotatedTorsions>
[ 6907 6896 6895 6894 ] final -170.23 input  -60.11 | X-H torsion
[ 7974 7965 7964 7962 ] final -113.36 input  175.53 | X-H torsion
[ 8008 7997 7996 7995 ] final   82.22 input   59.86 | X-H torsion
[ 10167 10162 10161 10158 ] final -128.51 input  -65.29 | X-H torsion
[ 10718 10713 10712 10709 ] final -147.62 input   66.30 | X-H torsion
[ 10763 10752 10751 10750 ] final   87.96 input  -60.55 | X-H torsion
[ 11005 11000 10999 10996 ] final -103.49 input  -57.11 | X-H torsion

> <Gold.Protein.ActiveResidues>
 VAL166  LYS551  ARG553  GLY616  TRP617  ASP618  TYR619  PRO620  LYS621  CYS622 
 ASP623  PHE694  ASN695  SER759  ASP760  ASP761  ALA762  ILE779  LEU786  VAL792 
 PHE793  MET794  SER795  GLU796  ALA797  LYS798  CYS799  TRP800  GLU811  SER814 

> <Gold.Protein.RotatedAtoms>
  151.5043  133.3498  159.2873 H   0  0  0  0  0  0  0  0  0  0  0  0  # atno 6907 bound_to 6896
  150.8753  134.8137  159.7196 H   0  0  0  0  0  0  0  0  0  0  0  0  # atno 6908 bound_to 6896
  152.4726  134.4933  159.9754 H   0  0  0  0  0  0  0  0  0  0  0  0  # atno 6909 bound_to 6896
  145.1330  140.8735  143.3747 H   0  0  0  0  0  0  0  0  0  0  0  0  # atno 7974 bound_to 7965
  155.9076  140.3429  155.6074 H   0  0  0  0  0  0  0  0  0  0  0  0  # atno 8008 bound_to 7997
  155.7425  140.0809  157.2258 H   0  0  0  0  0  0  0  0  0  0  0  0  # atno 8009 bound_to 7997
  154.4051  140.1568  156.2620 H   0  0  0  0  0  0  0  0  0  0  0  0  # atno 8010 bound_to 7997
  139.9495  143.6072  152.2480 H   0  0  0  0  0  0  0  0  0  0  0  0  # atno 10167 bound_to 10162
  156.4098  130.7976  151.2192 H   0  0  0  0  0  0  0  0  0  0  0  0  # atno 10718 bound_to 10713
  153.1720  135.4524  154.9915 H   0  0  0  0  0  0  0  0  0  0  0  0  # atno 10763 bound_to 10752
  154.7972  135.3242  154.7640 H   0  0  0  0  0  0  0  0  0  0  0  0  # atno 10764 bound_to 10752
  153.8115  135.6954  153.4895 H   0  0  0  0  0  0  0  0  0  0  0  0  # atno 10765 bound_to 10752
  141.1143  133.8644  157.1492 H   0  0  0  0  0  0  0  0  0  0  0  0  # atno 11005 bound_to 11000
  145.0615  139.3102  143.5878 LP  0  0  0  0  0  0  0  0  0  0  0  0  # atno 17320 bound_to 7965
  146.3512  140.0058  142.8672 LP  0  0  0  0  0  0  0  0  0  0  0  0  # atno 17321 bound_to 7965
  139.6640  144.7662  151.1909 LP  0  0  0  0  0  0  0  0  0  0  0  0  # atno 17342 bound_to 10162
  140.7587  143.5967  150.8741 LP  0  0  0  0  0  0  0  0  0  0  0  0  # atno 17343 bound_to 10162
  157.7506  131.0261  150.3948 LP  0  0  0  0  0  0  0  0  0  0  0  0  # atno 17370 bound_to 10713
  156.4244  130.3959  149.6803 LP  0  0  0  0  0  0  0  0  0  0  0  0  # atno 17371 bound_to 10713
  140.0056  135.0010  157.0285 LP  0  0  0  0  0  0  0  0  0  0  0  0  # atno 17394 bound_to 11000
  140.4688  134.1408  155.7200 LP  0  0  0  0  0  0  0  0  0  0  0  0  # atno 17395 bound_to 11000

$$$$
