AV-unprocessed.smi:743|AV-procd|sdf|3560|dock9
  -GOLD-   22720 0563D 1   1.00000     0.00000
 Structure written by MMmdl.
 29 30  0  0  0  0  0  0  0  0  2 V2000
  142.7660  137.3758  153.1240 C   0  0  0  0  0  0  0  0  0  0  0  0
  143.9381  136.6581  152.6705 N   0  0  0  0  0  0  0  0  0  0  0  0
  144.0224  135.6536  151.7316 C   0  0  0  0  0  0  0  0  0  0  0  0
  145.3358  135.2779  151.6421 C   0  0  0  0  0  0  0  0  0  0  0  0
  145.9810  134.2144  150.7758 C   0  0  2  0  0  0  0  0  0  0  0  0
  145.0146  133.6626  149.8225 N   0  0  0  0  0  0  0  0  0  0  0  0
  144.3162  132.5196  149.9584 C   0  0  0  0  0  0  0  0  0  0  0  0
  143.4422  132.2049  149.1549 O   0  0  0  0  0  0  0  0  0  0  0  0
  144.6558  131.5636  151.1147 C   0  0  0  0  0  0  0  0  0  0  0  0
  145.5415  132.1810  152.2123 C   0  0  0  0  0  0  0  0  0  0  0  0
  146.6280  133.0797  151.6068 C   0  0  2  0  0  0  0  0  0  0  0  0
  147.5546  133.5877  152.6358 N   0  3  0  0  0  0  0  0  0  0  0  0
  145.9812  136.1414  152.5746 C   0  0  0  0  0  0  0  0  0  0  0  0
  145.1443  136.9576  153.1919 N   0  0  0  0  0  0  0  0  0  0  0  0
  147.2300  132.4658  150.9349 H   0  0  0  0  0  0  0  0  0  0  0  0
  141.8764  136.9952  152.6216 H   0  0  0  0  0  0  0  0  0  0  0  0
  142.8730  138.4374  152.8988 H   0  0  0  0  0  0  0  0  0  0  0  0
  142.6469  137.2473  154.2003 H   0  0  0  0  0  0  0  0  0  0  0  0
  143.1478  135.2876  151.2134 H   0  0  0  0  0  0  0  0  0  0  0  0
  146.7666  134.6739  150.1746 H   0  0  0  0  0  0  0  0  0  0  0  0
  144.7949  134.2413  149.0241 H   0  0  0  0  0  0  0  0  0  0  0  0
  143.7346  131.1770  151.5515 H   0  0  0  0  0  0  0  0  0  0  0  0
  145.1722  130.7077  150.6789 H   0  0  0  0  0  0  0  0  0  0  0  0
  144.9229  132.7495  152.9083 H   0  0  0  0  0  0  0  0  0  0  0  0
  145.9991  131.3820  152.7965 H   0  0  0  0  0  0  0  0  0  0  0  0
  147.0368  133.8017  153.4763 H   0  0  0  0  0  0  0  0  0  0  0  0
  148.0092  134.4243  152.2987 H   0  0  0  0  0  0  0  0  0  0  0  0
  147.0306  136.1929  152.8246 H   0  0  0  0  0  0  0  0  0  0  0  0
  148.2513  132.8852  152.8394 H   0  0  0  0  0  0  0  0  0  0  0  0
  1  2  1  0  0  0  0
  1 16  1  0  0  0  0
  1 17  1  0  0  0  0
  1 18  1  0  0  0  0
  2 14  1  0  0  0  0
  2  3  1  0  0  0  0
  3  4  2  0  0  0  0
  3 19  1  0  0  0  0
  4  5  1  0  0  0  0
  4 13  1  0  0  0  0
  5 11  1  0  0  0  0
  5  6  1  0  0  0  0
  5 20  1  0  0  0  0
  6  7  1  0  0  0  0
  6 21  1  0  0  0  0
  7  8  2  0  0  0  0
  7  9  1  0  0  0  0
  9 10  1  0  0  0  0
  9 22  1  0  0  0  0
  9 23  1  0  0  0  0
 10 11  1  0  0  0  0
 10 24  1  0  0  0  0
 10 25  1  0  0  0  0
 11 15  1  0  0  0  0
 11 12  1  0  0  0  0
 12 26  1  0  0  0  0
 12 27  1  0  0  0  0
 12 29  1  0  0  0  0
 13 14  2  0  0  0  0
 13 28  1  0  0  0  0
M  CHG  1  12   1
M  END
> <s_m_source_file>
AV-unprocessed.smi

> <i_m_source_file_index>
743

> <i_lp_mmshare_version>
43012

> <i_f3d_flags>
0

> <s_epik_input>
W0NIM11uMVtjSF1jKFtjSF1uMSlbQ0BASF0yW05IXUMoPU8pW0NIMl1bQ0gyXVtDQEBIXTJbTkgyXQ==

> <s_epik_cmdline>
J2VwaWtfcHl0aG9uJywgJy1waCcsICc3LjAnLCAnLXRuJywgJzgnLCAnLW1hJywgJzIwMCcsICctbWV0YWxfYmluZGluZycsICctaW1hZScsICc8aW5maWxlLm1hZT4nLCAnLW9tYWUnLCAnPG91dGZpbGUubWFlPic=

> <r_lp_tautomer_probability>
1

> <r_epik_Ionization_Penalty>
0.00878543

> <r_epik_Ionization_Penalty_Charging>
0.00874185

> <r_epik_Ionization_Penalty_Neutral>
4.35793e-05

> <r_epik_State_Penalty>
0.00660351

> <r_epik_Charging_Adjusted_Penalty>
0.0153454

> <i_epik_Tot_Q>
1

> <i_epik_Tot_abs_Q>
1

> <r_epik_Metal_State_Penalty>
0.00660727

> <b_epik_Metal_Only>
0

> <s_lp_Force_Field>
OPLS_2005

> <r_lp_Energy>
11.1602

> <b_lp_Chiralities_Consistent>
1

> <s_lp_Variant>
AV-unprocessed.smi:743-1

> <Gold.Version>
5.8.1

> <Gold.Id.Protein>
6NUR|6NUR_protein|mol2

> <Gold.PLP.Fitness>
40.3713

> <Gold.PLP.PLP>
-26.3316

> <Gold.PLP.part.hbond>
-3.0000

> <Gold.PLP.part.metal>
0.0000

> <Gold.PLP.part.buried>
-5.3793

> <Gold.PLP.part.nonpolar>
-19.0479

> <Gold.PLP.part.repulsive>
0.5416

> <Gold.PLP.ligand.clash>
0.0000

> <Gold.PLP.ligand.torsion>
0.0663

> <Gold.PLP.Chemscore.Hbond>
3.4400

> <Gold.PLP.Chemscore.CHOScore>
1.2778

> <Gold.PLP.Chemscore.Metal>
0.0000

> <Gold.Chemscore.Hbonds>
donor molecule, donor type, donor heavy atom, donor atom, acceptor molecule, acceptor atom, score
      L1  H     6    21       P1  7921  0.50
      L1  H    12    27       P1  7948  1.98
      P1  H 10785 10796       L1     8  0.76
      L1  C     3    19       P1 10186  0.09
      L1  C    13    28       P1  7948  1.00

> <Gold.PLP.Chemscore.Internal.Correction>
0.0189

> <Gold.Rescore>
     Score         DG    S(hbond)    S(metal)    S(lipo)     H(rot)  DE(clash)    DE(int)     intcor
     14.86     -15.24       2.17        0.00      43.30       1.00       0.01       0.37       ----

> <Gold.Chemscore.Fitness>
14.8587

> <Gold.Chemscore.DG>
-15.2448

> <Gold.Chemscore.ZeroCoef>
-5.4800

> <Gold.Chemscore.Hbond>
2.1734

> <Gold.Chemscore.Metal>
0.0000

> <Gold.Chemscore.Lipo>
43.2957

> <Gold.Chemscore.Internal_Hbond>
0.0000

> <Gold.Chemscore.DEClash>
0.0149

> <Gold.Chemscore.DEInternal>
0.3712

> <Gold.Chemscore.Rot>
1.0000

> <Gold.Chemscore.Internal.Correction>
   9.000000E+99

> <Gold.Chemscore.Hbonds>
donor molecule, donor type, donor heavy atom, donor atom, acceptor molecule, acceptor atom, score
      L1  H     6    21       P1  7921  0.48
      L1  H    12    27       P1  7948  0.24
      P1  H 10785 10796       L1     8  0.67

> <Gold.Chemscore.Hbond.Weighted>
-7.2592

> <Gold.Chemscore.Metal.Weighted>
-0.0000

> <Gold.Chemscore.Lipo.Weighted>
-5.0656

> <Gold.Chemscore.Internal_Hbond.Weighted>
0.0000

> <Gold.Chemscore.DEClash.Weighted>
0.0149

> <Gold.Chemscore.DEInternal.Weighted>
0.3712

> <Gold.Chemscore.Rot.Weighted>
2.5600

> <Gold.Chemscore.Internal.Correction.Weighted>
   9.000000E+99

> <Gold.Protein.RotatedTorsions>
[ 6907 6896 6895 6894 ] final  135.10 input  -60.11 | X-H torsion
[ 7974 7965 7964 7962 ] final  103.61 input  175.53 | X-H torsion
[ 8008 7997 7996 7995 ] final    4.30 input   59.86 | X-H torsion
[ 10167 10162 10161 10158 ] final   18.22 input  -65.29 | X-H torsion
[ 10718 10713 10712 10709 ] final    2.59 input   66.30 | X-H torsion
[ 10763 10752 10751 10750 ] final  158.15 input  -60.55 | X-H torsion
[ 11005 11000 10999 10996 ] final  104.95 input  -57.11 | X-H torsion

> <Gold.Protein.ActiveResidues>
 VAL166  LYS551  ARG553  GLY616  TRP617  ASP618  TYR619  PRO620  LYS621  CYS622 
 ASP623  PHE694  ASN695  SER759  ASP760  ASP761  ALA762  ILE779  LEU786  VAL792 
 PHE793  MET794  SER795  GLU796  ALA797  LYS798  CYS799  TRP800  GLU811  SER814 

> <Gold.Protein.RotatedAtoms>
  152.3041  133.5685  159.5637 H   0  0  0  0  0  0  0  0  0  0  0  0  # atno 6907 bound_to 6896
  150.7291  134.0248  159.3722 H   0  0  0  0  0  0  0  0  0  0  0  0  # atno 6908 bound_to 6896
  151.8146  135.0671  160.0468 H   0  0  0  0  0  0  0  0  0  0  0  0  # atno 6909 bound_to 6896
  145.3437  139.2456  143.3596 H   0  0  0  0  0  0  0  0  0  0  0  0  # atno 7974 bound_to 7965
  154.7143  140.2699  155.6600 H   0  0  0  0  0  0  0  0  0  0  0  0  # atno 8008 bound_to 7997
  156.2805  140.2747  156.1719 H   0  0  0  0  0  0  0  0  0  0  0  0  # atno 8009 bound_to 7997
  155.0593  140.0371  157.2561 H   0  0  0  0  0  0  0  0  0  0  0  0  # atno 8010 bound_to 7997
  140.5669  143.9233  150.6683 H   0  0  0  0  0  0  0  0  0  0  0  0  # atno 10167 bound_to 10162
  156.8652  130.5600  149.5660 H   0  0  0  0  0  0  0  0  0  0  0  0  # atno 10718 bound_to 10713
  154.2115  135.2786  155.2957 H   0  0  0  0  0  0  0  0  0  0  0  0  # atno 10763 bound_to 10752
  154.5775  135.5599  153.7157 H   0  0  0  0  0  0  0  0  0  0  0  0  # atno 10764 bound_to 10752
  153.0063  135.6336  154.2254 H   0  0  0  0  0  0  0  0  0  0  0  0  # atno 10765 bound_to 10752
  139.8797  134.9319  156.5440 H   0  0  0  0  0  0  0  0  0  0  0  0  # atno 11005 bound_to 11000
  146.2997  140.4039  142.8708 LP  0  0  0  0  0  0  0  0  0  0  0  0  # atno 17320 bound_to 7965
  144.8771  140.7350  143.6010 LP  0  0  0  0  0  0  0  0  0  0  0  0  # atno 17321 bound_to 7965
  140.2699  143.3464  152.1248 LP  0  0  0  0  0  0  0  0  0  0  0  0  # atno 17342 bound_to 10162
  139.5098  144.6873  151.5854 LP  0  0  0  0  0  0  0  0  0  0  0  0  # atno 17343 bound_to 10162
  156.0755  130.5778  150.9466 LP  0  0  0  0  0  0  0  0  0  0  0  0  # atno 17370 bound_to 10713
  157.6227  131.0928  150.8592 LP  0  0  0  0  0  0  0  0  0  0  0  0  # atno 17371 bound_to 10713
  140.8289  133.8294  155.8965 LP  0  0  0  0  0  0  0  0  0  0  0  0  # atno 17394 bound_to 11000
  140.9347  134.1977  157.4839 LP  0  0  0  0  0  0  0  0  0  0  0  0  # atno 17395 bound_to 11000

$$$$
