AV-unprocessed.smi:2252|AV-procd|sdf|9106|dock5
  -GOLD-   2272012303D 1   1.00000     0.00000
 Structure written by MMmdl.
 45 47  0  0  0  0  0  0  0  0  2 V2000
  151.7603  144.8516  158.1855 C   0  0  0  0  0  0  0  0  0  0  0  0
  151.8751  143.7353  159.1041 N   0  0  0  0  0  0  0  0  0  0  0  0
  152.7274  143.6699  160.1986 C   0  0  0  0  0  0  0  0  0  0  0  0
  152.5211  142.4458  160.7868 C   0  0  0  0  0  0  0  0  0  0  0  0
  151.5512  141.7501  160.0738 N   0  0  0  0  0  0  0  0  0  0  0  0
  151.2023  142.5671  159.0848 C   0  0  0  0  0  0  0  0  0  0  0  0
  150.1785  142.2141  158.0452 C   0  0  0  0  0  0  0  0  0  0  0  0
  150.7119  142.3035  156.6055 C   0  0  0  0  0  0  0  0  0  0  0  0
  149.6255  142.3698  155.6349 N   0  0  0  0  0  0  0  0  0  0  0  0
  148.8830  141.3247  155.2426 C   0  0  0  0  0  0  0  0  0  0  0  0
  149.0287  140.1866  155.6902 O   0  0  0  0  0  0  0  0  0  0  0  0
  147.8285  141.6017  154.1593 C   0  0  1  0  0  0  0  0  0  0  0  0
  147.1386  140.2682  153.7957 C   0  0  0  0  0  0  0  0  0  0  0  0
  147.9524  139.0621  153.3752 C   0  0  0  0  0  0  0  0  0  0  0  0
  147.0843  139.7688  152.3676 C   0  0  0  0  0  0  0  0  0  0  0  0
  146.8361  142.6256  154.5959 N   0  3  0  0  0  0  0  0  0  0  0  0
  145.8270  143.0068  153.5834 C   0  0  0  0  0  0  0  0  0  0  0  0
  144.7253  143.6999  154.3764 C   0  0  0  0  0  0  0  0  0  0  0  0
  144.6856  142.9207  155.6882 C   0  0  0  0  0  0  0  0  0  0  0  0
  146.0822  142.2969  155.8304 C   0  0  0  0  0  0  0  0  0  0  0  0
  152.5020  145.6140  158.4263 H   0  0  0  0  0  0  0  0  0  0  0  0
  150.7657  145.2914  158.2621 H   0  0  0  0  0  0  0  0  0  0  0  0
  151.9275  144.5118  157.1636 H   0  0  0  0  0  0  0  0  0  0  0  0
  153.3947  144.4776  160.4617 H   0  0  0  0  0  0  0  0  0  0  0  0
  152.9910  142.0163  161.6594 H   0  0  0  0  0  0  0  0  0  0  0  0
  149.8301  141.1991  158.2389 H   0  0  0  0  0  0  0  0  0  0  0  0
  149.3031  142.8539  158.1553 H   0  0  0  0  0  0  0  0  0  0  0  0
  151.3413  143.1907  156.5141 H   0  0  0  0  0  0  0  0  0  0  0  0
  151.3428  141.4422  156.3840 H   0  0  0  0  0  0  0  0  0  0  0  0
  149.4486  143.2686  155.2099 H   0  0  0  0  0  0  0  0  0  0  0  0
  148.3398  141.9884  153.2752 H   0  0  0  0  0  0  0  0  0  0  0  0
  146.2692  140.0450  154.4124 H   0  0  0  0  0  0  0  0  0  0  0  0
  149.0280  139.1822  153.2703 H   0  0  0  0  0  0  0  0  0  0  0  0
  147.6253  138.0868  153.7293 H   0  0  0  0  0  0  0  0  0  0  0  0
  146.1744  139.2660  152.0465 H   0  0  0  0  0  0  0  0  0  0  0  0
  147.5888  140.3534  151.6008 H   0  0  0  0  0  0  0  0  0  0  0  0
  146.2399  143.6540  152.8090 H   0  0  0  0  0  0  0  0  0  0  0  0
  145.4299  142.1113  153.1025 H   0  0  0  0  0  0  0  0  0  0  0  0
  145.0072  144.7356  154.5709 H   0  0  0  0  0  0  0  0  0  0  0  0
  143.7670  143.7050  153.8559 H   0  0  0  0  0  0  0  0  0  0  0  0
  144.4281  143.5595  156.5337 H   0  0  0  0  0  0  0  0  0  0  0  0
  143.9338  142.1326  155.6303 H   0  0  0  0  0  0  0  0  0  0  0  0
  145.9802  141.2177  155.9507 H   0  0  0  0  0  0  0  0  0  0  0  0
  146.6117  142.6823  156.7023 H   0  0  0  0  0  0  0  0  0  0  0  0
  147.3546  143.4681  154.8009 H   0  0  0  0  0  0  0  0  0  0  0  0
  1  2  1  0  0  0  0
  1 21  1  0  0  0  0
  1 22  1  0  0  0  0
  1 23  1  0  0  0  0
  2  6  1  0  0  0  0
  2  3  1  0  0  0  0
  3  4  2  0  0  0  0
  3 24  1  0  0  0  0
  4  5  1  0  0  0  0
  4 25  1  0  0  0  0
  5  6  2  0  0  0  0
  6  7  1  0  0  0  0
  7  8  1  0  0  0  0
  7 26  1  0  0  0  0
  7 27  1  0  0  0  0
  8  9  1  0  0  0  0
  8 28  1  0  0  0  0
  8 29  1  0  0  0  0
  9 10  1  0  0  0  0
  9 30  1  0  0  0  0
 10 11  2  0  0  0  0
 10 12  1  0  0  0  0
 12 13  1  0  0  0  0
 12 16  1  0  0  0  0
 12 31  1  0  0  0  0
 13 15  1  0  0  0  0
 13 14  1  0  0  0  0
 13 32  1  0  0  0  0
 14 15  1  0  0  0  0
 14 33  1  0  0  0  0
 14 34  1  0  0  0  0
 15 35  1  0  0  0  0
 15 36  1  0  0  0  0
 16 20  1  0  0  0  0
 16 17  1  0  0  0  0
 16 45  1  0  0  0  0
 17 18  1  0  0  0  0
 17 37  1  0  0  0  0
 17 38  1  0  0  0  0
 18 19  1  0  0  0  0
 18 39  1  0  0  0  0
 18 40  1  0  0  0  0
 19 20  1  0  0  0  0
 19 41  1  0  0  0  0
 19 42  1  0  0  0  0
 20 43  1  0  0  0  0
 20 44  1  0  0  0  0
M  CHG  1  16   1
M  END
> <s_m_source_file>
AV-unprocessed.smi

> <i_m_source_file_index>
2252

> <i_lp_mmshare_version>
43012

> <i_f3d_flags>
0

> <s_epik_input>
W0NIM11uMVtjSF1bY0hdbmMxW0NIMl1bQ0gyXVtOSF1DKD1PKVtDQEhdKFtDSF0yW0NIMl1bQ0gyXTIpTjNbQ0gyXVtDSDJdW0NIMl1bQ0gyXTM=

> <s_epik_cmdline>
J2VwaWtfcHl0aG9uJywgJy1waCcsICc3LjAnLCAnLXRuJywgJzgnLCAnLW1hJywgJzIwMCcsICctbWV0YWxfYmluZGluZycsICctaW1hZScsICc8aW5maWxlLm1hZT4nLCAnLW9tYWUnLCAnPG91dGZpbGUubWFlPic=

> <r_lp_tautomer_probability>
1

> <r_epik_Ionization_Penalty>
1.07437

> <r_epik_Ionization_Penalty_Charging>
1.07435

> <r_epik_Ionization_Penalty_Neutral>
2.35578e-05

> <r_epik_State_Penalty>
1.18204

> <r_epik_Charging_Adjusted_Penalty>
2.25639

> <i_epik_Tot_Q>
1

> <i_epik_Tot_abs_Q>
1

> <r_epik_Metal_State_Penalty>
0.433434

> <b_epik_Metal_Only>
0

> <s_lp_Force_Field>
OPLS_2005

> <r_lp_Energy>
34.9186

> <b_lp_Chiralities_Consistent>
1

> <s_lp_Variant>
AV-unprocessed.smi:2252-4

> <Gold.Version>
5.8.1

> <Gold.Id.Protein>
6NUR|6NUR_protein|mol2

> <Gold.PLP.Fitness>
53.3296

> <Gold.PLP.PLP>
-46.2056

> <Gold.PLP.part.hbond>
-2.6794

> <Gold.PLP.part.metal>
0.0000

> <Gold.PLP.part.buried>
-5.1811

> <Gold.PLP.part.nonpolar>
-38.5067

> <Gold.PLP.part.repulsive>
0.3514

> <Gold.PLP.ligand.clash>
0.0000

> <Gold.PLP.ligand.torsion>
0.9515

> <Gold.PLP.Chemscore.Hbond>
2.6240

> <Gold.PLP.Chemscore.CHOScore>
0.0000

> <Gold.PLP.Chemscore.Metal>
0.0000

> <Gold.Chemscore.Hbonds>
donor molecule, donor type, donor heavy atom, donor atom, acceptor molecule, acceptor atom, score
      L1  H     9    30       P1  8028  0.78
      L1  H    16    45       P1  8028  1.33

> <Gold.PLP.Chemscore.Internal.Correction>
1.1550

> <Gold.Rescore>
     Score         DG    S(hbond)    S(metal)    S(lipo)     H(rot)  DE(clash)    DE(int)     intcor
     13.76     -15.88       1.15        0.00      98.86       1.95       0.02       2.11       ----

> <Gold.Chemscore.Fitness>
13.7563

> <Gold.Chemscore.DG>
-15.8842

> <Gold.Chemscore.ZeroCoef>
-5.4800

> <Gold.Chemscore.Hbond>
1.1455

> <Gold.Chemscore.Metal>
0.0000

> <Gold.Chemscore.Lipo>
98.8575

> <Gold.Chemscore.Internal_Hbond>
0.0000

> <Gold.Chemscore.DEClash>
0.0189

> <Gold.Chemscore.DEInternal>
2.1090

> <Gold.Chemscore.Rot>
1.9485

> <Gold.Chemscore.Internal.Correction>
   9.000000E+99

> <Gold.Chemscore.Hbonds>
donor molecule, donor type, donor heavy atom, donor atom, acceptor molecule, acceptor atom, score
      L1  H     9    30       P1  8028  0.77
      L1  H    16    45       P1  8028  0.09

> <Gold.Chemscore.Hbond.Weighted>
-3.8260

> <Gold.Chemscore.Metal.Weighted>
-0.0000

> <Gold.Chemscore.Lipo.Weighted>
-11.5663

> <Gold.Chemscore.Internal_Hbond.Weighted>
0.0000

> <Gold.Chemscore.DEClash.Weighted>
0.0189

> <Gold.Chemscore.DEInternal.Weighted>
2.1090

> <Gold.Chemscore.Rot.Weighted>
4.9881

> <Gold.Chemscore.Internal.Correction.Weighted>
   9.000000E+99

> <Gold.Protein.RotatedTorsions>
[ 6907 6896 6895 6894 ] final   31.81 input  -60.11 | X-H torsion
[ 7974 7965 7964 7962 ] final   10.95 input  175.53 | X-H torsion
[ 8008 7997 7996 7995 ] final   74.28 input   59.86 | X-H torsion
[ 10167 10162 10161 10158 ] final  -48.04 input  -65.29 | X-H torsion
[ 10718 10713 10712 10709 ] final  -99.60 input   66.30 | X-H torsion
[ 10763 10752 10751 10750 ] final -103.96 input  -60.55 | X-H torsion
[ 11005 11000 10999 10996 ] final -127.17 input  -57.11 | X-H torsion

> <Gold.Protein.ActiveResidues>
 VAL166  LYS551  ARG553  GLY616  TRP617  ASP618  TYR619  PRO620  LYS621  CYS622 
 ASP623  PHE694  ASN695  SER759  ASP760  ASP761  ALA762  ILE779  LEU786  VAL792 
 PHE793  MET794  SER795  GLU796  ALA797  LYS798  CYS799  TRP800  GLU811  SER814 

> <Gold.Protein.RotatedAtoms>
  152.0656  134.9567  160.0574 H   0  0  0  0  0  0  0  0  0  0  0  0  # atno 6907 bound_to 6896
  152.0913  133.4197  159.4553 H   0  0  0  0  0  0  0  0  0  0  0  0  # atno 6908 bound_to 6896
  150.6837  134.2788  159.4662 H   0  0  0  0  0  0  0  0  0  0  0  0  # atno 6909 bound_to 6896
  146.2380  139.9558  142.8464 H   0  0  0  0  0  0  0  0  0  0  0  0  # atno 7974 bound_to 7965
  155.7960  140.3478  155.5376 H   0  0  0  0  0  0  0  0  0  0  0  0  # atno 8008 bound_to 7997
  155.8586  140.0967  157.1649 H   0  0  0  0  0  0  0  0  0  0  0  0  # atno 8009 bound_to 7997
  154.4011  140.1363  156.3920 H   0  0  0  0  0  0  0  0  0  0  0  0  # atno 8010 bound_to 7997
  140.6749  143.2758  151.4013 H   0  0  0  0  0  0  0  0  0  0  0  0  # atno 10167 bound_to 10162
  156.0138  130.5290  150.6694 H   0  0  0  0  0  0  0  0  0  0  0  0  # atno 10718 bound_to 10713
  154.7845  135.4804  153.9915 H   0  0  0  0  0  0  0  0  0  0  0  0  # atno 10763 bound_to 10752
  153.1540  135.6796  153.8847 H   0  0  0  0  0  0  0  0  0  0  0  0  # atno 10764 bound_to 10752
  153.8482  135.3170  155.3409 H   0  0  0  0  0  0  0  0  0  0  0  0  # atno 10765 bound_to 10752
  140.9621  134.0922  157.3957 H   0  0  0  0  0  0  0  0  0  0  0  0  # atno 11005 bound_to 11000
  145.1818  140.9770  143.4262 LP  0  0  0  0  0  0  0  0  0  0  0  0  # atno 17320 bound_to 7965
  144.9936  139.3666  143.6203 LP  0  0  0  0  0  0  0  0  0  0  0  0  # atno 17321 bound_to 7965
  139.6036  144.1245  152.2224 LP  0  0  0  0  0  0  0  0  0  0  0  0  # atno 17342 bound_to 10162
  140.0636  144.5836  150.7244 LP  0  0  0  0  0  0  0  0  0  0  0  0  # atno 17343 bound_to 10162
  157.4420  131.0862  151.0934 LP  0  0  0  0  0  0  0  0  0  0  0  0  # atno 17370 bound_to 10713
  157.1476  130.6170  149.5573 LP  0  0  0  0  0  0  0  0  0  0  0  0  # atno 17371 bound_to 10713
  139.8882  135.0095  156.6604 LP  0  0  0  0  0  0  0  0  0  0  0  0  # atno 17394 bound_to 11000
  140.7452  133.8944  155.8307 LP  0  0  0  0  0  0  0  0  0  0  0  0  # atno 17395 bound_to 11000

$$$$
