AV-unprocessed.smi:3260|AV-procd|sdf|12476|dock4
  -GOLD-   2272018373D 1   1.00000     0.00000
 Structure written by MMmdl.
 38 39  0  0  0  0  0  0  0  0  1 V2000
  150.6044  142.3680  155.9433 C   0  0  0  0  0  0  0  0  0  0  0  0
  149.8377  141.5593  155.0200 N   0  0  0  0  0  0  0  0  0  0  0  0
  148.5544  141.7617  154.5616 C   0  0  0  0  0  0  0  0  0  0  0  0
  148.2520  140.7300  153.7178 C   0  0  0  0  0  0  0  0  0  0  0  0
  146.9653  140.4743  152.9756 C   0  0  0  0  0  0  0  0  0  0  0  0
  146.9884  139.1687  152.1510 C   0  0  0  0  0  0  0  0  0  0  0  0
  145.6591  138.6236  151.8872 N   0  0  0  0  0  0  0  0  0  0  0  0
  145.1567  137.5075  152.4320 C   0  0  0  0  0  0  0  0  0  0  0  0
  145.7356  136.8313  153.2823 O   0  0  0  0  0  0  0  0  0  0  0  0
  143.9682  137.1913  151.9011 N   0  0  0  0  0  0  0  0  0  0  0  0
  143.2454  135.9516  152.1602 C   0  0  0  0  0  0  0  0  0  0  0  0
  143.7528  134.8054  151.2669 C   0  0  2  0  0  0  0  0  0  0  0  0
  143.2462  133.4186  151.6595 C   0  0  0  0  0  0  0  0  0  0  0  0
  144.2764  132.5295  151.0025 C   0  0  0  0  0  0  0  0  0  0  0  0
  145.5630  133.3325  151.1920 C   0  0  0  0  0  0  0  0  0  0  0  0
  145.1694  134.6953  151.3450 O   0  0  0  0  0  0  0  0  0  0  0  0
  149.4385  139.9431  153.7199 C   0  0  0  0  0  0  0  0  0  0  0  0
  150.3836  140.4397  154.5021 N   0  0  0  0  0  0  0  0  0  0  0  0
  150.0857  143.3072  156.1362 H   0  0  0  0  0  0  0  0  0  0  0  0
  151.5858  142.5858  155.5207 H   0  0  0  0  0  0  0  0  0  0  0  0
  150.7292  141.8319  156.8846 H   0  0  0  0  0  0  0  0  0  0  0  0
  147.9621  142.6075  154.8791 H   0  0  0  0  0  0  0  0  0  0  0  0
  146.1322  140.4315  153.6779 H   0  0  0  0  0  0  0  0  0  0  0  0
  146.7334  141.3068  152.3108 H   0  0  0  0  0  0  0  0  0  0  0  0
  147.5291  139.3155  151.2150 H   0  0  0  0  0  0  0  0  0  0  0  0
  147.5351  138.4064  152.7069 H   0  0  0  0  0  0  0  0  0  0  0  0
  145.1036  139.1028  151.1938 H   0  0  0  0  0  0  0  0  0  0  0  0
  143.5724  137.8138  151.2121 H   0  0  0  0  0  0  0  0  0  0  0  0
  143.3302  135.6786  153.2132 H   0  0  0  0  0  0  0  0  0  0  0  0
  142.1868  136.1301  151.9706 H   0  0  0  0  0  0  0  0  0  0  0  0
  143.4948  134.9983  150.2240 H   0  0  0  0  0  0  0  0  0  0  0  0
  143.2754  133.2899  152.7424 H   0  0  0  0  0  0  0  0  0  0  0  0
  142.2302  133.2224  151.3178 H   0  0  0  0  0  0  0  0  0  0  0  0
  144.3256  131.5324  151.4407 H   0  0  0  0  0  0  0  0  0  0  0  0
  144.0520  132.4251  149.9400 H   0  0  0  0  0  0  0  0  0  0  0  0
  146.0831  133.0189  152.0979 H   0  0  0  0  0  0  0  0  0  0  0  0
  146.2463  133.2115  150.3511 H   0  0  0  0  0  0  0  0  0  0  0  0
  149.6361  139.0258  153.1850 H   0  0  0  0  0  0  0  0  0  0  0  0
  1  2  1  0  0  0  0
  1 19  1  0  0  0  0
  1 20  1  0  0  0  0
  1 21  1  0  0  0  0
  2 18  1  0  0  0  0
  2  3  1  0  0  0  0
  3  4  2  0  0  0  0
  3 22  1  0  0  0  0
  4  5  1  0  0  0  0
  4 17  1  0  0  0  0
  5  6  1  0  0  0  0
  5 23  1  0  0  0  0
  5 24  1  0  0  0  0
  6  7  1  0  0  0  0
  6 25  1  0  0  0  0
  6 26  1  0  0  0  0
  7  8  1  0  0  0  0
  7 27  1  0  0  0  0
  8  9  2  0  0  0  0
  8 10  1  0  0  0  0
 10 11  1  0  0  0  0
 10 28  1  0  0  0  0
 11 12  1  0  0  0  0
 11 29  1  0  0  0  0
 11 30  1  0  0  0  0
 12 16  1  0  0  0  0
 12 13  1  0  0  0  0
 12 31  1  0  0  0  0
 13 14  1  0  0  0  0
 13 32  1  0  0  0  0
 13 33  1  0  0  0  0
 14 15  1  0  0  0  0
 14 34  1  0  0  0  0
 14 35  1  0  0  0  0
 15 16  1  0  0  0  0
 15 36  1  0  0  0  0
 15 37  1  0  0  0  0
 17 18  2  0  0  0  0
 17 38  1  0  0  0  0
M  END
> <s_m_source_file>
AV-unprocessed.smi

> <i_m_source_file_index>
3260

> <i_lp_mmshare_version>
43012

> <i_f3d_flags>
0

> <s_epik_input>
W0NIM11uMVtjSF1jKFtjSF1uMSlbQ0gyXVtDSDJdW05IXUMoPU8pW05IXVtDSDJdW0NAQEhdMltDSDJdW0NIMl1bQ0gyXU8y

> <s_epik_cmdline>
J2VwaWtfcHl0aG9uJywgJy1waCcsICc3LjAnLCAnLXRuJywgJzgnLCAnLW1hJywgJzIwMCcsICctbWV0YWxfYmluZGluZycsICctaW1hZScsICc8aW5maWxlLm1hZT4nLCAnLW9tYWUnLCAnPG91dGZpbGUubWFlPic=

> <r_lp_tautomer_probability>
1

> <r_epik_Ionization_Penalty>
0.000550106

> <r_epik_Ionization_Penalty_Charging>
0

> <r_epik_Ionization_Penalty_Neutral>
0.000550106

> <r_epik_State_Penalty>
-0

> <r_epik_Charging_Adjusted_Penalty>
0

> <i_epik_Tot_Q>
0

> <i_epik_Tot_abs_Q>
0

> <r_epik_Metal_State_Penalty>
-0

> <b_epik_Metal_Only>
0

> <s_lp_Force_Field>
OPLS_2005

> <r_lp_Energy>
10.4749

> <b_lp_Chiralities_Consistent>
1

> <s_lp_Variant>
AV-unprocessed.smi:3260-1

> <Gold.Version>
5.8.1

> <Gold.Id.Protein>
6NUR|6NUR_protein|mol2

> <Gold.PLP.Fitness>
45.4284

> <Gold.PLP.PLP>
-34.3741

> <Gold.PLP.part.hbond>
-4.0000

> <Gold.PLP.part.metal>
0.0000

> <Gold.PLP.part.buried>
0.6730

> <Gold.PLP.part.nonpolar>
-30.7703

> <Gold.PLP.part.repulsive>
0.4179

> <Gold.PLP.ligand.clash>
0.0000

> <Gold.PLP.ligand.torsion>
0.3952

> <Gold.PLP.Chemscore.Hbond>
2.7346

> <Gold.PLP.Chemscore.CHOScore>
1.2008

> <Gold.PLP.Chemscore.Metal>
0.0000

> <Gold.Chemscore.Hbonds>
donor molecule, donor type, donor heavy atom, donor atom, acceptor molecule, acceptor atom, score
      L1  H     7    27       P1 10171  0.75
      L1  H    10    28       P1 10171  0.91
      P1  H  7989  7998       L1    18  1.00
      L1  C     3    22       P1  8028  0.91
      L1  C    17    38       P1  7957  0.28

> <Gold.PLP.Chemscore.Internal.Correction>
0.0386

> <Gold.Rescore>
     Score         DG    S(hbond)    S(metal)    S(lipo)     H(rot)  DE(clash)    DE(int)     intcor
     13.13     -13.56       1.15        0.00      76.77       1.85       0.10       0.33       ----

> <Gold.Chemscore.Fitness>
13.1324

> <Gold.Chemscore.DG>
-13.5613

> <Gold.Chemscore.ZeroCoef>
-5.4800

> <Gold.Chemscore.Hbond>
1.1504

> <Gold.Chemscore.Metal>
0.0000

> <Gold.Chemscore.Lipo>
76.7702

> <Gold.Chemscore.Internal_Hbond>
0.0000

> <Gold.Chemscore.DEClash>
0.1024

> <Gold.Chemscore.DEInternal>
0.3265

> <Gold.Chemscore.Rot>
1.8528

> <Gold.Chemscore.Internal.Correction>
   9.000000E+99

> <Gold.Chemscore.Hbonds>
donor molecule, donor type, donor heavy atom, donor atom, acceptor molecule, acceptor atom, score
      L1  H     7    27       P1 10171  0.74
      L1  H    10    28       P1 10171  0.84
      P1  H  7989  7998       L1    18  0.34

> <Gold.Chemscore.Hbond.Weighted>
-3.8424

> <Gold.Chemscore.Metal.Weighted>
-0.0000

> <Gold.Chemscore.Lipo.Weighted>
-8.9821

> <Gold.Chemscore.Internal_Hbond.Weighted>
0.0000

> <Gold.Chemscore.DEClash.Weighted>
0.1024

> <Gold.Chemscore.DEInternal.Weighted>
0.3265

> <Gold.Chemscore.Rot.Weighted>
4.7433

> <Gold.Chemscore.Internal.Correction.Weighted>
   9.000000E+99

> <Gold.Protein.RotatedTorsions>
[ 6907 6896 6895 6894 ] final  173.95 input  -60.11 | X-H torsion
[ 7974 7965 7964 7962 ] final -156.70 input  175.53 | X-H torsion
[ 8008 7997 7996 7995 ] final  103.77 input   59.86 | X-H torsion
[ 10167 10162 10161 10158 ] final -105.64 input  -65.29 | X-H torsion
[ 10718 10713 10712 10709 ] final  146.84 input   66.30 | X-H torsion
[ 10763 10752 10751 10750 ] final   39.04 input  -60.55 | X-H torsion
[ 11005 11000 10999 10996 ] final -168.69 input  -57.11 | X-H torsion

> <Gold.Protein.ActiveResidues>
 VAL166  LYS551  ARG553  GLY616  TRP617  ASP618  TYR619  PRO620  LYS621  CYS622 
 ASP623  PHE694  ASN695  SER759  ASP760  ASP761  ALA762  ILE779  LEU786  VAL792 
 PHE793  MET794  SER795  GLU796  ALA797  LYS798  CYS799  TRP800  GLU811  SER814 

> <Gold.Protein.RotatedAtoms>
  151.7602  133.3333  159.3415 H   0  0  0  0  0  0  0  0  0  0  0  0  # atno 6907 bound_to 6896
  150.7501  134.6113  159.6097 H   0  0  0  0  0  0  0  0  0  0  0  0  # atno 6908 bound_to 6896
  152.3410  134.7136  160.0315 H   0  0  0  0  0  0  0  0  0  0  0  0  # atno 6909 bound_to 6896
  144.7581  140.4072  143.5997 H   0  0  0  0  0  0  0  0  0  0  0  0  # atno 7974 bound_to 7965
  156.1514  140.3159  155.8654 H   0  0  0  0  0  0  0  0  0  0  0  0  # atno 8008 bound_to 7997
  155.3964  140.0497  157.3055 H   0  0  0  0  0  0  0  0  0  0  0  0  # atno 8009 bound_to 7997
  154.5062  140.2148  155.9258 H   0  0  0  0  0  0  0  0  0  0  0  0  # atno 8010 bound_to 7997
  140.1964  143.3852  152.1165 H   0  0  0  0  0  0  0  0  0  0  0  0  # atno 10167 bound_to 10162
  157.3282  131.0916  151.1184 H   0  0  0  0  0  0  0  0  0  0  0  0  # atno 10718 bound_to 10713
  152.9980  135.6232  154.2401 H   0  0  0  0  0  0  0  0  0  0  0  0  # atno 10763 bound_to 10752
  154.2142  135.2798  155.2949 H   0  0  0  0  0  0  0  0  0  0  0  0  # atno 10764 bound_to 10752
  154.5582  135.5713  153.7041 H   0  0  0  0  0  0  0  0  0  0  0  0  # atno 10765 bound_to 10752
  140.5392  134.5540  157.5095 H   0  0  0  0  0  0  0  0  0  0  0  0  # atno 11005 bound_to 11000
  145.6711  139.1599  143.2754 LP  0  0  0  0  0  0  0  0  0  0  0  0  # atno 17320 bound_to 7965
  146.1614  140.6782  142.9275 LP  0  0  0  0  0  0  0  0  0  0  0  0  # atno 17321 bound_to 7965
  139.5235  144.7072  151.5318 LP  0  0  0  0  0  0  0  0  0  0  0  0  # atno 17342 bound_to 10162
  140.6420  143.8869  150.6701 LP  0  0  0  0  0  0  0  0  0  0  0  0  # atno 17343 bound_to 10162
  157.2442  130.6584  149.5903 LP  0  0  0  0  0  0  0  0  0  0  0  0  # atno 17370 bound_to 10713
  155.9693  130.4558  150.5903 LP  0  0  0  0  0  0  0  0  0  0  0  0  # atno 17371 bound_to 10713
  139.9513  134.7612  156.0442 LP  0  0  0  0  0  0  0  0  0  0  0  0  # atno 17394 bound_to 11000
  141.1237  133.6605  156.3281 LP  0  0  0  0  0  0  0  0  0  0  0  0  # atno 17395 bound_to 11000

$$$$
