AV-unprocessed.smi:876|AV-procd|sdf|4023|dock2
  -GOLD-   22720 1513D 1   1.00000     0.00000
 Structure written by MMmdl.
 40 41  0  0  0  0  0  0  0  0  1 V2000
  145.6659  132.0412  149.8459 C   0  0  0  0  0  0  0  0  0  0  0  0
  144.5322  132.6865  150.4968 N   0  0  0  0  0  0  0  0  0  0  0  0
  143.2623  131.9776  150.6170 C   0  0  0  0  0  0  0  0  0  0  0  0
  144.6494  134.0086  150.9835 C   0  0  0  0  0  0  0  0  0  0  0  0
  143.6219  134.6074  151.7538 C   0  0  0  0  0  0  0  0  0  0  0  0
  143.7843  135.9275  152.2164 C   0  0  0  0  0  0  0  0  0  0  0  0
  144.9757  136.6225  151.9056 C   0  0  0  0  0  0  0  0  0  0  0  0
  145.2542  137.9614  152.2943 N   0  0  0  0  0  0  0  0  0  0  0  0
  146.4445  138.5755  152.4076 C   0  0  0  0  0  0  0  0  0  0  0  0
  147.5366  138.0712  152.1474 O   0  0  0  0  0  0  0  0  0  0  0  0
  146.2982  139.8392  152.8300 N   0  0  0  0  0  0  0  0  0  0  0  0
  147.3949  140.7753  153.0515 C   0  0  2  0  0  0  0  0  0  0  0  0
  148.5185  140.1077  153.7960 C   0  0  0  0  0  0  0  0  0  0  0  0
  148.8655  140.7658  154.8997 C   0  0  0  0  0  0  0  0  0  0  0  0
  148.0397  142.0068  155.1245 C   0  0  2  0  0  0  0  0  0  0  0  0
  147.3971  142.0564  156.5216 C   0  0  0  0  0  0  0  0  0  0  0  0
  148.2761  142.6531  157.4524 O   0  0  0  0  0  0  0  0  0  0  0  0
  147.0013  141.9586  153.9746 C   0  0  0  0  0  0  0  0  0  0  0  0
  145.9352  135.9497  151.1244 C   0  0  0  0  0  0  0  0  0  0  0  0
  145.7839  134.6852  150.6794 N   0  0  0  0  0  0  0  0  0  0  0  0
  147.7842  141.1365  152.0980 H   0  0  0  0  0  0  0  0  0  0  0  0
  148.6918  142.8709  154.9888 H   0  0  0  0  0  0  0  0  0  0  0  0
  146.5036  131.9507  150.5382 H   0  0  0  0  0  0  0  0  0  0  0  0
  145.9893  132.6171  148.9782 H   0  0  0  0  0  0  0  0  0  0  0  0
  145.4095  131.0391  149.5020 H   0  0  0  0  0  0  0  0  0  0  0  0
  142.4783  132.5006  150.0681 H   0  0  0  0  0  0  0  0  0  0  0  0
  142.9624  131.9028  151.6630 H   0  0  0  0  0  0  0  0  0  0  0  0
  143.3317  130.9656  150.2178 H   0  0  0  0  0  0  0  0  0  0  0  0
  142.7090  134.0843  151.9950 H   0  0  0  0  0  0  0  0  0  0  0  0
  142.9860  136.3782  152.7847 H   0  0  0  0  0  0  0  0  0  0  0  0
  144.4426  138.5351  152.4712 H   0  0  0  0  0  0  0  0  0  0  0  0
  145.3651  140.1778  153.0140 H   0  0  0  0  0  0  0  0  0  0  0  0
  148.9871  139.2017  153.4406 H   0  0  0  0  0  0  0  0  0  0  0  0
  149.6570  140.4724  155.5736 H   0  0  0  0  0  0  0  0  0  0  0  0
  146.4767  142.6402  156.4933 H   0  0  0  0  0  0  0  0  0  0  0  0
  147.1349  141.0552  156.8651 H   0  0  0  0  0  0  0  0  0  0  0  0
  148.6585  143.4207  157.0553 H   0  0  0  0  0  0  0  0  0  0  0  0
  146.9846  142.8978  153.4203 H   0  0  0  0  0  0  0  0  0  0  0  0
  145.9964  141.8177  154.3764 H   0  0  0  0  0  0  0  0  0  0  0  0
  146.8579  136.4386  150.8477 H   0  0  0  0  0  0  0  0  0  0  0  0
  1  2  1  0  0  0  0
  1 23  1  0  0  0  0
  1 24  1  0  0  0  0
  1 25  1  0  0  0  0
  2  3  1  0  0  0  0
  2  4  1  0  0  0  0
  3 26  1  0  0  0  0
  3 27  1  0  0  0  0
  3 28  1  0  0  0  0
  4 20  1  0  0  0  0
  4  5  2  0  0  0  0
  5  6  1  0  0  0  0
  5 29  1  0  0  0  0
  6  7  2  0  0  0  0
  6 30  1  0  0  0  0
  7  8  1  0  0  0  0
  7 19  1  0  0  0  0
  8  9  1  0  0  0  0
  8 31  1  0  0  0  0
  9 10  2  0  0  0  0
  9 11  1  0  0  0  0
 11 12  1  0  0  0  0
 11 32  1  0  0  0  0
 12 21  1  0  0  0  0
 12 18  1  0  0  0  0
 12 13  1  0  0  0  0
 13 14  2  0  0  0  0
 13 33  1  0  0  0  0
 14 15  1  0  0  0  0
 14 34  1  0  0  0  0
 15 22  1  0  0  0  0
 15 16  1  0  0  0  0
 15 18  1  0  0  0  0
 16 17  1  0  0  0  0
 16 35  1  0  0  0  0
 16 36  1  0  0  0  0
 17 37  1  0  0  0  0
 18 38  1  0  0  0  0
 18 39  1  0  0  0  0
 19 20  2  0  0  0  0
 19 40  1  0  0  0  0
M  END
> <s_m_source_file>
AV-unprocessed.smi

> <i_m_source_file_index>
876

> <i_lp_mmshare_version>
43012

> <i_f3d_flags>
0

> <s_epik_input>
W0NIM11OKFtDSDNdKWMxW2NIXVtjSF1jKFtjSF1uMSlbTkhdQyg9TylbTkhdW0NAQEhdMltDSF09W0NIXVtDQEBIXShbQ0gyXTIpW0NIMl1bT0hd

> <s_epik_cmdline>
J2VwaWtfcHl0aG9uJywgJy1waCcsICc3LjAnLCAnLXRuJywgJzgnLCAnLW1hJywgJzIwMCcsICctbWV0YWxfYmluZGluZycsICctaW1hZScsICc8aW5maWxlLm1hZT4nLCAnLW9tYWUnLCAnPG91dGZpbGUubWFlPic=

> <r_lp_tautomer_probability>
1

> <r_epik_Ionization_Penalty>
0.617998

> <r_epik_Ionization_Penalty_Charging>
0

> <r_epik_Ionization_Penalty_Neutral>
0.617998

> <r_epik_State_Penalty>
0.632637

> <r_epik_Charging_Adjusted_Penalty>
0.632637

> <i_epik_Tot_Q>
0

> <i_epik_Tot_abs_Q>
0

> <r_epik_Metal_State_Penalty>
0.305596

> <b_epik_Metal_Only>
0

> <s_lp_Force_Field>
OPLS_2005

> <r_lp_Energy>
21.6673

> <b_lp_Chiralities_Consistent>
1

> <s_lp_Variant>
AV-unprocessed.smi:876-5

> <Gold.Version>
5.8.1

> <Gold.Id.Protein>
6NUR|6NUR_protein|mol2

> <Gold.PLP.Fitness>
41.6243

> <Gold.PLP.PLP>
-30.5184

> <Gold.PLP.part.hbond>
-4.2252

> <Gold.PLP.part.metal>
0.0000

> <Gold.PLP.part.buried>
3.4633

> <Gold.PLP.part.nonpolar>
-35.4078

> <Gold.PLP.part.repulsive>
7.3493

> <Gold.PLP.ligand.clash>
0.0000

> <Gold.PLP.ligand.torsion>
0.6765

> <Gold.PLP.Chemscore.Hbond>
3.2130

> <Gold.PLP.Chemscore.CHOScore>
0.9349

> <Gold.PLP.Chemscore.Metal>
0.0000

> <Gold.Chemscore.Hbonds>
donor molecule, donor type, donor heavy atom, donor atom, acceptor molecule, acceptor atom, score
      L1  H     8    31       P1 10175  0.86
      L1  H    11    32       P1 10175  1.00
      L1  H    17    37       P1  8028  1.00
      P1  H  7954  7966       L1    10  0.23
      L1  C    19    40       P1  7948  0.98

> <Gold.PLP.Chemscore.Internal.Correction>
0.0154

> <Gold.Rescore>
     Score         DG    S(hbond)    S(metal)    S(lipo)     H(rot)  DE(clash)    DE(int)     intcor
     10.97     -21.64       3.19        0.00      86.49       1.80       7.10       3.57       ----

> <Gold.Chemscore.Fitness>
10.9668

> <Gold.Chemscore.DG>
-21.6389

> <Gold.Chemscore.ZeroCoef>
-5.4800

> <Gold.Chemscore.Hbond>
3.1864

> <Gold.Chemscore.Metal>
0.0000

> <Gold.Chemscore.Lipo>
86.4880

> <Gold.Chemscore.Internal_Hbond>
0.0000

> <Gold.Chemscore.DEClash>
7.1025

> <Gold.Chemscore.DEInternal>
3.5696

> <Gold.Chemscore.Rot>
1.7980

> <Gold.Chemscore.Internal.Correction>
   9.000000E+99

> <Gold.Chemscore.Hbonds>
donor molecule, donor type, donor heavy atom, donor atom, acceptor molecule, acceptor atom, score
      L1  H     8    31       P1 10175  0.79
      L1  H    11    32       P1 10175  0.94
      L1  H    17    37       P1  8028  0.29
      P1  H  7954  7966       L1    10  0.22

> <Gold.Chemscore.Hbond.Weighted>
-10.6426

> <Gold.Chemscore.Metal.Weighted>
-0.0000

> <Gold.Chemscore.Lipo.Weighted>
-10.1191

> <Gold.Chemscore.Internal_Hbond.Weighted>
0.0000

> <Gold.Chemscore.DEClash.Weighted>
7.1025

> <Gold.Chemscore.DEInternal.Weighted>
3.5696

> <Gold.Chemscore.Rot.Weighted>
4.6029

> <Gold.Chemscore.Internal.Correction.Weighted>
   9.000000E+99

> <Gold.Protein.RotatedTorsions>
[ 6907 6896 6895 6894 ] final  -69.09 input  -60.11 | X-H torsion
[ 7974 7965 7964 7962 ] final -155.28 input  175.53 | X-H torsion
[ 8008 7997 7996 7995 ] final  104.68 input   59.86 | X-H torsion
[ 10167 10162 10161 10158 ] final  -12.06 input  -65.29 | X-H torsion
[ 10718 10713 10712 10709 ] final -150.94 input   66.30 | X-H torsion
[ 10763 10752 10751 10750 ] final  -62.91 input  -60.55 | X-H torsion
[ 11005 11000 10999 10996 ] final  -43.67 input  -57.11 | X-H torsion

> <Gold.Protein.ActiveResidues>
 VAL166  LYS551  ARG553  GLY616  TRP617  ASP618  TYR619  PRO620  LYS621  CYS622 
 ASP623  PHE694  ASN695  SER759  ASP760  ASP761  ALA762  ILE779  LEU786  VAL792 
 PHE793  MET794  SER795  GLU796  ALA797  LYS798  CYS799  TRP800  GLU811  SER814 

> <Gold.Protein.RotatedAtoms>
  150.7323  134.5646  159.5859 H   0  0  0  0  0  0  0  0  0  0  0  0  # atno 6907 bound_to 6896
  152.3101  134.7505  160.0347 H   0  0  0  0  0  0  0  0  0  0  0  0  # atno 6908 bound_to 6896
  151.8056  133.3339  159.3576 H   0  0  0  0  0  0  0  0  0  0  0  0  # atno 6909 bound_to 6896
  144.7648  140.4272  143.5950 H   0  0  0  0  0  0  0  0  0  0  0  0  # atno 7974 bound_to 7965
  156.1593  140.3143  155.8780 H   0  0  0  0  0  0  0  0  0  0  0  0  # atno 8008 bound_to 7997
  155.3814  140.0488  157.3060 H   0  0  0  0  0  0  0  0  0  0  0  0  # atno 8009 bound_to 7997
  154.5131  140.2172  155.9128 H   0  0  0  0  0  0  0  0  0  0  0  0  # atno 8010 bound_to 7997
  140.7153  143.5572  150.9235 H   0  0  0  0  0  0  0  0  0  0  0  0  # atno 10167 bound_to 10162
  156.4527  130.8175  151.2406 H   0  0  0  0  0  0  0  0  0  0  0  0  # atno 10718 bound_to 10713
  154.3070  135.6223  153.5449 H   0  0  0  0  0  0  0  0  0  0  0  0  # atno 10763 bound_to 10752
  152.9834  135.5692  154.5220 H   0  0  0  0  0  0  0  0  0  0  0  0  # atno 10764 bound_to 10752
  154.4862  135.2865  155.1509 H   0  0  0  0  0  0  0  0  0  0  0  0  # atno 10765 bound_to 10752
  141.0400  133.6784  156.2766 H   0  0  0  0  0  0  0  0  0  0  0  0  # atno 11005 bound_to 11000
  145.6505  139.1564  143.2865 LP  0  0  0  0  0  0  0  0  0  0  0  0  # atno 17320 bound_to 7965
  146.1745  140.6594  142.9218 LP  0  0  0  0  0  0  0  0  0  0  0  0  # atno 17321 bound_to 7965
  139.9297  143.6507  152.3079 LP  0  0  0  0  0  0  0  0  0  0  0  0  # atno 17342 bound_to 10162
  139.6954  144.7642  151.1366 LP  0  0  0  0  0  0  0  0  0  0  0  0  # atno 17343 bound_to 10162
  157.7502  131.0133  150.3417 LP  0  0  0  0  0  0  0  0  0  0  0  0  # atno 17370 bound_to 10713
  156.3799  130.3878  149.7109 LP  0  0  0  0  0  0  0  0  0  0  0  0  # atno 17371 bound_to 10713
  140.6253  134.5320  157.5553 LP  0  0  0  0  0  0  0  0  0  0  0  0  # atno 17394 bound_to 11000
  139.9268  134.8040  156.1045 LP  0  0  0  0  0  0  0  0  0  0  0  0  # atno 17395 bound_to 11000

$$$$
