AV-unprocessed.smi:2010|AV-procd|sdf|8151|dock5
  -GOLD-   2272010393D 1   1.00000     0.00000
 Structure written by MMmdl.
 40 41  0  0  0  0  0  0  0  0  2 V2000
  152.0628  145.0684  159.7577 C   0  0  0  0  0  0  0  0  0  0  0  0
  151.5519  143.6882  159.3208 C   0  0  0  0  0  0  0  0  0  0  0  0
  152.5646  142.5799  159.6402 C   0  0  0  0  0  0  0  0  0  0  0  0
  152.0482  141.2031  159.1929 C   0  0  0  0  0  0  0  0  0  0  0  0
  151.6898  141.1995  157.7585 N   0  0  0  0  0  0  0  0  0  0  0  0
  151.5568  139.6549  156.9635 S   0  0  0  0  0  0  0  0  0  0  0  0
  151.2933  139.9721  155.5514 O   0  0  0  0  0  0  0  0  0  0  0  0
  152.7878  138.9051  157.2687 O   0  0  0  0  0  0  0  0  0  0  0  0
  150.2321  139.0964  157.7347 N   0  5  0  0  0  0  0  0  0  0  0  0
  150.2602  137.8812  158.5499 C   0  0  2  0  0  0  0  0  0  0  0  0
  150.5710  136.6826  157.6396 C   0  0  0  0  0  0  0  0  0  0  0  0
  148.9448  137.7237  159.3626 C   0  0  0  0  0  0  0  0  0  0  0  0
  148.9348  136.6456  160.3487 N   0  0  0  0  0  0  0  0  0  0  0  0
  149.1405  135.2936  160.1485 C   0  0  0  0  0  0  0  0  0  0  0  0
  149.0669  134.6804  161.3661 C   0  0  0  0  0  0  0  0  0  0  0  0
  148.8271  135.7530  162.2690 C   0  0  0  0  0  0  0  0  0  0  0  0
  148.7625  136.9257  161.6617 N   0  0  0  0  0  0  0  0  0  0  0  0
  150.7356  142.2595  157.3808 C   0  0  0  0  0  0  0  0  0  0  0  0
  151.2389  143.6454  157.8185 C   0  0  0  0  0  0  0  0  0  0  0  0
  152.9882  145.3298  159.2437 H   0  0  0  0  0  0  0  0  0  0  0  0
  152.2591  145.0919  160.8300 H   0  0  0  0  0  0  0  0  0  0  0  0
  151.3293  145.8450  159.5395 H   0  0  0  0  0  0  0  0  0  0  0  0
  150.6318  143.4826  159.8696 H   0  0  0  0  0  0  0  0  0  0  0  0
  153.5144  142.7898  159.1465 H   0  0  0  0  0  0  0  0  0  0  0  0
  152.7727  142.5596  160.7103 H   0  0  0  0  0  0  0  0  0  0  0  0
  152.8057  140.4465  159.3925 H   0  0  0  0  0  0  0  0  0  0  0  0
  151.1701  140.9215  159.7750 H   0  0  0  0  0  0  0  0  0  0  0  0
  151.0670  137.9265  159.2816 H   0  0  0  0  0  0  0  0  0  0  0  0
  150.5760  135.7524  158.2080 H   0  0  0  0  0  0  0  0  0  0  0  0
  151.5524  136.7882  157.1763 H   0  0  0  0  0  0  0  0  0  0  0  0
  149.8391  136.5808  156.8375 H   0  0  0  0  0  0  0  0  0  0  0  0
  148.7594  138.6518  159.9043 H   0  0  0  0  0  0  0  0  0  0  0  0
  148.0897  137.6046  158.6973 H   0  0  0  0  0  0  0  0  0  0  0  0
  149.3142  134.8860  159.1636 H   0  0  0  0  0  0  0  0  0  0  0  0
  149.1712  133.6271  161.5795 H   0  0  0  0  0  0  0  0  0  0  0  0
  148.7047  135.7157  163.3413 H   0  0  0  0  0  0  0  0  0  0  0  0
  150.5920  142.2630  156.3008 H   0  0  0  0  0  0  0  0  0  0  0  0
  149.7664  142.0412  157.8306 H   0  0  0  0  0  0  0  0  0  0  0  0
  150.4908  144.3991  157.5707 H   0  0  0  0  0  0  0  0  0  0  0  0
  152.1336  143.8997  157.2480 H   0  0  0  0  0  0  0  0  0  0  0  0
  1  2  1  0  0  0  0
  1 20  1  0  0  0  0
  1 21  1  0  0  0  0
  1 22  1  0  0  0  0
  2 19  1  0  0  0  0
  2  3  1  0  0  0  0
  2 23  1  0  0  0  0
  3  4  1  0  0  0  0
  3 24  1  0  0  0  0
  3 25  1  0  0  0  0
  4  5  1  0  0  0  0
  4 26  1  0  0  0  0
  4 27  1  0  0  0  0
  5  6  1  0  0  0  0
  5 18  1  0  0  0  0
  6  7  2  0  0  0  0
  6  8  2  0  0  0  0
  6  9  1  0  0  0  0
  9 10  1  0  0  0  0
 10 11  1  0  0  0  0
 10 12  1  0  0  0  0
 10 28  1  0  0  0  0
 11 29  1  0  0  0  0
 11 30  1  0  0  0  0
 11 31  1  0  0  0  0
 12 13  1  0  0  0  0
 12 32  1  0  0  0  0
 12 33  1  0  0  0  0
 13 17  1  0  0  0  0
 13 14  1  0  0  0  0
 14 15  2  0  0  0  0
 14 34  1  0  0  0  0
 15 16  1  0  0  0  0
 15 35  1  0  0  0  0
 16 17  2  0  0  0  0
 16 36  1  0  0  0  0
 18 19  1  0  0  0  0
 18 37  1  0  0  0  0
 18 38  1  0  0  0  0
 19 39  1  0  0  0  0
 19 40  1  0  0  0  0
M  CHG  1   9  -1
M  END
> <s_m_source_file>
AV-unprocessed.smi

> <i_m_source_file_index>
2010

> <i_lp_mmshare_version>
43012

> <i_f3d_flags>
0

> <s_epik_input>
W0NIM11bQ0hdMVtDSDJdW0NIMl1OKFtDSDJdW0NIMl0xKVMoPU8pKD1PKVtOSF1bQ0BIXShbQ0gzXSlbQ0gyXW4yW2NIXVtjSF1bY0hdbjI=

> <s_epik_cmdline>
J2VwaWtfcHl0aG9uJywgJy1waCcsICc3LjAnLCAnLXRuJywgJzgnLCAnLW1hJywgJzIwMCcsICctbWV0YWxfYmluZGluZycsICctaW1hZScsICc8aW5maWxlLm1hZT4nLCAnLW9tYWUnLCAnPG91dGZpbGUubWFlPic=

> <r_lp_tautomer_probability>
1

> <r_epik_Ionization_Penalty>
1.75622

> <r_epik_Ionization_Penalty_Charging>
1.7562

> <r_epik_Ionization_Penalty_Neutral>
2.39925e-05

> <r_epik_State_Penalty>
1.86645

> <r_epik_Charging_Adjusted_Penalty>
3.62264

> <i_epik_Tot_Q>
-1

> <i_epik_Tot_abs_Q>
1

> <r_epik_Metal_State_Penalty>
0.460135

> <b_epik_Metal_Only>
0

> <s_lp_Force_Field>
OPLS_2005

> <r_lp_Energy>
7.98706

> <b_lp_Chiralities_Consistent>
1

> <s_lp_Variant>
AV-unprocessed.smi:2010-3

> <Gold.Version>
5.8.1

> <Gold.Id.Protein>
6NUR|6NUR_protein|mol2

> <Gold.PLP.Fitness>
44.9955

> <Gold.PLP.PLP>
-34.5731

> <Gold.PLP.part.hbond>
-4.0000

> <Gold.PLP.part.metal>
0.0000

> <Gold.PLP.part.buried>
-4.9184

> <Gold.PLP.part.nonpolar>
-26.7381

> <Gold.PLP.part.repulsive>
0.0252

> <Gold.PLP.ligand.clash>
0.0000

> <Gold.PLP.ligand.torsion>
0.9654

> <Gold.PLP.Chemscore.Hbond>
3.5440

> <Gold.PLP.Chemscore.CHOScore>
0.0000

> <Gold.PLP.Chemscore.Metal>
0.0000

> <Gold.Chemscore.Hbonds>
donor molecule, donor type, donor heavy atom, donor atom, acceptor molecule, acceptor atom, score
      P1  H  6931  6943       L1    17  0.59
      P1  H  7989  7998       L1     7  0.42
      P1  H  7997  8010       L1     8  0.93

> <Gold.PLP.Chemscore.Internal.Correction>
1.7213

> <Gold.Rescore>
     Score         DG    S(hbond)    S(metal)    S(lipo)     H(rot)  DE(clash)    DE(int)     intcor
     19.33     -20.39       2.67        0.00      84.93       1.54       0.01       1.05       ----

> <Gold.Chemscore.Fitness>
19.3325

> <Gold.Chemscore.DG>
-20.3860

> <Gold.Chemscore.ZeroCoef>
-5.4800

> <Gold.Chemscore.Hbond>
2.6663

> <Gold.Chemscore.Metal>
0.0000

> <Gold.Chemscore.Lipo>
84.9313

> <Gold.Chemscore.Internal_Hbond>
0.0000

> <Gold.Chemscore.DEClash>
0.0063

> <Gold.Chemscore.DEInternal>
1.0471

> <Gold.Chemscore.Rot>
1.5377

> <Gold.Chemscore.Internal.Correction>
   9.000000E+99

> <Gold.Chemscore.Hbonds>
donor molecule, donor type, donor heavy atom, donor atom, acceptor molecule, acceptor atom, score
      P1  H  6931  6943       L1    17  0.46
      P1  H  7989  7998       L1     7  0.40
      P1  H  7997  8010       L1     8  0.62

> <Gold.Chemscore.Hbond.Weighted>
-8.9055

> <Gold.Chemscore.Metal.Weighted>
-0.0000

> <Gold.Chemscore.Lipo.Weighted>
-9.9370

> <Gold.Chemscore.Internal_Hbond.Weighted>
0.0000

> <Gold.Chemscore.DEClash.Weighted>
0.0063

> <Gold.Chemscore.DEInternal.Weighted>
1.0471

> <Gold.Chemscore.Rot.Weighted>
3.9365

> <Gold.Chemscore.Internal.Correction.Weighted>
   9.000000E+99

> <Gold.Protein.RotatedTorsions>
[ 6907 6896 6895 6894 ] final  145.90 input  -60.11 | X-H torsion
[ 7974 7965 7964 7962 ] final   85.36 input  175.53 | X-H torsion
[ 8008 7997 7996 7995 ] final   54.04 input   59.86 | X-H torsion
[ 10167 10162 10161 10158 ] final -145.84 input  -65.29 | X-H torsion
[ 10718 10713 10712 10709 ] final   36.33 input   66.30 | X-H torsion
[ 10763 10752 10751 10750 ] final -128.73 input  -60.55 | X-H torsion
[ 11005 11000 10999 10996 ] final -169.36 input  -57.11 | X-H torsion

> <Gold.Protein.ActiveResidues>
 VAL166  LYS551  ARG553  GLY616  TRP617  ASP618  TYR619  PRO620  LYS621  CYS622 
 ASP623  PHE694  ASN695  SER759  ASP760  ASP761  ALA762  ILE779  LEU786  VAL792 
 PHE793  MET794  SER795  GLU796  ALA797  LYS798  CYS799  TRP800  GLU811  SER814 

> <Gold.Protein.RotatedAtoms>
  152.1749  133.4668  159.4927 H   0  0  0  0  0  0  0  0  0  0  0  0  # atno 6907 bound_to 6896
  150.6925  134.1907  159.4293 H   0  0  0  0  0  0  0  0  0  0  0  0  # atno 6908 bound_to 6896
  151.9815  135.0026  160.0608 H   0  0  0  0  0  0  0  0  0  0  0  0  # atno 6909 bound_to 6896
  145.5866  139.2332  143.2323 H   0  0  0  0  0  0  0  0  0  0  0  0  # atno 7974 bound_to 7965
  155.4782  140.3467  155.4336 H   0  0  0  0  0  0  0  0  0  0  0  0  # atno 8008 bound_to 7997
  156.1057  140.1447  156.9436 H   0  0  0  0  0  0  0  0  0  0  0  0  # atno 8009 bound_to 7997
  154.4722  140.0897  156.7152 H   0  0  0  0  0  0  0  0  0  0  0  0  # atno 8010 bound_to 7997
  139.7769  143.8157  152.2633 H   0  0  0  0  0  0  0  0  0  0  0  0  # atno 10167 bound_to 10162
  157.3335  130.7510  149.6863 H   0  0  0  0  0  0  0  0  0  0  0  0  # atno 10718 bound_to 10713
  154.8757  135.3919  154.3805 H   0  0  0  0  0  0  0  0  0  0  0  0  # atno 10763 bound_to 10752
  153.4553  135.7028  153.6089 H   0  0  0  0  0  0  0  0  0  0  0  0  # atno 10764 bound_to 10752
  153.4611  135.3812  155.2307 H   0  0  0  0  0  0  0  0  0  0  0  0  # atno 10765 bound_to 10752
  140.5316  134.5611  157.5076 H   0  0  0  0  0  0  0  0  0  0  0  0  # atno 11005 bound_to 11000
  146.1677  140.6692  142.9247 LP  0  0  0  0  0  0  0  0  0  0  0  0  # atno 17320 bound_to 7965
  144.7370  140.4836  143.6897 LP  0  0  0  0  0  0  0  0  0  0  0  0  # atno 17321 bound_to 7965
  139.8208  144.7296  150.9575 LP  0  0  0  0  0  0  0  0  0  0  0  0  # atno 17342 bound_to 10162
  140.7817  143.4161  151.0916 LP  0  0  0  0  0  0  0  0  0  0  0  0  # atno 17343 bound_to 10162
  155.9698  130.4188  150.4346 LP  0  0  0  0  0  0  0  0  0  0  0  0  # atno 17370 bound_to 10713
  157.2382  131.0519  151.2452 LP  0  0  0  0  0  0  0  0  0  0  0  0  # atno 17371 bound_to 10713
  139.9551  134.7548  156.0359 LP  0  0  0  0  0  0  0  0  0  0  0  0  # atno 17394 bound_to 11000
  141.1278  133.6594  156.3384 LP  0  0  0  0  0  0  0  0  0  0  0  0  # atno 17395 bound_to 11000

$$$$
