AV-unprocessed.smi:828|AV-procd|sdf|3861|dock3
  -GOLD-   22720 1313D 1   1.00000     0.00000
 Structure written by MMmdl.
 35 36  0  0  0  0  0  0  0  0  2 V2000
  150.9739  142.8511  156.0179 C   0  0  0  0  0  0  0  0  0  0  0  0
  150.6180  141.5775  155.3297 C   0  0  0  0  0  0  0  0  0  0  0  0
  151.4617  140.5424  155.2352 N   0  0  0  0  0  0  0  0  0  0  0  0
  150.9065  139.4718  154.5483 N   0  0  0  0  0  0  0  0  0  0  0  0
  149.6549  139.7315  154.1456 C   0  0  0  0  0  0  0  0  0  0  0  0
  148.8549  138.8138  153.4143 N   0  0  0  0  0  0  0  0  0  0  0  0
  147.5718  138.9468  153.0345 C   0  0  0  0  0  0  0  0  0  0  0  0
  146.8701  139.9394  153.2292 O   0  0  0  0  0  0  0  0  0  0  0  0
  147.1322  137.8437  152.4109 N   0  0  0  0  0  0  0  0  0  0  0  0
  145.7814  137.6463  151.8919 C   0  0  0  0  0  0  0  0  0  0  0  0
  145.2958  136.1941  152.0801 C   0  0  1  0  0  0  0  0  0  0  0  0
  144.9574  135.4651  150.7747 C   0  0  0  0  0  0  0  0  0  0  0  0
  145.0863  133.9983  151.1572 C   0  0  0  0  0  0  0  0  0  0  0  0
  146.2547  133.9908  152.1446 C   0  0  0  0  0  0  0  0  0  0  0  0
  146.3252  135.3498  152.7342 N   0  3  2  0  0  0  0  0  0  0  0  0
  146.2704  135.3600  154.2126 C   0  0  0  0  0  0  0  0  0  0  0  0
  149.0479  141.3211  154.5781 S   0  0  0  0  0  0  0  0  0  0  0  0
  152.0266  142.8543  156.3028 H   0  0  0  0  0  0  0  0  0  0  0  0
  150.3677  142.9707  156.9157 H   0  0  0  0  0  0  0  0  0  0  0  0
  150.7898  143.6969  155.3553 H   0  0  0  0  0  0  0  0  0  0  0  0
  149.3076  137.9448  153.1723 H   0  0  0  0  0  0  0  0  0  0  0  0
  147.7800  137.0784  152.2912 H   0  0  0  0  0  0  0  0  0  0  0  0
  145.0823  138.3474  152.3516 H   0  0  0  0  0  0  0  0  0  0  0  0
  145.8023  137.8947  150.8306 H   0  0  0  0  0  0  0  0  0  0  0  0
  144.3997  136.1906  152.7040 H   0  0  0  0  0  0  0  0  0  0  0  0
  143.9676  135.7153  150.3915 H   0  0  0  0  0  0  0  0  0  0  0  0
  145.6896  135.7055  150.0022 H   0  0  0  0  0  0  0  0  0  0  0  0
  144.1750  133.6678  151.6577 H   0  0  0  0  0  0  0  0  0  0  0  0
  145.2530  133.3476  150.2984 H   0  0  0  0  0  0  0  0  0  0  0  0
  146.1356  133.2066  152.8941 H   0  0  0  0  0  0  0  0  0  0  0  0
  147.1916  133.8016  151.6192 H   0  0  0  0  0  0  0  0  0  0  0  0
  145.3281  134.9459  154.5738 H   0  0  0  0  0  0  0  0  0  0  0  0
  146.3684  136.3758  154.5962 H   0  0  0  0  0  0  0  0  0  0  0  0
  147.0859  134.7661  154.6265 H   0  0  0  0  0  0  0  0  0  0  0  0
  147.2234  135.7251  152.4639 H   0  0  0  0  0  0  0  0  0  0  0  0
  1  2  1  0  0  0  0
  1 18  1  0  0  0  0
  1 19  1  0  0  0  0
  1 20  1  0  0  0  0
  2 17  1  0  0  0  0
  2  3  2  0  0  0  0
  3  4  1  0  0  0  0
  4  5  2  0  0  0  0
  5  6  1  0  0  0  0
  5 17  1  0  0  0  0
  6  7  1  0  0  0  0
  6 21  1  0  0  0  0
  7  8  2  0  0  0  0
  7  9  1  0  0  0  0
  9 10  1  0  0  0  0
  9 22  1  0  0  0  0
 10 11  1  0  0  0  0
 10 23  1  0  0  0  0
 10 24  1  0  0  0  0
 11 15  1  0  0  0  0
 11 12  1  0  0  0  0
 11 25  1  0  0  0  0
 12 13  1  0  0  0  0
 12 26  1  0  0  0  0
 12 27  1  0  0  0  0
 13 14  1  0  0  0  0
 13 28  1  0  0  0  0
 13 29  1  0  0  0  0
 14 15  1  0  0  0  0
 14 30  1  0  0  0  0
 14 31  1  0  0  0  0
 15 16  1  0  0  0  0
 15 35  1  0  0  0  0
 16 32  1  0  0  0  0
 16 33  1  0  0  0  0
 16 34  1  0  0  0  0
M  CHG  1  15   1
M  END
> <s_m_source_file>
AV-unprocessed.smi

> <i_m_source_file_index>
828

> <i_lp_mmshare_version>
43012

> <i_f3d_flags>
0

> <s_epik_input>
W0NIM11jMW5uYyhzMSlbTkhdQyg9TylbTkhdW0NIMl1bQ0BASF0yW0NIMl1bQ0gyXVtDSDJdTjJbQ0gzXQ==

> <s_epik_cmdline>
J2VwaWtfcHl0aG9uJywgJy1waCcsICc3LjAnLCAnLXRuJywgJzgnLCAnLW1hJywgJzIwMCcsICctbWV0YWxfYmluZGluZycsICctaW1hZScsICc8aW5maWxlLm1hZT4nLCAnLW9tYWUnLCAnPG91dGZpbGUubWFlPic=

> <r_lp_tautomer_probability>
1

> <r_epik_Ionization_Penalty>
0.00466477

> <r_epik_Ionization_Penalty_Charging>
0.00372199

> <r_epik_Ionization_Penalty_Neutral>
0.000942783

> <r_epik_State_Penalty>
-0

> <r_epik_Charging_Adjusted_Penalty>
0.00372199

> <i_epik_Tot_Q>
1

> <i_epik_Tot_abs_Q>
1

> <r_epik_Metal_State_Penalty>
0.28212

> <b_epik_Metal_Only>
0

> <s_lp_Force_Field>
OPLS_2005

> <r_lp_Energy>
24.9421

> <b_lp_Chiralities_Consistent>
1

> <s_lp_Variant>
AV-unprocessed.smi:828-4

> <Gold.Version>
5.8.1

> <Gold.Id.Protein>
6NUR|6NUR_protein|mol2

> <Gold.PLP.Fitness>
40.0531

> <Gold.PLP.PLP>
-30.1725

> <Gold.PLP.part.hbond>
-6.0000

> <Gold.PLP.part.metal>
0.0000

> <Gold.PLP.part.buried>
-3.2196

> <Gold.PLP.part.nonpolar>
-21.9536

> <Gold.PLP.part.repulsive>
0.4411

> <Gold.PLP.ligand.clash>
0.0000

> <Gold.PLP.ligand.torsion>
0.9176

> <Gold.PLP.Chemscore.Hbond>
3.9040

> <Gold.PLP.Chemscore.CHOScore>
0.0000

> <Gold.PLP.Chemscore.Metal>
0.0000

> <Gold.Chemscore.Hbonds>
donor molecule, donor type, donor heavy atom, donor atom, acceptor molecule, acceptor atom, score
      L1  H     6    21       P1  7948  0.55
      L1  H     9    22       P1  7948  0.91
      L1  H    15    35       P1  7948  2.00

> <Gold.PLP.Chemscore.Internal.Correction>
0.0037

> <Gold.Rescore>
     Score         DG    S(hbond)    S(metal)    S(lipo)     H(rot)  DE(clash)    DE(int)     intcor
     15.73     -17.83       2.87        0.00      52.73       1.33       0.02       2.08       ----

> <Gold.Chemscore.Fitness>
15.7271

> <Gold.Chemscore.DG>
-17.8306

> <Gold.Chemscore.ZeroCoef>
-5.4800

> <Gold.Chemscore.Hbond>
2.8696

> <Gold.Chemscore.Metal>
0.0000

> <Gold.Chemscore.Lipo>
52.7314

> <Gold.Chemscore.Internal_Hbond>
0.0000

> <Gold.Chemscore.DEClash>
0.0207

> <Gold.Chemscore.DEInternal>
2.0829

> <Gold.Chemscore.Rot>
1.3294

> <Gold.Chemscore.Internal.Correction>
   9.000000E+99

> <Gold.Chemscore.Hbonds>
donor molecule, donor type, donor heavy atom, donor atom, acceptor molecule, acceptor atom, score
      L1  H     6    21       P1  7948  0.52
      L1  H     9    22       P1  7948  0.88
      L1  H    15    35       P1  7948  1.00

> <Gold.Chemscore.Hbond.Weighted>
-9.5843

> <Gold.Chemscore.Metal.Weighted>
-0.0000

> <Gold.Chemscore.Lipo.Weighted>
-6.1696

> <Gold.Chemscore.Internal_Hbond.Weighted>
0.0000

> <Gold.Chemscore.DEClash.Weighted>
0.0207

> <Gold.Chemscore.DEInternal.Weighted>
2.0829

> <Gold.Chemscore.Rot.Weighted>
3.4033

> <Gold.Chemscore.Internal.Correction.Weighted>
   9.000000E+99

> <Gold.Protein.RotatedTorsions>
[ 6907 6896 6895 6894 ] final -121.88 input  -60.11 | X-H torsion
[ 7974 7965 7964 7962 ] final  -91.11 input  175.53 | X-H torsion
[ 8008 7997 7996 7995 ] final    6.80 input   59.86 | X-H torsion
[ 10167 10162 10161 10158 ] final   23.96 input  -65.29 | X-H torsion
[ 10718 10713 10712 10709 ] final   54.75 input   66.30 | X-H torsion
[ 10763 10752 10751 10750 ] final  166.32 input  -60.55 | X-H torsion
[ 11005 11000 10999 10996 ] final   70.62 input  -57.11 | X-H torsion

> <Gold.Protein.ActiveResidues>
 VAL166  LYS551  ARG553  GLY616  TRP617  ASP618  TYR619  PRO620  LYS621  CYS622 
 ASP623  PHE694  ASN695  SER759  ASP760  ASP761  ALA762  ILE779  LEU786  VAL792 
 PHE793  MET794  SER795  GLU796  ALA797  LYS798  CYS799  TRP800  GLU811  SER814 

> <Gold.Protein.RotatedAtoms>
  150.8524  133.7766  159.3020 H   0  0  0  0  0  0  0  0  0  0  0  0  # atno 6907 bound_to 6896
  151.5434  135.1066  159.9941 H   0  0  0  0  0  0  0  0  0  0  0  0  # atno 6908 bound_to 6896
  152.4563  133.7687  159.6843 H   0  0  0  0  0  0  0  0  0  0  0  0  # atno 6909 bound_to 6896
  145.4174  140.9549  143.2200 H   0  0  0  0  0  0  0  0  0  0  0  0  # atno 7974 bound_to 7965
  154.7456  140.2757  155.6335 H   0  0  0  0  0  0  0  0  0  0  0  0  # atno 8008 bound_to 7997
  156.2884  140.2688  156.2122 H   0  0  0  0  0  0  0  0  0  0  0  0  # atno 8009 bound_to 7997
  155.0202  140.0371  157.2424 H   0  0  0  0  0  0  0  0  0  0  0  0  # atno 8010 bound_to 7997
  140.5227  143.9976  150.6425 H   0  0  0  0  0  0  0  0  0  0  0  0  # atno 10167 bound_to 10162
  157.5285  130.8613  149.8654 H   0  0  0  0  0  0  0  0  0  0  0  0  # atno 10718 bound_to 10713
  154.3372  135.2754  155.2441 H   0  0  0  0  0  0  0  0  0  0  0  0  # atno 10763 bound_to 10752
  154.4727  135.5879  153.6337 H   0  0  0  0  0  0  0  0  0  0  0  0  # atno 10764 bound_to 10752
  152.9861  135.6092  154.3570 H   0  0  0  0  0  0  0  0  0  0  0  0  # atno 10765 bound_to 10752
  139.9588  134.7097  156.0693 H   0  0  0  0  0  0  0  0  0  0  0  0  # atno 11005 bound_to 11000
  144.8268  139.5697  143.6962 LP  0  0  0  0  0  0  0  0  0  0  0  0  # atno 17320 bound_to 7965
  146.2674  139.6552  142.9320 LP  0  0  0  0  0  0  0  0  0  0  0  0  # atno 17321 bound_to 7965
  140.3329  143.3066  152.0668 LP  0  0  0  0  0  0  0  0  0  0  0  0  # atno 17342 bound_to 10162
  139.4928  144.6496  151.6703 LP  0  0  0  0  0  0  0  0  0  0  0  0  # atno 17343 bound_to 10162
  156.0404  130.3740  150.1449 LP  0  0  0  0  0  0  0  0  0  0  0  0  # atno 17370 bound_to 10713
  156.9635  130.9812  151.3474 LP  0  0  0  0  0  0  0  0  0  0  0  0  # atno 17371 bound_to 10713
  141.1263  133.6598  156.3345 LP  0  0  0  0  0  0  0  0  0  0  0  0  # atno 17394 bound_to 11000
  140.5548  134.5992  157.5417 LP  0  0  0  0  0  0  0  0  0  0  0  0  # atno 17395 bound_to 11000

$$$$
