AV-unprocessed.smi:1433|AV-procd|sdf|5847|dock3
  -GOLD-   22720 5513D 1   1.00000     0.00000
 Structure written by MMmdl.
 45 46  0  0  0  0  0  0  0  0  2 V2000
  152.1067  145.1188  159.2096 C   0  0  0  0  0  0  0  0  0  0  0  0
  152.4218  143.6246  159.0772 C   0  0  2  0  0  0  0  0  0  0  0  0
  151.1747  142.7975  158.7159 C   0  0  0  0  0  0  0  0  0  0  0  0
  151.4908  141.3444  158.6520 N   0  3  2  0  0  0  0  0  0  0  0  0
  150.3181  140.5202  158.2094 C   0  0  1  0  0  0  0  0  0  0  0  0
  149.9868  140.8143  156.7273 C   0  0  0  0  0  0  0  0  0  0  0  0
  150.5082  138.9914  158.4268 C   0  0  0  0  0  0  0  0  0  0  0  0
  149.2530  138.2995  158.7000 N   0  0  0  0  0  0  0  0  0  0  0  0
  149.1370  136.9908  158.9734 C   0  0  0  0  0  0  0  0  0  0  0  0
  150.0878  136.2094  158.9670 O   0  0  0  0  0  0  0  0  0  0  0  0
  147.7362  136.4932  159.3293 C   0  0  0  0  0  0  0  0  0  0  0  0
  147.6711  136.0892  160.7228 N   0  0  0  0  0  0  0  0  0  0  0  0
  147.5300  134.8183  161.2401 C   0  0  0  0  0  0  0  0  0  0  0  0
  147.5348  134.9305  162.6009 C   0  0  0  0  0  0  0  0  0  0  0  0
  147.6858  136.3274  162.8248 C   0  0  0  0  0  0  0  0  0  0  0  0
  147.7699  137.0185  161.6993 N   0  0  0  0  0  0  0  0  0  0  0  0
  152.1293  140.9215  159.9288 C   0  0  0  0  0  0  0  0  0  0  0  0
  153.3411  141.8100  160.2701 C   0  0  2  0  0  0  0  0  0  0  0  0
  153.9590  141.4460  161.6249 C   0  0  0  0  0  0  0  0  0  0  0  0
  152.9294  143.1688  160.3233 O   0  0  0  0  0  0  0  0  0  0  0  0
  151.7187  145.5233  158.2744 H   0  0  0  0  0  0  0  0  0  0  0  0
  153.0022  145.6841  159.4690 H   0  0  0  0  0  0  0  0  0  0  0  0
  151.3630  145.2990  159.9865 H   0  0  0  0  0  0  0  0  0  0  0  0
  153.1845  143.4993  158.3065 H   0  0  0  0  0  0  0  0  0  0  0  0
  150.3905  142.9647  159.4562 H   0  0  0  0  0  0  0  0  0  0  0  0
  150.7893  143.1553  157.7631 H   0  0  0  0  0  0  0  0  0  0  0  0
  149.4632  140.8245  158.8154 H   0  0  0  0  0  0  0  0  0  0  0  0
  149.1175  140.2530  156.3847 H   0  0  0  0  0  0  0  0  0  0  0  0
  150.8229  140.5512  156.0787 H   0  0  0  0  0  0  0  0  0  0  0  0
  149.7484  141.8615  156.5501 H   0  0  0  0  0  0  0  0  0  0  0  0
  150.9552  138.5378  157.5416 H   0  0  0  0  0  0  0  0  0  0  0  0
  151.1793  138.7850  159.2616 H   0  0  0  0  0  0  0  0  0  0  0  0
  148.4155  138.8635  158.7303 H   0  0  0  0  0  0  0  0  0  0  0  0
  146.9977  137.2739  159.1393 H   0  0  0  0  0  0  0  0  0  0  0  0
  147.4722  135.6405  158.7022 H   0  0  0  0  0  0  0  0  0  0  0  0
  147.4408  133.9501  160.6036 H   0  0  0  0  0  0  0  0  0  0  0  0
  147.4440  134.1356  163.3264 H   0  0  0  0  0  0  0  0  0  0  0  0
  147.7381  136.8559  163.7653 H   0  0  0  0  0  0  0  0  0  0  0  0
  151.3925  140.9571  160.7332 H   0  0  0  0  0  0  0  0  0  0  0  0
  152.4910  139.8964  159.8570 H   0  0  0  0  0  0  0  0  0  0  0  0
  154.1069  141.6970  159.5005 H   0  0  0  0  0  0  0  0  0  0  0  0
  154.3026  140.4113  161.6352 H   0  0  0  0  0  0  0  0  0  0  0  0
  153.2378  141.5672  162.4338 H   0  0  0  0  0  0  0  0  0  0  0  0
  154.8167  142.0817  161.8457 H   0  0  0  0  0  0  0  0  0  0  0  0
  152.1992  141.2295  157.9413 H   0  0  0  0  0  0  0  0  0  0  0  0
  1  2  1  0  0  0  0
  1 21  1  0  0  0  0
  1 22  1  0  0  0  0
  1 23  1  0  0  0  0
  2 20  1  0  0  0  0
  2  3  1  0  0  0  0
  2 24  1  0  0  0  0
  3  4  1  0  0  0  0
  3 25  1  0  0  0  0
  3 26  1  0  0  0  0
  4  5  1  0  0  0  0
  4 17  1  0  0  0  0
  4 45  1  0  0  0  0
  5  6  1  0  0  0  0
  5  7  1  0  0  0  0
  5 27  1  0  0  0  0
  6 28  1  0  0  0  0
  6 29  1  0  0  0  0
  6 30  1  0  0  0  0
  7  8  1  0  0  0  0
  7 31  1  0  0  0  0
  7 32  1  0  0  0  0
  8  9  1  0  0  0  0
  8 33  1  0  0  0  0
  9 10  2  0  0  0  0
  9 11  1  0  0  0  0
 11 12  1  0  0  0  0
 11 34  1  0  0  0  0
 11 35  1  0  0  0  0
 12 16  1  0  0  0  0
 12 13  1  0  0  0  0
 13 14  2  0  0  0  0
 13 36  1  0  0  0  0
 14 15  1  0  0  0  0
 14 37  1  0  0  0  0
 15 16  2  0  0  0  0
 15 38  1  0  0  0  0
 17 18  1  0  0  0  0
 17 39  1  0  0  0  0
 17 40  1  0  0  0  0
 18 19  1  0  0  0  0
 18 20  1  0  0  0  0
 18 41  1  0  0  0  0
 19 42  1  0  0  0  0
 19 43  1  0  0  0  0
 19 44  1  0  0  0  0
M  CHG  1   4   1
M  END
> <s_m_source_file>
AV-unprocessed.smi

> <i_m_source_file_index>
1433

> <i_lp_mmshare_version>
43012

> <i_f3d_flags>
0

> <s_epik_input>
W0NIM11bQ0BASF0xW0NIMl1OKFtDSDJdW0NASF0oTzEpW0NIM10pW0NASF0oW0NIM10pW0NIMl1bTkhdQyg9TylbQ0gyXW4yW2NIXVtjSF1bY0hdbjI=

> <s_epik_cmdline>
J2VwaWtfcHl0aG9uJywgJy1waCcsICc3LjAnLCAnLXRuJywgJzgnLCAnLW1hJywgJzIwMCcsICctbWV0YWxfYmluZGluZycsICctaW1hZScsICc8aW5maWxlLm1hZT4nLCAnLW9tYWUnLCAnPG91dGZpbGUubWFlPic=

> <r_lp_tautomer_probability>
1

> <r_epik_Ionization_Penalty>
0.748405

> <r_epik_Ionization_Penalty_Charging>
0.748396

> <r_epik_Ionization_Penalty_Neutral>
8.54426e-06

> <r_epik_State_Penalty>
0.775162

> <r_epik_Charging_Adjusted_Penalty>
1.52356

> <i_epik_Tot_Q>
1

> <i_epik_Tot_abs_Q>
1

> <r_epik_Metal_State_Penalty>
0.775167

> <b_epik_Metal_Only>
0

> <s_lp_Force_Field>
OPLS_2005

> <r_lp_Energy>
17.7412

> <b_lp_Chiralities_Consistent>
1

> <s_lp_Variant>
AV-unprocessed.smi:1433-13

> <Gold.Version>
5.8.1

> <Gold.Id.Protein>
6NUR|6NUR_protein|mol2

> <Gold.PLP.Fitness>
51.7845

> <Gold.PLP.PLP>
-44.9157

> <Gold.PLP.part.hbond>
-3.0000

> <Gold.PLP.part.metal>
0.0000

> <Gold.PLP.part.buried>
-6.1070

> <Gold.PLP.part.nonpolar>
-35.7630

> <Gold.PLP.part.repulsive>
0.2924

> <Gold.PLP.ligand.clash>
0.0000

> <Gold.PLP.ligand.torsion>
0.6869

> <Gold.PLP.Chemscore.Hbond>
2.7200

> <Gold.PLP.Chemscore.CHOScore>
0.0000

> <Gold.PLP.Chemscore.Metal>
0.0000

> <Gold.Chemscore.Hbonds>
donor molecule, donor type, donor heavy atom, donor atom, acceptor molecule, acceptor atom, score
      P1  H  6896  6909       L1    10  1.00
      P1  H  6931  6943       L1    16  1.00
      P1  H  6934  6947       L1    16  0.39

> <Gold.PLP.Chemscore.Internal.Correction>
0.0826

> <Gold.Rescore>
     Score         DG    S(hbond)    S(metal)    S(lipo)     H(rot)  DE(clash)    DE(int)     intcor
     19.44     -20.30       2.20        0.00     104.62       1.87       0.00       0.86       ----

> <Gold.Chemscore.Fitness>
19.4430

> <Gold.Chemscore.DG>
-20.2983

> <Gold.Chemscore.ZeroCoef>
-5.4800

> <Gold.Chemscore.Hbond>
2.2017

> <Gold.Chemscore.Metal>
0.0000

> <Gold.Chemscore.Lipo>
104.6214

> <Gold.Chemscore.Internal_Hbond>
0.0000

> <Gold.Chemscore.DEClash>
0.0000

> <Gold.Chemscore.DEInternal>
0.8553

> <Gold.Chemscore.Rot>
1.8657

> <Gold.Chemscore.Internal.Correction>
   9.000000E+99

> <Gold.Chemscore.Hbonds>
donor molecule, donor type, donor heavy atom, donor atom, acceptor molecule, acceptor atom, score
      P1  H  6896  6909       L1    10  1.00
      P1  H  6931  6943       L1    16  0.65
      P1  H  6934  6947       L1    16  0.31

> <Gold.Chemscore.Hbond.Weighted>
-7.3537

> <Gold.Chemscore.Metal.Weighted>
-0.0000

> <Gold.Chemscore.Lipo.Weighted>
-12.2407

> <Gold.Chemscore.Internal_Hbond.Weighted>
0.0000

> <Gold.Chemscore.DEClash.Weighted>
0.0000

> <Gold.Chemscore.DEInternal.Weighted>
0.8553

> <Gold.Chemscore.Rot.Weighted>
4.7761

> <Gold.Chemscore.Internal.Correction.Weighted>
   9.000000E+99

> <Gold.Protein.RotatedTorsions>
[ 6907 6896 6895 6894 ] final   78.03 input  -60.11 | X-H torsion
[ 7974 7965 7964 7962 ] final -115.11 input  175.53 | X-H torsion
[ 8008 7997 7996 7995 ] final  -77.53 input   59.86 | X-H torsion
[ 10167 10162 10161 10158 ] final -176.12 input  -65.29 | X-H torsion
[ 10718 10713 10712 10709 ] final  161.62 input   66.30 | X-H torsion
[ 10763 10752 10751 10750 ] final  140.58 input  -60.55 | X-H torsion
[ 11005 11000 10999 10996 ] final -114.75 input  -57.11 | X-H torsion

> <Gold.Protein.ActiveResidues>
 VAL166  LYS551  ARG553  GLY616  TRP617  ASP618  TYR619  PRO620  LYS621  CYS622 
 ASP623  PHE694  ASN695  SER759  ASP760  ASP761  ALA762  ILE779  LEU786  VAL792 
 PHE793  MET794  SER795  GLU796  ALA797  LYS798  CYS799  TRP800  GLU811  SER814 

> <Gold.Protein.RotatedAtoms>
  152.5142  134.3727  159.9323 H   0  0  0  0  0  0  0  0  0  0  0  0  # atno 6907 bound_to 6896
  151.3682  133.3858  159.2704 H   0  0  0  0  0  0  0  0  0  0  0  0  # atno 6908 bound_to 6896
  150.9598  134.9007  159.7782 H   0  0  0  0  0  0  0  0  0  0  0  0  # atno 6909 bound_to 6896
  145.1123  140.8619  143.3863 H   0  0  0  0  0  0  0  0  0  0  0  0  # atno 7974 bound_to 7965
  154.5604  140.0709  156.8810 H   0  0  0  0  0  0  0  0  0  0  0  0  # atno 8008 bound_to 7997
  155.2822  140.3372  155.4239 H   0  0  0  0  0  0  0  0  0  0  0  0  # atno 8009 bound_to 7997
  156.2038  140.1732  156.7830 H   0  0  0  0  0  0  0  0  0  0  0  0  # atno 8010 bound_to 7997
  139.5546  144.2022  152.1137 H   0  0  0  0  0  0  0  0  0  0  0  0  # atno 10167 bound_to 10162
  157.1340  131.0524  151.2358 H   0  0  0  0  0  0  0  0  0  0  0  0  # atno 10718 bound_to 10713
  153.9250  135.2996  155.3447 H   0  0  0  0  0  0  0  0  0  0  0  0  # atno 10763 bound_to 10752
  154.7556  135.4959  153.9371 H   0  0  0  0  0  0  0  0  0  0  0  0  # atno 10764 bound_to 10752
  153.1121  135.6762  153.9585 H   0  0  0  0  0  0  0  0  0  0  0  0  # atno 10765 bound_to 10752
  141.0532  133.9654  157.2800 H   0  0  0  0  0  0  0  0  0  0  0  0  # atno 11005 bound_to 11000
  145.0833  139.2943  143.5772 LP  0  0  0  0  0  0  0  0  0  0  0  0  # atno 17320 bound_to 7965
  146.3525  140.0347  142.8647 LP  0  0  0  0  0  0  0  0  0  0  0  0  # atno 17321 bound_to 7965
  140.1524  144.5102  150.6680 LP  0  0  0  0  0  0  0  0  0  0  0  0  # atno 17342 bound_to 10162
  140.6816  143.2329  151.5369 LP  0  0  0  0  0  0  0  0  0  0  0  0  # atno 17343 bound_to 10162
  157.4367  130.7521  149.7035 LP  0  0  0  0  0  0  0  0  0  0  0  0  # atno 17370 bound_to 10713
  155.9802  130.4032  150.3543 LP  0  0  0  0  0  0  0  0  0  0  0  0  # atno 17371 bound_to 10713
  139.9367  135.0195  156.8580 LP  0  0  0  0  0  0  0  0  0  0  0  0  # atno 17394 bound_to 11000
  140.6015  134.0167  155.7539 LP  0  0  0  0  0  0  0  0  0  0  0  0  # atno 17395 bound_to 11000

$$$$
