AV-unprocessed.smi:337|AV-procd|sdf|2373|dock5
  -GOLD-   2262022293D 1   1.00000     0.00000
 Structure written by MMmdl.
 43 44  0  0  0  0  0  0  0  0  1 V2000
  148.5346  135.2191  156.7839 C   0  0  0  0  0  0  0  0  0  0  0  0
  149.4568  135.6882  155.6463 C   0  0  1  0  0  0  0  0  0  0  0  0
  148.9663  135.1176  154.3921 N   0  0  0  0  0  0  0  0  0  0  0  0
  148.5143  133.8631  154.2427 C   0  0  0  0  0  0  0  0  0  0  0  0
  148.1637  133.5960  152.9844 N   0  0  0  0  0  0  0  0  0  0  0  0
  148.4313  133.0388  155.1515 O   0  0  0  0  0  0  0  0  0  0  0  0
  149.4161  137.2224  155.5786 C   0  0  0  0  0  0  0  0  0  0  0  0
  149.2719  137.8903  156.6039 O   0  0  0  0  0  0  0  0  0  0  0  0
  149.5314  137.7652  154.3571 N   0  0  0  0  0  0  0  0  0  0  0  0
  149.4115  139.1899  154.0662 C   0  0  0  0  0  0  0  0  0  0  0  0
  150.0329  140.0845  155.1301 C   0  0  0  0  0  0  0  0  0  0  0  0
  149.3738  141.2352  155.6114 C   0  0  0  0  0  0  0  0  0  0  0  0
  149.9944  142.0129  156.6065 C   0  0  0  0  0  0  0  0  0  0  0  0
  151.2638  141.6236  157.0956 C   0  0  0  0  0  0  0  0  0  0  0  0
  151.8956  142.3827  158.1043 N   0  0  0  0  0  0  0  0  0  0  0  0
  151.9894  141.8011  159.4418 C   0  0  0  0  0  0  0  0  0  0  0  0
  152.9386  142.6325  160.3213 C   0  0  0  0  0  0  0  0  0  0  0  0
  152.5063  143.9888  160.3437 O   0  0  0  0  0  0  0  0  0  0  0  0
  152.5251  144.5711  159.0445 C   0  0  0  0  0  0  0  0  0  0  0  0
  151.5672  143.8061  158.1148 C   0  0  0  0  0  0  0  0  0  0  0  0
  151.9034  140.5280  156.6159 N   0  0  0  0  0  0  0  0  0  0  0  0
  151.3020  139.7839  155.6635 C   0  0  0  0  0  0  0  0  0  0  0  0
  148.8579  135.6206  157.7450 H   0  0  0  0  0  0  0  0  0  0  0  0
  148.5439  134.1320  156.8680 H   0  0  0  0  0  0  0  0  0  0  0  0
  147.5002  135.5280  156.6247 H   0  0  0  0  0  0  0  0  0  0  0  0
  150.4747  135.3416  155.8365 H   0  0  0  0  0  0  0  0  0  0  0  0
  149.0007  135.7138  153.5783 H   0  0  0  0  0  0  0  0  0  0  0  0
  147.8011  132.6864  152.7396 H   0  0  0  0  0  0  0  0  0  0  0  0
  148.2578  134.3125  152.2791 H   0  0  0  0  0  0  0  0  0  0  0  0
  149.6529  137.1445  153.5698 H   0  0  0  0  0  0  0  0  0  0  0  0
  149.8527  139.4050  153.0913 H   0  0  0  0  0  0  0  0  0  0  0  0
  148.3520  139.4347  153.9884 H   0  0  0  0  0  0  0  0  0  0  0  0
  148.4052  141.5235  155.2302 H   0  0  0  0  0  0  0  0  0  0  0  0
  149.4973  142.8986  156.9727 H   0  0  0  0  0  0  0  0  0  0  0  0
  150.9966  141.7684  159.8929 H   0  0  0  0  0  0  0  0  0  0  0  0
  152.3560  140.7755  159.3827 H   0  0  0  0  0  0  0  0  0  0  0  0
  152.9428  142.2440  161.3398 H   0  0  0  0  0  0  0  0  0  0  0  0
  153.9641  142.5720  159.9530 H   0  0  0  0  0  0  0  0  0  0  0  0
  152.2200  145.6149  159.1197 H   0  0  0  0  0  0  0  0  0  0  0  0
  153.5411  144.5650  158.6461 H   0  0  0  0  0  0  0  0  0  0  0  0
  151.6203  144.2405  157.1174 H   0  0  0  0  0  0  0  0  0  0  0  0
  150.5387  143.9261  158.4582 H   0  0  0  0  0  0  0  0  0  0  0  0
  151.8505  138.9178  155.3231 H   0  0  0  0  0  0  0  0  0  0  0  0
  1  2  1  0  0  0  0
  1 23  1  0  0  0  0
  1 24  1  0  0  0  0
  1 25  1  0  0  0  0
  2  3  1  0  0  0  0
  2  7  1  0  0  0  0
  2 26  1  0  0  0  0
  3  4  1  0  0  0  0
  3 27  1  0  0  0  0
  4  5  1  0  0  0  0
  4  6  2  0  0  0  0
  5 28  1  0  0  0  0
  5 29  1  0  0  0  0
  7  8  2  0  0  0  0
  7  9  1  0  0  0  0
  9 10  1  0  0  0  0
  9 30  1  0  0  0  0
 10 11  1  0  0  0  0
 10 31  1  0  0  0  0
 10 32  1  0  0  0  0
 11 22  1  0  0  0  0
 11 12  2  0  0  0  0
 12 13  1  0  0  0  0
 12 33  1  0  0  0  0
 13 14  2  0  0  0  0
 13 34  1  0  0  0  0
 14 15  1  0  0  0  0
 14 21  1  0  0  0  0
 15 20  1  0  0  0  0
 15 16  1  0  0  0  0
 16 17  1  0  0  0  0
 16 35  1  0  0  0  0
 16 36  1  0  0  0  0
 17 18  1  0  0  0  0
 17 37  1  0  0  0  0
 17 38  1  0  0  0  0
 18 19  1  0  0  0  0
 19 20  1  0  0  0  0
 19 39  1  0  0  0  0
 19 40  1  0  0  0  0
 20 41  1  0  0  0  0
 20 42  1  0  0  0  0
 21 22  2  0  0  0  0
 22 43  1  0  0  0  0
M  END
> <s_m_source_file>
AV-unprocessed.smi

> <i_m_source_file_index>
337

> <i_lp_mmshare_version>
43012

> <i_f3d_flags>
0

> <s_epik_input>
W05IMl1DKD1PKVtOSF1bQ0BASF0oW0NIM10pQyg9TylbTkhdW0NIMl1jMVtjSF1bY0hdYyhuW2NIXTEpTjJbQ0gyXVtDSDJdT1tDSDJdW0NIMl0y

> <s_epik_cmdline>
J2VwaWtfcHl0aG9uJywgJy1waCcsICc3LjAnLCAnLXRuJywgJzgnLCAnLW1hJywgJzIwMCcsICctbWV0YWxfYmluZGluZycsICctaW1hZScsICc8aW5maWxlLm1hZT4nLCAnLW9tYWUnLCAnPG91dGZpbGUubWFlPic=

> <r_lp_tautomer_probability>
1

> <r_epik_Ionization_Penalty>
0.0048357

> <r_epik_Ionization_Penalty_Charging>
0

> <r_epik_Ionization_Penalty_Neutral>
0.0048357

> <r_epik_State_Penalty>
0.0034696

> <r_epik_Charging_Adjusted_Penalty>
0.0034696

> <i_epik_Tot_Q>
0

> <i_epik_Tot_abs_Q>
0

> <r_epik_Metal_State_Penalty>
-0

> <b_epik_Metal_Only>
0

> <s_lp_Force_Field>
OPLS_2005

> <r_lp_Energy>
9.87941

> <b_lp_Chiralities_Consistent>
1

> <s_lp_Variant>
AV-unprocessed.smi:337-2

> <Gold.Version>
5.8.1

> <Gold.Id.Protein>
6NUR|6NUR_protein|mol2

> <Gold.PLP.Fitness>
39.1540

> <Gold.PLP.PLP>
-35.6565

> <Gold.PLP.part.hbond>
-3.0000

> <Gold.PLP.part.metal>
0.0000

> <Gold.PLP.part.buried>
-1.4035

> <Gold.PLP.part.nonpolar>
-29.9608

> <Gold.PLP.part.repulsive>
0.1091

> <Gold.PLP.ligand.clash>
0.8795

> <Gold.PLP.ligand.torsion>
1.8385

> <Gold.PLP.Chemscore.Hbond>
2.5568

> <Gold.PLP.Chemscore.CHOScore>
0.0000

> <Gold.PLP.Chemscore.Metal>
0.0000

> <Gold.Chemscore.Hbonds>
donor molecule, donor type, donor heavy atom, donor atom, acceptor molecule, acceptor atom, score
      L1  H     3    27       P1  7948  1.00
      L1  H     5    29       P1  7948  0.60
      L1  H     9    30       P1  7948  1.00

> <Gold.PLP.Chemscore.Internal.Correction>
0.3835

> <Gold.Rescore>
     Score         DG    S(hbond)    S(metal)    S(lipo)     H(rot)  DE(clash)    DE(int)     intcor
     10.42     -16.70       2.44        0.00      84.40       2.66       0.22       6.06       ----

> <Gold.Chemscore.Fitness>
10.4194

> <Gold.Chemscore.DG>
-16.6980

> <Gold.Chemscore.ZeroCoef>
-5.4800

> <Gold.Chemscore.Hbond>
2.4388

> <Gold.Chemscore.Metal>
0.0000

> <Gold.Chemscore.Lipo>
84.4017

> <Gold.Chemscore.Internal_Hbond>
0.0000

> <Gold.Chemscore.DEClash>
0.2217

> <Gold.Chemscore.DEInternal>
6.0570

> <Gold.Chemscore.Rot>
2.6573

> <Gold.Chemscore.Internal.Correction>
   9.000000E+99

> <Gold.Chemscore.Hbonds>
donor molecule, donor type, donor heavy atom, donor atom, acceptor molecule, acceptor atom, score
      L1  H     3    27       P1  7948  0.85
      L1  H     5    29       P1  7948  0.05
      L1  H     9    30       P1  7948  0.71

> <Gold.Chemscore.Hbond.Weighted>
-8.1458

> <Gold.Chemscore.Metal.Weighted>
-0.0000

> <Gold.Chemscore.Lipo.Weighted>
-9.8750

> <Gold.Chemscore.Internal_Hbond.Weighted>
0.0000

> <Gold.Chemscore.DEClash.Weighted>
0.2217

> <Gold.Chemscore.DEInternal.Weighted>
6.0570

> <Gold.Chemscore.Rot.Weighted>
6.8027

> <Gold.Chemscore.Internal.Correction.Weighted>
   9.000000E+99

> <Gold.Protein.RotatedTorsions>
[ 6907 6896 6895 6894 ] final   -5.35 input  -60.11 | X-H torsion
[ 7974 7965 7964 7962 ] final -174.60 input  175.53 | X-H torsion
[ 8008 7997 7996 7995 ] final  -32.27 input   59.86 | X-H torsion
[ 10167 10162 10161 10158 ] final  114.12 input  -65.29 | X-H torsion
[ 10718 10713 10712 10709 ] final  -69.94 input   66.30 | X-H torsion
[ 10763 10752 10751 10750 ] final  154.62 input  -60.55 | X-H torsion
[ 11005 11000 10999 10996 ] final -144.32 input  -57.11 | X-H torsion

> <Gold.Protein.ActiveResidues>
 VAL166  LYS551  ARG553  GLY616  TRP617  ASP618  TYR619  PRO620  LYS621  CYS622 
 ASP623  PHE694  ASN695  SER759  ASP760  ASP761  ALA762  ILE779  LEU786  VAL792 
 PHE793  MET794  SER795  GLU796  ALA797  LYS798  CYS799  TRP800  GLU811  SER814 

> <Gold.Protein.RotatedAtoms>
  151.4829  135.1053  159.9782 H   0  0  0  0  0  0  0  0  0  0  0  0  # atno 6907 bound_to 6896
  152.4772  133.8162  159.7040 H   0  0  0  0  0  0  0  0  0  0  0  0  # atno 6908 bound_to 6896
  150.8818  133.7301  159.2956 H   0  0  0  0  0  0  0  0  0  0  0  0  # atno 6909 bound_to 6896
  144.7131  140.1447  143.6389 H   0  0  0  0  0  0  0  0  0  0  0  0  # atno 7974 bound_to 7965
  154.4185  140.1742  156.1700 H   0  0  0  0  0  0  0  0  0  0  0  0  # atno 8008 bound_to 7997
  155.9768  140.3381  155.6602 H   0  0  0  0  0  0  0  0  0  0  0  0  # atno 8009 bound_to 7997
  155.6552  140.0695  157.2564 H   0  0  0  0  0  0  0  0  0  0  0  0  # atno 8010 bound_to 7997
  139.6412  144.7124  151.2234 H   0  0  0  0  0  0  0  0  0  0  0  0  # atno 10167 bound_to 10162
  156.0431  130.4322  150.2223 H   0  0  0  0  0  0  0  0  0  0  0  0  # atno 10718 bound_to 10713
  154.1552  135.2813  155.3124 H   0  0  0  0  0  0  0  0  0  0  0  0  # atno 10763 bound_to 10752
  154.6187  135.5474  153.7555 H   0  0  0  0  0  0  0  0  0  0  0  0  # atno 10764 bound_to 10752
  153.0209  135.6433  154.1696 H   0  0  0  0  0  0  0  0  0  0  0  0  # atno 10765 bound_to 10752
  140.8036  134.2827  157.4969 H   0  0  0  0  0  0  0  0  0  0  0  0  # atno 11005 bound_to 11000
  145.9170  139.2522  143.1403 LP  0  0  0  0  0  0  0  0  0  0  0  0  # atno 17320 bound_to 7965
  145.9658  140.8799  143.0187 LP  0  0  0  0  0  0  0  0  0  0  0  0  # atno 17321 bound_to 7965
  140.7491  143.6309  150.8424 LP  0  0  0  0  0  0  0  0  0  0  0  0  # atno 17342 bound_to 10162
  139.9947  143.5809  152.2897 LP  0  0  0  0  0  0  0  0  0  0  0  0  # atno 17343 bound_to 10162
  157.0315  131.0009  151.3310 LP  0  0  0  0  0  0  0  0  0  0  0  0  # atno 17370 bound_to 10713
  157.5274  130.8036  149.7877 LP  0  0  0  0  0  0  0  0  0  0  0  0  # atno 17371 bound_to 10713
  139.8719  134.9444  156.3879 LP  0  0  0  0  0  0  0  0  0  0  0  0  # atno 17394 bound_to 11000
  140.9269  133.7606  155.9976 LP  0  0  0  0  0  0  0  0  0  0  0  0  # atno 17395 bound_to 11000

$$$$
