AV-unprocessed.smi:1669|AV-procd|sdf|6683|dock9
  -GOLD-   22720 7403D 1   1.00000     0.00000
 Structure written by MMmdl.
 48 50  0  0  0  0  0  0  0  0  2 V2000
  145.8160  136.2487  153.1771 C   0  0  0  0  0  0  0  0  0  0  0  0
  146.2404  136.6546  151.8168 N   0  3  1  0  0  0  0  0  0  0  0  0
  145.6579  135.7950  150.7535 C   0  0  0  0  0  0  0  0  0  0  0  0
  145.5814  134.3403  151.1791 C   0  0  0  0  0  0  0  0  0  0  0  0
  144.3752  133.6251  151.0253 C   0  0  0  0  0  0  0  0  0  0  0  0
  144.2997  132.2736  151.4147 C   0  0  0  0  0  0  0  0  0  0  0  0
  145.4286  131.6334  151.9613 C   0  0  0  0  0  0  0  0  0  0  0  0
  146.6334  132.3454  152.1198 C   0  0  0  0  0  0  0  0  0  0  0  0
  146.7100  133.6967  151.7305 C   0  0  0  0  0  0  0  0  0  0  0  0
  146.0185  138.1015  151.5709 C   0  0  0  0  0  0  0  0  0  0  0  0
  147.0634  138.9759  152.2988 C   0  0  2  0  0  0  0  0  0  0  0  0
  148.3540  138.4778  152.0111 O   0  0  0  0  0  0  0  0  0  0  0  0
  146.8930  139.0060  153.8306 C   0  0  0  0  0  0  0  0  0  0  0  0
  147.9137  139.8130  154.4867 N   0  0  0  0  0  0  0  0  0  0  0  0
  147.8488  141.1124  154.8758 C   0  0  0  0  0  0  0  0  0  0  0  0
  146.6247  141.9523  154.6756 C   0  0  0  0  0  0  0  0  0  0  0  0
  146.9052  143.1809  154.0403 O   0  0  0  0  0  0  0  0  0  0  0  0
  148.9506  141.6026  155.4443 N   0  0  0  0  0  0  0  0  0  0  0  0
  149.8064  140.5189  155.4364 C   0  0  0  0  0  0  0  0  0  0  0  0
  151.1353  140.3942  155.9005 C   0  0  0  0  0  0  0  0  0  0  0  0
  151.8200  139.1670  155.7822 C   0  0  0  0  0  0  0  0  0  0  0  0
  151.1870  138.0491  155.2017 C   0  0  0  0  0  0  0  0  0  0  0  0
  149.8634  138.1520  154.7329 C   0  0  0  0  0  0  0  0  0  0  0  0
  149.1857  139.3804  154.8492 C   0  0  0  0  0  0  0  0  0  0  0  0
  144.7386  136.3651  153.3013 H   0  0  0  0  0  0  0  0  0  0  0  0
  146.3150  136.8548  153.9339 H   0  0  0  0  0  0  0  0  0  0  0  0
  146.0738  135.2090  153.3786 H   0  0  0  0  0  0  0  0  0  0  0  0
  144.6692  136.1637  150.4748 H   0  0  0  0  0  0  0  0  0  0  0  0
  146.2612  135.8398  149.8467 H   0  0  0  0  0  0  0  0  0  0  0  0
  143.5056  134.1103  150.6061 H   0  0  0  0  0  0  0  0  0  0  0  0
  143.3756  131.7277  151.2938 H   0  0  0  0  0  0  0  0  0  0  0  0
  145.3704  130.5969  152.2599 H   0  0  0  0  0  0  0  0  0  0  0  0
  147.4992  131.8547  152.5398 H   0  0  0  0  0  0  0  0  0  0  0  0
  147.6381  134.2353  151.8542 H   0  0  0  0  0  0  0  0  0  0  0  0
  146.0345  138.2709  150.4936 H   0  0  0  0  0  0  0  0  0  0  0  0
  145.0233  138.3988  151.9054 H   0  0  0  0  0  0  0  0  0  0  0  0
  147.0214  139.9994  151.9285 H   0  0  0  0  0  0  0  0  0  0  0  0
  148.4741  137.6601  152.4704 H   0  0  0  0  0  0  0  0  0  0  0  0
  145.9026  139.3743  154.0955 H   0  0  0  0  0  0  0  0  0  0  0  0
  146.9567  137.9942  154.2336 H   0  0  0  0  0  0  0  0  0  0  0  0
  145.9055  141.4029  154.0670 H   0  0  0  0  0  0  0  0  0  0  0  0
  146.1442  142.1386  155.6361 H   0  0  0  0  0  0  0  0  0  0  0  0
  147.5201  143.6621  154.5727 H   0  0  0  0  0  0  0  0  0  0  0  0
  151.6288  141.2435  156.3493 H   0  0  0  0  0  0  0  0  0  0  0  0
  152.8355  139.0826  156.1410 H   0  0  0  0  0  0  0  0  0  0  0  0
  151.7179  137.1120  155.1181 H   0  0  0  0  0  0  0  0  0  0  0  0
  149.3758  137.2955  154.2912 H   0  0  0  0  0  0  0  0  0  0  0  0
  147.2417  136.5224  151.7832 H   0  0  0  0  0  0  0  0  0  0  0  0
  1  2  1  0  0  0  0
  1 25  1  0  0  0  0
  1 26  1  0  0  0  0
  1 27  1  0  0  0  0
  2  3  1  0  0  0  0
  2 10  1  0  0  0  0
  2 48  1  0  0  0  0
  3  4  1  0  0  0  0
  3 28  1  0  0  0  0
  3 29  1  0  0  0  0
  4  9  1  0  0  0  0
  4  5  2  0  0  0  0
  5  6  1  0  0  0  0
  5 30  1  0  0  0  0
  6  7  2  0  0  0  0
  6 31  1  0  0  0  0
  7  8  1  0  0  0  0
  7 32  1  0  0  0  0
  8  9  2  0  0  0  0
  8 33  1  0  0  0  0
  9 34  1  0  0  0  0
 10 11  1  0  0  0  0
 10 35  1  0  0  0  0
 10 36  1  0  0  0  0
 11 12  1  0  0  0  0
 11 13  1  0  0  0  0
 11 37  1  0  0  0  0
 12 38  1  0  0  0  0
 13 14  1  0  0  0  0
 13 39  1  0  0  0  0
 13 40  1  0  0  0  0
 14 24  1  0  0  0  0
 14 15  1  0  0  0  0
 15 16  1  0  0  0  0
 15 18  2  0  0  0  0
 16 17  1  0  0  0  0
 16 41  1  0  0  0  0
 16 42  1  0  0  0  0
 17 43  1  0  0  0  0
 18 19  1  0  0  0  0
 19 24  2  0  0  0  0
 19 20  1  0  0  0  0
 20 21  2  0  0  0  0
 20 44  1  0  0  0  0
 21 22  1  0  0  0  0
 21 45  1  0  0  0  0
 22 23  2  0  0  0  0
 22 46  1  0  0  0  0
 23 24  1  0  0  0  0
 23 47  1  0  0  0  0
M  CHG  1   2   1
M  END
> <s_m_source_file>
AV-unprocessed.smi

> <i_m_source_file_index>
1669

> <i_lp_mmshare_version>
43012

> <i_f3d_flags>
0

> <s_epik_input>
W2NIXTFbY0hdW2NIXVtjSF1bY0hdYzFbQ0gyXU4oW0NIM10pW0NIMl1bQ0BIXShbT0hdKVtDSDJdbihjKG4yKVtDSDJdW09IXSljKGMyMylbY0hdW2NIXVtjSF1bY0hdMw==

> <s_epik_cmdline>
J2VwaWtfcHl0aG9uJywgJy1waCcsICc3LjAnLCAnLXRuJywgJzgnLCAnLW1hJywgJzIwMCcsICctbWV0YWxfYmluZGluZycsICctaW1hZScsICc8aW5maWxlLm1hZT4nLCAnLW9tYWUnLCAnPG91dGZpbGUubWFlPic=

> <r_epik_Ionization_Penalty>
0.0949884

> <r_epik_Ionization_Penalty_Charging>
0.0475377

> <r_epik_Ionization_Penalty_Neutral>
0.0474507

> <r_epik_State_Penalty>
0.078247

> <r_epik_Charging_Adjusted_Penalty>
0.125785

> <i_epik_Tot_Q>
1

> <i_epik_Tot_abs_Q>
1

> <r_epik_Metal_State_Penalty>
0.0403451

> <b_epik_Metal_Only>
0

> <s_lp_Force_Field>
OPLS_2005

> <r_lp_Energy>
16.111

> <b_lp_Chiralities_Consistent>
1

> <s_lp_Variant>
AV-unprocessed.smi:1669-1

> <Gold.Version>
5.8.1

> <Gold.Id.Protein>
6NUR|6NUR_protein|mol2

> <Gold.PLP.Fitness>
54.9336

> <Gold.PLP.PLP>
-43.3327

> <Gold.PLP.part.hbond>
-3.5417

> <Gold.PLP.part.metal>
0.0000

> <Gold.PLP.part.buried>
2.8940

> <Gold.PLP.part.nonpolar>
-43.9992

> <Gold.PLP.part.repulsive>
0.1777

> <Gold.PLP.ligand.clash>
0.0000

> <Gold.PLP.ligand.torsion>
0.9215

> <Gold.PLP.Chemscore.Hbond>
4.4560

> <Gold.PLP.Chemscore.CHOScore>
0.0000

> <Gold.PLP.Chemscore.Metal>
0.0000

> <Gold.Chemscore.Hbonds>
donor molecule, donor type, donor heavy atom, donor atom, acceptor molecule, acceptor atom, score
      L1  H     2    48       P1  7948  2.00
      L1  H    12    38       P1  7948  0.53
      L1  H    17    43       P1  8028  0.85
      P1  H  7954  7966       L1    12  0.43

> <Gold.PLP.Chemscore.Internal.Correction>
0.0759

> <Gold.Rescore>
     Score         DG    S(hbond)    S(metal)    S(lipo)     H(rot)  DE(clash)    DE(int)     intcor
     15.88     -20.50       2.69        0.00     121.02       3.17       3.65       0.98       ----

> <Gold.Chemscore.Fitness>
15.8789

> <Gold.Chemscore.DG>
-20.5029

> <Gold.Chemscore.ZeroCoef>
-5.4800

> <Gold.Chemscore.Hbond>
2.6905

> <Gold.Chemscore.Metal>
0.0000

> <Gold.Chemscore.Lipo>
121.0241

> <Gold.Chemscore.Internal_Hbond>
0.0000

> <Gold.Chemscore.DEClash>
3.6452

> <Gold.Chemscore.DEInternal>
0.9788

> <Gold.Chemscore.Rot>
3.1731

> <Gold.Chemscore.Internal.Correction>
   9.000000E+99

> <Gold.Chemscore.Hbonds>
donor molecule, donor type, donor heavy atom, donor atom, acceptor molecule, acceptor atom, score
      L1  H     2    48       P1  7948  1.00
      L1  H    12    38       P1  7948  0.51
      L1  H    17    43       P1  8028  0.14
      P1  H  7954  7966       L1    12  0.08

> <Gold.Chemscore.Hbond.Weighted>
-8.9861

> <Gold.Chemscore.Metal.Weighted>
-0.0000

> <Gold.Chemscore.Lipo.Weighted>
-14.1598

> <Gold.Chemscore.Internal_Hbond.Weighted>
0.0000

> <Gold.Chemscore.DEClash.Weighted>
3.6452

> <Gold.Chemscore.DEInternal.Weighted>
0.9788

> <Gold.Chemscore.Rot.Weighted>
8.1230

> <Gold.Chemscore.Internal.Correction.Weighted>
   9.000000E+99

> <Gold.Protein.RotatedTorsions>
[ 6907 6896 6895 6894 ] final -151.60 input  -60.11 | X-H torsion
[ 7974 7965 7964 7962 ] final -136.97 input  175.53 | X-H torsion
[ 8008 7997 7996 7995 ] final   92.23 input   59.86 | X-H torsion
[ 10167 10162 10161 10158 ] final  171.39 input  -65.29 | X-H torsion
[ 10718 10713 10712 10709 ] final -113.57 input   66.30 | X-H torsion
[ 10763 10752 10751 10750 ] final   45.87 input  -60.55 | X-H torsion
[ 11005 11000 10999 10996 ] final   -3.32 input  -57.11 | X-H torsion

> <Gold.Protein.ActiveResidues>
 VAL166  LYS551  ARG553  GLY616  TRP617  ASP618  TYR619  PRO620  LYS621  CYS622 
 ASP623  PHE694  ASN695  SER759  ASP760  ASP761  ALA762  ILE779  LEU786  VAL792 
 PHE793  MET794  SER795  GLU796  ALA797  LYS798  CYS799  TRP800  GLU811  SER814 

> <Gold.Protein.RotatedAtoms>
  151.2155  133.4531  159.2599 H   0  0  0  0  0  0  0  0  0  0  0  0  # atno 6907 bound_to 6896
  151.0935  134.9930  159.8424 H   0  0  0  0  0  0  0  0  0  0  0  0  # atno 6908 bound_to 6896
  152.5437  134.2087  159.8794 H   0  0  0  0  0  0  0  0  0  0  0  0  # atno 6909 bound_to 6896
  144.8881  140.6604  143.5163 H   0  0  0  0  0  0  0  0  0  0  0  0  # atno 7974 bound_to 7965
  156.0330  140.3328  155.7160 H   0  0  0  0  0  0  0  0  0  0  0  0  # atno 8008 bound_to 7997
  155.5857  140.0641  157.2789 H   0  0  0  0  0  0  0  0  0  0  0  0  # atno 8009 bound_to 7997
  154.4361  140.1836  156.1010 H   0  0  0  0  0  0  0  0  0  0  0  0  # atno 8010 bound_to 7997
  139.5045  144.3491  151.9940 H   0  0  0  0  0  0  0  0  0  0  0  0  # atno 10167 bound_to 10162
  156.0775  130.5980  150.8660 H   0  0  0  0  0  0  0  0  0  0  0  0  # atno 10718 bound_to 10713
  152.9818  135.6026  154.3507 H   0  0  0  0  0  0  0  0  0  0  0  0  # atno 10763 bound_to 10752
  154.3196  135.2770  155.2528 H   0  0  0  0  0  0  0  0  0  0  0  0  # atno 10764 bound_to 10752
  154.4700  135.5944  153.6371 H   0  0  0  0  0  0  0  0  0  0  0  0  # atno 10765 bound_to 10752
  140.6680  133.9261  155.8477 H   0  0  0  0  0  0  0  0  0  0  0  0  # atno 11005 bound_to 11000
  145.3832  139.1632  143.4269 LP  0  0  0  0  0  0  0  0  0  0  0  0  # atno 17320 bound_to 7965
  146.3037  140.3914  142.8695 LP  0  0  0  0  0  0  0  0  0  0  0  0  # atno 17321 bound_to 7965
  140.2928  144.3734  150.6083 LP  0  0  0  0  0  0  0  0  0  0  0  0  # atno 17342 bound_to 10162
  140.5933  143.2167  151.7212 LP  0  0  0  0  0  0  0  0  0  0  0  0  # atno 17343 bound_to 10162
  157.5877  131.0945  150.9169 LP  0  0  0  0  0  0  0  0  0  0  0  0  # atno 17370 bound_to 10713
  156.9352  130.5364  149.5279 LP  0  0  0  0  0  0  0  0  0  0  0  0  # atno 17371 bound_to 10713
  141.0414  134.0616  157.3897 LP  0  0  0  0  0  0  0  0  0  0  0  0  # atno 17394 bound_to 11000
  139.8991  135.0157  156.7179 LP  0  0  0  0  0  0  0  0  0  0  0  0  # atno 17395 bound_to 11000

$$$$
