AV-unprocessed.smi:1535|AV-procd|sdf|6181|dock9
  -GOLD-   22720 6343D 1   1.00000     0.00000
 Structure written by MMmdl.
 47 48  0  0  0  0  0  0  0  0  2 V2000
  152.6963  143.4133  161.2642 C   0  0  0  0  0  0  0  0  0  0  0  0
  152.1842  142.8075  159.9692 C   0  0  0  0  0  0  0  0  0  0  0  0
  152.7642  141.6093  159.4945 C   0  0  0  0  0  0  0  0  0  0  0  0
  152.3177  141.0141  158.2944 C   0  0  0  0  0  0  0  0  0  0  0  0
  152.7342  139.8603  157.6525 N   0  0  0  0  0  0  0  0  0  0  0  0
  151.9387  139.8438  156.5870 C   0  0  0  0  0  0  0  0  0  0  0  0
  151.0573  140.8548  156.4599 N   0  0  0  0  0  0  0  0  0  0  0  0
  150.0956  141.0554  155.3908 C   0  0  0  0  0  0  0  0  0  0  0  0
  148.9754  139.9976  155.4049 C   0  0  1  0  0  0  0  0  0  0  0  0
  147.7235  140.6408  155.5522 O   0  0  0  0  0  0  0  0  0  0  0  0
  148.9529  139.1600  154.1110 C   0  0  0  0  0  0  0  0  0  0  0  0
  149.7209  137.8975  154.2558 N   0  3  1  0  0  0  0  0  0  0  0  0
  151.1839  138.1246  154.2197 C   0  0  0  0  0  0  0  0  0  0  0  0
  149.3013  137.0840  155.4269 C   0  0  0  0  0  0  0  0  0  0  0  0
  150.2284  135.8767  155.6564 C   0  0  2  0  0  0  0  0  0  0  0  0
  150.0246  134.7810  154.5990 C   0  0  0  0  0  0  0  0  0  0  0  0
  150.0371  135.3292  157.0087 C   0  0  0  0  0  0  0  0  0  0  0  0
  149.8875  134.8999  158.0721 N   0  0  0  0  0  0  0  0  0  0  0  0
  151.2676  141.6570  157.5758 C   0  0  0  0  0  0  0  0  0  0  0  0
  150.6809  142.8480  158.0385 C   0  0  0  0  0  0  0  0  0  0  0  0
  151.1373  143.4277  159.2407 C   0  0  0  0  0  0  0  0  0  0  0  0
  150.4949  144.7124  159.7338 C   0  0  0  0  0  0  0  0  0  0  0  0
  153.5423  142.8504  161.6598 H   0  0  0  0  0  0  0  0  0  0  0  0
  151.9112  143.4143  162.0206 H   0  0  0  0  0  0  0  0  0  0  0  0
  153.0251  144.4402  161.1041 H   0  0  0  0  0  0  0  0  0  0  0  0
  153.5599  141.1355  160.0505 H   0  0  0  0  0  0  0  0  0  0  0  0
  152.0034  139.0526  155.8541 H   0  0  0  0  0  0  0  0  0  0  0  0
  149.6776  142.0596  155.4764 H   0  0  0  0  0  0  0  0  0  0  0  0
  150.6343  141.0212  154.4430 H   0  0  0  0  0  0  0  0  0  0  0  0
  149.1192  139.3495  156.2693 H   0  0  0  0  0  0  0  0  0  0  0  0
  147.8473  141.5733  155.4575 H   0  0  0  0  0  0  0  0  0  0  0  0
  147.9143  138.9423  153.8554 H   0  0  0  0  0  0  0  0  0  0  0  0
  149.3569  139.7297  153.2723 H   0  0  0  0  0  0  0  0  0  0  0  0
  151.5031  138.7510  155.0538 H   0  0  0  0  0  0  0  0  0  0  0  0
  151.4736  138.6188  153.2918 H   0  0  0  0  0  0  0  0  0  0  0  0
  151.7305  137.1833  154.2711 H   0  0  0  0  0  0  0  0  0  0  0  0
  149.2730  137.7181  156.3148 H   0  0  0  0  0  0  0  0  0  0  0  0
  148.2833  136.7157  155.2983 H   0  0  0  0  0  0  0  0  0  0  0  0
  151.2675  136.2037  155.6237 H   0  0  0  0  0  0  0  0  0  0  0  0
  150.6803  133.9310  154.7884 H   0  0  0  0  0  0  0  0  0  0  0  0
  150.2442  135.1466  153.5956 H   0  0  0  0  0  0  0  0  0  0  0  0
  148.9977  134.4141  154.6036 H   0  0  0  0  0  0  0  0  0  0  0  0
  149.8857  143.3111  157.4734 H   0  0  0  0  0  0  0  0  0  0  0  0
  149.6493  144.9995  159.1081 H   0  0  0  0  0  0  0  0  0  0  0  0
  151.2172  145.5289  159.7190 H   0  0  0  0  0  0  0  0  0  0  0  0
  150.1280  144.5919  160.7534 H   0  0  0  0  0  0  0  0  0  0  0  0
  149.4982  137.3548  153.4330 H   0  0  0  0  0  0  0  0  0  0  0  0
  1  2  1  0  0  0  0
  1 23  1  0  0  0  0
  1 24  1  0  0  0  0
  1 25  1  0  0  0  0
  2 21  1  0  0  0  0
  2  3  2  0  0  0  0
  3  4  1  0  0  0  0
  3 26  1  0  0  0  0
  4 19  2  0  0  0  0
  4  5  1  0  0  0  0
  5  6  2  0  0  0  0
  6  7  1  0  0  0  0
  6 27  1  0  0  0  0
  7  8  1  0  0  0  0
  7 19  1  0  0  0  0
  8  9  1  0  0  0  0
  8 28  1  0  0  0  0
  8 29  1  0  0  0  0
  9 10  1  0  0  0  0
  9 11  1  0  0  0  0
  9 30  1  0  0  0  0
 10 31  1  0  0  0  0
 11 12  1  0  0  0  0
 11 32  1  0  0  0  0
 11 33  1  0  0  0  0
 12 13  1  0  0  0  0
 12 14  1  0  0  0  0
 12 47  1  0  0  0  0
 13 34  1  0  0  0  0
 13 35  1  0  0  0  0
 13 36  1  0  0  0  0
 14 15  1  0  0  0  0
 14 37  1  0  0  0  0
 14 38  1  0  0  0  0
 15 16  1  0  0  0  0
 15 17  1  0  0  0  0
 15 39  1  0  0  0  0
 16 40  1  0  0  0  0
 16 41  1  0  0  0  0
 16 42  1  0  0  0  0
 17 18  3  0  0  0  0
 19 20  1  0  0  0  0
 20 21  2  0  0  0  0
 20 43  1  0  0  0  0
 21 22  1  0  0  0  0
 22 44  1  0  0  0  0
 22 45  1  0  0  0  0
 22 46  1  0  0  0  0
M  CHG  1  12   1
M  END
> <s_m_source_file>
AV-unprocessed.smi

> <i_m_source_file_index>
1535

> <i_lp_mmshare_version>
43012

> <i_f3d_flags>
0

> <s_epik_input>
W0NIM11jKFtjSF0xKWMoW0NIM10pW2NIXWMoYzEyKW4oW2NIXW4yKVtDSDJdW0NASF0oW09IXSlbQ0gyXU4oW0NIM10pW0NIMl1bQ0BIXShbQ0gzXSlDI04=

> <s_epik_cmdline>
J2VwaWtfcHl0aG9uJywgJy1waCcsICc3LjAnLCAnLXRuJywgJzgnLCAnLW1hJywgJzIwMCcsICctbWV0YWxfYmluZGluZycsICctaW1hZScsICc8aW5maWxlLm1hZT4nLCAnLW9tYWUnLCAnPG91dGZpbGUubWFlPic=

> <r_epik_Ionization_Penalty>
2.21058

> <r_epik_Ionization_Penalty_Charging>
2.12381

> <r_epik_Ionization_Penalty_Neutral>
0.0867699

> <r_epik_State_Penalty>
2.36208

> <r_epik_Charging_Adjusted_Penalty>
4.48589

> <i_epik_Tot_Q>
1

> <i_epik_Tot_abs_Q>
1

> <r_epik_Metal_State_Penalty>
2.2818

> <b_epik_Metal_Only>
0

> <s_lp_Force_Field>
OPLS_2005

> <r_lp_Energy>
17.3963

> <b_lp_Chiralities_Consistent>
1

> <s_lp_Variant>
AV-unprocessed.smi:1535-12

> <Gold.Version>
5.8.1

> <Gold.Id.Protein>
6NUR|6NUR_protein|mol2

> <Gold.PLP.Fitness>
50.8104

> <Gold.PLP.PLP>
-41.7116

> <Gold.PLP.part.hbond>
-3.0000

> <Gold.PLP.part.metal>
0.0000

> <Gold.PLP.part.buried>
-4.5722

> <Gold.PLP.part.nonpolar>
-33.9800

> <Gold.PLP.part.repulsive>
0.0217

> <Gold.PLP.ligand.clash>
0.0000

> <Gold.PLP.ligand.torsion>
1.5412

> <Gold.PLP.Chemscore.Hbond>
4.0000

> <Gold.PLP.Chemscore.CHOScore>
0.0000

> <Gold.PLP.Chemscore.Metal>
0.0000

> <Gold.Chemscore.Hbonds>
donor molecule, donor type, donor heavy atom, donor atom, acceptor molecule, acceptor atom, score
      L1  H    12    47       P1  7948  2.00
      P1  H  6896  6907       L1    18  0.99
      P1  H  7997  8008       L1     5  1.00

> <Gold.PLP.Chemscore.Internal.Correction>
0.1811

> <Gold.Rescore>
     Score         DG    S(hbond)    S(metal)    S(lipo)     H(rot)  DE(clash)    DE(int)     intcor
     19.41     -21.24       2.80        0.00     111.62       2.60       0.18       1.64       ----

> <Gold.Chemscore.Fitness>
19.4114

> <Gold.Chemscore.DG>
-21.2363

> <Gold.Chemscore.ZeroCoef>
-5.4800

> <Gold.Chemscore.Hbond>
2.8027

> <Gold.Chemscore.Metal>
0.0000

> <Gold.Chemscore.Lipo>
111.6180

> <Gold.Chemscore.Internal_Hbond>
0.0000

> <Gold.Chemscore.DEClash>
0.1827

> <Gold.Chemscore.DEInternal>
1.6422

> <Gold.Chemscore.Rot>
2.6031

> <Gold.Chemscore.Internal.Correction>
   9.000000E+99

> <Gold.Chemscore.Hbonds>
donor molecule, donor type, donor heavy atom, donor atom, acceptor molecule, acceptor atom, score
      L1  H    12    47       P1  7948  0.89
      P1  H  6896  6907       L1    18  0.94
      P1  H  7997  8008       L1     5  0.38

> <Gold.Chemscore.Hbond.Weighted>
-9.3610

> <Gold.Chemscore.Metal.Weighted>
-0.0000

> <Gold.Chemscore.Lipo.Weighted>
-13.0593

> <Gold.Chemscore.Internal_Hbond.Weighted>
0.0000

> <Gold.Chemscore.DEClash.Weighted>
0.1827

> <Gold.Chemscore.DEInternal.Weighted>
1.6422

> <Gold.Chemscore.Rot.Weighted>
6.6640

> <Gold.Chemscore.Internal.Correction.Weighted>
   9.000000E+99

> <Gold.Protein.RotatedTorsions>
[ 6907 6896 6895 6894 ] final  -88.10 input  -60.11 | X-H torsion
[ 7974 7965 7964 7962 ] final -167.78 input  175.53 | X-H torsion
[ 8008 7997 7996 7995 ] final  -79.58 input   59.86 | X-H torsion
[ 10167 10162 10161 10158 ] final   28.13 input  -65.29 | X-H torsion
[ 10718 10713 10712 10709 ] final   75.89 input   66.30 | X-H torsion
[ 10763 10752 10751 10750 ] final   64.56 input  -60.55 | X-H torsion
[ 11005 11000 10999 10996 ] final   66.27 input  -57.11 | X-H torsion

> <Gold.Protein.ActiveResidues>
 VAL166  LYS551  ARG553  GLY616  TRP617  ASP618  TYR619  PRO620  LYS621  CYS622 
 ASP623  PHE694  ASN695  SER759  ASP760  ASP761  ALA762  ILE779  LEU786  VAL792 
 PHE793  MET794  SER795  GLU796  ALA797  LYS798  CYS799  TRP800  GLU811  SER814 

> <Gold.Protein.RotatedAtoms>
  150.6868  134.2793  159.4620 H   0  0  0  0  0  0  0  0  0  0  0  0  # atno 6907 bound_to 6896
  152.0709  134.9532  160.0583 H   0  0  0  0  0  0  0  0  0  0  0  0  # atno 6908 bound_to 6896
  152.0922  133.4171  159.4586 H   0  0  0  0  0  0  0  0  0  0  0  0  # atno 6909 bound_to 6896
  144.7216  140.2468  143.6284 H   0  0  0  0  0  0  0  0  0  0  0  0  # atno 7974 bound_to 7965
  154.5799  140.0676  156.9089 H   0  0  0  0  0  0  0  0  0  0  0  0  # atno 8008 bound_to 7997
  155.2481  140.3349  155.4267 H   0  0  0  0  0  0  0  0  0  0  0  0  # atno 8009 bound_to 7997
  156.2182  140.1787  156.7525 H   0  0  0  0  0  0  0  0  0  0  0  0  # atno 8010 bound_to 7997
  140.4879  144.0514  150.6287 H   0  0  0  0  0  0  0  0  0  0  0  0  # atno 10167 bound_to 10162
  157.6652  130.9748  150.1419 H   0  0  0  0  0  0  0  0  0  0  0  0  # atno 10718 bound_to 10713
  153.0060  135.5389  154.6528 H   0  0  0  0  0  0  0  0  0  0  0  0  # atno 10763 bound_to 10752
  154.5756  135.2845  155.0786 H   0  0  0  0  0  0  0  0  0  0  0  0  # atno 10764 bound_to 10752
  154.1935  135.6496  153.5119 H   0  0  0  0  0  0  0  0  0  0  0  0  # atno 10765 bound_to 10752
  139.9842  134.6695  156.0206 H   0  0  0  0  0  0  0  0  0  0  0  0  # atno 11005 bound_to 11000
  145.8266  139.2067  143.1907 LP  0  0  0  0  0  0  0  0  0  0  0  0  # atno 17320 bound_to 7965
  146.0467  140.8111  142.9802 LP  0  0  0  0  0  0  0  0  0  0  0  0  # atno 17321 bound_to 7965
  140.3774  143.2821  152.0209 LP  0  0  0  0  0  0  0  0  0  0  0  0  # atno 17342 bound_to 10162
  139.4845  144.6182  151.7306 LP  0  0  0  0  0  0  0  0  0  0  0  0  # atno 17343 bound_to 10162
  156.2239  130.3676  149.8523 LP  0  0  0  0  0  0  0  0  0  0  0  0  # atno 17370 bound_to 10713
  156.6368  130.8688  151.3506 LP  0  0  0  0  0  0  0  0  0  0  0  0  # atno 17371 bound_to 10713
  141.1510  133.6548  156.4012 LP  0  0  0  0  0  0  0  0  0  0  0  0  # atno 17394 bound_to 11000
  140.5036  134.6462  157.5258 LP  0  0  0  0  0  0  0  0  0  0  0  0  # atno 17395 bound_to 11000

$$$$
