AV-unprocessed.smi:2616|AV-procd|sdf|10216|dock8
  -GOLD-   2272014223D 1   1.00000     0.00000
 Structure written by MMmdl.
 26 27  0  0  0  0  0  0  0  0  2 V2000
  153.7739  138.7871  154.5385 O   0  0  0  0  0  0  0  0  0  0  0  0
  152.7405  138.4278  155.1429 C   0  0  0  0  0  0  0  0  0  0  0  0
  152.4467  137.2137  155.2387 O   0  5  0  0  0  0  0  0  0  0  0  0
  151.8110  139.4466  155.7744 C   0  0  0  0  0  0  0  0  0  0  0  0
  152.3739  140.1730  156.7711 N   0  0  0  0  0  0  0  0  0  0  0  0
  151.6465  141.1071  157.4065 C   0  0  0  0  0  0  0  0  0  0  0  0
  150.3078  141.3822  157.0915 C   0  0  0  0  0  0  0  0  0  0  0  0
  149.4592  142.6071  157.9710 Cl  0  0  0  0  0  0  0  0  0  0  0  0
  149.6905  140.6440  156.0577 C   0  0  0  0  0  0  0  0  0  0  0  0
  148.3481  140.9327  155.7565 N   0  0  0  0  0  0  0  0  0  0  0  0
  147.3768  140.7713  156.8286 C   0  0  0  0  0  0  0  0  0  0  0  0
  145.9589  140.7362  156.2325 C   0  0  0  0  0  0  0  0  0  0  0  0
  145.7443  141.8963  155.4311 O   0  0  0  0  0  0  0  0  0  0  0  0
  146.6532  141.9710  154.3346 C   0  0  0  0  0  0  0  0  0  0  0  0
  148.0966  142.0519  154.8605 C   0  0  0  0  0  0  0  0  0  0  0  0
  150.4507  139.6502  155.3765 C   0  0  0  0  0  0  0  0  0  0  0  0
  149.7033  138.7364  154.1008 Cl  0  0  0  0  0  0  0  0  0  0  0  0
  152.1501  141.6518  158.1915 H   0  0  0  0  0  0  0  0  0  0  0  0
  147.5776  139.8529  157.3815 H   0  0  0  0  0  0  0  0  0  0  0  0
  147.4555  141.5981  157.5337 H   0  0  0  0  0  0  0  0  0  0  0  0
  145.8127  139.8370  155.6321 H   0  0  0  0  0  0  0  0  0  0  0  0
  145.2163  140.7110  157.0299 H   0  0  0  0  0  0  0  0  0  0  0  0
  146.5250  141.1037  153.6849 H   0  0  0  0  0  0  0  0  0  0  0  0
  146.4209  142.8528  153.7376 H   0  0  0  0  0  0  0  0  0  0  0  0
  148.2404  142.9940  155.3883 H   0  0  0  0  0  0  0  0  0  0  0  0
  148.8034  142.0333  154.0302 H   0  0  0  0  0  0  0  0  0  0  0  0
  1  2  2  0  0  0  0
  2  3  1  0  0  0  0
  2  4  1  0  0  0  0
  4 16  1  0  0  0  0
  4  5  2  0  0  0  0
  5  6  1  0  0  0  0
  6  7  2  0  0  0  0
  6 18  1  0  0  0  0
  7  8  1  0  0  0  0
  7  9  1  0  0  0  0
  9 10  1  0  0  0  0
  9 16  2  0  0  0  0
 10 15  1  0  0  0  0
 10 11  1  0  0  0  0
 11 12  1  0  0  0  0
 11 19  1  0  0  0  0
 11 20  1  0  0  0  0
 12 13  1  0  0  0  0
 12 21  1  0  0  0  0
 12 22  1  0  0  0  0
 13 14  1  0  0  0  0
 14 15  1  0  0  0  0
 14 23  1  0  0  0  0
 14 24  1  0  0  0  0
 15 25  1  0  0  0  0
 15 26  1  0  0  0  0
 16 17  1  0  0  0  0
M  CHG  1   3  -1
M  END
> <s_m_source_file>
AV-unprocessed.smi

> <i_m_source_file_index>
2616

> <i_lp_mmshare_version>
43012

> <i_f3d_flags>
0

> <s_epik_input>
Tz1DKFtPSF0pYzFuW2NIXWMoQ2wpYyhjMUNsKU4yW0NIMl1bQ0gyXU9bQ0gyXVtDSDJdMg==

> <s_epik_cmdline>
J2VwaWtfcHl0aG9uJywgJy1waCcsICc3LjAnLCAnLXRuJywgJzgnLCAnLW1hJywgJzIwMCcsICctbWV0YWxfYmluZGluZycsICctaW1hZScsICc8aW5maWxlLm1hZT4nLCAnLW9tYWUnLCAnPG91dGZpbGUubWFlPic=

> <r_epik_Ionization_Penalty>
0.00232884

> <r_epik_Ionization_Penalty_Charging>
7.03121e-06

> <r_epik_Ionization_Penalty_Neutral>
0.00232181

> <r_epik_State_Penalty>
0.00160212

> <r_epik_Charging_Adjusted_Penalty>
0.00160915

> <i_epik_Tot_Q>
-1

> <i_epik_Tot_abs_Q>
1

> <r_epik_Metal_State_Penalty>
-0

> <b_epik_Metal_Only>
0

> <s_lp_Force_Field>
OPLS_2005

> <r_lp_Energy>
33.645

> <b_lp_Chiralities_Consistent>
1

> <s_lp_Variant>
AV-unprocessed.smi:2616-1

> <Gold.Version>
5.8.1

> <Gold.Id.Protein>
6NUR|6NUR_protein|mol2

> <Gold.PLP.Fitness>
32.5121

> <Gold.PLP.PLP>
-25.0093

> <Gold.PLP.part.hbond>
-3.0000

> <Gold.PLP.part.metal>
0.0000

> <Gold.PLP.part.buried>
-0.7464

> <Gold.PLP.part.nonpolar>
-21.6906

> <Gold.PLP.part.repulsive>
0.2424

> <Gold.PLP.ligand.clash>
0.0000

> <Gold.PLP.ligand.torsion>
1.5253

> <Gold.PLP.Chemscore.Hbond>
3.3600

> <Gold.PLP.Chemscore.CHOScore>
0.0000

> <Gold.PLP.Chemscore.Metal>
0.0000

> <Gold.Chemscore.Hbonds>
donor molecule, donor type, donor heavy atom, donor atom, acceptor molecule, acceptor atom, score
      P1  H  7997  8009       L1     1  1.98
      P1  H 10752 10765       L1     3  1.38

> <Gold.PLP.Chemscore.Internal.Correction>
0.4736

> <Gold.Rescore>
     Score         DG    S(hbond)    S(metal)    S(lipo)     H(rot)  DE(clash)    DE(int)     intcor
     12.31     -14.79       1.72        0.00      52.50       1.00       0.06       2.42       ----

> <Gold.Chemscore.Fitness>
12.3116

> <Gold.Chemscore.DG>
-14.7938

> <Gold.Chemscore.ZeroCoef>
-5.4800

> <Gold.Chemscore.Hbond>
1.7160

> <Gold.Chemscore.Metal>
0.0000

> <Gold.Chemscore.Lipo>
52.4999

> <Gold.Chemscore.Internal_Hbond>
0.0000

> <Gold.Chemscore.DEClash>
0.0639

> <Gold.Chemscore.DEInternal>
2.4182

> <Gold.Chemscore.Rot>
1.0000

> <Gold.Chemscore.Internal.Correction>
   9.000000E+99

> <Gold.Chemscore.Hbonds>
donor molecule, donor type, donor heavy atom, donor atom, acceptor molecule, acceptor atom, score
      P1  H  7997  8009       L1     1  0.59
      P1  H 10752 10765       L1     3  0.70

> <Gold.Chemscore.Hbond.Weighted>
-5.7313

> <Gold.Chemscore.Metal.Weighted>
-0.0000

> <Gold.Chemscore.Lipo.Weighted>
-6.1425

> <Gold.Chemscore.Internal_Hbond.Weighted>
0.0000

> <Gold.Chemscore.DEClash.Weighted>
0.0639

> <Gold.Chemscore.DEInternal.Weighted>
2.4182

> <Gold.Chemscore.Rot.Weighted>
2.5600

> <Gold.Chemscore.Internal.Correction.Weighted>
   9.000000E+99

> <Gold.Protein.RotatedTorsions>
[ 6907 6896 6895 6894 ] final -149.43 input  -60.11 | X-H torsion
[ 7974 7965 7964 7962 ] final   94.84 input  175.53 | X-H torsion
[ 8008 7997 7996 7995 ] final -117.60 input   59.86 | X-H torsion
[ 10167 10162 10161 10158 ] final  -63.14 input  -65.29 | X-H torsion
[ 10718 10713 10712 10709 ] final  122.06 input   66.30 | X-H torsion
[ 10763 10752 10751 10750 ] final -169.77 input  -60.55 | X-H torsion
[ 11005 11000 10999 10996 ] final  138.76 input  -57.11 | X-H torsion

> <Gold.Protein.ActiveResidues>
 VAL166  LYS551  ARG553  GLY616  TRP617  ASP618  TYR619  PRO620  LYS621  CYS622 
 ASP623  PHE694  ASN695  SER759  ASP760  ASP761  ALA762  ILE779  LEU786  VAL792 
 PHE793  MET794  SER795  GLU796  ALA797  LYS798  CYS799  TRP800  GLU811  SER814 

> <Gold.Protein.RotatedAtoms>
  151.1840  133.4707  159.2594 H   0  0  0  0  0  0  0  0  0  0  0  0  # atno 6907 bound_to 6896
  151.1230  135.0089  159.8557 H   0  0  0  0  0  0  0  0  0  0  0  0  # atno 6908 bound_to 6896
  152.5457  134.1749  159.8665 H   0  0  0  0  0  0  0  0  0  0  0  0  # atno 6909 bound_to 6896
  145.4601  139.2287  143.2992 H   0  0  0  0  0  0  0  0  0  0  0  0  # atno 7974 bound_to 7965
  155.0863  140.0394  157.2655 H   0  0  0  0  0  0  0  0  0  0  0  0  # atno 8008 bound_to 7997
  154.6867  140.2644  155.6828 H   0  0  0  0  0  0  0  0  0  0  0  0  # atno 8009 bound_to 7997
  156.2714  140.2767  156.1431 H   0  0  0  0  0  0  0  0  0  0  0  0  # atno 8010 bound_to 7997
  140.5891  143.2338  151.6179 H   0  0  0  0  0  0  0  0  0  0  0  0  # atno 10167 bound_to 10162
  157.5771  131.1078  150.8258 H   0  0  0  0  0  0  0  0  0  0  0  0  # atno 10718 bound_to 10713
  154.6487  135.2908  155.0014 H   0  0  0  0  0  0  0  0  0  0  0  0  # atno 10763 bound_to 10752
  154.1115  135.6562  153.4890 H   0  0  0  0  0  0  0  0  0  0  0  0  # atno 10764 bound_to 10752
  153.0364  135.5266  154.7385 H   0  0  0  0  0  0  0  0  0  0  0  0  # atno 10765 bound_to 10752
  140.0206  134.9398  157.0467 H   0  0  0  0  0  0  0  0  0  0  0  0  # atno 11005 bound_to 11000
  146.2456  140.5370  142.8915 LP  0  0  0  0  0  0  0  0  0  0  0  0  # atno 17320 bound_to 7965
  144.8008  140.6209  143.6479 LP  0  0  0  0  0  0  0  0  0  0  0  0  # atno 17321 bound_to 7965
  139.5216  144.3188  152.0929 LP  0  0  0  0  0  0  0  0  0  0  0  0  # atno 17342 bound_to 10162
  140.2350  144.4329  150.6284 LP  0  0  0  0  0  0  0  0  0  0  0  0  # atno 17343 bound_to 10162
  156.8714  130.5147  149.5296 LP  0  0  0  0  0  0  0  0  0  0  0  0  # atno 17370 bound_to 10713
  156.0816  130.5825  150.9573 LP  0  0  0  0  0  0  0  0  0  0  0  0  # atno 17371 bound_to 10713
  140.4393  134.1698  155.7173 LP  0  0  0  0  0  0  0  0  0  0  0  0  # atno 17394 bound_to 11000
  141.1771  133.8490  157.1383 LP  0  0  0  0  0  0  0  0  0  0  0  0  # atno 17395 bound_to 11000

$$$$
