AV-unprocessed.smi:297|AV-procd|sdf|2259|dock5
  -GOLD-   2262022143D 1   1.00000     0.00000
 Structure written by MMmdl.
 29 30  0  0  0  0  0  0  0  0  1 V2000
  154.7134  139.6142  161.0201 N   0  0  0  0  0  0  0  0  0  0  0  0
  153.9095  140.2699  160.5069 C   0  0  0  0  0  0  0  0  0  0  0  0
  152.8993  141.0946  159.8619 C   0  0  0  0  0  0  0  0  0  0  0  0
  152.3175  140.5820  158.7549 N   0  0  0  0  0  0  0  0  0  0  0  0
  151.3674  141.3070  158.1183 C   0  0  0  0  0  0  0  0  0  0  0  0
  150.7677  140.7613  156.9747 N   0  0  0  0  0  0  0  0  0  0  0  0
  150.3730  141.7605  155.9907 C   0  0  0  0  0  0  0  0  0  0  0  0
  149.6169  141.0855  154.8353 C   0  0  0  0  0  0  0  0  0  0  0  0
  150.4309  140.0637  154.2677 O   0  0  0  0  0  0  0  0  0  0  0  0
  150.7605  139.0396  155.2088 C   0  0  1  0  0  0  0  0  0  0  0  0
  151.5728  137.9476  154.4967 C   0  0  0  0  0  0  0  0  0  0  0  0
  150.9693  137.2760  153.5117 N   0  0  0  0  0  0  0  0  0  0  0  0
  152.7271  137.6958  154.8383 O   0  0  0  0  0  0  0  0  0  0  0  0
  151.5361  139.6699  156.3878 C   0  0  0  0  0  0  0  0  0  0  0  0
  150.9599  142.5800  158.5646 C   0  0  0  0  0  0  0  0  0  0  0  0
  151.5660  143.1164  159.7156 C   0  0  0  0  0  0  0  0  0  0  0  0
  152.5543  142.3665  160.3823 C   0  0  0  0  0  0  0  0  0  0  0  0
  153.3026  143.0203  161.7996 Cl  0  0  0  0  0  0  0  0  0  0  0  0
  149.7416  142.5144  156.4624 H   0  0  0  0  0  0  0  0  0  0  0  0
  151.2563  142.2720  155.6055 H   0  0  0  0  0  0  0  0  0  0  0  0
  148.6716  140.6638  155.1805 H   0  0  0  0  0  0  0  0  0  0  0  0
  149.3773  141.8179  154.0645 H   0  0  0  0  0  0  0  0  0  0  0  0
  149.8405  138.5800  155.5741 H   0  0  0  0  0  0  0  0  0  0  0  0
  151.4687  136.5468  153.0233 H   0  0  0  0  0  0  0  0  0  0  0  0
  150.0158  137.4965  153.2640 H   0  0  0  0  0  0  0  0  0  0  0  0
  152.5018  140.0445  156.0438 H   0  0  0  0  0  0  0  0  0  0  0  0
  151.7355  138.9194  157.1543 H   0  0  0  0  0  0  0  0  0  0  0  0
  150.1981  143.1357  158.0373 H   0  0  0  0  0  0  0  0  0  0  0  0
  151.2752  144.0902  160.0815 H   0  0  0  0  0  0  0  0  0  0  0  0
  1  2  3  0  0  0  0
  2  3  1  0  0  0  0
  3 17  1  0  0  0  0
  3  4  2  0  0  0  0
  4  5  1  0  0  0  0
  5  6  1  0  0  0  0
  5 15  2  0  0  0  0
  6 14  1  0  0  0  0
  6  7  1  0  0  0  0
  7  8  1  0  0  0  0
  7 19  1  0  0  0  0
  7 20  1  0  0  0  0
  8  9  1  0  0  0  0
  8 21  1  0  0  0  0
  8 22  1  0  0  0  0
  9 10  1  0  0  0  0
 10 11  1  0  0  0  0
 10 14  1  0  0  0  0
 10 23  1  0  0  0  0
 11 12  1  0  0  0  0
 11 13  2  0  0  0  0
 12 24  1  0  0  0  0
 12 25  1  0  0  0  0
 14 26  1  0  0  0  0
 14 27  1  0  0  0  0
 15 16  1  0  0  0  0
 15 28  1  0  0  0  0
 16 17  2  0  0  0  0
 16 29  1  0  0  0  0
 17 18  1  0  0  0  0
M  END
> <s_m_source_file>
AV-unprocessed.smi

> <i_m_source_file_index>
297

> <i_lp_mmshare_version>
43012

> <i_f3d_flags>
0

> <s_epik_input>
TiNDYzFuYyhbY0hdW2NIXWMxQ2wpTjJbQ0gyXVtDSDJdT1tDQEhdKFtDSDJdMilDKD1PKVtOSDJd

> <s_epik_cmdline>
J2VwaWtfcHl0aG9uJywgJy1waCcsICc3LjAnLCAnLXRuJywgJzgnLCAnLW1hJywgJzIwMCcsICctbWV0YWxfYmluZGluZycsICctaW1hZScsICc8aW5maWxlLm1hZT4nLCAnLW9tYWUnLCAnPG91dGZpbGUubWFlPic=

> <r_lp_tautomer_probability>
1

> <r_epik_Ionization_Penalty>
8.82403e-08

> <r_epik_Ionization_Penalty_Charging>
0

> <r_epik_Ionization_Penalty_Neutral>
8.82403e-08

> <r_epik_State_Penalty>
-0

> <r_epik_Charging_Adjusted_Penalty>
0

> <i_epik_Tot_Q>
0

> <i_epik_Tot_abs_Q>
0

> <r_epik_Metal_State_Penalty>
-0

> <b_epik_Metal_Only>
0

> <s_lp_Force_Field>
OPLS_2005

> <r_lp_Energy>
18.8034

> <b_lp_Chiralities_Consistent>
1

> <s_lp_Variant>
AV-unprocessed.smi:297-1

> <Gold.Version>
5.8.1

> <Gold.Id.Protein>
6NUR|6NUR_protein|mol2

> <Gold.PLP.Fitness>
39.4008

> <Gold.PLP.PLP>
-34.0020

> <Gold.PLP.part.hbond>
-3.5615

> <Gold.PLP.part.metal>
0.0000

> <Gold.PLP.part.buried>
-4.4359

> <Gold.PLP.part.nonpolar>
-27.0159

> <Gold.PLP.part.repulsive>
0.2934

> <Gold.PLP.ligand.clash>
0.0000

> <Gold.PLP.ligand.torsion>
0.6348

> <Gold.PLP.Chemscore.Hbond>
2.1883

> <Gold.PLP.Chemscore.CHOScore>
0.0000

> <Gold.PLP.Chemscore.Metal>
0.0000

> <Gold.Chemscore.Hbonds>
donor molecule, donor type, donor heavy atom, donor atom, acceptor molecule, acceptor atom, score
      L1  H    12    24       P1  7949  0.54
      L1  H    12    25       P1  7948  0.29
      P1  H  7989  7998       L1     9  1.00
      P1  H 10752 10763       L1    13  0.36

> <Gold.PLP.Chemscore.Internal.Correction>
0.1034

> <Gold.Rescore>
     Score         DG    S(hbond)    S(metal)    S(lipo)     H(rot)  DE(clash)    DE(int)     intcor
     16.18     -17.05       1.97        0.00      75.40       1.50       0.06       0.81       ----

> <Gold.Chemscore.Fitness>
16.1842

> <Gold.Chemscore.DG>
-17.0512

> <Gold.Chemscore.ZeroCoef>
-5.4800

> <Gold.Chemscore.Hbond>
1.9735

> <Gold.Chemscore.Metal>
0.0000

> <Gold.Chemscore.Lipo>
75.3955

> <Gold.Chemscore.Internal_Hbond>
0.0000

> <Gold.Chemscore.DEClash>
0.0550

> <Gold.Chemscore.DEInternal>
0.8120

> <Gold.Chemscore.Rot>
1.5006

> <Gold.Chemscore.Internal.Correction>
   9.000000E+99

> <Gold.Chemscore.Hbonds>
donor molecule, donor type, donor heavy atom, donor atom, acceptor molecule, acceptor atom, score
      L1  H    12    24       P1  7949  0.49
      L1  H    12    25       P1  7948  0.08
      P1  H  7989  7998       L1     9  0.48
      P1  H 10752 10763       L1    13  0.20

> <Gold.Chemscore.Hbond.Weighted>
-6.5916

> <Gold.Chemscore.Metal.Weighted>
-0.0000

> <Gold.Chemscore.Lipo.Weighted>
-8.8213

> <Gold.Chemscore.Internal_Hbond.Weighted>
0.0000

> <Gold.Chemscore.DEClash.Weighted>
0.0550

> <Gold.Chemscore.DEInternal.Weighted>
0.8120

> <Gold.Chemscore.Rot.Weighted>
3.8416

> <Gold.Chemscore.Internal.Correction.Weighted>
   9.000000E+99

> <Gold.Protein.RotatedTorsions>
[ 6907 6896 6895 6894 ] final   22.37 input  -60.11 | X-H torsion
[ 7974 7965 7964 7962 ] final   91.66 input  175.53 | X-H torsion
[ 8008 7997 7996 7995 ] final -157.92 input   59.86 | X-H torsion
[ 10167 10162 10161 10158 ] final  153.13 input  -65.29 | X-H torsion
[ 10718 10713 10712 10709 ] final   95.69 input   66.30 | X-H torsion
[ 10763 10752 10751 10750 ] final   55.73 input  -60.55 | X-H torsion
[ 11005 11000 10999 10996 ] final  -35.89 input  -57.11 | X-H torsion

> <Gold.Protein.ActiveResidues>
 VAL166  LYS551  ARG553  GLY616  TRP617  ASP618  TYR619  PRO620  LYS621  CYS622 
 ASP623  PHE694  ASN695  SER759  ASP760  ASP761  ALA762  ILE779  LEU786  VAL792 
 PHE793  MET794  SER795  GLU796  ALA797  LYS798  CYS799  TRP800  GLU811  SER814 

> <Gold.Protein.RotatedAtoms>
  151.9261  135.0277  160.0525 H   0  0  0  0  0  0  0  0  0  0  0  0  # atno 6907 bound_to 6896
  152.2158  133.4941  159.5143 H   0  0  0  0  0  0  0  0  0  0  0  0  # atno 6908 bound_to 6896
  150.6987  134.1324  159.4117 H   0  0  0  0  0  0  0  0  0  0  0  0  # atno 6909 bound_to 6896
  145.5027  139.2276  143.2768 H   0  0  0  0  0  0  0  0  0  0  0  0  # atno 7974 bound_to 7965
  155.7398  140.0812  157.2251 H   0  0  0  0  0  0  0  0  0  0  0  0  # atno 8008 bound_to 7997
  154.4023  140.1580  156.2658 H   0  0  0  0  0  0  0  0  0  0  0  0  # atno 8009 bound_to 7997
  155.9031  140.3408  155.6044 H   0  0  0  0  0  0  0  0  0  0  0  0  # atno 8010 bound_to 7997
  139.4829  144.5300  151.7739 H   0  0  0  0  0  0  0  0  0  0  0  0  # atno 10167 bound_to 10162
  157.6936  131.0554  150.4377 H   0  0  0  0  0  0  0  0  0  0  0  0  # atno 10718 bound_to 10713
  152.9821  135.5701  154.5114 H   0  0  0  0  0  0  0  0  0  0  0  0  # atno 10763 bound_to 10752
  154.4617  135.2781  155.1710 H   0  0  0  0  0  0  0  0  0  0  0  0  # atno 10764 bound_to 10752
  154.3295  135.6252  153.5598 H   0  0  0  0  0  0  0  0  0  0  0  0  # atno 10765 bound_to 10752
  140.9831  133.7045  156.1719 H   0  0  0  0  0  0  0  0  0  0  0  0  # atno 11005 bound_to 11000
  146.2216  140.5828  142.9015 LP  0  0  0  0  0  0  0  0  0  0  0  0  # atno 17320 bound_to 7965
  144.7771  140.5763  143.6630 LP  0  0  0  0  0  0  0  0  0  0  0  0  # atno 17321 bound_to 7965
  140.4824  144.1430  150.5935 LP  0  0  0  0  0  0  0  0  0  0  0  0  # atno 17342 bound_to 10162
  140.4262  143.2589  151.9653 LP  0  0  0  0  0  0  0  0  0  0  0  0  # atno 17343 bound_to 10162
  156.4738  130.4058  149.6502 LP  0  0  0  0  0  0  0  0  0  0  0  0  # atno 17370 bound_to 10713
  156.3573  130.7463  151.2431 LP  0  0  0  0  0  0  0  0  0  0  0  0  # atno 17371 bound_to 10713
  140.7155  134.4415  157.5579 LP  0  0  0  0  0  0  0  0  0  0  0  0  # atno 17394 bound_to 11000
  139.8959  134.8672  156.2112 LP  0  0  0  0  0  0  0  0  0  0  0  0  # atno 17395 bound_to 11000

$$$$
