AV-unprocessed.smi:1840|AV-procd|sdf|7493|dock10
  -GOLD-   22720 9193D 1   1.00000     0.00000
 Structure written by MMmdl.
 43 44  0  0  0  0  0  0  0  0  1 V2000
  152.3007  136.6622  155.5990 C   0  0  0  0  0  0  0  0  0  0  0  0
  150.7918  136.4479  155.4180 C   0  0  1  0  0  0  0  0  0  0  0  0
  150.0450  137.7903  155.2709 C   0  0  0  0  0  0  0  0  0  0  0  0
  150.7514  138.7340  154.4212 N   0  0  0  0  0  0  0  0  0  0  0  0
  151.1882  138.5589  153.1249 C   0  0  0  0  0  0  0  0  0  0  0  0
  151.8105  139.7137  152.7462 C   0  0  0  0  0  0  0  0  0  0  0  0
  151.6962  140.5500  153.8913 C   0  0  0  0  0  0  0  0  0  0  0  0
  151.0597  139.9622  154.8914 N   0  0  0  0  0  0  0  0  0  0  0  0
  150.5676  135.5989  154.2483 N   0  0  0  0  0  0  0  0  0  0  0  0
  151.0325  134.3511  154.0900 C   0  0  0  0  0  0  0  0  0  0  0  0
  151.7413  133.7683  154.9108 O   0  0  0  0  0  0  0  0  0  0  0  0
  150.6132  133.8103  152.9371 N   0  0  0  0  0  0  0  0  0  0  0  0
  150.9162  132.4585  152.4618 C   0  0  2  0  0  0  0  0  0  0  0  0
  151.4091  132.5147  151.0012 C   0  0  0  0  0  0  0  0  0  0  0  0
  150.2813  132.8701  150.0169 C   0  0  0  0  0  0  0  0  0  0  0  0
  149.0917  131.9099  150.1642 C   0  0  0  0  0  0  0  0  0  0  0  0
  148.5777  131.8760  151.6120 C   0  0  0  0  0  0  0  0  0  0  0  0
  149.6998  131.5065  152.6040 C   0  0  2  0  0  0  0  0  0  0  0  0
  149.1670  131.4119  154.0439 C   0  0  0  0  0  0  0  0  0  0  0  0
  152.5074  137.2738  156.4777 H   0  0  0  0  0  0  0  0  0  0  0  0
  152.7375  137.1636  154.7347 H   0  0  0  0  0  0  0  0  0  0  0  0
  152.8195  135.7120  155.7313 H   0  0  0  0  0  0  0  0  0  0  0  0
  150.4293  135.9468  156.3175 H   0  0  0  0  0  0  0  0  0  0  0  0
  149.0604  137.6229  154.8324 H   0  0  0  0  0  0  0  0  0  0  0  0
  149.8755  138.2434  156.2493 H   0  0  0  0  0  0  0  0  0  0  0  0
  151.0279  137.6348  152.5897 H   0  0  0  0  0  0  0  0  0  0  0  0
  152.2780  139.9273  151.7966 H   0  0  0  0  0  0  0  0  0  0  0  0
  152.0572  141.5589  154.0260 H   0  0  0  0  0  0  0  0  0  0  0  0
  149.9882  135.9829  153.5163 H   0  0  0  0  0  0  0  0  0  0  0  0
  150.0247  134.3731  152.3408 H   0  0  0  0  0  0  0  0  0  0  0  0
  151.7345  132.0492  153.0569 H   0  0  0  0  0  0  0  0  0  0  0  0
  152.2275  133.2291  150.9051 H   0  0  0  0  0  0  0  0  0  0  0  0
  151.8241  131.5436  150.7276 H   0  0  0  0  0  0  0  0  0  0  0  0
  149.9486  133.8942  150.1895 H   0  0  0  0  0  0  0  0  0  0  0  0
  150.6587  132.8380  148.9946 H   0  0  0  0  0  0  0  0  0  0  0  0
  148.2874  132.2090  149.4915 H   0  0  0  0  0  0  0  0  0  0  0  0
  149.3919  130.9064  149.8598 H   0  0  0  0  0  0  0  0  0  0  0  0
  148.1547  132.8472  151.8722 H   0  0  0  0  0  0  0  0  0  0  0  0
  147.7617  131.1569  151.6900 H   0  0  0  0  0  0  0  0  0  0  0  0
  150.0478  130.5074  152.3367 H   0  0  0  0  0  0  0  0  0  0  0  0
  148.7197  132.3517  154.3670 H   0  0  0  0  0  0  0  0  0  0  0  0
  149.9651  131.1631  154.7437 H   0  0  0  0  0  0  0  0  0  0  0  0
  148.4017  130.6402  154.1277 H   0  0  0  0  0  0  0  0  0  0  0  0
  1  2  1  0  0  0  0
  1 20  1  0  0  0  0
  1 21  1  0  0  0  0
  1 22  1  0  0  0  0
  2  3  1  0  0  0  0
  2  9  1  0  0  0  0
  2 23  1  0  0  0  0
  3  4  1  0  0  0  0
  3 24  1  0  0  0  0
  3 25  1  0  0  0  0
  4  8  1  0  0  0  0
  4  5  1  0  0  0  0
  5  6  2  0  0  0  0
  5 26  1  0  0  0  0
  6  7  1  0  0  0  0
  6 27  1  0  0  0  0
  7  8  2  0  0  0  0
  7 28  1  0  0  0  0
  9 10  1  0  0  0  0
  9 29  1  0  0  0  0
 10 11  2  0  0  0  0
 10 12  1  0  0  0  0
 12 13  1  0  0  0  0
 12 30  1  0  0  0  0
 13 18  1  0  0  0  0
 13 14  1  0  0  0  0
 13 31  1  0  0  0  0
 14 15  1  0  0  0  0
 14 32  1  0  0  0  0
 14 33  1  0  0  0  0
 15 16  1  0  0  0  0
 15 34  1  0  0  0  0
 15 35  1  0  0  0  0
 16 17  1  0  0  0  0
 16 36  1  0  0  0  0
 16 37  1  0  0  0  0
 17 18  1  0  0  0  0
 17 38  1  0  0  0  0
 17 39  1  0  0  0  0
 18 19  1  0  0  0  0
 18 40  1  0  0  0  0
 19 41  1  0  0  0  0
 19 42  1  0  0  0  0
 19 43  1  0  0  0  0
M  END
> <s_m_source_file>
AV-unprocessed.smi

> <i_m_source_file_index>
1840

> <i_lp_mmshare_version>
43012

> <i_f3d_flags>
0

> <s_epik_input>
bjFbY0hdW2NIXVtjSF1uMVtDSDJdW0NAQEhdKFtDSDNdKVtOSF1DKD1PKVtOSF1bQ0BASF0yW0NIMl1bQ0gyXVtDSDJdW0NIMl1bQ0BIXTJbQ0gzXQ==

> <s_epik_cmdline>
J2VwaWtfcHl0aG9uJywgJy1waCcsICc3LjAnLCAnLXRuJywgJzgnLCAnLW1hJywgJzIwMCcsICctbWV0YWxfYmluZGluZycsICctaW1hZScsICc8aW5maWxlLm1hZT4nLCAnLW9tYWUnLCAnPG91dGZpbGUubWFlPic=

> <r_lp_tautomer_probability>
1

> <r_epik_Ionization_Penalty>
7.38659e-05

> <r_epik_Ionization_Penalty_Charging>
0

> <r_epik_Ionization_Penalty_Neutral>
7.38659e-05

> <r_epik_State_Penalty>
-0

> <r_epik_Charging_Adjusted_Penalty>
0

> <i_epik_Tot_Q>
0

> <i_epik_Tot_abs_Q>
0

> <r_epik_Metal_State_Penalty>
-0

> <b_epik_Metal_Only>
0

> <s_lp_Force_Field>
OPLS_2005

> <r_lp_Energy>
6.71394

> <b_lp_Chiralities_Consistent>
1

> <s_lp_Variant>
AV-unprocessed.smi:1840-6

> <Gold.Version>
5.8.1

> <Gold.Id.Protein>
6NUR|6NUR_protein|mol2

> <Gold.PLP.Fitness>
-266.4847

> <Gold.PLP.PLP>
270.1202

> <Gold.PLP.part.hbond>
-5.9648

> <Gold.PLP.part.metal>
0.0000

> <Gold.PLP.part.buried>
114.5320

> <Gold.PLP.part.nonpolar>
183.8087

> <Gold.PLP.part.repulsive>
0.2709

> <Gold.PLP.ligand.clash>
0.0000

> <Gold.PLP.ligand.torsion>
0.3497

> <Gold.PLP.Chemscore.Hbond>
0.5729

> <Gold.PLP.Chemscore.CHOScore>
0.8651

> <Gold.PLP.Chemscore.Metal>
0.0000

> <Gold.Chemscore.Hbonds>
donor molecule, donor type, donor heavy atom, donor atom, acceptor molecule, acceptor atom, score
      L1  H     9    29       P1  7948  0.55
      P1  H 10752 10764       L1    11  0.02
      L1  C     5    26       P1  7949  0.87

> <Gold.PLP.Chemscore.Internal.Correction>
0.0207

> <Gold.Rescore>
     Score         DG    S(hbond)    S(metal)    S(lipo)     H(rot)  DE(clash)    DE(int)     intcor
      6.56      -9.20       0.00        0.00      65.91       1.56       1.37       1.27       ----

> <Gold.Chemscore.Fitness>
6.5635

> <Gold.Chemscore.DG>
-9.2035

> <Gold.Chemscore.ZeroCoef>
-5.4800

> <Gold.Chemscore.Hbond>
0.0000

> <Gold.Chemscore.Metal>
0.0000

> <Gold.Chemscore.Lipo>
65.9062

> <Gold.Chemscore.Internal_Hbond>
0.0000

> <Gold.Chemscore.DEClash>
1.3746

> <Gold.Chemscore.DEInternal>
1.2654

> <Gold.Chemscore.Rot>
1.5576

> <Gold.Chemscore.Internal.Correction>
   9.000000E+99

> <Gold.Chemscore.Hbonds>
donor molecule, donor type, donor heavy atom, donor atom, acceptor molecule, acceptor atom, score
      L1  H     9    29       P1  7948  0.03

> <Gold.Chemscore.Hbond.Weighted>
-0.0000

> <Gold.Chemscore.Metal.Weighted>
-0.0000

> <Gold.Chemscore.Lipo.Weighted>
-7.7110

> <Gold.Chemscore.Internal_Hbond.Weighted>
0.0000

> <Gold.Chemscore.DEClash.Weighted>
1.3746

> <Gold.Chemscore.DEInternal.Weighted>
1.2654

> <Gold.Chemscore.Rot.Weighted>
3.9875

> <Gold.Chemscore.Internal.Correction.Weighted>
   9.000000E+99

> <Gold.Protein.RotatedTorsions>
[ 6907 6896 6895 6894 ] final  -99.49 input  -60.11 | X-H torsion
[ 7974 7965 7964 7962 ] final -100.10 input  175.53 | X-H torsion
[ 8008 7997 7996 7995 ] final -172.17 input   59.86 | X-H torsion
[ 10167 10162 10161 10158 ] final   16.27 input  -65.29 | X-H torsion
[ 10718 10713 10712 10709 ] final  -25.11 input   66.30 | X-H torsion
[ 10763 10752 10751 10750 ] final  -46.49 input  -60.55 | X-H torsion
[ 11005 11000 10999 10996 ] final   61.02 input  -57.11 | X-H torsion

> <Gold.Protein.ActiveResidues>
 VAL166  LYS551  ARG553  GLY616  TRP617  ASP618  TYR619  PRO620  LYS621  CYS622 
 ASP623  PHE694  ASN695  SER759  ASP760  ASP761  ALA762  ILE779  LEU786  VAL792 
 PHE793  MET794  SER795  GLU796  ALA797  LYS798  CYS799  TRP800  GLU811  SER814 

> <Gold.Protein.RotatedAtoms>
  150.7082  134.1033  159.3973 H   0  0  0  0  0  0  0  0  0  0  0  0  # atno 6907 bound_to 6896
  151.9019  135.0372  160.0516 H   0  0  0  0  0  0  0  0  0  0  0  0  # atno 6908 bound_to 6896
  152.2407  133.5097  159.5305 H   0  0  0  0  0  0  0  0  0  0  0  0  # atno 6909 bound_to 6896
  145.2990  140.9372  143.2834 H   0  0  0  0  0  0  0  0  0  0  0  0  # atno 7974 bound_to 7965
  155.9411  140.1109  157.1054 H   0  0  0  0  0  0  0  0  0  0  0  0  # atno 8008 bound_to 7997
  154.4089  140.1219  156.4994 H   0  0  0  0  0  0  0  0  0  0  0  0  # atno 8009 bound_to 7997
  155.6960  140.3472  155.4915 H   0  0  0  0  0  0  0  0  0  0  0  0  # atno 8010 bound_to 7997
  140.5809  143.8983  150.6789 H   0  0  0  0  0  0  0  0  0  0  0  0  # atno 10167 bound_to 10162
  156.4687  130.4519  149.6883 H   0  0  0  0  0  0  0  0  0  0  0  0  # atno 10718 bound_to 10713
  154.0459  135.6638  153.4795 H   0  0  0  0  0  0  0  0  0  0  0  0  # atno 10763 bound_to 10752
  153.0483  135.5100  154.7798 H   0  0  0  0  0  0  0  0  0  0  0  0  # atno 10764 bound_to 10752
  154.6788  135.3041  154.9607 H   0  0  0  0  0  0  0  0  0  0  0  0  # atno 10765 bound_to 10752
  140.0191  134.6180  155.9666 H   0  0  0  0  0  0  0  0  0  0  0  0  # atno 11005 bound_to 11000
  144.9110  139.4529  143.6587 LP  0  0  0  0  0  0  0  0  0  0  0  0  # atno 17320 bound_to 7965
  146.3159  139.7917  142.8984 LP  0  0  0  0  0  0  0  0  0  0  0  0  # atno 17321 bound_to 7965
  140.2482  143.3613  152.1429 LP  0  0  0  0  0  0  0  0  0  0  0  0  # atno 17342 bound_to 10162
  139.5169  144.6984  151.5564 LP  0  0  0  0  0  0  0  0  0  0  0  0  # atno 17343 bound_to 10162
  156.3641  130.7496  151.2472 LP  0  0  0  0  0  0  0  0  0  0  0  0  # atno 17370 bound_to 10713
  157.7493  131.0342  150.4306 LP  0  0  0  0  0  0  0  0  0  0  0  0  # atno 17371 bound_to 10713
  141.1762  133.6540  156.4838 LP  0  0  0  0  0  0  0  0  0  0  0  0  # atno 17394 bound_to 11000
  140.4419  134.7008  157.4996 LP  0  0  0  0  0  0  0  0  0  0  0  0  # atno 17395 bound_to 11000

$$$$
