AV-unprocessed.smi:2090|AV-procd|sdf|8534|dock7
  -GOLD-   2272011253D 1   1.00000     0.00000
 Structure written by MMmdl.
 41 42  0  0  0  0  0  0  0  0  3 V2000
  152.5328  141.4471  158.9858 C   0  0  0  0  0  0  0  0  0  0  0  0
  152.0333  140.9460  157.6736 C   0  0  0  0  0  0  0  0  0  0  0  0
  151.0536  141.3808  156.8266 C   0  0  0  0  0  0  0  0  0  0  0  0
  151.1128  140.4483  155.7551 C   0  0  0  0  0  0  0  0  0  0  0  0
  150.3275  140.4479  154.6666 N   0  5  0  0  0  0  0  0  0  0  0  0
  149.0967  139.8890  154.7161 C   0  0  0  0  0  0  0  0  0  0  0  0
  148.4873  139.5448  155.7314 O   0  0  0  0  0  0  0  0  0  0  0  0
  148.5352  139.7159  153.5124 N   0  0  0  0  0  0  0  0  0  0  0  0
  147.2204  139.1354  153.2784 C   0  0  0  0  0  0  0  0  0  0  0  0
  147.0939  137.7853  154.0005 C   0  0  0  0  0  0  0  0  0  0  0  0
  146.7487  136.6822  153.0694 N   0  3  2  0  0  0  0  0  0  0  0  0
  145.6952  137.0737  152.0978 C   0  0  0  0  0  0  0  0  0  0  0  0
  145.4573  135.9656  151.0579 C   0  0  0  0  0  0  0  0  0  0  0  0
  145.0918  134.6336  151.7337 C   0  0  1  0  0  0  0  0  0  0  0  0
  144.8848  133.5125  150.7054 C   0  0  0  0  0  0  0  0  0  0  0  0
  146.1790  134.2721  152.7598 C   0  0  0  0  0  0  0  0  0  0  0  0
  146.4022  135.4146  153.7653 C   0  0  0  0  0  0  0  0  0  0  0  0
  152.0344  139.5187  155.9441 N   0  0  0  0  0  0  0  0  0  0  0  0
  152.6350  139.8356  157.1685 O   0  0  0  0  0  0  0  0  0  0  0  0
  151.7028  141.6452  159.6638 H   0  0  0  0  0  0  0  0  0  0  0  0
  153.0930  142.3731  158.8558 H   0  0  0  0  0  0  0  0  0  0  0  0
  153.1895  140.7181  159.4612 H   0  0  0  0  0  0  0  0  0  0  0  0
  150.4012  142.2322  156.9503 H   0  0  0  0  0  0  0  0  0  0  0  0
  149.0631  140.0133  152.7047 H   0  0  0  0  0  0  0  0  0  0  0  0
  146.4491  139.8201  153.6353 H   0  0  0  0  0  0  0  0  0  0  0  0
  147.0824  139.0235  152.2028 H   0  0  0  0  0  0  0  0  0  0  0  0
  148.0107  137.5428  154.5406 H   0  0  0  0  0  0  0  0  0  0  0  0
  146.3095  137.8806  154.7531 H   0  0  0  0  0  0  0  0  0  0  0  0
  144.7701  137.2958  152.6320 H   0  0  0  0  0  0  0  0  0  0  0  0
  145.9908  137.9876  151.5808 H   0  0  0  0  0  0  0  0  0  0  0  0
  144.6628  136.2682  150.3750 H   0  0  0  0  0  0  0  0  0  0  0  0
  146.3545  135.8391  150.4499 H   0  0  0  0  0  0  0  0  0  0  0  0
  144.1509  134.7704  152.2691 H   0  0  0  0  0  0  0  0  0  0  0  0
  145.7915  133.3300  150.1278 H   0  0  0  0  0  0  0  0  0  0  0  0
  144.0890  133.7652  150.0042 H   0  0  0  0  0  0  0  0  0  0  0  0
  144.6081  132.5780  151.1945 H   0  0  0  0  0  0  0  0  0  0  0  0
  145.8997  133.3639  153.2953 H   0  0  0  0  0  0  0  0  0  0  0  0
  147.1160  134.0518  152.2463 H   0  0  0  0  0  0  0  0  0  0  0  0
  147.1980  135.1273  154.4517 H   0  0  0  0  0  0  0  0  0  0  0  0
  145.5051  135.5628  154.3685 H   0  0  0  0  0  0  0  0  0  0  0  0
  147.5800  136.5024  152.5244 H   0  0  0  0  0  0  0  0  0  0  0  0
  1  2  1  0  0  0  0
  1 20  1  0  0  0  0
  1 21  1  0  0  0  0
  1 22  1  0  0  0  0
  2 19  1  0  0  0  0
  2  3  2  0  0  0  0
  3  4  1  0  0  0  0
  3 23  1  0  0  0  0
  4  5  1  0  0  0  0
  4 18  2  0  0  0  0
  5  6  1  0  0  0  0
  6  7  2  0  0  0  0
  6  8  1  0  0  0  0
  8  9  1  0  0  0  0
  8 24  1  0  0  0  0
  9 10  1  0  0  0  0
  9 25  1  0  0  0  0
  9 26  1  0  0  0  0
 10 11  1  0  0  0  0
 10 27  1  0  0  0  0
 10 28  1  0  0  0  0
 11 17  1  0  0  0  0
 11 12  1  0  0  0  0
 11 41  1  0  0  0  0
 12 13  1  0  0  0  0
 12 29  1  0  0  0  0
 12 30  1  0  0  0  0
 13 14  1  0  0  0  0
 13 31  1  0  0  0  0
 13 32  1  0  0  0  0
 14 15  1  0  0  0  0
 14 16  1  0  0  0  0
 14 33  1  0  0  0  0
 15 34  1  0  0  0  0
 15 35  1  0  0  0  0
 15 36  1  0  0  0  0
 16 17  1  0  0  0  0
 16 37  1  0  0  0  0
 16 38  1  0  0  0  0
 17 39  1  0  0  0  0
 17 40  1  0  0  0  0
 18 19  1  0  0  0  0
M  CHG  1   5  -1
M  CHG  1  11   1
M  END
> <s_m_source_file>
AV-unprocessed.smi

> <i_m_source_file_index>
2090

> <i_lp_mmshare_version>
43012

> <i_f3d_flags>
0

> <s_epik_input>
W0NIM11jMVtjSF1jKG5vMSlbTkhdQyg9TylbTkhdW0NIMl1bQ0gyXU4yW0NIMl1bQ0gyXVtDSF0oW0NIM10pW0NIMl1bQ0gyXTI=

> <s_epik_cmdline>
J2VwaWtfcHl0aG9uJywgJy1waCcsICc3LjAnLCAnLXRuJywgJzgnLCAnLW1hJywgJzIwMCcsICctbWV0YWxfYmluZGluZycsICctaW1hZScsICc8aW5maWxlLm1hZT4nLCAnLW9tYWUnLCAnPG91dGZpbGUubWFlPic=

> <r_epik_Ionization_Penalty>
6.22503

> <r_epik_Ionization_Penalty_Charging>
6.22494

> <r_epik_Ionization_Penalty_Neutral>
9.3589e-05

> <r_epik_State_Penalty>
6.22491

> <r_epik_Charging_Adjusted_Penalty>
12.4498

> <i_epik_Tot_Q>
0

> <i_epik_Tot_abs_Q>
2

> <r_epik_Metal_State_Penalty>
2.16853

> <b_epik_Metal_Only>
1

> <s_lp_Force_Field>
OPLS_2005

> <r_lp_Energy>
5.4778

> <b_lp_Chiralities_Consistent>
1

> <s_lp_Variant>
AV-unprocessed.smi:2090-3

> <Gold.Version>
5.8.1

> <Gold.Id.Protein>
6NUR|6NUR_protein|mol2

> <Gold.PLP.Fitness>
42.6500

> <Gold.PLP.PLP>
-30.5206

> <Gold.PLP.part.hbond>
-4.0000

> <Gold.PLP.part.metal>
0.0000

> <Gold.PLP.part.buried>
-3.8436

> <Gold.PLP.part.nonpolar>
-23.4686

> <Gold.PLP.part.repulsive>
0.2470

> <Gold.PLP.ligand.clash>
0.0000

> <Gold.PLP.ligand.torsion>
1.2714

> <Gold.PLP.Chemscore.Hbond>
4.8784

> <Gold.PLP.Chemscore.CHOScore>
0.0000

> <Gold.PLP.Chemscore.Metal>
0.0000

> <Gold.Chemscore.Hbonds>
donor molecule, donor type, donor heavy atom, donor atom, acceptor molecule, acceptor atom, score
      L1  H     8    24       P1  7957  1.00
      L1  H    11    41       P1  7948  2.00
      P1  H  7989  7998       L1     5  0.80
      P1  H  7997  8010       L1    19  1.00

> <Gold.PLP.Chemscore.Internal.Correction>
0.0369

> <Gold.Rescore>
     Score         DG    S(hbond)    S(metal)    S(lipo)     H(rot)  DE(clash)    DE(int)     intcor
     15.33     -17.95       2.68        0.00      63.89       1.54       0.04       2.58       ----

> <Gold.Chemscore.Fitness>
15.3323

> <Gold.Chemscore.DG>
-17.9494

> <Gold.Chemscore.ZeroCoef>
-5.4800

> <Gold.Chemscore.Hbond>
2.6765

> <Gold.Chemscore.Metal>
0.0000

> <Gold.Chemscore.Lipo>
63.8857

> <Gold.Chemscore.Internal_Hbond>
0.0000

> <Gold.Chemscore.DEClash>
0.0374

> <Gold.Chemscore.DEInternal>
2.5796

> <Gold.Chemscore.Rot>
1.5409

> <Gold.Chemscore.Internal.Correction>
   9.000000E+99

> <Gold.Chemscore.Hbonds>
donor molecule, donor type, donor heavy atom, donor atom, acceptor molecule, acceptor atom, score
      L1  H     8    24       P1  7957  0.99
      L1  H    11    41       P1  7948  0.94
      P1  H  7989  7998       L1     5  0.11
      P1  H  7997  8010       L1    19  0.39

> <Gold.Chemscore.Hbond.Weighted>
-8.9393

> <Gold.Chemscore.Metal.Weighted>
-0.0000

> <Gold.Chemscore.Lipo.Weighted>
-7.4746

> <Gold.Chemscore.Internal_Hbond.Weighted>
0.0000

> <Gold.Chemscore.DEClash.Weighted>
0.0374

> <Gold.Chemscore.DEInternal.Weighted>
2.5796

> <Gold.Chemscore.Rot.Weighted>
3.9446

> <Gold.Chemscore.Internal.Correction.Weighted>
   9.000000E+99

> <Gold.Protein.RotatedTorsions>
[ 6907 6896 6895 6894 ] final   69.46 input  -60.11 | X-H torsion
[ 7974 7965 7964 7962 ] final   44.21 input  175.53 | X-H torsion
[ 8008 7997 7996 7995 ] final   52.40 input   59.86 | X-H torsion
[ 10167 10162 10161 10158 ] final  112.72 input  -65.29 | X-H torsion
[ 10718 10713 10712 10709 ] final -104.01 input   66.30 | X-H torsion
[ 10763 10752 10751 10750 ] final   93.10 input  -60.55 | X-H torsion
[ 11005 11000 10999 10996 ] final -130.13 input  -57.11 | X-H torsion

> <Gold.Protein.ActiveResidues>
 VAL166  LYS551  ARG553  GLY616  TRP617  ASP618  TYR619  PRO620  LYS621  CYS622 
 ASP623  PHE694  ASN695  SER759  ASP760  ASP761  ALA762  ILE779  LEU786  VAL792 
 PHE793  MET794  SER795  GLU796  ALA797  LYS798  CYS799  TRP800  GLU811  SER814 

> <Gold.Protein.RotatedAtoms>
  152.4688  134.5012  159.9724 H   0  0  0  0  0  0  0  0  0  0  0  0  # atno 6907 bound_to 6896
  151.5043  133.3492  159.2882 H   0  0  0  0  0  0  0  0  0  0  0  0  # atno 6908 bound_to 6896
  150.8686  134.8083  159.7199 H   0  0  0  0  0  0  0  0  0  0  0  0  # atno 6909 bound_to 6896
  146.0588  139.5099  142.9671 H   0  0  0  0  0  0  0  0  0  0  0  0  # atno 7974 bound_to 7965
  155.4512  140.3458  155.4301 H   0  0  0  0  0  0  0  0  0  0  0  0  # atno 8008 bound_to 7997
  156.1219  140.1489  156.9222 H   0  0  0  0  0  0  0  0  0  0  0  0  # atno 8009 bound_to 7997
  154.4829  140.0864  156.7399 H   0  0  0  0  0  0  0  0  0  0  0  0  # atno 8010 bound_to 7997
  139.6514  144.7128  151.2040 H   0  0  0  0  0  0  0  0  0  0  0  0  # atno 10167 bound_to 10162
  156.0287  130.5494  150.7335 H   0  0  0  0  0  0  0  0  0  0  0  0  # atno 10718 bound_to 10713
  153.2266  135.4337  155.0548 H   0  0  0  0  0  0  0  0  0  0  0  0  # atno 10763 bound_to 10752
  154.8276  135.3369  154.6849 H   0  0  0  0  0  0  0  0  0  0  0  0  # atno 10764 bound_to 10752
  153.7278  135.7013  153.5053 H   0  0  0  0  0  0  0  0  0  0  0  0  # atno 10765 bound_to 10752
  140.9372  134.1241  157.4183 H   0  0  0  0  0  0  0  0  0  0  0  0  # atno 11005 bound_to 11000
  145.6597  141.0243  143.1716 LP  0  0  0  0  0  0  0  0  0  0  0  0  # atno 17320 bound_to 7965
  144.7163  139.8186  143.7397 LP  0  0  0  0  0  0  0  0  0  0  0  0  # atno 17321 bound_to 7965
  140.7539  143.6143  150.8575 LP  0  0  0  0  0  0  0  0  0  0  0  0  # atno 17342 bound_to 10162
  139.9792  143.5970  152.2948 LP  0  0  0  0  0  0  0  0  0  0  0  0  # atno 17343 bound_to 10162
  157.4921  131.0912  151.0414 LP  0  0  0  0  0  0  0  0  0  0  0  0  # atno 17370 bound_to 10713
  157.0818  130.5906  149.5422 LP  0  0  0  0  0  0  0  0  0  0  0  0  # atno 17371 bound_to 10713
  139.8811  135.0025  156.6129 LP  0  0  0  0  0  0  0  0  0  0  0  0  # atno 17394 bound_to 11000
  140.7783  133.8681  155.8547 LP  0  0  0  0  0  0  0  0  0  0  0  0  # atno 17395 bound_to 11000

$$$$
