AV-unprocessed.smi:2282|AV-procd|sdf|9197|dock4
  -GOLD-   2272012413D 1   1.00000     0.00000
 Structure written by MMmdl.
 32 33  0  0  0  0  0  0  0  0  1 V2000
  152.6719  143.2277  161.3711 C   0  0  0  0  0  0  0  0  0  0  0  0
  152.1713  142.9552  159.9649 C   0  0  0  0  0  0  0  0  0  0  0  0
  151.5187  143.9767  159.3686 N   0  0  0  0  0  0  0  0  0  0  0  0
  151.0453  143.7850  158.1205 C   0  0  0  0  0  0  0  0  0  0  0  0
  151.2024  142.5805  157.4088 C   0  0  0  0  0  0  0  0  0  0  0  0
  151.9001  141.5136  158.0237 C   0  0  0  0  0  0  0  0  0  0  0  0
  152.0963  140.2485  157.4034 N   0  0  0  0  0  0  0  0  0  0  0  0
  151.7531  139.8552  156.1632 C   0  0  0  0  0  0  0  0  0  0  0  0
  151.1903  140.5690  155.3325 O   0  0  0  0  0  0  0  0  0  0  0  0
  152.1159  138.4094  155.8046 C   0  0  2  0  0  0  0  0  0  0  0  0
  151.6355  137.9698  154.4091 C   0  0  0  0  0  0  0  0  0  0  0  0
  150.5035  137.0077  154.7082 C   0  0  0  0  0  0  0  0  0  0  0  0
  150.9398  136.4195  156.0451 C   0  0  2  0  0  0  0  0  0  0  0  0
  149.8041  135.7764  156.8475 C   0  0  0  0  0  0  0  0  0  0  0  0
  151.4609  137.5468  156.7330 O   0  0  0  0  0  0  0  0  0  0  0  0
  152.3836  141.7039  159.3397 C   0  0  0  0  0  0  0  0  0  0  0  0
  153.2241  140.4349  160.1668 Cl  0  0  0  0  0  0  0  0  0  0  0  0
  153.7550  143.1131  161.4165 H   0  0  0  0  0  0  0  0  0  0  0  0
  152.2206  142.5293  162.0760 H   0  0  0  0  0  0  0  0  0  0  0  0
  152.4265  144.2396  161.6959 H   0  0  0  0  0  0  0  0  0  0  0  0
  150.5176  144.6160  157.6766 H   0  0  0  0  0  0  0  0  0  0  0  0
  150.7761  142.4958  156.4214 H   0  0  0  0  0  0  0  0  0  0  0  0
  152.6269  139.5817  157.9452 H   0  0  0  0  0  0  0  0  0  0  0  0
  153.1945  138.2614  155.8823 H   0  0  0  0  0  0  0  0  0  0  0  0
  151.3166  138.7915  153.7664 H   0  0  0  0  0  0  0  0  0  0  0  0
  152.4412  137.4474  153.8917 H   0  0  0  0  0  0  0  0  0  0  0  0
  149.5678  137.5576  154.8197 H   0  0  0  0  0  0  0  0  0  0  0  0
  150.3680  136.2533  153.9328 H   0  0  0  0  0  0  0  0  0  0  0  0
  151.7465  135.7010  155.8896 H   0  0  0  0  0  0  0  0  0  0  0  0
  149.3778  134.9289  156.3106 H   0  0  0  0  0  0  0  0  0  0  0  0
  149.0022  136.4901  157.0395 H   0  0  0  0  0  0  0  0  0  0  0  0
  150.1645  135.4143  157.8104 H   0  0  0  0  0  0  0  0  0  0  0  0
  1  2  1  0  0  0  0
  1 18  1  0  0  0  0
  1 19  1  0  0  0  0
  1 20  1  0  0  0  0
  2 16  1  0  0  0  0
  2  3  2  0  0  0  0
  3  4  1  0  0  0  0
  4  5  2  0  0  0  0
  4 21  1  0  0  0  0
  5  6  1  0  0  0  0
  5 22  1  0  0  0  0
  6  7  1  0  0  0  0
  6 16  2  0  0  0  0
  7  8  1  0  0  0  0
  7 23  1  0  0  0  0
  8  9  2  0  0  0  0
  8 10  1  0  0  0  0
 10 15  1  0  0  0  0
 10 11  1  0  0  0  0
 10 24  1  0  0  0  0
 11 12  1  0  0  0  0
 11 25  1  0  0  0  0
 11 26  1  0  0  0  0
 12 13  1  0  0  0  0
 12 27  1  0  0  0  0
 12 28  1  0  0  0  0
 13 14  1  0  0  0  0
 13 15  1  0  0  0  0
 13 29  1  0  0  0  0
 14 30  1  0  0  0  0
 14 31  1  0  0  0  0
 14 32  1  0  0  0  0
 16 17  1  0  0  0  0
M  END
> <s_m_source_file>
AV-unprocessed.smi

> <i_m_source_file_index>
2282

> <i_lp_mmshare_version>
43012

> <i_f3d_flags>
0

> <s_epik_input>
W0NIM11jMW5bY0hdW2NIXWMoYzFDbClbTkhdQyg9TylbQ0BASF0yW0NIMl1bQ0gyXVtDQEhdKE8yKVtDSDNd

> <s_epik_cmdline>
J2VwaWtfcHl0aG9uJywgJy1waCcsICc3LjAnLCAnLXRuJywgJzgnLCAnLW1hJywgJzIwMCcsICctbWV0YWxfYmluZGluZycsICctaW1hZScsICc8aW5maWxlLm1hZT4nLCAnLW9tYWUnLCAnPG91dGZpbGUubWFlPic=

> <r_epik_Ionization_Penalty>
0.00037231

> <r_epik_Ionization_Penalty_Charging>
0

> <r_epik_Ionization_Penalty_Neutral>
0.00037231

> <r_epik_State_Penalty>
0.000225113

> <r_epik_Charging_Adjusted_Penalty>
0.000225113

> <i_epik_Tot_Q>
0

> <i_epik_Tot_abs_Q>
0

> <r_epik_Metal_State_Penalty>
-0

> <b_epik_Metal_Only>
0

> <s_lp_Force_Field>
OPLS_2005

> <r_lp_Energy>
23.9667

> <b_lp_Chiralities_Consistent>
1

> <s_lp_Variant>
AV-unprocessed.smi:2282-3

> <Gold.Version>
5.8.1

> <Gold.Id.Protein>
6NUR|6NUR_protein|mol2

> <Gold.PLP.Fitness>
38.8159

> <Gold.PLP.PLP>
-33.0341

> <Gold.PLP.part.hbond>
-1.0000

> <Gold.PLP.part.metal>
0.0000

> <Gold.PLP.part.buried>
-5.3103

> <Gold.PLP.part.nonpolar>
-27.5560

> <Gold.PLP.part.repulsive>
0.1942

> <Gold.PLP.ligand.clash>
0.0000

> <Gold.PLP.ligand.torsion>
0.0157

> <Gold.PLP.Chemscore.Hbond>
0.8960

> <Gold.PLP.Chemscore.CHOScore>
1.0392

> <Gold.PLP.Chemscore.Metal>
0.0000

> <Gold.Chemscore.Hbonds>
donor molecule, donor type, donor heavy atom, donor atom, acceptor molecule, acceptor atom, score
      P1  H  7989  7998       L1     9  0.90
      L1  C     4    21       P1  8028  0.93

> <Gold.PLP.Chemscore.Internal.Correction>
0.0077

> <Gold.Rescore>
     Score         DG    S(hbond)    S(metal)    S(lipo)     H(rot)  DE(clash)    DE(int)     intcor
     16.05     -17.39       0.98        0.00      95.65       1.00       0.05       1.28       ----

> <Gold.Chemscore.Fitness>
16.0537

> <Gold.Chemscore.DG>
-17.3851

> <Gold.Chemscore.ZeroCoef>
-5.4800

> <Gold.Chemscore.Hbond>
0.9804

> <Gold.Chemscore.Metal>
0.0000

> <Gold.Chemscore.Lipo>
95.6462

> <Gold.Chemscore.Internal_Hbond>
0.0000

> <Gold.Chemscore.DEClash>
0.0509

> <Gold.Chemscore.DEInternal>
1.2804

> <Gold.Chemscore.Rot>
1.0000

> <Gold.Chemscore.Internal.Correction>
   9.000000E+99

> <Gold.Chemscore.Hbonds>
donor molecule, donor type, donor heavy atom, donor atom, acceptor molecule, acceptor atom, score
      P1  H  7989  7998       L1     9  0.88

> <Gold.Chemscore.Hbond.Weighted>
-3.2745

> <Gold.Chemscore.Metal.Weighted>
-0.0000

> <Gold.Chemscore.Lipo.Weighted>
-11.1906

> <Gold.Chemscore.Internal_Hbond.Weighted>
0.0000

> <Gold.Chemscore.DEClash.Weighted>
0.0509

> <Gold.Chemscore.DEInternal.Weighted>
1.2804

> <Gold.Chemscore.Rot.Weighted>
2.5600

> <Gold.Chemscore.Internal.Correction.Weighted>
   9.000000E+99

> <Gold.Protein.RotatedTorsions>
[ 6907 6896 6895 6894 ] final   33.14 input  -60.11 | X-H torsion
[ 7974 7965 7964 7962 ] final   -0.02 input  175.53 | X-H torsion
[ 8008 7997 7996 7995 ] final -116.09 input   59.86 | X-H torsion
[ 10167 10162 10161 10158 ] final   41.79 input  -65.29 | X-H torsion
[ 10718 10713 10712 10709 ] final   83.91 input   66.30 | X-H torsion
[ 10763 10752 10751 10750 ] final  -45.84 input  -60.55 | X-H torsion
[ 11005 11000 10999 10996 ] final    6.03 input  -57.11 | X-H torsion

> <Gold.Protein.ActiveResidues>
 VAL166  LYS551  ARG553  GLY616  TRP617  ASP618  TYR619  PRO620  LYS621  CYS622 
 ASP623  PHE694  ASN695  SER759  ASP760  ASP761  ALA762  ILE779  LEU786  VAL792 
 PHE793  MET794  SER795  GLU796  ALA797  LYS798  CYS799  TRP800  GLU811  SER814 

> <Gold.Protein.RotatedAtoms>
  152.0844  134.9449  160.0572 H   0  0  0  0  0  0  0  0  0  0  0  0  # atno 6907 bound_to 6896
  152.0726  133.4109  159.4474 H   0  0  0  0  0  0  0  0  0  0  0  0  # atno 6908 bound_to 6896
  150.6836  134.2994  159.4743 H   0  0  0  0  0  0  0  0  0  0  0  0  # atno 6909 bound_to 6896
  146.2431  140.1206  142.8340 H   0  0  0  0  0  0  0  0  0  0  0  0  # atno 7974 bound_to 7965
  155.0623  140.0393  157.2581 H   0  0  0  0  0  0  0  0  0  0  0  0  # atno 8008 bound_to 7997
  154.7049  140.2681  155.6659 H   0  0  0  0  0  0  0  0  0  0  0  0  # atno 8009 bound_to 7997
  156.2772  140.2733  156.1672 H   0  0  0  0  0  0  0  0  0  0  0  0  # atno 8010 bound_to 7997
  140.3608  144.2231  150.6138 H   0  0  0  0  0  0  0  0  0  0  0  0  # atno 10167 bound_to 10162
  157.6888  131.0111  150.2593 H   0  0  0  0  0  0  0  0  0  0  0  0  # atno 10718 bound_to 10713
  154.0352  135.6651  153.4784 H   0  0  0  0  0  0  0  0  0  0  0  0  # atno 10763 bound_to 10752
  153.0524  135.5076  154.7894 H   0  0  0  0  0  0  0  0  0  0  0  0  # atno 10764 bound_to 10752
  154.6853  135.3052  154.9522 H   0  0  0  0  0  0  0  0  0  0  0  0  # atno 10765 bound_to 10752
  140.5641  134.0164  155.7983 H   0  0  0  0  0  0  0  0  0  0  0  0  # atno 11005 bound_to 11000
  145.0409  140.8945  143.5053 LP  0  0  0  0  0  0  0  0  0  0  0  0  # atno 17320 bound_to 7965
  145.1287  139.2646  143.5551 LP  0  0  0  0  0  0  0  0  0  0  0  0  # atno 17321 bound_to 7965
  140.5129  143.2286  151.8508 LP  0  0  0  0  0  0  0  0  0  0  0  0  # atno 17342 bound_to 10162
  139.4814  144.4929  151.9162 LP  0  0  0  0  0  0  0  0  0  0  0  0  # atno 17343 bound_to 10162
  156.3175  130.3781  149.7605 LP  0  0  0  0  0  0  0  0  0  0  0  0  # atno 17370 bound_to 10713
  156.5185  130.8204  151.3195 LP  0  0  0  0  0  0  0  0  0  0  0  0  # atno 17371 bound_to 10713
  141.1096  133.9637  157.2933 LP  0  0  0  0  0  0  0  0  0  0  0  0  # atno 17394 bound_to 11000
  139.9393  135.0193  156.8658 LP  0  0  0  0  0  0  0  0  0  0  0  0  # atno 17395 bound_to 11000

$$$$
