AV-unprocessed.smi:1867|AV-procd|sdf|7577|dock2
  -GOLD-   22720 9283D 1   1.00000     0.00000
 Structure written by MMmdl.
 52 55  0  0  0  0  0  0  0  0  4 V2000
  147.2249  137.8829  155.0581 O   0  0  0  0  0  0  0  0  0  0  0  0
  147.3561  138.3100  153.9125 C   0  0  0  0  0  0  0  0  0  0  0  0
  148.1644  139.3771  153.6979 N   0  0  0  0  0  0  0  0  0  0  0  0
  148.8425  140.1928  154.6423 C   0  0  0  0  0  0  0  0  0  0  0  0
  149.4754  139.5559  155.7295 C   0  0  0  0  0  0  0  0  0  0  0  0
  150.1866  140.3247  156.6732 C   0  0  0  0  0  0  0  0  0  0  0  0
  150.2679  141.7281  156.5148 C   0  0  0  0  0  0  0  0  0  0  0  0
  150.9712  142.5565  157.4090 N   0  0  0  0  0  0  0  0  0  0  0  0
  151.9389  142.0219  158.3530 C   0  0  0  0  0  0  0  0  0  0  0  0
  152.5352  143.2557  159.0283 C   0  0  0  0  0  0  0  0  0  0  0  0
  152.4958  144.3108  157.9220 C   0  0  0  0  0  0  0  0  0  0  0  0
  151.2491  143.9524  157.1044 C   0  0  0  0  0  0  0  0  0  0  0  0
  149.6601  142.2951  155.4454 N   0  3  0  0  0  0  0  0  0  0  0  0
  148.9670  141.5968  154.5203 C   0  0  0  0  0  0  0  0  0  0  0  0
  146.7308  137.7078  152.8560 N   0  5  0  0  0  0  0  0  0  0  0  0
  145.6413  136.7130  152.8635 C   0  0  1  0  0  0  0  0  0  0  0  0
  145.0888  136.5433  151.4349 C   0  0  0  0  0  0  0  0  0  0  0  0
  145.8914  135.3869  150.8018 C   0  0  0  0  0  0  0  0  0  0  0  0
  146.7942  134.8984  151.8632 N   0  3  2  0  0  0  0  0  0  0  0  0
  147.1675  133.4668  151.8253 C   0  0  0  0  0  0  0  0  0  0  0  0
  148.1601  133.1614  152.9656 C   0  0  0  0  0  0  0  0  0  0  0  0
  147.6133  133.6064  154.3376 C   0  0  0  0  0  0  0  0  0  0  0  0
  147.1816  135.0854  154.3091 C   0  0  0  0  0  0  0  0  0  0  0  0
  146.1914  135.3044  153.1433 C   0  0  1  0  0  0  0  0  0  0  0  0
  148.3301  139.6062  152.7290 H   0  0  0  0  0  0  0  0  0  0  0  0
  149.4167  138.4832  155.8434 H   0  0  0  0  0  0  0  0  0  0  0  0
  150.6691  139.8261  157.5006 H   0  0  0  0  0  0  0  0  0  0  0  0
  151.4728  141.3518  159.0759 H   0  0  0  0  0  0  0  0  0  0  0  0
  152.7078  141.4691  157.8113 H   0  0  0  0  0  0  0  0  0  0  0  0
  151.8981  143.5686  159.8568 H   0  0  0  0  0  0  0  0  0  0  0  0
  153.5379  143.0832  159.4202 H   0  0  0  0  0  0  0  0  0  0  0  0
  152.4696  145.3300  158.3079 H   0  0  0  0  0  0  0  0  0  0  0  0
  153.3835  144.2129  157.2956 H   0  0  0  0  0  0  0  0  0  0  0  0
  151.4196  144.1173  156.0399 H   0  0  0  0  0  0  0  0  0  0  0  0
  150.3961  144.5572  157.4136 H   0  0  0  0  0  0  0  0  0  0  0  0
  148.5569  142.1871  153.7143 H   0  0  0  0  0  0  0  0  0  0  0  0
  144.8462  136.9619  153.5673 H   0  0  0  0  0  0  0  0  0  0  0  0
  144.0356  136.2645  151.4837 H   0  0  0  0  0  0  0  0  0  0  0  0
  145.1460  137.4590  150.8442 H   0  0  0  0  0  0  0  0  0  0  0  0
  145.2173  134.5949  150.4710 H   0  0  0  0  0  0  0  0  0  0  0  0
  146.4741  135.7147  149.9401 H   0  0  0  0  0  0  0  0  0  0  0  0
  146.2737  132.8491  151.9238 H   0  0  0  0  0  0  0  0  0  0  0  0
  147.6179  133.2328  150.8602 H   0  0  0  0  0  0  0  0  0  0  0  0
  148.3907  132.0960  152.9838 H   0  0  0  0  0  0  0  0  0  0  0  0
  149.1019  133.6764  152.7708 H   0  0  0  0  0  0  0  0  0  0  0  0
  146.7597  132.9835  154.6075 H   0  0  0  0  0  0  0  0  0  0  0  0
  148.3664  133.4507  155.1106 H   0  0  0  0  0  0  0  0  0  0  0  0
  146.7262  135.3563  155.2630 H   0  0  0  0  0  0  0  0  0  0  0  0
  148.0697  135.7103  154.1966 H   0  0  0  0  0  0  0  0  0  0  0  0
  145.3293  134.6568  153.3189 H   0  0  0  0  0  0  0  0  0  0  0  0
  147.6425  135.4415  151.7823 H   0  0  0  0  0  0  0  0  0  0  0  0
  149.7327  143.3055  155.3272 H   0  0  0  0  0  0  0  0  0  0  0  0
  1  2  2  0  0  0  0
  2  3  1  0  0  0  0
  2 15  1  0  0  0  0
  3  4  1  0  0  0  0
  3 25  1  0  0  0  0
  4 14  1  0  0  0  0
  4  5  2  0  0  0  0
  5  6  1  0  0  0  0
  5 26  1  0  0  0  0
  6  7  2  0  0  0  0
  6 27  1  0  0  0  0
  7  8  1  0  0  0  0
  7 13  1  0  0  0  0
  8 12  1  0  0  0  0
  8  9  1  0  0  0  0
  9 10  1  0  0  0  0
  9 28  1  0  0  0  0
  9 29  1  0  0  0  0
 10 11  1  0  0  0  0
 10 30  1  0  0  0  0
 10 31  1  0  0  0  0
 11 12  1  0  0  0  0
 11 32  1  0  0  0  0
 11 33  1  0  0  0  0
 12 34  1  0  0  0  0
 12 35  1  0  0  0  0
 13 14  2  0  0  0  0
 13 52  1  0  0  0  0
 14 36  1  0  0  0  0
 15 16  1  0  0  0  0
 16 24  1  0  0  0  0
 16 17  1  0  0  0  0
 16 37  1  0  0  0  0
 17 18  1  0  0  0  0
 17 38  1  0  0  0  0
 17 39  1  0  0  0  0
 18 19  1  0  0  0  0
 18 40  1  0  0  0  0
 18 41  1  0  0  0  0
 19 24  1  0  0  0  0
 19 20  1  0  0  0  0
 19 51  1  0  0  0  0
 20 21  1  0  0  0  0
 20 42  1  0  0  0  0
 20 43  1  0  0  0  0
 21 22  1  0  0  0  0
 21 44  1  0  0  0  0
 21 45  1  0  0  0  0
 22 23  1  0  0  0  0
 22 46  1  0  0  0  0
 22 47  1  0  0  0  0
 23 24  1  0  0  0  0
 23 48  1  0  0  0  0
 23 49  1  0  0  0  0
 24 50  1  0  0  0  0
M  CHG  1  13   1
M  CHG  1  15  -1
M  CHG  1  19   1
M  END
> <s_m_source_file>
AV-unprocessed.smi

> <i_m_source_file_index>
1867

> <i_lp_mmshare_version>
43012

> <i_f3d_flags>
0

> <s_epik_input>
W0NIMl0xW0NIMl1bQ0gyXVtDSDJdW0NASF0oTjEyKVtDQEBIXShbQ0gyXVtDSDJdMilbTkhdQyg9TylbTkhdYzNbY0hdW2NIXWMobltjSF0zKU40W0NIMl1bQ0gyXVtDSDJdW0NIMl00

> <s_epik_cmdline>
J2VwaWtfcHl0aG9uJywgJy1waCcsICc3LjAnLCAnLXRuJywgJzgnLCAnLW1hJywgJzIwMCcsICctbWV0YWxfYmluZGluZycsICctaW1hZScsICc8aW5maWxlLm1hZT4nLCAnLW9tYWUnLCAnPG91dGZpbGUubWFlPic=

> <r_lp_tautomer_probability>
0.999994

> <r_epik_Ionization_Penalty>
8.56137

> <r_epik_Ionization_Penalty_Charging>
8.56136

> <r_epik_Ionization_Penalty_Neutral>
3.91889e-06

> <r_epik_State_Penalty>
8.16255

> <r_epik_Charging_Adjusted_Penalty>
16.7239

> <i_epik_Tot_Q>
1

> <i_epik_Tot_abs_Q>
3

> <r_epik_Metal_State_Penalty>
4.14279

> <b_epik_Metal_Only>
1

> <s_lp_Force_Field>
OPLS_2005

> <r_lp_Energy>
66.867

> <b_lp_Chiralities_Consistent>
1

> <s_lp_Variant>
AV-unprocessed.smi:1867-18

> <Gold.Version>
5.8.1

> <Gold.Id.Protein>
6NUR|6NUR_protein|mol2

> <Gold.PLP.Fitness>
49.5698

> <Gold.PLP.PLP>
-37.1008

> <Gold.PLP.part.hbond>
-3.0000

> <Gold.PLP.part.metal>
0.0000

> <Gold.PLP.part.buried>
1.0714

> <Gold.PLP.part.nonpolar>
-37.1107

> <Gold.PLP.part.repulsive>
2.2078

> <Gold.PLP.ligand.clash>
0.0000

> <Gold.PLP.ligand.torsion>
0.6482

> <Gold.PLP.Chemscore.Hbond>
4.5095

> <Gold.PLP.Chemscore.CHOScore>
0.0000

> <Gold.PLP.Chemscore.Metal>
0.0000

> <Gold.Chemscore.Hbonds>
donor molecule, donor type, donor heavy atom, donor atom, acceptor molecule, acceptor atom, score
      L1  H     3    25       P1  7957  0.93
      L1  H    13    52       P1  8028  1.66
      L1  H    19    51       P1  7948  1.79

> <Gold.PLP.Chemscore.Internal.Correction>
0.2370

> <Gold.Rescore>
     Score         DG    S(hbond)    S(metal)    S(lipo)     H(rot)  DE(clash)    DE(int)     intcor
     17.99     -23.60       2.51        0.00     105.18       1.00       2.46       3.15       ----

> <Gold.Chemscore.Fitness>
17.9905

> <Gold.Chemscore.DG>
-23.5976

> <Gold.Chemscore.ZeroCoef>
-5.4800

> <Gold.Chemscore.Hbond>
2.5063

> <Gold.Chemscore.Metal>
0.0000

> <Gold.Chemscore.Lipo>
105.1842

> <Gold.Chemscore.Internal_Hbond>
0.0000

> <Gold.Chemscore.DEClash>
2.4563

> <Gold.Chemscore.DEInternal>
3.1508

> <Gold.Chemscore.Rot>
1.0000

> <Gold.Chemscore.Internal.Correction>
   9.000000E+99

> <Gold.Chemscore.Hbonds>
donor molecule, donor type, donor heavy atom, donor atom, acceptor molecule, acceptor atom, score
      L1  H     3    25       P1  7957  0.85
      L1  H    13    52       P1  8028  0.83
      L1  H    19    51       P1  7948  0.84

> <Gold.Chemscore.Hbond.Weighted>
-8.3710

> <Gold.Chemscore.Metal.Weighted>
-0.0000

> <Gold.Chemscore.Lipo.Weighted>
-12.3065

> <Gold.Chemscore.Internal_Hbond.Weighted>
0.0000

> <Gold.Chemscore.DEClash.Weighted>
2.4563

> <Gold.Chemscore.DEInternal.Weighted>
3.1508

> <Gold.Chemscore.Rot.Weighted>
2.5600

> <Gold.Chemscore.Internal.Correction.Weighted>
   9.000000E+99

> <Gold.Protein.RotatedTorsions>
[ 6907 6896 6895 6894 ] final  -80.12 input  -60.11 | X-H torsion
[ 7974 7965 7964 7962 ] final -140.58 input  175.53 | X-H torsion
[ 8008 7997 7996 7995 ] final  -95.01 input   59.86 | X-H torsion
[ 10167 10162 10161 10158 ] final   27.90 input  -65.29 | X-H torsion
[ 10718 10713 10712 10709 ] final  167.84 input   66.30 | X-H torsion
[ 10763 10752 10751 10750 ] final   75.79 input  -60.55 | X-H torsion
[ 11005 11000 10999 10996 ] final  -86.24 input  -57.11 | X-H torsion

> <Gold.Protein.ActiveResidues>
 VAL166  LYS551  ARG553  GLY616  TRP617  ASP618  TYR619  PRO620  LYS621  CYS622 
 ASP623  PHE694  ASN695  SER759  ASP760  ASP761  ALA762  ILE779  LEU786  VAL792 
 PHE793  MET794  SER795  GLU796  ALA797  LYS798  CYS799  TRP800  GLU811  SER814 

> <Gold.Protein.RotatedAtoms>
  150.6935  134.4017  159.5121 H   0  0  0  0  0  0  0  0  0  0  0  0  # atno 6907 bound_to 6896
  152.1790  134.8768  160.0537 H   0  0  0  0  0  0  0  0  0  0  0  0  # atno 6908 bound_to 6896
  151.9766  133.3708  159.4128 H   0  0  0  0  0  0  0  0  0  0  0  0  # atno 6909 bound_to 6896
  144.8586  140.6183  143.5343 H   0  0  0  0  0  0  0  0  0  0  0  0  # atno 7974 bound_to 7965
  154.7558  140.0484  157.0932 H   0  0  0  0  0  0  0  0  0  0  0  0  # atno 8008 bound_to 7997
  155.0000  140.3123  155.4852 H   0  0  0  0  0  0  0  0  0  0  0  0  # atno 8009 bound_to 7997
  156.2894  140.2203  156.5109 H   0  0  0  0  0  0  0  0  0  0  0  0  # atno 8010 bound_to 7997
  140.4899  144.0483  150.6293 H   0  0  0  0  0  0  0  0  0  0  0  0  # atno 10167 bound_to 10162
  157.0457  131.0299  151.2698 H   0  0  0  0  0  0  0  0  0  0  0  0  # atno 10718 bound_to 10713
  153.0679  135.4975  154.8240 H   0  0  0  0  0  0  0  0  0  0  0  0  # atno 10763 bound_to 10752
  154.6980  135.2996  154.9385 H   0  0  0  0  0  0  0  0  0  0  0  0  # atno 10764 bound_to 10752
  154.0118  135.6753  153.4818 H   0  0  0  0  0  0  0  0  0  0  0  0  # atno 10765 bound_to 10752
  141.1632  133.7443  156.9132 H   0  0  0  0  0  0  0  0  0  0  0  0  # atno 11005 bound_to 11000
  145.4357  139.1542  143.3998 LP  0  0  0  0  0  0  0  0  0  0  0  0  # atno 17320 bound_to 7965
  146.2843  140.4475  142.8764 LP  0  0  0  0  0  0  0  0  0  0  0  0  # atno 17321 bound_to 7965
  140.3749  143.2834  152.0236 LP  0  0  0  0  0  0  0  0  0  0  0  0  # atno 17342 bound_to 10162
  139.4849  144.6200  151.7273 LP  0  0  0  0  0  0  0  0  0  0  0  0  # atno 17343 bound_to 10162
  157.5070  130.7915  149.7664 LP  0  0  0  0  0  0  0  0  0  0  0  0  # atno 17370 bound_to 10713
  156.0023  130.3873  150.2557 LP  0  0  0  0  0  0  0  0  0  0  0  0  # atno 17371 bound_to 10713
  140.1502  134.9235  157.2583 LP  0  0  0  0  0  0  0  0  0  0  0  0  # atno 17394 bound_to 11000
  140.2732  134.3436  155.7367 LP  0  0  0  0  0  0  0  0  0  0  0  0  # atno 17395 bound_to 11000

$$$$
