AV-unprocessed.smi:792|AV-procd|sdf|3751|dock7
  -GOLD-   22720 1183D 1   1.00000     0.00000
 Structure written by MMmdl.
 47 48  0  0  0  0  0  0  0  0  2 V2000
  144.4324  131.8290  150.2077 C   0  0  0  0  0  0  0  0  0  0  0  0
  144.9188  133.0341  150.9846 C   0  0  0  0  0  0  0  0  0  0  0  0
  146.2100  133.0963  151.5519 C   0  0  0  0  0  0  0  0  0  0  0  0
  146.5946  134.2520  152.2633 C   0  0  0  0  0  0  0  0  0  0  0  0
  145.6821  135.3220  152.3919 C   0  0  0  0  0  0  0  0  0  0  0  0
  146.0646  136.5769  153.1523 C   0  0  0  0  0  0  0  0  0  0  0  0
  146.1409  137.8060  152.2373 C   0  0  0  0  0  0  0  0  0  0  0  0
  147.2760  138.6440  152.5971 N   0  0  0  0  0  0  0  0  0  0  0  0
  147.3893  139.2967  153.7609 C   0  0  0  0  0  0  0  0  0  0  0  0
  146.5532  139.2436  154.6632 O   0  0  0  0  0  0  0  0  0  0  0  0
  148.5197  140.0153  153.8224 N   0  0  0  0  0  0  0  0  0  0  0  0
  148.9402  140.8235  154.9659 C   0  0  0  0  0  0  0  0  0  0  0  0
  150.2611  140.3475  155.6007 C   0  0  0  0  0  0  0  0  0  0  0  0
  151.1348  139.8691  154.8744 O   0  0  0  0  0  0  0  0  0  0  0  0
  150.4272  140.4745  156.9402 N   0  0  0  0  0  0  0  0  0  0  0  0
  149.4253  141.1097  157.8073 C   0  0  0  0  0  0  0  0  0  0  0  0
  149.9907  142.4436  158.3287 C   0  0  0  0  0  0  0  0  0  0  0  0
  151.3342  142.2291  159.0508 C   0  0  0  0  0  0  0  0  0  0  0  0
  152.3121  141.3999  158.1972 C   0  0  0  0  0  0  0  0  0  0  0  0
  151.6387  140.1121  157.6896 C   0  0  0  0  0  0  0  0  0  0  0  0
  144.4041  135.2027  151.8050 C   0  0  0  0  0  0  0  0  0  0  0  0
  144.0736  134.0789  151.1318 N   0  3  0  0  0  0  0  0  0  0  0  0
  145.2007  131.0568  150.1582 H   0  0  0  0  0  0  0  0  0  0  0  0
  144.1708  132.1144  149.1884 H   0  0  0  0  0  0  0  0  0  0  0  0
  143.5496  131.4009  150.6833 H   0  0  0  0  0  0  0  0  0  0  0  0
  146.8988  132.2710  151.4455 H   0  0  0  0  0  0  0  0  0  0  0  0
  147.5785  134.3139  152.7052 H   0  0  0  0  0  0  0  0  0  0  0  0
  145.3378  136.7466  153.9483 H   0  0  0  0  0  0  0  0  0  0  0  0
  147.0257  136.4148  153.6425 H   0  0  0  0  0  0  0  0  0  0  0  0
  146.2405  137.4926  151.1966 H   0  0  0  0  0  0  0  0  0  0  0  0
  145.2223  138.3899  152.3125 H   0  0  0  0  0  0  0  0  0  0  0  0
  148.0162  138.7388  151.9170 H   0  0  0  0  0  0  0  0  0  0  0  0
  149.1454  139.9900  153.0306 H   0  0  0  0  0  0  0  0  0  0  0  0
  149.0652  141.8495  154.6188 H   0  0  0  0  0  0  0  0  0  0  0  0
  148.1484  140.8318  155.7172 H   0  0  0  0  0  0  0  0  0  0  0  0
  148.4748  141.2856  157.3020 H   0  0  0  0  0  0  0  0  0  0  0  0
  149.1976  140.4462  158.6430 H   0  0  0  0  0  0  0  0  0  0  0  0
  150.1300  143.1303  157.4926 H   0  0  0  0  0  0  0  0  0  0  0  0
  149.2763  142.9165  159.0030 H   0  0  0  0  0  0  0  0  0  0  0  0
  151.7804  143.1888  159.3126 H   0  0  0  0  0  0  0  0  0  0  0  0
  151.1527  141.7068  159.9909 H   0  0  0  0  0  0  0  0  0  0  0  0
  152.6527  141.9929  157.3473 H   0  0  0  0  0  0  0  0  0  0  0  0
  153.2002  141.1555  158.7805 H   0  0  0  0  0  0  0  0  0  0  0  0
  151.3595  139.4822  158.5354 H   0  0  0  0  0  0  0  0  0  0  0  0
  152.3516  139.5213  157.1169 H   0  0  0  0  0  0  0  0  0  0  0  0
  143.6405  135.9656  151.8535 H   0  0  0  0  0  0  0  0  0  0  0  0
  143.1440  134.0162  150.7156 H   0  0  0  0  0  0  0  0  0  0  0  0
  1  2  1  0  0  0  0
  1 23  1  0  0  0  0
  1 24  1  0  0  0  0
  1 25  1  0  0  0  0
  2 22  1  0  0  0  0
  2  3  2  0  0  0  0
  3  4  1  0  0  0  0
  3 26  1  0  0  0  0
  4  5  2  0  0  0  0
  4 27  1  0  0  0  0
  5  6  1  0  0  0  0
  5 21  1  0  0  0  0
  6  7  1  0  0  0  0
  6 28  1  0  0  0  0
  6 29  1  0  0  0  0
  7  8  1  0  0  0  0
  7 30  1  0  0  0  0
  7 31  1  0  0  0  0
  8  9  1  0  0  0  0
  8 32  1  0  0  0  0
  9 10  2  0  0  0  0
  9 11  1  0  0  0  0
 11 12  1  0  0  0  0
 11 33  1  0  0  0  0
 12 13  1  0  0  0  0
 12 34  1  0  0  0  0
 12 35  1  0  0  0  0
 13 14  2  0  0  0  0
 13 15  1  0  0  0  0
 15 20  1  0  0  0  0
 15 16  1  0  0  0  0
 16 17  1  0  0  0  0
 16 36  1  0  0  0  0
 16 37  1  0  0  0  0
 17 18  1  0  0  0  0
 17 38  1  0  0  0  0
 17 39  1  0  0  0  0
 18 19  1  0  0  0  0
 18 40  1  0  0  0  0
 18 41  1  0  0  0  0
 19 20  1  0  0  0  0
 19 42  1  0  0  0  0
 19 43  1  0  0  0  0
 20 44  1  0  0  0  0
 20 45  1  0  0  0  0
 21 22  2  0  0  0  0
 21 46  1  0  0  0  0
 22 47  1  0  0  0  0
M  CHG  1  22   1
M  END
> <s_m_source_file>
AV-unprocessed.smi

> <i_m_source_file_index>
792

> <i_lp_mmshare_version>
43012

> <i_f3d_flags>
0

> <s_epik_input>
W0NIM11jMVtjSF1bY0hdYyhbY0hdbjEpW0NIMl1bQ0gyXVtOSF1DKD1PKVtOSF1bQ0gyXUMoPU8pTjJbQ0gyXVtDSDJdW0NIMl1bQ0gyXVtDSDJdMg==

> <s_epik_cmdline>
J2VwaWtfcHl0aG9uJywgJy1waCcsICc3LjAnLCAnLXRuJywgJzgnLCAnLW1hJywgJzIwMCcsICctbWV0YWxfYmluZGluZycsICctaW1hZScsICc8aW5maWxlLm1hZT4nLCAnLW9tYWUnLCAnPG91dGZpbGUubWFlPic=

> <r_epik_Ionization_Penalty>
1.3596

> <r_epik_Ionization_Penalty_Charging>
1.35956

> <r_epik_Ionization_Penalty_Neutral>
4.39183e-05

> <r_epik_State_Penalty>
1.43833

> <r_epik_Charging_Adjusted_Penalty>
2.79788

> <i_epik_Tot_Q>
1

> <i_epik_Tot_abs_Q>
1

> <r_epik_Metal_State_Penalty>
1.49594

> <b_epik_Metal_Only>
0

> <s_lp_Force_Field>
OPLS_2005

> <r_lp_Energy>
23.5444

> <b_lp_Chiralities_Consistent>
1

> <s_lp_Variant>
AV-unprocessed.smi:792-2

> <Gold.Version>
5.8.1

> <Gold.Id.Protein>
6NUR|6NUR_protein|mol2

> <Gold.PLP.Fitness>
53.8979

> <Gold.PLP.PLP>
-41.1987

> <Gold.PLP.part.hbond>
-4.8109

> <Gold.PLP.part.metal>
0.0000

> <Gold.PLP.part.buried>
-4.1580

> <Gold.PLP.part.nonpolar>
-32.6846

> <Gold.PLP.part.repulsive>
0.4467

> <Gold.PLP.ligand.clash>
0.0000

> <Gold.PLP.ligand.torsion>
0.6948

> <Gold.PLP.Chemscore.Hbond>
4.6800

> <Gold.PLP.Chemscore.CHOScore>
0.0000

> <Gold.PLP.Chemscore.Metal>
0.0000

> <Gold.Chemscore.Hbonds>
donor molecule, donor type, donor heavy atom, donor atom, acceptor molecule, acceptor atom, score
      L1  H     8    32       P1  7957  0.63
      L1  H    11    33       P1  7957  1.00
      P1  H  7989  7998       L1    14  1.00

> <Gold.PLP.Chemscore.Internal.Correction>
0.0487

> <Gold.Rescore>
     Score         DG    S(hbond)    S(metal)    S(lipo)     H(rot)  DE(clash)    DE(int)     intcor
     19.40     -22.76       3.65        0.00      84.23       1.86       1.53       1.84       ----

> <Gold.Chemscore.Fitness>
19.3965

> <Gold.Chemscore.DG>
-22.7618

> <Gold.Chemscore.ZeroCoef>
-5.4800

> <Gold.Chemscore.Hbond>
3.6522

> <Gold.Chemscore.Metal>
0.0000

> <Gold.Chemscore.Lipo>
84.2302

> <Gold.Chemscore.Internal_Hbond>
0.0000

> <Gold.Chemscore.DEClash>
1.5268

> <Gold.Chemscore.DEInternal>
1.8385

> <Gold.Chemscore.Rot>
1.8639

> <Gold.Chemscore.Internal.Correction>
   9.000000E+99

> <Gold.Chemscore.Hbonds>
donor molecule, donor type, donor heavy atom, donor atom, acceptor molecule, acceptor atom, score
      L1  H     8    32       P1  7957  0.56
      L1  H    11    33       P1  7957  0.98
      L1  H    22    47       P1 10186  0.03
      P1  H  7989  7998       L1    14  0.93

> <Gold.Chemscore.Hbond.Weighted>
-12.1983

> <Gold.Chemscore.Metal.Weighted>
-0.0000

> <Gold.Chemscore.Lipo.Weighted>
-9.8549

> <Gold.Chemscore.Internal_Hbond.Weighted>
0.0000

> <Gold.Chemscore.DEClash.Weighted>
1.5268

> <Gold.Chemscore.DEInternal.Weighted>
1.8385

> <Gold.Chemscore.Rot.Weighted>
4.7715

> <Gold.Chemscore.Internal.Correction.Weighted>
   9.000000E+99

> <Gold.Protein.RotatedTorsions>
[ 6907 6896 6895 6894 ] final   45.36 input  -60.11 | X-H torsion
[ 7974 7965 7964 7962 ] final  -46.04 input  175.53 | X-H torsion
[ 8008 7997 7996 7995 ] final  -42.62 input   59.86 | X-H torsion
[ 10167 10162 10161 10158 ] final  121.91 input  -65.29 | X-H torsion
[ 10718 10713 10712 10709 ] final -107.25 input   66.30 | X-H torsion
[ 10763 10752 10751 10750 ] final  -38.49 input  -60.55 | X-H torsion
[ 11005 11000 10999 10996 ] final  -26.95 input  -57.11 | X-H torsion

> <Gold.Protein.ActiveResidues>
 VAL166  LYS551  ARG553  GLY616  TRP617  ASP618  TYR619  PRO620  LYS621  CYS622 
 ASP623  PHE694  ASN695  SER759  ASP760  ASP761  ALA762  ILE779  LEU786  VAL792 
 PHE793  MET794  SER795  GLU796  ALA797  LYS798  CYS799  TRP800  GLU811  SER814 

> <Gold.Protein.RotatedAtoms>
  152.2436  134.8204  160.0456 H   0  0  0  0  0  0  0  0  0  0  0  0  # atno 6907 bound_to 6896
  151.8909  133.3511  159.3806 H   0  0  0  0  0  0  0  0  0  0  0  0  # atno 6908 bound_to 6896
  150.7061  134.4851  159.5533 H   0  0  0  0  0  0  0  0  0  0  0  0  # atno 6909 bound_to 6896
  145.9759  140.7334  142.9387 H   0  0  0  0  0  0  0  0  0  0  0  0  # atno 7974 bound_to 7965
  154.3998  140.1469  156.3385 H   0  0  0  0  0  0  0  0  0  0  0  0  # atno 8008 bound_to 7997
  155.8378  140.3463  155.5591 H   0  0  0  0  0  0  0  0  0  0  0  0  # atno 8009 bound_to 7997
  155.8120  140.0885  157.1889 H   0  0  0  0  0  0  0  0  0  0  0  0  # atno 8010 bound_to 7997
  139.5890  144.7018  151.3336 H   0  0  0  0  0  0  0  0  0  0  0  0  # atno 10167 bound_to 10162
  156.0428  130.5653  150.7795 H   0  0  0  0  0  0  0  0  0  0  0  0  # atno 10718 bound_to 10713
  153.9138  135.6789  153.4750 H   0  0  0  0  0  0  0  0  0  0  0  0  # atno 10763 bound_to 10752
  153.1064  135.4803  154.8957 H   0  0  0  0  0  0  0  0  0  0  0  0  # atno 10764 bound_to 10752
  154.7513  135.3185  154.8507 H   0  0  0  0  0  0  0  0  0  0  0  0  # atno 10765 bound_to 10752
  140.9076  133.7482  156.0626 H   0  0  0  0  0  0  0  0  0  0  0  0  # atno 11005 bound_to 11000
  144.6849  140.2827  143.7290 LP  0  0  0  0  0  0  0  0  0  0  0  0  # atno 17320 bound_to 7965
  145.7839  139.1901  143.2142 LP  0  0  0  0  0  0  0  0  0  0  0  0  # atno 17321 bound_to 7965
  140.7157  143.7273  150.7650 LP  0  0  0  0  0  0  0  0  0  0  0  0  # atno 17342 bound_to 10162
  140.0824  143.4956  152.2523 LP  0  0  0  0  0  0  0  0  0  0  0  0  # atno 17343 bound_to 10162
  157.5266  131.0934  151.0009 LP  0  0  0  0  0  0  0  0  0  0  0  0  # atno 17370 bound_to 10713
  157.0326  130.5717  149.5345 LP  0  0  0  0  0  0  0  0  0  0  0  0  # atno 17371 bound_to 10713
  140.8152  134.3353  157.5399 LP  0  0  0  0  0  0  0  0  0  0  0  0  # atno 17394 bound_to 11000
  139.8752  134.9277  156.3432 LP  0  0  0  0  0  0  0  0  0  0  0  0  # atno 17395 bound_to 11000

$$$$
