AV-unprocessed.smi:2892|AV-procd|sdf|11118|dock8
  -GOLD-   2272015583D 1   1.00000     0.00000
 Structure written by MMmdl.
 42 42  0  0  0  0  0  0  0  0  2 V2000
  152.2592  143.4637  158.8405 C   0  0  0  0  0  0  0  0  0  0  0  0
  151.5410  142.1351  159.1213 C   0  0  0  0  0  0  0  0  0  0  0  0
  152.4701  140.9972  159.6186 C   0  0  2  0  0  0  0  0  0  0  0  0
  153.4804  141.5536  160.6495 C   0  0  0  0  0  0  0  0  0  0  0  0
  153.1751  140.2744  158.4279 C   0  0  2  0  0  0  0  0  0  0  0  0
  152.1624  139.6843  157.5498 N   0  0  0  0  0  0  0  0  0  0  0  0
  152.3842  139.1642  156.3321 C   0  0  0  0  0  0  0  0  0  0  0  0
  153.4936  139.1509  155.7962 O   0  0  0  0  0  0  0  0  0  0  0  0
  151.1547  138.5727  155.6315 C   0  0  0  0  0  0  0  0  0  0  0  0
  150.0794  139.6044  155.4052 C   0  0  0  0  0  0  0  0  0  0  0  0
  150.1198  140.9976  155.6994 C   0  0  0  0  0  0  0  0  0  0  0  0
  148.9002  141.4563  155.2921 C   0  0  0  0  0  0  0  0  0  0  0  0
  148.1976  140.3776  154.7981 N   0  0  0  0  0  0  0  0  0  0  0  0
  146.8540  140.3575  154.2392 C   0  0  0  0  0  0  0  0  0  0  0  0
  146.8546  139.7942  152.8088 C   0  0  0  0  0  0  0  0  0  0  0  0
  146.2051  141.7493  154.3070 C   0  0  0  0  0  0  0  0  0  0  0  0
  148.9216  139.2389  154.8745 N   0  0  0  0  0  0  0  0  0  0  0  0
  154.0797  139.1355  158.9369 C   0  0  0  0  0  0  0  0  0  0  0  0
  153.5255  138.2112  159.5708 O   0  0  0  0  0  0  0  0  0  0  0  0
  155.3032  139.2047  158.6805 O   0  5  0  0  0  0  0  0  0  0  0  0
  151.5382  144.2416  158.5888 H   0  0  0  0  0  0  0  0  0  0  0  0
  152.9536  143.3861  158.0047 H   0  0  0  0  0  0  0  0  0  0  0  0
  152.8170  143.8019  159.7143 H   0  0  0  0  0  0  0  0  0  0  0  0
  150.7713  142.3470  159.8629 H   0  0  0  0  0  0  0  0  0  0  0  0
  151.0062  141.8112  158.2275 H   0  0  0  0  0  0  0  0  0  0  0  0
  151.8452  140.2649  160.1333 H   0  0  0  0  0  0  0  0  0  0  0  0
  154.1443  142.2873  160.1915 H   0  0  0  0  0  0  0  0  0  0  0  0
  154.1025  140.7716  161.0846 H   0  0  0  0  0  0  0  0  0  0  0  0
  152.9800  142.0375  161.4870 H   0  0  0  0  0  0  0  0  0  0  0  0
  153.7784  140.9971  157.8744 H   0  0  0  0  0  0  0  0  0  0  0  0
  151.2244  139.6369  157.9191 H   0  0  0  0  0  0  0  0  0  0  0  0
  151.4740  138.1320  154.6858 H   0  0  0  0  0  0  0  0  0  0  0  0
  150.7596  137.7555  156.2361 H   0  0  0  0  0  0  0  0  0  0  0  0
  150.9246  141.5711  156.1342 H   0  0  0  0  0  0  0  0  0  0  0  0
  148.4800  142.4510  155.3116 H   0  0  0  0  0  0  0  0  0  0  0  0
  146.2597  139.6850  154.8595 H   0  0  0  0  0  0  0  0  0  0  0  0
  145.8388  139.7075  152.4227 H   0  0  0  0  0  0  0  0  0  0  0  0
  147.3042  138.8013  152.7787 H   0  0  0  0  0  0  0  0  0  0  0  0
  147.4142  140.4343  152.1257 H   0  0  0  0  0  0  0  0  0  0  0  0
  145.1728  141.7171  153.9582 H   0  0  0  0  0  0  0  0  0  0  0  0
  146.7402  142.4716  153.6895 H   0  0  0  0  0  0  0  0  0  0  0  0
  146.1960  142.1284  155.3293 H   0  0  0  0  0  0  0  0  0  0  0  0
  1  2  1  0  0  0  0
  1 21  1  0  0  0  0
  1 22  1  0  0  0  0
  1 23  1  0  0  0  0
  2  3  1  0  0  0  0
  2 24  1  0  0  0  0
  2 25  1  0  0  0  0
  3  4  1  0  0  0  0
  3  5  1  0  0  0  0
  3 26  1  0  0  0  0
  4 27  1  0  0  0  0
  4 28  1  0  0  0  0
  4 29  1  0  0  0  0
  5  6  1  0  0  0  0
  5 18  1  0  0  0  0
  5 30  1  0  0  0  0
  6  7  1  0  0  0  0
  6 31  1  0  0  0  0
  7  8  2  0  0  0  0
  7  9  1  0  0  0  0
  9 10  1  0  0  0  0
  9 32  1  0  0  0  0
  9 33  1  0  0  0  0
 10 17  2  0  0  0  0
 10 11  1  0  0  0  0
 11 12  2  0  0  0  0
 11 34  1  0  0  0  0
 12 13  1  0  0  0  0
 12 35  1  0  0  0  0
 13 14  1  0  0  0  0
 13 17  1  0  0  0  0
 14 15  1  0  0  0  0
 14 16  1  0  0  0  0
 14 36  1  0  0  0  0
 15 37  1  0  0  0  0
 15 38  1  0  0  0  0
 15 39  1  0  0  0  0
 16 40  1  0  0  0  0
 16 41  1  0  0  0  0
 16 42  1  0  0  0  0
 18 19  2  0  0  0  0
 18 20  1  0  0  0  0
M  CHG  1  20  -1
M  END
> <s_m_source_file>
AV-unprocessed.smi

> <i_m_source_file_index>
2892

> <i_lp_mmshare_version>
43012

> <i_f3d_flags>
0

> <s_epik_input>
W0NIM11bQ0gyXVtDQEhdKFtDSDNdKVtDQEBIXShDKD1PKVtPSF0pW05IXUMoPU8pW0NIMl1jMVtjSF1bY0hdbihuMSlbQ0hdKFtDSDNdKVtDSDNd

> <s_epik_cmdline>
J2VwaWtfcHl0aG9uJywgJy1waCcsICc3LjAnLCAnLXRuJywgJzgnLCAnLW1hJywgJzIwMCcsICctbWV0YWxfYmluZGluZycsICctaW1hZScsICc8aW5maWxlLm1hZT4nLCAnLW9tYWUnLCAnPG91dGZpbGUubWFlPic=

> <r_lp_tautomer_probability>
1

> <r_epik_Ionization_Penalty>
0.000286846

> <r_epik_Ionization_Penalty_Charging>
0.000224481

> <r_epik_Ionization_Penalty_Neutral>
6.23655e-05

> <r_epik_State_Penalty>
-0

> <r_epik_Charging_Adjusted_Penalty>
0.000224481

> <i_epik_Tot_Q>
-1

> <i_epik_Tot_abs_Q>
1

> <r_epik_Metal_State_Penalty>
-0

> <b_epik_Metal_Only>
0

> <s_lp_Force_Field>
OPLS_2005

> <r_lp_Energy>
15.4928

> <b_lp_Chiralities_Consistent>
1

> <s_lp_Variant>
AV-unprocessed.smi:2892-1

> <Gold.Version>
5.8.1

> <Gold.Id.Protein>
6NUR|6NUR_protein|mol2

> <Gold.PLP.Fitness>
46.3003

> <Gold.PLP.PLP>
-34.8663

> <Gold.PLP.part.hbond>
-1.9461

> <Gold.PLP.part.metal>
0.0000

> <Gold.PLP.part.buried>
0.0303

> <Gold.PLP.part.nonpolar>
-32.7504

> <Gold.PLP.part.repulsive>
0.1838

> <Gold.PLP.ligand.clash>
0.0000

> <Gold.PLP.ligand.torsion>
0.3325

> <Gold.PLP.Chemscore.Hbond>
2.9920

> <Gold.PLP.Chemscore.CHOScore>
1.0000

> <Gold.PLP.Chemscore.Metal>
0.0000

> <Gold.Chemscore.Hbonds>
donor molecule, donor type, donor heavy atom, donor atom, acceptor molecule, acceptor atom, score
      P1  H  7997  8008       L1    20  2.00
      P1  H  7997  8009       L1     8  0.59
      L1  C    12    35       P1  8028  1.00

> <Gold.PLP.Chemscore.Internal.Correction>
0.1229

> <Gold.Rescore>
     Score         DG    S(hbond)    S(metal)    S(lipo)     H(rot)  DE(clash)    DE(int)     intcor
     15.01     -16.74       1.87        0.00      95.04       2.39       0.52       1.21       ----

> <Gold.Chemscore.Fitness>
15.0124

> <Gold.Chemscore.DG>
-16.7391

> <Gold.Chemscore.ZeroCoef>
-5.4800

> <Gold.Chemscore.Hbond>
1.8709

> <Gold.Chemscore.Metal>
0.0000

> <Gold.Chemscore.Lipo>
95.0400

> <Gold.Chemscore.Internal_Hbond>
0.0000

> <Gold.Chemscore.DEClash>
0.5170

> <Gold.Chemscore.DEInternal>
1.2096

> <Gold.Chemscore.Rot>
2.3865

> <Gold.Chemscore.Internal.Correction>
   9.000000E+99

> <Gold.Chemscore.Hbonds>
donor molecule, donor type, donor heavy atom, donor atom, acceptor molecule, acceptor atom, score
      P1  H  7997  8008       L1    20  0.72
      P1  H  7997  8009       L1     8  0.55

> <Gold.Chemscore.Hbond.Weighted>
-6.2488

> <Gold.Chemscore.Metal.Weighted>
-0.0000

> <Gold.Chemscore.Lipo.Weighted>
-11.1197

> <Gold.Chemscore.Internal_Hbond.Weighted>
0.0000

> <Gold.Chemscore.DEClash.Weighted>
0.5170

> <Gold.Chemscore.DEInternal.Weighted>
1.2096

> <Gold.Chemscore.Rot.Weighted>
6.1093

> <Gold.Chemscore.Internal.Correction.Weighted>
   9.000000E+99

> <Gold.Protein.RotatedTorsions>
[ 6907 6896 6895 6894 ] final   67.51 input  -60.11 | X-H torsion
[ 7974 7965 7964 7962 ] final -138.16 input  175.53 | X-H torsion
[ 8008 7997 7996 7995 ] final -145.45 input   59.86 | X-H torsion
[ 10167 10162 10161 10158 ] final  -40.51 input  -65.29 | X-H torsion
[ 10718 10713 10712 10709 ] final   94.60 input   66.30 | X-H torsion
[ 10763 10752 10751 10750 ] final  176.65 input  -60.55 | X-H torsion
[ 11005 11000 10999 10996 ] final -171.66 input  -57.11 | X-H torsion

> <Gold.Protein.ActiveResidues>
 VAL166  LYS551  ARG553  GLY616  TRP617  ASP618  TYR619  PRO620  LYS621  CYS622 
 ASP623  PHE694  ASN695  SER759  ASP760  ASP761  ALA762  ILE779  LEU786  VAL792 
 PHE793  MET794  SER795  GLU796  ALA797  LYS798  CYS799  TRP800  GLU811  SER814 

> <Gold.Protein.RotatedAtoms>
  152.4556  134.5298  159.9807 H   0  0  0  0  0  0  0  0  0  0  0  0  # atno 6907 bound_to 6896
  151.5359  133.3435  159.2934 H   0  0  0  0  0  0  0  0  0  0  0  0  # atno 6908 bound_to 6896
  150.8500  134.7852  159.7064 H   0  0  0  0  0  0  0  0  0  0  0  0  # atno 6909 bound_to 6896
  144.8781  140.6467  143.5223 H   0  0  0  0  0  0  0  0  0  0  0  0  # atno 7974 bound_to 7965
  155.5434  140.0610  157.2865 H   0  0  0  0  0  0  0  0  0  0  0  0  # atno 8008 bound_to 7997
  154.4444  140.1915  156.0658 H   0  0  0  0  0  0  0  0  0  0  0  0  # atno 8009 bound_to 7997
  156.0568  140.3277  155.7418 H   0  0  0  0  0  0  0  0  0  0  0  0  # atno 8010 bound_to 7997
  140.7032  143.3149  151.2935 H   0  0  0  0  0  0  0  0  0  0  0  0  # atno 10167 bound_to 10162
  157.6946  131.0518  150.4212 H   0  0  0  0  0  0  0  0  0  0  0  0  # atno 10718 bound_to 10713
  154.4840  135.2776  155.1549 H   0  0  0  0  0  0  0  0  0  0  0  0  # atno 10763 bound_to 10752
  154.3247  135.6202  153.5527 H   0  0  0  0  0  0  0  0  0  0  0  0  # atno 10764 bound_to 10752
  152.9879  135.5751  154.5247 H   0  0  0  0  0  0  0  0  0  0  0  0  # atno 10765 bound_to 10752
  140.5058  134.5850  157.5003 H   0  0  0  0  0  0  0  0  0  0  0  0  # atno 11005 bound_to 11000
  145.4004  139.1599  143.4180 LP  0  0  0  0  0  0  0  0  0  0  0  0  # atno 17320 bound_to 7965
  146.2976  140.4101  142.8716 LP  0  0  0  0  0  0  0  0  0  0  0  0  # atno 17321 bound_to 7965
  139.6584  144.0234  152.2676 LP  0  0  0  0  0  0  0  0  0  0  0  0  # atno 17342 bound_to 10162
  139.9793  144.6439  150.7916 LP  0  0  0  0  0  0  0  0  0  0  0  0  # atno 17343 bound_to 10162
  156.4587  130.4027  149.6590 LP  0  0  0  0  0  0  0  0  0  0  0  0  # atno 17370 bound_to 10713
  156.3713  130.7532  151.2515 LP  0  0  0  0  0  0  0  0  0  0  0  0  # atno 17371 bound_to 10713
  139.9687  134.7329  156.0085 LP  0  0  0  0  0  0  0  0  0  0  0  0  # atno 17394 bound_to 11000
  141.1412  133.6564  156.3734 LP  0  0  0  0  0  0  0  0  0  0  0  0  # atno 17395 bound_to 11000

$$$$
