AV-unprocessed.smi:1005|AV-procd|sdf|4373|dock3
  -GOLD-   22720 2283D 1   1.00000     0.00000
 Structure written by MMmdl.
 57 59  0  0  0  0  0  0  0  0  3 V2000
  152.3620  143.1643  160.9329 C   0  0  0  0  0  0  0  0  0  0  0  0
  152.2203  142.2280  159.7458 C   0  0  0  0  0  0  0  0  0  0  0  0
  151.3832  142.6029  158.6709 C   0  0  0  0  0  0  0  0  0  0  0  0
  151.2265  141.7623  157.5476 C   0  0  0  0  0  0  0  0  0  0  0  0
  150.4719  141.9276  156.3990 N   0  0  0  0  0  0  0  0  0  0  0  0
  150.7436  140.8083  155.7353 C   0  0  0  0  0  0  0  0  0  0  0  0
  151.5985  139.9416  156.3125 N   0  0  0  0  0  0  0  0  0  0  0  0
  152.0573  138.6734  155.7749 C   0  0  0  0  0  0  0  0  0  0  0  0
  151.1657  138.1638  154.6247 C   0  0  1  0  0  0  0  0  0  0  0  0
  151.9016  137.2036  153.8942 O   0  0  0  0  0  0  0  0  0  0  0  0
  149.8499  137.5150  155.1084 C   0  0  0  0  0  0  0  0  0  0  0  0
  148.6752  137.9504  154.3116 N   0  3  2  0  0  0  0  0  0  0  0  0
  148.5907  139.4213  154.1373 C   0  0  0  0  0  0  0  0  0  0  0  0
  147.3727  139.7883  153.2751 C   0  0  0  0  0  0  0  0  0  0  0  0
  146.1930  139.2637  153.8723 O   0  0  0  0  0  0  0  0  0  0  0  0
  146.2103  137.8428  153.9592 C   0  0  2  0  0  0  0  0  0  0  0  0
  144.8499  137.4048  154.5386 C   0  0  0  0  0  0  0  0  0  0  0  0
  143.7019  137.7069  153.6446 N   0  3  0  0  0  0  0  0  0  0  0  0
  142.3965  137.7146  154.3452 C   0  0  0  0  0  0  0  0  0  0  0  0
  143.6740  136.8216  152.4592 C   0  0  0  0  0  0  0  0  0  0  0  0
  147.3991  137.4198  154.8485 C   0  0  0  0  0  0  0  0  0  0  0  0
  151.9376  140.5269  157.5278 C   0  0  0  0  0  0  0  0  0  0  0  0
  152.7692  140.1401  158.5936 C   0  0  0  0  0  0  0  0  0  0  0  0
  152.9146  140.9922  159.7081 C   0  0  0  0  0  0  0  0  0  0  0  0
  153.8173  140.5671  160.8528 C   0  0  0  0  0  0  0  0  0  0  0  0
  151.7516  144.0594  160.8097 H   0  0  0  0  0  0  0  0  0  0  0  0
  153.3994  143.4801  161.0481 H   0  0  0  0  0  0  0  0  0  0  0  0
  152.0462  142.6689  161.8512 H   0  0  0  0  0  0  0  0  0  0  0  0
  150.8524  143.5433  158.7004 H   0  0  0  0  0  0  0  0  0  0  0  0
  150.3050  140.6126  154.7676 H   0  0  0  0  0  0  0  0  0  0  0  0
  153.0852  138.8017  155.4327 H   0  0  0  0  0  0  0  0  0  0  0  0
  152.0854  137.9434  156.5854 H   0  0  0  0  0  0  0  0  0  0  0  0
  150.9536  138.9985  153.9581 H   0  0  0  0  0  0  0  0  0  0  0  0
  151.4838  137.0780  153.0551 H   0  0  0  0  0  0  0  0  0  0  0  0
  149.9587  136.4309  155.0482 H   0  0  0  0  0  0  0  0  0  0  0  0
  149.6586  137.7405  156.1584 H   0  0  0  0  0  0  0  0  0  0  0  0
  148.5116  139.9031  155.1135 H   0  0  0  0  0  0  0  0  0  0  0  0
  149.4945  139.8058  153.6658 H   0  0  0  0  0  0  0  0  0  0  0  0
  147.2787  140.8718  153.2010 H   0  0  0  0  0  0  0  0  0  0  0  0
  147.4837  139.4078  152.2585 H   0  0  0  0  0  0  0  0  0  0  0  0
  146.3342  137.4400  152.9534 H   0  0  0  0  0  0  0  0  0  0  0  0
  144.8901  136.3312  154.7293 H   0  0  0  0  0  0  0  0  0  0  0  0
  144.6818  137.8773  155.5079 H   0  0  0  0  0  0  0  0  0  0  0  0
  142.1755  136.7354  154.7721 H   0  0  0  0  0  0  0  0  0  0  0  0
  141.5931  137.9707  153.6537 H   0  0  0  0  0  0  0  0  0  0  0  0
  142.3758  138.4503  155.1480 H   0  0  0  0  0  0  0  0  0  0  0  0
  143.5434  135.7789  152.7522 H   0  0  0  0  0  0  0  0  0  0  0  0
  144.6013  136.9047  151.8912 H   0  0  0  0  0  0  0  0  0  0  0  0
  142.8558  137.0940  151.7917 H   0  0  0  0  0  0  0  0  0  0  0  0
  147.4536  136.3315  154.8982 H   0  0  0  0  0  0  0  0  0  0  0  0
  147.2575  137.7813  155.8686 H   0  0  0  0  0  0  0  0  0  0  0  0
  153.2908  139.1955  158.5549 H   0  0  0  0  0  0  0  0  0  0  0  0
  154.2670  139.5917  160.6647 H   0  0  0  0  0  0  0  0  0  0  0  0
  153.2504  140.4999  161.7819 H   0  0  0  0  0  0  0  0  0  0  0  0
  154.6245  141.2870  160.9903 H   0  0  0  0  0  0  0  0  0  0  0  0
  143.8477  138.6399  153.2865 H   0  0  0  0  0  0  0  0  0  0  0  0
  148.7905  137.5459  153.3928 H   0  0  0  0  0  0  0  0  0  0  0  0
  1  2  1  0  0  0  0
  1 26  1  0  0  0  0
  1 27  1  0  0  0  0
  1 28  1  0  0  0  0
  2 24  1  0  0  0  0
  2  3  2  0  0  0  0
  3  4  1  0  0  0  0
  3 29  1  0  0  0  0
  4 22  2  0  0  0  0
  4  5  1  0  0  0  0
  5  6  2  0  0  0  0
  6  7  1  0  0  0  0
  6 30  1  0  0  0  0
  7  8  1  0  0  0  0
  7 22  1  0  0  0  0
  8  9  1  0  0  0  0
  8 31  1  0  0  0  0
  8 32  1  0  0  0  0
  9 10  1  0  0  0  0
  9 11  1  0  0  0  0
  9 33  1  0  0  0  0
 10 34  1  0  0  0  0
 11 12  1  0  0  0  0
 11 35  1  0  0  0  0
 11 36  1  0  0  0  0
 12 21  1  0  0  0  0
 12 13  1  0  0  0  0
 12 57  1  0  0  0  0
 13 14  1  0  0  0  0
 13 37  1  0  0  0  0
 13 38  1  0  0  0  0
 14 15  1  0  0  0  0
 14 39  1  0  0  0  0
 14 40  1  0  0  0  0
 15 16  1  0  0  0  0
 16 17  1  0  0  0  0
 16 21  1  0  0  0  0
 16 41  1  0  0  0  0
 17 18  1  0  0  0  0
 17 42  1  0  0  0  0
 17 43  1  0  0  0  0
 18 19  1  0  0  0  0
 18 20  1  0  0  0  0
 18 56  1  0  0  0  0
 19 44  1  0  0  0  0
 19 45  1  0  0  0  0
 19 46  1  0  0  0  0
 20 47  1  0  0  0  0
 20 48  1  0  0  0  0
 20 49  1  0  0  0  0
 21 50  1  0  0  0  0
 21 51  1  0  0  0  0
 22 23  1  0  0  0  0
 23 24  2  0  0  0  0
 23 52  1  0  0  0  0
 24 25  1  0  0  0  0
 25 53  1  0  0  0  0
 25 54  1  0  0  0  0
 25 55  1  0  0  0  0
M  CHG  1  12   1
M  CHG  1  18   1
M  END
> <s_m_source_file>
AV-unprocessed.smi

> <i_m_source_file_index>
1005

> <i_lp_mmshare_version>
43012

> <i_f3d_flags>
0

> <s_epik_input>
W0NIM11jKFtjSF0xKWMoW0NIM10pW2NIXWMoYzEyKW4oW2NIXW4yKVtDSDJdW0NASF0oW09IXSlbQ0gyXU4zW0NIMl1bQ0gyXU9bQ0BIXShbQ0gyXTMpW0NIMl1OKFtDSDNdKVtDSDNd

> <s_epik_cmdline>
J2VwaWtfcHl0aG9uJywgJy1waCcsICc3LjAnLCAnLXRuJywgJzgnLCAnLW1hJywgJzIwMCcsICctbWV0YWxfYmluZGluZycsICctaW1hZScsICc8aW5maWxlLm1hZT4nLCAnLW9tYWUnLCAnPG91dGZpbGUubWFlPic=

> <r_epik_Ionization_Penalty>
1.0968

> <r_epik_Ionization_Penalty_Charging>
1.0096

> <r_epik_Ionization_Penalty_Neutral>
0.0871956

> <r_epik_State_Penalty>
1.31185

> <r_epik_Charging_Adjusted_Penalty>
2.32145

> <i_epik_Tot_Q>
2

> <i_epik_Tot_abs_Q>
2

> <r_epik_Metal_State_Penalty>
1.22442

> <b_epik_Metal_Only>
0

> <s_lp_Force_Field>
OPLS_2005

> <r_lp_Energy>
33.9928

> <b_lp_Chiralities_Consistent>
1

> <s_lp_Variant>
AV-unprocessed.smi:1005-12

> <Gold.Version>
5.8.1

> <Gold.Id.Protein>
6NUR|6NUR_protein|mol2

> <Gold.PLP.Fitness>
59.5136

> <Gold.PLP.PLP>
-43.7252

> <Gold.PLP.part.hbond>
-4.0000

> <Gold.PLP.part.metal>
0.0000

> <Gold.PLP.part.buried>
-3.5351

> <Gold.PLP.part.nonpolar>
-36.4633

> <Gold.PLP.part.repulsive>
0.5055

> <Gold.PLP.ligand.clash>
0.0000

> <Gold.PLP.ligand.torsion>
1.1845

> <Gold.PLP.Chemscore.Hbond>
6.0000

> <Gold.PLP.Chemscore.CHOScore>
0.0000

> <Gold.PLP.Chemscore.Metal>
0.0000

> <Gold.Chemscore.Hbonds>
donor molecule, donor type, donor heavy atom, donor atom, acceptor molecule, acceptor atom, score
      L1  H    10    34       P1  7949  0.99
      L1  H    12    57       P1  7948  2.00
      L1  H    18    56       P1 10175  2.00
      P1  H 10752 10763       L1    10  1.00

> <Gold.PLP.Chemscore.Internal.Correction>
0.1575

> <Gold.Rescore>
     Score         DG    S(hbond)    S(metal)    S(lipo)     H(rot)  DE(clash)    DE(int)     intcor
     23.11     -24.44       3.76        0.00     109.11       2.48       0.12       1.22       ----

> <Gold.Chemscore.Fitness>
23.1054

> <Gold.Chemscore.DG>
-24.4434

> <Gold.Chemscore.ZeroCoef>
-5.4800

> <Gold.Chemscore.Hbond>
3.7576

> <Gold.Chemscore.Metal>
0.0000

> <Gold.Chemscore.Lipo>
109.1065

> <Gold.Chemscore.Internal_Hbond>
0.0000

> <Gold.Chemscore.DEClash>
0.1162

> <Gold.Chemscore.DEInternal>
1.2218

> <Gold.Chemscore.Rot>
2.4814

> <Gold.Chemscore.Internal.Correction>
   9.000000E+99

> <Gold.Chemscore.Hbonds>
donor molecule, donor type, donor heavy atom, donor atom, acceptor molecule, acceptor atom, score
      L1  H    10    34       P1  7949  0.83
      L1  H    12    57       P1  7948  0.95
      L1  H    18    56       P1 10175  0.97
      P1  H 10752 10763       L1    10  0.58

> <Gold.Chemscore.Hbond.Weighted>
-12.5503

> <Gold.Chemscore.Metal.Weighted>
-0.0000

> <Gold.Chemscore.Lipo.Weighted>
-12.7655

> <Gold.Chemscore.Internal_Hbond.Weighted>
0.0000

> <Gold.Chemscore.DEClash.Weighted>
0.1162

> <Gold.Chemscore.DEInternal.Weighted>
1.2218

> <Gold.Chemscore.Rot.Weighted>
6.3524

> <Gold.Chemscore.Internal.Correction.Weighted>
   9.000000E+99

> <Gold.Protein.RotatedTorsions>
[ 6907 6896 6895 6894 ] final -108.72 input  -60.11 | X-H torsion
[ 7974 7965 7964 7962 ] final  168.68 input  175.53 | X-H torsion
[ 8008 7997 7996 7995 ] final   -8.14 input   59.86 | X-H torsion
[ 10167 10162 10161 10158 ] final  108.78 input  -65.29 | X-H torsion
[ 10718 10713 10712 10709 ] final   -0.70 input   66.30 | X-H torsion
[ 10763 10752 10751 10750 ] final   37.71 input  -60.55 | X-H torsion
[ 11005 11000 10999 10996 ] final   52.62 input  -57.11 | X-H torsion

> <Gold.Protein.ActiveResidues>
 VAL166  LYS551  ARG553  GLY616  TRP617  ASP618  TYR619  PRO620  LYS621  CYS622 
 ASP623  PHE694  ASN695  SER759  ASP760  ASP761  ALA762  ILE779  LEU786  VAL792 
 PHE793  MET794  SER795  GLU796  ALA797  LYS798  CYS799  TRP800  GLU811  SER814 

> <Gold.Protein.RotatedAtoms>
  150.7518  133.9636  159.3523 H   0  0  0  0  0  0  0  0  0  0  0  0  # atno 6907 bound_to 6896
  151.7564  135.0818  160.0348 H   0  0  0  0  0  0  0  0  0  0  0  0  # atno 6908 bound_to 6896
  152.3432  133.6054  159.5927 H   0  0  0  0  0  0  0  0  0  0  0  0  # atno 6909 bound_to 6896
  144.7380  139.8943  143.6405 H   0  0  0  0  0  0  0  0  0  0  0  0  # atno 7974 bound_to 7965
  154.5770  140.2389  155.8108 H   0  0  0  0  0  0  0  0  0  0  0  0  # atno 8008 bound_to 7997
  156.2151  140.3014  155.9777 H   0  0  0  0  0  0  0  0  0  0  0  0  # atno 8009 bound_to 7997
  155.2609  140.0414  157.2987 H   0  0  0  0  0  0  0  0  0  0  0  0  # atno 8010 bound_to 7997
  139.6818  144.7117  151.1501 H   0  0  0  0  0  0  0  0  0  0  0  0  # atno 10167 bound_to 10162
  156.8166  130.5442  149.5702 H   0  0  0  0  0  0  0  0  0  0  0  0  # atno 10718 bound_to 10713
  153.0027  135.6270  154.2188 H   0  0  0  0  0  0  0  0  0  0  0  0  # atno 10763 bound_to 10752
  154.1931  135.2807  155.3017 H   0  0  0  0  0  0  0  0  0  0  0  0  # atno 10764 bound_to 10752
  154.5743  135.5667  153.7184 H   0  0  0  0  0  0  0  0  0  0  0  0  # atno 10765 bound_to 10752
  140.0834  134.5307  155.8924 H   0  0  0  0  0  0  0  0  0  0  0  0  # atno 11005 bound_to 11000
  146.1119  139.4125  143.0282 LP  0  0  0  0  0  0  0  0  0  0  0  0  # atno 17320 bound_to 7965
  145.7431  141.0001  143.1290 LP  0  0  0  0  0  0  0  0  0  0  0  0  # atno 17321 bound_to 7965
  140.7655  143.5687  150.9019 LP  0  0  0  0  0  0  0  0  0  0  0  0  # atno 17342 bound_to 10162
  139.9360  143.6438  152.3065 LP  0  0  0  0  0  0  0  0  0  0  0  0  # atno 17343 bound_to 10162
  156.1013  130.5971  150.9899 LP  0  0  0  0  0  0  0  0  0  0  0  0  # atno 17370 bound_to 10713
  157.6478  131.0901  150.8115 LP  0  0  0  0  0  0  0  0  0  0  0  0  # atno 17371 bound_to 10713
  141.2054  133.6647  156.6180 LP  0  0  0  0  0  0  0  0  0  0  0  0  # atno 17394 bound_to 11000
  140.3455  134.7813  157.4429 LP  0  0  0  0  0  0  0  0  0  0  0  0  # atno 17395 bound_to 11000

$$$$
