AV-unprocessed.smi:39|AV-procd|sdf|362|dock9
  -GOLD-   2262016203D 1   1.00000     0.00000
 Structure written by MMmdl.
 31 32  0  0  0  0  0  0  0  0  4 V2000
  151.3151  143.6205  159.4984 C   0  0  0  0  0  0  0  0  0  0  0  0
  151.8391  142.1965  159.4352 C   0  0  0  0  0  0  0  0  0  0  0  0
  151.4295  141.3188  158.4923 C   0  0  0  0  0  0  0  0  0  0  0  0
  151.9098  140.0203  158.4377 N   0  0  0  0  0  0  0  0  0  0  0  0
  151.4379  139.0353  157.3849 C   0  0  2  0  0  0  0  0  0  0  0  0
  152.4815  138.8939  156.2600 C   0  0  0  0  0  0  0  0  0  0  0  0
  151.6573  139.1100  154.9983 C   0  0  1  0  0  0  0  0  0  0  0  0
  151.0825  137.8470  154.5134 N   0  0  0  0  0  0  0  0  0  0  0  0
  151.4219  136.8181  155.1119 N   0  3  0  0  0  0  0  0  0  0  0  0
  151.7909  135.8371  155.5552 N   0  5  0  0  0  0  0  0  0  0  0  0
  150.5825  140.0712  155.5195 C   0  0  1  0  0  0  0  0  0  0  0  0
  149.3281  140.1948  154.6376 C   0  0  0  0  0  0  0  0  0  0  0  0
  149.6447  140.8621  153.4342 O   0  0  0  0  0  0  0  0  0  0  0  0
  150.2637  139.5019  156.7842 O   0  0  0  0  0  0  0  0  0  0  0  0
  152.8469  139.5815  159.4100 C   0  0  0  0  0  0  0  0  0  0  0  0
  153.2423  138.4169  159.3463 O   0  0  0  0  0  0  0  0  0  0  0  0
  153.2676  140.4605  160.3635 N   0  5  0  0  0  0  0  0  0  0  0  0
  152.8194  141.7468  160.4307 C   0  0  0  0  0  0  0  0  0  0  0  0
  153.2100  142.5313  161.2950 O   0  0  0  0  0  0  0  0  0  0  0  0
  151.2284  138.1085  157.9215 H   0  0  0  0  0  0  0  0  0  0  0  0
  152.2482  139.5923  154.2172 H   0  0  0  0  0  0  0  0  0  0  0  0
  151.0380  141.0535  155.6617 H   0  0  0  0  0  0  0  0  0  0  0  0
  150.6086  143.8195  158.6921 H   0  0  0  0  0  0  0  0  0  0  0  0
  152.1361  144.3330  159.4112 H   0  0  0  0  0  0  0  0  0  0  0  0
  150.8051  143.7954  160.4461 H   0  0  0  0  0  0  0  0  0  0  0  0
  150.7037  141.6556  157.7684 H   0  0  0  0  0  0  0  0  0  0  0  0
  153.2370  139.6761  156.3520 H   0  0  0  0  0  0  0  0  0  0  0  0
  152.9804  137.9251  156.3087 H   0  0  0  0  0  0  0  0  0  0  0  0
  148.9567  139.2041  154.3739 H   0  0  0  0  0  0  0  0  0  0  0  0
  148.5245  140.7165  155.1583 H   0  0  0  0  0  0  0  0  0  0  0  0
  149.5767  140.2450  152.7219 H   0  0  0  0  0  0  0  0  0  0  0  0
  1  2  1  0  0  0  0
  1 23  1  0  0  0  0
  1 24  1  0  0  0  0
  1 25  1  0  0  0  0
  2 18  1  0  0  0  0
  2  3  2  0  0  0  0
  3  4  1  0  0  0  0
  3 26  1  0  0  0  0
  4  5  1  0  0  0  0
  4 15  1  0  0  0  0
  5 20  1  0  0  0  0
  5 14  1  0  0  0  0
  5  6  1  0  0  0  0
  6  7  1  0  0  0  0
  6 27  1  0  0  0  0
  6 28  1  0  0  0  0
  7 21  1  0  0  0  0
  7  8  1  0  0  0  0
  7 11  1  0  0  0  0
  8  9  2  0  0  0  0
  9 10  2  0  0  0  0
 11 22  1  0  0  0  0
 11 12  1  0  0  0  0
 11 14  1  0  0  0  0
 12 13  1  0  0  0  0
 12 29  1  0  0  0  0
 12 30  1  0  0  0  0
 13 31  1  0  0  0  0
 15 16  2  0  0  0  0
 15 17  1  0  0  0  0
 17 18  1  0  0  0  0
 18 19  2  0  0  0  0
M  CHG  1   9   1
M  CHG  1  10  -1
M  CHG  1  17  -1
M  END
> <s_m_source_file>
AV-unprocessed.smi

> <i_m_source_file_index>
39

> <i_lp_mmshare_version>
43012

> <i_f3d_flags>
0

> <s_epik_input>
Tz1jMVtuSF1jKD1PKW4oW2NIXWMxW0NIM10pW0NASF0yW0NIMl1bQ0BIXShOPVtOK109W04tXSlbQ0BIXShPMilbQ0gyXVtPSF0=

> <s_epik_cmdline>
J2VwaWtfcHl0aG9uJywgJy1waCcsICc3LjAnLCAnLXRuJywgJzgnLCAnLW1hJywgJzIwMCcsICctbWV0YWxfYmluZGluZycsICctaW1hZScsICc8aW5maWxlLm1hZT4nLCAnLW9tYWUnLCAnPG91dGZpbGUubWFlPic=

> <r_lp_tautomer_probability>
0.999537

> <r_epik_Ionization_Penalty>
3.6393

> <r_epik_Ionization_Penalty_Charging>
9.76484e-08

> <r_epik_Ionization_Penalty_Neutral>
3.6393

> <r_epik_State_Penalty>
3.63887

> <r_epik_Charging_Adjusted_Penalty>
3.63887

> <i_epik_Tot_Q>
-1

> <i_epik_Tot_abs_Q>
3

> <r_epik_Metal_State_Penalty>
0.225911

> <b_epik_Metal_Only>
1

> <s_epik_Chemistry_Notes>
This compound contains an acetal/aminal-like group ( X-CH(R)-Y where X, Y are N, S, or O) that may be acid/base labile, releasing an aldehyde.

> <s_lp_Force_Field>
OPLS_2005

> <r_lp_Energy>
37.741

> <b_lp_Chiralities_Consistent>
1

> <s_lp_Variant>
AV-unprocessed.smi:39-12

> <Gold.Version>
5.8.1

> <Gold.Id.Protein>
6NUR|6NUR_protein|mol2

> <Gold.PLP.Fitness>
40.5257

> <Gold.PLP.PLP>
-32.1763

> <Gold.PLP.part.hbond>
-4.1244

> <Gold.PLP.part.metal>
0.0000

> <Gold.PLP.part.buried>
-5.0969

> <Gold.PLP.part.nonpolar>
-24.1219

> <Gold.PLP.part.repulsive>
0.3686

> <Gold.PLP.ligand.clash>
0.0000

> <Gold.PLP.ligand.torsion>
0.5285

> <Gold.PLP.Chemscore.Hbond>
3.1200

> <Gold.PLP.Chemscore.CHOScore>
0.0000

> <Gold.PLP.Chemscore.Metal>
0.0000

> <Gold.Chemscore.Hbonds>
donor molecule, donor type, donor heavy atom, donor atom, acceptor molecule, acceptor atom, score
      L1  H    13    31       P1  7957  0.91
      P1  H  7989  7998       L1    13  0.22
      P1  H  8011  8017       L1    13  0.80
      P1  H 10752 10764       L1    10  0.80

> <Gold.PLP.Chemscore.Internal.Correction>
0.0464

> <Gold.Rescore>
     Score         DG    S(hbond)    S(metal)    S(lipo)     H(rot)  DE(clash)    DE(int)     intcor
     10.97     -11.48       1.96        0.00      54.82       2.72       0.17       0.34       ----

> <Gold.Chemscore.Fitness>
10.9653

> <Gold.Chemscore.DG>
-11.4777

> <Gold.Chemscore.ZeroCoef>
-5.4800

> <Gold.Chemscore.Hbond>
1.9567

> <Gold.Chemscore.Metal>
0.0000

> <Gold.Chemscore.Lipo>
54.8162

> <Gold.Chemscore.Internal_Hbond>
0.0000

> <Gold.Chemscore.DEClash>
0.1678

> <Gold.Chemscore.DEInternal>
0.3446

> <Gold.Chemscore.Rot>
2.7153

> <Gold.Chemscore.Internal.Correction>
   9.000000E+99

> <Gold.Chemscore.Hbonds>
donor molecule, donor type, donor heavy atom, donor atom, acceptor molecule, acceptor atom, score
      L1  H    13    31       P1  7957  0.87
      P1  H  7989  7998       L1    13  0.01
      P1  H  8011  8017       L1    13  0.12
      P1  H 10752 10764       L1    10  0.55

> <Gold.Chemscore.Hbond.Weighted>
-6.5354

> <Gold.Chemscore.Metal.Weighted>
-0.0000

> <Gold.Chemscore.Lipo.Weighted>
-6.4135

> <Gold.Chemscore.Internal_Hbond.Weighted>
0.0000

> <Gold.Chemscore.DEClash.Weighted>
0.1678

> <Gold.Chemscore.DEInternal.Weighted>
0.3446

> <Gold.Chemscore.Rot.Weighted>
6.9512

> <Gold.Chemscore.Internal.Correction.Weighted>
   9.000000E+99

> <Gold.Protein.RotatedTorsions>
[ 6907 6896 6895 6894 ] final -167.81 input  -60.11 | X-H torsion
[ 7974 7965 7964 7962 ] final   19.02 input  175.53 | X-H torsion
[ 8008 7997 7996 7995 ] final  149.37 input   59.86 | X-H torsion
[ 10167 10162 10161 10158 ] final  151.42 input  -65.29 | X-H torsion
[ 10718 10713 10712 10709 ] final -179.41 input   66.30 | X-H torsion
[ 10763 10752 10751 10750 ] final  -37.04 input  -60.55 | X-H torsion
[ 11005 11000 10999 10996 ] final -129.93 input  -57.11 | X-H torsion

> <Gold.Protein.ActiveResidues>
 VAL166  LYS551  ARG553  GLY616  TRP617  ASP618  TYR619  PRO620  LYS621  CYS622 
 ASP623  PHE694  ASN695  SER759  ASP760  ASP761  ALA762  ILE779  LEU786  VAL792 
 PHE793  MET794  SER795  GLU796  ALA797  LYS798  CYS799  TRP800  GLU811  SER814 

> <Gold.Protein.RotatedAtoms>
  151.4655  133.3582  159.2815 H   0  0  0  0  0  0  0  0  0  0  0  0  # atno 6907 bound_to 6896
  150.8996  134.8409  159.7361 H   0  0  0  0  0  0  0  0  0  0  0  0  # atno 6908 bound_to 6896
  152.4871  134.4574  159.9646 H   0  0  0  0  0  0  0  0  0  0  0  0  # atno 6909 bound_to 6896
  146.2164  139.8373  142.8648 H   0  0  0  0  0  0  0  0  0  0  0  0  # atno 7974 bound_to 7965
  156.2757  140.2104  156.5847 H   0  0  0  0  0  0  0  0  0  0  0  0  # atno 8008 bound_to 7997
  154.7031  140.0519  157.0500 H   0  0  0  0  0  0  0  0  0  0  0  0  # atno 8009 bound_to 7997
  155.0708  140.3176  155.4634 H   0  0  0  0  0  0  0  0  0  0  0  0  # atno 8010 bound_to 7997
  139.4841  144.5443  151.7512 H   0  0  0  0  0  0  0  0  0  0  0  0  # atno 10167 bound_to 10162
  156.8587  130.9744  151.3085 H   0  0  0  0  0  0  0  0  0  0  0  0  # atno 10718 bound_to 10713
  153.8897  135.6813  153.4761 H   0  0  0  0  0  0  0  0  0  0  0  0  # atno 10763 bound_to 10752
  153.1188  135.4749  154.9157 H   0  0  0  0  0  0  0  0  0  0  0  0  # atno 10764 bound_to 10752
  154.7628  135.3215  154.8297 H   0  0  0  0  0  0  0  0  0  0  0  0  # atno 10765 bound_to 10752
  140.9389  134.1220  157.4169 H   0  0  0  0  0  0  0  0  0  0  0  0  # atno 11005 bound_to 11000
  145.2935  141.0174  143.3649 LP  0  0  0  0  0  0  0  0  0  0  0  0  # atno 17320 bound_to 7965
  144.9060  139.4589  143.6610 LP  0  0  0  0  0  0  0  0  0  0  0  0  # atno 17321 bound_to 7965
  140.4987  144.1202  150.5966 LP  0  0  0  0  0  0  0  0  0  0  0  0  # atno 17342 bound_to 10162
  140.4088  143.2667  151.9858 LP  0  0  0  0  0  0  0  0  0  0  0  0  # atno 17343 bound_to 10162
  157.6262  130.8693  149.9194 LP  0  0  0  0  0  0  0  0  0  0  0  0  # atno 17370 bound_to 10713
  156.0788  130.3675  150.0622 LP  0  0  0  0  0  0  0  0  0  0  0  0  # atno 17371 bound_to 10713
  139.8815  135.0030  156.6160 LP  0  0  0  0  0  0  0  0  0  0  0  0  # atno 17394 bound_to 11000
  140.7761  133.8698  155.8530 LP  0  0  0  0  0  0  0  0  0  0  0  0  # atno 17395 bound_to 11000

$$$$
