AV-unprocessed.smi:12|AV-procd|sdf|61|dock1
  -GOLD-   2262015183D 1   1.00000     0.00000
 Structure written by MMmdl.
 41 44  0  0  0  0  0  0  0  0  1 V2000
  145.0452  144.1349  155.6037 C   0  0  0  0  0  0  0  0  0  0  0  0
  145.5104  142.7398  155.2272 C   0  0  0  0  0  0  0  0  0  0  0  0
  146.6508  142.5348  154.5268 C   0  0  0  0  0  0  0  0  0  0  0  0
  147.0307  141.2577  154.2221 N   0  0  0  0  0  0  0  0  0  0  0  0
  146.2215  140.1726  154.6228 C   0  0  0  0  0  0  0  0  0  0  0  0
  145.1170  140.2860  155.2925 N   0  0  0  0  0  0  0  0  0  0  0  0
  144.6860  141.5788  155.6473 C   0  0  0  0  0  0  0  0  0  0  0  0
  143.6485  141.7364  156.2891 O   0  0  0  0  0  0  0  0  0  0  0  0
  146.7911  139.0151  154.1883 O   0  0  0  0  0  0  0  0  0  0  0  0
  148.0178  139.3029  153.5016 C   0  0  2  0  0  0  0  0  0  0  0  0
  149.2061  138.8154  154.3267 C   0  0  1  0  0  0  0  0  0  0  0  0
  150.2338  138.3337  153.4811 O   0  0  0  0  0  0  0  0  0  0  0  0
  149.6318  140.0614  155.1158 C   0  0  1  0  0  0  0  0  0  0  0  0
  151.0937  140.0910  155.5814 C   0  0  0  0  0  0  0  0  0  0  0  0
  151.2733  141.1944  156.4535 O   0  0  0  0  0  0  0  0  0  0  0  0
  152.0880  141.0881  157.5203 C   0  0  0  0  0  0  0  0  0  0  0  0
  152.7168  140.0652  157.7996 O   0  0  0  0  0  0  0  0  0  0  0  0
  152.1455  142.3385  158.3314 C   0  0  0  0  0  0  0  0  0  0  0  0
  151.6379  143.5417  157.7881 C   0  0  0  0  0  0  0  0  0  0  0  0
  151.6794  144.7377  158.5307 C   0  0  0  0  0  0  0  0  0  0  0  0
  152.2271  144.7446  159.8268 C   0  0  0  0  0  0  0  0  0  0  0  0
  152.7341  143.5540  160.3791 C   0  0  0  0  0  0  0  0  0  0  0  0
  152.6947  142.3571  159.6374 C   0  0  0  0  0  0  0  0  0  0  0  0
  149.3573  141.1253  154.2130 O   0  0  0  0  0  0  0  0  0  0  0  0
  148.2140  140.8328  153.4672 C   0  0  2  0  0  0  0  0  0  0  0  0
  145.7318  144.8954  155.2307 H   0  0  0  0  0  0  0  0  0  0  0  0
  144.9858  144.2367  156.6878 H   0  0  0  0  0  0  0  0  0  0  0  0
  144.0590  144.3359  155.1839 H   0  0  0  0  0  0  0  0  0  0  0  0
  147.2682  143.3635  154.2121 H   0  0  0  0  0  0  0  0  0  0  0  0
  147.9956  138.8922  152.4909 H   0  0  0  0  0  0  0  0  0  0  0  0
  148.9247  138.0009  154.9954 H   0  0  0  0  0  0  0  0  0  0  0  0
  149.8509  137.7509  152.8432 H   0  0  0  0  0  0  0  0  0  0  0  0
  148.9730  140.1639  155.9802 H   0  0  0  0  0  0  0  0  0  0  0  0
  151.3283  139.1705  156.1180 H   0  0  0  0  0  0  0  0  0  0  0  0
  151.7721  140.1624  154.7301 H   0  0  0  0  0  0  0  0  0  0  0  0
  151.2126  143.5609  156.7950 H   0  0  0  0  0  0  0  0  0  0  0  0
  151.2906  145.6506  158.1045 H   0  0  0  0  0  0  0  0  0  0  0  0
  152.2581  145.6617  160.3966 H   0  0  0  0  0  0  0  0  0  0  0  0
  153.1543  143.5574  161.3741 H   0  0  0  0  0  0  0  0  0  0  0  0
  153.0907  141.4608  160.0920 H   0  0  0  0  0  0  0  0  0  0  0  0
  148.1429  141.3164  152.4926 H   0  0  0  0  0  0  0  0  0  0  0  0
  1  2  1  0  0  0  0
  1 26  1  0  0  0  0
  1 27  1  0  0  0  0
  1 28  1  0  0  0  0
  2  7  1  0  0  0  0
  2  3  2  0  0  0  0
  3  4  1  0  0  0  0
  3 29  1  0  0  0  0
  4 25  1  0  0  0  0
  4  5  1  0  0  0  0
  5  6  2  0  0  0  0
  5  9  1  0  0  0  0
  6  7  1  0  0  0  0
  7  8  2  0  0  0  0
  9 10  1  0  0  0  0
 10 25  1  0  0  0  0
 10 11  1  0  0  0  0
 10 30  1  0  0  0  0
 11 12  1  0  0  0  0
 11 13  1  0  0  0  0
 11 31  1  0  0  0  0
 12 32  1  0  0  0  0
 13 14  1  0  0  0  0
 13 24  1  0  0  0  0
 13 33  1  0  0  0  0
 14 15  1  0  0  0  0
 14 34  1  0  0  0  0
 14 35  1  0  0  0  0
 15 16  1  0  0  0  0
 16 17  2  0  0  0  0
 16 18  1  0  0  0  0
 18 23  1  0  0  0  0
 18 19  2  0  0  0  0
 19 20  1  0  0  0  0
 19 36  1  0  0  0  0
 20 21  2  0  0  0  0
 20 37  1  0  0  0  0
 21 22  1  0  0  0  0
 21 38  1  0  0  0  0
 22 23  2  0  0  0  0
 22 39  1  0  0  0  0
 23 40  1  0  0  0  0
 24 25  1  0  0  0  0
 25 41  1  0  0  0  0
M  END
> <s_m_source_file>
AV-unprocessed.smi

> <i_m_source_file_index>
12

> <i_lp_mmshare_version>
43012

> <i_f3d_flags>
0

> <s_epik_input>
W0NIM11jKFtjSF0xKWMoPU8pbmMobjEyKU9bQ0BIXTNbQ0BASF0yT1tDQEBIXShbQ0BASF0zW09IXSlbQ0gyXU9DKD1PKWM0W2NIXVtjSF1bY0hdW2NIXVtjSF00

> <s_epik_cmdline>
J2VwaWtfcHl0aG9uJywgJy1waCcsICc3LjAnLCAnLXRuJywgJzgnLCAnLW1hJywgJzIwMCcsICctbWV0YWxfYmluZGluZycsICctaW1hZScsICc8aW5maWxlLm1hZT4nLCAnLW9tYWUnLCAnPG91dGZpbGUubWFlPic=

> <r_lp_tautomer_probability>
0.933681

> <r_epik_Ionization_Penalty>
0.00399549

> <r_epik_Ionization_Penalty_Charging>
3.09373e-09

> <r_epik_Ionization_Penalty_Neutral>
0.00399549

> <r_epik_State_Penalty>
0.00284953

> <r_epik_Charging_Adjusted_Penalty>
0.00284953

> <i_epik_Tot_Q>
0

> <i_epik_Tot_abs_Q>
0

> <r_epik_Metal_State_Penalty>
-0

> <b_epik_Metal_Only>
0

> <s_epik_Chemistry_Notes>
This compound has an ester and may undergo hydrolysis at high or low pH. This compound contains an acetal/aminal-like group ( X-CH(R)-Y where X, Y are N, S, or O) that may be acid/base labile, releasing an aldehyde.

> <s_lp_Force_Field>
OPLS_2005

> <r_lp_Energy>
39.7302

> <b_lp_Chiralities_Consistent>
1

> <s_lp_Variant>
AV-unprocessed.smi:12-1

> <Gold.Version>
5.8.1

> <Gold.Id.Protein>
6NUR|6NUR_protein|mol2

> <Gold.PLP.Fitness>
53.5802

> <Gold.PLP.PLP>
-45.4277

> <Gold.PLP.part.hbond>
-4.7003

> <Gold.PLP.part.metal>
0.0000

> <Gold.PLP.part.buried>
-2.5165

> <Gold.PLP.part.nonpolar>
-38.0955

> <Gold.PLP.part.repulsive>
0.5124

> <Gold.PLP.ligand.clash>
0.0000

> <Gold.PLP.ligand.torsion>
0.3931

> <Gold.PLP.Chemscore.Hbond>
2.0197

> <Gold.PLP.Chemscore.CHOScore>
0.9474

> <Gold.PLP.Chemscore.Metal>
0.0000

> <Gold.Chemscore.Hbonds>
donor molecule, donor type, donor heavy atom, donor atom, acceptor molecule, acceptor atom, score
      L1  H    12    32       P1  7948  1.00
      P1  H  7989  7998       L1    24  0.02
      P1  H  7997  8010       L1    17  1.00
      P1  H  8011  8017       L1    24  0.01
      L1  C     3    29       P1  8028  0.93

> <Gold.PLP.Chemscore.Internal.Correction>
0.0376

> <Gold.Rescore>
     Score         DG    S(hbond)    S(metal)    S(lipo)     H(rot)  DE(clash)    DE(int)     intcor
     17.99     -18.55       1.87        0.00     106.06       2.18       0.20       0.35       ----

> <Gold.Chemscore.Fitness>
17.9896

> <Gold.Chemscore.DG>
-18.5463

> <Gold.Chemscore.ZeroCoef>
-5.4800

> <Gold.Chemscore.Hbond>
1.8676

> <Gold.Chemscore.Metal>
0.0000

> <Gold.Chemscore.Lipo>
106.0627

> <Gold.Chemscore.Internal_Hbond>
0.0000

> <Gold.Chemscore.DEClash>
0.2022

> <Gold.Chemscore.DEInternal>
0.3544

> <Gold.Chemscore.Rot>
2.1800

> <Gold.Chemscore.Internal.Correction>
   9.000000E+99

> <Gold.Chemscore.Hbonds>
donor molecule, donor type, donor heavy atom, donor atom, acceptor molecule, acceptor atom, score
      L1  H    12    32       P1  7948  0.34
      P1  H  7997  8010       L1    17  0.61

> <Gold.Chemscore.Hbond.Weighted>
-6.2377

> <Gold.Chemscore.Metal.Weighted>
-0.0000

> <Gold.Chemscore.Lipo.Weighted>
-12.4093

> <Gold.Chemscore.Internal_Hbond.Weighted>
0.0000

> <Gold.Chemscore.DEClash.Weighted>
0.2022

> <Gold.Chemscore.DEInternal.Weighted>
0.3544

> <Gold.Chemscore.Rot.Weighted>
5.5807

> <Gold.Chemscore.Internal.Correction.Weighted>
   9.000000E+99

> <Gold.Protein.RotatedTorsions>
[ 6907 6896 6895 6894 ] final   52.07 input  -60.11 | X-H torsion
[ 7974 7965 7964 7962 ] final   56.33 input  175.53 | X-H torsion
[ 8008 7997 7996 7995 ] final   54.70 input   59.86 | X-H torsion
[ 10167 10162 10161 10158 ] final   60.20 input  -65.29 | X-H torsion
[ 10718 10713 10712 10709 ] final  144.70 input   66.30 | X-H torsion
[ 10763 10752 10751 10750 ] final -131.96 input  -60.55 | X-H torsion
[ 11005 11000 10999 10996 ] final -135.39 input  -57.11 | X-H torsion

> <Gold.Protein.ActiveResidues>
 VAL166  LYS551  ARG553  GLY616  TRP617  ASP618  TYR619  PRO620  LYS621  CYS622 
 ASP623  PHE694  ASN695  SER759  ASP760  ASP761  ALA762  ILE779  LEU786  VAL792 
 PHE793  MET794  SER795  GLU796  ALA797  LYS798  CYS799  TRP800  GLU811  SER814 

> <Gold.Protein.RotatedAtoms>
  152.3194  134.7399  160.0317 H   0  0  0  0  0  0  0  0  0  0  0  0  # atno 6907 bound_to 6896
  151.7852  133.3348  159.3491 H   0  0  0  0  0  0  0  0  0  0  0  0  # atno 6908 bound_to 6896
  150.7362  134.5824  159.5990 H   0  0  0  0  0  0  0  0  0  0  0  0  # atno 6909 bound_to 6896
  145.9409  139.3888  143.0364 H   0  0  0  0  0  0  0  0  0  0  0  0  # atno 7974 bound_to 7965
  155.4890  140.3471  155.4352 H   0  0  0  0  0  0  0  0  0  0  0  0  # atno 8008 bound_to 7997
  156.0989  140.1430  156.9522 H   0  0  0  0  0  0  0  0  0  0  0  0  # atno 8009 bound_to 7997
  154.4681  140.0910  156.7052 H   0  0  0  0  0  0  0  0  0  0  0  0  # atno 8010 bound_to 7997
  140.1681  144.4304  150.6675 H   0  0  0  0  0  0  0  0  0  0  0  0  # atno 10167 bound_to 10162
  157.3540  131.0955  151.0975 H   0  0  0  0  0  0  0  0  0  0  0  0  # atno 10718 bound_to 10713
  154.8747  135.3813  154.4331 H   0  0  0  0  0  0  0  0  0  0  0  0  # atno 10763 bound_to 10752
  153.5023  135.7030  153.5830 H   0  0  0  0  0  0  0  0  0  0  0  0  # atno 10764 bound_to 10752
  153.4156  135.3914  155.2045 H   0  0  0  0  0  0  0  0  0  0  0  0  # atno 10765 bound_to 10752
  140.8902  134.1821  157.4532 H   0  0  0  0  0  0  0  0  0  0  0  0  # atno 11005 bound_to 11000
  145.8300  140.9635  143.0854 LP  0  0  0  0  0  0  0  0  0  0  0  0  # atno 17320 bound_to 7965
  144.6779  140.0151  143.7484 LP  0  0  0  0  0  0  0  0  0  0  0  0  # atno 17321 bound_to 7965
  140.6600  143.2249  151.5879 LP  0  0  0  0  0  0  0  0  0  0  0  0  # atno 17342 bound_to 10162
  139.5350  144.2806  152.1232 LP  0  0  0  0  0  0  0  0  0  0  0  0  # atno 17343 bound_to 10162
  157.2140  130.6450  149.5785 LP  0  0  0  0  0  0  0  0  0  0  0  0  # atno 17370 bound_to 10713
  155.9726  130.4651  150.6241 LP  0  0  0  0  0  0  0  0  0  0  0  0  # atno 17371 bound_to 10713
  139.8729  134.9855  156.5285 LP  0  0  0  0  0  0  0  0  0  0  0  0  # atno 17394 bound_to 11000
  140.8356  133.8245  155.9025 LP  0  0  0  0  0  0  0  0  0  0  0  0  # atno 17395 bound_to 11000

$$$$
