AV-unprocessed.smi:1033|AV-procd|sdf|4495|dock7
  -GOLD-   22720 2483D 1   1.00000     0.00000
 Structure written by MMmdl.
 56 58  0  0  0  0  0  0  0  0  2 V2000
  152.7529  143.4121  161.7100 C   0  0  0  0  0  0  0  0  0  0  0  0
  152.2684  142.8996  160.3649 C   0  0  0  0  0  0  0  0  0  0  0  0
  152.8090  141.6989  159.8523 C   0  0  0  0  0  0  0  0  0  0  0  0
  152.3879  141.1898  158.6044 C   0  0  0  0  0  0  0  0  0  0  0  0
  152.7775  140.0514  157.9200 N   0  0  0  0  0  0  0  0  0  0  0  0
  152.0306  140.1291  156.8226 C   0  0  0  0  0  0  0  0  0  0  0  0
  151.2041  141.1875  156.7130 N   0  0  0  0  0  0  0  0  0  0  0  0
  150.3032  141.4857  155.6144 C   0  0  0  0  0  0  0  0  0  0  0  0
  148.8395  141.1446  155.9544 C   0  0  1  0  0  0  0  0  0  0  0  0
  148.2900  142.1216  156.8161 O   0  0  0  0  0  0  0  0  0  0  0  0
  147.8854  140.9289  154.7579 C   0  0  0  0  0  0  0  0  0  0  0  0
  148.3614  140.0359  153.6906 N   0  0  0  0  0  0  0  0  0  0  0  0
  149.3769  139.0619  154.1088 C   0  0  0  0  0  0  0  0  0  0  0  0
  148.8267  137.9316  155.0049 C   0  0  0  0  0  0  0  0  0  0  0  0
  147.6988  137.2349  154.3316 N   0  3  0  0  0  0  0  0  0  0  0  0
  147.1426  136.1026  155.1147 C   0  0  0  0  0  0  0  0  0  0  0  0
  147.9300  134.7919  154.9154 C   0  0  2  0  0  0  0  0  0  0  0  0
  149.4225  134.9274  155.2507 C   0  0  0  0  0  0  0  0  0  0  0  0
  147.8165  134.4061  153.5622 O   0  0  0  0  0  0  0  0  0  0  0  0
  146.6563  138.2107  153.9264 C   0  0  0  0  0  0  0  0  0  0  0  0
  147.2750  139.3059  153.0370 C   0  0  0  0  0  0  0  0  0  0  0  0
  151.4031  141.9208  157.8775 C   0  0  0  0  0  0  0  0  0  0  0  0
  150.8560  143.1153  158.3778 C   0  0  0  0  0  0  0  0  0  0  0  0
  151.2887  143.6104  159.6259 C   0  0  0  0  0  0  0  0  0  0  0  0
  150.6936  144.9024  160.1568 C   0  0  0  0  0  0  0  0  0  0  0  0
  153.4787  142.7320  162.1569 H   0  0  0  0  0  0  0  0  0  0  0  0
  151.9187  143.5132  162.4048 H   0  0  0  0  0  0  0  0  0  0  0  0
  153.2310  144.3853  161.5975 H   0  0  0  0  0  0  0  0  0  0  0  0
  153.5554  141.1572  160.4148 H   0  0  0  0  0  0  0  0  0  0  0  0
  152.0902  139.3753  156.0510 H   0  0  0  0  0  0  0  0  0  0  0  0
  150.4065  142.5442  155.3754 H   0  0  0  0  0  0  0  0  0  0  0  0
  150.6328  140.9210  154.7415 H   0  0  0  0  0  0  0  0  0  0  0  0
  148.8403  140.2117  156.5195 H   0  0  0  0  0  0  0  0  0  0  0  0
  148.2989  142.9549  156.3700 H   0  0  0  0  0  0  0  0  0  0  0  0
  146.9141  140.5995  155.1247 H   0  0  0  0  0  0  0  0  0  0  0  0
  147.7011  141.9177  154.3352 H   0  0  0  0  0  0  0  0  0  0  0  0
  149.8173  138.6133  153.2172 H   0  0  0  0  0  0  0  0  0  0  0  0
  150.2009  139.5505  154.6213 H   0  0  0  0  0  0  0  0  0  0  0  0
  149.6327  137.2286  155.2110 H   0  0  0  0  0  0  0  0  0  0  0  0
  148.5019  138.3203  155.9705 H   0  0  0  0  0  0  0  0  0  0  0  0
  147.1155  136.3775  156.1705 H   0  0  0  0  0  0  0  0  0  0  0  0
  146.1065  135.9313  154.8177 H   0  0  0  0  0  0  0  0  0  0  0  0
  147.4954  133.9885  155.5092 H   0  0  0  0  0  0  0  0  0  0  0  0
  149.5713  135.1815  156.3004 H   0  0  0  0  0  0  0  0  0  0  0  0
  149.8980  135.7037  154.6500 H   0  0  0  0  0  0  0  0  0  0  0  0
  149.9523  133.9925  155.0645 H   0  0  0  0  0  0  0  0  0  0  0  0
  148.1514  135.1017  153.0166 H   0  0  0  0  0  0  0  0  0  0  0  0
  145.8710  137.6982  153.3696 H   0  0  0  0  0  0  0  0  0  0  0  0
  146.1869  138.6454  154.8104 H   0  0  0  0  0  0  0  0  0  0  0  0
  146.5012  140.0031  152.7130 H   0  0  0  0  0  0  0  0  0  0  0  0
  147.6553  138.8461  152.1235 H   0  0  0  0  0  0  0  0  0  0  0  0
  150.1108  143.6466  157.8046 H   0  0  0  0  0  0  0  0  0  0  0  0
  149.9705  145.3238  159.4580 H   0  0  0  0  0  0  0  0  0  0  0  0
  151.4743  145.6458  160.3189 H   0  0  0  0  0  0  0  0  0  0  0  0
  150.1807  144.7256  161.1022 H   0  0  0  0  0  0  0  0  0  0  0  0
  148.0627  136.8429  153.4747 H   0  0  0  0  0  0  0  0  0  0  0  0
  1  2  1  0  0  0  0
  1 26  1  0  0  0  0
  1 27  1  0  0  0  0
  1 28  1  0  0  0  0
  2 24  1  0  0  0  0
  2  3  2  0  0  0  0
  3  4  1  0  0  0  0
  3 29  1  0  0  0  0
  4 22  2  0  0  0  0
  4  5  1  0  0  0  0
  5  6  2  0  0  0  0
  6  7  1  0  0  0  0
  6 30  1  0  0  0  0
  7  8  1  0  0  0  0
  7 22  1  0  0  0  0
  8  9  1  0  0  0  0
  8 31  1  0  0  0  0
  8 32  1  0  0  0  0
  9 10  1  0  0  0  0
  9 11  1  0  0  0  0
  9 33  1  0  0  0  0
 10 34  1  0  0  0  0
 11 12  1  0  0  0  0
 11 35  1  0  0  0  0
 11 36  1  0  0  0  0
 12 21  1  0  0  0  0
 12 13  1  0  0  0  0
 13 14  1  0  0  0  0
 13 37  1  0  0  0  0
 13 38  1  0  0  0  0
 14 15  1  0  0  0  0
 14 39  1  0  0  0  0
 14 40  1  0  0  0  0
 15 16  1  0  0  0  0
 15 20  1  0  0  0  0
 15 56  1  0  0  0  0
 16 17  1  0  0  0  0
 16 41  1  0  0  0  0
 16 42  1  0  0  0  0
 17 18  1  0  0  0  0
 17 19  1  0  0  0  0
 17 43  1  0  0  0  0
 18 44  1  0  0  0  0
 18 45  1  0  0  0  0
 18 46  1  0  0  0  0
 19 47  1  0  0  0  0
 20 21  1  0  0  0  0
 20 48  1  0  0  0  0
 20 49  1  0  0  0  0
 21 50  1  0  0  0  0
 21 51  1  0  0  0  0
 22 23  1  0  0  0  0
 23 24  2  0  0  0  0
 23 52  1  0  0  0  0
 24 25  1  0  0  0  0
 25 53  1  0  0  0  0
 25 54  1  0  0  0  0
 25 55  1  0  0  0  0
M  CHG  1  15   1
M  END
> <s_m_source_file>
AV-unprocessed.smi

> <i_m_source_file_index>
1033

> <i_lp_mmshare_version>
43012

> <i_f3d_flags>
0

> <s_epik_input>
W0NIM11jKFtjSF0xKWMoW0NIM10pW2NIXWMoYzEyKW4oW2NIXW4yKVtDSDJdW0NASF0oW09IXSlbQ0gyXU4zW0NIMl1bQ0gyXU4oW0NIMl1bQ0gyXTMpW0NIMl1bQ0BIXShbQ0gzXSlbT0hd

> <s_epik_cmdline>
J2VwaWtfcHl0aG9uJywgJy1waCcsICc3LjAnLCAnLXRuJywgJzgnLCAnLW1hJywgJzIwMCcsICctbWV0YWxfYmluZGluZycsICctaW1hZScsICc8aW5maWxlLm1hZT4nLCAnLW9tYWUnLCAnPG91dGZpbGUubWFlPic=

> <r_epik_Ionization_Penalty>
0.129152

> <r_epik_Ionization_Penalty_Charging>
0.00083231

> <r_epik_Ionization_Penalty_Neutral>
0.128319

> <r_epik_State_Penalty>
0.556973

> <r_epik_Charging_Adjusted_Penalty>
0.557805

> <i_epik_Tot_Q>
1

> <i_epik_Tot_abs_Q>
1

> <r_epik_Metal_State_Penalty>
0.490047

> <b_epik_Metal_Only>
0

> <s_lp_Force_Field>
OPLS_2005

> <r_lp_Energy>
40.305

> <b_lp_Chiralities_Consistent>
1

> <s_lp_Variant>
AV-unprocessed.smi:1033-6

> <Gold.Version>
5.8.1

> <Gold.Id.Protein>
6NUR|6NUR_protein|mol2

> <Gold.PLP.Fitness>
55.0798

> <Gold.PLP.PLP>
-42.2733

> <Gold.PLP.part.hbond>
-4.0000

> <Gold.PLP.part.metal>
0.0000

> <Gold.PLP.part.buried>
-5.0402

> <Gold.PLP.part.nonpolar>
-34.6378

> <Gold.PLP.part.repulsive>
2.0139

> <Gold.PLP.ligand.clash>
0.0039

> <Gold.PLP.ligand.torsion>
1.2213

> <Gold.PLP.Chemscore.Hbond>
4.9920

> <Gold.PLP.Chemscore.CHOScore>
0.0000

> <Gold.PLP.Chemscore.Metal>
0.0000

> <Gold.Chemscore.Hbonds>
donor molecule, donor type, donor heavy atom, donor atom, acceptor molecule, acceptor atom, score
      L1  H    10    34       P1  8028  1.00
      L1  H    15    56       P1  7948  2.00
      L1  H    19    47       P1  7948  1.00
      P1  H  7997  8010       L1     5  0.89

> <Gold.PLP.Chemscore.Internal.Correction>
0.2771

> <Gold.Rescore>
     Score         DG    S(hbond)    S(metal)    S(lipo)     H(rot)  DE(clash)    DE(int)     intcor
     19.40     -21.98       3.01        0.00     122.15       3.07       1.35       1.23       ----

> <Gold.Chemscore.Fitness>
19.3960

> <Gold.Chemscore.DG>
-21.9847

> <Gold.Chemscore.ZeroCoef>
-5.4800

> <Gold.Chemscore.Hbond>
3.0118

> <Gold.Chemscore.Metal>
0.0000

> <Gold.Chemscore.Lipo>
122.1510

> <Gold.Chemscore.Internal_Hbond>
0.0000

> <Gold.Chemscore.DEClash>
1.3540

> <Gold.Chemscore.DEInternal>
1.2347

> <Gold.Chemscore.Rot>
3.0650

> <Gold.Chemscore.Internal.Correction>
   9.000000E+99

> <Gold.Chemscore.Hbonds>
donor molecule, donor type, donor heavy atom, donor atom, acceptor molecule, acceptor atom, score
      L1  H    10    34       P1  8028  0.73
      L1  H    15    56       P1  7948  0.99
      L1  H    19    47       P1  7948  0.96
      P1  H  7997  8010       L1     5  0.17

> <Gold.Chemscore.Hbond.Weighted>
-10.0595

> <Gold.Chemscore.Metal.Weighted>
-0.0000

> <Gold.Chemscore.Lipo.Weighted>
-14.2917

> <Gold.Chemscore.Internal_Hbond.Weighted>
0.0000

> <Gold.Chemscore.DEClash.Weighted>
1.3540

> <Gold.Chemscore.DEInternal.Weighted>
1.2347

> <Gold.Chemscore.Rot.Weighted>
7.8465

> <Gold.Chemscore.Internal.Correction.Weighted>
   9.000000E+99

> <Gold.Protein.RotatedTorsions>
[ 6907 6896 6895 6894 ] final -104.12 input  -60.11 | X-H torsion
[ 7974 7965 7964 7962 ] final -126.43 input  175.53 | X-H torsion
[ 8008 7997 7996 7995 ] final   31.52 input   59.86 | X-H torsion
[ 10167 10162 10161 10158 ] final -142.43 input  -65.29 | X-H torsion
[ 10718 10713 10712 10709 ] final  -29.06 input   66.30 | X-H torsion
[ 10763 10752 10751 10750 ] final   97.21 input  -60.55 | X-H torsion
[ 11005 11000 10999 10996 ] final  175.04 input  -57.11 | X-H torsion

> <Gold.Protein.ActiveResidues>
 VAL166  LYS551  ARG553  GLY616  TRP617  ASP618  TYR619  PRO620  LYS621  CYS622 
 ASP623  PHE694  ASN695  SER759  ASP760  ASP761  ALA762  ILE779  LEU786  VAL792 
 PHE793  MET794  SER795  GLU796  ALA797  LYS798  CYS799  TRP800  GLU811  SER814 

> <Gold.Protein.RotatedAtoms>
  150.7272  134.0326  159.3738 H   0  0  0  0  0  0  0  0  0  0  0  0  # atno 6907 bound_to 6896
  151.8296  135.0623  160.0444 H   0  0  0  0  0  0  0  0  0  0  0  0  # atno 6908 bound_to 6896
  152.2943  133.5556  159.5614 H   0  0  0  0  0  0  0  0  0  0  0  0  # atno 6909 bound_to 6896
  144.9873  140.7698  143.4575 H   0  0  0  0  0  0  0  0  0  0  0  0  # atno 7974 bound_to 7965
  155.1078  140.3236  155.4530 H   0  0  0  0  0  0  0  0  0  0  0  0  # atno 8008 bound_to 7997
  156.2699  140.2049  156.6150 H   0  0  0  0  0  0  0  0  0  0  0  0  # atno 8009 bound_to 7997
  154.6779  140.0529  157.0222 H   0  0  0  0  0  0  0  0  0  0  0  0  # atno 8010 bound_to 7997
  139.8089  143.7730  152.2662 H   0  0  0  0  0  0  0  0  0  0  0  0  # atno 10167 bound_to 10162
  156.4172  130.4419  149.7209 H   0  0  0  0  0  0  0  0  0  0  0  0  # atno 10718 bound_to 10713
  153.2741  135.4191  155.1016 H   0  0  0  0  0  0  0  0  0  0  0  0  # atno 10763 bound_to 10752
  154.8466  135.3479  154.6203 H   0  0  0  0  0  0  0  0  0  0  0  0  # atno 10764 bound_to 10752
  153.6623  135.7047  153.5231 H   0  0  0  0  0  0  0  0  0  0  0  0  # atno 10765 bound_to 10752
  140.3578  134.7139  157.4311 H   0  0  0  0  0  0  0  0  0  0  0  0  # atno 11005 bound_to 11000
  145.2335  139.2104  143.5030 LP  0  0  0  0  0  0  0  0  0  0  0  0  # atno 17320 bound_to 7965
  146.3423  140.2217  142.8591 LP  0  0  0  0  0  0  0  0  0  0  0  0  # atno 17321 bound_to 7965
  139.7873  144.7423  151.0004 LP  0  0  0  0  0  0  0  0  0  0  0  0  # atno 17342 bound_to 10162
  140.7818  143.4479  151.0456 LP  0  0  0  0  0  0  0  0  0  0  0  0  # atno 17343 bound_to 10162
  156.4164  130.7747  151.2763 LP  0  0  0  0  0  0  0  0  0  0  0  0  # atno 17370 bound_to 10713
  157.7508  131.0196  150.3673 LP  0  0  0  0  0  0  0  0  0  0  0  0  # atno 17371 bound_to 10713
  140.0651  134.5941  155.8705 LP  0  0  0  0  0  0  0  0  0  0  0  0  # atno 17394 bound_to 11000
  141.1993  133.6606  156.5837 LP  0  0  0  0  0  0  0  0  0  0  0  0  # atno 17395 bound_to 11000

$$$$
