AV-unprocessed.smi:2346|AV-procd|sdf|9365|dock9
  -GOLD-   2272012593D 1   1.00000     0.00000
 Structure written by MMmdl.
 44 46  0  0  0  0  0  0  0  0  1 V2000
  146.1729  143.5451  161.5991 C   0  0  0  0  0  0  0  0  0  0  0  0
  146.8010  142.9374  160.4797 O   0  0  0  0  0  0  0  0  0  0  0  0
  146.2611  143.1517  159.2279 C   0  0  0  0  0  0  0  0  0  0  0  0
  145.1880  144.0450  158.9788 C   0  0  0  0  0  0  0  0  0  0  0  0
  144.6868  144.2162  157.6738 C   0  0  0  0  0  0  0  0  0  0  0  0
  143.5871  145.1345  157.4295 C   0  0  0  0  0  0  0  0  0  0  0  0
  142.7116  145.8654  157.2351 N   0  0  0  0  0  0  0  0  0  0  0  0
  145.2531  143.4958  156.6066 C   0  0  0  0  0  0  0  0  0  0  0  0
  146.3170  142.6071  156.8435 C   0  0  0  0  0  0  0  0  0  0  0  0
  146.8292  142.4281  158.1537 C   0  0  0  0  0  0  0  0  0  0  0  0
  147.8698  141.5743  158.4576 O   0  0  0  0  0  0  0  0  0  0  0  0
  148.4855  140.8535  157.4000 C   0  0  0  0  0  0  0  0  0  0  0  0
  149.6637  141.6788  156.8693 C   0  0  0  0  0  0  0  0  0  0  0  0
  150.9365  141.2162  157.4039 N   0  0  0  0  0  0  0  0  0  0  0  0
  151.7018  140.1679  156.9977 C   0  0  0  0  0  0  0  0  0  0  0  0
  151.3109  139.2549  155.8664 C   0  0  2  0  0  0  0  0  0  0  0  0
  152.4208  138.2489  155.5301 C   0  0  0  0  0  0  0  0  0  0  0  0
  150.9941  139.9731  154.6916 O   0  0  0  0  0  0  0  0  0  0  0  0
  152.8380  139.9897  157.6759 N   0  0  0  0  0  0  0  0  0  0  0  0
  152.8023  141.0038  158.6112 C   0  0  0  0  0  0  0  0  0  0  0  0
  153.7218  141.3465  159.6282 C   0  0  0  0  0  0  0  0  0  0  0  0
  153.4684  142.4413  160.4802 C   0  0  0  0  0  0  0  0  0  0  0  0
  152.2942  143.2064  160.3281 C   0  0  0  0  0  0  0  0  0  0  0  0
  151.3656  142.8820  159.3202 C   0  0  0  0  0  0  0  0  0  0  0  0
  151.6238  141.7888  158.4708 C   0  0  0  0  0  0  0  0  0  0  0  0
  146.7162  143.2769  162.5050 H   0  0  0  0  0  0  0  0  0  0  0  0
  145.1455  143.1979  161.7166 H   0  0  0  0  0  0  0  0  0  0  0  0
  146.1815  144.6332  161.5208 H   0  0  0  0  0  0  0  0  0  0  0  0
  144.7349  144.6105  159.7796 H   0  0  0  0  0  0  0  0  0  0  0  0
  144.8764  143.6199  155.6012 H   0  0  0  0  0  0  0  0  0  0  0  0
  146.7237  142.0729  155.9985 H   0  0  0  0  0  0  0  0  0  0  0  0
  148.8448  139.8883  157.7608 H   0  0  0  0  0  0  0  0  0  0  0  0
  147.7655  140.6752  156.6012 H   0  0  0  0  0  0  0  0  0  0  0  0
  149.6976  141.6617  155.7804 H   0  0  0  0  0  0  0  0  0  0  0  0
  149.5302  142.7256  157.1434 H   0  0  0  0  0  0  0  0  0  0  0  0
  150.4162  138.6947  156.1297 H   0  0  0  0  0  0  0  0  0  0  0  0
  152.6782  137.6396  156.3963 H   0  0  0  0  0  0  0  0  0  0  0  0
  153.3293  138.7550  155.2017 H   0  0  0  0  0  0  0  0  0  0  0  0
  152.1106  137.5733  154.7323 H   0  0  0  0  0  0  0  0  0  0  0  0
  150.2593  139.5517  154.2730 H   0  0  0  0  0  0  0  0  0  0  0  0
  154.6233  140.7653  159.7533 H   0  0  0  0  0  0  0  0  0  0  0  0
  154.1780  142.6949  161.2542 H   0  0  0  0  0  0  0  0  0  0  0  0
  152.1068  144.0427  160.9855 H   0  0  0  0  0  0  0  0  0  0  0  0
  150.4661  143.4677  159.2040 H   0  0  0  0  0  0  0  0  0  0  0  0
  1  2  1  0  0  0  0
  1 26  1  0  0  0  0
  1 27  1  0  0  0  0
  1 28  1  0  0  0  0
  2  3  1  0  0  0  0
  3 10  1  0  0  0  0
  3  4  2  0  0  0  0
  4  5  1  0  0  0  0
  4 29  1  0  0  0  0
  5  6  1  0  0  0  0
  5  8  2  0  0  0  0
  6  7  3  0  0  0  0
  8  9  1  0  0  0  0
  8 30  1  0  0  0  0
  9 10  2  0  0  0  0
  9 31  1  0  0  0  0
 10 11  1  0  0  0  0
 11 12  1  0  0  0  0
 12 13  1  0  0  0  0
 12 32  1  0  0  0  0
 12 33  1  0  0  0  0
 13 14  1  0  0  0  0
 13 34  1  0  0  0  0
 13 35  1  0  0  0  0
 14 25  1  0  0  0  0
 14 15  1  0  0  0  0
 15 16  1  0  0  0  0
 15 19  2  0  0  0  0
 16 17  1  0  0  0  0
 16 18  1  0  0  0  0
 16 36  1  0  0  0  0
 17 37  1  0  0  0  0
 17 38  1  0  0  0  0
 17 39  1  0  0  0  0
 18 40  1  0  0  0  0
 19 20  1  0  0  0  0
 20 25  2  0  0  0  0
 20 21  1  0  0  0  0
 21 22  2  0  0  0  0
 21 41  1  0  0  0  0
 22 23  1  0  0  0  0
 22 42  1  0  0  0  0
 23 24  2  0  0  0  0
 23 43  1  0  0  0  0
 24 25  1  0  0  0  0
 24 44  1  0  0  0  0
M  END
> <s_m_source_file>
AV-unprocessed.smi

> <i_m_source_file_index>
2346

> <i_lp_mmshare_version>
43012

> <i_f3d_flags>
0

> <s_epik_input>
W0NIM11PYzFbY0hdYyhDI04pW2NIXVtjSF1jMU9bQ0gyXVtDSDJdbihjKG4yKVtDQEhdKFtDSDNdKVtPSF0pYyhjMjMpW2NIXVtjSF1bY0hdW2NIXTM=

> <s_epik_cmdline>
J2VwaWtfcHl0aG9uJywgJy1waCcsICc3LjAnLCAnLXRuJywgJzgnLCAnLW1hJywgJzIwMCcsICctbWV0YWxfYmluZGluZycsICctaW1hZScsICc8aW5maWxlLm1hZT4nLCAnLW9tYWUnLCAnPG91dGZpbGUubWFlPic=

> <r_epik_Ionization_Penalty>
0.0419826

> <r_epik_Ionization_Penalty_Charging>
0

> <r_epik_Ionization_Penalty_Neutral>
0.0419826

> <r_epik_State_Penalty>
0.0354317

> <r_epik_Charging_Adjusted_Penalty>
0.0354317

> <i_epik_Tot_Q>
0

> <i_epik_Tot_abs_Q>
0

> <r_epik_Metal_State_Penalty>
3.65115e-05

> <b_epik_Metal_Only>
0

> <s_lp_Force_Field>
OPLS_2005

> <r_lp_Energy>
19.3722

> <b_lp_Chiralities_Consistent>
1

> <s_lp_Variant>
AV-unprocessed.smi:2346-1

> <Gold.Version>
5.8.1

> <Gold.Id.Protein>
6NUR|6NUR_protein|mol2

> <Gold.PLP.Fitness>
52.2432

> <Gold.PLP.PLP>
-42.9821

> <Gold.PLP.part.hbond>
-5.0000

> <Gold.PLP.part.metal>
0.0000

> <Gold.PLP.part.buried>
-7.0770

> <Gold.PLP.part.nonpolar>
-31.8707

> <Gold.PLP.part.repulsive>
0.0803

> <Gold.PLP.ligand.clash>
0.0000

> <Gold.PLP.ligand.torsion>
0.9111

> <Gold.PLP.Chemscore.Hbond>
3.6613

> <Gold.PLP.Chemscore.CHOScore>
0.0000

> <Gold.PLP.Chemscore.Metal>
0.0000

> <Gold.Chemscore.Hbonds>
donor molecule, donor type, donor heavy atom, donor atom, acceptor molecule, acceptor atom, score
      P1  H  6933  6944       L1     2  0.80
      P1  H  6934  6946       L1     2  0.79
      P1  H  7989  7998       L1    18  1.00
      P1  H  7997  8009       L1    19  1.00

> <Gold.PLP.Chemscore.Internal.Correction>
0.0994

> <Gold.Rescore>
     Score         DG    S(hbond)    S(metal)    S(lipo)     H(rot)  DE(clash)    DE(int)     intcor
     16.42     -17.23       2.09        0.00      96.92       2.57       0.05       0.76       ----

> <Gold.Chemscore.Fitness>
16.4210

> <Gold.Chemscore.DG>
-17.2321

> <Gold.Chemscore.ZeroCoef>
-5.4800

> <Gold.Chemscore.Hbond>
2.0918

> <Gold.Chemscore.Metal>
0.0000

> <Gold.Chemscore.Lipo>
96.9219

> <Gold.Chemscore.Internal_Hbond>
0.0000

> <Gold.Chemscore.DEClash>
0.0465

> <Gold.Chemscore.DEInternal>
0.7646

> <Gold.Chemscore.Rot>
2.5681

> <Gold.Chemscore.Internal.Correction>
   9.000000E+99

> <Gold.Chemscore.Hbonds>
donor molecule, donor type, donor heavy atom, donor atom, acceptor molecule, acceptor atom, score
      P1  H  6933  6944       L1     2  0.12
      P1  H  6934  6946       L1     2  0.36
      P1  H  7989  7998       L1    18  0.39
      P1  H  7997  8009       L1    19  0.58

> <Gold.Chemscore.Hbond.Weighted>
-6.9865

> <Gold.Chemscore.Metal.Weighted>
-0.0000

> <Gold.Chemscore.Lipo.Weighted>
-11.3399

> <Gold.Chemscore.Internal_Hbond.Weighted>
0.0000

> <Gold.Chemscore.DEClash.Weighted>
0.0465

> <Gold.Chemscore.DEInternal.Weighted>
0.7646

> <Gold.Chemscore.Rot.Weighted>
6.5743

> <Gold.Chemscore.Internal.Correction.Weighted>
   9.000000E+99

> <Gold.Protein.RotatedTorsions>
[ 6907 6896 6895 6894 ] final   62.74 input  -60.11 | X-H torsion
[ 7974 7965 7964 7962 ] final -179.00 input  175.53 | X-H torsion
[ 8008 7997 7996 7995 ] final  167.71 input   59.86 | X-H torsion
[ 10167 10162 10161 10158 ] final   56.71 input  -65.29 | X-H torsion
[ 10718 10713 10712 10709 ] final  104.57 input   66.30 | X-H torsion
[ 10763 10752 10751 10750 ] final -149.82 input  -60.55 | X-H torsion
[ 11005 11000 10999 10996 ] final   -5.25 input  -57.11 | X-H torsion

> <Gold.Protein.ActiveResidues>
 VAL166  LYS551  ARG553  GLY616  TRP617  ASP618  TYR619  PRO620  LYS621  CYS622 
 ASP623  PHE694  ASN695  SER759  ASP760  ASP761  ALA762  ILE779  LEU786  VAL792 
 PHE793  MET794  SER795  GLU796  ALA797  LYS798  CYS799  TRP800  GLU811  SER814 

> <Gold.Protein.RotatedAtoms>
  152.4197  134.5978  159.9991 H   0  0  0  0  0  0  0  0  0  0  0  0  # atno 6907 bound_to 6896
  151.6131  133.3340  159.3079 H   0  0  0  0  0  0  0  0  0  0  0  0  # atno 6908 bound_to 6896
  150.8085  134.7264  159.6732 H   0  0  0  0  0  0  0  0  0  0  0  0  # atno 6909 bound_to 6896
  144.7134  140.0783  143.6426 H   0  0  0  0  0  0  0  0  0  0  0  0  # atno 7974 bound_to 7965
  156.1610  140.1609  156.8612 H   0  0  0  0  0  0  0  0  0  0  0  0  # atno 8008 bound_to 7997
  154.5161  140.0789  156.8119 H   0  0  0  0  0  0  0  0  0  0  0  0  # atno 8009 bound_to 7997
  155.3707  140.3400  155.4245 H   0  0  0  0  0  0  0  0  0  0  0  0  # atno 8010 bound_to 7997
  140.2058  144.3940  150.6509 H   0  0  0  0  0  0  0  0  0  0  0  0  # atno 10167 bound_to 10162
  157.6735  131.0807  150.5726 H   0  0  0  0  0  0  0  0  0  0  0  0  # atno 10718 bound_to 10713
  154.8155  135.3299  154.7188 H   0  0  0  0  0  0  0  0  0  0  0  0  # atno 10763 bound_to 10752
  153.7829  135.6917  153.4889 H   0  0  0  0  0  0  0  0  0  0  0  0  # atno 10764 bound_to 10752
  153.1968  135.4531  155.0165 H   0  0  0  0  0  0  0  0  0  0  0  0  # atno 10765 bound_to 10752
  140.6891  133.9087  155.8606 H   0  0  0  0  0  0  0  0  0  0  0  0  # atno 11005 bound_to 11000
  145.9724  139.2879  143.1091 LP  0  0  0  0  0  0  0  0  0  0  0  0  # atno 17320 bound_to 7965
  145.9102  140.9185  143.0458 LP  0  0  0  0  0  0  0  0  0  0  0  0  # atno 17321 bound_to 7965
  140.6358  143.2194  151.6398 LP  0  0  0  0  0  0  0  0  0  0  0  0  # atno 17342 bound_to 10162
  139.5199  144.3239  152.0886 LP  0  0  0  0  0  0  0  0  0  0  0  0  # atno 17343 bound_to 10162
  156.6027  130.4359  149.5890 LP  0  0  0  0  0  0  0  0  0  0  0  0  # atno 17370 bound_to 10713
  156.2493  130.6897  151.1630 LP  0  0  0  0  0  0  0  0  0  0  0  0  # atno 17371 bound_to 10713
  141.0256  134.0828  157.4072 LP  0  0  0  0  0  0  0  0  0  0  0  0  # atno 17394 bound_to 11000
  139.8929  135.0127  156.6869 LP  0  0  0  0  0  0  0  0  0  0  0  0  # atno 17395 bound_to 11000

$$$$
