AV-unprocessed.smi:910|AV-procd|sdf|4118|dock1
  -GOLD-   22720 2 13D 1   1.00000     0.00000
 Structure written by MMmdl.
 46 47  0  0  0  0  0  0  0  0  1 V2000
  150.7878  131.5313  156.9595 C   0  0  0  0  0  0  0  0  0  0  0  0
  150.5999  132.9272  156.4542 C   0  0  0  0  0  0  0  0  0  0  0  0
  150.9708  134.0352  157.2022 N   0  0  0  0  0  0  0  0  0  0  0  0
  150.6537  135.0796  156.4349 C   0  0  0  0  0  0  0  0  0  0  0  0
  150.8611  136.4470  156.7447 N   0  0  0  0  0  0  0  0  0  0  0  0
  151.3770  137.3919  155.9420 C   0  0  0  0  0  0  0  0  0  0  0  0
  151.8921  137.1815  154.8433 O   0  0  0  0  0  0  0  0  0  0  0  0
  151.2530  138.6133  156.4825 N   0  0  0  0  0  0  0  0  0  0  0  0
  151.5979  139.8632  155.8123 C   0  0  0  0  0  0  0  0  0  0  0  0
  151.0495  141.0753  156.5812 C   0  0  0  0  0  0  0  0  0  0  0  0
  151.9036  141.3399  157.6834 O   0  0  0  0  0  0  0  0  0  0  0  0
  151.2979  142.0076  158.7828 C   0  0  2  0  0  0  0  0  0  0  0  0
  150.5650  143.2812  158.3059 C   0  0  0  0  0  0  0  0  0  0  0  0
  151.5389  144.3138  157.7131 C   0  0  0  0  0  0  0  0  0  0  0  0
  152.6579  144.6611  158.7061 C   0  0  0  0  0  0  0  0  0  0  0  0
  153.3904  143.3991  159.1891 C   0  0  0  0  0  0  0  0  0  0  0  0
  152.4111  142.3703  159.7914 C   0  0  2  0  0  0  0  0  0  0  0  0
  153.1430  141.1253  160.3163 C   0  0  0  0  0  0  0  0  0  0  0  0
  150.1063  134.7371  155.2386 O   0  0  0  0  0  0  0  0  0  0  0  0
  150.0736  133.3681  155.2660 C   0  0  0  0  0  0  0  0  0  0  0  0
  149.5136  132.6636  154.0772 C   0  0  0  0  0  0  0  0  0  0  0  0
  150.8731  130.8199  156.1377 H   0  0  0  0  0  0  0  0  0  0  0  0
  149.9455  131.2228  157.5790 H   0  0  0  0  0  0  0  0  0  0  0  0
  151.6922  131.4464  157.5628 H   0  0  0  0  0  0  0  0  0  0  0  0
  150.5210  136.7483  157.6457 H   0  0  0  0  0  0  0  0  0  0  0  0
  150.8300  138.6898  157.3957 H   0  0  0  0  0  0  0  0  0  0  0  0
  152.6852  139.9247  155.7646 H   0  0  0  0  0  0  0  0  0  0  0  0
  151.2417  139.8656  154.7808 H   0  0  0  0  0  0  0  0  0  0  0  0
  150.9748  141.9334  155.9132 H   0  0  0  0  0  0  0  0  0  0  0  0
  150.0453  140.8622  156.9494 H   0  0  0  0  0  0  0  0  0  0  0  0
  150.5885  141.3368  159.2707 H   0  0  0  0  0  0  0  0  0  0  0  0
  149.7927  143.0401  157.5766 H   0  0  0  0  0  0  0  0  0  0  0  0
  150.0432  143.7293  159.1524 H   0  0  0  0  0  0  0  0  0  0  0  0
  151.9756  143.9229  156.7941 H   0  0  0  0  0  0  0  0  0  0  0  0
  150.9977  145.2182  157.4343 H   0  0  0  0  0  0  0  0  0  0  0  0
  153.3668  145.3470  158.2410 H   0  0  0  0  0  0  0  0  0  0  0  0
  152.2346  145.1870  159.5626 H   0  0  0  0  0  0  0  0  0  0  0  0
  153.9331  142.9521  158.3549 H   0  0  0  0  0  0  0  0  0  0  0  0
  154.1419  143.6767  159.9291 H   0  0  0  0  0  0  0  0  0  0  0  0
  151.9317  142.8404  160.6513 H   0  0  0  0  0  0  0  0  0  0  0  0
  153.6686  140.6034  159.5159 H   0  0  0  0  0  0  0  0  0  0  0  0
  152.4447  140.4217  160.7703 H   0  0  0  0  0  0  0  0  0  0  0  0
  153.8788  141.3945  161.0744 H   0  0  0  0  0  0  0  0  0  0  0  0
  149.0048  131.7461  154.3732 H   0  0  0  0  0  0  0  0  0  0  0  0
  150.3065  132.4003  153.3771 H   0  0  0  0  0  0  0  0  0  0  0  0
  148.7940  133.2933  153.5533 H   0  0  0  0  0  0  0  0  0  0  0  0
  1  2  1  0  0  0  0
  1 22  1  0  0  0  0
  1 23  1  0  0  0  0
  1 24  1  0  0  0  0
  2 20  2  0  0  0  0
  2  3  1  0  0  0  0
  3  4  2  0  0  0  0
  4  5  1  0  0  0  0
  4 19  1  0  0  0  0
  5  6  1  0  0  0  0
  5 25  1  0  0  0  0
  6  7  2  0  0  0  0
  6  8  1  0  0  0  0
  8  9  1  0  0  0  0
  8 26  1  0  0  0  0
  9 10  1  0  0  0  0
  9 27  1  0  0  0  0
  9 28  1  0  0  0  0
 10 11  1  0  0  0  0
 10 29  1  0  0  0  0
 10 30  1  0  0  0  0
 11 12  1  0  0  0  0
 12 17  1  0  0  0  0
 12 13  1  0  0  0  0
 12 31  1  0  0  0  0
 13 14  1  0  0  0  0
 13 32  1  0  0  0  0
 13 33  1  0  0  0  0
 14 15  1  0  0  0  0
 14 34  1  0  0  0  0
 14 35  1  0  0  0  0
 15 16  1  0  0  0  0
 15 36  1  0  0  0  0
 15 37  1  0  0  0  0
 16 17  1  0  0  0  0
 16 38  1  0  0  0  0
 16 39  1  0  0  0  0
 17 18  1  0  0  0  0
 17 40  1  0  0  0  0
 18 41  1  0  0  0  0
 18 42  1  0  0  0  0
 18 43  1  0  0  0  0
 19 20  1  0  0  0  0
 20 21  1  0  0  0  0
 21 44  1  0  0  0  0
 21 45  1  0  0  0  0
 21 46  1  0  0  0  0
M  END
> <s_m_source_file>
AV-unprocessed.smi

> <i_m_source_file_index>
910

> <i_lp_mmshare_version>
43012

> <i_f3d_flags>
0

> <s_epik_input>
W0NIM11jMW5jKG9jMVtDSDNdKVtOSF1DKD1PKVtOSF1bQ0gyXVtDSDJdT1tDQEBIXTJbQ0gyXVtDSDJdW0NIMl1bQ0gyXVtDQEhdMltDSDNd

> <s_epik_cmdline>
J2VwaWtfcHl0aG9uJywgJy1waCcsICc3LjAnLCAnLXRuJywgJzgnLCAnLW1hJywgJzIwMCcsICctbWV0YWxfYmluZGluZycsICctaW1hZScsICc8aW5maWxlLm1hZT4nLCAnLW9tYWUnLCAnPG91dGZpbGUubWFlPic=

> <r_lp_tautomer_probability>
0.785861

> <r_epik_Ionization_Penalty>
4.15957e-05

> <r_epik_Ionization_Penalty_Charging>
0

> <r_epik_Ionization_Penalty_Neutral>
4.15957e-05

> <r_epik_State_Penalty>
0.0240523

> <r_epik_Charging_Adjusted_Penalty>
0.0240523

> <i_epik_Tot_Q>
0

> <i_epik_Tot_abs_Q>
0

> <r_epik_Metal_State_Penalty>
0.057053

> <b_epik_Metal_Only>
0

> <s_lp_Force_Field>
OPLS_2005

> <r_lp_Energy>
8.47643

> <b_lp_Chiralities_Consistent>
1

> <s_lp_Variant>
AV-unprocessed.smi:910-3

> <Gold.Version>
5.8.1

> <Gold.Id.Protein>
6NUR|6NUR_protein|mol2

> <Gold.PLP.Fitness>
44.6320

> <Gold.PLP.PLP>
-41.3109

> <Gold.PLP.part.hbond>
-2.0000

> <Gold.PLP.part.metal>
0.0000

> <Gold.PLP.part.buried>
-5.3377

> <Gold.PLP.part.nonpolar>
-35.0186

> <Gold.PLP.part.repulsive>
0.3695

> <Gold.PLP.ligand.clash>
0.0000

> <Gold.PLP.ligand.torsion>
0.7061

> <Gold.PLP.Chemscore.Hbond>
1.5200

> <Gold.PLP.Chemscore.CHOScore>
0.0000

> <Gold.PLP.Chemscore.Metal>
0.0000

> <Gold.Chemscore.Hbonds>
donor molecule, donor type, donor heavy atom, donor atom, acceptor molecule, acceptor atom, score
      P1  H  6896  6908       L1     3  0.50
      P1  H 10752 10764       L1     7  0.98

> <Gold.PLP.Chemscore.Internal.Correction>
0.1732

> <Gold.Rescore>
     Score         DG    S(hbond)    S(metal)    S(lipo)     H(rot)  DE(clash)    DE(int)     intcor
     19.02     -19.93       1.82        0.00     107.78       1.66       0.12       0.80       ----

> <Gold.Chemscore.Fitness>
19.0220

> <Gold.Chemscore.DG>
-19.9346

> <Gold.Chemscore.ZeroCoef>
-5.4800

> <Gold.Chemscore.Hbond>
1.8227

> <Gold.Chemscore.Metal>
0.0000

> <Gold.Chemscore.Lipo>
107.7821

> <Gold.Chemscore.Internal_Hbond>
0.0000

> <Gold.Chemscore.DEClash>
0.1166

> <Gold.Chemscore.DEInternal>
0.7961

> <Gold.Chemscore.Rot>
1.6576

> <Gold.Chemscore.Internal.Correction>
   9.000000E+99

> <Gold.Chemscore.Hbonds>
donor molecule, donor type, donor heavy atom, donor atom, acceptor molecule, acceptor atom, score
      P1  H  6896  6908       L1     3  0.40
      P1  H 10752 10764       L1     7  0.92

> <Gold.Chemscore.Hbond.Weighted>
-6.0877

> <Gold.Chemscore.Metal.Weighted>
-0.0000

> <Gold.Chemscore.Lipo.Weighted>
-12.6105

> <Gold.Chemscore.Internal_Hbond.Weighted>
0.0000

> <Gold.Chemscore.DEClash.Weighted>
0.1166

> <Gold.Chemscore.DEInternal.Weighted>
0.7961

> <Gold.Chemscore.Rot.Weighted>
4.2436

> <Gold.Chemscore.Internal.Correction.Weighted>
   9.000000E+99

> <Gold.Protein.RotatedTorsions>
[ 6907 6896 6895 6894 ] final  110.75 input  -60.11 | X-H torsion
[ 7974 7965 7964 7962 ] final   44.57 input  175.53 | X-H torsion
[ 8008 7997 7996 7995 ] final   -3.17 input   59.86 | X-H torsion
[ 10167 10162 10161 10158 ] final  -38.52 input  -65.29 | X-H torsion
[ 10718 10713 10712 10709 ] final  150.19 input   66.30 | X-H torsion
[ 10763 10752 10751 10750 ] final  -64.91 input  -60.55 | X-H torsion
[ 11005 11000 10999 10996 ] final   96.01 input  -57.11 | X-H torsion

> <Gold.Protein.ActiveResidues>
 VAL166  LYS551  ARG553  GLY616  TRP617  ASP618  TYR619  PRO620  LYS621  CYS622 
 ASP623  PHE694  ASN695  SER759  ASP760  ASP761  ALA762  ILE779  LEU786  VAL792 
 PHE793  MET794  SER795  GLU796  ALA797  LYS798  CYS799  TRP800  GLU811  SER814 

> <Gold.Protein.RotatedAtoms>
  152.5004  133.8756  159.7320 H   0  0  0  0  0  0  0  0  0  0  0  0  # atno 6907 bound_to 6896
  150.9231  133.6847  159.2834 H   0  0  0  0  0  0  0  0  0  0  0  0  # atno 6908 bound_to 6896
  151.4217  135.1003  159.9668 H   0  0  0  0  0  0  0  0  0  0  0  0  # atno 6909 bound_to 6896
  146.0557  139.5060  142.9690 H   0  0  0  0  0  0  0  0  0  0  0  0  # atno 7974 bound_to 7965
  154.6278  140.2516  155.7470 H   0  0  0  0  0  0  0  0  0  0  0  0  # atno 8008 bound_to 7997
  156.2463  140.2913  156.0536 H   0  0  0  0  0  0  0  0  0  0  0  0  # atno 8009 bound_to 7997
  155.1793  140.0388  157.2869 H   0  0  0  0  0  0  0  0  0  0  0  0  # atno 8010 bound_to 7997
  140.7090  143.3272  151.2653 H   0  0  0  0  0  0  0  0  0  0  0  0  # atno 10167 bound_to 10162
  157.2866  131.0845  151.1492 H   0  0  0  0  0  0  0  0  0  0  0  0  # atno 10718 bound_to 10713
  154.3371  135.6164  153.5578 H   0  0  0  0  0  0  0  0  0  0  0  0  # atno 10763 bound_to 10752
  152.9807  135.5760  154.4895 H   0  0  0  0  0  0  0  0  0  0  0  0  # atno 10764 bound_to 10752
  154.4592  135.2855  155.1702 H   0  0  0  0  0  0  0  0  0  0  0  0  # atno 10765 bound_to 10752
  139.8784  134.8928  156.4095 H   0  0  0  0  0  0  0  0  0  0  0  0  # atno 11005 bound_to 11000
  145.6648  141.0231  143.1689 LP  0  0  0  0  0  0  0  0  0  0  0  0  # atno 17320 bound_to 7965
  144.7146  139.8243  143.7403 LP  0  0  0  0  0  0  0  0  0  0  0  0  # atno 17321 bound_to 7965
  139.6743  143.9964  152.2772 LP  0  0  0  0  0  0  0  0  0  0  0  0  # atno 17342 bound_to 10162
  139.9573  144.6581  150.8113 LP  0  0  0  0  0  0  0  0  0  0  0  0  # atno 17343 bound_to 10162
  157.2905  130.6794  149.6112 LP  0  0  0  0  0  0  0  0  0  0  0  0  # atno 17370 bound_to 10713
  155.9666  130.4422  150.5372 LP  0  0  0  0  0  0  0  0  0  0  0  0  # atno 17371 bound_to 10713
  140.9210  133.7645  155.9907 LP  0  0  0  0  0  0  0  0  0  0  0  0  # atno 17394 bound_to 11000
  140.8439  134.3034  157.5302 LP  0  0  0  0  0  0  0  0  0  0  0  0  # atno 17395 bound_to 11000

$$$$
