AV-unprocessed.smi:2088|AV-procd|sdf|8526|dock2
  -GOLD-   2272011243D 1   1.00000     0.00000
 Structure written by MMmdl.
 33 34  0  0  0  0  0  0  0  0  1 V2000
  143.7163  135.9312  153.5611 O   0  0  0  0  0  0  0  0  0  0  0  0
  142.8613  135.4763  152.8011 C   0  0  0  0  0  0  0  0  0  0  0  0
  141.4571  135.1696  153.3258 C   0  0  0  0  0  0  0  0  0  0  0  0
  140.6964  136.3893  153.5307 N   0  0  0  0  0  0  0  0  0  0  0  0
  140.9537  137.6523  153.0418 C   0  0  0  0  0  0  0  0  0  0  0  0
  139.9615  138.4728  153.4951 C   0  0  0  0  0  0  0  0  0  0  0  0
  139.1261  137.6136  154.2668 C   0  0  0  0  0  0  0  0  0  0  0  0
  137.8683  137.9630  155.0179 C   0  0  0  0  0  0  0  0  0  0  0  0
  137.6028  139.2635  154.8950 F   0  0  0  0  0  0  0  0  0  0  0  0
  136.8393  137.2679  154.5331 F   0  0  0  0  0  0  0  0  0  0  0  0
  138.0172  137.6761  156.3111 F   0  0  0  0  0  0  0  0  0  0  0  0
  139.5756  136.3653  154.2836 N   0  0  0  0  0  0  0  0  0  0  0  0
  143.0870  135.2244  151.5026 N   0  0  0  0  0  0  0  0  0  0  0  0
  144.3520  135.4515  150.8129 C   0  0  0  0  0  0  0  0  0  0  0  0
  145.0068  134.1319  150.3700 C   0  0  2  0  0  0  0  0  0  0  0  0
  144.0610  133.1985  149.6197 C   0  0  0  0  0  0  0  0  0  0  0  0
  144.7494  131.8649  149.8009 C   0  0  0  0  0  0  0  0  0  0  0  0
  145.2993  131.9748  151.2220 C   0  0  0  0  0  0  0  0  0  0  0  0
  145.4240  133.3688  151.4981 O   0  0  0  0  0  0  0  0  0  0  0  0
  140.9177  134.5151  152.6387 H   0  0  0  0  0  0  0  0  0  0  0  0
  141.5336  134.6416  154.2770 H   0  0  0  0  0  0  0  0  0  0  0  0
  141.8103  137.8583  152.4168 H   0  0  0  0  0  0  0  0  0  0  0  0
  139.8482  139.5294  153.3034 H   0  0  0  0  0  0  0  0  0  0  0  0
  142.3289  134.8481  150.9521 H   0  0  0  0  0  0  0  0  0  0  0  0
  144.1639  136.0857  149.9463 H   0  0  0  0  0  0  0  0  0  0  0  0
  145.0282  136.0089  151.4631 H   0  0  0  0  0  0  0  0  0  0  0  0
  145.8812  134.3247  149.7458 H   0  0  0  0  0  0  0  0  0  0  0  0
  143.0789  133.1805  150.0945 H   0  0  0  0  0  0  0  0  0  0  0  0
  143.9323  133.4747  148.5728 H   0  0  0  0  0  0  0  0  0  0  0  0
  144.0808  131.0143  149.6661 H   0  0  0  0  0  0  0  0  0  0  0  0
  145.5693  131.7706  149.0877 H   0  0  0  0  0  0  0  0  0  0  0  0
  144.6030  131.5401  151.9398 H   0  0  0  0  0  0  0  0  0  0  0  0
  146.2571  131.4650  151.3284 H   0  0  0  0  0  0  0  0  0  0  0  0
  1  2  2  0  0  0  0
  2  3  1  0  0  0  0
  2 13  1  0  0  0  0
  3  4  1  0  0  0  0
  3 20  1  0  0  0  0
  3 21  1  0  0  0  0
  4 12  1  0  0  0  0
  4  5  1  0  0  0  0
  5  6  2  0  0  0  0
  5 22  1  0  0  0  0
  6  7  1  0  0  0  0
  6 23  1  0  0  0  0
  7  8  1  0  0  0  0
  7 12  2  0  0  0  0
  8  9  1  0  0  0  0
  8 10  1  0  0  0  0
  8 11  1  0  0  0  0
 13 14  1  0  0  0  0
 13 24  1  0  0  0  0
 14 15  1  0  0  0  0
 14 25  1  0  0  0  0
 14 26  1  0  0  0  0
 15 19  1  0  0  0  0
 15 16  1  0  0  0  0
 15 27  1  0  0  0  0
 16 17  1  0  0  0  0
 16 28  1  0  0  0  0
 16 29  1  0  0  0  0
 17 18  1  0  0  0  0
 17 30  1  0  0  0  0
 17 31  1  0  0  0  0
 18 19  1  0  0  0  0
 18 32  1  0  0  0  0
 18 33  1  0  0  0  0
M  END
> <s_m_source_file>
AV-unprocessed.smi

> <i_m_source_file_index>
2088

> <i_lp_mmshare_version>
43012

> <i_f3d_flags>
0

> <s_epik_input>
TzFbQ0gyXVtDSDJdW0NIMl1bQ0BIXTFbQ0gyXVtOSF1DKD1PKVtDSDJdbjJbY0hdW2NIXWMobjIpQyhGKShGKUY=

> <s_epik_cmdline>
J2VwaWtfcHl0aG9uJywgJy1waCcsICc3LjAnLCAnLXRuJywgJzgnLCAnLW1hJywgJzIwMCcsICctbWV0YWxfYmluZGluZycsICctaW1hZScsICc8aW5maWxlLm1hZT4nLCAnLW9tYWUnLCAnPG91dGZpbGUubWFlPic=

> <r_lp_tautomer_probability>
1

> <r_epik_Ionization_Penalty>
2.25732e-07

> <r_epik_Ionization_Penalty_Charging>
0

> <r_epik_Ionization_Penalty_Neutral>
2.25732e-07

> <r_epik_State_Penalty>
-0

> <r_epik_Charging_Adjusted_Penalty>
0

> <i_epik_Tot_Q>
0

> <i_epik_Tot_abs_Q>
0

> <r_epik_Metal_State_Penalty>
-0

> <b_epik_Metal_Only>
0

> <s_lp_Force_Field>
OPLS_2005

> <r_lp_Energy>
20.6352

> <b_lp_Chiralities_Consistent>
1

> <s_lp_Variant>
AV-unprocessed.smi:2088-1

> <Gold.Version>
5.8.1

> <Gold.Id.Protein>
6NUR|6NUR_protein|mol2

> <Gold.PLP.Fitness>
35.2393

> <Gold.PLP.PLP>
-35.5189

> <Gold.PLP.part.hbond>
-0.7017

> <Gold.PLP.part.metal>
0.0000

> <Gold.PLP.part.buried>
-7.7455

> <Gold.PLP.part.nonpolar>
-27.8189

> <Gold.PLP.part.repulsive>
0.2656

> <Gold.PLP.ligand.clash>
0.0000

> <Gold.PLP.ligand.torsion>
0.4577

> <Gold.PLP.Chemscore.Hbond>
0.2080

> <Gold.PLP.Chemscore.CHOScore>
0.0000

> <Gold.PLP.Chemscore.Metal>
0.0000

> <Gold.Chemscore.Hbonds>
donor molecule, donor type, donor heavy atom, donor atom, acceptor molecule, acceptor atom, score
      L1  H    13    24       P1 10186  0.25

> <Gold.PLP.Chemscore.Internal.Correction>
0.0118

> <Gold.Rescore>
     Score         DG    S(hbond)    S(metal)    S(lipo)     H(rot)  DE(clash)    DE(int)     intcor
      8.72      -9.43       0.00        0.00      75.00       1.89       0.08       0.62       ----

> <Gold.Chemscore.Fitness>
8.7227

> <Gold.Chemscore.DG>
-9.4251

> <Gold.Chemscore.ZeroCoef>
-5.4800

> <Gold.Chemscore.Hbond>
0.0045

> <Gold.Chemscore.Metal>
0.0000

> <Gold.Chemscore.Lipo>
75.0040

> <Gold.Chemscore.Internal_Hbond>
0.0000

> <Gold.Chemscore.DEClash>
0.0789

> <Gold.Chemscore.DEInternal>
0.6235

> <Gold.Chemscore.Rot>
1.8928

> <Gold.Chemscore.Internal.Correction>
   9.000000E+99

> <Gold.Chemscore.Hbond.Weighted>
-0.0151

> <Gold.Chemscore.Metal.Weighted>
-0.0000

> <Gold.Chemscore.Lipo.Weighted>
-8.7755

> <Gold.Chemscore.Internal_Hbond.Weighted>
0.0000

> <Gold.Chemscore.DEClash.Weighted>
0.0789

> <Gold.Chemscore.DEInternal.Weighted>
0.6235

> <Gold.Chemscore.Rot.Weighted>
4.8455

> <Gold.Chemscore.Internal.Correction.Weighted>
   9.000000E+99

> <Gold.Protein.RotatedTorsions>
[ 6907 6896 6895 6894 ] final   15.04 input  -60.11 | X-H torsion
[ 7974 7965 7964 7962 ] final -102.76 input  175.53 | X-H torsion
[ 8008 7997 7996 7995 ] final  -20.50 input   59.86 | X-H torsion
[ 10167 10162 10161 10158 ] final   18.00 input  -65.29 | X-H torsion
[ 10718 10713 10712 10709 ] final -168.07 input   66.30 | X-H torsion
[ 10763 10752 10751 10750 ] final    3.44 input  -60.55 | X-H torsion
[ 11005 11000 10999 10996 ] final   29.98 input  -57.11 | X-H torsion

> <Gold.Protein.ActiveResidues>
 VAL166  LYS551  ARG553  GLY616  TRP617  ASP618  TYR619  PRO620  LYS621  CYS622 
 ASP623  PHE694  ASN695  SER759  ASP760  ASP761  ALA762  ILE779  LEU786  VAL792 
 PHE793  MET794  SER795  GLU796  ALA797  LYS798  CYS799  TRP800  GLU811  SER814 

> <Gold.Protein.RotatedAtoms>
  151.8119  135.0678  160.0413 H   0  0  0  0  0  0  0  0  0  0  0  0  # atno 6907 bound_to 6896
  152.3014  133.5655  159.5629 H   0  0  0  0  0  0  0  0  0  0  0  0  # atno 6908 bound_to 6896
  150.7275  134.0201  159.3740 H   0  0  0  0  0  0  0  0  0  0  0  0  # atno 6909 bound_to 6896
  145.2646  140.9280  143.3021 H   0  0  0  0  0  0  0  0  0  0  0  0  # atno 7974 bound_to 7965
  154.4765  140.2060  155.9865 H   0  0  0  0  0  0  0  0  0  0  0  0  # atno 8008 bound_to 7997
  156.1098  140.3231  155.8026 H   0  0  0  0  0  0  0  0  0  0  0  0  # atno 8009 bound_to 7997
  155.4655  140.0527  157.2976 H   0  0  0  0  0  0  0  0  0  0  0  0  # atno 8010 bound_to 7997
  140.5685  143.9205  150.6695 H   0  0  0  0  0  0  0  0  0  0  0  0  # atno 10167 bound_to 10162
  156.6916  130.9161  151.3069 H   0  0  0  0  0  0  0  0  0  0  0  0  # atno 10718 bound_to 10713
  153.2832  135.6942  153.7364 H   0  0  0  0  0  0  0  0  0  0  0  0  # atno 10763 bound_to 10752
  153.6344  135.3404  155.3052 H   0  0  0  0  0  0  0  0  0  0  0  0  # atno 10764 bound_to 10752
  154.8502  135.4416  154.1892 H   0  0  0  0  0  0  0  0  0  0  0  0  # atno 10765 bound_to 10752
  140.2992  134.2776  155.7757 H   0  0  0  0  0  0  0  0  0  0  0  0  # atno 11005 bound_to 11000
  144.9388  139.4213  143.6459 LP  0  0  0  0  0  0  0  0  0  0  0  0  # atno 17320 bound_to 7965
  146.3265  139.8337  142.8903 LP  0  0  0  0  0  0  0  0  0  0  0  0  # atno 17321 bound_to 7965
  140.2675  143.3480  152.1268 LP  0  0  0  0  0  0  0  0  0  0  0  0  # atno 17342 bound_to 10162
  139.5105  144.6885  151.5822 LP  0  0  0  0  0  0  0  0  0  0  0  0  # atno 17343 bound_to 10162
  157.7007  130.9329  150.0775 LP  0  0  0  0  0  0  0  0  0  0  0  0  # atno 17370 bound_to 10713
  156.1793  130.3649  149.9057 LP  0  0  0  0  0  0  0  0  0  0  0  0  # atno 17371 bound_to 10713
  141.2131  133.7635  156.9742 LP  0  0  0  0  0  0  0  0  0  0  0  0  # atno 17394 bound_to 11000
  140.1124  134.9468  157.2085 LP  0  0  0  0  0  0  0  0  0  0  0  0  # atno 17395 bound_to 11000

$$$$
