AV-unprocessed.smi:885|AV-procd|sdf|4046|dock7
  -GOLD-   22720 1533D 1   1.00000     0.00000
 Structure written by MMmdl.
 39 41  0  0  0  0  0  0  0  0  1 V2000
  151.6648  145.0471  159.9256 C   0  0  0  0  0  0  0  0  0  0  0  0
  152.1597  144.0395  160.9789 C   0  0  0  0  0  0  0  0  0  0  0  0
  152.5395  142.6388  160.4672 C   0  0  0  0  0  0  0  0  0  0  0  0
  151.6049  142.0527  159.3953 C   0  0  0  0  0  0  0  0  0  0  0  0
  151.9842  142.4698  157.9577 C   0  0  0  0  0  0  0  0  0  0  0  0
  151.3465  141.5637  156.9477 C   0  0  0  0  0  0  0  0  0  0  0  0
  152.0625  140.6773  156.2653 N   0  0  0  0  0  0  0  0  0  0  0  0
  151.1133  140.0582  155.4399 O   0  0  0  0  0  0  0  0  0  0  0  0
  149.9257  140.6374  155.7396 C   0  0  0  0  0  0  0  0  0  0  0  0
  148.7113  140.2193  154.9743 C   0  0  2  0  0  0  0  0  0  0  0  0
  148.9868  139.0126  154.0564 C   0  0  0  0  0  0  0  0  0  0  0  0
  147.7973  138.6935  153.2687 N   0  0  0  0  0  0  0  0  0  0  0  0
  147.3334  139.8592  152.5179 C   0  0  0  0  0  0  0  0  0  0  0  0
  147.1063  141.0513  153.4651 C   0  0  0  0  0  0  0  0  0  0  0  0
  148.3057  141.3308  154.1791 O   0  0  0  0  0  0  0  0  0  0  0  0
  150.0154  141.5961  156.6594 N   0  0  0  0  0  0  0  0  0  0  0  0
  151.7155  143.9479  157.6115 C   0  0  0  0  0  0  0  0  0  0  0  0
  152.3650  144.9717  158.5589 C   0  0  0  0  0  0  0  0  0  0  0  0
  151.7942  146.0496  160.3353 H   0  0  0  0  0  0  0  0  0  0  0  0
  150.5888  144.9325  159.7879 H   0  0  0  0  0  0  0  0  0  0  0  0
  153.0269  144.4575  161.4913 H   0  0  0  0  0  0  0  0  0  0  0  0
  151.3888  143.9427  161.7442 H   0  0  0  0  0  0  0  0  0  0  0  0
  153.5639  142.6504  160.0931 H   0  0  0  0  0  0  0  0  0  0  0  0
  152.5585  141.9657  161.3249 H   0  0  0  0  0  0  0  0  0  0  0  0
  151.6905  140.9668  159.4595 H   0  0  0  0  0  0  0  0  0  0  0  0
  150.5608  142.2813  159.6127 H   0  0  0  0  0  0  0  0  0  0  0  0
  153.0616  142.3223  157.8633 H   0  0  0  0  0  0  0  0  0  0  0  0
  147.9245  139.9777  155.6917 H   0  0  0  0  0  0  0  0  0  0  0  0
  149.8205  139.2392  153.3904 H   0  0  0  0  0  0  0  0  0  0  0  0
  149.2856  138.1480  154.6494 H   0  0  0  0  0  0  0  0  0  0  0  0
  148.0081  137.9370  152.6257 H   0  0  0  0  0  0  0  0  0  0  0  0
  148.0700  140.1296  151.7605 H   0  0  0  0  0  0  0  0  0  0  0  0
  146.4115  139.6202  151.9878 H   0  0  0  0  0  0  0  0  0  0  0  0
  146.8235  141.9351  152.8932 H   0  0  0  0  0  0  0  0  0  0  0  0
  146.2911  140.8484  154.1618 H   0  0  0  0  0  0  0  0  0  0  0  0
  152.0873  144.1344  156.6030 H   0  0  0  0  0  0  0  0  0  0  0  0
  150.6410  144.1302  157.5664 H   0  0  0  0  0  0  0  0  0  0  0  0
  152.2832  145.9513  158.0868 H   0  0  0  0  0  0  0  0  0  0  0  0
  153.4335  144.7852  158.6724 H   0  0  0  0  0  0  0  0  0  0  0  0
  1 18  1  0  0  0  0
  1  2  1  0  0  0  0
  1 19  1  0  0  0  0
  1 20  1  0  0  0  0
  2  3  1  0  0  0  0
  2 21  1  0  0  0  0
  2 22  1  0  0  0  0
  3  4  1  0  0  0  0
  3 23  1  0  0  0  0
  3 24  1  0  0  0  0
  4  5  1  0  0  0  0
  4 25  1  0  0  0  0
  4 26  1  0  0  0  0
  5  6  1  0  0  0  0
  5 17  1  0  0  0  0
  5 27  1  0  0  0  0
  6 16  1  0  0  0  0
  6  7  2  0  0  0  0
  7  8  1  0  0  0  0
  8  9  1  0  0  0  0
  9 10  1  0  0  0  0
  9 16  2  0  0  0  0
 10 15  1  0  0  0  0
 10 11  1  0  0  0  0
 10 28  1  0  0  0  0
 11 12  1  0  0  0  0
 11 29  1  0  0  0  0
 11 30  1  0  0  0  0
 12 13  1  0  0  0  0
 12 31  1  0  0  0  0
 13 14  1  0  0  0  0
 13 32  1  0  0  0  0
 13 33  1  0  0  0  0
 14 15  1  0  0  0  0
 14 34  1  0  0  0  0
 14 35  1  0  0  0  0
 17 18  1  0  0  0  0
 17 36  1  0  0  0  0
 17 37  1  0  0  0  0
 18 38  1  0  0  0  0
 18 39  1  0  0  0  0
M  END
> <s_m_source_file>
AV-unprocessed.smi

> <i_m_source_file_index>
885

> <i_lp_mmshare_version>
43012

> <i_f3d_flags>
0

> <s_epik_input>
W0NIMl0xW0NIMl1bQ0gyXVtDSDJdW0NIMl1bQ0gyXVtDSF0xYzJub2MobjIpW0NAQEhdM1tDSDJdW05IXVtDSDJdW0NIMl1PMw==

> <s_epik_cmdline>
J2VwaWtfcHl0aG9uJywgJy1waCcsICc3LjAnLCAnLXRuJywgJzgnLCAnLW1hJywgJzIwMCcsICctbWV0YWxfYmluZGluZycsICctaW1hZScsICc8aW5maWxlLm1hZT4nLCAnLW9tYWUnLCAnPG91dGZpbGUubWFlPic=

> <r_lp_tautomer_probability>
1

> <r_epik_Ionization_Penalty>
0.861744

> <r_epik_Ionization_Penalty_Charging>
0

> <r_epik_Ionization_Penalty_Neutral>
0.861744

> <r_epik_State_Penalty>
0.898282

> <r_epik_Charging_Adjusted_Penalty>
0.898282

> <i_epik_Tot_Q>
0

> <i_epik_Tot_abs_Q>
0

> <r_epik_Metal_State_Penalty>
0.898282

> <b_epik_Metal_Only>
0

> <s_lp_Force_Field>
OPLS_2005

> <r_lp_Energy>
20.6019

> <b_lp_Chiralities_Consistent>
1

> <s_lp_Variant>
AV-unprocessed.smi:885-3

> <Gold.Version>
5.8.1

> <Gold.Id.Protein>
6NUR|6NUR_protein|mol2

> <Gold.PLP.Fitness>
42.6834

> <Gold.PLP.PLP>
-35.8162

> <Gold.PLP.part.hbond>
-3.7614

> <Gold.PLP.part.metal>
0.0000

> <Gold.PLP.part.buried>
2.3287

> <Gold.PLP.part.nonpolar>
-33.3987

> <Gold.PLP.part.repulsive>
0.2486

> <Gold.PLP.ligand.clash>
0.0000

> <Gold.PLP.ligand.torsion>
0.2195

> <Gold.PLP.Chemscore.Hbond>
2.3996

> <Gold.PLP.Chemscore.CHOScore>
0.0000

> <Gold.PLP.Chemscore.Metal>
0.0000

> <Gold.Chemscore.Hbonds>
donor molecule, donor type, donor heavy atom, donor atom, acceptor molecule, acceptor atom, score
      L1  H    12    31       P1  7948  0.88
      P1  H  7989  7998       L1     8  0.67
      P1  H  7997  8008       L1     7  0.23

> <Gold.PLP.Chemscore.Internal.Correction>
0.1073

> <Gold.Rescore>
     Score         DG    S(hbond)    S(metal)    S(lipo)     H(rot)  DE(clash)    DE(int)     intcor
     17.79     -20.64       1.70        0.00     107.43       1.21       2.77       0.08       ----

> <Gold.Chemscore.Fitness>
17.7894

> <Gold.Chemscore.DG>
-20.6418

> <Gold.Chemscore.ZeroCoef>
-5.4800

> <Gold.Chemscore.Hbond>
1.7028

> <Gold.Chemscore.Metal>
0.0000

> <Gold.Chemscore.Lipo>
107.4295

> <Gold.Chemscore.Internal_Hbond>
0.0000

> <Gold.Chemscore.DEClash>
2.7678

> <Gold.Chemscore.DEInternal>
0.0847

> <Gold.Chemscore.Rot>
1.2088

> <Gold.Chemscore.Internal.Correction>
   9.000000E+99

> <Gold.Chemscore.Hbonds>
donor molecule, donor type, donor heavy atom, donor atom, acceptor molecule, acceptor atom, score
      L1  H    12    31       P1  7948  0.85
      P1  H  7989  7998       L1     8  0.10
      P1  H  7997  8008       L1     7  0.22

> <Gold.Chemscore.Hbond.Weighted>
-5.6872

> <Gold.Chemscore.Metal.Weighted>
-0.0000

> <Gold.Chemscore.Lipo.Weighted>
-12.5693

> <Gold.Chemscore.Internal_Hbond.Weighted>
0.0000

> <Gold.Chemscore.DEClash.Weighted>
2.7678

> <Gold.Chemscore.DEInternal.Weighted>
0.0847

> <Gold.Chemscore.Rot.Weighted>
3.0946

> <Gold.Chemscore.Internal.Correction.Weighted>
   9.000000E+99

> <Gold.Protein.RotatedTorsions>
[ 6907 6896 6895 6894 ] final  -36.68 input  -60.11 | X-H torsion
[ 7974 7965 7964 7962 ] final  177.30 input  175.53 | X-H torsion
[ 8008 7997 7996 7995 ] final  -37.67 input   59.86 | X-H torsion
[ 10167 10162 10161 10158 ] final  -80.81 input  -65.29 | X-H torsion
[ 10718 10713 10712 10709 ] final  159.40 input   66.30 | X-H torsion
[ 10763 10752 10751 10750 ] final   10.91 input  -60.55 | X-H torsion
[ 11005 11000 10999 10996 ] final   26.95 input  -57.11 | X-H torsion

> <Gold.Protein.ActiveResidues>
 VAL166  LYS551  ARG553  GLY616  TRP617  ASP618  TYR619  PRO620  LYS621  CYS622 
 ASP623  PHE694  ASN695  SER759  ASP760  ASP761  ALA762  ILE779  LEU786  VAL792 
 PHE793  MET794  SER795  GLU796  ALA797  LYS798  CYS799  TRP800  GLU811  SER814 

> <Gold.Protein.RotatedAtoms>
  151.0241  134.9491  159.8075 H   0  0  0  0  0  0  0  0  0  0  0  0  # atno 6907 bound_to 6896
  152.5331  134.2865  159.9037 H   0  0  0  0  0  0  0  0  0  0  0  0  # atno 6908 bound_to 6896
  151.2873  133.4139  159.2665 H   0  0  0  0  0  0  0  0  0  0  0  0  # atno 6909 bound_to 6896
  144.7171  140.0226  143.6440 H   0  0  0  0  0  0  0  0  0  0  0  0  # atno 7974 bound_to 7965
  154.4049  140.1598  156.2575 H   0  0  0  0  0  0  0  0  0  0  0  0  # atno 8008 bound_to 7997
  155.9065  140.3430  155.6044 H   0  0  0  0  0  0  0  0  0  0  0  0  # atno 8009 bound_to 7997
  155.7386  140.0789  157.2247 H   0  0  0  0  0  0  0  0  0  0  0  0  # atno 8010 bound_to 7997
  140.4469  143.2495  151.8545 H   0  0  0  0  0  0  0  0  0  0  0  0  # atno 10167 bound_to 10162
  157.1647  131.0595  151.2214 H   0  0  0  0  0  0  0  0  0  0  0  0  # atno 10718 bound_to 10713
  153.1982  135.6852  153.8265 H   0  0  0  0  0  0  0  0  0  0  0  0  # atno 10763 bound_to 10752
  153.7541  135.3219  155.3327 H   0  0  0  0  0  0  0  0  0  0  0  0  # atno 10764 bound_to 10752
  154.8156  135.4688  154.0736 H   0  0  0  0  0  0  0  0  0  0  0  0  # atno 10765 bound_to 10752
  140.3315  134.2432  155.7701 H   0  0  0  0  0  0  0  0  0  0  0  0  # atno 11005 bound_to 11000
  146.0168  139.3216  143.0837 LP  0  0  0  0  0  0  0  0  0  0  0  0  # atno 17320 bound_to 7965
  145.8616  140.9472  143.0697 LP  0  0  0  0  0  0  0  0  0  0  0  0  # atno 17321 bound_to 7965
  139.4793  144.5164  151.8861 LP  0  0  0  0  0  0  0  0  0  0  0  0  # atno 17342 bound_to 10162
  140.4252  144.2189  150.5887 LP  0  0  0  0  0  0  0  0  0  0  0  0  # atno 17343 bound_to 10162
  157.4100  130.7380  149.6831 LP  0  0  0  0  0  0  0  0  0  0  0  0  # atno 17370 bound_to 10713
  155.9748  130.4098  150.3897 LP  0  0  0  0  0  0  0  0  0  0  0  0  # atno 17371 bound_to 10713
  141.2062  133.7840  157.0191 LP  0  0  0  0  0  0  0  0  0  0  0  0  # atno 17394 bound_to 11000
  140.0856  134.9622  157.1695 LP  0  0  0  0  0  0  0  0  0  0  0  0  # atno 17395 bound_to 11000

$$$$
