AV-unprocessed.smi:1532|AV-procd|sdf|6161|dock4
  -GOLD-   22720 6313D 1   1.00000     0.00000
 Structure written by MMmdl.
 38 40  0  0  0  0  0  0  0  0  1 V2000
  152.4382  138.6253  158.8281 O   0  0  0  0  0  0  0  0  0  0  0  0
  152.4429  139.8540  158.9102 C   0  0  0  0  0  0  0  0  0  0  0  0
  153.3307  140.6027  159.8132 C   0  0  0  0  0  0  0  0  0  0  0  0
  154.2704  139.8071  160.7153 C   0  0  0  0  0  0  0  0  0  0  0  0
  154.6324  140.5080  161.7910 F   0  0  0  0  0  0  0  0  0  0  0  0
  153.6830  138.6873  161.1389 F   0  0  0  0  0  0  0  0  0  0  0  0
  155.3786  139.4724  160.0539 F   0  0  0  0  0  0  0  0  0  0  0  0
  153.2899  141.9574  159.8379 C   0  0  0  0  0  0  0  0  0  0  0  0
  152.3775  142.6774  158.9729 C   0  0  0  0  0  0  0  0  0  0  0  0
  152.2949  144.1764  158.9324 C   0  0  0  0  0  0  0  0  0  0  0  0
  151.9408  144.9840  160.1595 C   0  0  0  0  0  0  0  0  0  0  0  0
  150.9761  144.9121  158.9986 C   0  0  0  0  0  0  0  0  0  0  0  0
  151.5912  142.0184  158.1907 N   0  0  0  0  0  0  0  0  0  0  0  0
  151.6156  140.6376  158.1577 N   0  0  0  0  0  0  0  0  0  0  0  0
  150.6708  140.0511  157.1988 C   0  0  0  0  0  0  0  0  0  0  0  0
  150.8129  140.6708  155.7914 C   0  0  1  0  0  0  0  0  0  0  0  0
  151.9137  140.0751  155.1333 O   0  0  0  0  0  0  0  0  0  0  0  0
  149.5320  140.4963  154.9897 C   0  0  0  0  0  0  0  0  0  0  0  0
  149.1265  139.2172  154.5479 C   0  0  0  0  0  0  0  0  0  0  0  0
  147.9336  139.0645  153.8150 C   0  0  0  0  0  0  0  0  0  0  0  0
  147.1371  140.1881  153.5229 C   0  0  0  0  0  0  0  0  0  0  0  0
  147.5335  141.4645  153.9652 C   0  0  0  0  0  0  0  0  0  0  0  0
  146.7660  142.5452  153.6883 F   0  0  0  0  0  0  0  0  0  0  0  0
  148.7273  141.6181  154.6967 C   0  0  0  0  0  0  0  0  0  0  0  0
  153.9297  142.5241  160.4977 H   0  0  0  0  0  0  0  0  0  0  0  0
  153.0548  144.5867  158.2700 H   0  0  0  0  0  0  0  0  0  0  0  0
  151.6732  144.4442  161.0662 H   0  0  0  0  0  0  0  0  0  0  0  0
  152.4737  145.9198  160.3146 H   0  0  0  0  0  0  0  0  0  0  0  0
  150.8665  145.8010  158.3807 H   0  0  0  0  0  0  0  0  0  0  0  0
  150.0670  144.3312  159.1438 H   0  0  0  0  0  0  0  0  0  0  0  0
  150.7317  138.9618  157.1586 H   0  0  0  0  0  0  0  0  0  0  0  0
  149.6664  140.2573  157.5746 H   0  0  0  0  0  0  0  0  0  0  0  0
  151.0197  141.7387  155.8755 H   0  0  0  0  0  0  0  0  0  0  0  0
  151.8460  139.1370  155.2254 H   0  0  0  0  0  0  0  0  0  0  0  0
  149.7287  138.3488  154.7720 H   0  0  0  0  0  0  0  0  0  0  0  0
  147.6286  138.0846  153.4784 H   0  0  0  0  0  0  0  0  0  0  0  0
  146.2218  140.0706  152.9619 H   0  0  0  0  0  0  0  0  0  0  0  0
  149.0211  142.6011  155.0340 H   0  0  0  0  0  0  0  0  0  0  0  0
  1  2  2  0  0  0  0
  2 14  1  0  0  0  0
  2  3  1  0  0  0  0
  3  4  1  0  0  0  0
  3  8  2  0  0  0  0
  4  5  1  0  0  0  0
  4  6  1  0  0  0  0
  4  7  1  0  0  0  0
  8  9  1  0  0  0  0
  8 25  1  0  0  0  0
  9 10  1  0  0  0  0
  9 13  2  0  0  0  0
 10 12  1  0  0  0  0
 10 11  1  0  0  0  0
 10 26  1  0  0  0  0
 11 12  1  0  0  0  0
 11 27  1  0  0  0  0
 11 28  1  0  0  0  0
 12 29  1  0  0  0  0
 12 30  1  0  0  0  0
 13 14  1  0  0  0  0
 14 15  1  0  0  0  0
 15 16  1  0  0  0  0
 15 31  1  0  0  0  0
 15 32  1  0  0  0  0
 16 17  1  0  0  0  0
 16 18  1  0  0  0  0
 16 33  1  0  0  0  0
 17 34  1  0  0  0  0
 18 24  1  0  0  0  0
 18 19  2  0  0  0  0
 19 20  1  0  0  0  0
 19 35  1  0  0  0  0
 20 21  2  0  0  0  0
 20 36  1  0  0  0  0
 21 22  1  0  0  0  0
 21 37  1  0  0  0  0
 22 23  1  0  0  0  0
 22 24  2  0  0  0  0
 24 38  1  0  0  0  0
M  END
> <s_m_source_file>
AV-unprocessed.smi

> <i_m_source_file_index>
1532

> <i_lp_mmshare_version>
43012

> <i_f3d_flags>
0

> <s_epik_input>
Tz1jMWMoQyhGKShGKUYpW2NIXWMoW0NIXTJbQ0gyXVtDSDJdMilubjFbQ0gyXVtDQEhdKFtPSF0pYzNbY0hdW2NIXVtjSF1jKEYpW2NIXTM=

> <s_epik_cmdline>
J2VwaWtfcHl0aG9uJywgJy1waCcsICc3LjAnLCAnLXRuJywgJzgnLCAnLW1hJywgJzIwMCcsICctbWV0YWxfYmluZGluZycsICctaW1hZScsICc8aW5maWxlLm1hZT4nLCAnLW9tYWUnLCAnPG91dGZpbGUubWFlPic=

> <r_lp_tautomer_probability>
1

> <r_epik_Ionization_Penalty>
1.69012e-07

> <r_epik_Ionization_Penalty_Charging>
9.677e-10

> <r_epik_Ionization_Penalty_Neutral>
1.68044e-07

> <r_epik_State_Penalty>
-0

> <r_epik_Charging_Adjusted_Penalty>
9.677e-10

> <i_epik_Tot_Q>
0

> <i_epik_Tot_abs_Q>
0

> <r_epik_Metal_State_Penalty>
-0

> <b_epik_Metal_Only>
0

> <s_lp_Force_Field>
OPLS_2005

> <r_lp_Energy>
33.2113

> <b_lp_Chiralities_Consistent>
1

> <s_lp_Variant>
AV-unprocessed.smi:1532-2

> <Gold.Version>
5.8.1

> <Gold.Id.Protein>
6NUR|6NUR_protein|mol2

> <Gold.PLP.Fitness>
55.3282

> <Gold.PLP.PLP>
-55.3080

> <Gold.PLP.part.hbond>
-1.0000

> <Gold.PLP.part.metal>
0.0000

> <Gold.PLP.part.buried>
-4.9564

> <Gold.PLP.part.nonpolar>
-49.1475

> <Gold.PLP.part.repulsive>
0.0198

> <Gold.PLP.ligand.clash>
0.0000

> <Gold.PLP.ligand.torsion>
1.5377

> <Gold.PLP.Chemscore.Hbond>
0.8000

> <Gold.PLP.Chemscore.CHOScore>
0.0000

> <Gold.PLP.Chemscore.Metal>
0.0000

> <Gold.Chemscore.Hbonds>
donor molecule, donor type, donor heavy atom, donor atom, acceptor molecule, acceptor atom, score
      P1  H  7989  7998       L1    17  0.73

> <Gold.PLP.Chemscore.Internal.Correction>
0.6957

> <Gold.Rescore>
     Score         DG    S(hbond)    S(metal)    S(lipo)     H(rot)  DE(clash)    DE(int)     intcor
     13.75     -16.02       0.78        0.00     115.97       2.20       0.05       2.22       ----

> <Gold.Chemscore.Fitness>
13.7452

> <Gold.Chemscore.DG>
-16.0176

> <Gold.Chemscore.ZeroCoef>
-5.4800

> <Gold.Chemscore.Hbond>
0.7790

> <Gold.Chemscore.Metal>
0.0000

> <Gold.Chemscore.Lipo>
115.9713

> <Gold.Chemscore.Internal_Hbond>
0.0000

> <Gold.Chemscore.DEClash>
0.0532

> <Gold.Chemscore.DEInternal>
2.2192

> <Gold.Chemscore.Rot>
2.2003

> <Gold.Chemscore.Internal.Correction>
   9.000000E+99

> <Gold.Chemscore.Hbonds>
donor molecule, donor type, donor heavy atom, donor atom, acceptor molecule, acceptor atom, score
      P1  H  7989  7998       L1    17  0.12

> <Gold.Chemscore.Hbond.Weighted>
-2.6018

> <Gold.Chemscore.Metal.Weighted>
-0.0000

> <Gold.Chemscore.Lipo.Weighted>
-13.5686

> <Gold.Chemscore.Internal_Hbond.Weighted>
0.0000

> <Gold.Chemscore.DEClash.Weighted>
0.0532

> <Gold.Chemscore.DEInternal.Weighted>
2.2192

> <Gold.Chemscore.Rot.Weighted>
5.6328

> <Gold.Chemscore.Internal.Correction.Weighted>
   9.000000E+99

> <Gold.Protein.RotatedTorsions>
[ 6907 6896 6895 6894 ] final -116.19 input  -60.11 | X-H torsion
[ 7974 7965 7964 7962 ] final  -29.14 input  175.53 | X-H torsion
[ 8008 7997 7996 7995 ] final  -96.90 input   59.86 | X-H torsion
[ 10167 10162 10161 10158 ] final  104.17 input  -65.29 | X-H torsion
[ 10718 10713 10712 10709 ] final   49.74 input   66.30 | X-H torsion
[ 10763 10752 10751 10750 ] final   35.68 input  -60.55 | X-H torsion
[ 11005 11000 10999 10996 ] final -111.97 input  -57.11 | X-H torsion

> <Gold.Protein.ActiveResidues>
 VAL166  LYS551  ARG553  GLY616  TRP617  ASP618  TYR619  PRO620  LYS621  CYS622 
 ASP623  PHE694  ASN695  SER759  ASP760  ASP761  ALA762  ILE779  LEU786  VAL792 
 PHE793  MET794  SER795  GLU796  ALA797  LYS798  CYS799  TRP800  GLU811  SER814 

> <Gold.Protein.RotatedAtoms>
  150.8037  133.8551  159.3216 H   0  0  0  0  0  0  0  0  0  0  0  0  # atno 6907 bound_to 6896
  151.6356  135.1016  160.0140 H   0  0  0  0  0  0  0  0  0  0  0  0  # atno 6908 bound_to 6896
  152.4126  133.6947  159.6446 H   0  0  0  0  0  0  0  0  0  0  0  0  # atno 6909 bound_to 6896
  146.1238  140.5374  142.8724 H   0  0  0  0  0  0  0  0  0  0  0  0  # atno 7974 bound_to 7965
  154.7806  140.0467  157.1124 H   0  0  0  0  0  0  0  0  0  0  0  0  # atno 8008 bound_to 7997
  154.9709  140.3089  155.4969 H   0  0  0  0  0  0  0  0  0  0  0  0  # atno 8009 bound_to 7997
  156.2936  140.2253  156.4801 H   0  0  0  0  0  0  0  0  0  0  0  0  # atno 8010 bound_to 7997
  139.7200  144.7060  151.0887 H   0  0  0  0  0  0  0  0  0  0  0  0  # atno 10167 bound_to 10162
  157.4817  130.8319  149.8100 H   0  0  0  0  0  0  0  0  0  0  0  0  # atno 10718 bound_to 10713
  153.0109  135.6327  154.1864 H   0  0  0  0  0  0  0  0  0  0  0  0  # atno 10763 bound_to 10752
  154.1606  135.2824  155.3111 H   0  0  0  0  0  0  0  0  0  0  0  0  # atno 10764 bound_to 10752
  154.5984  135.5595  153.7409 H   0  0  0  0  0  0  0  0  0  0  0  0  # atno 10765 bound_to 10752
  141.0703  133.9391  157.2498 H   0  0  0  0  0  0  0  0  0  0  0  0  # atno 11005 bound_to 11000
  144.7622  140.5449  143.6727 LP  0  0  0  0  0  0  0  0  0  0  0  0  # atno 17320 bound_to 7965
  145.5410  139.1475  143.3447 LP  0  0  0  0  0  0  0  0  0  0  0  0  # atno 17321 bound_to 7965
  140.7752  143.5178  150.9573 LP  0  0  0  0  0  0  0  0  0  0  0  0  # atno 17342 bound_to 10162
  139.8865  143.7006  152.3151 LP  0  0  0  0  0  0  0  0  0  0  0  0  # atno 17343 bound_to 10162
  156.0125  130.3827  150.2218 LP  0  0  0  0  0  0  0  0  0  0  0  0  # atno 17370 bound_to 10713
  157.0404  131.0033  151.3285 LP  0  0  0  0  0  0  0  0  0  0  0  0  # atno 17371 bound_to 10713
  139.9517  135.0174  156.9012 LP  0  0  0  0  0  0  0  0  0  0  0  0  # atno 17394 bound_to 11000
  140.5687  134.0464  155.7423 LP  0  0  0  0  0  0  0  0  0  0  0  0  # atno 17395 bound_to 11000

$$$$
