AV-unprocessed.smi:3025|AV-procd|sdf|11511|dock10
  -GOLD-   2272016453D 1   1.00000     0.00000
 Structure written by MMmdl.
 41 42  0  0  0  0  0  0  0  0  3 V2000
  151.7640  143.3428  158.7422 C   0  0  0  0  0  0  0  0  0  0  0  0
  151.1641  142.9259  157.3947 C   0  0  0  0  0  0  0  0  0  0  0  0
  151.2531  141.4090  157.1558 C   0  0  0  0  0  0  0  0  0  0  0  0
  150.6601  140.9450  155.8093 C   0  0  2  0  0  0  0  0  0  0  0  0
  149.1844  141.3636  155.6342 C   0  0  0  0  0  0  0  0  0  0  0  0
  148.6017  140.8699  154.2998 C   0  0  0  0  0  0  0  0  0  0  0  0
  148.7397  139.3411  154.1499 C   0  0  1  0  0  0  0  0  0  0  0  0
  148.2318  138.8734  152.8410 N   0  3  0  0  0  0  0  0  0  0  0  0
  146.7614  138.8661  152.7021 C   0  0  0  0  0  0  0  0  0  0  0  0
  146.1527  137.6404  153.3912 C   0  0  0  0  0  0  0  0  0  0  0  0
  145.4678  136.7282  152.3999 C   0  0  0  0  0  0  0  0  0  0  0  0
  144.1842  136.3216  152.4659 N   0  5  0  0  0  0  0  0  0  0  0  0
  143.8945  135.5678  151.4232 N   0  0  0  0  0  0  0  0  0  0  0  0
  145.0302  135.5359  150.7159 C   0  0  0  0  0  0  0  0  0  0  0  0
  146.0106  136.2454  151.2858 N   0  0  0  0  0  0  0  0  0  0  0  0
  150.2128  138.9277  154.3159 C   0  0  0  0  0  0  0  0  0  0  0  0
  150.7900  139.4165  155.6538 C   0  0  0  0  0  0  0  0  0  0  0  0
  151.6923  144.4218  158.8818 H   0  0  0  0  0  0  0  0  0  0  0  0
  152.8176  143.0689  158.8066 H   0  0  0  0  0  0  0  0  0  0  0  0
  151.2410  142.8648  159.5711 H   0  0  0  0  0  0  0  0  0  0  0  0
  150.1255  143.2535  157.3594 H   0  0  0  0  0  0  0  0  0  0  0  0
  151.6834  143.4544  156.5945 H   0  0  0  0  0  0  0  0  0  0  0  0
  152.3046  141.1208  157.1934 H   0  0  0  0  0  0  0  0  0  0  0  0
  150.7672  140.8781  157.9755 H   0  0  0  0  0  0  0  0  0  0  0  0
  151.2424  141.4073  155.0105 H   0  0  0  0  0  0  0  0  0  0  0  0
  148.5887  140.9684  156.4584 H   0  0  0  0  0  0  0  0  0  0  0  0
  149.0876  142.4481  155.6774 H   0  0  0  0  0  0  0  0  0  0  0  0
  147.5553  141.1691  154.2422 H   0  0  0  0  0  0  0  0  0  0  0  0
  149.1114  141.3700  153.4749 H   0  0  0  0  0  0  0  0  0  0  0  0
  148.1615  138.8510  154.9349 H   0  0  0  0  0  0  0  0  0  0  0  0
  148.6309  139.4446  152.1100 H   0  0  0  0  0  0  0  0  0  0  0  0
  146.3521  139.7772  153.1404 H   0  0  0  0  0  0  0  0  0  0  0  0
  146.4866  138.8627  151.6472 H   0  0  0  0  0  0  0  0  0  0  0  0
  146.9260  137.0746  153.9121 H   0  0  0  0  0  0  0  0  0  0  0  0
  145.4248  137.9489  154.1426 H   0  0  0  0  0  0  0  0  0  0  0  0
  145.1410  134.9981  149.7824 H   0  0  0  0  0  0  0  0  0  0  0  0
  150.3053  137.8425  154.2554 H   0  0  0  0  0  0  0  0  0  0  0  0
  150.8077  139.3338  153.4965 H   0  0  0  0  0  0  0  0  0  0  0  0
  151.8380  139.1221  155.7231 H   0  0  0  0  0  0  0  0  0  0  0  0
  150.2759  138.9168  156.4762 H   0  0  0  0  0  0  0  0  0  0  0  0
  148.5464  137.9225  152.7121 H   0  0  0  0  0  0  0  0  0  0  0  0
  1  2  1  0  0  0  0
  1 18  1  0  0  0  0
  1 19  1  0  0  0  0
  1 20  1  0  0  0  0
  2  3  1  0  0  0  0
  2 21  1  0  0  0  0
  2 22  1  0  0  0  0
  3  4  1  0  0  0  0
  3 23  1  0  0  0  0
  3 24  1  0  0  0  0
  4 17  1  0  0  0  0
  4  5  1  0  0  0  0
  4 25  1  0  0  0  0
  5  6  1  0  0  0  0
  5 26  1  0  0  0  0
  5 27  1  0  0  0  0
  6  7  1  0  0  0  0
  6 28  1  0  0  0  0
  6 29  1  0  0  0  0
  7  8  1  0  0  0  0
  7 16  1  0  0  0  0
  7 30  1  0  0  0  0
  8  9  1  0  0  0  0
  8 31  1  0  0  0  0
  8 41  1  0  0  0  0
  9 10  1  0  0  0  0
  9 32  1  0  0  0  0
  9 33  1  0  0  0  0
 10 34  1  0  0  0  0
 10 35  1  0  0  0  0
 10 11  1  0  0  0  0
 11 15  2  0  0  0  0
 11 12  1  0  0  0  0
 12 13  1  0  0  0  0
 13 14  2  0  0  0  0
 14 15  1  0  0  0  0
 14 36  1  0  0  0  0
 16 17  1  0  0  0  0
 16 37  1  0  0  0  0
 16 38  1  0  0  0  0
 17 39  1  0  0  0  0
 17 40  1  0  0  0  0
M  CHG  1   8   1
M  CHG  1  12  -1
M  END
> <s_m_source_file>
AV-unprocessed.smi

> <i_m_source_file_index>
3025

> <i_lp_mmshare_version>
43012

> <i_f3d_flags>
0

> <s_epik_input>
W0NIM11bQ0gyXVtDSDJdW0NAQEhdMVtDSDJdW0NIMl1bQ0BIXShbQ0gyXVtDSDJdMSlbTkhdW0NIMl1bQ0gyXWMybm5bY0hdW25IXTI=

> <s_epik_cmdline>
J2VwaWtfcHl0aG9uJywgJy1waCcsICc3LjAnLCAnLXRuJywgJzgnLCAnLW1hJywgJzIwMCcsICctbWV0YWxfYmluZGluZycsICctaW1hZScsICc8aW5maWxlLm1hZT4nLCAnLW9tYWUnLCAnPG91dGZpbGUubWFlPic=

> <r_lp_tautomer_probability>
0.948284

> <r_epik_Ionization_Penalty>
6.65342

> <r_epik_Ionization_Penalty_Charging>
6.65342

> <r_epik_Ionization_Penalty_Neutral>
1.40767e-13

> <r_epik_State_Penalty>
2.88894

> <r_epik_Charging_Adjusted_Penalty>
9.54236

> <i_epik_Tot_Q>
0

> <i_epik_Tot_abs_Q>
2

> <r_epik_Metal_State_Penalty>
0.664188

> <b_epik_Metal_Only>
1

> <s_lp_Force_Field>
OPLS_2005

> <r_lp_Energy>
6.5819

> <b_lp_Chiralities_Consistent>
1

> <s_lp_Variant>
AV-unprocessed.smi:3025-7

> <Gold.Version>
5.8.1

> <Gold.Id.Protein>
6NUR|6NUR_protein|mol2

> <Gold.PLP.Fitness>
43.2486

> <Gold.PLP.PLP>
-32.9493

> <Gold.PLP.part.hbond>
-1.7261

> <Gold.PLP.part.metal>
0.0000

> <Gold.PLP.part.buried>
-5.3982

> <Gold.PLP.part.nonpolar>
-28.0055

> <Gold.PLP.part.repulsive>
1.3093

> <Gold.PLP.ligand.clash>
0.0000

> <Gold.PLP.ligand.torsion>
0.6120

> <Gold.PLP.Chemscore.Hbond>
2.8288

> <Gold.PLP.Chemscore.CHOScore>
1.0000

> <Gold.PLP.Chemscore.Metal>
0.0000

> <Gold.Chemscore.Hbonds>
donor molecule, donor type, donor heavy atom, donor atom, acceptor molecule, acceptor atom, score
      L1  H     8    31       P1  7957  0.86
      L1  H     8    41       P1  7948  2.00
      L1  C    14    36       P1  7921  1.00

> <Gold.PLP.Chemscore.Internal.Correction>
0.0372

> <Gold.Rescore>
     Score         DG    S(hbond)    S(metal)    S(lipo)     H(rot)  DE(clash)    DE(int)     intcor
     14.24     -14.84       1.95        0.00      79.00       2.50       0.02       0.58       ----

> <Gold.Chemscore.Fitness>
14.2446

> <Gold.Chemscore.DG>
-14.8407

> <Gold.Chemscore.ZeroCoef>
-5.4800

> <Gold.Chemscore.Hbond>
1.9529

> <Gold.Chemscore.Metal>
0.0000

> <Gold.Chemscore.Lipo>
78.9991

> <Gold.Chemscore.Internal_Hbond>
0.0000

> <Gold.Chemscore.DEClash>
0.0178

> <Gold.Chemscore.DEInternal>
0.5783

> <Gold.Chemscore.Rot>
2.5019

> <Gold.Chemscore.Internal.Correction>
   9.000000E+99

> <Gold.Chemscore.Hbonds>
donor molecule, donor type, donor heavy atom, donor atom, acceptor molecule, acceptor atom, score
      L1  H     8    31       P1  7957  0.84
      L1  H     8    41       P1  7948  0.99

> <Gold.Chemscore.Hbond.Weighted>
-6.5227

> <Gold.Chemscore.Metal.Weighted>
-0.0000

> <Gold.Chemscore.Lipo.Weighted>
-9.2429

> <Gold.Chemscore.Internal_Hbond.Weighted>
0.0000

> <Gold.Chemscore.DEClash.Weighted>
0.0178

> <Gold.Chemscore.DEInternal.Weighted>
0.5783

> <Gold.Chemscore.Rot.Weighted>
6.4049

> <Gold.Chemscore.Internal.Correction.Weighted>
   9.000000E+99

> <Gold.Protein.RotatedTorsions>
[ 6907 6896 6895 6894 ] final   75.90 input  -60.11 | X-H torsion
[ 7974 7965 7964 7962 ] final  -73.56 input  175.53 | X-H torsion
[ 8008 7997 7996 7995 ] final  157.55 input   59.86 | X-H torsion
[ 10167 10162 10161 10158 ] final  -95.66 input  -65.29 | X-H torsion
[ 10718 10713 10712 10709 ] final -172.92 input   66.30 | X-H torsion
[ 10763 10752 10751 10750 ] final  164.62 input  -60.55 | X-H torsion
[ 11005 11000 10999 10996 ] final  -43.37 input  -57.11 | X-H torsion

> <Gold.Protein.ActiveResidues>
 VAL166  LYS551  ARG553  GLY616  TRP617  ASP618  TYR619  PRO620  LYS621  CYS622 
 ASP623  PHE694  ASN695  SER759  ASP760  ASP761  ALA762  ILE779  LEU786  VAL792 
 PHE793  MET794  SER795  GLU796  ALA797  LYS798  CYS799  TRP800  GLU811  SER814 

> <Gold.Protein.RotatedAtoms>
  152.5048  134.4050  159.9429 H   0  0  0  0  0  0  0  0  0  0  0  0  # atno 6907 bound_to 6896
  151.4016  133.3749  159.2740 H   0  0  0  0  0  0  0  0  0  0  0  0  # atno 6908 bound_to 6896
  150.9357  134.8791  159.7639 H   0  0  0  0  0  0  0  0  0  0  0  0  # atno 6909 bound_to 6896
  145.6505  140.9284  143.0987 H   0  0  0  0  0  0  0  0  0  0  0  0  # atno 7974 bound_to 7965
  156.2357  140.1882  156.7125 H   0  0  0  0  0  0  0  0  0  0  0  0  # atno 8008 bound_to 7997
  154.6103  140.0623  156.9511 H   0  0  0  0  0  0  0  0  0  0  0  0  # atno 8009 bound_to 7997
  155.2028  140.3293  155.4343 H   0  0  0  0  0  0  0  0  0  0  0  0  # atno 8010 bound_to 7997
  140.3019  143.3157  152.0239 H   0  0  0  0  0  0  0  0  0  0  0  0  # atno 10167 bound_to 10162
  156.7627  130.9419  151.3118 H   0  0  0  0  0  0  0  0  0  0  0  0  # atno 10718 bound_to 10713
  154.3116  135.2757  155.2563 H   0  0  0  0  0  0  0  0  0  0  0  0  # atno 10763 bound_to 10752
  154.4956  135.5822  153.6495 H   0  0  0  0  0  0  0  0  0  0  0  0  # atno 10764 bound_to 10752
  152.9887  135.6145  154.3294 H   0  0  0  0  0  0  0  0  0  0  0  0  # atno 10765 bound_to 10752
  141.0379  133.6792  156.2724 H   0  0  0  0  0  0  0  0  0  0  0  0  # atno 11005 bound_to 11000
  144.7124  139.8320  143.7410 LP  0  0  0  0  0  0  0  0  0  0  0  0  # atno 17320 bound_to 7965
  146.1207  139.4225  143.0230 LP  0  0  0  0  0  0  0  0  0  0  0  0  # atno 17321 bound_to 7965
  139.4913  144.6449  151.6798 LP  0  0  0  0  0  0  0  0  0  0  0  0  # atno 17342 bound_to 10162
  140.5644  144.0215  150.6185 LP  0  0  0  0  0  0  0  0  0  0  0  0  # atno 17343 bound_to 10162
  157.6727  130.9066  150.0078 LP  0  0  0  0  0  0  0  0  0  0  0  0  # atno 17370 bound_to 10713
  156.1329  130.3643  149.9703 LP  0  0  0  0  0  0  0  0  0  0  0  0  # atno 17371 bound_to 10713
  140.6288  134.5286  157.5557 LP  0  0  0  0  0  0  0  0  0  0  0  0  # atno 17394 bound_to 11000
  139.9254  134.8066  156.1084 LP  0  0  0  0  0  0  0  0  0  0  0  0  # atno 17395 bound_to 11000

$$$$
