AV-unprocessed.smi:2010|AV-procd|sdf|8152|dock3
  -GOLD-   2272010393D 1   1.00000     0.00000
 Structure written by MMmdl.
 40 41  0  0  0  0  0  0  0  0  2 V2000
  148.3618  139.5806  154.0376 C   0  0  0  0  0  0  0  0  0  0  0  0
  149.8554  139.6624  154.3825 C   0  0  0  0  0  0  0  0  0  0  0  0
  150.5437  138.2960  154.2399 C   0  0  0  0  0  0  0  0  0  0  0  0
  152.0362  138.3721  154.6107 C   0  0  0  0  0  0  0  0  0  0  0  0
  152.2388  138.9448  155.9584 N   0  0  0  0  0  0  0  0  0  0  0  0
  152.4645  137.8742  157.3158 S   0  0  0  0  0  0  0  0  0  0  0  0
  151.1351  137.7012  157.9239 O   0  0  0  0  0  0  0  0  0  0  0  0
  153.1380  136.6739  156.7939 O   0  0  0  0  0  0  0  0  0  0  0  0
  153.4525  138.8303  158.1736 N   0  5  0  0  0  0  0  0  0  0  0  0
  153.1157  139.2065  159.5378 C   0  0  1  0  0  0  0  0  0  0  0  0
  153.1830  137.9511  160.4214 C   0  0  0  0  0  0  0  0  0  0  0  0
  154.0402  140.3537  160.0339 C   0  0  0  0  0  0  0  0  0  0  0  0
  153.3529  141.5254  160.5743 N   0  0  0  0  0  0  0  0  0  0  0  0
  153.1505  141.8772  161.8953 C   0  0  0  0  0  0  0  0  0  0  0  0
  152.4429  143.0448  161.9070 C   0  0  0  0  0  0  0  0  0  0  0  0
  152.2380  143.3285  160.5284 C   0  0  0  0  0  0  0  0  0  0  0  0
  152.7680  142.4129  159.7353 N   0  0  0  0  0  0  0  0  0  0  0  0
  151.5778  140.2509  156.1620 C   0  0  0  0  0  0  0  0  0  0  0  0
  150.0803  140.1956  155.8064 C   0  0  0  0  0  0  0  0  0  0  0  0
  147.8388  138.8967  154.7070 H   0  0  0  0  0  0  0  0  0  0  0  0
  148.2133  139.2266  153.0172 H   0  0  0  0  0  0  0  0  0  0  0  0
  147.8858  140.5579  154.1209 H   0  0  0  0  0  0  0  0  0  0  0  0
  150.3237  140.3545  153.6815 H   0  0  0  0  0  0  0  0  0  0  0  0
  150.0406  137.5611  154.8682 H   0  0  0  0  0  0  0  0  0  0  0  0
  150.4442  137.9347  153.2160 H   0  0  0  0  0  0  0  0  0  0  0  0
  152.4903  137.3837  154.5471 H   0  0  0  0  0  0  0  0  0  0  0  0
  152.5599  138.9987  153.8882 H   0  0  0  0  0  0  0  0  0  0  0  0
  152.0901  139.5732  159.5932 H   0  0  0  0  0  0  0  0  0  0  0  0
  152.9683  138.1945  161.4619 H   0  0  0  0  0  0  0  0  0  0  0  0
  154.1653  137.4793  160.3840 H   0  0  0  0  0  0  0  0  0  0  0  0
  152.4510  137.2088  160.1014 H   0  0  0  0  0  0  0  0  0  0  0  0
  154.7386  139.9823  160.7844 H   0  0  0  0  0  0  0  0  0  0  0  0
  154.6610  140.6933  159.2043 H   0  0  0  0  0  0  0  0  0  0  0  0
  153.5319  141.2759  162.7074 H   0  0  0  0  0  0  0  0  0  0  0  0
  152.1200  143.6089  162.7689 H   0  0  0  0  0  0  0  0  0  0  0  0
  151.7189  144.1641  160.0830 H   0  0  0  0  0  0  0  0  0  0  0  0
  151.7106  140.5848  157.1907 H   0  0  0  0  0  0  0  0  0  0  0  0
  152.0745  140.9890  155.5322 H   0  0  0  0  0  0  0  0  0  0  0  0
  149.6504  141.1931  155.9004 H   0  0  0  0  0  0  0  0  0  0  0  0
  149.5504  139.5707  156.5257 H   0  0  0  0  0  0  0  0  0  0  0  0
  1  2  1  0  0  0  0
  1 20  1  0  0  0  0
  1 21  1  0  0  0  0
  1 22  1  0  0  0  0
  2 19  1  0  0  0  0
  2  3  1  0  0  0  0
  2 23  1  0  0  0  0
  3  4  1  0  0  0  0
  3 24  1  0  0  0  0
  3 25  1  0  0  0  0
  4  5  1  0  0  0  0
  4 26  1  0  0  0  0
  4 27  1  0  0  0  0
  5  6  1  0  0  0  0
  5 18  1  0  0  0  0
  6  7  2  0  0  0  0
  6  8  2  0  0  0  0
  6  9  1  0  0  0  0
  9 10  1  0  0  0  0
 10 11  1  0  0  0  0
 10 12  1  0  0  0  0
 10 28  1  0  0  0  0
 11 29  1  0  0  0  0
 11 30  1  0  0  0  0
 11 31  1  0  0  0  0
 12 13  1  0  0  0  0
 12 32  1  0  0  0  0
 12 33  1  0  0  0  0
 13 17  1  0  0  0  0
 13 14  1  0  0  0  0
 14 15  2  0  0  0  0
 14 34  1  0  0  0  0
 15 16  1  0  0  0  0
 15 35  1  0  0  0  0
 16 17  2  0  0  0  0
 16 36  1  0  0  0  0
 18 19  1  0  0  0  0
 18 37  1  0  0  0  0
 18 38  1  0  0  0  0
 19 39  1  0  0  0  0
 19 40  1  0  0  0  0
M  CHG  1   9  -1
M  END
> <s_m_source_file>
AV-unprocessed.smi

> <i_m_source_file_index>
2010

> <i_lp_mmshare_version>
43012

> <i_f3d_flags>
0

> <s_epik_input>
W0NIM11bQ0hdMVtDSDJdW0NIMl1OKFtDSDJdW0NIMl0xKVMoPU8pKD1PKVtOSF1bQ0BIXShbQ0gzXSlbQ0gyXW4yW2NIXVtjSF1bY0hdbjI=

> <s_epik_cmdline>
J2VwaWtfcHl0aG9uJywgJy1waCcsICc3LjAnLCAnLXRuJywgJzgnLCAnLW1hJywgJzIwMCcsICctbWV0YWxfYmluZGluZycsICctaW1hZScsICc8aW5maWxlLm1hZT4nLCAnLW9tYWUnLCAnPG91dGZpbGUubWFlPic=

> <r_lp_tautomer_probability>
1

> <r_epik_Ionization_Penalty>
1.75622

> <r_epik_Ionization_Penalty_Charging>
1.7562

> <r_epik_Ionization_Penalty_Neutral>
2.39925e-05

> <r_epik_State_Penalty>
1.86645

> <r_epik_Charging_Adjusted_Penalty>
3.62264

> <i_epik_Tot_Q>
-1

> <i_epik_Tot_abs_Q>
1

> <r_epik_Metal_State_Penalty>
0.460135

> <b_epik_Metal_Only>
0

> <s_lp_Force_Field>
OPLS_2005

> <r_lp_Energy>
3.33366

> <b_lp_Chiralities_Consistent>
1

> <s_lp_Variant>
AV-unprocessed.smi:2010-4

> <Gold.Version>
5.8.1

> <Gold.Id.Protein>
6NUR|6NUR_protein|mol2

> <Gold.PLP.Fitness>
49.8216

> <Gold.PLP.PLP>
-43.5590

> <Gold.PLP.part.hbond>
-2.0000

> <Gold.PLP.part.metal>
0.0000

> <Gold.PLP.part.buried>
-3.4692

> <Gold.PLP.part.nonpolar>
-36.9541

> <Gold.PLP.part.repulsive>
0.0000

> <Gold.PLP.ligand.clash>
0.0000

> <Gold.PLP.ligand.torsion>
2.6998

> <Gold.PLP.Chemscore.Hbond>
2.8480

> <Gold.PLP.Chemscore.CHOScore>
0.0000

> <Gold.PLP.Chemscore.Metal>
0.0000

> <Gold.Chemscore.Hbonds>
donor molecule, donor type, donor heavy atom, donor atom, acceptor molecule, acceptor atom, score
      P1  H  7997  8009       L1     9  1.72
      P1  H 10752 10764       L1     8  0.81

> <Gold.PLP.Chemscore.Internal.Correction>
3.1181

> <Gold.Rescore>
     Score         DG    S(hbond)    S(metal)    S(lipo)     H(rot)  DE(clash)    DE(int)     intcor
     16.53     -19.45       1.76        0.00      99.06       1.37       0.09       2.83       ----

> <Gold.Chemscore.Fitness>
16.5275

> <Gold.Chemscore.DG>
-19.4516

> <Gold.Chemscore.ZeroCoef>
-5.4800

> <Gold.Chemscore.Hbond>
1.7594

> <Gold.Chemscore.Metal>
0.0000

> <Gold.Chemscore.Lipo>
99.0608

> <Gold.Chemscore.Internal_Hbond>
0.0000

> <Gold.Chemscore.DEClash>
0.0947

> <Gold.Chemscore.DEInternal>
2.8293

> <Gold.Chemscore.Rot>
1.3652

> <Gold.Chemscore.Internal.Correction>
   9.000000E+99

> <Gold.Chemscore.Hbonds>
donor molecule, donor type, donor heavy atom, donor atom, acceptor molecule, acceptor atom, score
      P1  H  7997  8009       L1     9  0.73
      P1  H 10752 10764       L1     8  0.76

> <Gold.Chemscore.Hbond.Weighted>
-5.8763

> <Gold.Chemscore.Metal.Weighted>
-0.0000

> <Gold.Chemscore.Lipo.Weighted>
-11.5901

> <Gold.Chemscore.Internal_Hbond.Weighted>
0.0000

> <Gold.Chemscore.DEClash.Weighted>
0.0947

> <Gold.Chemscore.DEInternal.Weighted>
2.8293

> <Gold.Chemscore.Rot.Weighted>
3.4948

> <Gold.Chemscore.Internal.Correction.Weighted>
   9.000000E+99

> <Gold.Protein.RotatedTorsions>
[ 6907 6896 6895 6894 ] final  -72.51 input  -60.11 | X-H torsion
[ 7974 7965 7964 7962 ] final  177.77 input  175.53 | X-H torsion
[ 8008 7997 7996 7995 ] final  130.37 input   59.86 | X-H torsion
[ 10167 10162 10161 10158 ] final  108.12 input  -65.29 | X-H torsion
[ 10718 10713 10712 10709 ] final   17.84 input   66.30 | X-H torsion
[ 10763 10752 10751 10750 ] final   16.44 input  -60.55 | X-H torsion
[ 11005 11000 10999 10996 ] final -160.92 input  -57.11 | X-H torsion

> <Gold.Protein.ActiveResidues>
 VAL166  LYS551  ARG553  GLY616  TRP617  ASP618  TYR619  PRO620  LYS621  CYS622 
 ASP623  PHE694  ASN695  SER759  ASP760  ASP761  ALA762  ILE779  LEU786  VAL792 
 PHE793  MET794  SER795  GLU796  ALA797  LYS798  CYS799  TRP800  GLU811  SER814 

> <Gold.Protein.RotatedAtoms>
  150.7167  134.5152  159.5626 H   0  0  0  0  0  0  0  0  0  0  0  0  # atno 6907 bound_to 6896
  152.2720  134.7920  160.0421 H   0  0  0  0  0  0  0  0  0  0  0  0  # atno 6908 bound_to 6896
  151.8596  133.3419  159.3736 H   0  0  0  0  0  0  0  0  0  0  0  0  # atno 6909 bound_to 6896
  144.7164  140.0297  143.6439 H   0  0  0  0  0  0  0  0  0  0  0  0  # atno 7974 bound_to 7965
  156.2953  140.2597  156.2751 H   0  0  0  0  0  0  0  0  0  0  0  0  # atno 8008 bound_to 7997
  154.9657  140.0392  157.2229 H   0  0  0  0  0  0  0  0  0  0  0  0  # atno 8009 bound_to 7997
  154.7905  140.2811  155.6000 H   0  0  0  0  0  0  0  0  0  0  0  0  # atno 8010 bound_to 7997
  139.6872  144.7112  151.1412 H   0  0  0  0  0  0  0  0  0  0  0  0  # atno 10167 bound_to 10162
  157.0878  130.6415  149.5841 H   0  0  0  0  0  0  0  0  0  0  0  0  # atno 10718 bound_to 10713
  153.1430  135.6764  153.8997 H   0  0  0  0  0  0  0  0  0  0  0  0  # atno 10763 bound_to 10752
  153.8448  135.3100  155.3430 H   0  0  0  0  0  0  0  0  0  0  0  0  # atno 10764 bound_to 10752
  154.7803  135.4892  153.9914 H   0  0  0  0  0  0  0  0  0  0  0  0  # atno 10765 bound_to 10752
  140.6261  134.4699  157.5227 H   0  0  0  0  0  0  0  0  0  0  0  0  # atno 11005 bound_to 11000
  146.0113  139.3172  143.0869 LP  0  0  0  0  0  0  0  0  0  0  0  0  # atno 17320 bound_to 7965
  145.8678  140.9437  143.0666 LP  0  0  0  0  0  0  0  0  0  0  0  0  # atno 17321 bound_to 7965
  140.7671  143.5612  150.9096 LP  0  0  0  0  0  0  0  0  0  0  0  0  # atno 17342 bound_to 10162
  139.9288  143.6518  152.3081 LP  0  0  0  0  0  0  0  0  0  0  0  0  # atno 17343 bound_to 10162
  155.9906  130.4958  150.7263 LP  0  0  0  0  0  0  0  0  0  0  0  0  # atno 17370 bound_to 10713
  157.4746  131.0896  151.0604 LP  0  0  0  0  0  0  0  0  0  0  0  0  # atno 17371 bound_to 10713
  139.9134  134.8297  156.1449 LP  0  0  0  0  0  0  0  0  0  0  0  0  # atno 17394 bound_to 11000
  141.0708  133.6798  156.2136 LP  0  0  0  0  0  0  0  0  0  0  0  0  # atno 17395 bound_to 11000

$$$$
