AV-unprocessed.smi:2270|AV-procd|sdf|9156|dock4
  -GOLD-   2272012363D 1   1.00000     0.00000
 Structure written by MMmdl.
 53 54  0  0  0  0  0  0  0  0  2 V2000
  153.2504  141.6788  160.4184 C   0  0  0  0  0  0  0  0  0  0  0  0
  152.6998  142.5777  159.3312 C   0  0  0  0  0  0  0  0  0  0  0  0
  153.0616  143.9374  159.2635 C   0  0  0  0  0  0  0  0  0  0  0  0
  152.5190  144.7169  158.2263 C   0  0  0  0  0  0  0  0  0  0  0  0
  151.6447  144.1087  157.3049 C   0  0  0  0  0  0  0  0  0  0  0  0
  151.3342  142.7371  157.4433 C   0  0  0  0  0  0  0  0  0  0  0  0
  150.4456  142.2191  156.4641 N   0  0  0  0  0  0  0  0  0  0  0  0
  150.2869  140.9399  156.0815 C   0  0  0  0  0  0  0  0  0  0  0  0
  150.9073  139.9763  156.5313 O   0  0  0  0  0  0  0  0  0  0  0  0
  149.3384  140.8288  155.1404 N   0  0  0  0  0  0  0  0  0  0  0  0
  148.9374  139.5777  154.5036 C   0  0  0  0  0  0  0  0  0  0  0  0
  147.7905  139.7248  153.4579 C   0  0  2  0  0  0  0  0  0  0  0  0
  146.6210  140.6119  153.9751 C   0  0  0  0  0  0  0  0  0  0  0  0
  146.9465  142.1153  153.8666 C   0  0  0  0  0  0  0  0  0  0  0  0
  146.2234  140.2950  155.4297 C   0  0  0  0  0  0  0  0  0  0  0  0
  147.2506  138.4220  152.9560 N   0  3  0  0  0  0  0  0  0  0  0  0
  146.4968  138.4657  151.6775 C   0  0  0  0  0  0  0  0  0  0  0  0
  146.2501  137.0333  151.1601 C   0  0  0  0  0  0  0  0  0  0  0  0
  145.5505  136.2027  152.1435 N   0  0  0  0  0  0  0  0  0  0  0  0
  144.1499  136.5734  152.3164 C   0  0  0  0  0  0  0  0  0  0  0  0
  146.2980  136.1773  153.4028 C   0  0  0  0  0  0  0  0  0  0  0  0
  146.5413  137.5940  153.9627 C   0  0  0  0  0  0  0  0  0  0  0  0
  151.8608  141.9942  158.4482 N   0  0  0  0  0  0  0  0  0  0  0  0
  153.7326  142.2606  161.2043 H   0  0  0  0  0  0  0  0  0  0  0  0
  153.9866  140.9915  160.0012 H   0  0  0  0  0  0  0  0  0  0  0  0
  152.4514  141.0926  160.8736 H   0  0  0  0  0  0  0  0  0  0  0  0
  153.7372  144.3735  159.9847 H   0  0  0  0  0  0  0  0  0  0  0  0
  152.7694  145.7638  158.1374 H   0  0  0  0  0  0  0  0  0  0  0  0
  151.2209  144.6938  156.5016 H   0  0  0  0  0  0  0  0  0  0  0  0
  149.8637  142.9031  156.0039 H   0  0  0  0  0  0  0  0  0  0  0  0
  148.8798  141.6708  154.8238 H   0  0  0  0  0  0  0  0  0  0  0  0
  149.8197  139.1355  154.0405 H   0  0  0  0  0  0  0  0  0  0  0  0
  148.6466  138.8903  155.2978 H   0  0  0  0  0  0  0  0  0  0  0  0
  148.2043  140.2536  152.5979 H   0  0  0  0  0  0  0  0  0  0  0  0
  145.7436  140.4235  153.3555 H   0  0  0  0  0  0  0  0  0  0  0  0
  147.8431  142.3682  154.4336 H   0  0  0  0  0  0  0  0  0  0  0  0
  146.1285  142.7231  154.2549 H   0  0  0  0  0  0  0  0  0  0  0  0
  147.1051  142.4276  152.8343 H   0  0  0  0  0  0  0  0  0  0  0  0
  147.0811  140.3622  156.0999 H   0  0  0  0  0  0  0  0  0  0  0  0
  145.7935  139.2990  155.5293 H   0  0  0  0  0  0  0  0  0  0  0  0
  145.4680  140.9932  155.7919 H   0  0  0  0  0  0  0  0  0  0  0  0
  145.5507  138.9921  151.7994 H   0  0  0  0  0  0  0  0  0  0  0  0
  147.0692  139.0193  150.9332 H   0  0  0  0  0  0  0  0  0  0  0  0
  145.6822  137.0571  150.2295 H   0  0  0  0  0  0  0  0  0  0  0  0
  147.2057  136.5618  150.9263 H   0  0  0  0  0  0  0  0  0  0  0  0
  143.6603  135.8838  153.0047 H   0  0  0  0  0  0  0  0  0  0  0  0
  143.6243  136.5158  151.3628 H   0  0  0  0  0  0  0  0  0  0  0  0
  144.0272  137.5825  152.7079 H   0  0  0  0  0  0  0  0  0  0  0  0
  145.7679  135.5645  154.1330 H   0  0  0  0  0  0  0  0  0  0  0  0
  147.2563  135.6869  153.2260 H   0  0  0  0  0  0  0  0  0  0  0  0
  147.1467  137.5170  154.8663 H   0  0  0  0  0  0  0  0  0  0  0  0
  145.5991  138.0522  154.2562 H   0  0  0  0  0  0  0  0  0  0  0  0
  148.0803  137.8847  152.7491 H   0  0  0  0  0  0  0  0  0  0  0  0
  1  2  1  0  0  0  0
  1 24  1  0  0  0  0
  1 25  1  0  0  0  0
  1 26  1  0  0  0  0
  2 23  1  0  0  0  0
  2  3  2  0  0  0  0
  3  4  1  0  0  0  0
  3 27  1  0  0  0  0
  4  5  2  0  0  0  0
  4 28  1  0  0  0  0
  5  6  1  0  0  0  0
  5 29  1  0  0  0  0
  6  7  1  0  0  0  0
  6 23  2  0  0  0  0
  7  8  1  0  0  0  0
  7 30  1  0  0  0  0
  8  9  2  0  0  0  0
  8 10  1  0  0  0  0
 10 11  1  0  0  0  0
 10 31  1  0  0  0  0
 11 12  1  0  0  0  0
 11 32  1  0  0  0  0
 11 33  1  0  0  0  0
 12 13  1  0  0  0  0
 12 16  1  0  0  0  0
 12 34  1  0  0  0  0
 13 14  1  0  0  0  0
 13 15  1  0  0  0  0
 13 35  1  0  0  0  0
 14 36  1  0  0  0  0
 14 37  1  0  0  0  0
 14 38  1  0  0  0  0
 15 39  1  0  0  0  0
 15 40  1  0  0  0  0
 15 41  1  0  0  0  0
 16 22  1  0  0  0  0
 16 17  1  0  0  0  0
 16 53  1  0  0  0  0
 17 18  1  0  0  0  0
 17 42  1  0  0  0  0
 17 43  1  0  0  0  0
 18 19  1  0  0  0  0
 18 44  1  0  0  0  0
 18 45  1  0  0  0  0
 19 20  1  0  0  0  0
 19 21  1  0  0  0  0
 20 46  1  0  0  0  0
 20 47  1  0  0  0  0
 20 48  1  0  0  0  0
 21 22  1  0  0  0  0
 21 49  1  0  0  0  0
 21 50  1  0  0  0  0
 22 51  1  0  0  0  0
 22 52  1  0  0  0  0
M  CHG  1  16   1
M  END
> <s_m_source_file>
AV-unprocessed.smi

> <i_m_source_file_index>
2270

> <i_lp_mmshare_version>
43012

> <i_f3d_flags>
0

> <s_epik_input>
W0NIM11jMVtjSF1bY0hdW2NIXWMobjEpW05IXUMoPU8pW05IXVtDSDJdW0NASF0oW0NIXShbQ0gzXSlbQ0gzXSlOMltDSDJdW0NIMl1OKFtDSDNdKVtDSDJdW0NIMl0y

> <s_epik_cmdline>
J2VwaWtfcHl0aG9uJywgJy1waCcsICc3LjAnLCAnLXRuJywgJzgnLCAnLW1hJywgJzIwMCcsICctbWV0YWxfYmluZGluZycsICctaW1hZScsICc8aW5maWxlLm1hZT4nLCAnLW9tYWUnLCAnPG91dGZpbGUubWFlPic=

> <r_epik_Ionization_Penalty>
0.201855

> <r_epik_Ionization_Penalty_Charging>
0.20006

> <r_epik_Ionization_Penalty_Neutral>
0.00179462

> <r_epik_State_Penalty>
1.43207

> <r_epik_Charging_Adjusted_Penalty>
1.63213

> <i_epik_Tot_Q>
1

> <i_epik_Tot_abs_Q>
1

> <r_epik_Metal_State_Penalty>
1.43208

> <b_epik_Metal_Only>
0

> <s_lp_Force_Field>
OPLS_2005

> <r_lp_Energy>
33.4642

> <b_lp_Chiralities_Consistent>
1

> <s_lp_Variant>
AV-unprocessed.smi:2270-3

> <Gold.Version>
5.8.1

> <Gold.Id.Protein>
6NUR|6NUR_protein|mol2

> <Gold.PLP.Fitness>
49.3435

> <Gold.PLP.PLP>
-42.3077

> <Gold.PLP.part.hbond>
-1.9252

> <Gold.PLP.part.metal>
0.0000

> <Gold.PLP.part.buried>
1.5084

> <Gold.PLP.part.nonpolar>
-42.6519

> <Gold.PLP.part.repulsive>
0.4111

> <Gold.PLP.ligand.clash>
0.0030

> <Gold.PLP.ligand.torsion>
0.7466

> <Gold.PLP.Chemscore.Hbond>
2.7312

> <Gold.PLP.Chemscore.CHOScore>
0.0000

> <Gold.PLP.Chemscore.Metal>
0.0000

> <Gold.Chemscore.Hbonds>
donor molecule, donor type, donor heavy atom, donor atom, acceptor molecule, acceptor atom, score
      L1  H     7    30       P1  8028  0.84
      L1  H    16    53       P1  7948  1.87

> <Gold.PLP.Chemscore.Internal.Correction>
0.3385

> <Gold.Rescore>
     Score         DG    S(hbond)    S(metal)    S(lipo)     H(rot)  DE(clash)    DE(int)     intcor
     17.73     -20.65       1.72        0.00     115.78       1.61       0.85       2.08       ----

> <Gold.Chemscore.Fitness>
17.7257

> <Gold.Chemscore.DG>
-20.6494

> <Gold.Chemscore.ZeroCoef>
-5.4800

> <Gold.Chemscore.Hbond>
1.7177

> <Gold.Chemscore.Metal>
0.0000

> <Gold.Chemscore.Lipo>
115.7796

> <Gold.Chemscore.Internal_Hbond>
0.0000

> <Gold.Chemscore.DEClash>
0.8475

> <Gold.Chemscore.DEInternal>
2.0763

> <Gold.Chemscore.Rot>
1.6070

> <Gold.Chemscore.Internal.Correction>
   9.000000E+99

> <Gold.Chemscore.Hbonds>
donor molecule, donor type, donor heavy atom, donor atom, acceptor molecule, acceptor atom, score
      L1  H     7    30       P1  8028  0.82
      L1  H    16    53       P1  7948  0.85

> <Gold.Chemscore.Hbond.Weighted>
-5.7372

> <Gold.Chemscore.Metal.Weighted>
-0.0000

> <Gold.Chemscore.Lipo.Weighted>
-13.5462

> <Gold.Chemscore.Internal_Hbond.Weighted>
0.0000

> <Gold.Chemscore.DEClash.Weighted>
0.8475

> <Gold.Chemscore.DEInternal.Weighted>
2.0763

> <Gold.Chemscore.Rot.Weighted>
4.1140

> <Gold.Chemscore.Internal.Correction.Weighted>
   9.000000E+99

> <Gold.Protein.RotatedTorsions>
[ 6907 6896 6895 6894 ] final -124.59 input  -60.11 | X-H torsion
[ 7974 7965 7964 7962 ] final  -87.22 input  175.53 | X-H torsion
[ 8008 7997 7996 7995 ] final   26.13 input   59.86 | X-H torsion
[ 10167 10162 10161 10158 ] final -157.74 input  -65.29 | X-H torsion
[ 10718 10713 10712 10709 ] final   43.81 input   66.30 | X-H torsion
[ 10763 10752 10751 10750 ] final   17.82 input  -60.55 | X-H torsion
[ 11005 11000 10999 10996 ] final  -45.51 input  -57.11 | X-H torsion

> <Gold.Protein.ActiveResidues>
 VAL166  LYS551  ARG553  GLY616  TRP617  ASP618  TYR619  PRO620  LYS621  CYS622 
 ASP623  PHE694  ASN695  SER759  ASP760  ASP761  ALA762  ILE779  LEU786  VAL792 
 PHE793  MET794  SER795  GLU796  ALA797  LYS798  CYS799  TRP800  GLU811  SER814 

> <Gold.Protein.RotatedAtoms>
  150.8783  133.7407  159.2939 H   0  0  0  0  0  0  0  0  0  0  0  0  # atno 6907 bound_to 6896
  151.4997  135.1060  159.9835 H   0  0  0  0  0  0  0  0  0  0  0  0  # atno 6908 bound_to 6896
  152.4743  133.8055  159.7031 H   0  0  0  0  0  0  0  0  0  0  0  0  # atno 6909 bound_to 6896
  145.4694  140.9560  143.1925 H   0  0  0  0  0  0  0  0  0  0  0  0  # atno 7974 bound_to 7965
  155.0224  140.3149  155.4788 H   0  0  0  0  0  0  0  0  0  0  0  0  # atno 8008 bound_to 7997
  156.2889  140.2195  156.5285 H   0  0  0  0  0  0  0  0  0  0  0  0  # atno 8009 bound_to 7997
  154.7440  140.0471  157.0824 H   0  0  0  0  0  0  0  0  0  0  0  0  # atno 8010 bound_to 7997
  139.6747  143.9685  152.2303 H   0  0  0  0  0  0  0  0  0  0  0  0  # atno 10167 bound_to 10162
  157.4200  130.7963  149.7506 H   0  0  0  0  0  0  0  0  0  0  0  0  # atno 10718 bound_to 10713
  153.1305  135.6739  153.9187 H   0  0  0  0  0  0  0  0  0  0  0  0  # atno 10763 bound_to 10752
  153.8675  135.3074  155.3442 H   0  0  0  0  0  0  0  0  0  0  0  0  # atno 10764 bound_to 10752
  154.7703  135.4943  153.9716 H   0  0  0  0  0  0  0  0  0  0  0  0  # atno 10765 bound_to 10752
  141.0520  133.6739  156.3023 H   0  0  0  0  0  0  0  0  0  0  0  0  # atno 11005 bound_to 11000
  144.7954  139.6245  143.7095 LP  0  0  0  0  0  0  0  0  0  0  0  0  # atno 17320 bound_to 7965
  146.2405  139.5992  142.9494 LP  0  0  0  0  0  0  0  0  0  0  0  0  # atno 17321 bound_to 7965
  139.9458  144.6652  150.8220 LP  0  0  0  0  0  0  0  0  0  0  0  0  # atno 17342 bound_to 10162
  140.7631  143.3214  151.2613 LP  0  0  0  0  0  0  0  0  0  0  0  0  # atno 17343 bound_to 10162
  155.9877  130.3964  150.3151 LP  0  0  0  0  0  0  0  0  0  0  0  0  # atno 17370 bound_to 10713
  157.1298  131.0269  151.2974 LP  0  0  0  0  0  0  0  0  0  0  0  0  # atno 17371 bound_to 10713
  140.6037  134.5529  157.5522 LP  0  0  0  0  0  0  0  0  0  0  0  0  # atno 17394 bound_to 11000
  139.9358  134.7878  156.0806 LP  0  0  0  0  0  0  0  0  0  0  0  0  # atno 17395 bound_to 11000

$$$$
