AV-unprocessed.smi:3019|AV-procd|sdf|11486|dock4
  -GOLD-   2272016423D 1   1.00000     0.00000
 Structure written by MMmdl.
 31 32  0  0  0  0  0  0  0  0  2 V2000
  151.8573  144.3443  157.6932 C   0  0  0  0  0  0  0  0  0  0  0  0
  151.5449  142.9639  158.2891 C   0  0  0  0  0  0  0  0  0  0  0  0
  152.6778  142.4577  159.1940 C   0  0  0  0  0  0  0  0  0  0  0  0
  151.1981  141.9671  157.2254 C   0  0  0  0  0  0  0  0  0  0  0  0
  151.8235  140.7924  157.1181 N   0  0  0  0  0  0  0  0  0  0  0  0
  151.3033  140.1000  156.0828 N   0  0  0  0  0  0  0  0  0  0  0  0
  150.3845  140.9446  155.6168 C   0  0  0  0  0  0  0  0  0  0  0  0
  149.5076  140.5652  154.4645 C   0  0  1  0  0  0  0  0  0  0  0  0
  149.5442  139.0517  154.1808 C   0  0  0  0  0  0  0  0  0  0  0  0
  148.5863  138.7183  153.1088 N   0  3  0  0  0  0  0  0  0  0  0  0
  147.2270  139.1961  153.4312 C   0  0  0  0  0  0  0  0  0  0  0  0
  147.2551  140.7015  153.7510 C   0  0  0  0  0  0  0  0  0  0  0  0
  148.1782  140.9536  154.8052 O   0  0  0  0  0  0  0  0  0  0  0  0
  150.2557  142.1230  156.3003 N   0  0  0  0  0  0  0  0  0  0  0  0
  151.0173  144.7172  157.1065 H   0  0  0  0  0  0  0  0  0  0  0  0
  152.7292  144.3076  157.0393 H   0  0  0  0  0  0  0  0  0  0  0  0
  152.0613  145.0736  158.4777 H   0  0  0  0  0  0  0  0  0  0  0  0
  150.6632  143.0823  158.9208 H   0  0  0  0  0  0  0  0  0  0  0  0
  152.4135  141.5073  159.6584 H   0  0  0  0  0  0  0  0  0  0  0  0
  152.8887  143.1679  159.9941 H   0  0  0  0  0  0  0  0  0  0  0  0
  153.6000  142.3089  158.6315 H   0  0  0  0  0  0  0  0  0  0  0  0
  149.8286  141.1217  153.5814 H   0  0  0  0  0  0  0  0  0  0  0  0
  150.5449  138.7381  153.8822 H   0  0  0  0  0  0  0  0  0  0  0  0
  149.2839  138.4889  155.0785 H   0  0  0  0  0  0  0  0  0  0  0  0
  148.8907  139.1613  152.2534 H   0  0  0  0  0  0  0  0  0  0  0  0
  146.5632  138.9943  152.5902 H   0  0  0  0  0  0  0  0  0  0  0  0
  146.8438  138.6368  154.2860 H   0  0  0  0  0  0  0  0  0  0  0  0
  147.5274  141.2820  152.8681 H   0  0  0  0  0  0  0  0  0  0  0  0
  146.2655  141.0389  154.0599 H   0  0  0  0  0  0  0  0  0  0  0  0
  148.5681  137.7174  152.9731 H   0  0  0  0  0  0  0  0  0  0  0  0
  152.5667  140.4369  157.7029 H   0  0  0  0  0  0  0  0  0  0  0  0
  1  2  1  0  0  0  0
  1 15  1  0  0  0  0
  1 16  1  0  0  0  0
  1 17  1  0  0  0  0
  2  3  1  0  0  0  0
  2  4  1  0  0  0  0
  2 18  1  0  0  0  0
  3 19  1  0  0  0  0
  3 20  1  0  0  0  0
  3 21  1  0  0  0  0
  4 14  2  0  0  0  0
  4  5  1  0  0  0  0
  5  6  1  0  0  0  0
  5 31  1  0  0  0  0
  6  7  2  0  0  0  0
  7  8  1  0  0  0  0
  7 14  1  0  0  0  0
  8 13  1  0  0  0  0
  8  9  1  0  0  0  0
  8 22  1  0  0  0  0
  9 10  1  0  0  0  0
  9 23  1  0  0  0  0
  9 24  1  0  0  0  0
 10 11  1  0  0  0  0
 10 25  1  0  0  0  0
 10 30  1  0  0  0  0
 11 12  1  0  0  0  0
 11 26  1  0  0  0  0
 11 27  1  0  0  0  0
 12 13  1  0  0  0  0
 12 28  1  0  0  0  0
 12 29  1  0  0  0  0
M  CHG  1  10   1
M  END
> <s_m_source_file>
AV-unprocessed.smi

> <i_m_source_file_index>
3019

> <i_lp_mmshare_version>
43012

> <i_f3d_flags>
0

> <s_epik_input>
W0NIM11bQ0hdKFtDSDNdKWMxbltuSF1jKG4xKVtDQEBIXTJbQ0gyXVtOSF1bQ0gyXVtDSDJdTzI=

> <s_epik_cmdline>
J2VwaWtfcHl0aG9uJywgJy1waCcsICc3LjAnLCAnLXRuJywgJzgnLCAnLW1hJywgJzIwMCcsICctbWV0YWxfYmluZGluZycsICctaW1hZScsICc8aW5maWxlLm1hZT4nLCAnLW9tYWUnLCAnPG91dGZpbGUubWFlPic=

> <r_lp_tautomer_probability>
0.948284

> <r_epik_Ionization_Penalty>
0.108767

> <r_epik_Ionization_Penalty_Charging>
0.100865

> <r_epik_Ionization_Penalty_Neutral>
0.00790271

> <r_epik_State_Penalty>
0.197684

> <r_epik_Charging_Adjusted_Penalty>
0.298549

> <i_epik_Tot_Q>
1

> <i_epik_Tot_abs_Q>
1

> <r_epik_Metal_State_Penalty>
0.508163

> <b_epik_Metal_Only>
0

> <s_lp_Force_Field>
OPLS_2005

> <r_lp_Energy>
9.87309

> <b_lp_Chiralities_Consistent>
1

> <s_lp_Variant>
AV-unprocessed.smi:3019-2

> <Gold.Version>
5.8.1

> <Gold.Id.Protein>
6NUR|6NUR_protein|mol2

> <Gold.PLP.Fitness>
35.9010

> <Gold.PLP.PLP>
-27.9623

> <Gold.PLP.part.hbond>
-1.9845

> <Gold.PLP.part.metal>
0.0000

> <Gold.PLP.part.buried>
-2.8484

> <Gold.PLP.part.nonpolar>
-23.9173

> <Gold.PLP.part.repulsive>
1.2811

> <Gold.PLP.ligand.clash>
0.0000

> <Gold.PLP.ligand.torsion>
0.4863

> <Gold.PLP.Chemscore.Hbond>
2.9520

> <Gold.PLP.Chemscore.CHOScore>
0.0000

> <Gold.PLP.Chemscore.Metal>
0.0000

> <Gold.Chemscore.Hbonds>
donor molecule, donor type, donor heavy atom, donor atom, acceptor molecule, acceptor atom, score
      L1  H    10    25       P1  7957  1.00
      L1  H    10    30       P1  7948  1.89

> <Gold.PLP.Chemscore.Internal.Correction>
0.0552

> <Gold.Rescore>
     Score         DG    S(hbond)    S(metal)    S(lipo)     H(rot)  DE(clash)    DE(int)     intcor
     15.28     -15.80       1.88        0.00      62.67       1.28       0.01       0.51       ----

> <Gold.Chemscore.Fitness>
15.2784

> <Gold.Chemscore.DG>
-15.8038

> <Gold.Chemscore.ZeroCoef>
-5.4800

> <Gold.Chemscore.Hbond>
1.8764

> <Gold.Chemscore.Metal>
0.0000

> <Gold.Chemscore.Lipo>
62.6683

> <Gold.Chemscore.Internal_Hbond>
0.0000

> <Gold.Chemscore.DEClash>
0.0129

> <Gold.Chemscore.DEInternal>
0.5125

> <Gold.Chemscore.Rot>
1.2795

> <Gold.Chemscore.Internal.Correction>
   9.000000E+99

> <Gold.Chemscore.Hbonds>
donor molecule, donor type, donor heavy atom, donor atom, acceptor molecule, acceptor atom, score
      L1  H    10    25       P1  7957  0.96
      L1  H    10    30       P1  7948  0.91

> <Gold.Chemscore.Hbond.Weighted>
-6.2671

> <Gold.Chemscore.Metal.Weighted>
-0.0000

> <Gold.Chemscore.Lipo.Weighted>
-7.3322

> <Gold.Chemscore.Internal_Hbond.Weighted>
0.0000

> <Gold.Chemscore.DEClash.Weighted>
0.0129

> <Gold.Chemscore.DEInternal.Weighted>
0.5125

> <Gold.Chemscore.Rot.Weighted>
3.2754

> <Gold.Chemscore.Internal.Correction.Weighted>
   9.000000E+99

> <Gold.Protein.RotatedTorsions>
[ 6907 6896 6895 6894 ] final  -22.79 input  -60.11 | X-H torsion
[ 7974 7965 7964 7962 ] final   83.25 input  175.53 | X-H torsion
[ 8008 7997 7996 7995 ] final -175.45 input   59.86 | X-H torsion
[ 10167 10162 10161 10158 ] final  122.21 input  -65.29 | X-H torsion
[ 10718 10713 10712 10709 ] final -173.28 input   66.30 | X-H torsion
[ 10763 10752 10751 10750 ] final  176.54 input  -60.55 | X-H torsion
[ 11005 11000 10999 10996 ] final   55.08 input  -57.11 | X-H torsion

> <Gold.Protein.ActiveResidues>
 VAL166  LYS551  ARG553  GLY616  TRP617  ASP618  TYR619  PRO620  LYS621  CYS622 
 ASP623  PHE694  ASN695  SER759  ASP760  ASP761  ALA762  ILE779  LEU786  VAL792 
 PHE793  MET794  SER795  GLU796  ALA797  LYS798  CYS799  TRP800  GLU811  SER814 

> <Gold.Protein.RotatedAtoms>
  151.2134  135.0490  159.8920 H   0  0  0  0  0  0  0  0  0  0  0  0  # atno 6907 bound_to 6896
  152.5422  134.0720  159.8208 H   0  0  0  0  0  0  0  0  0  0  0  0  # atno 6908 bound_to 6896
  151.0876  133.5293  159.2648 H   0  0  0  0  0  0  0  0  0  0  0  0  # atno 6909 bound_to 6896
  145.6143  139.2374  143.2174 H   0  0  0  0  0  0  0  0  0  0  0  0  # atno 7974 bound_to 7965
  155.9827  140.1185  157.0711 H   0  0  0  0  0  0  0  0  0  0  0  0  # atno 8008 bound_to 7997
  154.4187  140.1141  156.5525 H   0  0  0  0  0  0  0  0  0  0  0  0  # atno 8009 bound_to 7997
  155.6449  140.3473  155.4730 H   0  0  0  0  0  0  0  0  0  0  0  0  # atno 8010 bound_to 7997
  139.5872  144.7011  151.3379 H   0  0  0  0  0  0  0  0  0  0  0  0  # atno 10167 bound_to 10162
  156.7680  130.9438  151.3119 H   0  0  0  0  0  0  0  0  0  0  0  0  # atno 10718 bound_to 10713
  154.4825  135.2775  155.1559 H   0  0  0  0  0  0  0  0  0  0  0  0  # atno 10763 bound_to 10752
  154.3264  135.6199  153.5534 H   0  0  0  0  0  0  0  0  0  0  0  0  # atno 10764 bound_to 10752
  152.9877  135.5755  154.5229 H   0  0  0  0  0  0  0  0  0  0  0  0  # atno 10765 bound_to 10752
  140.0636  134.5568  155.9125 H   0  0  0  0  0  0  0  0  0  0  0  0  # atno 11005 bound_to 11000
  146.1480  140.6965  142.9335 LP  0  0  0  0  0  0  0  0  0  0  0  0  # atno 17320 bound_to 7965
  144.7257  140.4516  143.6975 LP  0  0  0  0  0  0  0  0  0  0  0  0  # atno 17321 bound_to 7965
  140.7142  143.7311  150.7623 LP  0  0  0  0  0  0  0  0  0  0  0  0  # atno 17342 bound_to 10162
  140.0858  143.4925  152.2505 LP  0  0  0  0  0  0  0  0  0  0  0  0  # atno 17343 bound_to 10162
  157.6704  130.9046  150.0028 LP  0  0  0  0  0  0  0  0  0  0  0  0  # atno 17370 bound_to 10713
  156.1296  130.3643  149.9753 LP  0  0  0  0  0  0  0  0  0  0  0  0  # atno 17371 bound_to 10713
  141.1983  133.6601  156.5786 LP  0  0  0  0  0  0  0  0  0  0  0  0  # atno 17394 bound_to 11000
  140.3733  134.7586  157.4613 LP  0  0  0  0  0  0  0  0  0  0  0  0  # atno 17395 bound_to 11000

$$$$
