AV-unprocessed.smi:1692|AV-procd|sdf|6778|dock7
  -GOLD-   22720 7533D 1   1.00000     0.00000
 Structure written by MMmdl.
 46 47  0  0  0  0  0  0  0  0  2 V2000
  150.1999  134.8867  154.6258 C   0  0  0  0  0  0  0  0  0  0  0  0
  150.1173  136.0819  155.5923 C   0  0  2  0  0  0  0  0  0  0  0  0
  148.9346  137.0266  155.3032 C   0  0  0  0  0  0  0  0  0  0  0  0
  149.1818  137.8410  154.0896 N   0  3  1  0  0  0  0  0  0  0  0  0
  148.0305  138.7154  153.7537 C   0  0  0  0  0  0  0  0  0  0  0  0
  147.9853  139.9909  154.6174 C   0  0  0  0  0  0  0  0  0  0  0  0
  148.8019  141.1655  154.0465 C   0  0  0  0  0  0  0  0  0  0  0  0
  149.2830  142.0769  155.0818 N   0  0  0  0  0  0  0  0  0  0  0  0
  150.1271  141.7508  156.0721 C   0  0  0  0  0  0  0  0  0  0  0  0
  150.5691  140.6133  156.2368 O   0  0  0  0  0  0  0  0  0  0  0  0
  150.4106  142.8150  156.8437 N   0  0  0  0  0  0  0  0  0  0  0  0
  151.2456  142.8673  157.9921 C   0  0  0  0  0  0  0  0  0  0  0  0
  151.5290  144.1675  158.4679 C   0  0  0  0  0  0  0  0  0  0  0  0
  152.3488  144.3271  159.6019 C   0  0  0  0  0  0  0  0  0  0  0  0
  152.8636  143.1806  160.2327 C   0  0  0  0  0  0  0  0  0  0  0  0
  152.5311  141.9229  159.6966 C   0  0  0  0  0  0  0  0  0  0  0  0
  151.7452  141.7678  158.6101 N   0  0  0  0  0  0  0  0  0  0  0  0
  150.4650  138.5732  154.2163 C   0  0  0  0  0  0  0  0  0  0  0  0
  151.6212  137.5915  154.4794 C   0  0  1  0  0  0  0  0  0  0  0  0
  152.9507  138.3186  154.7105 C   0  0  0  0  0  0  0  0  0  0  0  0
  151.3368  136.8215  155.6446 O   0  0  0  0  0  0  0  0  0  0  0  0
  149.3089  134.2634  154.7058 H   0  0  0  0  0  0  0  0  0  0  0  0
  151.0609  134.2591  154.8568 H   0  0  0  0  0  0  0  0  0  0  0  0
  150.2832  135.1990  153.5854 H   0  0  0  0  0  0  0  0  0  0  0  0
  149.9737  135.6684  156.5909 H   0  0  0  0  0  0  0  0  0  0  0  0
  148.0176  136.4468  155.1894 H   0  0  0  0  0  0  0  0  0  0  0  0
  148.7817  137.6948  156.1526 H   0  0  0  0  0  0  0  0  0  0  0  0
  148.1200  139.0126  152.7088 H   0  0  0  0  0  0  0  0  0  0  0  0
  147.0982  138.1547  153.8362 H   0  0  0  0  0  0  0  0  0  0  0  0
  146.9546  140.3276  154.7233 H   0  0  0  0  0  0  0  0  0  0  0  0
  148.3326  139.7631  155.6261 H   0  0  0  0  0  0  0  0  0  0  0  0
  149.6275  140.7945  153.4366 H   0  0  0  0  0  0  0  0  0  0  0  0
  148.1697  141.7454  153.3734 H   0  0  0  0  0  0  0  0  0  0  0  0
  148.9700  143.0351  155.0223 H   0  0  0  0  0  0  0  0  0  0  0  0
  149.9837  143.6902  156.5786 H   0  0  0  0  0  0  0  0  0  0  0  0
  151.1261  145.0381  157.9705 H   0  0  0  0  0  0  0  0  0  0  0  0
  152.5784  145.3125  159.9797 H   0  0  0  0  0  0  0  0  0  0  0  0
  153.4964  143.2621  161.1040 H   0  0  0  0  0  0  0  0  0  0  0  0
  152.9058  141.0177  160.1511 H   0  0  0  0  0  0  0  0  0  0  0  0
  150.6738  139.1362  153.3072 H   0  0  0  0  0  0  0  0  0  0  0  0
  150.3921  139.2974  155.0294 H   0  0  0  0  0  0  0  0  0  0  0  0
  151.7438  136.9303  153.6215 H   0  0  0  0  0  0  0  0  0  0  0  0
  153.2259  138.9199  153.8435 H   0  0  0  0  0  0  0  0  0  0  0  0
  153.7571  137.6073  154.8905 H   0  0  0  0  0  0  0  0  0  0  0  0
  152.8938  138.9822  155.5738 H   0  0  0  0  0  0  0  0  0  0  0  0
  149.2833  137.1879  153.3259 H   0  0  0  0  0  0  0  0  0  0  0  0
  1  2  1  0  0  0  0
  1 22  1  0  0  0  0
  1 23  1  0  0  0  0
  1 24  1  0  0  0  0
  2 21  1  0  0  0  0
  2  3  1  0  0  0  0
  2 25  1  0  0  0  0
  3  4  1  0  0  0  0
  3 26  1  0  0  0  0
  3 27  1  0  0  0  0
  4  5  1  0  0  0  0
  4 18  1  0  0  0  0
  4 46  1  0  0  0  0
  5  6  1  0  0  0  0
  5 28  1  0  0  0  0
  5 29  1  0  0  0  0
  6  7  1  0  0  0  0
  6 30  1  0  0  0  0
  6 31  1  0  0  0  0
  7  8  1  0  0  0  0
  7 32  1  0  0  0  0
  7 33  1  0  0  0  0
  8  9  1  0  0  0  0
  8 34  1  0  0  0  0
  9 10  2  0  0  0  0
  9 11  1  0  0  0  0
 11 12  1  0  0  0  0
 11 35  1  0  0  0  0
 12 17  1  0  0  0  0
 12 13  2  0  0  0  0
 13 14  1  0  0  0  0
 13 36  1  0  0  0  0
 14 15  2  0  0  0  0
 14 37  1  0  0  0  0
 15 16  1  0  0  0  0
 15 38  1  0  0  0  0
 16 17  2  0  0  0  0
 16 39  1  0  0  0  0
 18 19  1  0  0  0  0
 18 40  1  0  0  0  0
 18 41  1  0  0  0  0
 19 20  1  0  0  0  0
 19 21  1  0  0  0  0
 19 42  1  0  0  0  0
 20 43  1  0  0  0  0
 20 44  1  0  0  0  0
 20 45  1  0  0  0  0
M  CHG  1   4   1
M  END
> <s_m_source_file>
AV-unprocessed.smi

> <i_m_source_file_index>
1692

> <i_lp_mmshare_version>
43012

> <i_f3d_flags>
0

> <s_epik_input>
W0NIM11bQ0BASF0xW0NIMl1OKFtDSDJdW0NASF0oTzEpW0NIM10pW0NIMl1bQ0gyXVtDSDJdW05IXUMoPU8pW05IXWMyW2NIXVtjSF1bY0hdW2NIXW4y

> <s_epik_cmdline>
J2VwaWtfcHl0aG9uJywgJy1waCcsICc3LjAnLCAnLXRuJywgJzgnLCAnLW1hJywgJzIwMCcsICctbWV0YWxfYmluZGluZycsICctaW1hZScsICc8aW5maWxlLm1hZT4nLCAnLW9tYWUnLCAnPG91dGZpbGUubWFlPic=

> <r_epik_Ionization_Penalty>
0.270538

> <r_epik_Ionization_Penalty_Charging>
0.270496

> <r_epik_Ionization_Penalty_Neutral>
4.22978e-05

> <r_epik_State_Penalty>
0.262618

> <r_epik_Charging_Adjusted_Penalty>
0.533114

> <i_epik_Tot_Q>
1

> <i_epik_Tot_abs_Q>
1

> <r_epik_Metal_State_Penalty>
0.262618

> <b_epik_Metal_Only>
0

> <s_lp_Force_Field>
OPLS_2005

> <r_lp_Energy>
21.1516

> <b_lp_Chiralities_Consistent>
1

> <s_lp_Variant>
AV-unprocessed.smi:1692-1

> <Gold.Version>
5.8.1

> <Gold.Id.Protein>
6NUR|6NUR_protein|mol2

> <Gold.PLP.Fitness>
55.7648

> <Gold.PLP.PLP>
-44.0396

> <Gold.PLP.part.hbond>
-3.5639

> <Gold.PLP.part.metal>
0.0000

> <Gold.PLP.part.buried>
-6.2111

> <Gold.PLP.part.nonpolar>
-35.5461

> <Gold.PLP.part.repulsive>
0.3617

> <Gold.PLP.ligand.clash>
0.0000

> <Gold.PLP.ligand.torsion>
0.4895

> <Gold.PLP.Chemscore.Hbond>
4.2268

> <Gold.PLP.Chemscore.CHOScore>
0.0000

> <Gold.PLP.Chemscore.Metal>
0.0000

> <Gold.Chemscore.Hbonds>
donor molecule, donor type, donor heavy atom, donor atom, acceptor molecule, acceptor atom, score
      L1  H     4    46       P1  7948  2.00
      L1  H     8    34       P1  8028  1.00
      L1  H    11    35       P1  8028  1.00
      P1  H 10752 10764       L1    21  0.10

> <Gold.PLP.Chemscore.Internal.Correction>
0.0239

> <Gold.Rescore>
     Score         DG    S(hbond)    S(metal)    S(lipo)     H(rot)  DE(clash)    DE(int)     intcor
     20.08     -23.32       2.95        0.00     107.38       1.78       0.05       3.19       ----

> <Gold.Chemscore.Fitness>
20.0843

> <Gold.Chemscore.DG>
-23.3228

> <Gold.Chemscore.ZeroCoef>
-5.4800

> <Gold.Chemscore.Hbond>
2.9460

> <Gold.Chemscore.Metal>
0.0000

> <Gold.Chemscore.Lipo>
107.3793

> <Gold.Chemscore.Internal_Hbond>
0.0000

> <Gold.Chemscore.DEClash>
0.0533

> <Gold.Chemscore.DEInternal>
3.1852

> <Gold.Chemscore.Rot>
1.7814

> <Gold.Chemscore.Internal.Correction>
   9.000000E+99

> <Gold.Chemscore.Hbonds>
donor molecule, donor type, donor heavy atom, donor atom, acceptor molecule, acceptor atom, score
      L1  H     4    46       P1  7948  0.98
      L1  H     8    34       P1  8028  0.97
      L1  H    11    35       P1  8028  0.99

> <Gold.Chemscore.Hbond.Weighted>
-9.8397

> <Gold.Chemscore.Metal.Weighted>
-0.0000

> <Gold.Chemscore.Lipo.Weighted>
-12.5634

> <Gold.Chemscore.Internal_Hbond.Weighted>
0.0000

> <Gold.Chemscore.DEClash.Weighted>
0.0533

> <Gold.Chemscore.DEInternal.Weighted>
3.1852

> <Gold.Chemscore.Rot.Weighted>
4.5603

> <Gold.Chemscore.Internal.Correction.Weighted>
   9.000000E+99

> <Gold.Protein.RotatedTorsions>
[ 6907 6896 6895 6894 ] final   32.13 input  -60.11 | X-H torsion
[ 7974 7965 7964 7962 ] final -135.85 input  175.53 | X-H torsion
[ 8008 7997 7996 7995 ] final -120.53 input   59.86 | X-H torsion
[ 10167 10162 10161 10158 ] final  -62.27 input  -65.29 | X-H torsion
[ 10718 10713 10712 10709 ] final -172.25 input   66.30 | X-H torsion
[ 10763 10752 10751 10750 ] final  -32.50 input  -60.55 | X-H torsion
[ 11005 11000 10999 10996 ] final   26.23 input  -57.11 | X-H torsion

> <Gold.Protein.ActiveResidues>
 VAL166  LYS551  ARG553  GLY616  TRP617  ASP618  TYR619  PRO620  LYS621  CYS622 
 ASP623  PHE694  ASN695  SER759  ASP760  ASP761  ALA762  ILE779  LEU786  VAL792 
 PHE793  MET794  SER795  GLU796  ALA797  LYS798  CYS799  TRP800  GLU811  SER814 

> <Gold.Protein.RotatedAtoms>
  152.0701  134.9539  160.0574 H   0  0  0  0  0  0  0  0  0  0  0  0  # atno 6907 bound_to 6896
  152.0868  133.4175  159.4534 H   0  0  0  0  0  0  0  0  0  0  0  0  # atno 6908 bound_to 6896
  150.6836  134.2837  159.4681 H   0  0  0  0  0  0  0  0  0  0  0  0  # atno 6909 bound_to 6896
  144.8978  140.6730  143.5104 H   0  0  0  0  0  0  0  0  0  0  0  0  # atno 7974 bound_to 7965
  155.1333  140.0400  157.2780 H   0  0  0  0  0  0  0  0  0  0  0  0  # atno 8008 bound_to 7997
  154.6527  140.2573  155.7170 H   0  0  0  0  0  0  0  0  0  0  0  0  # atno 8009 bound_to 7997
  156.2584  140.2833  156.0967 H   0  0  0  0  0  0  0  0  0  0  0  0  # atno 8010 bound_to 7997
  140.5950  143.2349  151.6055 H   0  0  0  0  0  0  0  0  0  0  0  0  # atno 10167 bound_to 10162
  156.7528  130.9384  151.3115 H   0  0  0  0  0  0  0  0  0  0  0  0  # atno 10718 bound_to 10713
  153.8148  135.6879  153.4835 H   0  0  0  0  0  0  0  0  0  0  0  0  # atno 10763 bound_to 10752
  153.1605  135.4581  154.9764 H   0  0  0  0  0  0  0  0  0  0  0  0  # atno 10764 bound_to 10752
  154.7952  135.3316  154.7626 H   0  0  0  0  0  0  0  0  0  0  0  0  # atno 10765 bound_to 10752
  140.3393  134.2351  155.7692 H   0  0  0  0  0  0  0  0  0  0  0  0  # atno 11005 bound_to 11000
  145.3669  139.1668  143.4353 LP  0  0  0  0  0  0  0  0  0  0  0  0  # atno 17320 bound_to 7965
  146.3091  140.3737  142.8677 LP  0  0  0  0  0  0  0  0  0  0  0  0  # atno 17321 bound_to 7965
  139.5252  144.3080  152.1017 LP  0  0  0  0  0  0  0  0  0  0  0  0  # atno 17342 bound_to 10162
  140.2251  144.4426  150.6325 LP  0  0  0  0  0  0  0  0  0  0  0  0  # atno 17343 bound_to 10162
  157.6769  130.9103  150.0172 LP  0  0  0  0  0  0  0  0  0  0  0  0  # atno 17370 bound_to 10713
  156.1390  130.3642  149.9612 LP  0  0  0  0  0  0  0  0  0  0  0  0  # atno 17371 bound_to 10713
  141.2043  133.7890  157.0295 LP  0  0  0  0  0  0  0  0  0  0  0  0  # atno 17394 bound_to 11000
  140.0795  134.9656  157.1600 LP  0  0  0  0  0  0  0  0  0  0  0  0  # atno 17395 bound_to 11000

$$$$
