AV-unprocessed.smi:937|AV-procd|sdf|4214|dock7
  -GOLD-   22720 2123D 1   1.00000     0.00000
 Structure written by MMmdl.
 46 47  0  0  0  0  0  0  0  0  2 V2000
  146.3308  138.4464  151.8712 C   0  0  0  0  0  0  0  0  0  0  0  0
  147.1256  139.0921  152.9864 C   0  0  0  0  0  0  0  0  0  0  0  0
  146.7881  140.3569  153.5148 C   0  0  0  0  0  0  0  0  0  0  0  0
  147.5687  140.8987  154.5573 C   0  0  0  0  0  0  0  0  0  0  0  0
  148.6693  140.1646  155.0507 C   0  0  0  0  0  0  0  0  0  0  0  0
  149.5301  140.7158  156.1698 C   0  0  0  0  0  0  0  0  0  0  0  0
  148.9110  141.9656  156.8162 C   0  0  0  0  0  0  0  0  0  0  0  0
  149.9292  142.7975  157.4452 N   0  0  0  0  0  0  0  0  0  0  0  0
  150.7684  142.3843  158.4104 C   0  0  0  0  0  0  0  0  0  0  0  0
  150.7718  141.2382  158.8565 O   0  0  0  0  0  0  0  0  0  0  0  0
  151.6143  143.3255  158.8666 N   0  0  0  0  0  0  0  0  0  0  0  0
  152.6416  143.2023  159.9025 C   0  0  1  0  0  0  0  0  0  0  0  0
  152.0361  143.4320  161.3026 C   0  0  0  0  0  0  0  0  0  0  0  0
  153.0830  143.2188  162.4055 C   0  0  0  0  0  0  0  0  0  0  0  0
  153.7242  141.8260  162.3051 C   0  0  0  0  0  0  0  0  0  0  0  0
  154.3479  141.5864  160.9139 C   0  0  1  0  0  0  0  0  0  0  0  0
  155.0107  140.1972  160.8087 C   0  0  0  0  0  0  0  0  0  0  0  0
  154.0902  139.2398  160.6900 F   0  0  0  0  0  0  0  0  0  0  0  0
  155.8158  140.1546  159.7471 F   0  0  0  0  0  0  0  0  0  0  0  0
  155.7440  139.9574  161.8958 F   0  0  0  0  0  0  0  0  0  0  0  0
  153.2869  141.8060  159.8140 C   0  0  0  0  0  0  0  0  0  0  0  0
  148.9600  138.9055  154.4830 C   0  0  0  0  0  0  0  0  0  0  0  0
  148.1878  138.4214  153.4859 N   0  3  0  0  0  0  0  0  0  0  0  0
  145.8202  139.2009  151.2721 H   0  0  0  0  0  0  0  0  0  0  0  0
  145.5809  137.7720  152.2849 H   0  0  0  0  0  0  0  0  0  0  0  0
  146.9822  137.8736  151.2101 H   0  0  0  0  0  0  0  0  0  0  0  0
  145.9416  140.9060  153.1286 H   0  0  0  0  0  0  0  0  0  0  0  0
  147.3240  141.8660  154.9715 H   0  0  0  0  0  0  0  0  0  0  0  0
  149.6796  139.9404  156.9227 H   0  0  0  0  0  0  0  0  0  0  0  0
  150.5175  140.9467  155.7676 H   0  0  0  0  0  0  0  0  0  0  0  0
  148.3627  142.5494  156.0747 H   0  0  0  0  0  0  0  0  0  0  0  0
  148.1877  141.6734  157.5780 H   0  0  0  0  0  0  0  0  0  0  0  0
  149.9969  143.7559  157.1343 H   0  0  0  0  0  0  0  0  0  0  0  0
  151.5398  144.2362  158.4363 H   0  0  0  0  0  0  0  0  0  0  0  0
  153.4262  143.9405  159.7261 H   0  0  0  0  0  0  0  0  0  0  0  0
  151.6271  144.4398  161.3811 H   0  0  0  0  0  0  0  0  0  0  0  0
  151.2010  142.7480  161.4606 H   0  0  0  0  0  0  0  0  0  0  0  0
  153.8565  143.9839  162.3286 H   0  0  0  0  0  0  0  0  0  0  0  0
  152.6205  143.3442  163.3849 H   0  0  0  0  0  0  0  0  0  0  0  0
  154.4835  141.7221  163.0807 H   0  0  0  0  0  0  0  0  0  0  0  0
  152.9703  141.0646  162.5084 H   0  0  0  0  0  0  0  0  0  0  0  0
  155.1322  142.3314  160.7701 H   0  0  0  0  0  0  0  0  0  0  0  0
  152.5147  141.0393  159.8951 H   0  0  0  0  0  0  0  0  0  0  0  0
  153.7425  141.6792  158.8312 H   0  0  0  0  0  0  0  0  0  0  0  0
  149.7813  138.2757  154.7936 H   0  0  0  0  0  0  0  0  0  0  0  0
  148.4171  137.5082  153.0927 H   0  0  0  0  0  0  0  0  0  0  0  0
  1  2  1  0  0  0  0
  1 24  1  0  0  0  0
  1 25  1  0  0  0  0
  1 26  1  0  0  0  0
  2 23  1  0  0  0  0
  2  3  2  0  0  0  0
  3  4  1  0  0  0  0
  3 27  1  0  0  0  0
  4  5  2  0  0  0  0
  4 28  1  0  0  0  0
  5  6  1  0  0  0  0
  5 22  1  0  0  0  0
  6  7  1  0  0  0  0
  6 29  1  0  0  0  0
  6 30  1  0  0  0  0
  7  8  1  0  0  0  0
  7 31  1  0  0  0  0
  7 32  1  0  0  0  0
  8  9  1  0  0  0  0
  8 33  1  0  0  0  0
  9 10  2  0  0  0  0
  9 11  1  0  0  0  0
 11 12  1  0  0  0  0
 11 34  1  0  0  0  0
 12 21  1  0  0  0  0
 12 13  1  0  0  0  0
 12 35  1  0  0  0  0
 13 14  1  0  0  0  0
 13 36  1  0  0  0  0
 13 37  1  0  0  0  0
 14 15  1  0  0  0  0
 14 38  1  0  0  0  0
 14 39  1  0  0  0  0
 15 16  1  0  0  0  0
 15 40  1  0  0  0  0
 15 41  1  0  0  0  0
 16 17  1  0  0  0  0
 16 21  1  0  0  0  0
 16 42  1  0  0  0  0
 17 18  1  0  0  0  0
 17 19  1  0  0  0  0
 17 20  1  0  0  0  0
 21 43  1  0  0  0  0
 21 44  1  0  0  0  0
 22 23  2  0  0  0  0
 22 45  1  0  0  0  0
 23 46  1  0  0  0  0
M  CHG  1  23   1
M  END
> <s_m_source_file>
AV-unprocessed.smi

> <i_m_source_file_index>
937

> <i_lp_mmshare_version>
43012

> <i_f3d_flags>
0

> <s_epik_input>
W0NIM11jMVtjSF1bY0hdYyhbY0hdbjEpW0NIMl1bQ0gyXVtOSF1DKD1PKVtOSF1bQ0BASF0yW0NIMl1bQ0gyXVtDSDJdW0NAQEhdKEMoRikoRilGKVtDSDJdMg==

> <s_epik_cmdline>
J2VwaWtfcHl0aG9uJywgJy1waCcsICc3LjAnLCAnLXRuJywgJzgnLCAnLW1hJywgJzIwMCcsICctbWV0YWxfYmluZGluZycsICctaW1hZScsICc8aW5maWxlLm1hZT4nLCAnLW9tYWUnLCAnPG91dGZpbGUubWFlPic=

> <r_epik_Ionization_Penalty>
1.4226

> <r_epik_Ionization_Penalty_Charging>
1.42255

> <r_epik_Ionization_Penalty_Neutral>
5.16456e-05

> <r_epik_State_Penalty>
1.50646

> <r_epik_Charging_Adjusted_Penalty>
2.92901

> <i_epik_Tot_Q>
1

> <i_epik_Tot_abs_Q>
1

> <r_epik_Metal_State_Penalty>
1.55846

> <b_epik_Metal_Only>
0

> <s_lp_Force_Field>
OPLS_2005

> <r_lp_Energy>
24.5693

> <b_lp_Chiralities_Consistent>
1

> <s_lp_Variant>
AV-unprocessed.smi:937-6

> <Gold.Version>
5.8.1

> <Gold.Id.Protein>
6NUR|6NUR_protein|mol2

> <Gold.PLP.Fitness>
53.7116

> <Gold.PLP.PLP>
-48.0690

> <Gold.PLP.part.hbond>
-3.0000

> <Gold.PLP.part.metal>
0.0000

> <Gold.PLP.part.buried>
1.2478

> <Gold.PLP.part.nonpolar>
-46.8489

> <Gold.PLP.part.repulsive>
0.0982

> <Gold.PLP.ligand.clash>
0.0000

> <Gold.PLP.ligand.torsion>
0.8407

> <Gold.PLP.Chemscore.Hbond>
2.4320

> <Gold.PLP.Chemscore.CHOScore>
0.0000

> <Gold.PLP.Chemscore.Metal>
0.0000

> <Gold.Chemscore.Hbonds>
donor molecule, donor type, donor heavy atom, donor atom, acceptor molecule, acceptor atom, score
      L1  H     8    33       P1  8028  0.54
      L1  H    23    46       P1  7948  2.00

> <Gold.PLP.Chemscore.Internal.Correction>
0.0280

> <Gold.Rescore>
     Score         DG    S(hbond)    S(metal)    S(lipo)     H(rot)  DE(clash)    DE(int)     intcor
     16.00     -21.61       1.46        0.00     132.40       1.66       2.01       3.60       ----

> <Gold.Chemscore.Fitness>
16.0011

> <Gold.Chemscore.DG>
-21.6092

> <Gold.Chemscore.ZeroCoef>
-5.4800

> <Gold.Chemscore.Hbond>
1.4623

> <Gold.Chemscore.Metal>
0.0000

> <Gold.Chemscore.Lipo>
132.3990

> <Gold.Chemscore.Internal_Hbond>
0.0000

> <Gold.Chemscore.DEClash>
2.0125

> <Gold.Chemscore.DEInternal>
3.5956

> <Gold.Chemscore.Rot>
1.6585

> <Gold.Chemscore.Internal.Correction>
   9.000000E+99

> <Gold.Chemscore.Hbonds>
donor molecule, donor type, donor heavy atom, donor atom, acceptor molecule, acceptor atom, score
      L1  H     8    33       P1  8028  0.48
      L1  H    23    46       P1  7948  0.99

> <Gold.Chemscore.Hbond.Weighted>
-4.8842

> <Gold.Chemscore.Metal.Weighted>
-0.0000

> <Gold.Chemscore.Lipo.Weighted>
-15.4907

> <Gold.Chemscore.Internal_Hbond.Weighted>
0.0000

> <Gold.Chemscore.DEClash.Weighted>
2.0125

> <Gold.Chemscore.DEInternal.Weighted>
3.5956

> <Gold.Chemscore.Rot.Weighted>
4.2457

> <Gold.Chemscore.Internal.Correction.Weighted>
   9.000000E+99

> <Gold.Protein.RotatedTorsions>
[ 6907 6896 6895 6894 ] final  151.23 input  -60.11 | X-H torsion
[ 7974 7965 7964 7962 ] final  161.18 input  175.53 | X-H torsion
[ 8008 7997 7996 7995 ] final -132.32 input   59.86 | X-H torsion
[ 10167 10162 10161 10158 ] final   71.89 input  -65.29 | X-H torsion
[ 10718 10713 10712 10709 ] final -102.27 input   66.30 | X-H torsion
[ 10763 10752 10751 10750 ] final   23.34 input  -60.55 | X-H torsion
[ 11005 11000 10999 10996 ] final   21.70 input  -57.11 | X-H torsion

> <Gold.Protein.ActiveResidues>
 VAL166  LYS551  ARG553  GLY616  TRP617  ASP618  TYR619  PRO620  LYS621  CYS622 
 ASP623  PHE694  ASN695  SER759  ASP760  ASP761  ALA762  ILE779  LEU786  VAL792 
 PHE793  MET794  SER795  GLU796  ALA797  LYS798  CYS799  TRP800  GLU811  SER814 

> <Gold.Protein.RotatedAtoms>
  152.1035  133.4262  159.4597 H   0  0  0  0  0  0  0  0  0  0  0  0  # atno 6907 bound_to 6896
  150.6865  134.2733  159.4606 H   0  0  0  0  0  0  0  0  0  0  0  0  # atno 6908 bound_to 6896
  152.0595  134.9603  160.0625 H   0  0  0  0  0  0  0  0  0  0  0  0  # atno 6909 bound_to 6896
  144.7698  139.7862  143.6301 H   0  0  0  0  0  0  0  0  0  0  0  0  # atno 7974 bound_to 7965
  155.3269  140.0465  157.3041 H   0  0  0  0  0  0  0  0  0  0  0  0  # atno 8008 bound_to 7997
  154.5349  140.2269  155.8705 H   0  0  0  0  0  0  0  0  0  0  0  0  # atno 8009 bound_to 7997
  156.1825  140.3070  155.9182 H   0  0  0  0  0  0  0  0  0  0  0  0  # atno 8010 bound_to 7997
  140.0412  144.5387  150.7432 H   0  0  0  0  0  0  0  0  0  0  0  0  # atno 10167 bound_to 10162
  156.0223  130.5412  150.7084 H   0  0  0  0  0  0  0  0  0  0  0  0  # atno 10718 bound_to 10713
  153.0846  135.6629  153.9975 H   0  0  0  0  0  0  0  0  0  0  0  0  # atno 10763 bound_to 10752
  153.9588  135.2976  155.3436 H   0  0  0  0  0  0  0  0  0  0  0  0  # atno 10764 bound_to 10752
  154.7252  135.5147  153.8947 H   0  0  0  0  0  0  0  0  0  0  0  0  # atno 10765 bound_to 10752
  140.3887  134.1843  155.7663 H   0  0  0  0  0  0  0  0  0  0  0  0  # atno 11005 bound_to 11000
  146.1836  139.5041  142.9850 LP  0  0  0  0  0  0  0  0  0  0  0  0  # atno 17320 bound_to 7965
  145.6357  141.0295  143.1839 LP  0  0  0  0  0  0  0  0  0  0  0  0  # atno 17321 bound_to 7965
  140.7259  143.2636  151.4122 LP  0  0  0  0  0  0  0  0  0  0  0  0  # atno 17342 bound_to 10162
  139.6012  144.1291  152.2200 LP  0  0  0  0  0  0  0  0  0  0  0  0  # atno 17343 bound_to 10162
  157.4728  131.0895  151.0624 LP  0  0  0  0  0  0  0  0  0  0  0  0  # atno 17370 bound_to 10713
  157.1079  130.6009  149.5475 LP  0  0  0  0  0  0  0  0  0  0  0  0  # atno 17371 bound_to 10713
  141.1898  133.8230  157.0941 LP  0  0  0  0  0  0  0  0  0  0  0  0  # atno 17394 bound_to 11000
  140.0423  134.9848  157.0985 LP  0  0  0  0  0  0  0  0  0  0  0  0  # atno 17395 bound_to 11000

$$$$
