AV-unprocessed.smi:3187|AV-procd|sdf|12182|dock4
  -GOLD-   2272018 23D 1   1.00000     0.00000
 Structure written by MMmdl.
 42 43  0  0  0  0  0  0  0  0  3 V2000
  146.5337  141.9897  153.6180 C   0  0  0  0  0  0  0  0  0  0  0  0
  147.5725  140.9373  153.9661 C   0  0  0  0  0  0  0  0  0  0  0  0
  148.8234  141.2828  154.3289 C   0  0  0  0  0  0  0  0  0  0  0  0
  149.9079  140.3013  154.7332 C   0  0  0  0  0  0  0  0  0  0  0  0
  149.5126  138.8368  154.4867 C   0  0  0  0  0  0  0  0  0  0  0  0
  148.0271  138.5919  154.8071 C   0  0  2  0  0  0  0  0  0  0  0  0
  147.6852  137.0924  154.8142 C   0  0  0  0  0  0  0  0  0  0  0  0
  147.1015  139.4813  153.9215 C   0  0  2  0  0  0  0  0  0  0  0  0
  146.9686  139.0132  152.4492 C   0  0  0  0  0  0  0  0  0  0  0  0
  145.5750  138.6867  152.0844 N   0  3  0  0  0  0  0  0  0  0  0  0
  145.1378  137.3436  152.5125 C   0  0  0  0  0  0  0  0  0  0  0  0
  145.4587  136.2914  151.4416 C   0  0  0  0  0  0  0  0  0  0  0  0
  144.7163  135.0470  151.6576 N   0  0  0  0  0  0  0  0  0  0  0  0
  144.6680  133.9548  150.8292 C   0  0  0  0  0  0  0  0  0  0  0  0
  143.8531  133.0365  151.4402 C   0  0  0  0  0  0  0  0  0  0  0  0
  143.4382  133.6066  152.6142 N   0  3  0  0  0  0  0  0  0  0  0  0
  143.9638  134.8294  152.7447 C   0  0  0  0  0  0  0  0  0  0  0  0
  145.6704  141.9010  154.2778 H   0  0  0  0  0  0  0  0  0  0  0  0
  146.1914  141.8866  152.5892 H   0  0  0  0  0  0  0  0  0  0  0  0
  146.9377  142.9964  153.7317 H   0  0  0  0  0  0  0  0  0  0  0  0
  149.0989  142.3268  154.3701 H   0  0  0  0  0  0  0  0  0  0  0  0
  150.8294  140.5367  154.2002 H   0  0  0  0  0  0  0  0  0  0  0  0
  150.1096  140.4549  155.7938 H   0  0  0  0  0  0  0  0  0  0  0  0
  149.7181  138.5712  153.4498 H   0  0  0  0  0  0  0  0  0  0  0  0
  150.1464  138.1885  155.0931 H   0  0  0  0  0  0  0  0  0  0  0  0
  147.8758  138.9253  155.8355 H   0  0  0  0  0  0  0  0  0  0  0  0
  147.9249  136.6164  153.8635 H   0  0  0  0  0  0  0  0  0  0  0  0
  146.6284  136.9281  155.0260 H   0  0  0  0  0  0  0  0  0  0  0  0
  148.2547  136.5717  155.5847 H   0  0  0  0  0  0  0  0  0  0  0  0
  146.1080  139.4675  154.3730 H   0  0  0  0  0  0  0  0  0  0  0  0
  147.2970  139.7947  151.7648 H   0  0  0  0  0  0  0  0  0  0  0  0
  147.6119  138.1542  152.2598 H   0  0  0  0  0  0  0  0  0  0  0  0
  144.9700  139.3717  152.5147 H   0  0  0  0  0  0  0  0  0  0  0  0
  145.6296  137.0862  153.4517 H   0  0  0  0  0  0  0  0  0  0  0  0
  144.0641  137.3633  152.7047 H   0  0  0  0  0  0  0  0  0  0  0  0
  145.2021  136.6625  150.4481 H   0  0  0  0  0  0  0  0  0  0  0  0
  146.5244  136.0572  151.4321 H   0  0  0  0  0  0  0  0  0  0  0  0
  145.2036  133.9106  149.8914 H   0  0  0  0  0  0  0  0  0  0  0  0
  143.5462  132.0461  151.1356 H   0  0  0  0  0  0  0  0  0  0  0  0
  143.8098  135.5053  153.5674 H   0  0  0  0  0  0  0  0  0  0  0  0
  145.4813  138.7592  151.0811 H   0  0  0  0  0  0  0  0  0  0  0  0
  142.8243  133.1665  153.2889 H   0  0  0  0  0  0  0  0  0  0  0  0
  1  2  1  0  0  0  0
  1 18  1  0  0  0  0
  1 19  1  0  0  0  0
  1 20  1  0  0  0  0
  2  8  1  0  0  0  0
  2  3  2  0  0  0  0
  3  4  1  0  0  0  0
  3 21  1  0  0  0  0
  4  5  1  0  0  0  0
  4 22  1  0  0  0  0
  4 23  1  0  0  0  0
  5  6  1  0  0  0  0
  5 24  1  0  0  0  0
  5 25  1  0  0  0  0
  6  7  1  0  0  0  0
  6  8  1  0  0  0  0
  6 26  1  0  0  0  0
  7 27  1  0  0  0  0
  7 28  1  0  0  0  0
  7 29  1  0  0  0  0
  8  9  1  0  0  0  0
  8 30  1  0  0  0  0
  9 10  1  0  0  0  0
  9 31  1  0  0  0  0
  9 32  1  0  0  0  0
 10 11  1  0  0  0  0
 10 33  1  0  0  0  0
 10 41  1  0  0  0  0
 11 12  1  0  0  0  0
 11 34  1  0  0  0  0
 11 35  1  0  0  0  0
 12 13  1  0  0  0  0
 12 36  1  0  0  0  0
 12 37  1  0  0  0  0
 13 17  1  0  0  0  0
 13 14  1  0  0  0  0
 14 15  2  0  0  0  0
 14 38  1  0  0  0  0
 15 16  1  0  0  0  0
 15 39  1  0  0  0  0
 16 17  2  0  0  0  0
 16 42  1  0  0  0  0
 17 40  1  0  0  0  0
M  CHG  1  10   1
M  CHG  1  16   1
M  END
> <s_m_source_file>
AV-unprocessed.smi

> <i_m_source_file_index>
3187

> <i_lp_mmshare_version>
43012

> <i_f3d_flags>
0

> <s_epik_input>
W0NIM11DMT1bQ0hdW0NIMl1bQ0gyXVtDQEBIXShbQ0gzXSlbQ0BIXTFbQ0gyXVtOSF1bQ0gyXVtDSDJdbjJbY0hdW2NIXW5bY0hdMg==

> <s_epik_cmdline>
J2VwaWtfcHl0aG9uJywgJy1waCcsICc3LjAnLCAnLXRuJywgJzgnLCAnLW1hJywgJzIwMCcsICctbWV0YWxfYmluZGluZycsICctaW1hZScsICc8aW5maWxlLm1hZT4nLCAnLW9tYWUnLCAnPG91dGZpbGUubWFlPic=

> <r_lp_tautomer_probability>
1

> <r_epik_Ionization_Penalty>
1.51066

> <r_epik_Ionization_Penalty_Charging>
0.0026721

> <r_epik_Ionization_Penalty_Neutral>
1.50798

> <r_epik_State_Penalty>
1.12593

> <r_epik_Charging_Adjusted_Penalty>
1.12861

> <i_epik_Tot_Q>
2

> <i_epik_Tot_abs_Q>
2

> <r_epik_Metal_State_Penalty>
5.12155

> <b_epik_Metal_Only>
0

> <s_lp_Force_Field>
OPLS_2005

> <r_lp_Energy>
26.0631

> <b_lp_Chiralities_Consistent>
1

> <s_lp_Variant>
AV-unprocessed.smi:3187-8

> <Gold.Version>
5.8.1

> <Gold.Id.Protein>
6NUR|6NUR_protein|mol2

> <Gold.PLP.Fitness>
48.7370

> <Gold.PLP.PLP>
-33.7797

> <Gold.PLP.part.hbond>
-3.0000

> <Gold.PLP.part.metal>
0.0000

> <Gold.PLP.part.buried>
-1.8149

> <Gold.PLP.part.nonpolar>
-29.0199

> <Gold.PLP.part.repulsive>
0.0270

> <Gold.PLP.ligand.clash>
0.0000

> <Gold.PLP.ligand.torsion>
1.1281

> <Gold.PLP.Chemscore.Hbond>
4.6880

> <Gold.PLP.Chemscore.CHOScore>
1.0000

> <Gold.PLP.Chemscore.Metal>
0.0000

> <Gold.Chemscore.Hbonds>
donor molecule, donor type, donor heavy atom, donor atom, acceptor molecule, acceptor atom, score
      L1  H    10    33       P1 10175  2.00
      L1  H    10    41       P1 10171  0.66
      L1  H    16    42       P1 10957  1.81
      L1  C    14    38       P1  7921  0.82

> <Gold.PLP.Chemscore.Internal.Correction>
0.1495

> <Gold.Rescore>
     Score         DG    S(hbond)    S(metal)    S(lipo)     H(rot)  DE(clash)    DE(int)     intcor
     16.99     -18.27       2.71        0.00      75.04       1.97       0.14       1.13       ----

> <Gold.Chemscore.Fitness>
16.9934

> <Gold.Chemscore.DG>
-18.2691

> <Gold.Chemscore.ZeroCoef>
-5.4800

> <Gold.Chemscore.Hbond>
2.7128

> <Gold.Chemscore.Metal>
0.0000

> <Gold.Chemscore.Lipo>
75.0414

> <Gold.Chemscore.Internal_Hbond>
0.0000

> <Gold.Chemscore.DEClash>
0.1419

> <Gold.Chemscore.DEInternal>
1.1337

> <Gold.Chemscore.Rot>
1.9732

> <Gold.Chemscore.Internal.Correction>
   9.000000E+99

> <Gold.Chemscore.Hbonds>
donor molecule, donor type, donor heavy atom, donor atom, acceptor molecule, acceptor atom, score
      L1  H    10    33       P1 10175  0.95
      L1  H    10    41       P1 10171  0.60
      L1  H    16    42       P1 10957  0.72

> <Gold.Chemscore.Hbond.Weighted>
-9.0606

> <Gold.Chemscore.Metal.Weighted>
-0.0000

> <Gold.Chemscore.Lipo.Weighted>
-8.7798

> <Gold.Chemscore.Internal_Hbond.Weighted>
0.0000

> <Gold.Chemscore.DEClash.Weighted>
0.1419

> <Gold.Chemscore.DEInternal.Weighted>
1.1337

> <Gold.Chemscore.Rot.Weighted>
5.0514

> <Gold.Chemscore.Internal.Correction.Weighted>
   9.000000E+99

> <Gold.Protein.RotatedTorsions>
[ 6907 6896 6895 6894 ] final   84.53 input  -60.11 | X-H torsion
[ 7974 7965 7964 7962 ] final  -80.38 input  175.53 | X-H torsion
[ 8008 7997 7996 7995 ] final  -61.29 input   59.86 | X-H torsion
[ 10167 10162 10161 10158 ] final   84.25 input  -65.29 | X-H torsion
[ 10718 10713 10712 10709 ] final   78.26 input   66.30 | X-H torsion
[ 10763 10752 10751 10750 ] final  -70.93 input  -60.55 | X-H torsion
[ 11005 11000 10999 10996 ] final  -55.64 input  -57.11 | X-H torsion

> <Gold.Protein.ActiveResidues>
 VAL166  LYS551  ARG553  GLY616  TRP617  ASP618  TYR619  PRO620  LYS621  CYS622 
 ASP623  PHE694  ASN695  SER759  ASP760  ASP761  ALA762  ILE779  LEU786  VAL792 
 PHE793  MET794  SER795  GLU796  ALA797  LYS798  CYS799  TRP800  GLU811  SER814 

> <Gold.Protein.RotatedAtoms>
  152.5354  134.2726  159.8977 H   0  0  0  0  0  0  0  0  0  0  0  0  # atno 6907 bound_to 6896
  151.2683  133.4261  159.2627 H   0  0  0  0  0  0  0  0  0  0  0  0  # atno 6908 bound_to 6896
  151.0391  134.9609  159.8208 H   0  0  0  0  0  0  0  0  0  0  0  0  # atno 6909 bound_to 6896
  145.5608  140.9482  143.1448 H   0  0  0  0  0  0  0  0  0  0  0  0  # atno 7974 bound_to 7965
  154.4440  140.1021  156.6407 H   0  0  0  0  0  0  0  0  0  0  0  0  # atno 8008 bound_to 7997
  155.5504  140.3485  155.4449 H   0  0  0  0  0  0  0  0  0  0  0  0  # atno 8009 bound_to 7997
  156.0533  140.1309  157.0015 H   0  0  0  0  0  0  0  0  0  0  0  0  # atno 8010 bound_to 7997
  139.9099  144.6278  150.8548 H   0  0  0  0  0  0  0  0  0  0  0  0  # atno 10167 bound_to 10162
  157.6739  130.9860  150.1760 H   0  0  0  0  0  0  0  0  0  0  0  0  # atno 10718 bound_to 10713
  154.4246  135.5978  153.6031 H   0  0  0  0  0  0  0  0  0  0  0  0  # atno 10763 bound_to 10752
  152.9795  135.5960  154.3913 H   0  0  0  0  0  0  0  0  0  0  0  0  # atno 10764 bound_to 10752
  154.3743  135.2841  155.2227 H   0  0  0  0  0  0  0  0  0  0  0  0  # atno 10765 bound_to 10752
  141.1083  133.6612  156.4499 H   0  0  0  0  0  0  0  0  0  0  0  0  # atno 11005 bound_to 11000
  144.7484  139.7259  143.7283 LP  0  0  0  0  0  0  0  0  0  0  0  0  # atno 17320 bound_to 7965
  146.1853  139.5065  142.9840 LP  0  0  0  0  0  0  0  0  0  0  0  0  # atno 17321 bound_to 7965
  140.7687  143.3373  151.2282 LP  0  0  0  0  0  0  0  0  0  0  0  0  # atno 17342 bound_to 10162
  139.6951  143.9626  152.2879 LP  0  0  0  0  0  0  0  0  0  0  0  0  # atno 17343 bound_to 10162
  156.2503  130.3700  149.8239 LP  0  0  0  0  0  0  0  0  0  0  0  0  # atno 17370 bound_to 10713
  156.6014  130.8548  151.3432 LP  0  0  0  0  0  0  0  0  0  0  0  0  # atno 17371 bound_to 10713
  140.4843  134.6635  157.5184 LP  0  0  0  0  0  0  0  0  0  0  0  0  # atno 17394 bound_to 11000
  139.9964  134.6905  155.9603 LP  0  0  0  0  0  0  0  0  0  0  0  0  # atno 17395 bound_to 11000

$$$$
