AV-unprocessed.smi:281|AV-procd|sdf|2112|dock7
  -GOLD-   2262021403D 1   1.00000     0.00000
 Structure written by MMmdl.
 55 59  0  0  0  0  0  0  0  0  1 V2000
  153.0443  138.7161  154.6646 C   0  0  0  0  0  0  0  0  0  0  0  0
  152.0135  138.7947  155.7950 C   0  0  1  0  0  0  0  0  0  0  0  0
  151.4842  137.4081  156.1870 C   0  0  0  0  0  0  0  0  0  0  0  0
  150.5725  137.5224  157.3207 N   0  0  0  0  0  0  0  0  0  0  0  0
  149.8306  136.4305  157.6433 C   0  0  0  0  0  0  0  0  0  0  0  0
  149.8403  135.3394  156.8301 N   0  0  0  0  0  0  0  0  0  0  0  0
  149.1238  134.2554  157.1404 C   0  0  0  0  0  0  0  0  0  0  0  0
  148.3380  134.0503  158.1981 N   0  0  0  0  0  0  0  0  0  0  0  0
  148.3184  135.1398  159.0176 C   0  0  0  0  0  0  0  0  0  0  0  0
  149.0241  136.3603  158.8157 C   0  0  0  0  0  0  0  0  0  0  0  0
  148.7382  137.2435  159.8500 N   0  0  0  0  0  0  0  0  0  0  0  0
  147.9205  136.5818  160.6216 C   0  0  0  0  0  0  0  0  0  0  0  0
  147.6241  135.3046  160.2037 N   0  0  0  0  0  0  0  0  0  0  0  0
  146.7473  134.3505  160.8652 C   0  0  0  0  0  0  0  0  0  0  0  0
  146.2302  134.8254  162.2476 C   0  0  2  0  0  0  0  0  0  0  0  0
  147.3156  134.9633  163.1451 O   0  0  0  0  0  0  0  0  0  0  0  0
  145.2090  133.8659  162.8367 C   0  0  0  0  0  0  0  0  0  0  0  0
  143.9024  134.3305  162.1993 C   0  0  0  0  0  0  0  0  0  0  0  0
  144.0577  135.7271  161.9672 O   0  0  0  0  0  0  0  0  0  0  0  0
  145.4068  136.1202  162.2025 C   0  0  0  0  0  0  0  0  0  0  0  0
  151.1716  138.2064  158.4631 C   0  0  0  0  0  0  0  0  0  0  0  0
  151.7894  139.5724  158.0635 C   0  0  2  0  0  0  0  0  0  0  0  0
  152.6797  140.0997  159.1852 C   0  0  0  0  0  0  0  0  0  0  0  0
  152.5824  141.6085  159.0378 C   0  0  0  0  0  0  0  0  0  0  0  0
  151.2097  141.7827  158.7454 O   0  0  0  0  0  0  0  0  0  0  0  0
  150.8218  140.7714  157.8217 C   0  0  2  0  0  0  0  0  0  0  0  0
  149.3189  140.5103  157.9953 C   0  0  0  0  0  0  0  0  0  0  0  0
  152.6428  139.3925  156.9279 O   0  0  0  0  0  0  0  0  0  0  0  0
  152.6100  138.2724  153.7682 H   0  0  0  0  0  0  0  0  0  0  0  0
  153.9039  138.1114  154.9550 H   0  0  0  0  0  0  0  0  0  0  0  0
  153.4090  139.7089  154.4004 H   0  0  0  0  0  0  0  0  0  0  0  0
  151.1823  139.4141  155.4569 H   0  0  0  0  0  0  0  0  0  0  0  0
  150.9696  136.9598  155.3360 H   0  0  0  0  0  0  0  0  0  0  0  0
  152.3142  136.7509  156.4514 H   0  0  0  0  0  0  0  0  0  0  0  0
  149.1911  133.4346  156.4417 H   0  0  0  0  0  0  0  0  0  0  0  0
  147.5113  137.0096  161.5253 H   0  0  0  0  0  0  0  0  0  0  0  0
  145.9122  134.1409  160.1957 H   0  0  0  0  0  0  0  0  0  0  0  0
  147.2913  133.4110  160.9729 H   0  0  0  0  0  0  0  0  0  0  0  0
  147.0840  134.5501  163.9628 H   0  0  0  0  0  0  0  0  0  0  0  0
  145.4308  132.8160  162.6419 H   0  0  0  0  0  0  0  0  0  0  0  0
  145.1422  133.9958  163.9183 H   0  0  0  0  0  0  0  0  0  0  0  0
  143.7437  133.8342  161.2413 H   0  0  0  0  0  0  0  0  0  0  0  0
  143.0379  134.1259  162.8312 H   0  0  0  0  0  0  0  0  0  0  0  0
  145.4296  136.6197  163.1725 H   0  0  0  0  0  0  0  0  0  0  0  0
  145.7507  136.8417  161.4631 H   0  0  0  0  0  0  0  0  0  0  0  0
  150.4609  138.3384  159.2776 H   0  0  0  0  0  0  0  0  0  0  0  0
  151.9578  137.5589  158.8539 H   0  0  0  0  0  0  0  0  0  0  0  0
  152.2740  139.8150  160.1573 H   0  0  0  0  0  0  0  0  0  0  0  0
  153.7051  139.7316  159.1340 H   0  0  0  0  0  0  0  0  0  0  0  0
  152.8743  142.1427  159.9420 H   0  0  0  0  0  0  0  0  0  0  0  0
  153.1916  141.9665  158.2062 H   0  0  0  0  0  0  0  0  0  0  0  0
  150.9896  141.1873  156.8276 H   0  0  0  0  0  0  0  0  0  0  0  0
  148.9599  139.7596  157.2918 H   0  0  0  0  0  0  0  0  0  0  0  0
  148.7483  141.4216  157.8158 H   0  0  0  0  0  0  0  0  0  0  0  0
  149.0862  140.1754  159.0059 H   0  0  0  0  0  0  0  0  0  0  0  0
  1  2  1  0  0  0  0
  1 29  1  0  0  0  0
  1 30  1  0  0  0  0
  1 31  1  0  0  0  0
  2 28  1  0  0  0  0
  2  3  1  0  0  0  0
  2 32  1  0  0  0  0
  3  4  1  0  0  0  0
  3 33  1  0  0  0  0
  3 34  1  0  0  0  0
  4  5  1  0  0  0  0
  4 21  1  0  0  0  0
  5 10  1  0  0  0  0
  5  6  2  0  0  0  0
  6  7  1  0  0  0  0
  7  8  2  0  0  0  0
  7 35  1  0  0  0  0
  8  9  1  0  0  0  0
  9 13  1  0  0  0  0
  9 10  2  0  0  0  0
 10 11  1  0  0  0  0
 11 12  2  0  0  0  0
 12 13  1  0  0  0  0
 12 36  1  0  0  0  0
 13 14  1  0  0  0  0
 14 15  1  0  0  0  0
 14 37  1  0  0  0  0
 14 38  1  0  0  0  0
 15 20  1  0  0  0  0
 15 16  1  0  0  0  0
 15 17  1  0  0  0  0
 16 39  1  0  0  0  0
 17 18  1  0  0  0  0
 17 40  1  0  0  0  0
 17 41  1  0  0  0  0
 18 19  1  0  0  0  0
 18 42  1  0  0  0  0
 18 43  1  0  0  0  0
 19 20  1  0  0  0  0
 20 44  1  0  0  0  0
 20 45  1  0  0  0  0
 21 22  1  0  0  0  0
 21 46  1  0  0  0  0
 21 47  1  0  0  0  0
 22 26  1  0  0  0  0
 22 23  1  0  0  0  0
 22 28  1  0  0  0  0
 23 24  1  0  0  0  0
 23 48  1  0  0  0  0
 23 49  1  0  0  0  0
 24 25  1  0  0  0  0
 24 50  1  0  0  0  0
 24 51  1  0  0  0  0
 25 26  1  0  0  0  0
 26 27  1  0  0  0  0
 26 52  1  0  0  0  0
 27 53  1  0  0  0  0
 27 54  1  0  0  0  0
 27 55  1  0  0  0  0
M  END
> <s_m_source_file>
AV-unprocessed.smi

> <i_m_source_file_index>
281

> <i_lp_mmshare_version>
43012

> <i_f3d_flags>
0

> <s_epik_input>
W0NIM11bQ0BASF0xT1tDSDJdW0NIMl1bQ0BAXTEyW0NIMl1OKFtDSDJdW0NASF0oTzIpW0NIM10pYyhuW2NIXW4zKWMoYzM0KW5bY0hdbjRbQ0gyXVtDQEBdNShbT0hdKVtDSDJdW0NIMl1PW0NIMl01

> <s_epik_cmdline>
J2VwaWtfcHl0aG9uJywgJy1waCcsICc3LjAnLCAnLXRuJywgJzgnLCAnLW1hJywgJzIwMCcsICctbWV0YWxfYmluZGluZycsICctaW1hZScsICc8aW5maWxlLm1hZT4nLCAnLW9tYWUnLCAnPG91dGZpbGUubWFlPic=

> <r_lp_tautomer_probability>
1

> <r_epik_Ionization_Penalty>
0.00571331

> <r_epik_Ionization_Penalty_Charging>
0

> <r_epik_Ionization_Penalty_Neutral>
0.00571331

> <r_epik_State_Penalty>
0.00399586

> <r_epik_Charging_Adjusted_Penalty>
0.00399586

> <i_epik_Tot_Q>
0

> <i_epik_Tot_abs_Q>
0

> <r_epik_Metal_State_Penalty>
-0

> <b_epik_Metal_Only>
0

> <s_lp_Force_Field>
OPLS_2005

> <r_lp_Energy>
53.9998

> <b_lp_Chiralities_Consistent>
1

> <s_lp_Variant>
AV-unprocessed.smi:281-12

> <Gold.Version>
5.8.1

> <Gold.Id.Protein>
6NUR|6NUR_protein|mol2

> <Gold.PLP.Fitness>
41.5670

> <Gold.PLP.PLP>
-39.1651

> <Gold.PLP.part.hbond>
-2.5748

> <Gold.PLP.part.metal>
0.0000

> <Gold.PLP.part.buried>
-5.7777

> <Gold.PLP.part.nonpolar>
-31.2383

> <Gold.PLP.part.repulsive>
0.0226

> <Gold.PLP.ligand.clash>
0.0000

> <Gold.PLP.ligand.torsion>
0.4319

> <Gold.PLP.Chemscore.Hbond>
1.0000

> <Gold.PLP.Chemscore.CHOScore>
0.0000

> <Gold.PLP.Chemscore.Metal>
0.0000

> <Gold.Chemscore.Hbonds>
donor molecule, donor type, donor heavy atom, donor atom, acceptor molecule, acceptor atom, score
      P1  H  7997  8010       L1    28  1.00

> <Gold.PLP.Chemscore.Internal.Correction>
0.2657

> <Gold.Rescore>
     Score         DG    S(hbond)    S(metal)    S(lipo)     H(rot)  DE(clash)    DE(int)     intcor
     12.59     -13.93       0.98        0.00      89.96       2.09       0.00       1.34       ----

> <Gold.Chemscore.Fitness>
12.5882

> <Gold.Chemscore.DG>
-13.9258

> <Gold.Chemscore.ZeroCoef>
-5.4800

> <Gold.Chemscore.Hbond>
0.9815

> <Gold.Chemscore.Metal>
0.0000

> <Gold.Chemscore.Lipo>
89.9578

> <Gold.Chemscore.Internal_Hbond>
0.0000

> <Gold.Chemscore.DEClash>
0.0000

> <Gold.Chemscore.DEInternal>
1.3376

> <Gold.Chemscore.Rot>
2.0927

> <Gold.Chemscore.Internal.Correction>
   9.000000E+99

> <Gold.Chemscore.Hbonds>
donor molecule, donor type, donor heavy atom, donor atom, acceptor molecule, acceptor atom, score
      P1  H  7997  8010       L1    28  0.96

> <Gold.Chemscore.Hbond.Weighted>
-3.2781

> <Gold.Chemscore.Metal.Weighted>
-0.0000

> <Gold.Chemscore.Lipo.Weighted>
-10.5251

> <Gold.Chemscore.Internal_Hbond.Weighted>
0.0000

> <Gold.Chemscore.DEClash.Weighted>
0.0000

> <Gold.Chemscore.DEInternal.Weighted>
1.3376

> <Gold.Chemscore.Rot.Weighted>
5.3573

> <Gold.Chemscore.Internal.Correction.Weighted>
   9.000000E+99

> <Gold.Protein.RotatedTorsions>
[ 6907 6896 6895 6894 ] final -105.64 input  -60.11 | X-H torsion
[ 7974 7965 7964 7962 ] final  176.50 input  175.53 | X-H torsion
[ 8008 7997 7996 7995 ] final   51.96 input   59.86 | X-H torsion
[ 10167 10162 10161 10158 ] final   -9.79 input  -65.29 | X-H torsion
[ 10718 10713 10712 10709 ] final -174.27 input   66.30 | X-H torsion
[ 10763 10752 10751 10750 ] final   43.70 input  -60.55 | X-H torsion
[ 11005 11000 10999 10996 ] final  -74.37 input  -57.11 | X-H torsion

> <Gold.Protein.ActiveResidues>
 VAL166  LYS551  ARG553  GLY616  TRP617  ASP618  TYR619  PRO620  LYS621  CYS622 
 ASP623  PHE694  ASN695  SER759  ASP760  ASP761  ALA762  ILE779  LEU786  VAL792 
 PHE793  MET794  SER795  GLU796  ALA797  LYS798  CYS799  TRP800  GLU811  SER814 

> <Gold.Protein.RotatedAtoms>
  150.7347  134.0096  159.3664 H   0  0  0  0  0  0  0  0  0  0  0  0  # atno 6907 bound_to 6896
  151.8055  135.0694  160.0415 H   0  0  0  0  0  0  0  0  0  0  0  0  # atno 6908 bound_to 6896
  152.3110  133.5717  159.5717 H   0  0  0  0  0  0  0  0  0  0  0  0  # atno 6909 bound_to 6896
  144.7183  140.0106  143.6440 H   0  0  0  0  0  0  0  0  0  0  0  0  # atno 7974 bound_to 7965
  155.4440  140.3455  155.4293 H   0  0  0  0  0  0  0  0  0  0  0  0  # atno 8008 bound_to 7997
  156.1261  140.1501  156.9164 H   0  0  0  0  0  0  0  0  0  0  0  0  # atno 8009 bound_to 7997
  154.4859  140.0855  156.7465 H   0  0  0  0  0  0  0  0  0  0  0  0  # atno 8010 bound_to 7997
  140.7097  143.5819  150.8983 H   0  0  0  0  0  0  0  0  0  0  0  0  # atno 10167 bound_to 10162
  156.7826  130.9489  151.3120 H   0  0  0  0  0  0  0  0  0  0  0  0  # atno 10718 bound_to 10713
  152.9855  135.6093  154.3155 H   0  0  0  0  0  0  0  0  0  0  0  0  # atno 10763 bound_to 10752
  154.2867  135.2776  155.2675 H   0  0  0  0  0  0  0  0  0  0  0  0  # atno 10764 bound_to 10752
  154.4989  135.5872  153.6572 H   0  0  0  0  0  0  0  0  0  0  0  0  # atno 10765 bound_to 10752
  141.1634  133.6909  156.7355 H   0  0  0  0  0  0  0  0  0  0  0  0  # atno 11005 bound_to 11000
  146.0261  139.3293  143.0783 LP  0  0  0  0  0  0  0  0  0  0  0  0  # atno 17320 bound_to 7965
  145.8509  140.9529  143.0750 LP  0  0  0  0  0  0  0  0  0  0  0  0  # atno 17321 bound_to 7965
  139.9545  143.6234  152.3020 LP  0  0  0  0  0  0  0  0  0  0  0  0  # atno 17342 bound_to 10162
  139.6764  144.7658  151.1687 LP  0  0  0  0  0  0  0  0  0  0  0  0  # atno 17343 bound_to 10162
  157.6639  130.8990  149.9889 LP  0  0  0  0  0  0  0  0  0  0  0  0  # atno 17370 bound_to 10713
  156.1209  130.3646  149.9890 LP  0  0  0  0  0  0  0  0  0  0  0  0  # atno 17371 bound_to 10713
  140.2713  134.8389  157.3850 LP  0  0  0  0  0  0  0  0  0  0  0  0  # atno 17394 bound_to 11000
  140.1518  134.4840  155.7955 LP  0  0  0  0  0  0  0  0  0  0  0  0  # atno 17395 bound_to 11000

$$$$
