AV-unprocessed.smi:374|AV-procd|sdf|2452|dock7
  -GOLD-   2262022393D 1   1.00000     0.00000
 Structure written by MMmdl.
 37 38  0  0  0  0  0  0  0  0  1 V2000
  152.5444  138.9934  154.7738 C   0  0  0  0  0  0  0  0  0  0  0  0
  151.6813  139.1434  156.0433 C   0  0  1  0  0  0  0  0  0  0  0  0
  152.5041  139.5973  157.2583 C   0  0  0  0  0  0  0  0  0  0  0  0
  153.4523  138.9213  157.6591 O   0  0  0  0  0  0  0  0  0  0  0  0
  152.1269  140.7497  157.8355 N   0  0  0  0  0  0  0  0  0  0  0  0
  152.7757  141.3758  158.9842 C   0  0  0  0  0  0  0  0  0  0  0  0
  152.0322  142.6375  159.4717 C   0  0  0  0  0  0  0  0  0  0  0  0
  152.0802  143.7405  158.3938 C   0  0  0  0  0  0  0  0  0  0  0  0
  151.3429  145.0138  158.8387 C   0  0  0  0  0  0  0  0  0  0  0  0
  151.8985  145.5410  160.1694 C   0  0  0  0  0  0  0  0  0  0  0  0
  151.8434  144.4568  161.2552 C   0  0  0  0  0  0  0  0  0  0  0  0
  152.5791  143.1819  160.8112 C   0  0  0  0  0  0  0  0  0  0  0  0
  150.5483  140.0390  155.8441 N   0  0  0  0  0  0  0  0  0  0  0  0
  149.4429  140.1957  156.5757 C   0  0  0  0  0  0  0  0  0  0  0  0
  148.6318  141.1454  156.1313 N   0  0  0  0  0  0  0  0  0  0  0  0
  149.3542  141.5763  155.0549 C   0  0  0  0  0  0  0  0  0  0  0  0
  150.5144  140.9551  154.8440 N   0  0  0  0  0  0  0  0  0  0  0  0
  153.3484  138.2734  154.9299 H   0  0  0  0  0  0  0  0  0  0  0  0
  153.0020  139.9368  154.4731 H   0  0  0  0  0  0  0  0  0  0  0  0
  151.9449  138.6356  153.9361 H   0  0  0  0  0  0  0  0  0  0  0  0
  151.2709  138.1575  156.2697 H   0  0  0  0  0  0  0  0  0  0  0  0
  151.3342  141.2366  157.4433 H   0  0  0  0  0  0  0  0  0  0  0  0
  152.8943  140.6644  159.8034 H   0  0  0  0  0  0  0  0  0  0  0  0
  153.7856  141.6455  158.6742 H   0  0  0  0  0  0  0  0  0  0  0  0
  150.9855  142.3684  159.6229 H   0  0  0  0  0  0  0  0  0  0  0  0
  153.1183  143.9857  158.1657 H   0  0  0  0  0  0  0  0  0  0  0  0
  151.6403  143.3738  157.4656 H   0  0  0  0  0  0  0  0  0  0  0  0
  151.4319  145.7818  158.0697 H   0  0  0  0  0  0  0  0  0  0  0  0
  150.2779  144.8030  158.9436 H   0  0  0  0  0  0  0  0  0  0  0  0
  152.9293  145.8699  160.0324 H   0  0  0  0  0  0  0  0  0  0  0  0
  151.3333  146.4174  160.4884 H   0  0  0  0  0  0  0  0  0  0  0  0
  152.2807  144.8344  162.1800 H   0  0  0  0  0  0  0  0  0  0  0  0
  150.8032  144.2178  161.4799 H   0  0  0  0  0  0  0  0  0  0  0  0
  152.4824  142.4321  161.5961 H   0  0  0  0  0  0  0  0  0  0  0  0
  153.6454  143.3910  160.7144 H   0  0  0  0  0  0  0  0  0  0  0  0
  149.2291  139.6059  157.4549 H   0  0  0  0  0  0  0  0  0  0  0  0
  149.0178  142.3761  154.4115 H   0  0  0  0  0  0  0  0  0  0  0  0
  1  2  1  0  0  0  0
  1 18  1  0  0  0  0
  1 19  1  0  0  0  0
  1 20  1  0  0  0  0
  2  3  1  0  0  0  0
  2 13  1  0  0  0  0
  2 21  1  0  0  0  0
  3  4  2  0  0  0  0
  3  5  1  0  0  0  0
  5  6  1  0  0  0  0
  5 22  1  0  0  0  0
  6  7  1  0  0  0  0
  6 23  1  0  0  0  0
  6 24  1  0  0  0  0
  7 12  1  0  0  0  0
  7  8  1  0  0  0  0
  7 25  1  0  0  0  0
  8  9  1  0  0  0  0
  8 26  1  0  0  0  0
  8 27  1  0  0  0  0
  9 10  1  0  0  0  0
  9 28  1  0  0  0  0
  9 29  1  0  0  0  0
 10 11  1  0  0  0  0
 10 30  1  0  0  0  0
 10 31  1  0  0  0  0
 11 12  1  0  0  0  0
 11 32  1  0  0  0  0
 11 33  1  0  0  0  0
 12 34  1  0  0  0  0
 12 35  1  0  0  0  0
 13 17  1  0  0  0  0
 13 14  1  0  0  0  0
 14 15  2  0  0  0  0
 14 36  1  0  0  0  0
 15 16  1  0  0  0  0
 16 17  2  0  0  0  0
 16 37  1  0  0  0  0
M  END
> <s_m_source_file>
AV-unprocessed.smi

> <i_m_source_file_index>
374

> <i_lp_mmshare_version>
43012

> <i_f3d_flags>
0

> <s_epik_input>
bjFbY0hdbltjSF1uMVtDQEhdKFtDSDNdKUMoPU8pW05IXVtDSDJdW0NIXTJbQ0gyXVtDSDJdW0NIMl1bQ0gyXVtDSDJdMg==

> <s_epik_cmdline>
J2VwaWtfcHl0aG9uJywgJy1waCcsICc3LjAnLCAnLXRuJywgJzgnLCAnLW1hJywgJzIwMCcsICctbWV0YWxfYmluZGluZycsICctaW1hZScsICc8aW5maWxlLm1hZT4nLCAnLW9tYWUnLCAnPG91dGZpbGUubWFlPic=

> <r_lp_tautomer_probability>
1

> <r_epik_Ionization_Penalty>
1.24899e-05

> <r_epik_Ionization_Penalty_Charging>
0

> <r_epik_Ionization_Penalty_Neutral>
1.24899e-05

> <r_epik_State_Penalty>
-0

> <r_epik_Charging_Adjusted_Penalty>
0

> <i_epik_Tot_Q>
0

> <i_epik_Tot_abs_Q>
0

> <r_epik_Metal_State_Penalty>
-0

> <b_epik_Metal_Only>
0

> <s_lp_Force_Field>
OPLS_2005

> <r_lp_Energy>
16.3067

> <b_lp_Chiralities_Consistent>
1

> <s_lp_Variant>
AV-unprocessed.smi:374-2

> <Gold.Version>
5.8.1

> <Gold.Id.Protein>
6NUR|6NUR_protein|mol2

> <Gold.PLP.Fitness>
43.2863

> <Gold.PLP.PLP>
-37.6067

> <Gold.PLP.part.hbond>
-2.0000

> <Gold.PLP.part.metal>
0.0000

> <Gold.PLP.part.buried>
-2.1052

> <Gold.PLP.part.nonpolar>
-33.9118

> <Gold.PLP.part.repulsive>
0.2458

> <Gold.PLP.ligand.clash>
0.0000

> <Gold.PLP.ligand.torsion>
0.4536

> <Gold.PLP.Chemscore.Hbond>
1.7760

> <Gold.PLP.Chemscore.CHOScore>
0.3867

> <Gold.PLP.Chemscore.Metal>
0.0000

> <Gold.Chemscore.Hbonds>
donor molecule, donor type, donor heavy atom, donor atom, acceptor molecule, acceptor atom, score
      P1  H  7989  7998       L1    17  0.74
      P1  H  7997  8008       L1     4  0.91
      L1  C    16    37       P1  8028  0.49

> <Gold.PLP.Chemscore.Internal.Correction>
0.0986

> <Gold.Rescore>
     Score         DG    S(hbond)    S(metal)    S(lipo)     H(rot)  DE(clash)    DE(int)     intcor
     14.33     -15.87       1.31        0.00      98.26       2.14       0.10       1.45       ----

> <Gold.Chemscore.Fitness>
14.3308

> <Gold.Chemscore.DG>
-15.8730

> <Gold.Chemscore.ZeroCoef>
-5.4800

> <Gold.Chemscore.Hbond>
1.3085

> <Gold.Chemscore.Metal>
0.0000

> <Gold.Chemscore.Lipo>
98.2620

> <Gold.Chemscore.Internal_Hbond>
0.0000

> <Gold.Chemscore.DEClash>
0.0952

> <Gold.Chemscore.DEInternal>
1.4470

> <Gold.Chemscore.Rot>
2.1383

> <Gold.Chemscore.Internal.Correction>
   9.000000E+99

> <Gold.Chemscore.Hbonds>
donor molecule, donor type, donor heavy atom, donor atom, acceptor molecule, acceptor atom, score
      P1  H  7989  7998       L1    17  0.73
      P1  H  7997  8008       L1     4  0.20

> <Gold.Chemscore.Hbond.Weighted>
-4.3705

> <Gold.Chemscore.Metal.Weighted>
-0.0000

> <Gold.Chemscore.Lipo.Weighted>
-11.4966

> <Gold.Chemscore.Internal_Hbond.Weighted>
0.0000

> <Gold.Chemscore.DEClash.Weighted>
0.0952

> <Gold.Chemscore.DEInternal.Weighted>
1.4470

> <Gold.Chemscore.Rot.Weighted>
5.4741

> <Gold.Chemscore.Internal.Correction.Weighted>
   9.000000E+99

> <Gold.Protein.RotatedTorsions>
[ 6907 6896 6895 6894 ] final  142.82 input  -60.11 | X-H torsion
[ 7974 7965 7964 7962 ] final -111.93 input  175.53 | X-H torsion
[ 8008 7997 7996 7995 ] final -101.82 input   59.86 | X-H torsion
[ 10167 10162 10161 10158 ] final  -97.06 input  -65.29 | X-H torsion
[ 10718 10713 10712 10709 ] final  156.34 input   66.30 | X-H torsion
[ 10763 10752 10751 10750 ] final   75.53 input  -60.55 | X-H torsion
[ 11005 11000 10999 10996 ] final  107.83 input  -57.11 | X-H torsion

> <Gold.Protein.ActiveResidues>
 VAL166  LYS551  ARG553  GLY616  TRP617  ASP618  TYR619  PRO620  LYS621  CYS622 
 ASP623  PHE694  ASN695  SER759  ASP760  ASP761  ALA762  ILE779  LEU786  VAL792 
 PHE793  MET794  SER795  GLU796  ALA797  LYS798  CYS799  TRP800  GLU811  SER814 

> <Gold.Protein.RotatedAtoms>
  152.2140  133.4933  159.5125 H   0  0  0  0  0  0  0  0  0  0  0  0  # atno 6907 bound_to 6896
  150.6997  134.1429  159.4121 H   0  0  0  0  0  0  0  0  0  0  0  0  # atno 6908 bound_to 6896
  151.9349  135.0239  160.0582 H   0  0  0  0  0  0  0  0  0  0  0  0  # atno 6909 bound_to 6896
  145.1501  140.8824  143.3651 H   0  0  0  0  0  0  0  0  0  0  0  0  # atno 7974 bound_to 7965
  154.8480  140.0432  157.1585 H   0  0  0  0  0  0  0  0  0  0  0  0  # atno 8008 bound_to 7997
  154.8974  140.2995  155.5316 H   0  0  0  0  0  0  0  0  0  0  0  0  # atno 8009 bound_to 7997
  156.2995  140.2382  156.3997 H   0  0  0  0  0  0  0  0  0  0  0  0  # atno 8010 bound_to 7997
  140.2873  143.3244  152.0381 H   0  0  0  0  0  0  0  0  0  0  0  0  # atno 10167 bound_to 10162
  157.2063  131.0687  151.1996 H   0  0  0  0  0  0  0  0  0  0  0  0  # atno 10718 bound_to 10713
  153.0661  135.4985  154.8202 H   0  0  0  0  0  0  0  0  0  0  0  0  # atno 10763 bound_to 10752
  154.6955  135.2992  154.9420 H   0  0  0  0  0  0  0  0  0  0  0  0  # atno 10764 bound_to 10752
  154.0160  135.6748  153.4821 H   0  0  0  0  0  0  0  0  0  0  0  0  # atno 10765 bound_to 10752
  139.8834  134.9412  156.5879 H   0  0  0  0  0  0  0  0  0  0  0  0  # atno 11005 bound_to 11000
  145.0439  139.3237  143.5962 LP  0  0  0  0  0  0  0  0  0  0  0  0  # atno 17320 bound_to 7965
  146.3495  139.9823  142.8694 LP  0  0  0  0  0  0  0  0  0  0  0  0  # atno 17321 bound_to 7965
  139.4947  144.6550  151.6593 LP  0  0  0  0  0  0  0  0  0  0  0  0  # atno 17342 bound_to 10162
  140.5762  144.0025  150.6243 LP  0  0  0  0  0  0  0  0  0  0  0  0  # atno 17343 bound_to 10162
  157.3717  130.7184  149.6569 LP  0  0  0  0  0  0  0  0  0  0  0  0  # atno 17370 bound_to 10713
  155.9695  130.4197  150.4387 LP  0  0  0  0  0  0  0  0  0  0  0  0  # atno 17371 bound_to 10713
  140.7977  133.8530  155.8700 LP  0  0  0  0  0  0  0  0  0  0  0  0  # atno 17394 bound_to 11000
  140.9620  134.1643  157.4646 LP  0  0  0  0  0  0  0  0  0  0  0  0  # atno 17395 bound_to 11000

$$$$
