AV-unprocessed.smi:332|AV-procd|sdf|2352|dock3
  -GOLD-   2262022263D 1   1.00000     0.00000
 Structure written by MMmdl.
 42 44  0  0  0  0  0  0  0  0  1 V2000
  150.5931  137.9590  154.8877 C   0  0  0  0  0  0  0  0  0  0  0  0
  150.6514  139.4954  154.9053 C   0  0  2  0  0  0  0  0  0  0  0  0
  150.6225  139.9383  156.2983 N   0  0  0  0  0  0  0  0  0  0  0  0
  151.6688  139.9662  157.1387 C   0  0  0  0  0  0  0  0  0  0  0  0
  152.7972  139.5793  156.8329 O   0  0  0  0  0  0  0  0  0  0  0  0
  151.3877  140.5110  158.5454 C   0  0  0  0  0  0  0  0  0  0  0  0
  151.7898  141.9186  158.7014 N   0  0  0  0  0  0  0  0  0  0  0  0
  152.5248  142.2540  159.8557 C   0  0  0  0  0  0  0  0  0  0  0  0
  152.9438  143.5073  160.0917 C   0  0  0  0  0  0  0  0  0  0  0  0
  152.6225  144.5283  159.1227 C   0  0  0  0  0  0  0  0  0  0  0  0
  151.9227  144.2179  158.0134 C   0  0  0  0  0  0  0  0  0  0  0  0
  151.4641  142.8488  157.7506 C   0  0  0  0  0  0  0  0  0  0  0  0
  150.8262  142.5560  156.7385 O   0  0  0  0  0  0  0  0  0  0  0  0
  149.4854  140.1362  154.1097 C   0  0  2  0  0  0  0  0  0  0  0  0
  149.2271  141.6162  154.4854 C   0  0  0  0  0  0  0  0  0  0  0  0
  147.7292  141.6385  154.8374 C   0  0  1  0  0  0  0  0  0  0  0  0
  146.8968  141.4353  153.5588 C   0  0  0  0  0  0  0  0  0  0  0  0
  147.1283  139.9470  153.2403 C   0  0  0  0  0  0  0  0  0  0  0  0
  148.0899  139.5044  154.3599 C   0  0  2  0  0  0  0  0  0  0  0  0
  147.5603  140.3016  155.5466 C   0  0  0  0  0  0  0  0  0  0  0  0
  150.6598  137.5651  153.8739 H   0  0  0  0  0  0  0  0  0  0  0  0
  149.6635  137.5923  155.3245 H   0  0  0  0  0  0  0  0  0  0  0  0
  151.4191  137.5295  155.4557 H   0  0  0  0  0  0  0  0  0  0  0  0
  151.5942  139.7911  154.4426 H   0  0  0  0  0  0  0  0  0  0  0  0
  149.7354  140.2738  156.6448 H   0  0  0  0  0  0  0  0  0  0  0  0
  150.3278  140.3996  158.7820 H   0  0  0  0  0  0  0  0  0  0  0  0
  151.9094  139.8772  159.2636 H   0  0  0  0  0  0  0  0  0  0  0  0
  152.7304  141.4326  160.5267 H   0  0  0  0  0  0  0  0  0  0  0  0
  153.5101  143.7443  160.9802 H   0  0  0  0  0  0  0  0  0  0  0  0
  152.9466  145.5454  159.2869 H   0  0  0  0  0  0  0  0  0  0  0  0
  151.6934  144.9948  157.2987 H   0  0  0  0  0  0  0  0  0  0  0  0
  149.7244  140.0625  153.0473 H   0  0  0  0  0  0  0  0  0  0  0  0
  149.8115  141.9172  155.3559 H   0  0  0  0  0  0  0  0  0  0  0  0
  149.4736  142.2991  153.6717 H   0  0  0  0  0  0  0  0  0  0  0  0
  147.4308  142.5104  155.4204 H   0  0  0  0  0  0  0  0  0  0  0  0
  145.8396  141.6272  153.7463 H   0  0  0  0  0  0  0  0  0  0  0  0
  147.2189  142.0904  152.7485 H   0  0  0  0  0  0  0  0  0  0  0  0
  146.1895  139.3942  153.2973 H   0  0  0  0  0  0  0  0  0  0  0  0
  147.5445  139.7912  152.2444 H   0  0  0  0  0  0  0  0  0  0  0  0
  148.0911  138.4241  154.5020 H   0  0  0  0  0  0  0  0  0  0  0  0
  148.1712  140.2043  156.4454 H   0  0  0  0  0  0  0  0  0  0  0  0
  146.5226  140.0706  155.7940 H   0  0  0  0  0  0  0  0  0  0  0  0
  1  2  1  0  0  0  0
  1 21  1  0  0  0  0
  1 22  1  0  0  0  0
  1 23  1  0  0  0  0
  2  3  1  0  0  0  0
  2 14  1  0  0  0  0
  2 24  1  0  0  0  0
  3  4  1  0  0  0  0
  3 25  1  0  0  0  0
  4  5  2  0  0  0  0
  4  6  1  0  0  0  0
  6  7  1  0  0  0  0
  6 26  1  0  0  0  0
  6 27  1  0  0  0  0
  7 12  1  0  0  0  0
  7  8  1  0  0  0  0
  8  9  2  0  0  0  0
  8 28  1  0  0  0  0
  9 10  1  0  0  0  0
  9 29  1  0  0  0  0
 10 11  2  0  0  0  0
 10 30  1  0  0  0  0
 11 12  1  0  0  0  0
 11 31  1  0  0  0  0
 12 13  2  0  0  0  0
 14 19  1  0  0  0  0
 14 15  1  0  0  0  0
 14 32  1  0  0  0  0
 15 16  1  0  0  0  0
 15 33  1  0  0  0  0
 15 34  1  0  0  0  0
 16 20  1  0  0  0  0
 16 17  1  0  0  0  0
 16 35  1  0  0  0  0
 17 18  1  0  0  0  0
 17 36  1  0  0  0  0
 17 37  1  0  0  0  0
 18 19  1  0  0  0  0
 18 38  1  0  0  0  0
 18 39  1  0  0  0  0
 19 20  1  0  0  0  0
 19 40  1  0  0  0  0
 20 41  1  0  0  0  0
 20 42  1  0  0  0  0
M  END
> <s_m_source_file>
AV-unprocessed.smi

> <i_m_source_file_index>
332

> <i_lp_mmshare_version>
43012

> <i_f3d_flags>
0

> <s_epik_input>
W0NIMl0xW0NIMl1bQ0BIXShbQ0gyXTIpW0NAQEhdKFtDSDJdW0NAQEhdMTIpW0NASF0oW0NIM10pW05IXUMoPU8pW0NIMl1uM1tjSF1bY0hdW2NIXVtjSF1jMz1P

> <s_epik_cmdline>
J2VwaWtfcHl0aG9uJywgJy1waCcsICc3LjAnLCAnLXRuJywgJzgnLCAnLW1hJywgJzIwMCcsICctbWV0YWxfYmluZGluZycsICctaW1hZScsICc8aW5maWxlLm1hZT4nLCAnLW9tYWUnLCAnPG91dGZpbGUubWFlPic=

> <r_lp_tautomer_probability>
1

> <r_epik_Ionization_Penalty>
4.05802e-07

> <r_epik_Ionization_Penalty_Charging>
3.84175e-07

> <r_epik_Ionization_Penalty_Neutral>
2.16269e-08

> <r_epik_State_Penalty>
-0

> <r_epik_Charging_Adjusted_Penalty>
3.84175e-07

> <i_epik_Tot_Q>
0

> <i_epik_Tot_abs_Q>
0

> <r_epik_Metal_State_Penalty>
-0

> <b_epik_Metal_Only>
0

> <s_lp_Force_Field>
OPLS_2005

> <r_lp_Energy>
59.6993

> <b_lp_Chiralities_Consistent>
1

> <s_lp_Variant>
AV-unprocessed.smi:332-1

> <Gold.Version>
5.8.1

> <Gold.Id.Protein>
6NUR|6NUR_protein|mol2

> <Gold.PLP.Fitness>
44.1579

> <Gold.PLP.PLP>
-43.3039

> <Gold.PLP.part.hbond>
-1.0000

> <Gold.PLP.part.metal>
0.0000

> <Gold.PLP.part.buried>
-0.6720

> <Gold.PLP.part.nonpolar>
-40.8239

> <Gold.PLP.part.repulsive>
0.6721

> <Gold.PLP.ligand.clash>
0.0000

> <Gold.PLP.ligand.torsion>
1.0869

> <Gold.PLP.Chemscore.Hbond>
1.0000

> <Gold.PLP.Chemscore.CHOScore>
0.0000

> <Gold.PLP.Chemscore.Metal>
0.0000

> <Gold.Chemscore.Hbonds>
donor molecule, donor type, donor heavy atom, donor atom, acceptor molecule, acceptor atom, score
      P1  H  7997  8009       L1     5  1.00

> <Gold.PLP.Chemscore.Internal.Correction>
0.0277

> <Gold.Rescore>
     Score         DG    S(hbond)    S(metal)    S(lipo)     H(rot)  DE(clash)    DE(int)     intcor
     13.86     -18.20       0.98        0.00     114.42       1.54       1.07       3.28       ----

> <Gold.Chemscore.Fitness>
13.8591

> <Gold.Chemscore.DG>
-18.2049

> <Gold.Chemscore.ZeroCoef>
-5.4800

> <Gold.Chemscore.Hbond>
0.9819

> <Gold.Chemscore.Metal>
0.0000

> <Gold.Chemscore.Lipo>
114.4214

> <Gold.Chemscore.Internal_Hbond>
0.0000

> <Gold.Chemscore.DEClash>
1.0653

> <Gold.Chemscore.DEInternal>
3.2805

> <Gold.Chemscore.Rot>
1.5398

> <Gold.Chemscore.Internal.Correction>
   9.000000E+99

> <Gold.Chemscore.Hbonds>
donor molecule, donor type, donor heavy atom, donor atom, acceptor molecule, acceptor atom, score
      P1  H  7997  8009       L1     5  1.00

> <Gold.Chemscore.Hbond.Weighted>
-3.2795

> <Gold.Chemscore.Metal.Weighted>
-0.0000

> <Gold.Chemscore.Lipo.Weighted>
-13.3873

> <Gold.Chemscore.Internal_Hbond.Weighted>
0.0000

> <Gold.Chemscore.DEClash.Weighted>
1.0653

> <Gold.Chemscore.DEInternal.Weighted>
3.2805

> <Gold.Chemscore.Rot.Weighted>
3.9419

> <Gold.Chemscore.Internal.Correction.Weighted>
   9.000000E+99

> <Gold.Protein.RotatedTorsions>
[ 6907 6896 6895 6894 ] final  -30.04 input  -60.11 | X-H torsion
[ 7974 7965 7964 7962 ] final   19.05 input  175.53 | X-H torsion
[ 8008 7997 7996 7995 ] final  175.98 input   59.86 | X-H torsion
[ 10167 10162 10161 10158 ] final  104.61 input  -65.29 | X-H torsion
[ 10718 10713 10712 10709 ] final  160.43 input   66.30 | X-H torsion
[ 10763 10752 10751 10750 ] final -176.38 input  -60.55 | X-H torsion
[ 11005 11000 10999 10996 ] final  137.91 input  -57.11 | X-H torsion

> <Gold.Protein.ActiveResidues>
 VAL166  LYS551  ARG553  GLY616  TRP617  ASP618  TYR619  PRO620  LYS621  CYS622 
 ASP623  PHE694  ASN695  SER759  ASP760  ASP761  ALA762  ILE779  LEU786  VAL792 
 PHE793  MET794  SER795  GLU796  ALA797  LYS798  CYS799  TRP800  GLU811  SER814 

> <Gold.Protein.RotatedAtoms>
  151.1110  135.0026  159.8493 H   0  0  0  0  0  0  0  0  0  0  0  0  # atno 6907 bound_to 6896
  152.5443  134.1836  159.8655 H   0  0  0  0  0  0  0  0  0  0  0  0  # atno 6908 bound_to 6896
  151.1886  133.4636  159.2628 H   0  0  0  0  0  0  0  0  0  0  0  0  # atno 6909 bound_to 6896
  146.2163  139.8369  142.8649 H   0  0  0  0  0  0  0  0  0  0  0  0  # atno 7974 bound_to 7965
  156.0813  140.1395  156.9708 H   0  0  0  0  0  0  0  0  0  0  0  0  # atno 8008 bound_to 7997
  154.4587  140.0951  156.6880 H   0  0  0  0  0  0  0  0  0  0  0  0  # atno 8009 bound_to 7997
  155.5070  140.3452  155.4383 H   0  0  0  0  0  0  0  0  0  0  0  0  # atno 8010 bound_to 7997
  139.7163  144.7067  151.0945 H   0  0  0  0  0  0  0  0  0  0  0  0  # atno 10167 bound_to 10162
  157.1504  131.0562  151.2283 H   0  0  0  0  0  0  0  0  0  0  0  0  # atno 10718 bound_to 10713
  154.5730  135.2829  155.0809 H   0  0  0  0  0  0  0  0  0  0  0  0  # atno 10763 bound_to 10752
  154.2174  135.6397  153.5138 H   0  0  0  0  0  0  0  0  0  0  0  0  # atno 10764 bound_to 10752
  153.0063  135.5506  154.6359 H   0  0  0  0  0  0  0  0  0  0  0  0  # atno 10765 bound_to 10752
  140.0146  134.9424  157.0350 H   0  0  0  0  0  0  0  0  0  0  0  0  # atno 11005 bound_to 11000
  145.2939  141.0175  143.3647 LP  0  0  0  0  0  0  0  0  0  0  0  0  # atno 17320 bound_to 7965
  144.9056  139.4593  143.6611 LP  0  0  0  0  0  0  0  0  0  0  0  0  # atno 17321 bound_to 7965
  140.7744  143.5225  150.9519 LP  0  0  0  0  0  0  0  0  0  0  0  0  # atno 17342 bound_to 10162
  139.8911  143.6951  152.3145 LP  0  0  0  0  0  0  0  0  0  0  0  0  # atno 17343 bound_to 10162
  157.4225  130.7445  149.6925 LP  0  0  0  0  0  0  0  0  0  0  0  0  # atno 17370 bound_to 10713
  155.9771  130.4067  150.3731 LP  0  0  0  0  0  0  0  0  0  0  0  0  # atno 17371 bound_to 10713
  140.4493  134.1599  155.7180 LP  0  0  0  0  0  0  0  0  0  0  0  0  # atno 17394 bound_to 11000
  141.1734  133.8562  157.1498 LP  0  0  0  0  0  0  0  0  0  0  0  0  # atno 17395 bound_to 11000

$$$$
