AV-unprocessed.smi:177|AV-procd|sdf|1441|dock1
  -GOLD-   2262019223D 1   1.00000     0.00000
 Structure written by MMmdl.
 61 65  0  0  0  0  0  0  0  0  1 V2000
  147.7400  141.4201  154.2616 C   0  0  0  0  0  0  0  0  0  0  0  0
  148.6444  140.3997  153.8675 O   0  0  0  0  0  0  0  0  0  0  0  0
  149.4991  139.9432  154.9078 C   0  0  2  0  0  0  0  0  0  0  0  0
  150.1039  141.1325  155.6809 C   0  0  0  0  0  0  0  0  0  0  0  0
  151.1340  140.6637  156.7204 C   0  0  0  0  0  0  0  0  0  0  0  0
  152.2517  139.8361  156.0552 C   0  0  1  0  0  0  0  0  0  0  0  0
  153.2664  139.4301  156.9758 O   0  0  0  0  0  0  0  0  0  0  0  0
  152.8986  138.3575  157.8366 C   0  0  0  0  0  0  0  0  0  0  0  0
  152.5045  137.1306  156.9969 C   0  0  0  0  0  0  0  0  0  0  0  0
  151.4343  137.4639  156.0639 N   0  0  0  0  0  0  0  0  0  0  0  0
  150.1726  137.1794  156.4664 C   0  0  0  0  0  0  0  0  0  0  0  0
  149.1634  137.1424  155.5583 N   0  0  0  0  0  0  0  0  0  0  0  0
  147.9227  136.8345  155.9451 C   0  0  0  0  0  0  0  0  0  0  0  0
  147.4789  136.5486  157.1702 N   0  0  0  0  0  0  0  0  0  0  0  0
  148.4816  136.6197  158.0916 C   0  0  0  0  0  0  0  0  0  0  0  0
  149.8457  136.9260  157.8263 C   0  0  0  0  0  0  0  0  0  0  0  0
  150.5761  136.9035  159.0073 N   0  0  0  0  0  0  0  0  0  0  0  0
  149.6984  136.5792  159.9163 C   0  0  0  0  0  0  0  0  0  0  0  0
  148.4098  136.4120  159.4586 N   0  0  0  0  0  0  0  0  0  0  0  0
  147.2466  136.0489  160.2549 C   0  0  0  0  0  0  0  0  0  0  0  0
  147.0915  134.5291  160.5867 C   0  0  0  0  0  0  0  0  0  0  0  0
  147.0545  133.6718  159.2896 C   0  0  0  0  0  0  0  0  0  0  0  0
  146.8092  132.2987  159.5226 O   0  0  0  0  0  0  0  0  0  0  0  0
  148.1988  134.0005  161.5348 C   0  0  0  0  0  0  0  0  0  0  0  0
  148.0842  134.5663  162.9622 C   0  0  0  0  0  0  0  0  0  0  0  0
  146.8025  134.2715  163.5012 O   0  0  0  0  0  0  0  0  0  0  0  0
  145.7445  134.8646  162.7604 C   0  0  0  0  0  0  0  0  0  0  0  0
  145.7426  134.3175  161.3209 C   0  0  0  0  0  0  0  0  0  0  0  0
  151.7231  138.6382  155.2251 C   0  0  1  0  0  0  0  0  0  0  0  0
  150.6078  139.0935  154.2490 C   0  0  0  0  0  0  0  0  0  0  0  0
  147.1208  141.7035  153.4106 H   0  0  0  0  0  0  0  0  0  0  0  0
  148.2597  142.3141  154.6060 H   0  0  0  0  0  0  0  0  0  0  0  0
  147.0765  141.0729  155.0547 H   0  0  0  0  0  0  0  0  0  0  0  0
  148.9228  139.3208  155.5909 H   0  0  0  0  0  0  0  0  0  0  0  0
  150.5814  141.8187  154.9802 H   0  0  0  0  0  0  0  0  0  0  0  0
  149.3218  141.7009  156.1835 H   0  0  0  0  0  0  0  0  0  0  0  0
  151.5687  141.5301  157.2192 H   0  0  0  0  0  0  0  0  0  0  0  0
  150.6280  140.0922  157.4955 H   0  0  0  0  0  0  0  0  0  0  0  0
  152.7539  140.5091  155.3589 H   0  0  0  0  0  0  0  0  0  0  0  0
  153.7513  138.1126  158.4698 H   0  0  0  0  0  0  0  0  0  0  0  0
  152.0958  138.6615  158.5075 H   0  0  0  0  0  0  0  0  0  0  0  0
  153.3646  136.7809  156.4252 H   0  0  0  0  0  0  0  0  0  0  0  0
  152.2071  136.3052  157.6454 H   0  0  0  0  0  0  0  0  0  0  0  0
  147.1806  136.8120  155.1610 H   0  0  0  0  0  0  0  0  0  0  0  0
  149.9661  136.4670  160.9570 H   0  0  0  0  0  0  0  0  0  0  0  0
  147.2781  136.6493  161.1630 H   0  0  0  0  0  0  0  0  0  0  0  0
  146.3640  136.3937  159.7144 H   0  0  0  0  0  0  0  0  0  0  0  0
  146.2624  134.0165  158.6241 H   0  0  0  0  0  0  0  0  0  0  0  0
  147.9882  133.7752  158.7357 H   0  0  0  0  0  0  0  0  0  0  0  0
  146.1960  131.9883  158.8737 H   0  0  0  0  0  0  0  0  0  0  0  0
  148.1265  132.9137  161.5982 H   0  0  0  0  0  0  0  0  0  0  0  0
  149.1912  134.2049  161.1344 H   0  0  0  0  0  0  0  0  0  0  0  0
  148.8420  134.1125  163.6007 H   0  0  0  0  0  0  0  0  0  0  0  0
  148.2616  135.6414  162.9863 H   0  0  0  0  0  0  0  0  0  0  0  0
  144.8017  134.6187  163.2495 H   0  0  0  0  0  0  0  0  0  0  0  0
  145.8293  135.9513  162.7816 H   0  0  0  0  0  0  0  0  0  0  0  0
  144.9252  134.7657  160.7546 H   0  0  0  0  0  0  0  0  0  0  0  0
  145.5166  133.2518  161.3770 H   0  0  0  0  0  0  0  0  0  0  0  0
  152.5505  138.3052  154.5972 H   0  0  0  0  0  0  0  0  0  0  0  0
  150.1822  138.2470  153.7136 H   0  0  0  0  0  0  0  0  0  0  0  0
  151.0766  139.7063  153.4779 H   0  0  0  0  0  0  0  0  0  0  0  0
  1  2  1  0  0  0  0
  1 31  1  0  0  0  0
  1 32  1  0  0  0  0
  1 33  1  0  0  0  0
  2  3  1  0  0  0  0
  3 30  1  0  0  0  0
  3  4  1  0  0  0  0
  3 34  1  0  0  0  0
  4  5  1  0  0  0  0
  4 35  1  0  0  0  0
  4 36  1  0  0  0  0
  5  6  1  0  0  0  0
  5 37  1  0  0  0  0
  5 38  1  0  0  0  0
  6 29  1  0  0  0  0
  6  7  1  0  0  0  0
  6 39  1  0  0  0  0
  7  8  1  0  0  0  0
  8  9  1  0  0  0  0
  8 40  1  0  0  0  0
  8 41  1  0  0  0  0
  9 10  1  0  0  0  0
  9 42  1  0  0  0  0
  9 43  1  0  0  0  0
 10 11  1  0  0  0  0
 10 29  1  0  0  0  0
 11 16  1  0  0  0  0
 11 12  2  0  0  0  0
 12 13  1  0  0  0  0
 13 14  2  0  0  0  0
 13 44  1  0  0  0  0
 14 15  1  0  0  0  0
 15 19  1  0  0  0  0
 15 16  2  0  0  0  0
 16 17  1  0  0  0  0
 17 18  2  0  0  0  0
 18 19  1  0  0  0  0
 18 45  1  0  0  0  0
 19 20  1  0  0  0  0
 20 21  1  0  0  0  0
 20 46  1  0  0  0  0
 20 47  1  0  0  0  0
 21 28  1  0  0  0  0
 21 22  1  0  0  0  0
 21 24  1  0  0  0  0
 22 23  1  0  0  0  0
 22 48  1  0  0  0  0
 22 49  1  0  0  0  0
 23 50  1  0  0  0  0
 24 25  1  0  0  0  0
 24 51  1  0  0  0  0
 24 52  1  0  0  0  0
 25 26  1  0  0  0  0
 25 53  1  0  0  0  0
 25 54  1  0  0  0  0
 26 27  1  0  0  0  0
 27 28  1  0  0  0  0
 27 55  1  0  0  0  0
 27 56  1  0  0  0  0
 28 57  1  0  0  0  0
 28 58  1  0  0  0  0
 29 30  1  0  0  0  0
 29 59  1  0  0  0  0
 30 60  1  0  0  0  0
 30 61  1  0  0  0  0
M  END
> <s_m_source_file>
AV-unprocessed.smi

> <i_m_source_file_index>
177

> <i_lp_mmshare_version>
43012

> <i_f3d_flags>
0

> <s_epik_input>
W0NIM11PW0NASF0oW0NIMl1bQ0gyXTEpW0NIMl1bQ0BIXShbQ0BASF0xMilOKFtDSDJdW0NIMl1PMiljKG5bY0hdbjMpYyhjMzQpbltjSF1uNFtDSDJdQzUoW0NIMl1bT0hdKVtDSDJdW0NIMl1PW0NIMl1bQ0gyXTU=

> <s_epik_cmdline>
J2VwaWtfcHl0aG9uJywgJy1waCcsICc3LjAnLCAnLXRuJywgJzgnLCAnLW1hJywgJzIwMCcsICctbWV0YWxfYmluZGluZycsICctaW1hZScsICc8aW5maWxlLm1hZT4nLCAnLW9tYWUnLCAnPG91dGZpbGUubWFlPic=

> <r_lp_tautomer_probability>
1

> <r_epik_Ionization_Penalty>
0.0065899

> <r_epik_Ionization_Penalty_Charging>
0

> <r_epik_Ionization_Penalty_Neutral>
0.0065899

> <r_epik_State_Penalty>
0.00470042

> <r_epik_Charging_Adjusted_Penalty>
0.00470042

> <i_epik_Tot_Q>
0

> <i_epik_Tot_abs_Q>
0

> <r_epik_Metal_State_Penalty>
-0

> <b_epik_Metal_Only>
0

> <s_lp_Force_Field>
OPLS_2005

> <r_lp_Energy>
52.4416

> <b_lp_Chiralities_Consistent>
1

> <s_lp_Variant>
AV-unprocessed.smi:177-5

> <Gold.Version>
5.8.1

> <Gold.Id.Protein>
6NUR|6NUR_protein|mol2

> <Gold.PLP.Fitness>
39.9659

> <Gold.PLP.PLP>
-37.3843

> <Gold.PLP.part.hbond>
-2.7521

> <Gold.PLP.part.metal>
0.0000

> <Gold.PLP.part.buried>
-6.3945

> <Gold.PLP.part.nonpolar>
-31.0552

> <Gold.PLP.part.repulsive>
2.3006

> <Gold.PLP.ligand.clash>
0.0000

> <Gold.PLP.ligand.torsion>
0.9344

> <Gold.PLP.Chemscore.Hbond>
1.1235

> <Gold.PLP.Chemscore.CHOScore>
0.0000

> <Gold.PLP.Chemscore.Metal>
0.0000

> <Gold.Chemscore.Hbonds>
donor molecule, donor type, donor heavy atom, donor atom, acceptor molecule, acceptor atom, score
      P1  H  7997  8010       L1     7  0.49

> <Gold.PLP.Chemscore.Internal.Correction>
1.0799

> <Gold.Rescore>
     Score         DG    S(hbond)    S(metal)    S(lipo)     H(rot)  DE(clash)    DE(int)     intcor
      6.06     -14.12       0.96        0.00      97.25       2.32       1.97       6.08       ----

> <Gold.Chemscore.Fitness>
6.0626

> <Gold.Chemscore.DG>
-14.1175

> <Gold.Chemscore.ZeroCoef>
-5.4800

> <Gold.Chemscore.Hbond>
0.9554

> <Gold.Chemscore.Metal>
0.0000

> <Gold.Chemscore.Lipo>
97.2468

> <Gold.Chemscore.Internal_Hbond>
0.0000

> <Gold.Chemscore.DEClash>
1.9740

> <Gold.Chemscore.DEInternal>
6.0809

> <Gold.Chemscore.Rot>
2.3169

> <Gold.Chemscore.Internal.Correction>
   9.000000E+99

> <Gold.Chemscore.Hbonds>
donor molecule, donor type, donor heavy atom, donor atom, acceptor molecule, acceptor atom, score
      P1  H  7997  8010       L1     7  0.37

> <Gold.Chemscore.Hbond.Weighted>
-3.1909

> <Gold.Chemscore.Metal.Weighted>
-0.0000

> <Gold.Chemscore.Lipo.Weighted>
-11.3779

> <Gold.Chemscore.Internal_Hbond.Weighted>
0.0000

> <Gold.Chemscore.DEClash.Weighted>
1.9740

> <Gold.Chemscore.DEInternal.Weighted>
6.0809

> <Gold.Chemscore.Rot.Weighted>
5.9313

> <Gold.Chemscore.Internal.Correction.Weighted>
   9.000000E+99

> <Gold.Protein.RotatedTorsions>
[ 6907 6896 6895 6894 ] final  101.68 input  -60.11 | X-H torsion
[ 7974 7965 7964 7962 ] final  -16.75 input  175.53 | X-H torsion
[ 8008 7997 7996 7995 ] final   55.44 input   59.86 | X-H torsion
[ 10167 10162 10161 10158 ] final -156.08 input  -65.29 | X-H torsion
[ 10718 10713 10712 10709 ] final  -32.14 input   66.30 | X-H torsion
[ 10763 10752 10751 10750 ] final -156.75 input  -60.55 | X-H torsion
[ 11005 11000 10999 10996 ] final  154.97 input  -57.11 | X-H torsion

> <Gold.Protein.ActiveResidues>
 VAL166  LYS551  ARG553  GLY616  TRP617  ASP618  TYR619  PRO620  LYS621  CYS622 
 ASP623  PHE694  ASN695  SER759  ASP760  ASP761  ALA762  ILE779  LEU786  VAL792 
 PHE793  MET794  SER795  GLU796  ALA797  LYS798  CYS799  TRP800  GLU811  SER814 

> <Gold.Protein.RotatedAtoms>
  152.5343  134.0089  159.7928 H   0  0  0  0  0  0  0  0  0  0  0  0  # atno 6907 bound_to 6896
  151.0295  133.5795  159.2669 H   0  0  0  0  0  0  0  0  0  0  0  0  # atno 6908 bound_to 6896
  151.2806  135.0719  159.9221 H   0  0  0  0  0  0  0  0  0  0  0  0  # atno 6909 bound_to 6896
  146.1973  140.3681  142.8436 H   0  0  0  0  0  0  0  0  0  0  0  0  # atno 7974 bound_to 7965
  155.5012  140.3474  155.4371 H   0  0  0  0  0  0  0  0  0  0  0  0  # atno 8008 bound_to 7997
  156.0912  140.1411  156.9617 H   0  0  0  0  0  0  0  0  0  0  0  0  # atno 8009 bound_to 7997
  154.4636  140.0925  156.6938 H   0  0  0  0  0  0  0  0  0  0  0  0  # atno 8010 bound_to 7997
  139.6879  143.9470  152.2370 H   0  0  0  0  0  0  0  0  0  0  0  0  # atno 10167 bound_to 10162
  156.3785  130.4352  149.7488 H   0  0  0  0  0  0  0  0  0  0  0  0  # atno 10718 bound_to 10713
  154.7689  135.3139  154.8230 H   0  0  0  0  0  0  0  0  0  0  0  0  # atno 10763 bound_to 10752
  153.8971  135.6819  153.4761 H   0  0  0  0  0  0  0  0  0  0  0  0  # atno 10764 bound_to 10752
  153.1299  135.4785  154.9266 H   0  0  0  0  0  0  0  0  0  0  0  0  # atno 10765 bound_to 10752
  140.1538  134.8657  157.2488 H   0  0  0  0  0  0  0  0  0  0  0  0  # atno 11005 bound_to 11000
  144.8607  140.7136  143.6109 LP  0  0  0  0  0  0  0  0  0  0  0  0  # atno 17320 bound_to 7965
  145.3601  139.1684  143.4388 LP  0  0  0  0  0  0  0  0  0  0  0  0  # atno 17321 bound_to 7965
  139.9278  144.6760  150.8394 LP  0  0  0  0  0  0  0  0  0  0  0  0  # atno 17342 bound_to 10162
  140.7673  143.3330  151.2369 LP  0  0  0  0  0  0  0  0  0  0  0  0  # atno 17343 bound_to 10162
  156.4587  130.7941  151.2962 LP  0  0  0  0  0  0  0  0  0  0  0  0  # atno 17370 bound_to 10713
  157.7490  131.0072  150.3182 LP  0  0  0  0  0  0  0  0  0  0  0  0  # atno 17371 bound_to 10713
  140.2573  134.3613  155.7419 LP  0  0  0  0  0  0  0  0  0  0  0  0  # atno 17394 bound_to 11000
  141.2202  133.7349  156.9026 LP  0  0  0  0  0  0  0  0  0  0  0  0  # atno 17395 bound_to 11000

$$$$
