AV-unprocessed.smi:634|AV-procd|sdf|3136|dock10
  -GOLD-   22720 0 63D 1   1.00000     0.00000
 Structure written by MMmdl.
 32 33  0  0  0  0  0  0  0  0  2 V2000
  144.6187  134.7276  162.6591 C   0  0  0  0  0  0  0  0  0  0  0  0
  145.7213  135.5020  162.0219 C   0  0  0  0  0  0  0  0  0  0  0  0
  147.0360  135.2187  161.7830 C   0  0  0  0  0  0  0  0  0  0  0  0
  147.5097  136.3942  161.1386 C   0  0  0  0  0  0  0  0  0  0  0  0
  148.7641  136.6094  160.7125 N   0  5  0  0  0  0  0  0  0  0  0  0
  149.0383  136.6435  159.3880 C   0  0  0  0  0  0  0  0  0  0  0  0
  149.3294  135.6756  158.6825 O   0  0  0  0  0  0  0  0  0  0  0  0
  148.9698  137.8790  158.8629 N   0  0  0  0  0  0  0  0  0  0  0  0
  149.1911  138.3313  157.4821 C   0  0  2  0  0  0  0  0  0  0  0  0
  148.9107  139.8482  157.4702 C   0  0  0  0  0  0  0  0  0  0  0  0
  148.2439  137.6295  156.4714 C   0  0  0  0  0  0  0  0  0  0  0  0
  148.7667  137.8414  155.0428 C   0  0  0  0  0  0  0  0  0  0  0  0
  150.5862  138.0176  155.1790 S   0  0  0  0  0  0  0  0  0  0  0  0
  151.2375  136.7847  154.7112 O   0  0  0  0  0  0  0  0  0  0  0  0
  150.9783  139.3289  154.6399 O   0  0  0  0  0  0  0  0  0  0  0  0
  150.6408  138.0697  157.0106 C   0  0  0  0  0  0  0  0  0  0  0  0
  146.5698  137.3161  161.0137 N   0  0  0  0  0  0  0  0  0  0  0  0
  145.4180  136.7494  161.5724 O   0  0  0  0  0  0  0  0  0  0  0  0
  144.7718  134.6553  163.7357 H   0  0  0  0  0  0  0  0  0  0  0  0
  144.5740  133.7163  162.2547 H   0  0  0  0  0  0  0  0  0  0  0  0
  143.6530  135.2028  162.4850 H   0  0  0  0  0  0  0  0  0  0  0  0
  147.5738  134.3145  162.0257 H   0  0  0  0  0  0  0  0  0  0  0  0
  148.7232  138.6083  159.5160 H   0  0  0  0  0  0  0  0  0  0  0  0
  149.0609  140.2856  156.4833 H   0  0  0  0  0  0  0  0  0  0  0  0
  149.5682  140.3772  158.1613 H   0  0  0  0  0  0  0  0  0  0  0  0
  147.8838  140.0632  157.7686 H   0  0  0  0  0  0  0  0  0  0  0  0
  148.2244  136.5554  156.6497 H   0  0  0  0  0  0  0  0  0  0  0  0
  147.2131  137.9705  156.5718 H   0  0  0  0  0  0  0  0  0  0  0  0
  148.5185  137.0149  154.3768 H   0  0  0  0  0  0  0  0  0  0  0  0
  148.3700  138.7621  154.6155 H   0  0  0  0  0  0  0  0  0  0  0  0
  151.3475  138.8306  157.3422 H   0  0  0  0  0  0  0  0  0  0  0  0
  151.0174  137.1031  157.3419 H   0  0  0  0  0  0  0  0  0  0  0  0
  1  2  1  0  0  0  0
  1 19  1  0  0  0  0
  1 20  1  0  0  0  0
  1 21  1  0  0  0  0
  2 18  1  0  0  0  0
  2  3  2  0  0  0  0
  3  4  1  0  0  0  0
  3 22  1  0  0  0  0
  4  5  1  0  0  0  0
  4 17  2  0  0  0  0
  5  6  1  0  0  0  0
  6  7  2  0  0  0  0
  6  8  1  0  0  0  0
  8  9  1  0  0  0  0
  8 23  1  0  0  0  0
  9 16  1  0  0  0  0
  9 10  1  0  0  0  0
  9 11  1  0  0  0  0
 10 24  1  0  0  0  0
 10 25  1  0  0  0  0
 10 26  1  0  0  0  0
 11 12  1  0  0  0  0
 11 27  1  0  0  0  0
 11 28  1  0  0  0  0
 12 13  1  0  0  0  0
 12 29  1  0  0  0  0
 12 30  1  0  0  0  0
 13 14  2  0  0  0  0
 13 15  2  0  0  0  0
 13 16  1  0  0  0  0
 16 31  1  0  0  0  0
 16 32  1  0  0  0  0
 17 18  1  0  0  0  0
M  CHG  1   5  -1
M  END
> <s_m_source_file>
AV-unprocessed.smi

> <i_m_source_file_index>
634

> <i_lp_mmshare_version>
43012

> <i_f3d_flags>
0

> <s_epik_input>
W0NIM11jMVtjSF1jKG5vMSlbTkhdQyg9TylbTkhdW0NAQF0yKFtDSDNdKVtDSDJdW0NIMl1TKD1PKSg9TylbQ0gyXTI=

> <s_epik_cmdline>
J2VwaWtfcHl0aG9uJywgJy1waCcsICc3LjAnLCAnLXRuJywgJzgnLCAnLW1hJywgJzIwMCcsICctbWV0YWxfYmluZGluZycsICctaW1hZScsICc8aW5maWxlLm1hZT4nLCAnLW9tYWUnLCAnPG91dGZpbGUubWFlPic=

> <r_lp_tautomer_probability>
1

> <r_epik_Ionization_Penalty>
6.15572

> <r_epik_Ionization_Penalty_Charging>
6.1556

> <r_epik_Ionization_Penalty_Neutral>
0.000118136

> <r_epik_State_Penalty>
6.15558

> <r_epik_Charging_Adjusted_Penalty>
12.3112

> <i_epik_Tot_Q>
-1

> <i_epik_Tot_abs_Q>
1

> <r_epik_Metal_State_Penalty>
2.10569

> <b_epik_Metal_Only>
1

> <s_lp_Force_Field>
OPLS_2005

> <r_lp_Energy>
-1.68809

> <b_lp_Chiralities_Consistent>
1

> <s_lp_Variant>
AV-unprocessed.smi:634-4

> <Gold.Version>
5.8.1

> <Gold.Id.Protein>
6NUR|6NUR_protein|mol2

> <Gold.PLP.Fitness>
37.6474

> <Gold.PLP.PLP>
-22.9298

> <Gold.PLP.part.hbond>
-5.0000

> <Gold.PLP.part.metal>
0.0000

> <Gold.PLP.part.buried>
-5.7281

> <Gold.PLP.part.nonpolar>
-13.9363

> <Gold.PLP.part.repulsive>
0.4379

> <Gold.PLP.ligand.clash>
0.0000

> <Gold.PLP.ligand.torsion>
1.4283

> <Gold.PLP.Chemscore.Hbond>
5.8560

> <Gold.PLP.Chemscore.CHOScore>
0.0000

> <Gold.PLP.Chemscore.Metal>
0.0000

> <Gold.Chemscore.Hbonds>
donor molecule, donor type, donor heavy atom, donor atom, acceptor molecule, acceptor atom, score
      P1  H  6896  6909       L1     7  1.00
      P1  H  6931  6943       L1     5  1.43
      P1  H  6934  6947       L1    17  1.00
      P1  H  7989  7998       L1    15  1.00
      P1  H 10752 10764       L1    14  0.91

> <Gold.PLP.Chemscore.Internal.Correction>
0.0061

> <Gold.Rescore>
     Score         DG    S(hbond)    S(metal)    S(lipo)     H(rot)  DE(clash)    DE(int)     intcor
     18.56     -20.04       4.11        0.00      28.95       1.00       0.00       1.49       ----

> <Gold.Chemscore.Fitness>
18.5561

> <Gold.Chemscore.DG>
-20.0443

> <Gold.Chemscore.ZeroCoef>
-5.4800

> <Gold.Chemscore.Hbond>
4.1130

> <Gold.Chemscore.Metal>
0.0000

> <Gold.Chemscore.Lipo>
28.9461

> <Gold.Chemscore.Internal_Hbond>
0.0000

> <Gold.Chemscore.DEClash>
0.0000

> <Gold.Chemscore.DEInternal>
1.4882

> <Gold.Chemscore.Rot>
1.0000

> <Gold.Chemscore.Internal.Correction>
   9.000000E+99

> <Gold.Chemscore.Hbonds>
donor molecule, donor type, donor heavy atom, donor atom, acceptor molecule, acceptor atom, score
      P1  H  6896  6909       L1     7  0.70
      P1  H  6931  6943       L1     5  0.08
      P1  H  6934  6947       L1    17  0.93
      P1  H  7989  7998       L1    15  0.94
      P1  H 10752 10764       L1    14  0.87

> <Gold.Chemscore.Hbond.Weighted>
-13.7376

> <Gold.Chemscore.Metal.Weighted>
-0.0000

> <Gold.Chemscore.Lipo.Weighted>
-3.3867

> <Gold.Chemscore.Internal_Hbond.Weighted>
0.0000

> <Gold.Chemscore.DEClash.Weighted>
0.0000

> <Gold.Chemscore.DEInternal.Weighted>
1.4882

> <Gold.Chemscore.Rot.Weighted>
2.5600

> <Gold.Chemscore.Internal.Correction.Weighted>
   9.000000E+99

> <Gold.Protein.RotatedTorsions>
[ 6907 6896 6895 6894 ] final   53.18 input  -60.11 | X-H torsion
[ 7974 7965 7964 7962 ] final  174.03 input  175.53 | X-H torsion
[ 8008 7997 7996 7995 ] final  161.76 input   59.86 | X-H torsion
[ 10167 10162 10161 10158 ] final   79.40 input  -65.29 | X-H torsion
[ 10718 10713 10712 10709 ] final   50.86 input   66.30 | X-H torsion
[ 10763 10752 10751 10750 ] final  -73.62 input  -60.55 | X-H torsion
[ 11005 11000 10999 10996 ] final  131.50 input  -57.11 | X-H torsion

> <Gold.Protein.ActiveResidues>
 VAL166  LYS551  ARG553  GLY616  TRP617  ASP618  TYR619  PRO620  LYS621  CYS622 
 ASP623  PHE694  ASN695  SER759  ASP760  ASP761  ALA762  ILE779  LEU786  VAL792 
 PHE793  MET794  SER795  GLU796  ALA797  LYS798  CYS799  TRP800  GLU811  SER814 

> <Gold.Protein.RotatedAtoms>
  152.3311  134.7258  160.0289 H   0  0  0  0  0  0  0  0  0  0  0  0  # atno 6907 bound_to 6896
  151.7675  133.3333  159.3443 H   0  0  0  0  0  0  0  0  0  0  0  0  # atno 6908 bound_to 6896
  150.7423  134.5981  159.6067 H   0  0  0  0  0  0  0  0  0  0  0  0  # atno 6909 bound_to 6896
  144.7230  139.9737  143.6437 H   0  0  0  0  0  0  0  0  0  0  0  0  # atno 7974 bound_to 7965
  156.2080  140.1768  156.7757 H   0  0  0  0  0  0  0  0  0  0  0  0  # atno 8008 bound_to 7997
  154.5682  140.0687  156.8954 H   0  0  0  0  0  0  0  0  0  0  0  0  # atno 8009 bound_to 7997
  155.2721  140.3343  155.4267 H   0  0  0  0  0  0  0  0  0  0  0  0  # atno 8010 bound_to 7997
  139.9607  144.5963  150.8075 H   0  0  0  0  0  0  0  0  0  0  0  0  # atno 10167 bound_to 10162
  157.4926  130.8385  149.8220 H   0  0  0  0  0  0  0  0  0  0  0  0  # atno 10718 bound_to 10713
  154.4620  135.5891  153.6262 H   0  0  0  0  0  0  0  0  0  0  0  0  # atno 10763 bound_to 10752
  152.9824  135.6046  154.3474 H   0  0  0  0  0  0  0  0  0  0  0  0  # atno 10764 bound_to 10752
  154.3347  135.2842  155.2433 H   0  0  0  0  0  0  0  0  0  0  0  0  # atno 10765 bound_to 10752
  139.9734  134.9571  156.9446 H   0  0  0  0  0  0  0  0  0  0  0  0  # atno 11005 bound_to 11000
  146.0543  139.3541  143.0620 LP  0  0  0  0  0  0  0  0  0  0  0  0  # atno 17320 bound_to 7965
  145.8175  140.9695  143.0916 LP  0  0  0  0  0  0  0  0  0  0  0  0  # atno 17321 bound_to 7965
  140.7554  143.3046  151.2995 LP  0  0  0  0  0  0  0  0  0  0  0  0  # atno 17342 bound_to 10162
  139.6556  144.0282  152.2657 LP  0  0  0  0  0  0  0  0  0  0  0  0  # atno 17343 bound_to 10162
  156.0182  130.3805  150.2045 LP  0  0  0  0  0  0  0  0  0  0  0  0  # atno 17370 bound_to 10713
  157.0233  130.9986  151.3333 LP  0  0  0  0  0  0  0  0  0  0  0  0  # atno 17371 bound_to 10713
  140.5246  134.0873  155.7300 LP  0  0  0  0  0  0  0  0  0  0  0  0  # atno 17394 bound_to 11000
  141.1412  133.9135  157.2321 LP  0  0  0  0  0  0  0  0  0  0  0  0  # atno 17395 bound_to 11000

$$$$
