AV-unprocessed.smi:1281|AV-procd|sdf|5359|dock8
  -GOLD-   22720 4493D 1   1.00000     0.00000
 Structure written by MMmdl.
 45 46  0  0  0  0  0  0  0  0  1 V2000
  159.5523  139.7353  164.1482 C   0  0  0  0  0  0  0  0  0  0  0  0
  158.7335  138.5857  164.0299 O   0  0  0  0  0  0  0  0  0  0  0  0
  157.4203  138.7993  164.5222 C   0  0  0  0  0  0  0  0  0  0  0  0
  156.6027  137.5063  164.3729 C   0  0  0  0  0  0  0  0  0  0  0  0
  156.4295  137.1295  162.9657 N   0  0  0  0  0  0  0  0  0  0  0  0
  155.8436  138.1142  162.1880 N   0  0  0  0  0  0  0  0  0  0  0  0
  155.6281  137.9072  160.9292 C   0  0  0  0  0  0  0  0  0  0  0  0
  154.9935  138.9375  160.0613 C   0  0  0  0  0  0  0  0  0  0  0  0
  154.7860  138.7398  158.8627 O   0  0  0  0  0  0  0  0  0  0  0  0
  154.6649  140.0876  160.6776 N   0  0  0  0  0  0  0  0  0  0  0  0
  154.0363  141.2358  160.0357 C   0  0  0  0  0  0  0  0  0  0  0  0
  153.5763  142.2818  161.0665 C   0  0  0  0  0  0  0  0  0  0  0  0
  152.4533  143.1623  160.5448 C   0  0  0  0  0  0  0  0  0  0  0  0
  151.9298  144.1610  161.2823 C   0  0  0  0  0  0  0  0  0  0  0  0
  150.7939  145.0579  160.8219 C   0  0  0  0  0  0  0  0  0  0  0  0
  150.0745  144.5023  159.5813 C   0  0  0  0  0  0  0  0  0  0  0  0
  151.0785  143.9717  158.5505 C   0  0  0  0  0  0  0  0  0  0  0  0
  151.9473  142.8468  159.1415 C   0  0  0  0  0  0  0  0  0  0  0  0
  156.0005  136.6470  160.3082 C   0  0  0  0  0  0  0  0  0  0  0  0
  156.5647  135.6932  161.0811 C   0  0  0  0  0  0  0  0  0  0  0  0
  156.8092  135.8978  162.5098 C   0  0  0  0  0  0  0  0  0  0  0  0
  157.3088  135.0396  163.2369 O   0  0  0  0  0  0  0  0  0  0  0  0
  160.5461  139.5182  163.7564 H   0  0  0  0  0  0  0  0  0  0  0  0
  159.6598  140.0379  165.1907 H   0  0  0  0  0  0  0  0  0  0  0  0
  159.1416  140.5713  163.5804 H   0  0  0  0  0  0  0  0  0  0  0  0
  157.4689  139.0787  165.5756 H   0  0  0  0  0  0  0  0  0  0  0  0
  156.9406  139.6225  163.9906 H   0  0  0  0  0  0  0  0  0  0  0  0
  157.0890  136.6996  164.9245 H   0  0  0  0  0  0  0  0  0  0  0  0
  155.6285  137.6315  164.8484 H   0  0  0  0  0  0  0  0  0  0  0  0
  154.8672  140.1692  161.6638 H   0  0  0  0  0  0  0  0  0  0  0  0
  154.7641  141.6732  159.3522 H   0  0  0  0  0  0  0  0  0  0  0  0
  153.1946  140.9053  159.4247 H   0  0  0  0  0  0  0  0  0  0  0  0
  153.2411  141.7799  161.9753 H   0  0  0  0  0  0  0  0  0  0  0  0
  154.4133  142.9164  161.3602 H   0  0  0  0  0  0  0  0  0  0  0  0
  152.3252  144.3658  162.2666 H   0  0  0  0  0  0  0  0  0  0  0  0
  150.0817  145.1837  161.6378 H   0  0  0  0  0  0  0  0  0  0  0  0
  151.2084  146.0432  160.6075 H   0  0  0  0  0  0  0  0  0  0  0  0
  149.4069  143.6928  159.8791 H   0  0  0  0  0  0  0  0  0  0  0  0
  149.4455  145.2746  159.1381 H   0  0  0  0  0  0  0  0  0  0  0  0
  150.5570  143.6119  157.6633 H   0  0  0  0  0  0  0  0  0  0  0  0
  151.7186  144.7913  158.2208 H   0  0  0  0  0  0  0  0  0  0  0  0
  152.7943  142.6568  158.4814 H   0  0  0  0  0  0  0  0  0  0  0  0
  151.3693  141.9235  159.1877 H   0  0  0  0  0  0  0  0  0  0  0  0
  155.8313  136.4683  159.2563 H   0  0  0  0  0  0  0  0  0  0  0  0
  156.8448  134.7511  160.6331 H   0  0  0  0  0  0  0  0  0  0  0  0
  1  2  1  0  0  0  0
  1 23  1  0  0  0  0
  1 24  1  0  0  0  0
  1 25  1  0  0  0  0
  2  3  1  0  0  0  0
  3  4  1  0  0  0  0
  3 26  1  0  0  0  0
  3 27  1  0  0  0  0
  4  5  1  0  0  0  0
  4 28  1  0  0  0  0
  4 29  1  0  0  0  0
  5 21  1  0  0  0  0
  5  6  1  0  0  0  0
  6  7  2  0  0  0  0
  7  8  1  0  0  0  0
  7 19  1  0  0  0  0
  8  9  2  0  0  0  0
  8 10  1  0  0  0  0
 10 11  1  0  0  0  0
 10 30  1  0  0  0  0
 11 12  1  0  0  0  0
 11 31  1  0  0  0  0
 11 32  1  0  0  0  0
 12 13  1  0  0  0  0
 12 33  1  0  0  0  0
 12 34  1  0  0  0  0
 13 18  1  0  0  0  0
 13 14  2  0  0  0  0
 14 15  1  0  0  0  0
 14 35  1  0  0  0  0
 15 16  1  0  0  0  0
 15 36  1  0  0  0  0
 15 37  1  0  0  0  0
 16 17  1  0  0  0  0
 16 38  1  0  0  0  0
 16 39  1  0  0  0  0
 17 18  1  0  0  0  0
 17 40  1  0  0  0  0
 17 41  1  0  0  0  0
 18 42  1  0  0  0  0
 18 43  1  0  0  0  0
 19 20  2  0  0  0  0
 19 44  1  0  0  0  0
 20 21  1  0  0  0  0
 20 45  1  0  0  0  0
 21 22  2  0  0  0  0
M  END
> <s_m_source_file>
AV-unprocessed.smi

> <i_m_source_file_index>
1281

> <i_lp_mmshare_version>
43012

> <i_f3d_flags>
0

> <s_epik_input>
W0NIM11PW0NIMl1bQ0gyXW4xbmMoW2NIXVtjSF1jMT1PKUMoPU8pW05IXVtDSDJdW0NIMl1DMj1bQ0hdW0NIMl1bQ0gyXVtDSDJdW0NIMl0y

> <s_epik_cmdline>
J2VwaWtfcHl0aG9uJywgJy1waCcsICc3LjAnLCAnLXRuJywgJzgnLCAnLW1hJywgJzIwMCcsICctbWV0YWxfYmluZGluZycsICctaW1hZScsICc8aW5maWxlLm1hZT4nLCAnLW9tYWUnLCAnPG91dGZpbGUubWFlPic=

> <r_lp_tautomer_probability>
1

> <r_epik_Ionization_Penalty>
8.17845e-07

> <r_epik_Ionization_Penalty_Charging>
5.79962e-09

> <r_epik_Ionization_Penalty_Neutral>
8.12046e-07

> <r_epik_State_Penalty>
-0

> <r_epik_Charging_Adjusted_Penalty>
5.79962e-09

> <i_epik_Tot_Q>
0

> <i_epik_Tot_abs_Q>
0

> <r_epik_Metal_State_Penalty>
-0

> <b_epik_Metal_Only>
0

> <s_lp_Force_Field>
OPLS_2005

> <r_lp_Energy>
28.483

> <b_lp_Chiralities_Consistent>
1

> <s_lp_Variant>
AV-unprocessed.smi:1281-1

> <Gold.Version>
5.8.1

> <Gold.Id.Protein>
6NUR|6NUR_protein|mol2

> <Gold.PLP.Fitness>
53.4394

> <Gold.PLP.PLP>
-50.7356

> <Gold.PLP.part.hbond>
-1.0000

> <Gold.PLP.part.metal>
0.0000

> <Gold.PLP.part.buried>
-5.7501

> <Gold.PLP.part.nonpolar>
-42.5347

> <Gold.PLP.part.repulsive>
0.1122

> <Gold.PLP.ligand.clash>
0.0000

> <Gold.PLP.ligand.torsion>
0.2000

> <Gold.PLP.Chemscore.Hbond>
1.0000

> <Gold.PLP.Chemscore.CHOScore>
0.0000

> <Gold.PLP.Chemscore.Metal>
0.0000

> <Gold.Chemscore.Hbonds>
donor molecule, donor type, donor heavy atom, donor atom, acceptor molecule, acceptor atom, score
      P1  H  7997  8008       L1     9  1.00

> <Gold.PLP.Chemscore.Internal.Correction>
0.1037

> <Gold.Rescore>
     Score         DG    S(hbond)    S(metal)    S(lipo)     H(rot)  DE(clash)    DE(int)     intcor
     17.84     -18.26       1.00        0.00     121.57       1.86       0.09       0.32       ----

> <Gold.Chemscore.Fitness>
17.8437

> <Gold.Chemscore.DG>
-18.2566

> <Gold.Chemscore.ZeroCoef>
-5.4800

> <Gold.Chemscore.Hbond>
0.9960

> <Gold.Chemscore.Metal>
0.0000

> <Gold.Chemscore.Lipo>
121.5742

> <Gold.Chemscore.Internal_Hbond>
0.0000

> <Gold.Chemscore.DEClash>
0.0906

> <Gold.Chemscore.DEInternal>
0.3223

> <Gold.Chemscore.Rot>
1.8649

> <Gold.Chemscore.Internal.Correction>
   9.000000E+99

> <Gold.Chemscore.Hbonds>
donor molecule, donor type, donor heavy atom, donor atom, acceptor molecule, acceptor atom, score
      P1  H  7997  8008       L1     9  0.94

> <Gold.Chemscore.Hbond.Weighted>
-3.3266

> <Gold.Chemscore.Metal.Weighted>
-0.0000

> <Gold.Chemscore.Lipo.Weighted>
-14.2242

> <Gold.Chemscore.Internal_Hbond.Weighted>
0.0000

> <Gold.Chemscore.DEClash.Weighted>
0.0906

> <Gold.Chemscore.DEInternal.Weighted>
0.3223

> <Gold.Chemscore.Rot.Weighted>
4.7741

> <Gold.Chemscore.Internal.Correction.Weighted>
   9.000000E+99

> <Gold.Protein.RotatedTorsions>
[ 6907 6896 6895 6894 ] final -119.22 input  -60.11 | X-H torsion
[ 7974 7965 7964 7962 ] final   72.99 input  175.53 | X-H torsion
[ 8008 7997 7996 7995 ] final -128.89 input   59.86 | X-H torsion
[ 10167 10162 10161 10158 ] final  -82.22 input  -65.29 | X-H torsion
[ 10718 10713 10712 10709 ] final -155.41 input   66.30 | X-H torsion
[ 10763 10752 10751 10750 ] final  -69.61 input  -60.55 | X-H torsion
[ 11005 11000 10999 10996 ] final  121.22 input  -57.11 | X-H torsion

> <Gold.Protein.ActiveResidues>
 VAL166  LYS551  ARG553  GLY616  TRP617  ASP618  TYR619  PRO620  LYS621  CYS622 
 ASP623  PHE694  ASN695  SER759  ASP760  ASP761  ALA762  ILE779  LEU786  VAL792 
 PHE793  MET794  SER795  GLU796  ALA797  LYS798  CYS799  TRP800  GLU811  SER814 

> <Gold.Protein.RotatedAtoms>
  150.8287  133.8128  159.3107 H   0  0  0  0  0  0  0  0  0  0  0  0  # atno 6907 bound_to 6896
  151.5865  135.1054  160.0039 H   0  0  0  0  0  0  0  0  0  0  0  0  # atno 6908 bound_to 6896
  152.4369  133.7335  159.6657 H   0  0  0  0  0  0  0  0  0  0  0  0  # atno 6909 bound_to 6896
  145.7465  139.2742  143.1456 H   0  0  0  0  0  0  0  0  0  0  0  0  # atno 7974 bound_to 7965
  155.2702  140.0439  157.3006 H   0  0  0  0  0  0  0  0  0  0  0  0  # atno 8008 bound_to 7997
  154.5658  140.2359  155.8235 H   0  0  0  0  0  0  0  0  0  0  0  0  # atno 8009 bound_to 7997
  156.2084  140.3006  155.9684 H   0  0  0  0  0  0  0  0  0  0  0  0  # atno 8010 bound_to 7997
  140.4340  143.2538  151.8719 H   0  0  0  0  0  0  0  0  0  0  0  0  # atno 10167 bound_to 10162
  156.5125  130.8441  151.2652 H   0  0  0  0  0  0  0  0  0  0  0  0  # atno 10718 bound_to 10713
  154.4058  135.6020  153.5924 H   0  0  0  0  0  0  0  0  0  0  0  0  # atno 10763 bound_to 10752
  152.9789  135.5917  154.4129 H   0  0  0  0  0  0  0  0  0  0  0  0  # atno 10764 bound_to 10752
  154.3934  135.2842  155.2119 H   0  0  0  0  0  0  0  0  0  0  0  0  # atno 10765 bound_to 10752
  139.9217  134.9638  156.7925 H   0  0  0  0  0  0  0  0  0  0  0  0  # atno 11005 bound_to 11000
  146.0398  140.8176  142.9834 LP  0  0  0  0  0  0  0  0  0  0  0  0  # atno 17320 bound_to 7965
  144.6859  140.2893  143.7280 LP  0  0  0  0  0  0  0  0  0  0  0  0  # atno 17321 bound_to 7965
  139.4786  144.5303  151.8676 LP  0  0  0  0  0  0  0  0  0  0  0  0  # atno 17342 bound_to 10162
  140.4395  144.2006  150.5890 LP  0  0  0  0  0  0  0  0  0  0  0  0  # atno 17343 bound_to 10162
  157.7448  130.9945  150.2709 LP  0  0  0  0  0  0  0  0  0  0  0  0  # atno 17370 bound_to 10713
  156.3227  130.3788  149.7561 LP  0  0  0  0  0  0  0  0  0  0  0  0  # atno 17371 bound_to 10713
  140.6455  133.9779  155.7729 LP  0  0  0  0  0  0  0  0  0  0  0  0  # atno 17394 bound_to 11000
  141.0742  134.0159  157.3481 LP  0  0  0  0  0  0  0  0  0  0  0  0  # atno 17395 bound_to 11000

$$$$
