AV-unprocessed.smi:2355|AV-procd|sdf|9389|dock2
  -GOLD-   2272013 23D 1   1.00000     0.00000
 Structure written by MMmdl.
 49 50  0  0  0  0  0  0  0  0  2 V2000
  153.8465  141.2298  159.9205 C   0  0  0  0  0  0  0  0  0  0  0  0
  152.9546  142.3492  159.4267 C   0  0  0  0  0  0  0  0  0  0  0  0
  152.9952  143.6219  160.0274 C   0  0  0  0  0  0  0  0  0  0  0  0
  152.1451  144.6238  159.5203 C   0  0  0  0  0  0  0  0  0  0  0  0
  152.1370  146.0148  160.1184 C   0  0  0  0  0  0  0  0  0  0  0  0
  151.3001  144.4192  158.4872 N   0  0  0  0  0  0  0  0  0  0  0  0
  151.2510  143.1966  157.9022 C   0  0  0  0  0  0  0  0  0  0  0  0
  150.3992  142.8813  156.8101 N   0  0  0  0  0  0  0  0  0  0  0  0
  149.9443  141.6719  156.4393 C   0  0  0  0  0  0  0  0  0  0  0  0
  150.2371  140.6049  156.9801 O   0  0  0  0  0  0  0  0  0  0  0  0
  149.1006  141.7631  155.3998 N   0  0  0  0  0  0  0  0  0  0  0  0
  148.4083  140.6430  154.7579 C   0  0  2  0  0  0  0  0  0  0  0  0
  149.4237  139.8090  153.9591 C   0  0  0  0  0  0  0  0  0  0  0  0
  147.1896  141.1188  153.9094 C   0  0  2  0  0  0  0  0  0  0  0  0
  146.3163  142.1338  154.6885 C   0  0  0  0  0  0  0  0  0  0  0  0
  146.4261  139.9372  153.3875 N   0  3  0  0  0  0  0  0  0  0  0  0
  147.0311  139.1875  152.2544 C   0  0  0  0  0  0  0  0  0  0  0  0
  146.0785  138.0796  151.7718 C   0  0  0  0  0  0  0  0  0  0  0  0
  145.7604  137.2107  152.8500 O   0  0  0  0  0  0  0  0  0  0  0  0
  145.0987  137.8996  153.9019 C   0  0  0  0  0  0  0  0  0  0  0  0
  146.0277  138.9892  154.4604 C   0  0  0  0  0  0  0  0  0  0  0  0
  152.0703  142.1363  158.3498 C   0  0  0  0  0  0  0  0  0  0  0  0
  154.2413  141.4500  160.9128 H   0  0  0  0  0  0  0  0  0  0  0  0
  154.6867  141.0910  159.2400 H   0  0  0  0  0  0  0  0  0  0  0  0
  153.2903  140.2936  159.9769 H   0  0  0  0  0  0  0  0  0  0  0  0
  153.6604  143.8245  160.8544 H   0  0  0  0  0  0  0  0  0  0  0  0
  152.7336  146.0561  161.0302 H   0  0  0  0  0  0  0  0  0  0  0  0
  151.1192  146.3178  160.3656 H   0  0  0  0  0  0  0  0  0  0  0  0
  152.5472  146.7335  159.4084 H   0  0  0  0  0  0  0  0  0  0  0  0
  150.0852  143.6695  156.2634 H   0  0  0  0  0  0  0  0  0  0  0  0
  148.9198  142.6809  155.0194 H   0  0  0  0  0  0  0  0  0  0  0  0
  148.0503  139.9742  155.5406 H   0  0  0  0  0  0  0  0  0  0  0  0
  148.9351  138.9799  153.4465 H   0  0  0  0  0  0  0  0  0  0  0  0
  150.1789  139.3828  154.6205 H   0  0  0  0  0  0  0  0  0  0  0  0
  149.9499  140.4030  153.2123 H   0  0  0  0  0  0  0  0  0  0  0  0
  147.5729  141.6586  153.0418 H   0  0  0  0  0  0  0  0  0  0  0  0
  146.9020  142.9849  155.0330 H   0  0  0  0  0  0  0  0  0  0  0  0
  145.8497  141.6829  155.5647 H   0  0  0  0  0  0  0  0  0  0  0  0
  145.5286  142.5545  154.0636 H   0  0  0  0  0  0  0  0  0  0  0  0
  147.2228  139.8472  151.4087 H   0  0  0  0  0  0  0  0  0  0  0  0
  147.9850  138.7569  152.5625 H   0  0  0  0  0  0  0  0  0  0  0  0
  145.1657  138.5082  151.3540 H   0  0  0  0  0  0  0  0  0  0  0  0
  146.5490  137.4995  150.9777 H   0  0  0  0  0  0  0  0  0  0  0  0
  144.1616  138.3295  153.5441 H   0  0  0  0  0  0  0  0  0  0  0  0
  144.8436  137.1858  154.6853 H   0  0  0  0  0  0  0  0  0  0  0  0
  146.9186  138.5315  154.8934 H   0  0  0  0  0  0  0  0  0  0  0  0
  145.5159  139.5096  155.2685 H   0  0  0  0  0  0  0  0  0  0  0  0
  152.0241  141.1676  157.8729 H   0  0  0  0  0  0  0  0  0  0  0  0
  145.5662  140.3204  153.0192 H   0  0  0  0  0  0  0  0  0  0  0  0
  1  2  1  0  0  0  0
  1 23  1  0  0  0  0
  1 24  1  0  0  0  0
  1 25  1  0  0  0  0
  2 22  1  0  0  0  0
  2  3  2  0  0  0  0
  3  4  1  0  0  0  0
  3 26  1  0  0  0  0
  4  5  1  0  0  0  0
  4  6  2  0  0  0  0
  5 27  1  0  0  0  0
  5 28  1  0  0  0  0
  5 29  1  0  0  0  0
  6  7  1  0  0  0  0
  7  8  1  0  0  0  0
  7 22  2  0  0  0  0
  8  9  1  0  0  0  0
  8 30  1  0  0  0  0
  9 10  2  0  0  0  0
  9 11  1  0  0  0  0
 11 12  1  0  0  0  0
 11 31  1  0  0  0  0
 12 13  1  0  0  0  0
 12 14  1  0  0  0  0
 12 32  1  0  0  0  0
 13 33  1  0  0  0  0
 13 34  1  0  0  0  0
 13 35  1  0  0  0  0
 14 15  1  0  0  0  0
 14 16  1  0  0  0  0
 14 36  1  0  0  0  0
 15 37  1  0  0  0  0
 15 38  1  0  0  0  0
 15 39  1  0  0  0  0
 16 21  1  0  0  0  0
 16 17  1  0  0  0  0
 16 49  1  0  0  0  0
 17 18  1  0  0  0  0
 17 40  1  0  0  0  0
 17 41  1  0  0  0  0
 18 19  1  0  0  0  0
 18 42  1  0  0  0  0
 18 43  1  0  0  0  0
 19 20  1  0  0  0  0
 20 21  1  0  0  0  0
 20 44  1  0  0  0  0
 20 45  1  0  0  0  0
 21 46  1  0  0  0  0
 21 47  1  0  0  0  0
 22 48  1  0  0  0  0
M  CHG  1  16   1
M  END
> <s_m_source_file>
AV-unprocessed.smi

> <i_m_source_file_index>
2355

> <i_lp_mmshare_version>
43012

> <i_f3d_flags>
0

> <s_epik_input>
W0NIM11jMVtjSF1jKFtDSDNdKW5jKFtjSF0xKVtOSF1DKD1PKVtOSF1bQ0BIXShbQ0gzXSlbQ0BIXShbQ0gzXSlOMltDSDJdW0NIMl1PW0NIMl1bQ0gyXTI=

> <s_epik_cmdline>
J2VwaWtfcHl0aG9uJywgJy1waCcsICc3LjAnLCAnLXRuJywgJzgnLCAnLW1hJywgJzIwMCcsICctbWV0YWxfYmluZGluZycsICctaW1hZScsICc8aW5maWxlLm1hZT4nLCAnLW9tYWUnLCAnPG91dGZpbGUubWFlPic=

> <r_epik_Ionization_Penalty>
0.602711

> <r_epik_Ionization_Penalty_Charging>
0.602531

> <r_epik_Ionization_Penalty_Neutral>
0.000180055

> <r_epik_State_Penalty>
0.617039

> <r_epik_Charging_Adjusted_Penalty>
1.21957

> <i_epik_Tot_Q>
1

> <i_epik_Tot_abs_Q>
1

> <r_epik_Metal_State_Penalty>
0.617075

> <b_epik_Metal_Only>
0

> <s_lp_Force_Field>
OPLS_2005

> <r_lp_Energy>
30.3544

> <b_lp_Chiralities_Consistent>
1

> <s_lp_Variant>
AV-unprocessed.smi:2355-5

> <Gold.Version>
5.8.1

> <Gold.Id.Protein>
6NUR|6NUR_protein|mol2

> <Gold.PLP.Fitness>
52.1271

> <Gold.PLP.PLP>
-41.9351

> <Gold.PLP.part.hbond>
-3.0000

> <Gold.PLP.part.metal>
0.0000

> <Gold.PLP.part.buried>
0.9129

> <Gold.PLP.part.nonpolar>
-41.6871

> <Gold.PLP.part.repulsive>
0.5211

> <Gold.PLP.ligand.clash>
0.0000

> <Gold.PLP.ligand.torsion>
0.5896

> <Gold.PLP.Chemscore.Hbond>
3.7303

> <Gold.PLP.Chemscore.CHOScore>
0.0000

> <Gold.PLP.Chemscore.Metal>
0.0000

> <Gold.Chemscore.Hbonds>
donor molecule, donor type, donor heavy atom, donor atom, acceptor molecule, acceptor atom, score
      L1  H     8    30       P1  8028  1.00
      L1  H    11    31       P1  8028  0.61
      L1  H    16    49       P1 10175  2.00

> <Gold.PLP.Chemscore.Internal.Correction>
0.1801

> <Gold.Rescore>
     Score         DG    S(hbond)    S(metal)    S(lipo)     H(rot)  DE(clash)    DE(int)     intcor
     21.69     -24.29       2.84        0.00     111.25       1.45       0.43       2.18       ----

> <Gold.Chemscore.Fitness>
21.6864

> <Gold.Chemscore.DG>
-24.2924

> <Gold.Chemscore.ZeroCoef>
-5.4800

> <Gold.Chemscore.Hbond>
2.8437

> <Gold.Chemscore.Metal>
0.0000

> <Gold.Chemscore.Lipo>
111.2536

> <Gold.Chemscore.Internal_Hbond>
0.0000

> <Gold.Chemscore.DEClash>
0.4250

> <Gold.Chemscore.DEInternal>
2.1809

> <Gold.Chemscore.Rot>
1.4462

> <Gold.Chemscore.Internal.Correction>
   9.000000E+99

> <Gold.Chemscore.Hbonds>
donor molecule, donor type, donor heavy atom, donor atom, acceptor molecule, acceptor atom, score
      L1  H     8    30       P1  8028  0.98
      L1  H    11    31       P1  8028  0.59
      L1  H    16    49       P1 10175  0.94

> <Gold.Chemscore.Hbond.Weighted>
-9.4980

> <Gold.Chemscore.Metal.Weighted>
-0.0000

> <Gold.Chemscore.Lipo.Weighted>
-13.0167

> <Gold.Chemscore.Internal_Hbond.Weighted>
0.0000

> <Gold.Chemscore.DEClash.Weighted>
0.4250

> <Gold.Chemscore.DEInternal.Weighted>
2.1809

> <Gold.Chemscore.Rot.Weighted>
3.7023

> <Gold.Chemscore.Internal.Correction.Weighted>
   9.000000E+99

> <Gold.Protein.RotatedTorsions>
[ 6907 6896 6895 6894 ] final -140.34 input  -60.11 | X-H torsion
[ 7974 7965 7964 7962 ] final  -16.48 input  175.53 | X-H torsion
[ 8008 7997 7996 7995 ] final  -58.77 input   59.86 | X-H torsion
[ 10167 10162 10161 10158 ] final -155.00 input  -65.29 | X-H torsion
[ 10718 10713 10712 10709 ] final  -30.51 input   66.30 | X-H torsion
[ 10763 10752 10751 10750 ] final -120.19 input  -60.55 | X-H torsion
[ 11005 11000 10999 10996 ] final  -47.28 input  -57.11 | X-H torsion

> <Gold.Protein.ActiveResidues>
 VAL166  LYS551  ARG553  GLY616  TRP617  ASP618  TYR619  PRO620  LYS621  CYS622 
 ASP623  PHE694  ASN695  SER759  ASP760  ASP761  ALA762  ILE779  LEU786  VAL792 
 PHE793  MET794  SER795  GLU796  ALA797  LYS798  CYS799  TRP800  GLU811  SER814 

> <Gold.Protein.RotatedAtoms>
  151.0594  133.5557  159.2635 H   0  0  0  0  0  0  0  0  0  0  0  0  # atno 6907 bound_to 6896
  151.2538  135.0630  159.9082 H   0  0  0  0  0  0  0  0  0  0  0  0  # atno 6908 bound_to 6896
  152.5395  134.0350  159.8096 H   0  0  0  0  0  0  0  0  0  0  0  0  # atno 6909 bound_to 6896
  146.1985  140.3643  142.8432 H   0  0  0  0  0  0  0  0  0  0  0  0  # atno 7974 bound_to 7965
  154.4323  140.1077  156.6009 H   0  0  0  0  0  0  0  0  0  0  0  0  # atno 8008 bound_to 7997
  155.5912  140.3492  155.4548 H   0  0  0  0  0  0  0  0  0  0  0  0  # atno 8009 bound_to 7997
  156.0245  140.1247  157.0312 H   0  0  0  0  0  0  0  0  0  0  0  0  # atno 8010 bound_to 7997
  139.6967  143.9330  152.2410 H   0  0  0  0  0  0  0  0  0  0  0  0  # atno 10167 bound_to 10162
  156.3989  130.4386  149.7338 H   0  0  0  0  0  0  0  0  0  0  0  0  # atno 10718 bound_to 10713
  154.8637  135.4212  154.2419 H   0  0  0  0  0  0  0  0  0  0  0  0  # atno 10763 bound_to 10752
  153.3383  135.6992  153.6895 H   0  0  0  0  0  0  0  0  0  0  0  0  # atno 10764 bound_to 10752
  153.5884  135.3559  155.2874 H   0  0  0  0  0  0  0  0  0  0  0  0  # atno 10765 bound_to 10752
  141.0631  133.6702  156.3275 H   0  0  0  0  0  0  0  0  0  0  0  0  # atno 11005 bound_to 11000
  144.8632  140.7169  143.6094 LP  0  0  0  0  0  0  0  0  0  0  0  0  # atno 17320 bound_to 7965
  145.3562  139.1693  143.4408 LP  0  0  0  0  0  0  0  0  0  0  0  0  # atno 17321 bound_to 7965
  139.9161  144.6827  150.8510 LP  0  0  0  0  0  0  0  0  0  0  0  0  # atno 17342 bound_to 10162
  140.7698  143.3408  151.2212 LP  0  0  0  0  0  0  0  0  0  0  0  0  # atno 17343 bound_to 10162
  156.4362  130.7839  151.2859 LP  0  0  0  0  0  0  0  0  0  0  0  0  # atno 17370 bound_to 10713
  157.7503  131.0139  150.3442 LP  0  0  0  0  0  0  0  0  0  0  0  0  # atno 17371 bound_to 10713
  140.5828  134.5728  157.5483 LP  0  0  0  0  0  0  0  0  0  0  0  0  # atno 17394 bound_to 11000
  139.9451  134.7717  156.0582 LP  0  0  0  0  0  0  0  0  0  0  0  0  # atno 17395 bound_to 11000

$$$$
