AV-unprocessed.smi:1147|AV-procd|sdf|4888|dock5
  -GOLD-   22720 3463D 1   1.00000     0.00000
 Structure written by MMmdl.
 41 42  0  0  0  0  0  0  0  0  1 V2000
  147.9669  139.4056  153.7901 C   0  0  0  0  0  0  0  0  0  0  0  0
  149.0335  140.3786  154.2972 C   0  0  0  0  0  0  0  0  0  0  0  0
  149.0842  141.4965  153.7839 O   0  0  0  0  0  0  0  0  0  0  0  0
  149.8779  139.9850  155.2810 N   0  0  0  0  0  0  0  0  0  0  0  0
  150.9244  140.8206  155.8926 C   0  0  0  0  0  0  0  0  0  0  0  0
  150.6120  141.0034  157.3914 C   0  0  0  0  0  0  0  0  0  0  0  0
  150.5429  139.6749  158.0290 N   0  0  0  0  0  0  0  0  0  0  0  0
  151.4353  139.1584  158.9113 C   0  0  0  0  0  0  0  0  0  0  0  0
  151.3799  138.0000  159.3268 O   0  0  0  0  0  0  0  0  0  0  0  0
  152.3737  140.0238  159.3327 N   0  0  0  0  0  0  0  0  0  0  0  0
  153.4393  139.7312  160.2875 C   0  0  1  0  0  0  0  0  0  0  0  0
  154.2813  138.5413  159.7910 C   0  0  0  0  0  0  0  0  0  0  0  0
  154.2695  141.0094  160.5208 C   0  0  0  0  0  0  0  0  0  0  0  0
  153.4440  142.1874  160.7192 N   0  0  0  0  0  0  0  0  0  0  0  0
  152.7866  142.5868  161.8636 C   0  0  0  0  0  0  0  0  0  0  0  0
  152.1410  143.7548  161.5750 C   0  0  0  0  0  0  0  0  0  0  0  0
  152.4659  143.9919  160.2100 C   0  0  0  0  0  0  0  0  0  0  0  0
  153.2433  143.0506  159.6996 N   0  0  0  0  0  0  0  0  0  0  0  0
  149.4809  138.8571  157.4244 C   0  0  0  0  0  0  0  0  0  0  0  0
  149.7877  138.6655  155.9257 C   0  0  0  0  0  0  0  0  0  0  0  0
  148.4273  138.5077  153.3768 H   0  0  0  0  0  0  0  0  0  0  0  0
  147.3708  139.8659  153.0014 H   0  0  0  0  0  0  0  0  0  0  0  0
  147.2888  139.1204  154.5949 H   0  0  0  0  0  0  0  0  0  0  0  0
  151.8897  140.3276  155.7681 H   0  0  0  0  0  0  0  0  0  0  0  0
  151.0319  141.7987  155.4270 H   0  0  0  0  0  0  0  0  0  0  0  0
  151.3514  141.6705  157.8337 H   0  0  0  0  0  0  0  0  0  0  0  0
  149.6527  141.5088  157.5151 H   0  0  0  0  0  0  0  0  0  0  0  0
  152.3471  140.9610  158.9583 H   0  0  0  0  0  0  0  0  0  0  0  0
  152.9874  139.4527  161.2414 H   0  0  0  0  0  0  0  0  0  0  0  0
  155.0376  138.2546  160.5219 H   0  0  0  0  0  0  0  0  0  0  0  0
  154.7934  138.7814  158.8586 H   0  0  0  0  0  0  0  0  0  0  0  0
  153.6597  137.6635  159.6124 H   0  0  0  0  0  0  0  0  0  0  0  0
  154.9229  140.8853  161.3864 H   0  0  0  0  0  0  0  0  0  0  0  0
  154.9201  141.1960  159.6652 H   0  0  0  0  0  0  0  0  0  0  0  0
  152.8347  142.0138  162.7780 H   0  0  0  0  0  0  0  0  0  0  0  0
  151.5298  144.3493  162.2378 H   0  0  0  0  0  0  0  0  0  0  0  0
  152.1611  144.8138  159.5791 H   0  0  0  0  0  0  0  0  0  0  0  0
  149.3708  137.8842  157.9054 H   0  0  0  0  0  0  0  0  0  0  0  0
  148.5215  139.3607  157.5520 H   0  0  0  0  0  0  0  0  0  0  0  0
  149.0243  138.0273  155.4794 H   0  0  0  0  0  0  0  0  0  0  0  0
  150.7334  138.1368  155.7971 H   0  0  0  0  0  0  0  0  0  0  0  0
  1  2  1  0  0  0  0
  1 21  1  0  0  0  0
  1 22  1  0  0  0  0
  1 23  1  0  0  0  0
  2  3  2  0  0  0  0
  2  4  1  0  0  0  0
  4 20  1  0  0  0  0
  4  5  1  0  0  0  0
  5  6  1  0  0  0  0
  5 24  1  0  0  0  0
  5 25  1  0  0  0  0
  6  7  1  0  0  0  0
  6 26  1  0  0  0  0
  6 27  1  0  0  0  0
  7  8  1  0  0  0  0
  7 19  1  0  0  0  0
  8  9  2  0  0  0  0
  8 10  1  0  0  0  0
 10 11  1  0  0  0  0
 10 28  1  0  0  0  0
 11 12  1  0  0  0  0
 11 13  1  0  0  0  0
 11 29  1  0  0  0  0
 12 30  1  0  0  0  0
 12 31  1  0  0  0  0
 12 32  1  0  0  0  0
 13 14  1  0  0  0  0
 13 33  1  0  0  0  0
 13 34  1  0  0  0  0
 14 18  1  0  0  0  0
 14 15  1  0  0  0  0
 15 16  2  0  0  0  0
 15 35  1  0  0  0  0
 16 17  1  0  0  0  0
 16 36  1  0  0  0  0
 17 18  2  0  0  0  0
 17 37  1  0  0  0  0
 19 20  1  0  0  0  0
 19 38  1  0  0  0  0
 19 39  1  0  0  0  0
 20 40  1  0  0  0  0
 20 41  1  0  0  0  0
M  END
> <s_m_source_file>
AV-unprocessed.smi

> <i_m_source_file_index>
1147

> <i_lp_mmshare_version>
43012

> <i_f3d_flags>
0

> <s_epik_input>
W0NIM11DKD1PKU4xW0NIMl1bQ0gyXU4oW0NIMl1bQ0gyXTEpQyg9TylbTkhdW0NASF0oW0NIM10pW0NIMl1uMltjSF1bY0hdW2NIXW4y

> <s_epik_cmdline>
J2VwaWtfcHl0aG9uJywgJy1waCcsICc3LjAnLCAnLXRuJywgJzgnLCAnLW1hJywgJzIwMCcsICctbWV0YWxfYmluZGluZycsICctaW1hZScsICc8aW5maWxlLm1hZT4nLCAnLW9tYWUnLCAnPG91dGZpbGUubWFlPic=

> <r_lp_tautomer_probability>
1

> <r_epik_Ionization_Penalty>
5.58143e-05

> <r_epik_Ionization_Penalty_Charging>
0

> <r_epik_Ionization_Penalty_Neutral>
5.58143e-05

> <r_epik_State_Penalty>
-0

> <r_epik_Charging_Adjusted_Penalty>
0

> <i_epik_Tot_Q>
0

> <i_epik_Tot_abs_Q>
0

> <r_epik_Metal_State_Penalty>
-0

> <b_epik_Metal_Only>
0

> <s_lp_Force_Field>
OPLS_2005

> <r_lp_Energy>
47.733

> <b_lp_Chiralities_Consistent>
1

> <s_lp_Variant>
AV-unprocessed.smi:1147-2

> <Gold.Version>
5.8.1

> <Gold.Id.Protein>
6NUR|6NUR_protein|mol2

> <Gold.PLP.Fitness>
41.5837

> <Gold.PLP.PLP>
-40.0569

> <Gold.PLP.part.hbond>
-1.8952

> <Gold.PLP.part.metal>
0.0000

> <Gold.PLP.part.buried>
-5.6492

> <Gold.PLP.part.nonpolar>
-32.7817

> <Gold.PLP.part.repulsive>
0.7126

> <Gold.PLP.ligand.clash>
0.0000

> <Gold.PLP.ligand.torsion>
0.3870

> <Gold.PLP.Chemscore.Hbond>
0.7520

> <Gold.PLP.Chemscore.CHOScore>
0.0000

> <Gold.PLP.Chemscore.Metal>
0.0000

> <Gold.Chemscore.Hbonds>
donor molecule, donor type, donor heavy atom, donor atom, acceptor molecule, acceptor atom, score
      P1  H  8011  8017       L1     3  0.75

> <Gold.PLP.Chemscore.Internal.Correction>
0.0447

> <Gold.Rescore>
     Score         DG    S(hbond)    S(metal)    S(lipo)     H(rot)  DE(clash)    DE(int)     intcor
     12.32     -13.55       0.72        0.00      80.36       1.46       0.02       1.21       ----

> <Gold.Chemscore.Fitness>
12.3178

> <Gold.Chemscore.DG>
-13.5482

> <Gold.Chemscore.ZeroCoef>
-5.4800

> <Gold.Chemscore.Hbond>
0.7226

> <Gold.Chemscore.Metal>
0.0000

> <Gold.Chemscore.Lipo>
80.3624

> <Gold.Chemscore.Internal_Hbond>
0.0000

> <Gold.Chemscore.DEClash>
0.0234

> <Gold.Chemscore.DEInternal>
1.2071

> <Gold.Chemscore.Rot>
1.4640

> <Gold.Chemscore.Internal.Correction>
   9.000000E+99

> <Gold.Chemscore.Hbonds>
donor molecule, donor type, donor heavy atom, donor atom, acceptor molecule, acceptor atom, score
      P1  H  8011  8017       L1     3  0.74

> <Gold.Chemscore.Hbond.Weighted>
-2.4136

> <Gold.Chemscore.Metal.Weighted>
-0.0000

> <Gold.Chemscore.Lipo.Weighted>
-9.4024

> <Gold.Chemscore.Internal_Hbond.Weighted>
0.0000

> <Gold.Chemscore.DEClash.Weighted>
0.0234

> <Gold.Chemscore.DEInternal.Weighted>
1.2071

> <Gold.Chemscore.Rot.Weighted>
3.7477

> <Gold.Chemscore.Internal.Correction.Weighted>
   9.000000E+99

> <Gold.Protein.RotatedTorsions>
[ 6907 6896 6895 6894 ] final    4.29 input  -60.11 | X-H torsion
[ 7974 7965 7964 7962 ] final -147.95 input  175.53 | X-H torsion
[ 8008 7997 7996 7995 ] final  -69.81 input   59.86 | X-H torsion
[ 10167 10162 10161 10158 ] final -146.05 input  -65.29 | X-H torsion
[ 10718 10713 10712 10709 ] final -136.94 input   66.30 | X-H torsion
[ 10763 10752 10751 10750 ] final   66.86 input  -60.55 | X-H torsion
[ 11005 11000 10999 10996 ] final  -90.93 input  -57.11 | X-H torsion

> <Gold.Protein.ActiveResidues>
 VAL166  LYS551  ARG553  GLY616  TRP617  ASP618  TYR619  PRO620  LYS621  CYS622 
 ASP623  PHE694  ASN695  SER759  ASP760  ASP761  ALA762  ILE779  LEU786  VAL792 
 PHE793  MET794  SER795  GLU796  ALA797  LYS798  CYS799  TRP800  GLU811  SER814 

> <Gold.Protein.RotatedAtoms>
  151.6389  135.1015  160.0137 H   0  0  0  0  0  0  0  0  0  0  0  0  # atno 6907 bound_to 6896
  152.4065  133.6892  159.6369 H   0  0  0  0  0  0  0  0  0  0  0  0  # atno 6908 bound_to 6896
  150.7959  133.8617  159.3274 H   0  0  0  0  0  0  0  0  0  0  0  0  # atno 6909 bound_to 6896
  144.8060  140.5260  143.5674 H   0  0  0  0  0  0  0  0  0  0  0  0  # atno 7974 bound_to 7965
  154.4965  140.0846  156.7708 H   0  0  0  0  0  0  0  0  0  0  0  0  # atno 8008 bound_to 7997
  155.4103  140.3441  155.4245 H   0  0  0  0  0  0  0  0  0  0  0  0  # atno 8009 bound_to 7997
  156.1401  140.1527  156.8922 H   0  0  0  0  0  0  0  0  0  0  0  0  # atno 8010 bound_to 7997
  139.7749  143.8184  152.2630 H   0  0  0  0  0  0  0  0  0  0  0  0  # atno 10167 bound_to 10162
  156.2826  130.7329  151.1331 H   0  0  0  0  0  0  0  0  0  0  0  0  # atno 10718 bound_to 10713
  153.0159  135.5305  154.6889 H   0  0  0  0  0  0  0  0  0  0  0  0  # atno 10763 bound_to 10752
  154.6029  135.2870  155.0518 H   0  0  0  0  0  0  0  0  0  0  0  0  # atno 10764 bound_to 10752
  154.1568  135.6554  153.5029 H   0  0  0  0  0  0  0  0  0  0  0  0  # atno 10765 bound_to 10752
  141.1555  133.7723  156.9807 H   0  0  0  0  0  0  0  0  0  0  0  0  # atno 11005 bound_to 11000
  145.5436  139.1475  143.3433 LP  0  0  0  0  0  0  0  0  0  0  0  0  # atno 17320 bound_to 7965
  146.2352  140.5575  142.8958 LP  0  0  0  0  0  0  0  0  0  0  0  0  # atno 17321 bound_to 7965
  139.8229  144.7287  150.9549 LP  0  0  0  0  0  0  0  0  0  0  0  0  # atno 17342 bound_to 10162
  140.7816  143.4141  151.0945 LP  0  0  0  0  0  0  0  0  0  0  0  0  # atno 17343 bound_to 10162
  157.7319  131.0604  150.5656 LP  0  0  0  0  0  0  0  0  0  0  0  0  # atno 17370 bound_to 10713
  156.5763  130.4293  149.5997 LP  0  0  0  0  0  0  0  0  0  0  0  0  # atno 17371 bound_to 10713
  140.1067  134.9502  157.2005 LP  0  0  0  0  0  0  0  0  0  0  0  0  # atno 17394 bound_to 11000
  140.3246  134.2877  155.7239 LP  0  0  0  0  0  0  0  0  0  0  0  0  # atno 17395 bound_to 11000

$$$$
