AV-unprocessed.smi:3303|AV-procd|sdf|12671|dock2
  -GOLD-   2272019 03D 1   1.00000     0.00000
 Structure written by MMmdl.
 45 46  0  0  0  0  0  0  0  0  3 V2000
  146.9431  140.1823  153.7213 C   0  0  0  0  0  0  0  0  0  0  0  0
  146.7809  140.1723  155.2560 C   0  0  2  0  0  0  0  0  0  0  0  0
  145.3792  139.6807  155.6667 C   0  0  0  0  0  0  0  0  0  0  0  0
  144.3168  140.6676  155.3328 N   0  3  1  0  0  0  0  0  0  0  0  0
  142.9717  140.1056  155.6069 C   0  0  0  0  0  0  0  0  0  0  0  0
  144.5601  141.9991  155.9678 C   0  0  2  0  0  0  0  0  0  0  0  0
  143.4942  143.0429  155.5807 C   0  0  0  0  0  0  0  0  0  0  0  0
  145.9619  142.5364  155.6018 C   0  0  0  0  0  0  0  0  0  0  0  0
  147.0735  141.5250  155.9400 C   0  0  2  0  0  0  0  0  0  0  0  0
  148.4238  142.0238  155.5864 N   0  3  0  0  0  0  0  0  0  0  0  0
  149.5207  141.5647  156.4646 C   0  0  0  0  0  0  0  0  0  0  0  0
  150.7280  142.5084  156.3729 C   0  0  0  0  0  0  0  0  0  0  0  0
  151.2265  142.9409  157.7388 C   0  0  0  0  0  0  0  0  0  0  0  0
  151.1011  144.2814  158.1628 C   0  0  0  0  0  0  0  0  0  0  0  0
  151.5776  144.6271  159.4423 C   0  0  0  0  0  0  0  0  0  0  0  0
  152.1606  143.6256  160.2424 C   0  0  0  0  0  0  0  0  0  0  0  0
  152.2407  142.3168  159.7260 C   0  0  0  0  0  0  0  0  0  0  0  0
  151.7859  141.9744  158.5008 N   0  0  0  0  0  0  0  0  0  0  0  0
  146.2471  140.8677  153.2380 H   0  0  0  0  0  0  0  0  0  0  0  0
  146.7598  139.1902  153.3072 H   0  0  0  0  0  0  0  0  0  0  0  0
  147.9518  140.4687  153.4237 H   0  0  0  0  0  0  0  0  0  0  0  0
  147.5014  139.4482  155.6394 H   0  0  0  0  0  0  0  0  0  0  0  0
  145.1689  138.7301  155.1741 H   0  0  0  0  0  0  0  0  0  0  0  0
  145.3558  139.4826  156.7397 H   0  0  0  0  0  0  0  0  0  0  0  0
  142.7959  140.0156  156.6798 H   0  0  0  0  0  0  0  0  0  0  0  0
  142.8687  139.1145  155.1634 H   0  0  0  0  0  0  0  0  0  0  0  0
  142.1825  140.7208  155.1759 H   0  0  0  0  0  0  0  0  0  0  0  0
  144.5203  141.8639  157.0501 H   0  0  0  0  0  0  0  0  0  0  0  0
  143.7506  144.0260  155.9767 H   0  0  0  0  0  0  0  0  0  0  0  0
  142.5118  142.7961  155.9826 H   0  0  0  0  0  0  0  0  0  0  0  0
  143.4041  143.1382  154.4981 H   0  0  0  0  0  0  0  0  0  0  0  0
  145.9974  142.7918  154.5419 H   0  0  0  0  0  0  0  0  0  0  0  0
  146.1306  143.4689  156.1405 H   0  0  0  0  0  0  0  0  0  0  0  0
  147.0642  141.3531  157.0180 H   0  0  0  0  0  0  0  0  0  0  0  0
  148.6354  141.6998  154.6533 H   0  0  0  0  0  0  0  0  0  0  0  0
  149.1723  141.5163  157.4961 H   0  0  0  0  0  0  0  0  0  0  0  0
  149.8177  140.5560  156.1751 H   0  0  0  0  0  0  0  0  0  0  0  0
  151.5410  142.0228  155.8315 H   0  0  0  0  0  0  0  0  0  0  0  0
  150.4652  143.3982  155.7986 H   0  0  0  0  0  0  0  0  0  0  0  0
  150.6490  145.0290  157.5276 H   0  0  0  0  0  0  0  0  0  0  0  0
  151.4971  145.6419  159.8034 H   0  0  0  0  0  0  0  0  0  0  0  0
  152.5370  143.8548  161.2284 H   0  0  0  0  0  0  0  0  0  0  0  0
  152.6815  141.5243  160.3126 H   0  0  0  0  0  0  0  0  0  0  0  0
  148.4086  143.0339  155.5756 H   0  0  0  0  0  0  0  0  0  0  0  0
  144.3640  140.8093  154.3336 H   0  0  0  0  0  0  0  0  0  0  0  0
  1  2  1  0  0  0  0
  1 19  1  0  0  0  0
  1 20  1  0  0  0  0
  1 21  1  0  0  0  0
  2  9  1  0  0  0  0
  2  3  1  0  0  0  0
  2 22  1  0  0  0  0
  3  4  1  0  0  0  0
  3 23  1  0  0  0  0
  3 24  1  0  0  0  0
  4  5  1  0  0  0  0
  4  6  1  0  0  0  0
  4 45  1  0  0  0  0
  5 25  1  0  0  0  0
  5 26  1  0  0  0  0
  5 27  1  0  0  0  0
  6  7  1  0  0  0  0
  6  8  1  0  0  0  0
  6 28  1  0  0  0  0
  7 29  1  0  0  0  0
  7 30  1  0  0  0  0
  7 31  1  0  0  0  0
  8  9  1  0  0  0  0
  8 32  1  0  0  0  0
  8 33  1  0  0  0  0
  9 10  1  0  0  0  0
  9 34  1  0  0  0  0
 10 11  1  0  0  0  0
 10 35  1  0  0  0  0
 10 44  1  0  0  0  0
 11 12  1  0  0  0  0
 11 36  1  0  0  0  0
 11 37  1  0  0  0  0
 12 13  1  0  0  0  0
 12 38  1  0  0  0  0
 12 39  1  0  0  0  0
 13 18  1  0  0  0  0
 13 14  2  0  0  0  0
 14 15  1  0  0  0  0
 14 40  1  0  0  0  0
 15 16  2  0  0  0  0
 15 41  1  0  0  0  0
 16 17  1  0  0  0  0
 16 42  1  0  0  0  0
 17 18  2  0  0  0  0
 17 43  1  0  0  0  0
M  CHG  1   4   1
M  CHG  1  10   1
M  END
> <s_m_source_file>
AV-unprocessed.smi

> <i_m_source_file_index>
3303

> <i_lp_mmshare_version>
43012

> <i_f3d_flags>
0

> <s_epik_input>
W0NIM11bQ0BASF0xW0NIMl1OKFtDSDNdKVtDQEBIXShbQ0gzXSlbQ0gyXVtDQEhdMVtOSF1bQ0gyXVtDSDJdYzJbY0hdW2NIXVtjSF1bY0hdbjI=

> <s_epik_cmdline>
J2VwaWtfcHl0aG9uJywgJy1waCcsICc3LjAnLCAnLXRuJywgJzgnLCAnLW1hJywgJzIwMCcsICctbWV0YWxfYmluZGluZycsICctaW1hZScsICc8aW5maWxlLm1hZT4nLCAnLW9tYWUnLCAnPG91dGZpbGUubWFlPic=

> <r_epik_Ionization_Penalty>
0.0769462

> <r_epik_Ionization_Penalty_Charging>
0.0759813

> <r_epik_Ionization_Penalty_Neutral>
0.000964829

> <r_epik_State_Penalty>
0.0654373

> <r_epik_Charging_Adjusted_Penalty>
0.141419

> <i_epik_Tot_Q>
2

> <i_epik_Tot_abs_Q>
2

> <r_epik_Metal_State_Penalty>
0.0656439

> <b_epik_Metal_Only>
0

> <s_lp_Force_Field>
OPLS_2005

> <r_lp_Energy>
31.1482

> <b_lp_Chiralities_Consistent>
1

> <s_lp_Variant>
AV-unprocessed.smi:3303-15

> <Gold.Version>
5.8.1

> <Gold.Id.Protein>
6NUR|6NUR_protein|mol2

> <Gold.PLP.Fitness>
43.5902

> <Gold.PLP.PLP>
-33.4048

> <Gold.PLP.part.hbond>
-2.0000

> <Gold.PLP.part.metal>
0.0000

> <Gold.PLP.part.buried>
-4.1757

> <Gold.PLP.part.nonpolar>
-27.3135

> <Gold.PLP.part.repulsive>
0.1181

> <Gold.PLP.ligand.clash>
0.0000

> <Gold.PLP.ligand.torsion>
0.8979

> <Gold.PLP.Chemscore.Hbond>
3.9840

> <Gold.PLP.Chemscore.CHOScore>
0.0000

> <Gold.PLP.Chemscore.Metal>
0.0000

> <Gold.Chemscore.Hbonds>
donor molecule, donor type, donor heavy atom, donor atom, acceptor molecule, acceptor atom, score
      L1  H     4    45       P1 10175  2.00
      L1  H    10    44       P1  8028  2.00

> <Gold.PLP.Chemscore.Internal.Correction>
0.0292

> <Gold.Rescore>
     Score         DG    S(hbond)    S(metal)    S(lipo)     H(rot)  DE(clash)    DE(int)     intcor
     18.49     -19.40       1.86        0.00      95.83       1.37       0.08       0.83       ----

> <Gold.Chemscore.Fitness>
18.4897

> <Gold.Chemscore.DG>
-19.3996

> <Gold.Chemscore.ZeroCoef>
-5.4800

> <Gold.Chemscore.Hbond>
1.8640

> <Gold.Chemscore.Metal>
0.0000

> <Gold.Chemscore.Lipo>
95.8310

> <Gold.Chemscore.Internal_Hbond>
0.0000

> <Gold.Chemscore.DEClash>
0.0847

> <Gold.Chemscore.DEInternal>
0.8251

> <Gold.Chemscore.Rot>
1.3744

> <Gold.Chemscore.Internal.Correction>
   9.000000E+99

> <Gold.Chemscore.Hbonds>
donor molecule, donor type, donor heavy atom, donor atom, acceptor molecule, acceptor atom, score
      L1  H     4    45       P1 10175  0.91
      L1  H    10    44       P1  8028  0.99

> <Gold.Chemscore.Hbond.Weighted>
-6.2258

> <Gold.Chemscore.Metal.Weighted>
-0.0000

> <Gold.Chemscore.Lipo.Weighted>
-11.2122

> <Gold.Chemscore.Internal_Hbond.Weighted>
0.0000

> <Gold.Chemscore.DEClash.Weighted>
0.0847

> <Gold.Chemscore.DEInternal.Weighted>
0.8251

> <Gold.Chemscore.Rot.Weighted>
3.5185

> <Gold.Chemscore.Internal.Correction.Weighted>
   9.000000E+99

> <Gold.Protein.RotatedTorsions>
[ 6907 6896 6895 6894 ] final  119.69 input  -60.11 | X-H torsion
[ 7974 7965 7964 7962 ] final    2.29 input  175.53 | X-H torsion
[ 8008 7997 7996 7995 ] final   51.46 input   59.86 | X-H torsion
[ 10167 10162 10161 10158 ] final    5.33 input  -65.29 | X-H torsion
[ 10718 10713 10712 10709 ] final  130.09 input   66.30 | X-H torsion
[ 10763 10752 10751 10750 ] final  134.11 input  -60.55 | X-H torsion
[ 11005 11000 10999 10996 ] final  143.04 input  -57.11 | X-H torsion

> <Gold.Protein.ActiveResidues>
 VAL166  LYS551  ARG553  GLY616  TRP617  ASP618  TYR619  PRO620  LYS621  CYS622 
 ASP623  PHE694  ASN695  SER759  ASP760  ASP761  ALA762  ILE779  LEU786  VAL792 
 PHE793  MET794  SER795  GLU796  ALA797  LYS798  CYS799  TRP800  GLU811  SER814 

> <Gold.Protein.RotatedAtoms>
  152.4454  133.7526  159.6701 H   0  0  0  0  0  0  0  0  0  0  0  0  # atno 6907 bound_to 6896
  150.8352  133.8014  159.3088 H   0  0  0  0  0  0  0  0  0  0  0  0  # atno 6908 bound_to 6896
  151.5656  135.1067  160.0035 H   0  0  0  0  0  0  0  0  0  0  0  0  # atno 6909 bound_to 6896
  146.2443  140.0859  142.8354 H   0  0  0  0  0  0  0  0  0  0  0  0  # atno 7974 bound_to 7965
  155.4357  140.3452  155.4284 H   0  0  0  0  0  0  0  0  0  0  0  0  # atno 8008 bound_to 7997
  156.1309  140.1514  156.9097 H   0  0  0  0  0  0  0  0  0  0  0  0  # atno 8009 bound_to 7997
  154.4894  140.0845  156.7540 H   0  0  0  0  0  0  0  0  0  0  0  0  # atno 8010 bound_to 7997
  140.6488  143.7596  150.7541 H   0  0  0  0  0  0  0  0  0  0  0  0  # atno 10167 bound_to 10162
  157.5094  131.1096  150.9314 H   0  0  0  0  0  0  0  0  0  0  0  0  # atno 10718 bound_to 10713
  153.8181  135.3120  155.3407 H   0  0  0  0  0  0  0  0  0  0  0  0  # atno 10763 bound_to 10752
  154.8024  135.4719  154.0310 H   0  0  0  0  0  0  0  0  0  0  0  0  # atno 10764 bound_to 10752
  153.1710  135.6878  153.8697 H   0  0  0  0  0  0  0  0  0  0  0  0  # atno 10765 bound_to 10752
  140.0523  134.9249  157.1039 H   0  0  0  0  0  0  0  0  0  0  0  0  # atno 11005 bound_to 11000
  145.0693  140.9144  143.4892 LP  0  0  0  0  0  0  0  0  0  0  0  0  # atno 17320 bound_to 7965
  145.0989  139.2836  143.5696 LP  0  0  0  0  0  0  0  0  0  0  0  0  # atno 17321 bound_to 7965
  140.1243  143.4583  152.2294 LP  0  0  0  0  0  0  0  0  0  0  0  0  # atno 17342 bound_to 10162
  139.5701  144.7458  151.3915 LP  0  0  0  0  0  0  0  0  0  0  0  0  # atno 17343 bound_to 10162
  156.9959  130.5581  149.5307 LP  0  0  0  0  0  0  0  0  0  0  0  0  # atno 17370 bound_to 10713
  156.0279  130.5372  150.8457 LP  0  0  0  0  0  0  0  0  0  0  0  0  # atno 17371 bound_to 10713
  140.3898  134.2197  155.7166 LP  0  0  0  0  0  0  0  0  0  0  0  0  # atno 17394 bound_to 11000
  141.1936  133.8147  157.0792 LP  0  0  0  0  0  0  0  0  0  0  0  0  # atno 17395 bound_to 11000

$$$$
