AV-unprocessed.smi:584|AV-procd|sdf|2999|dock8
  -GOLD-   2262023503D 1   1.00000     0.00000
 Structure written by MMmdl.
 41 42  0  0  0  0  0  0  0  0  1 V2000
  151.1495  135.9949  156.1885 O   0  0  0  0  0  0  0  0  0  0  0  0
  150.7774  136.2732  155.0475 C   0  0  0  0  0  0  0  0  0  0  0  0
  151.3572  137.4799  154.2958 C   0  0  0  0  0  0  0  0  0  0  0  0
  150.6765  138.7474  154.6095 N   0  0  0  0  0  0  0  0  0  0  0  0
  149.3581  138.8945  154.1360 C   0  0  0  0  0  0  0  0  0  0  0  0
  148.6294  140.0101  154.3299 C   0  0  0  0  0  0  0  0  0  0  0  0
  147.1925  140.1196  153.8442 C   0  0  0  0  0  0  0  0  0  0  0  0
  146.3869  139.3160  154.5388 F   0  0  0  0  0  0  0  0  0  0  0  0
  146.7597  141.3709  153.9921 F   0  0  0  0  0  0  0  0  0  0  0  0
  147.0954  139.7970  152.5538 F   0  0  0  0  0  0  0  0  0  0  0  0
  149.2604  141.0674  155.0950 C   0  0  0  0  0  0  0  0  0  0  0  0
  150.5196  140.9417  155.5581 C   0  0  0  0  0  0  0  0  0  0  0  0
  151.3093  139.7323  155.3146 C   0  0  0  0  0  0  0  0  0  0  0  0
  152.4661  139.6130  155.7190 O   0  0  0  0  0  0  0  0  0  0  0  0
  149.8630  135.5556  154.3769 N   0  0  0  0  0  0  0  0  0  0  0  0
  149.1909  134.3585  154.8742 C   0  0  0  0  0  0  0  0  0  0  0  0
  149.8278  133.0586  154.3376 C   0  0  0  0  0  0  0  0  0  0  0  0
  148.7346  132.0632  153.8959 C   0  0  0  0  0  0  0  0  0  0  0  0
  149.3340  130.7597  153.3441 C   0  0  0  0  0  0  0  0  0  0  0  0
  150.2754  130.1038  154.3646 C   0  0  0  0  0  0  0  0  0  0  0  0
  151.3762  131.0806  154.8020 C   0  0  0  0  0  0  0  0  0  0  0  0
  150.7791  132.3854  155.3540 C   0  0  0  0  0  0  0  0  0  0  0  0
  152.4186  137.5620  154.5359 H   0  0  0  0  0  0  0  0  0  0  0  0
  151.3242  137.2733  153.2247 H   0  0  0  0  0  0  0  0  0  0  0  0
  148.9784  138.0396  153.5951 H   0  0  0  0  0  0  0  0  0  0  0  0
  148.7169  141.9790  155.2951 H   0  0  0  0  0  0  0  0  0  0  0  0
  150.9602  141.7518  156.1205 H   0  0  0  0  0  0  0  0  0  0  0  0
  149.6178  135.8575  153.4451 H   0  0  0  0  0  0  0  0  0  0  0  0
  149.1635  134.3469  155.9650 H   0  0  0  0  0  0  0  0  0  0  0  0
  148.1516  134.4154  154.5493 H   0  0  0  0  0  0  0  0  0  0  0  0
  150.4140  133.3172  153.4543 H   0  0  0  0  0  0  0  0  0  0  0  0
  148.0822  131.8336  154.7397 H   0  0  0  0  0  0  0  0  0  0  0  0
  148.1012  132.5193  153.1343 H   0  0  0  0  0  0  0  0  0  0  0  0
  148.5352  130.0675  153.0769 H   0  0  0  0  0  0  0  0  0  0  0  0
  149.8817  130.9704  152.4246 H   0  0  0  0  0  0  0  0  0  0  0  0
  149.7044  129.7808  155.2360 H   0  0  0  0  0  0  0  0  0  0  0  0
  150.7224  129.2062  153.9362 H   0  0  0  0  0  0  0  0  0  0  0  0
  152.0097  130.6131  155.5564 H   0  0  0  0  0  0  0  0  0  0  0  0
  152.0228  131.3060  153.9529 H   0  0  0  0  0  0  0  0  0  0  0  0
  151.5957  133.0577  155.6167 H   0  0  0  0  0  0  0  0  0  0  0  0
  150.2418  132.1776  156.2803 H   0  0  0  0  0  0  0  0  0  0  0  0
  1  2  2  0  0  0  0
  2  3  1  0  0  0  0
  2 15  1  0  0  0  0
  3  4  1  0  0  0  0
  3 23  1  0  0  0  0
  3 24  1  0  0  0  0
  4 13  1  0  0  0  0
  4  5  1  0  0  0  0
  5  6  2  0  0  0  0
  5 25  1  0  0  0  0
  6  7  1  0  0  0  0
  6 11  1  0  0  0  0
  7  8  1  0  0  0  0
  7  9  1  0  0  0  0
  7 10  1  0  0  0  0
 11 12  2  0  0  0  0
 11 26  1  0  0  0  0
 12 13  1  0  0  0  0
 12 27  1  0  0  0  0
 13 14  2  0  0  0  0
 15 16  1  0  0  0  0
 15 28  1  0  0  0  0
 16 17  1  0  0  0  0
 16 29  1  0  0  0  0
 16 30  1  0  0  0  0
 17 22  1  0  0  0  0
 17 18  1  0  0  0  0
 17 31  1  0  0  0  0
 18 19  1  0  0  0  0
 18 32  1  0  0  0  0
 18 33  1  0  0  0  0
 19 20  1  0  0  0  0
 19 34  1  0  0  0  0
 19 35  1  0  0  0  0
 20 21  1  0  0  0  0
 20 36  1  0  0  0  0
 20 37  1  0  0  0  0
 21 22  1  0  0  0  0
 21 38  1  0  0  0  0
 21 39  1  0  0  0  0
 22 40  1  0  0  0  0
 22 41  1  0  0  0  0
M  END
> <s_m_source_file>
AV-unprocessed.smi

> <i_m_source_file_index>
584

> <i_lp_mmshare_version>
43012

> <i_f3d_flags>
0

> <s_epik_input>
W0NIMl0xW0NIMl1bQ0gyXVtDSDJdW0NIMl1bQ0hdMVtDSDJdW05IXUMoPU8pW0NIMl1uMltjSF1jKEMoRikoRilGKVtjSF1bY0hdYzI9Tw==

> <s_epik_cmdline>
J2VwaWtfcHl0aG9uJywgJy1waCcsICc3LjAnLCAnLXRuJywgJzgnLCAnLW1hJywgJzIwMCcsICctbWV0YWxfYmluZGluZycsICctaW1hZScsICc8aW5maWxlLm1hZT4nLCAnLW9tYWUnLCAnPG91dGZpbGUubWFlPic=

> <r_lp_tautomer_probability>
1

> <r_epik_Ionization_Penalty>
3.78989e-08

> <r_epik_Ionization_Penalty_Charging>
1.81011e-08

> <r_epik_Ionization_Penalty_Neutral>
1.97978e-08

> <r_epik_State_Penalty>
-0

> <r_epik_Charging_Adjusted_Penalty>
1.81011e-08

> <i_epik_Tot_Q>
0

> <i_epik_Tot_abs_Q>
0

> <r_epik_Metal_State_Penalty>
-0

> <b_epik_Metal_Only>
0

> <s_lp_Force_Field>
OPLS_2005

> <r_lp_Energy>
22.635

> <b_lp_Chiralities_Consistent>
1

> <s_lp_Variant>
AV-unprocessed.smi:584-1

> <Gold.Version>
5.8.1

> <Gold.Id.Protein>
6NUR|6NUR_protein|mol2

> <Gold.PLP.Fitness>
48.4369

> <Gold.PLP.PLP>
-42.3415

> <Gold.PLP.part.hbond>
-2.0314

> <Gold.PLP.part.metal>
0.0000

> <Gold.PLP.part.buried>
2.5601

> <Gold.PLP.part.nonpolar>
-41.6242

> <Gold.PLP.part.repulsive>
0.0537

> <Gold.PLP.ligand.clash>
0.0011

> <Gold.PLP.ligand.torsion>
1.4677

> <Gold.PLP.Chemscore.Hbond>
2.0000

> <Gold.PLP.Chemscore.CHOScore>
1.0000

> <Gold.PLP.Chemscore.Metal>
0.0000

> <Gold.Chemscore.Hbonds>
donor molecule, donor type, donor heavy atom, donor atom, acceptor molecule, acceptor atom, score
      L1  H    15    28       P1  7948  0.90
      P1  H  7997  8009       L1    14  1.00
      L1  C     5    25       P1  7948  1.00

> <Gold.PLP.Chemscore.Internal.Correction>
0.0319

> <Gold.Rescore>
     Score         DG    S(hbond)    S(metal)    S(lipo)     H(rot)  DE(clash)    DE(int)     intcor
     14.80     -16.01       1.90        0.00      73.84       1.75       0.06       1.15       ----

> <Gold.Chemscore.Fitness>
14.7962

> <Gold.Chemscore.DG>
-16.0059

> <Gold.Chemscore.ZeroCoef>
-5.4800

> <Gold.Chemscore.Hbond>
1.9031

> <Gold.Chemscore.Metal>
0.0000

> <Gold.Chemscore.Lipo>
73.8398

> <Gold.Chemscore.Internal_Hbond>
0.0000

> <Gold.Chemscore.DEClash>
0.0641

> <Gold.Chemscore.DEInternal>
1.1455

> <Gold.Chemscore.Rot>
1.7459

> <Gold.Chemscore.Internal.Correction>
   9.000000E+99

> <Gold.Chemscore.Hbonds>
donor molecule, donor type, donor heavy atom, donor atom, acceptor molecule, acceptor atom, score
      L1  H    15    28       P1  7948  0.18
      P1  H  7997  8009       L1    14  0.95

> <Gold.Chemscore.Hbond.Weighted>
-6.3562

> <Gold.Chemscore.Metal.Weighted>
-0.0000

> <Gold.Chemscore.Lipo.Weighted>
-8.6393

> <Gold.Chemscore.Internal_Hbond.Weighted>
0.0000

> <Gold.Chemscore.DEClash.Weighted>
0.0641

> <Gold.Chemscore.DEInternal.Weighted>
1.1455

> <Gold.Chemscore.Rot.Weighted>
4.4696

> <Gold.Chemscore.Internal.Correction.Weighted>
   9.000000E+99

> <Gold.Protein.RotatedTorsions>
[ 6907 6896 6895 6894 ] final -112.21 input  -60.11 | X-H torsion
[ 7974 7965 7964 7962 ] final   54.34 input  175.53 | X-H torsion
[ 8008 7997 7996 7995 ] final -155.11 input   59.86 | X-H torsion
[ 10167 10162 10161 10158 ] final    4.46 input  -65.29 | X-H torsion
[ 10718 10713 10712 10709 ] final -111.51 input   66.30 | X-H torsion
[ 10763 10752 10751 10750 ] final   79.02 input  -60.55 | X-H torsion
[ 11005 11000 10999 10996 ] final  -62.36 input  -57.11 | X-H torsion

> <Gold.Protein.ActiveResidues>
 VAL166  LYS551  ARG553  GLY616  TRP617  ASP618  TYR619  PRO620  LYS621  CYS622 
 ASP623  PHE694  ASN695  SER759  ASP760  ASP761  ALA762  ILE779  LEU786  VAL792 
 PHE793  MET794  SER795  GLU796  ALA797  LYS798  CYS799  TRP800  GLU811  SER814 

> <Gold.Protein.RotatedAtoms>
  150.7743  133.9123  159.3372 H   0  0  0  0  0  0  0  0  0  0  0  0  # atno 6907 bound_to 6896
  151.7002  135.0929  160.0259 H   0  0  0  0  0  0  0  0  0  0  0  0  # atno 6908 bound_to 6896
  152.3772  133.6459  159.6169 H   0  0  0  0  0  0  0  0  0  0  0  0  # atno 6909 bound_to 6896
  145.9619  139.4067  143.0243 H   0  0  0  0  0  0  0  0  0  0  0  0  # atno 7974 bound_to 7965
  155.6967  140.0762  157.2426 H   0  0  0  0  0  0  0  0  0  0  0  0  # atno 8008 bound_to 7997
  154.4079  140.1655  156.2199 H   0  0  0  0  0  0  0  0  0  0  0  0  # atno 8009 bound_to 7997
  155.9404  140.3385  155.6325 H   0  0  0  0  0  0  0  0  0  0  0  0  # atno 8010 bound_to 7997
  140.6534  143.7489  150.7612 H   0  0  0  0  0  0  0  0  0  0  0  0  # atno 10167 bound_to 10162
  156.0651  130.5871  150.8384 H   0  0  0  0  0  0  0  0  0  0  0  0  # atno 10718 bound_to 10713
  153.0919  135.4855  154.8707 H   0  0  0  0  0  0  0  0  0  0  0  0  # atno 10763 bound_to 10752
  154.7280  135.3054  154.8942 H   0  0  0  0  0  0  0  0  0  0  0  0  # atno 10764 bound_to 10752
  153.9586  135.6815  153.4798 H   0  0  0  0  0  0  0  0  0  0  0  0  # atno 10765 bound_to 10752
  141.1357  133.6639  156.5516 H   0  0  0  0  0  0  0  0  0  0  0  0  # atno 11005 bound_to 11000
  145.8028  140.9763  143.0990 LP  0  0  0  0  0  0  0  0  0  0  0  0  # atno 17320 bound_to 7965
  144.6817  139.9823  143.7483 LP  0  0  0  0  0  0  0  0  0  0  0  0  # atno 17321 bound_to 7965
  140.1144  143.4669  152.2351 LP  0  0  0  0  0  0  0  0  0  0  0  0  # atno 17342 bound_to 10162
  139.5752  144.7483  151.3784 LP  0  0  0  0  0  0  0  0  0  0  0  0  # atno 17343 bound_to 10162
  157.5688  131.0946  150.9449 LP  0  0  0  0  0  0  0  0  0  0  0  0  # atno 17370 bound_to 10713
  156.9670  130.5477  149.5288 LP  0  0  0  0  0  0  0  0  0  0  0  0  # atno 17371 bound_to 10713
  140.4059  134.7315  157.4807 LP  0  0  0  0  0  0  0  0  0  0  0  0  # atno 17394 bound_to 11000
  140.0462  134.6196  155.8918 LP  0  0  0  0  0  0  0  0  0  0  0  0  # atno 17395 bound_to 11000

$$$$
