AV-unprocessed.smi:2499|AV-procd|sdf|9836|dock7
  -GOLD-   2272013463D 1   1.00000     0.00000
 Structure written by MMmdl.
 27 28  0  0  0  0  0  0  0  0  1 V2000
  152.7509  142.0270  160.5941 C   0  0  0  0  0  0  0  0  0  0  0  0
  152.8886  142.5831  159.1702 C   0  0  1  0  0  0  0  0  0  0  0  0
  152.0606  141.7808  158.2748 N   0  0  0  0  0  0  0  0  0  0  0  0
  152.2973  140.5106  157.9126 C   0  0  0  0  0  0  0  0  0  0  0  0
  153.2703  139.8823  158.3412 O   0  0  0  0  0  0  0  0  0  0  0  0
  151.3012  140.0631  157.0587 N   0  0  0  0  0  0  0  0  0  0  0  0
  151.6333  139.3621  156.0192 C   0  0  0  0  0  0  0  0  0  0  0  0
  150.7967  138.8458  155.0425 N   0  0  0  0  0  0  0  0  0  0  0  0
  151.5659  138.1636  154.1408 C   0  0  0  0  0  0  0  0  0  0  0  0
  152.8341  138.2446  154.5332 C   0  0  0  0  0  0  0  0  0  0  0  0
  152.9095  138.9722  155.6824 O   0  0  0  0  0  0  0  0  0  0  0  0
  152.5564  144.0657  159.1340 C   0  0  0  0  0  0  0  0  0  0  0  0
  151.3128  144.5783  158.4465 C   0  0  0  0  0  0  0  0  0  0  0  0
  152.6742  144.8574  157.8529 C   0  0  0  0  0  0  0  0  0  0  0  0
  153.3960  142.5642  161.2899 H   0  0  0  0  0  0  0  0  0  0  0  0
  153.0316  140.9739  160.6346 H   0  0  0  0  0  0  0  0  0  0  0  0
  151.7260  142.1134  160.9570 H   0  0  0  0  0  0  0  0  0  0  0  0
  153.9338  142.4636  158.8781 H   0  0  0  0  0  0  0  0  0  0  0  0
  151.2404  142.2302  157.8938 H   0  0  0  0  0  0  0  0  0  0  0  0
  149.7932  138.9320  154.9691 H   0  0  0  0  0  0  0  0  0  0  0  0
  151.1102  137.6784  153.2901 H   0  0  0  0  0  0  0  0  0  0  0  0
  153.7554  137.8573  154.1240 H   0  0  0  0  0  0  0  0  0  0  0  0
  152.8514  144.5968  160.0371 H   0  0  0  0  0  0  0  0  0  0  0  0
  150.6811  143.8577  157.9307 H   0  0  0  0  0  0  0  0  0  0  0  0
  150.7867  145.4069  158.9161 H   0  0  0  0  0  0  0  0  0  0  0  0
  153.0564  145.8736  157.9246 H   0  0  0  0  0  0  0  0  0  0  0  0
  152.9445  144.3197  156.9463 H   0  0  0  0  0  0  0  0  0  0  0  0
  1  2  1  0  0  0  0
  1 15  1  0  0  0  0
  1 16  1  0  0  0  0
  1 17  1  0  0  0  0
  2  3  1  0  0  0  0
  2 12  1  0  0  0  0
  2 18  1  0  0  0  0
  3 19  1  0  0  0  0
  3  4  1  0  0  0  0
  4  6  1  0  0  0  0
  4  5  2  0  0  0  0
  6  7  2  0  0  0  0
  7 11  1  0  0  0  0
  7  8  1  0  0  0  0
  8 20  1  0  0  0  0
  8  9  1  0  0  0  0
  9 21  1  0  0  0  0
  9 10  2  0  0  0  0
 10 22  1  0  0  0  0
 10 11  1  0  0  0  0
 12 14  1  0  0  0  0
 12 13  1  0  0  0  0
 12 23  1  0  0  0  0
 13 14  1  0  0  0  0
 13 24  1  0  0  0  0
 13 25  1  0  0  0  0
 14 26  1  0  0  0  0
 14 27  1  0  0  0  0
M  END
> <s_m_source_file>
AV-unprocessed.smi

> <i_m_source_file_index>
2499

> <i_lp_mmshare_version>
43012

> <i_f3d_flags>
0

> <s_epik_input>
W0NIMl0xW0NIMl1bQ0hdMVtDQEhdKFtDSDNdKVtOSF1DKD1PKVtOSF1jMm5bY0hdW2NIXW8y

> <s_epik_cmdline>
J2VwaWtfcHl0aG9uJywgJy1waCcsICc3LjAnLCAnLXRuJywgJzgnLCAnLW1hJywgJzIwMCcsICctbWV0YWxfYmluZGluZycsICctaW1hZScsICc8aW5maWxlLm1hZT4nLCAnLW9tYWUnLCAnPG91dGZpbGUubWFlPic=

> <r_lp_tautomer_probability>
0.107061

> <r_epik_Ionization_Penalty>
1.51515

> <r_epik_Ionization_Penalty_Charging>
1.51478

> <r_epik_Ionization_Penalty_Neutral>
0.000369309

> <r_epik_State_Penalty>
2.62718

> <r_epik_Charging_Adjusted_Penalty>
4.14196

> <i_epik_Tot_Q>
0

> <i_epik_Tot_abs_Q>
0

> <r_epik_Metal_State_Penalty>
3.5378

> <b_epik_Metal_Only>
0

> <s_lp_Force_Field>
OPLS_2005

> <r_lp_Energy>
35.9469

> <b_lp_Chiralities_Consistent>
1

> <s_lp_Variant>
AV-unprocessed.smi:2499-6

> <Gold.Version>
5.8.1

> <Gold.Id.Protein>
6NUR|6NUR_protein|mol2

> <Gold.PLP.Fitness>
38.3952

> <Gold.PLP.PLP>
-33.4283

> <Gold.PLP.part.hbond>
-2.0000

> <Gold.PLP.part.metal>
0.0000

> <Gold.PLP.part.buried>
-4.6425

> <Gold.PLP.part.nonpolar>
-26.8403

> <Gold.PLP.part.repulsive>
0.1486

> <Gold.PLP.ligand.clash>
0.0000

> <Gold.PLP.ligand.torsion>
1.1750

> <Gold.PLP.Chemscore.Hbond>
1.0000

> <Gold.PLP.Chemscore.CHOScore>
1.0854

> <Gold.PLP.Chemscore.Metal>
0.0000

> <Gold.Chemscore.Hbonds>
donor molecule, donor type, donor heavy atom, donor atom, acceptor molecule, acceptor atom, score
      P1  H  7997  8008       L1     5  1.00
      L1  C     9    21       P1  7948  0.01
      L1  C     9    21       P1  7949  1.00

> <Gold.PLP.Chemscore.Internal.Correction>
1.0608

> <Gold.Rescore>
     Score         DG    S(hbond)    S(metal)    S(lipo)     H(rot)  DE(clash)    DE(int)     intcor
     12.45     -15.07       0.97        0.00      82.54       1.29       0.04       2.58       ----

> <Gold.Chemscore.Fitness>
12.4488

> <Gold.Chemscore.DG>
-15.0702

> <Gold.Chemscore.ZeroCoef>
-5.4800

> <Gold.Chemscore.Hbond>
0.9700

> <Gold.Chemscore.Metal>
0.0000

> <Gold.Chemscore.Lipo>
82.5362

> <Gold.Chemscore.Internal_Hbond>
0.0000

> <Gold.Chemscore.DEClash>
0.0399

> <Gold.Chemscore.DEInternal>
2.5815

> <Gold.Chemscore.Rot>
1.2915

> <Gold.Chemscore.Internal.Correction>
   9.000000E+99

> <Gold.Chemscore.Hbonds>
donor molecule, donor type, donor heavy atom, donor atom, acceptor molecule, acceptor atom, score
      P1  H  7997  8008       L1     5  0.65

> <Gold.Chemscore.Hbond.Weighted>
-3.2397

> <Gold.Chemscore.Metal.Weighted>
-0.0000

> <Gold.Chemscore.Lipo.Weighted>
-9.6567

> <Gold.Chemscore.Internal_Hbond.Weighted>
0.0000

> <Gold.Chemscore.DEClash.Weighted>
0.0399

> <Gold.Chemscore.DEInternal.Weighted>
2.5815

> <Gold.Chemscore.Rot.Weighted>
3.3062

> <Gold.Chemscore.Internal.Correction.Weighted>
   9.000000E+99

> <Gold.Protein.RotatedTorsions>
[ 6907 6896 6895 6894 ] final -153.95 input  -60.11 | X-H torsion
[ 7974 7965 7964 7962 ] final  -35.14 input  175.53 | X-H torsion
[ 8008 7997 7996 7995 ] final  -90.61 input   59.86 | X-H torsion
[ 10167 10162 10161 10158 ] final -151.96 input  -65.29 | X-H torsion
[ 10718 10713 10712 10709 ] final    9.70 input   66.30 | X-H torsion
[ 10763 10752 10751 10750 ] final   95.55 input  -60.55 | X-H torsion
[ 11005 11000 10999 10996 ] final -143.00 input  -57.11 | X-H torsion

> <Gold.Protein.ActiveResidues>
 VAL166  LYS551  ARG553  GLY616  TRP617  ASP618  TYR619  PRO620  LYS621  CYS622 
 ASP623  PHE694  ASN695  SER759  ASP760  ASP761  ALA762  ILE779  LEU786  VAL792 
 PHE793  MET794  SER795  GLU796  ALA797  LYS798  CYS799  TRP800  GLU811  SER814 

> <Gold.Protein.RotatedAtoms>
  151.2502  133.4354  159.2610 H   0  0  0  0  0  0  0  0  0  0  0  0  # atno 6907 bound_to 6896
  151.0624  134.9746  159.8277 H   0  0  0  0  0  0  0  0  0  0  0  0  # atno 6908 bound_to 6896
  152.5400  134.2451  159.8930 H   0  0  0  0  0  0  0  0  0  0  0  0  # atno 6909 bound_to 6896
  146.0771  140.6124  142.8925 H   0  0  0  0  0  0  0  0  0  0  0  0  # atno 7974 bound_to 7965
  154.7007  140.0528  157.0455 H   0  0  0  0  0  0  0  0  0  0  0  0  # atno 8008 bound_to 7997
  155.0689  140.3197  155.4618 H   0  0  0  0  0  0  0  0  0  0  0  0  # atno 8009 bound_to 7997
  156.2759  140.2085  156.5816 H   0  0  0  0  0  0  0  0  0  0  0  0  # atno 8010 bound_to 7997
  139.7223  143.8938  152.2507 H   0  0  0  0  0  0  0  0  0  0  0  0  # atno 10167 bound_to 10162
  156.9702  130.5966  149.5668 H   0  0  0  0  0  0  0  0  0  0  0  0  # atno 10718 bound_to 10713
  153.2546  135.4250  155.0832 H   0  0  0  0  0  0  0  0  0  0  0  0  # atno 10763 bound_to 10752
  154.8395  135.3434  154.6464 H   0  0  0  0  0  0  0  0  0  0  0  0  # atno 10764 bound_to 10752
  153.6885  135.7035  153.5154 H   0  0  0  0  0  0  0  0  0  0  0  0  # atno 10765 bound_to 10752
  140.8169  134.2677  157.4917 H   0  0  0  0  0  0  0  0  0  0  0  0  # atno 11005 bound_to 11000
  144.7269  140.4551  143.6967 LP  0  0  0  0  0  0  0  0  0  0  0  0  # atno 17320 bound_to 7965
  145.6286  139.1533  143.2982 LP  0  0  0  0  0  0  0  0  0  0  0  0  # atno 17321 bound_to 7965
  139.8838  144.7003  150.8848 LP  0  0  0  0  0  0  0  0  0  0  0  0  # atno 17342 bound_to 10162
  140.7756  143.3640  151.1773 LP  0  0  0  0  0  0  0  0  0  0  0  0  # atno 17343 bound_to 10162
  156.0286  130.5378  150.8473 LP  0  0  0  0  0  0  0  0  0  0  0  0  # atno 17370 bound_to 10713
  157.5597  131.0945  150.9576 LP  0  0  0  0  0  0  0  0  0  0  0  0  # atno 17371 bound_to 10713
  139.8710  134.9514  156.4084 LP  0  0  0  0  0  0  0  0  0  0  0  0  # atno 17394 bound_to 11000
  140.9139  133.7692  155.9825 LP  0  0  0  0  0  0  0  0  0  0  0  0  # atno 17395 bound_to 11000

$$$$
