AV-unprocessed.smi:2743|AV-procd|sdf|10567|dock7
  -GOLD-   2272015 23D 1   1.00000     0.00000
 Structure written by MMmdl.
 39 40  0  0  0  0  0  0  0  0  2 V2000
  154.1926  135.8470  160.2307 N   0  0  0  0  0  0  0  0  0  0  0  0
  153.8858  136.9575  160.3409 C   0  0  0  0  0  0  0  0  0  0  0  0
  153.4929  138.3686  160.4778 C   0  0  0  0  0  0  0  0  0  0  0  0
  153.5473  139.0947  159.1379 C   0  0  0  0  0  0  0  0  0  0  0  0
  154.6340  139.3887  158.6408 O   0  0  0  0  0  0  0  0  0  0  0  0
  152.3655  139.4063  158.5826 N   0  0  0  0  0  0  0  0  0  0  0  0
  152.1706  140.2006  157.3694 C   0  0  0  0  0  0  0  0  0  0  0  0
  151.0154  141.2385  157.5074 C   0  0  0  0  0  0  0  0  0  0  0  0
  151.4995  142.3992  158.4080 C   0  0  0  0  0  0  0  0  0  0  0  0
  151.9127  142.1374  159.7394 C   0  0  0  0  0  0  0  0  0  0  0  0
  152.3173  143.1960  160.5766 C   0  0  0  0  0  0  0  0  0  0  0  0
  152.3074  144.4616  160.1115 N   0  3  0  0  0  0  0  0  0  0  0  0
  151.9199  144.7712  158.8575 C   0  0  0  0  0  0  0  0  0  0  0  0
  151.5059  143.7524  157.9761 C   0  0  0  0  0  0  0  0  0  0  0  0
  150.6402  141.8089  156.1069 C   0  0  0  0  0  0  0  0  0  0  0  0
  149.9730  140.7920  155.1619 C   0  0  0  0  0  0  0  0  0  0  0  0
  148.7306  140.1622  155.7995 C   0  0  0  0  0  0  0  0  0  0  0  0
  149.0764  139.5302  157.1513 C   0  0  0  0  0  0  0  0  0  0  0  0
  149.7379  140.5544  158.0910 C   0  0  0  0  0  0  0  0  0  0  0  0
  152.4828  138.4078  160.8872 H   0  0  0  0  0  0  0  0  0  0  0  0
  154.1590  138.8480  161.1959 H   0  0  0  0  0  0  0  0  0  0  0  0
  151.5285  139.1097  159.0640 H   0  0  0  0  0  0  0  0  0  0  0  0
  153.0986  140.7040  157.0937 H   0  0  0  0  0  0  0  0  0  0  0  0
  151.9793  139.5005  156.5579 H   0  0  0  0  0  0  0  0  0  0  0  0
  151.9050  141.1341  160.1377 H   0  0  0  0  0  0  0  0  0  0  0  0
  152.6376  143.0689  161.6005 H   0  0  0  0  0  0  0  0  0  0  0  0
  151.9444  145.8199  158.5987 H   0  0  0  0  0  0  0  0  0  0  0  0
  151.1874  144.0421  156.9872 H   0  0  0  0  0  0  0  0  0  0  0  0
  149.9549  142.6478  156.2383 H   0  0  0  0  0  0  0  0  0  0  0  0
  151.5159  142.2150  155.6015 H   0  0  0  0  0  0  0  0  0  0  0  0
  149.6936  141.2871  154.2314 H   0  0  0  0  0  0  0  0  0  0  0  0
  150.6824  140.0122  154.8851 H   0  0  0  0  0  0  0  0  0  0  0  0
  147.9625  140.9246  155.9369 H   0  0  0  0  0  0  0  0  0  0  0  0
  148.3066  139.4115  155.1321 H   0  0  0  0  0  0  0  0  0  0  0  0
  148.1684  139.1425  157.6143 H   0  0  0  0  0  0  0  0  0  0  0  0
  149.7285  138.6694  157.0047 H   0  0  0  0  0  0  0  0  0  0  0  0
  149.9547  140.0643  159.0407 H   0  0  0  0  0  0  0  0  0  0  0  0
  148.9901  141.3189  158.3069 H   0  0  0  0  0  0  0  0  0  0  0  0
  152.5993  145.2151  160.7347 H   0  0  0  0  0  0  0  0  0  0  0  0
  1  2  3  0  0  0  0
  2  3  1  0  0  0  0
  3  4  1  0  0  0  0
  3 20  1  0  0  0  0
  3 21  1  0  0  0  0
  4  5  2  0  0  0  0
  4  6  1  0  0  0  0
  6  7  1  0  0  0  0
  6 22  1  0  0  0  0
  7  8  1  0  0  0  0
  7 23  1  0  0  0  0
  7 24  1  0  0  0  0
  8 19  1  0  0  0  0
  8  9  1  0  0  0  0
  8 15  1  0  0  0  0
  9 14  1  0  0  0  0
  9 10  2  0  0  0  0
 10 11  1  0  0  0  0
 10 25  1  0  0  0  0
 11 12  2  0  0  0  0
 11 26  1  0  0  0  0
 12 13  1  0  0  0  0
 12 39  1  0  0  0  0
 13 14  2  0  0  0  0
 13 27  1  0  0  0  0
 14 28  1  0  0  0  0
 15 16  1  0  0  0  0
 15 29  1  0  0  0  0
 15 30  1  0  0  0  0
 16 17  1  0  0  0  0
 16 31  1  0  0  0  0
 16 32  1  0  0  0  0
 17 18  1  0  0  0  0
 17 33  1  0  0  0  0
 17 34  1  0  0  0  0
 18 19  1  0  0  0  0
 18 35  1  0  0  0  0
 18 36  1  0  0  0  0
 19 37  1  0  0  0  0
 19 38  1  0  0  0  0
M  CHG  1  12   1
M  END
> <s_m_source_file>
AV-unprocessed.smi

> <i_m_source_file_index>
2743

> <i_lp_mmshare_version>
43012

> <i_f3d_flags>
0

> <s_epik_input>
TiNDW0NIMl1DKD1PKVtOSF1bQ0gyXUMxKFtDSDJdW0NIMl1bQ0gyXVtDSDJdW0NIMl0xKWMyW2NIXVtjSF1uW2NIXVtjSF0y

> <s_epik_cmdline>
J2VwaWtfcHl0aG9uJywgJy1waCcsICc3LjAnLCAnLXRuJywgJzgnLCAnLW1hJywgJzIwMCcsICctbWV0YWxfYmluZGluZycsICctaW1hZScsICc8aW5maWxlLm1hZT4nLCAnLW9tYWUnLCAnPG91dGZpbGUubWFlPic=

> <r_epik_Ionization_Penalty>
1.44483

> <r_epik_Ionization_Penalty_Charging>
1.44483

> <r_epik_Ionization_Penalty_Neutral>
8.95364e-07

> <r_epik_State_Penalty>
1.53054

> <r_epik_Charging_Adjusted_Penalty>
2.97537

> <i_epik_Tot_Q>
1

> <i_epik_Tot_abs_Q>
1

> <r_epik_Metal_State_Penalty>
1.58148

> <b_epik_Metal_Only>
0

> <s_lp_Force_Field>
OPLS_2005

> <r_lp_Energy>
24.9332

> <b_lp_Chiralities_Consistent>
1

> <s_lp_Variant>
AV-unprocessed.smi:2743-2

> <Gold.Version>
5.8.1

> <Gold.Id.Protein>
6NUR|6NUR_protein|mol2

> <Gold.PLP.Fitness>
39.3688

> <Gold.PLP.PLP>
-34.1466

> <Gold.PLP.part.hbond>
-2.0000

> <Gold.PLP.part.metal>
0.0000

> <Gold.PLP.part.buried>
-2.7430

> <Gold.PLP.part.nonpolar>
-29.0463

> <Gold.PLP.part.repulsive>
0.1229

> <Gold.PLP.ligand.clash>
0.0000

> <Gold.PLP.ligand.torsion>
0.4002

> <Gold.PLP.Chemscore.Hbond>
2.0000

> <Gold.PLP.Chemscore.CHOScore>
0.0000

> <Gold.PLP.Chemscore.Metal>
0.0000

> <Gold.Chemscore.Hbonds>
donor molecule, donor type, donor heavy atom, donor atom, acceptor molecule, acceptor atom, score
      P1  H  6896  6908       L1     1  0.80
      P1  H  7997  8010       L1     5  0.98

> <Gold.PLP.Chemscore.Internal.Correction>
0.0226

> <Gold.Rescore>
     Score         DG    S(hbond)    S(metal)    S(lipo)     H(rot)  DE(clash)    DE(int)     intcor
     18.13     -18.74       1.98        0.00      97.31       1.85       0.07       0.55       ----

> <Gold.Chemscore.Fitness>
18.1269

> <Gold.Chemscore.DG>
-18.7436

> <Gold.Chemscore.ZeroCoef>
-5.4800

> <Gold.Chemscore.Hbond>
1.9842

> <Gold.Chemscore.Metal>
0.0000

> <Gold.Chemscore.Lipo>
97.3086

> <Gold.Chemscore.Internal_Hbond>
0.0000

> <Gold.Chemscore.DEClash>
0.0691

> <Gold.Chemscore.DEInternal>
0.5476

> <Gold.Chemscore.Rot>
1.8550

> <Gold.Chemscore.Internal.Correction>
   9.000000E+99

> <Gold.Chemscore.Hbonds>
donor molecule, donor type, donor heavy atom, donor atom, acceptor molecule, acceptor atom, score
      P1  H  6896  6908       L1     1  0.58
      P1  H  7997  8010       L1     5  0.92

> <Gold.Chemscore.Hbond.Weighted>
-6.6273

> <Gold.Chemscore.Metal.Weighted>
-0.0000

> <Gold.Chemscore.Lipo.Weighted>
-11.3851

> <Gold.Chemscore.Internal_Hbond.Weighted>
0.0000

> <Gold.Chemscore.DEClash.Weighted>
0.0691

> <Gold.Chemscore.DEInternal.Weighted>
0.5476

> <Gold.Chemscore.Rot.Weighted>
4.7488

> <Gold.Chemscore.Internal.Correction.Weighted>
   9.000000E+99

> <Gold.Protein.RotatedTorsions>
[ 6907 6896 6895 6894 ] final  -56.89 input  -60.11 | X-H torsion
[ 7974 7965 7964 7962 ] final  -36.73 input  175.53 | X-H torsion
[ 8008 7997 7996 7995 ] final    8.51 input   59.86 | X-H torsion
[ 10167 10162 10161 10158 ] final   84.26 input  -65.29 | X-H torsion
[ 10718 10713 10712 10709 ] final -150.76 input   66.30 | X-H torsion
[ 10763 10752 10751 10750 ] final   52.99 input  -60.55 | X-H torsion
[ 11005 11000 10999 10996 ] final  -75.69 input  -57.11 | X-H torsion

> <Gold.Protein.ActiveResidues>
 VAL166  LYS551  ARG553  GLY616  TRP617  ASP618  TYR619  PRO620  LYS621  CYS622 
 ASP623  PHE694  ASN695  SER759  ASP760  ASP761  ALA762  ILE779  LEU786  VAL792 
 PHE793  MET794  SER795  GLU796  ALA797  LYS798  CYS799  TRP800  GLU811  SER814 

> <Gold.Protein.RotatedAtoms>
  150.8131  134.7297  159.6705 H   0  0  0  0  0  0  0  0  0  0  0  0  # atno 6907 bound_to 6896
  152.4250  134.5881  159.9976 H   0  0  0  0  0  0  0  0  0  0  0  0  # atno 6908 bound_to 6896
  151.6086  133.3312  159.3098 H   0  0  0  0  0  0  0  0  0  0  0  0  # atno 6909 bound_to 6896
  146.0636  140.6312  142.8985 H   0  0  0  0  0  0  0  0  0  0  0  0  # atno 7974 bound_to 7965
  154.7678  140.2796  155.6162 H   0  0  0  0  0  0  0  0  0  0  0  0  # atno 8008 bound_to 7997
  156.2928  140.2647  156.2401 H   0  0  0  0  0  0  0  0  0  0  0  0  # atno 8009 bound_to 7997
  154.9937  140.0373  157.2320 H   0  0  0  0  0  0  0  0  0  0  0  0  # atno 8010 bound_to 7997
  139.9099  144.6278  150.8548 H   0  0  0  0  0  0  0  0  0  0  0  0  # atno 10167 bound_to 10162
  156.4504  130.8165  151.2396 H   0  0  0  0  0  0  0  0  0  0  0  0  # atno 10718 bound_to 10713
  152.9792  135.5794  154.4668 H   0  0  0  0  0  0  0  0  0  0  0  0  # atno 10763 bound_to 10752
  154.4237  135.2772  155.1961 H   0  0  0  0  0  0  0  0  0  0  0  0  # atno 10764 bound_to 10752
  154.3699  135.6170  153.5788 H   0  0  0  0  0  0  0  0  0  0  0  0  # atno 10765 bound_to 10752
  141.1648  133.6956  156.7556 H   0  0  0  0  0  0  0  0  0  0  0  0  # atno 11005 bound_to 11000
  144.7189  140.4307  143.7023 LP  0  0  0  0  0  0  0  0  0  0  0  0  # atno 17320 bound_to 7965
  145.6516  139.1566  143.2859 LP  0  0  0  0  0  0  0  0  0  0  0  0  # atno 17321 bound_to 7965
  140.7688  143.3373  151.2281 LP  0  0  0  0  0  0  0  0  0  0  0  0  # atno 17342 bound_to 10162
  139.6952  143.9626  152.2879 LP  0  0  0  0  0  0  0  0  0  0  0  0  # atno 17343 bound_to 10162
  157.7503  131.0140  150.3445 LP  0  0  0  0  0  0  0  0  0  0  0  0  # atno 17370 bound_to 10713
  156.3822  130.3882  149.7093 LP  0  0  0  0  0  0  0  0  0  0  0  0  # atno 17371 bound_to 10713
  140.2572  134.8495  157.3724 LP  0  0  0  0  0  0  0  0  0  0  0  0  # atno 17394 bound_to 11000
  140.1646  134.4685  155.7872 LP  0  0  0  0  0  0  0  0  0  0  0  0  # atno 17395 bound_to 11000

$$$$
