AV-unprocessed.smi:1365|AV-procd|sdf|5569|dock1
  -GOLD-   22720 5163D 1   1.00000     0.00000
 Structure written by MMmdl.
 41 42  0  0  0  0  0  0  0  0  3 V2000
  150.8518  141.1173  157.3912 C   0  0  0  0  0  0  0  0  0  0  0  0
  151.2679  139.8038  156.8227 C   0  0  0  0  0  0  0  0  0  0  0  0
  150.5830  138.8140  156.1768 C   0  0  0  0  0  0  0  0  0  0  0  0
  151.5865  137.8405  155.9182 C   0  0  0  0  0  0  0  0  0  0  0  0
  151.4085  136.6712  155.2841 N   0  5  0  0  0  0  0  0  0  0  0  0
  150.2773  135.9556  155.4795 C   0  0  0  0  0  0  0  0  0  0  0  0
  149.2938  136.3033  156.1373 O   0  0  0  0  0  0  0  0  0  0  0  0
  150.2864  134.7598  154.8758 N   0  0  0  0  0  0  0  0  0  0  0  0
  149.2080  133.7824  154.9320 C   0  0  0  0  0  0  0  0  0  0  0  0
  148.7361  133.4223  153.5174 C   0  0  0  0  0  0  0  0  0  0  0  0
  147.4938  132.5161  153.5329 C   0  0  0  0  0  0  0  0  0  0  0  0
  146.8342  132.4355  152.2050 N   0  3  0  0  0  0  0  0  0  0  0  0
  146.4673  133.7764  151.6784 C   0  0  0  0  0  0  0  0  0  0  0  0
  145.9102  133.6815  150.2477 C   0  0  0  0  0  0  0  0  0  0  0  0
  144.7116  132.7265  150.1853 C   0  0  0  0  0  0  0  0  0  0  0  0
  145.1021  131.3599  150.7624 C   0  0  0  0  0  0  0  0  0  0  0  0
  145.6737  131.5041  152.1832 C   0  0  0  0  0  0  0  0  0  0  0  0
  152.7782  138.2150  156.3522 N   0  0  0  0  0  0  0  0  0  0  0  0
  152.5814  139.4702  156.9401 O   0  0  0  0  0  0  0  0  0  0  0  0
  150.3163  141.7071  156.6473 H   0  0  0  0  0  0  0  0  0  0  0  0
  151.7155  141.6946  157.7219 H   0  0  0  0  0  0  0  0  0  0  0  0
  150.1933  140.9740  158.2480 H   0  0  0  0  0  0  0  0  0  0  0  0
  149.5317  138.7867  155.9329 H   0  0  0  0  0  0  0  0  0  0  0  0
  151.1086  134.5128  154.3448 H   0  0  0  0  0  0  0  0  0  0  0  0
  149.5539  132.8846  155.4471 H   0  0  0  0  0  0  0  0  0  0  0  0
  148.3830  134.1939  155.5154 H   0  0  0  0  0  0  0  0  0  0  0  0
  148.5114  134.3367  152.9665 H   0  0  0  0  0  0  0  0  0  0  0  0
  149.5562  132.9363  152.9893 H   0  0  0  0  0  0  0  0  0  0  0  0
  147.7467  131.5145  153.8844 H   0  0  0  0  0  0  0  0  0  0  0  0
  146.7910  132.9281  154.2584 H   0  0  0  0  0  0  0  0  0  0  0  0
  145.7331  134.2396  152.3396 H   0  0  0  0  0  0  0  0  0  0  0  0
  147.3446  134.4246  151.6749 H   0  0  0  0  0  0  0  0  0  0  0  0
  145.6164  134.6708  149.8956 H   0  0  0  0  0  0  0  0  0  0  0  0
  146.6925  133.3326  149.5720 H   0  0  0  0  0  0  0  0  0  0  0  0
  143.8774  133.1421  150.7522 H   0  0  0  0  0  0  0  0  0  0  0  0
  144.3676  132.6179  149.1561 H   0  0  0  0  0  0  0  0  0  0  0  0
  144.2341  130.7000  150.7745 H   0  0  0  0  0  0  0  0  0  0  0  0
  145.8419  130.8859  150.1161 H   0  0  0  0  0  0  0  0  0  0  0  0
  145.9678  130.5193  152.5443 H   0  0  0  0  0  0  0  0  0  0  0  0
  144.9006  131.8694  152.8612 H   0  0  0  0  0  0  0  0  0  0  0  0
  147.5235  132.0640  151.5671 H   0  0  0  0  0  0  0  0  0  0  0  0
  1  2  1  0  0  0  0
  1 20  1  0  0  0  0
  1 21  1  0  0  0  0
  1 22  1  0  0  0  0
  2 19  1  0  0  0  0
  2  3  2  0  0  0  0
  3  4  1  0  0  0  0
  3 23  1  0  0  0  0
  4  5  1  0  0  0  0
  4 18  2  0  0  0  0
  5  6  1  0  0  0  0
  6  7  2  0  0  0  0
  6  8  1  0  0  0  0
  8  9  1  0  0  0  0
  8 24  1  0  0  0  0
  9 10  1  0  0  0  0
  9 25  1  0  0  0  0
  9 26  1  0  0  0  0
 10 11  1  0  0  0  0
 10 27  1  0  0  0  0
 10 28  1  0  0  0  0
 11 12  1  0  0  0  0
 11 29  1  0  0  0  0
 11 30  1  0  0  0  0
 12 17  1  0  0  0  0
 12 13  1  0  0  0  0
 12 41  1  0  0  0  0
 13 14  1  0  0  0  0
 13 31  1  0  0  0  0
 13 32  1  0  0  0  0
 14 15  1  0  0  0  0
 14 33  1  0  0  0  0
 14 34  1  0  0  0  0
 15 16  1  0  0  0  0
 15 35  1  0  0  0  0
 15 36  1  0  0  0  0
 16 17  1  0  0  0  0
 16 37  1  0  0  0  0
 16 38  1  0  0  0  0
 17 39  1  0  0  0  0
 17 40  1  0  0  0  0
 18 19  1  0  0  0  0
M  CHG  1   5  -1
M  CHG  1  12   1
M  END
> <s_m_source_file>
AV-unprocessed.smi

> <i_m_source_file_index>
1365

> <i_lp_mmshare_version>
43012

> <i_f3d_flags>
0

> <s_epik_input>
W0NIM11jMVtjSF1jKG5vMSlbTkhdQyg9TylbTkhdW0NIMl1bQ0gyXVtDSDJdTjJbQ0gyXVtDSDJdW0NIMl1bQ0gyXVtDSDJdMg==

> <s_epik_cmdline>
J2VwaWtfcHl0aG9uJywgJy1waCcsICc3LjAnLCAnLXRuJywgJzgnLCAnLW1hJywgJzIwMCcsICctbWV0YWxfYmluZGluZycsICctaW1hZScsICc8aW5maWxlLm1hZT4nLCAnLW9tYWUnLCAnPG91dGZpbGUubWFlPic=

> <r_epik_Ionization_Penalty>
6.42355

> <r_epik_Ionization_Penalty_Charging>
6.42345

> <r_epik_Ionization_Penalty_Neutral>
0.000108417

> <r_epik_State_Penalty>
6.4233

> <r_epik_Charging_Adjusted_Penalty>
12.8467

> <i_epik_Tot_Q>
0

> <i_epik_Tot_abs_Q>
2

> <r_epik_Metal_State_Penalty>
2.35308

> <b_epik_Metal_Only>
1

> <s_lp_Force_Field>
OPLS_2005

> <r_lp_Energy>
6.88196

> <b_lp_Chiralities_Consistent>
1

> <s_lp_Variant>
AV-unprocessed.smi:1365-2

> <Gold.Version>
5.8.1

> <Gold.Id.Protein>
6NUR|6NUR_protein|mol2

> <Gold.PLP.Fitness>
47.1614

> <Gold.PLP.PLP>
-35.7449

> <Gold.PLP.part.hbond>
-3.0000

> <Gold.PLP.part.metal>
0.0000

> <Gold.PLP.part.buried>
-3.9451

> <Gold.PLP.part.nonpolar>
-28.7770

> <Gold.PLP.part.repulsive>
0.3499

> <Gold.PLP.ligand.clash>
0.0000

> <Gold.PLP.ligand.torsion>
0.3529

> <Gold.PLP.Chemscore.Hbond>
4.0000

> <Gold.PLP.Chemscore.CHOScore>
0.0000

> <Gold.PLP.Chemscore.Metal>
0.0000

> <Gold.Chemscore.Hbonds>
donor molecule, donor type, donor heavy atom, donor atom, acceptor molecule, acceptor atom, score
      L1  H    12    41       P1 10747  0.36
      P1  H  7997  8010       L1    19  0.09
      P1  H 10752 10765       L1     5  0.96

> <Gold.PLP.Chemscore.Internal.Correction>
0.1222

> <Gold.Rescore>
     Score         DG    S(hbond)    S(metal)    S(lipo)     H(rot)  DE(clash)    DE(int)     intcor
     14.37     -17.87       2.25        0.00      80.44       1.78       1.50       2.00       ----

> <Gold.Chemscore.Fitness>
14.3687

> <Gold.Chemscore.DG>
-17.8667

> <Gold.Chemscore.ZeroCoef>
-5.4800

> <Gold.Chemscore.Hbond>
2.2534

> <Gold.Chemscore.Metal>
0.0000

> <Gold.Chemscore.Lipo>
80.4360

> <Gold.Chemscore.Internal_Hbond>
0.0000

> <Gold.Chemscore.DEClash>
1.5009

> <Gold.Chemscore.DEInternal>
1.9971

> <Gold.Chemscore.Rot>
1.7776

> <Gold.Chemscore.Internal.Correction>
   9.000000E+99

> <Gold.Chemscore.Hbonds>
donor molecule, donor type, donor heavy atom, donor atom, acceptor molecule, acceptor atom, score
      L1  H    12    41       P1 10747  0.35
      P1  H 10752 10765       L1     5  0.43

> <Gold.Chemscore.Hbond.Weighted>
-7.5263

> <Gold.Chemscore.Metal.Weighted>
-0.0000

> <Gold.Chemscore.Lipo.Weighted>
-9.4110

> <Gold.Chemscore.Internal_Hbond.Weighted>
0.0000

> <Gold.Chemscore.DEClash.Weighted>
1.5009

> <Gold.Chemscore.DEInternal.Weighted>
1.9971

> <Gold.Chemscore.Rot.Weighted>
4.5506

> <Gold.Chemscore.Internal.Correction.Weighted>
   9.000000E+99

> <Gold.Protein.RotatedTorsions>
[ 6907 6896 6895 6894 ] final -135.85 input  -60.11 | X-H torsion
[ 7974 7965 7964 7962 ] final   48.85 input  175.53 | X-H torsion
[ 8008 7997 7996 7995 ] final  105.55 input   59.86 | X-H torsion
[ 10167 10162 10161 10158 ] final  -41.33 input  -65.29 | X-H torsion
[ 10718 10713 10712 10709 ] final -132.23 input   66.30 | X-H torsion
[ 10763 10752 10751 10750 ] final  151.92 input  -60.55 | X-H torsion
[ 11005 11000 10999 10996 ] final -109.10 input  -57.11 | X-H torsion

> <Gold.Protein.ActiveResidues>
 VAL166  LYS551  ARG553  GLY616  TRP617  ASP618  TYR619  PRO620  LYS621  CYS622 
 ASP623  PHE694  ASN695  SER759  ASP760  ASP761  ALA762  ILE779  LEU786  VAL792 
 PHE793  MET794  SER795  GLU796  ALA797  LYS798  CYS799  TRP800  GLU811  SER814 

> <Gold.Protein.RotatedAtoms>
  151.0029  133.6039  159.2692 H   0  0  0  0  0  0  0  0  0  0  0  0  # atno 6907 bound_to 6896
  151.3218  135.0819  159.9318 H   0  0  0  0  0  0  0  0  0  0  0  0  # atno 6908 bound_to 6896
  152.5279  133.9675  159.7800 H   0  0  0  0  0  0  0  0  0  0  0  0  # atno 6909 bound_to 6896
  146.0165  139.4602  142.9924 H   0  0  0  0  0  0  0  0  0  0  0  0  # atno 7974 bound_to 7965
  156.1668  140.3128  155.8903 H   0  0  0  0  0  0  0  0  0  0  0  0  # atno 8008 bound_to 7997
  155.3669  140.0479  157.3063 H   0  0  0  0  0  0  0  0  0  0  0  0  # atno 8009 bound_to 7997
  154.5201  140.2195  155.9003 H   0  0  0  0  0  0  0  0  0  0  0  0  # atno 8010 bound_to 7997
  140.7006  143.3101  151.3051 H   0  0  0  0  0  0  0  0  0  0  0  0  # atno 10167 bound_to 10162
  156.2324  130.7046  151.0872 H   0  0  0  0  0  0  0  0  0  0  0  0  # atno 10718 bound_to 10713
  154.1116  135.2839  155.3229 H   0  0  0  0  0  0  0  0  0  0  0  0  # atno 10763 bound_to 10752
  154.6486  135.5377  153.7877 H   0  0  0  0  0  0  0  0  0  0  0  0  # atno 10764 bound_to 10752
  153.0343  135.6504  154.1274 H   0  0  0  0  0  0  0  0  0  0  0  0  # atno 10765 bound_to 10752
  141.0866  133.9128  157.2171 H   0  0  0  0  0  0  0  0  0  0  0  0  # atno 11005 bound_to 11000
  145.7261  141.0058  143.1377 LP  0  0  0  0  0  0  0  0  0  0  0  0  # atno 17320 bound_to 7965
  144.6973  139.8928  143.7454 LP  0  0  0  0  0  0  0  0  0  0  0  0  # atno 17321 bound_to 7965
  139.6520  144.0344  152.2633 LP  0  0  0  0  0  0  0  0  0  0  0  0  # atno 17342 bound_to 10162
  139.9884  144.6379  150.7837 LP  0  0  0  0  0  0  0  0  0  0  0  0  # atno 17343 bound_to 10162
  157.7139  131.0720  150.6399 LP  0  0  0  0  0  0  0  0  0  0  0  0  # atno 17370 bound_to 10713
  156.6468  130.4474  149.5733 LP  0  0  0  0  0  0  0  0  0  0  0  0  # atno 17371 bound_to 10713
  139.9685  135.0135  156.9451 LP  0  0  0  0  0  0  0  0  0  0  0  0  # atno 17394 bound_to 11000
  140.5348  134.0777  155.7325 LP  0  0  0  0  0  0  0  0  0  0  0  0  # atno 17395 bound_to 11000

$$$$
