AV-unprocessed.smi:72|AV-procd|sdf|756|dock9
  -GOLD-   2262017 93D 1   1.00000     0.00000
 Structure written by MMmdl.
 29 30  0  0  0  0  0  0  0  0  1 V2000
  154.3988  138.9839  159.9766 N   0  0  0  0  0  0  0  0  0  0  0  0
  153.4355  138.7517  159.0175 C   0  0  0  0  0  0  0  0  0  0  0  0
  153.4285  139.6207  157.9187 N   0  0  0  0  0  0  0  0  0  0  0  0
  152.5316  139.4007  157.0103 C   0  0  0  0  0  0  0  0  0  0  0  0
  151.5968  138.2909  157.1206 N   0  0  0  0  0  0  0  0  0  0  0  0
  150.5169  138.0145  156.0846 C   0  0  1  0  0  0  0  0  0  0  0  0
  149.6442  139.1042  156.0016 O   0  0  0  0  0  0  0  0  0  0  0  0
  150.0265  139.9459  154.9179 C   0  0  2  0  0  0  0  0  0  0  0  0
  148.8922  140.9113  154.5327 C   0  0  0  0  0  0  0  0  0  0  0  0
  149.0873  141.3815  153.2160 O   0  0  0  0  0  0  0  0  0  0  0  0
  150.4254  138.9224  153.8507 C   0  0  2  0  0  0  0  0  0  0  0  0
  149.2786  138.4374  153.1693 O   0  0  0  0  0  0  0  0  0  0  0  0
  151.1267  137.8407  154.6750 C   0  0  2  0  0  0  0  0  0  0  0  0
  150.9343  136.5452  154.1386 O   0  0  0  0  0  0  0  0  0  0  0  0
  151.6382  137.4751  158.2860 C   0  0  0  0  0  0  0  0  0  0  0  0
  150.8222  136.5655  158.4334 O   0  0  0  0  0  0  0  0  0  0  0  0
  152.6305  137.7520  159.2336 N   0  0  0  0  0  0  0  0  0  0  0  0
  149.9800  137.1412  156.4596 H   0  0  0  0  0  0  0  0  0  0  0  0
  150.9188  140.5125  155.1911 H   0  0  0  0  0  0  0  0  0  0  0  0
  151.0965  139.3582  153.1099 H   0  0  0  0  0  0  0  0  0  0  0  0
  152.1958  138.0561  154.7121 H   0  0  0  0  0  0  0  0  0  0  0  0
  154.4975  138.4246  160.8114 H   0  0  0  0  0  0  0  0  0  0  0  0
  155.0788  139.7272  159.9131 H   0  0  0  0  0  0  0  0  0  0  0  0
  152.4291  140.0292  156.1258 H   0  0  0  0  0  0  0  0  0  0  0  0
  147.9333  140.3927  154.5550 H   0  0  0  0  0  0  0  0  0  0  0  0
  148.8274  141.7493  155.2276 H   0  0  0  0  0  0  0  0  0  0  0  0
  148.9804  140.6567  152.6193 H   0  0  0  0  0  0  0  0  0  0  0  0
  149.4626  137.5613  152.8662 H   0  0  0  0  0  0  0  0  0  0  0  0
  150.1813  136.5698  153.5678 H   0  0  0  0  0  0  0  0  0  0  0  0
  1  2  1  0  0  0  0
  1 22  1  0  0  0  0
  1 23  1  0  0  0  0
  2 17  2  0  0  0  0
  2  3  1  0  0  0  0
  3  4  2  0  0  0  0
  4  5  1  0  0  0  0
  4 24  1  0  0  0  0
  5  6  1  0  0  0  0
  5 15  1  0  0  0  0
  6 18  1  0  0  0  0
  6 13  1  0  0  0  0
  6  7  1  0  0  0  0
  7  8  1  0  0  0  0
  8 19  1  0  0  0  0
  8  9  1  0  0  0  0
  8 11  1  0  0  0  0
  9 10  1  0  0  0  0
  9 25  1  0  0  0  0
  9 26  1  0  0  0  0
 10 27  1  0  0  0  0
 11 20  1  0  0  0  0
 11 12  1  0  0  0  0
 11 13  1  0  0  0  0
 12 28  1  0  0  0  0
 13 21  1  0  0  0  0
 13 14  1  0  0  0  0
 14 29  1  0  0  0  0
 15 16  2  0  0  0  0
 15 17  1  0  0  0  0
M  END
> <s_m_source_file>
AV-unprocessed.smi

> <i_m_source_file_index>
72

> <i_lp_mmshare_version>
43012

> <i_f3d_flags>
0

> <s_epik_input>
W05IMl1jMW5bY0hdbihjKD1PKW4xKVtDQEBIXTJPW0NASF0oW0NIMl1bT0hdKVtDQEBIXShbT0hdKVtDQEhdMltPSF0=

> <s_epik_cmdline>
J2VwaWtfcHl0aG9uJywgJy1waCcsICc3LjAnLCAnLXRuJywgJzgnLCAnLW1hJywgJzIwMCcsICctbWV0YWxfYmluZGluZycsICctaW1hZScsICc8aW5maWxlLm1hZT4nLCAnLW9tYWUnLCAnPG91dGZpbGUubWFlPic=

> <r_lp_tautomer_probability>
4.77166e-05

> <r_epik_Ionization_Penalty>
1.3546

> <r_epik_Ionization_Penalty_Charging>
1.46833e-10

> <r_epik_Ionization_Penalty_Neutral>
1.3546

> <r_epik_State_Penalty>
3.51908

> <r_epik_Charging_Adjusted_Penalty>
3.51908

> <i_epik_Tot_Q>
0

> <i_epik_Tot_abs_Q>
0

> <r_epik_Metal_State_Penalty>
3.44088

> <b_epik_Metal_Only>
1

> <s_epik_Chemistry_Notes>
This compound contains an acetal/aminal-like group ( X-CH(R)-Y where X, Y are N, S, or O) that may be acid/base labile, releasing an aldehyde.

> <s_lp_Force_Field>
OPLS_2005

> <r_lp_Energy>
31.1202

> <b_lp_Chiralities_Consistent>
1

> <s_lp_Variant>
AV-unprocessed.smi:72-94

> <Gold.Version>
5.8.1

> <Gold.Id.Protein>
6NUR|6NUR_protein|mol2

> <Gold.PLP.Fitness>
41.8299

> <Gold.PLP.PLP>
-25.3409

> <Gold.PLP.part.hbond>
-8.7032

> <Gold.PLP.part.metal>
0.0000

> <Gold.PLP.part.buried>
-2.8439

> <Gold.PLP.part.nonpolar>
-12.5668

> <Gold.PLP.part.repulsive>
0.0375

> <Gold.PLP.ligand.clash>
0.0000

> <Gold.PLP.ligand.torsion>
0.2071

> <Gold.PLP.Chemscore.Hbond>
5.6253

> <Gold.PLP.Chemscore.CHOScore>
0.0000

> <Gold.PLP.Chemscore.Metal>
0.0000

> <Gold.Chemscore.Hbonds>
donor molecule, donor type, donor heavy atom, donor atom, acceptor molecule, acceptor atom, score
      L1  H    10    27       P1  7957  0.82
      L1  H    12    28       P1  7948  0.94
      L1  H    14    29       P1  7948  0.57
      P1  H  6896  6909       L1    16  0.70
      P1  H  7997  8010       L1     3  0.94
      P1  H  8011  8017       L1    10  1.00
      P1  H 10752 10764       L1    14  0.57

> <Gold.PLP.Chemscore.Internal.Correction>
0.0275

> <Gold.Rescore>
     Score         DG    S(hbond)    S(metal)    S(lipo)     H(rot)  DE(clash)    DE(int)     intcor
     13.72     -14.03       4.62        0.00      29.98       4.06       0.10       0.22       ----

> <Gold.Chemscore.Fitness>
13.7197

> <Gold.Chemscore.DG>
-14.0319

> <Gold.Chemscore.ZeroCoef>
-5.4800

> <Gold.Chemscore.Hbond>
4.6222

> <Gold.Chemscore.Metal>
0.0000

> <Gold.Chemscore.Lipo>
29.9780

> <Gold.Chemscore.Internal_Hbond>
0.0000

> <Gold.Chemscore.DEClash>
0.0966

> <Gold.Chemscore.DEInternal>
0.2157

> <Gold.Chemscore.Rot>
4.0600

> <Gold.Chemscore.Internal.Correction>
   9.000000E+99

> <Gold.Chemscore.Hbonds>
donor molecule, donor type, donor heavy atom, donor atom, acceptor molecule, acceptor atom, score
      L1  H    10    27       P1  7957  0.80
      L1  H    12    28       P1  7948  0.75
      L1  H    14    29       P1  7948  0.05
      P1  H  6896  6909       L1    16  0.68
      P1  H  7997  8010       L1     3  0.62
      P1  H  8011  8017       L1    10  0.31
      P1  H 10752 10764       L1    14  0.22

> <Gold.Chemscore.Hbond.Weighted>
-15.4381

> <Gold.Chemscore.Metal.Weighted>
-0.0000

> <Gold.Chemscore.Lipo.Weighted>
-3.5074

> <Gold.Chemscore.Internal_Hbond.Weighted>
0.0000

> <Gold.Chemscore.DEClash.Weighted>
0.0966

> <Gold.Chemscore.DEInternal.Weighted>
0.2157

> <Gold.Chemscore.Rot.Weighted>
10.3936

> <Gold.Chemscore.Internal.Correction.Weighted>
   9.000000E+99

> <Gold.Protein.RotatedTorsions>
[ 6907 6896 6895 6894 ] final   75.85 input  -60.11 | X-H torsion
[ 7974 7965 7964 7962 ] final -168.39 input  175.53 | X-H torsion
[ 8008 7997 7996 7995 ] final   16.47 input   59.86 | X-H torsion
[ 10167 10162 10161 10158 ] final -176.35 input  -65.29 | X-H torsion
[ 10718 10713 10712 10709 ] final   41.87 input   66.30 | X-H torsion
[ 10763 10752 10751 10750 ] final  -69.99 input  -60.55 | X-H torsion
[ 11005 11000 10999 10996 ] final -106.27 input  -57.11 | X-H torsion

> <Gold.Protein.ActiveResidues>
 VAL166  LYS551  ARG553  GLY616  TRP617  ASP618  TYR619  PRO620  LYS621  CYS622 
 ASP623  PHE694  ASN695  SER759  ASP760  ASP761  ALA762  ILE779  LEU786  VAL792 
 PHE793  MET794  SER795  GLU796  ALA797  LYS798  CYS799  TRP800  GLU811  SER814 

> <Gold.Protein.RotatedAtoms>
  152.5046  134.4057  159.9431 H   0  0  0  0  0  0  0  0  0  0  0  0  # atno 6907 bound_to 6896
  151.4023  133.3747  159.2741 H   0  0  0  0  0  0  0  0  0  0  0  0  # atno 6908 bound_to 6896
  150.9352  134.8786  159.7636 H   0  0  0  0  0  0  0  0  0  0  0  0  # atno 6909 bound_to 6896
  144.7204  140.2377  143.6296 H   0  0  0  0  0  0  0  0  0  0  0  0  # atno 7974 bound_to 7965
  154.8774  140.2968  155.5445 H   0  0  0  0  0  0  0  0  0  0  0  0  # atno 8008 bound_to 7997
  156.3022  140.2449  156.3705 H   0  0  0  0  0  0  0  0  0  0  0  0  # atno 8009 bound_to 7997
  154.8753  140.0400  157.1738 H   0  0  0  0  0  0  0  0  0  0  0  0  # atno 8010 bound_to 7997
  139.5534  144.2050  152.1118 H   0  0  0  0  0  0  0  0  0  0  0  0  # atno 10167 bound_to 10162
  157.3984  130.7846  149.7328 H   0  0  0  0  0  0  0  0  0  0  0  0  # atno 10718 bound_to 10713
  154.4113  135.6008  153.5954 H   0  0  0  0  0  0  0  0  0  0  0  0  # atno 10763 bound_to 10752
  152.9790  135.5930  154.4066 H   0  0  0  0  0  0  0  0  0  0  0  0  # atno 10764 bound_to 10752
  154.3879  135.2841  155.2151 H   0  0  0  0  0  0  0  0  0  0  0  0  # atno 10765 bound_to 10752
  141.1013  133.8879  157.1835 H   0  0  0  0  0  0  0  0  0  0  0  0  # atno 11005 bound_to 11000
  145.8350  139.2103  143.1860 LP  0  0  0  0  0  0  0  0  0  0  0  0  # atno 17320 bound_to 7965
  146.0397  140.8177  142.9835 LP  0  0  0  0  0  0  0  0  0  0  0  0  # atno 17321 bound_to 7965
  140.1550  144.5079  150.6665 LP  0  0  0  0  0  0  0  0  0  0  0  0  # atno 17342 bound_to 10162
  140.6802  143.2323  151.5403 LP  0  0  0  0  0  0  0  0  0  0  0  0  # atno 17343 bound_to 10162
  155.9816  130.4017  150.3460 LP  0  0  0  0  0  0  0  0  0  0  0  0  # atno 17370 bound_to 10713
  157.1584  131.0339  151.2852 LP  0  0  0  0  0  0  0  0  0  0  0  0  # atno 17371 bound_to 10713
  139.9866  135.0080  156.9876 LP  0  0  0  0  0  0  0  0  0  0  0  0  # atno 17394 bound_to 11000
  140.5015  134.1093  155.7251 LP  0  0  0  0  0  0  0  0  0  0  0  0  # atno 17395 bound_to 11000

$$$$
