AV-unprocessed.smi:2931|AV-procd|sdf|11247|dock3
  -GOLD-   2272016143D 1   1.00000     0.00000
 Structure written by MMmdl.
 43 44  0  0  0  0  0  0  0  0  3 V2000
  145.2224  135.1217  151.0099 C   0  0  0  0  0  0  0  0  0  0  0  0
  146.3226  134.6454  151.8755 N   0  3  2  0  0  0  0  0  0  0  0  0
  146.8272  133.3104  151.4669 C   0  0  0  0  0  0  0  0  0  0  0  0
  148.0517  132.9011  152.3033 C   0  0  0  0  0  0  0  0  0  0  0  0
  147.7437  132.9567  153.8094 C   0  0  0  0  0  0  0  0  0  0  0  0
  147.1775  134.3318  154.2076 C   0  0  1  0  0  0  0  0  0  0  0  0
  148.2279  135.3469  154.1228 N   0  0  0  0  0  0  0  0  0  0  0  0
  149.0575  135.6859  155.1195 C   0  0  0  0  0  0  0  0  0  0  0  0
  149.0129  135.1990  156.2491 O   0  0  0  0  0  0  0  0  0  0  0  0
  149.9386  136.6216  154.7401 N   0  0  0  0  0  0  0  0  0  0  0  0
  150.9772  137.1832  155.5963 C   0  0  0  0  0  0  0  0  0  0  0  0
  151.7548  138.3049  154.8884 C   0  0  0  0  0  0  0  0  0  0  0  0
  151.0741  139.6519  155.0367 C   0  0  0  0  0  0  0  0  0  0  0  0
  151.6191  140.6398  155.8864 C   0  0  0  0  0  0  0  0  0  0  0  0
  150.9667  141.8845  156.0011 C   0  0  0  0  0  0  0  0  0  0  0  0
  149.8350  142.1181  155.3006 N   0  3  0  0  0  0  0  0  0  0  0  0
  149.2821  141.2014  154.4765 C   0  0  0  0  0  0  0  0  0  0  0  0
  149.8900  139.9385  154.3222 C   0  0  0  0  0  0  0  0  0  0  0  0
  145.9646  134.6813  153.3159 C   0  0  0  0  0  0  0  0  0  0  0  0
  144.3509  134.4709  151.0901 H   0  0  0  0  0  0  0  0  0  0  0  0
  145.5369  135.1464  149.9661 H   0  0  0  0  0  0  0  0  0  0  0  0
  144.9227  136.1321  151.2897 H   0  0  0  0  0  0  0  0  0  0  0  0
  146.0327  132.5707  151.5777 H   0  0  0  0  0  0  0  0  0  0  0  0
  147.0983  133.3287  150.4106 H   0  0  0  0  0  0  0  0  0  0  0  0
  148.3705  131.8957  152.0272 H   0  0  0  0  0  0  0  0  0  0  0  0
  148.8887  133.5609  152.0720 H   0  0  0  0  0  0  0  0  0  0  0  0
  147.0153  132.1828  154.0547 H   0  0  0  0  0  0  0  0  0  0  0  0
  148.6393  132.7273  154.3884 H   0  0  0  0  0  0  0  0  0  0  0  0
  146.8467  134.2754  155.2463 H   0  0  0  0  0  0  0  0  0  0  0  0
  148.3520  135.7989  153.2283 H   0  0  0  0  0  0  0  0  0  0  0  0
  149.9006  136.9580  153.7887 H   0  0  0  0  0  0  0  0  0  0  0  0
  150.5355  137.5505  156.5244 H   0  0  0  0  0  0  0  0  0  0  0  0
  151.6572  136.3775  155.8742 H   0  0  0  0  0  0  0  0  0  0  0  0
  152.7663  138.3710  155.2914 H   0  0  0  0  0  0  0  0  0  0  0  0
  151.8623  138.0808  153.8262 H   0  0  0  0  0  0  0  0  0  0  0  0
  152.5260  140.4491  156.4421 H   0  0  0  0  0  0  0  0  0  0  0  0
  151.3141  142.6941  156.6260 H   0  0  0  0  0  0  0  0  0  0  0  0
  148.3778  141.5034  153.9687 H   0  0  0  0  0  0  0  0  0  0  0  0
  149.4529  139.2026  153.6628 H   0  0  0  0  0  0  0  0  0  0  0  0
  145.5796  135.6686  153.5734 H   0  0  0  0  0  0  0  0  0  0  0  0
  145.1524  133.9766  153.5020 H   0  0  0  0  0  0  0  0  0  0  0  0
  147.0860  135.2951  151.7522 H   0  0  0  0  0  0  0  0  0  0  0  0
  149.3791  143.0258  155.3980 H   0  0  0  0  0  0  0  0  0  0  0  0
  1  2  1  0  0  0  0
  1 20  1  0  0  0  0
  1 21  1  0  0  0  0
  1 22  1  0  0  0  0
  2 19  1  0  0  0  0
  2  3  1  0  0  0  0
  2 42  1  0  0  0  0
  3  4  1  0  0  0  0
  3 23  1  0  0  0  0
  3 24  1  0  0  0  0
  4  5  1  0  0  0  0
  4 25  1  0  0  0  0
  4 26  1  0  0  0  0
  5  6  1  0  0  0  0
  5 27  1  0  0  0  0
  5 28  1  0  0  0  0
  6  7  1  0  0  0  0
  6 19  1  0  0  0  0
  6 29  1  0  0  0  0
  7  8  1  0  0  0  0
  7 30  1  0  0  0  0
  8  9  2  0  0  0  0
  8 10  1  0  0  0  0
 10 11  1  0  0  0  0
 10 31  1  0  0  0  0
 11 12  1  0  0  0  0
 11 32  1  0  0  0  0
 11 33  1  0  0  0  0
 12 13  1  0  0  0  0
 12 34  1  0  0  0  0
 12 35  1  0  0  0  0
 13 18  1  0  0  0  0
 13 14  2  0  0  0  0
 14 15  1  0  0  0  0
 14 36  1  0  0  0  0
 15 16  2  0  0  0  0
 15 37  1  0  0  0  0
 16 17  1  0  0  0  0
 16 43  1  0  0  0  0
 17 18  2  0  0  0  0
 17 38  1  0  0  0  0
 18 39  1  0  0  0  0
 19 40  1  0  0  0  0
 19 41  1  0  0  0  0
M  CHG  1   2   1
M  CHG  1  16   1
M  END
> <s_m_source_file>
AV-unprocessed.smi

> <i_m_source_file_index>
2931

> <i_lp_mmshare_version>
43012

> <i_f3d_flags>
0

> <s_epik_input>
W0NIM11OMVtDSDJdW0NIMl1bQ0gyXVtDQEhdKFtDSDJdMSlbTkhdQyg9TylbTkhdW0NIMl1bQ0gyXWMyW2NIXVtjSF1uW2NIXVtjSF0y

> <s_epik_cmdline>
J2VwaWtfcHl0aG9uJywgJy1waCcsICc3LjAnLCAnLXRuJywgJzgnLCAnLW1hJywgJzIwMCcsICctbWV0YWxfYmluZGluZycsICctaW1hZScsICc8aW5maWxlLm1hZT4nLCAnLW9tYWUnLCAnPG91dGZpbGUubWFlPic=

> <r_epik_Ionization_Penalty>
1.43754

> <r_epik_Ionization_Penalty_Charging>
1.4375

> <r_epik_Ionization_Penalty_Neutral>
3.7629e-05

> <r_epik_State_Penalty>
1.52008

> <r_epik_Charging_Adjusted_Penalty>
2.95758

> <i_epik_Tot_Q>
2

> <i_epik_Tot_abs_Q>
2

> <r_epik_Metal_State_Penalty>
1.57105

> <b_epik_Metal_Only>
0

> <s_lp_Force_Field>
OPLS_2005

> <r_lp_Energy>
27.7163

> <b_lp_Chiralities_Consistent>
1

> <s_lp_Variant>
AV-unprocessed.smi:2931-6

> <Gold.Version>
5.8.1

> <Gold.Id.Protein>
6NUR|6NUR_protein|mol2

> <Gold.PLP.Fitness>
48.2106

> <Gold.PLP.PLP>
-33.5711

> <Gold.PLP.part.hbond>
-3.8618

> <Gold.PLP.part.metal>
0.0000

> <Gold.PLP.part.buried>
-0.6969

> <Gold.PLP.part.nonpolar>
-28.9199

> <Gold.PLP.part.repulsive>
0.2757

> <Gold.PLP.ligand.clash>
0.0000

> <Gold.PLP.ligand.torsion>
0.6759

> <Gold.PLP.Chemscore.Hbond>
5.3230

> <Gold.PLP.Chemscore.CHOScore>
0.0000

> <Gold.PLP.Chemscore.Metal>
0.0000

> <Gold.Chemscore.Hbonds>
donor molecule, donor type, donor heavy atom, donor atom, acceptor molecule, acceptor atom, score
      L1  H     2    42       P1  7948  1.89
      L1  H     7    30       P1  7948  1.00
      L1  H    10    31       P1  7948  0.36
      L1  H    16    43       P1  8028  2.00

> <Gold.PLP.Chemscore.Internal.Correction>
0.0223

> <Gold.Rescore>
     Score         DG    S(hbond)    S(metal)    S(lipo)     H(rot)  DE(clash)    DE(int)     intcor
     19.61     -20.37       2.98        0.00      78.20       1.65       0.15       0.61       ----

> <Gold.Chemscore.Fitness>
19.6096

> <Gold.Chemscore.DG>
-20.3730

> <Gold.Chemscore.ZeroCoef>
-5.4800

> <Gold.Chemscore.Hbond>
2.9815

> <Gold.Chemscore.Metal>
0.0000

> <Gold.Chemscore.Lipo>
78.2014

> <Gold.Chemscore.Internal_Hbond>
0.0000

> <Gold.Chemscore.DEClash>
0.1494

> <Gold.Chemscore.DEInternal>
0.6139

> <Gold.Chemscore.Rot>
1.6464

> <Gold.Chemscore.Internal.Correction>
   9.000000E+99

> <Gold.Chemscore.Hbonds>
donor molecule, donor type, donor heavy atom, donor atom, acceptor molecule, acceptor atom, score
      L1  H     2    42       P1  7948  0.89
      L1  H     7    30       P1  7948  0.94
      L1  H    10    31       P1  7948  0.18
      L1  H    16    43       P1  8028  1.00

> <Gold.Chemscore.Hbond.Weighted>
-9.9582

> <Gold.Chemscore.Metal.Weighted>
-0.0000

> <Gold.Chemscore.Lipo.Weighted>
-9.1496

> <Gold.Chemscore.Internal_Hbond.Weighted>
0.0000

> <Gold.Chemscore.DEClash.Weighted>
0.1494

> <Gold.Chemscore.DEInternal.Weighted>
0.6139

> <Gold.Chemscore.Rot.Weighted>
4.2148

> <Gold.Chemscore.Internal.Correction.Weighted>
   9.000000E+99

> <Gold.Protein.RotatedTorsions>
[ 6907 6896 6895 6894 ] final  141.84 input  -60.11 | X-H torsion
[ 7974 7965 7964 7962 ] final  166.41 input  175.53 | X-H torsion
[ 8008 7997 7996 7995 ] final   15.47 input   59.86 | X-H torsion
[ 10167 10162 10161 10158 ] final   90.22 input  -65.29 | X-H torsion
[ 10718 10713 10712 10709 ] final    5.52 input   66.30 | X-H torsion
[ 10763 10752 10751 10750 ] final   45.55 input  -60.55 | X-H torsion
[ 11005 11000 10999 10996 ] final  102.26 input  -57.11 | X-H torsion

> <Gold.Protein.ActiveResidues>
 VAL166  LYS551  ARG553  GLY616  TRP617  ASP618  TYR619  PRO620  LYS621  CYS622 
 ASP623  PHE694  ASN695  SER759  ASP760  ASP761  ALA762  ILE779  LEU786  VAL792 
 PHE793  MET794  SER795  GLU796  ALA797  LYS798  CYS799  TRP800  GLU811  SER814 

> <Gold.Protein.RotatedAtoms>
  152.2261  133.5021  159.5189 H   0  0  0  0  0  0  0  0  0  0  0  0  # atno 6907 bound_to 6896
  150.7025  134.1278  159.4067 H   0  0  0  0  0  0  0  0  0  0  0  0  # atno 6908 bound_to 6896
  151.9199  135.0302  160.0572 H   0  0  0  0  0  0  0  0  0  0  0  0  # atno 6909 bound_to 6896
  144.7464  139.8611  143.6381 H   0  0  0  0  0  0  0  0  0  0  0  0  # atno 7974 bound_to 7965
  154.8632  140.2947  155.5526 H   0  0  0  0  0  0  0  0  0  0  0  0  # atno 8008 bound_to 7997
  156.3020  140.2474  156.3542 H   0  0  0  0  0  0  0  0  0  0  0  0  # atno 8009 bound_to 7997
  154.8896  140.0395  157.1820 H   0  0  0  0  0  0  0  0  0  0  0  0  # atno 8010 bound_to 7997
  139.8495  144.6601  150.9187 H   0  0  0  0  0  0  0  0  0  0  0  0  # atno 10167 bound_to 10162
  156.9086  130.5748  149.5647 H   0  0  0  0  0  0  0  0  0  0  0  0  # atno 10718 bound_to 10713
  152.9823  135.6036  154.3454 H   0  0  0  0  0  0  0  0  0  0  0  0  # atno 10763 bound_to 10752
  154.3148  135.2770  155.2550 H   0  0  0  0  0  0  0  0  0  0  0  0  # atno 10764 bound_to 10752
  154.4743  135.5933  153.6400 H   0  0  0  0  0  0  0  0  0  0  0  0  # atno 10765 bound_to 10752
  139.8777  134.9216  156.5030 H   0  0  0  0  0  0  0  0  0  0  0  0  # atno 11005 bound_to 11000
  146.1348  139.4391  143.0146 LP  0  0  0  0  0  0  0  0  0  0  0  0  # atno 17320 bound_to 7965
  145.7108  141.0106  143.1454 LP  0  0  0  0  0  0  0  0  0  0  0  0  # atno 17321 bound_to 7965
  140.7789  143.3840  151.1426 LP  0  0  0  0  0  0  0  0  0  0  0  0  # atno 17342 bound_to 10162
  139.7480  143.8823  152.3069 LP  0  0  0  0  0  0  0  0  0  0  0  0  # atno 17343 bound_to 10162
  156.0547  130.5610  150.9065 LP  0  0  0  0  0  0  0  0  0  0  0  0  # atno 17370 bound_to 10713
  157.5981  131.0942  150.9006 LP  0  0  0  0  0  0  0  0  0  0  0  0  # atno 17371 bound_to 10713
  140.8575  133.8085  155.9231 LP  0  0  0  0  0  0  0  0  0  0  0  0  # atno 17394 bound_to 11000
  140.9082  134.2293  157.5001 LP  0  0  0  0  0  0  0  0  0  0  0  0  # atno 17395 bound_to 11000

$$$$
