AV-unprocessed.smi:2124|AV-procd|sdf|8664|dock2
  -GOLD-   2272011413D 1   1.00000     0.00000
 Structure written by MMmdl.
 47 49  0  0  0  0  0  0  0  0  1 V2000
  143.4042  140.4548  156.1035 C   0  0  0  0  0  0  0  0  0  0  0  0
  144.8319  140.6532  155.6429 C   0  0  0  0  0  0  0  0  0  0  0  0
  145.0134  141.7811  154.8600 N   0  0  0  0  0  0  0  0  0  0  0  0
  146.2913  142.0565  154.4076 C   0  0  0  0  0  0  0  0  0  0  0  0
  146.4073  143.3294  153.5877 C   0  0  0  0  0  0  0  0  0  0  0  0
  147.3337  141.2393  154.7051 C   0  0  0  0  0  0  0  0  0  0  0  0
  148.7670  141.5315  154.2588 C   0  0  0  0  0  0  0  0  0  0  0  0
  149.8324  141.2244  155.3117 C   0  0  0  0  0  0  0  0  0  0  0  0
  150.5049  140.1970  155.2335 O   0  0  0  0  0  0  0  0  0  0  0  0
  150.0005  142.1550  156.2627 N   0  0  0  0  0  0  0  0  0  0  0  0
  151.1191  142.2300  157.1953 C   0  0  2  0  0  0  0  0  0  0  0  0
  150.8569  141.3086  158.3969 C   0  0  0  0  0  0  0  0  0  0  0  0
  151.3274  143.7041  157.6169 C   0  0  1  0  0  0  0  0  0  0  0  0
  150.4148  144.1837  158.7676 C   0  0  0  0  0  0  0  0  0  0  0  0
  151.4092  144.8317  159.7502 C   0  0  1  0  0  0  0  0  0  0  0  0
  152.2134  143.7256  160.4588 C   0  0  0  0  0  0  0  0  0  0  0  0
  153.1531  143.2252  159.3470 C   0  0  0  0  0  0  0  0  0  0  0  0
  152.7378  144.0871  158.1373 C   0  0  2  0  0  0  0  0  0  0  0  0
  152.4523  145.4249  158.8104 C   0  0  0  0  0  0  0  0  0  0  0  0
  147.0736  140.0375  155.5334 C   0  0  0  0  0  0  0  0  0  0  0  0
  147.9754  139.2593  155.8403 O   0  0  0  0  0  0  0  0  0  0  0  0
  145.7615  139.8117  155.9792 N   0  0  0  0  0  0  0  0  0  0  0  0
  144.2676  142.4176  154.6182 H   0  0  0  0  0  0  0  0  0  0  0  0
  143.3554  139.7285  156.9157 H   0  0  0  0  0  0  0  0  0  0  0  0
  142.7893  140.0905  155.2802 H   0  0  0  0  0  0  0  0  0  0  0  0
  142.9819  141.3939  156.4633 H   0  0  0  0  0  0  0  0  0  0  0  0
  147.0839  144.0346  154.0704 H   0  0  0  0  0  0  0  0  0  0  0  0
  145.4411  143.8217  153.4710 H   0  0  0  0  0  0  0  0  0  0  0  0
  146.7913  143.1082  152.5917 H   0  0  0  0  0  0  0  0  0  0  0  0
  148.8392  142.5857  153.9896 H   0  0  0  0  0  0  0  0  0  0  0  0
  149.0140  140.9917  153.3442 H   0  0  0  0  0  0  0  0  0  0  0  0
  149.3754  142.9480  156.2512 H   0  0  0  0  0  0  0  0  0  0  0  0
  152.0261  141.8812  156.6988 H   0  0  0  0  0  0  0  0  0  0  0  0
  151.6886  141.3318  159.1011 H   0  0  0  0  0  0  0  0  0  0  0  0
  150.7284  140.2740  158.0768 H   0  0  0  0  0  0  0  0  0  0  0  0
  149.9564  141.6042  158.9363 H   0  0  0  0  0  0  0  0  0  0  0  0
  151.1298  144.3294  156.7440 H   0  0  0  0  0  0  0  0  0  0  0  0
  149.6927  144.9147  158.4017 H   0  0  0  0  0  0  0  0  0  0  0  0
  149.8550  143.3734  159.2364 H   0  0  0  0  0  0  0  0  0  0  0  0
  150.9464  145.5421  160.4355 H   0  0  0  0  0  0  0  0  0  0  0  0
  152.7883  144.1328  161.2915 H   0  0  0  0  0  0  0  0  0  0  0  0
  151.5735  142.9338  160.8500 H   0  0  0  0  0  0  0  0  0  0  0  0
  154.1931  143.4206  159.6120 H   0  0  0  0  0  0  0  0  0  0  0  0
  153.0623  142.1544  159.1680 H   0  0  0  0  0  0  0  0  0  0  0  0
  153.4970  144.1321  157.3557 H   0  0  0  0  0  0  0  0  0  0  0  0
  152.0461  146.1764  158.1309 H   0  0  0  0  0  0  0  0  0  0  0  0
  153.3168  145.8428  159.3296 H   0  0  0  0  0  0  0  0  0  0  0  0
  1 24  1  0  0  0  0
  1 25  1  0  0  0  0
  1 26  1  0  0  0  0
  1  2  1  0  0  0  0
  2  3  1  0  0  0  0
  2 22  2  0  0  0  0
  3  4  1  0  0  0  0
  3 23  1  0  0  0  0
  4  6  2  0  0  0  0
  4  5  1  0  0  0  0
  5 27  1  0  0  0  0
  5 28  1  0  0  0  0
  5 29  1  0  0  0  0
  6 20  1  0  0  0  0
  6  7  1  0  0  0  0
  7  8  1  0  0  0  0
  7 30  1  0  0  0  0
  7 31  1  0  0  0  0
  8  9  2  0  0  0  0
  8 10  1  0  0  0  0
 10 11  1  0  0  0  0
 10 32  1  0  0  0  0
 11 12  1  0  0  0  0
 11 13  1  0  0  0  0
 11 33  1  0  0  0  0
 12 34  1  0  0  0  0
 12 35  1  0  0  0  0
 12 36  1  0  0  0  0
 13 18  1  0  0  0  0
 13 14  1  0  0  0  0
 13 37  1  0  0  0  0
 14 15  1  0  0  0  0
 14 38  1  0  0  0  0
 14 39  1  0  0  0  0
 15 19  1  0  0  0  0
 15 16  1  0  0  0  0
 15 40  1  0  0  0  0
 16 17  1  0  0  0  0
 16 41  1  0  0  0  0
 16 42  1  0  0  0  0
 17 18  1  0  0  0  0
 17 43  1  0  0  0  0
 17 44  1  0  0  0  0
 18 19  1  0  0  0  0
 18 45  1  0  0  0  0
 19 46  1  0  0  0  0
 19 47  1  0  0  0  0
 20 21  2  0  0  0  0
 20 22  1  0  0  0  0
M  END
> <s_m_source_file>
AV-unprocessed.smi

> <i_m_source_file_index>
2124

> <i_lp_mmshare_version>
43012

> <i_f3d_flags>
0

> <s_epik_input>
W0NIM11jMW5jKFtDSDNdKWMoYyg9TylbbkhdMSlbQ0gyXUMoPU8pW05IXVtDQEhdKFtDSDNdKVtDQEhdKFtDSDJdW0NASF0yMylbQ0BIXShbQ0gyXTMpW0NIMl1bQ0gyXTI=

> <s_epik_cmdline>
J2VwaWtfcHl0aG9uJywgJy1waCcsICc3LjAnLCAnLXRuJywgJzgnLCAnLW1hJywgJzIwMCcsICctbWV0YWxfYmluZGluZycsICctaW1hZScsICc8aW5maWxlLm1hZT4nLCAnLW9tYWUnLCAnPG91dGZpbGUubWFlPic=

> <r_lp_tautomer_probability>
0.156392

> <r_epik_Ionization_Penalty>
0.0139374

> <r_epik_Ionization_Penalty_Charging>
0.0138122

> <r_epik_Ionization_Penalty_Neutral>
0.000125146

> <r_epik_State_Penalty>
1.15342

> <r_epik_Charging_Adjusted_Penalty>
1.16723

> <i_epik_Tot_Q>
0

> <i_epik_Tot_abs_Q>
0

> <r_epik_Metal_State_Penalty>
1.3173

> <b_epik_Metal_Only>
0

> <s_lp_Force_Field>
OPLS_2005

> <r_lp_Energy>
54.2082

> <b_lp_Chiralities_Consistent>
1

> <s_lp_Variant>
AV-unprocessed.smi:2124-15

> <Gold.Version>
5.8.1

> <Gold.Id.Protein>
6NUR|6NUR_protein|mol2

> <Gold.PLP.Fitness>
50.0111

> <Gold.PLP.PLP>
-47.3511

> <Gold.PLP.part.hbond>
-3.0000

> <Gold.PLP.part.metal>
0.0000

> <Gold.PLP.part.buried>
-5.2842

> <Gold.PLP.part.nonpolar>
-39.7532

> <Gold.PLP.part.repulsive>
0.2145

> <Gold.PLP.ligand.clash>
0.0000

> <Gold.PLP.ligand.torsion>
1.3598

> <Gold.PLP.Chemscore.Hbond>
1.7680

> <Gold.PLP.Chemscore.CHOScore>
0.0000

> <Gold.PLP.Chemscore.Metal>
0.0000

> <Gold.Chemscore.Hbonds>
donor molecule, donor type, donor heavy atom, donor atom, acceptor molecule, acceptor atom, score
      L1  H    10    32       P1  8028  1.00
      P1  H  7989  7998       L1     9  0.44

> <Gold.PLP.Chemscore.Internal.Correction>
0.0757

> <Gold.Rescore>
     Score         DG    S(hbond)    S(metal)    S(lipo)     H(rot)  DE(clash)    DE(int)     intcor
     17.58     -20.20       1.46        0.00     120.39       1.65       0.39       2.23       ----

> <Gold.Chemscore.Fitness>
17.5762

> <Gold.Chemscore.DG>
-20.1999

> <Gold.Chemscore.ZeroCoef>
-5.4800

> <Gold.Chemscore.Hbond>
1.4572

> <Gold.Chemscore.Metal>
0.0000

> <Gold.Chemscore.Lipo>
120.3880

> <Gold.Chemscore.Internal_Hbond>
0.0000

> <Gold.Chemscore.DEClash>
0.3903

> <Gold.Chemscore.DEInternal>
2.2334

> <Gold.Chemscore.Rot>
1.6534

> <Gold.Chemscore.Internal.Correction>
   9.000000E+99

> <Gold.Chemscore.Hbonds>
donor molecule, donor type, donor heavy atom, donor atom, acceptor molecule, acceptor atom, score
      L1  H    10    32       P1  8028  0.96
      P1  H  7989  7998       L1     9  0.05

> <Gold.Chemscore.Hbond.Weighted>
-4.8671

> <Gold.Chemscore.Metal.Weighted>
-0.0000

> <Gold.Chemscore.Lipo.Weighted>
-14.0854

> <Gold.Chemscore.Internal_Hbond.Weighted>
0.0000

> <Gold.Chemscore.DEClash.Weighted>
0.3903

> <Gold.Chemscore.DEInternal.Weighted>
2.2334

> <Gold.Chemscore.Rot.Weighted>
4.2326

> <Gold.Chemscore.Internal.Correction.Weighted>
   9.000000E+99

> <Gold.Protein.RotatedTorsions>
[ 6907 6896 6895 6894 ] final   48.03 input  -60.11 | X-H torsion
[ 7974 7965 7964 7962 ] final  -30.84 input  175.53 | X-H torsion
[ 8008 7997 7996 7995 ] final  115.50 input   59.86 | X-H torsion
[ 10167 10162 10161 10158 ] final   -9.95 input  -65.29 | X-H torsion
[ 10718 10713 10712 10709 ] final  144.69 input   66.30 | X-H torsion
[ 10763 10752 10751 10750 ] final   92.28 input  -60.55 | X-H torsion
[ 11005 11000 10999 10996 ] final  -74.82 input  -57.11 | X-H torsion

> <Gold.Protein.ActiveResidues>
 VAL166  LYS551  ARG553  GLY616  TRP617  ASP618  TYR619  PRO620  LYS621  CYS622 
 ASP623  PHE694  ASN695  SER759  ASP760  ASP761  ALA762  ILE779  LEU786  VAL792 
 PHE793  MET794  SER795  GLU796  ALA797  LYS798  CYS799  TRP800  GLU811  SER814 

> <Gold.Protein.RotatedAtoms>
  152.2749  134.7892  160.0407 H   0  0  0  0  0  0  0  0  0  0  0  0  # atno 6907 bound_to 6896
  151.8492  133.3431  159.3676 H   0  0  0  0  0  0  0  0  0  0  0  0  # atno 6908 bound_to 6896
  150.7166  134.5244  159.5713 H   0  0  0  0  0  0  0  0  0  0  0  0  # atno 6909 bound_to 6896
  146.1113  140.5591  142.8777 H   0  0  0  0  0  0  0  0  0  0  0  0  # atno 7974 bound_to 7965
  156.2385  140.2937  156.0378 H   0  0  0  0  0  0  0  0  0  0  0  0  # atno 8008 bound_to 7997
  155.2021  140.0410  157.2936 H   0  0  0  0  0  0  0  0  0  0  0  0  # atno 8009 bound_to 7997
  154.6123  140.2455  155.7660 H   0  0  0  0  0  0  0  0  0  0  0  0  # atno 8010 bound_to 7997
  140.7101  143.5802  150.9000 H   0  0  0  0  0  0  0  0  0  0  0  0  # atno 10167 bound_to 10162
  157.3542  131.0955  151.0973 H   0  0  0  0  0  0  0  0  0  0  0  0  # atno 10718 bound_to 10713
  153.2174  135.4367  155.0450 H   0  0  0  0  0  0  0  0  0  0  0  0  # atno 10763 bound_to 10752
  154.8232  135.3348  154.6978 H   0  0  0  0  0  0  0  0  0  0  0  0  # atno 10764 bound_to 10752
  153.7412  135.7004  153.5022 H   0  0  0  0  0  0  0  0  0  0  0  0  # atno 10765 bound_to 10752
  141.1639  133.6925  156.7423 H   0  0  0  0  0  0  0  0  0  0  0  0  # atno 11005 bound_to 11000
  144.7514  140.5199  143.6799 LP  0  0  0  0  0  0  0  0  0  0  0  0  # atno 17320 bound_to 7965
  145.5658  139.1481  143.3316 LP  0  0  0  0  0  0  0  0  0  0  0  0  # atno 17321 bound_to 7965
  139.9528  143.6253  152.3024 LP  0  0  0  0  0  0  0  0  0  0  0  0  # atno 17342 bound_to 10162
  139.6777  144.7657  151.1665 LP  0  0  0  0  0  0  0  0  0  0  0  0  # atno 17343 bound_to 10162
  157.2137  130.6450  149.5784 LP  0  0  0  0  0  0  0  0  0  0  0  0  # atno 17370 bound_to 10713
  155.9726  130.4651  150.6243 LP  0  0  0  0  0  0  0  0  0  0  0  0  # atno 17371 bound_to 10713
  140.2665  134.8425  157.3808 LP  0  0  0  0  0  0  0  0  0  0  0  0  # atno 17394 bound_to 11000
  140.1561  134.4787  155.7927 LP  0  0  0  0  0  0  0  0  0  0  0  0  # atno 17395 bound_to 11000

$$$$
