AV-unprocessed.smi:1673|AV-procd|sdf|6710|dock6
  -GOLD-   22720 7453D 1   1.00000     0.00000
 Structure written by MMmdl.
 39 40  0  0  0  0  0  0  0  0  1 V2000
  140.0005  139.3006  154.5834 C   0  0  0  0  0  0  0  0  0  0  0  0
  140.3135  137.8595  154.2898 C   0  0  0  0  0  0  0  0  0  0  0  0
  139.4140  136.9330  154.5869 N   0  0  0  0  0  0  0  0  0  0  0  0
  139.9368  135.7068  154.1478 O   0  0  0  0  0  0  0  0  0  0  0  0
  141.1562  135.9239  153.5892 C   0  0  0  0  0  0  0  0  0  0  0  0
  141.8730  134.7363  153.0420 C   0  0  0  0  0  0  0  0  0  0  0  0
  141.4500  137.2523  153.6788 C   0  0  0  0  0  0  0  0  0  0  0  0
  142.6302  137.8515  153.1724 N   0  0  0  0  0  0  0  0  0  0  0  0
  143.8642  137.3256  153.1713 C   0  0  0  0  0  0  0  0  0  0  0  0
  144.1460  136.1934  153.5626 O   0  0  0  0  0  0  0  0  0  0  0  0
  144.7592  138.1891  152.6711 N   0  0  0  0  0  0  0  0  0  0  0  0
  146.1975  137.9542  152.5265 C   0  0  1  0  0  0  0  0  0  0  0  0
  146.7926  138.9666  151.5271 C   0  0  0  0  0  0  0  0  0  0  0  0
  146.8140  140.3979  152.0913 C   0  0  0  0  0  0  0  0  0  0  0  0
  147.5478  140.4537  153.4395 C   0  0  0  0  0  0  0  0  0  0  0  0
  146.9462  139.4613  154.4475 C   0  0  0  0  0  0  0  0  0  0  0  0
  146.9343  138.0231  153.8894 C   0  0  1  0  0  0  0  0  0  0  0  0
  146.3945  137.0198  154.9236 C   0  0  0  0  0  0  0  0  0  0  0  0
  140.4517  139.9625  153.8442 H   0  0  0  0  0  0  0  0  0  0  0  0
  140.3730  139.5891  155.5662 H   0  0  0  0  0  0  0  0  0  0  0  0
  138.9262  139.4862  154.5701 H   0  0  0  0  0  0  0  0  0  0  0  0
  142.7761  135.0337  152.5089 H   0  0  0  0  0  0  0  0  0  0  0  0
  141.2368  134.1870  152.3481 H   0  0  0  0  0  0  0  0  0  0  0  0
  142.1629  134.0588  153.8449 H   0  0  0  0  0  0  0  0  0  0  0  0
  142.5115  138.7372  152.7028 H   0  0  0  0  0  0  0  0  0  0  0  0
  144.4231  139.0931  152.3733 H   0  0  0  0  0  0  0  0  0  0  0  0
  146.3558  136.9594  152.1061 H   0  0  0  0  0  0  0  0  0  0  0  0
  147.8122  138.6674  151.2808 H   0  0  0  0  0  0  0  0  0  0  0  0
  146.2365  138.9426  150.5891 H   0  0  0  0  0  0  0  0  0  0  0  0
  147.2953  141.0692  151.3796 H   0  0  0  0  0  0  0  0  0  0  0  0
  145.7936  140.7631  152.2144 H   0  0  0  0  0  0  0  0  0  0  0  0
  148.6036  140.2254  153.2897 H   0  0  0  0  0  0  0  0  0  0  0  0
  147.5056  141.4656  153.8433 H   0  0  0  0  0  0  0  0  0  0  0  0
  147.5190  139.4958  155.3747 H   0  0  0  0  0  0  0  0  0  0  0  0
  145.9320  139.7702  154.7037 H   0  0  0  0  0  0  0  0  0  0  0  0
  147.9723  137.7440  153.7019 H   0  0  0  0  0  0  0  0  0  0  0  0
  145.3775  137.2633  155.2316 H   0  0  0  0  0  0  0  0  0  0  0  0
  147.0147  137.0123  155.8202 H   0  0  0  0  0  0  0  0  0  0  0  0
  146.3875  136.0068  154.5205 H   0  0  0  0  0  0  0  0  0  0  0  0
  1  2  1  0  0  0  0
  1 19  1  0  0  0  0
  1 20  1  0  0  0  0
  1 21  1  0  0  0  0
  2  7  1  0  0  0  0
  2  3  2  0  0  0  0
  3  4  1  0  0  0  0
  4  5  1  0  0  0  0
  5  6  1  0  0  0  0
  5  7  2  0  0  0  0
  6 22  1  0  0  0  0
  6 23  1  0  0  0  0
  6 24  1  0  0  0  0
  7  8  1  0  0  0  0
  8  9  1  0  0  0  0
  8 25  1  0  0  0  0
  9 10  2  0  0  0  0
  9 11  1  0  0  0  0
 11 12  1  0  0  0  0
 11 26  1  0  0  0  0
 12 17  1  0  0  0  0
 12 13  1  0  0  0  0
 12 27  1  0  0  0  0
 13 14  1  0  0  0  0
 13 28  1  0  0  0  0
 13 29  1  0  0  0  0
 14 15  1  0  0  0  0
 14 30  1  0  0  0  0
 14 31  1  0  0  0  0
 15 16  1  0  0  0  0
 15 32  1  0  0  0  0
 15 33  1  0  0  0  0
 16 17  1  0  0  0  0
 16 34  1  0  0  0  0
 16 35  1  0  0  0  0
 17 18  1  0  0  0  0
 17 36  1  0  0  0  0
 18 37  1  0  0  0  0
 18 38  1  0  0  0  0
 18 39  1  0  0  0  0
M  END
> <s_m_source_file>
AV-unprocessed.smi

> <i_m_source_file_index>
1673

> <i_lp_mmshare_version>
43012

> <i_f3d_flags>
0

> <s_epik_input>
W0NIM11jMW5vYyhbQ0gzXSljMVtOSF1DKD1PKVtOSF1bQ0BASF0yW0NIMl1bQ0gyXVtDSDJdW0NIMl1bQ0BIXTJbQ0gzXQ==

> <s_epik_cmdline>
J2VwaWtfcHl0aG9uJywgJy1waCcsICc3LjAnLCAnLXRuJywgJzgnLCAnLW1hJywgJzIwMCcsICctbWV0YWxfYmluZGluZycsICctaW1hZScsICc8aW5maWxlLm1hZT4nLCAnLW9tYWUnLCAnPG91dGZpbGUubWFlPic=

> <r_lp_tautomer_probability>
1

> <r_epik_Ionization_Penalty>
4.01865e-05

> <r_epik_Ionization_Penalty_Charging>
0

> <r_epik_Ionization_Penalty_Neutral>
4.01865e-05

> <r_epik_State_Penalty>
-0

> <r_epik_Charging_Adjusted_Penalty>
0

> <i_epik_Tot_Q>
0

> <i_epik_Tot_abs_Q>
0

> <r_epik_Metal_State_Penalty>
-0

> <b_epik_Metal_Only>
0

> <s_lp_Force_Field>
OPLS_2005

> <r_lp_Energy>
11.4639

> <b_lp_Chiralities_Consistent>
1

> <s_lp_Variant>
AV-unprocessed.smi:1673-2

> <Gold.Version>
5.8.1

> <Gold.Id.Protein>
6NUR|6NUR_protein|mol2

> <Gold.PLP.Fitness>
34.1549

> <Gold.PLP.PLP>
-26.6257

> <Gold.PLP.part.hbond>
-4.5786

> <Gold.PLP.part.metal>
0.0000

> <Gold.PLP.part.buried>
0.7231

> <Gold.PLP.part.nonpolar>
-23.1776

> <Gold.PLP.part.repulsive>
0.2912

> <Gold.PLP.ligand.clash>
0.0105

> <Gold.PLP.ligand.torsion>
0.4575

> <Gold.PLP.Chemscore.Hbond>
2.7367

> <Gold.PLP.Chemscore.CHOScore>
0.0000

> <Gold.PLP.Chemscore.Metal>
0.0000

> <Gold.Chemscore.Hbonds>
donor molecule, donor type, donor heavy atom, donor atom, acceptor molecule, acceptor atom, score
      L1  H     8    25       P1 10175  0.73
      L1  H    11    26       P1 10175  1.00
      P1  H 11000 11005       L1     4  0.98

> <Gold.PLP.Chemscore.Internal.Correction>
0.2447

> <Gold.Rescore>
     Score         DG    S(hbond)    S(metal)    S(lipo)     H(rot)  DE(clash)    DE(int)     intcor
     12.83     -18.49       2.41        0.00      64.36       1.00       1.32       4.35       ----

> <Gold.Chemscore.Fitness>
12.8272

> <Gold.Chemscore.DG>
-18.4903

> <Gold.Chemscore.ZeroCoef>
-5.4800

> <Gold.Chemscore.Hbond>
2.4072

> <Gold.Chemscore.Metal>
0.0000

> <Gold.Chemscore.Lipo>
64.3611

> <Gold.Chemscore.Internal_Hbond>
0.0000

> <Gold.Chemscore.DEClash>
1.3165

> <Gold.Chemscore.DEInternal>
4.3465

> <Gold.Chemscore.Rot>
1.0000

> <Gold.Chemscore.Internal.Correction>
   9.000000E+99

> <Gold.Chemscore.Hbonds>
donor molecule, donor type, donor heavy atom, donor atom, acceptor molecule, acceptor atom, score
      L1  H     8    25       P1 10175  0.68
      L1  H    11    26       P1 10175  0.94
      P1  H 11000 11005       L1     4  0.38

> <Gold.Chemscore.Hbond.Weighted>
-8.0401

> <Gold.Chemscore.Metal.Weighted>
-0.0000

> <Gold.Chemscore.Lipo.Weighted>
-7.5302

> <Gold.Chemscore.Internal_Hbond.Weighted>
0.0000

> <Gold.Chemscore.DEClash.Weighted>
1.3165

> <Gold.Chemscore.DEInternal.Weighted>
4.3465

> <Gold.Chemscore.Rot.Weighted>
2.5600

> <Gold.Chemscore.Internal.Correction.Weighted>
   9.000000E+99

> <Gold.Protein.RotatedTorsions>
[ 6907 6896 6895 6894 ] final   43.38 input  -60.11 | X-H torsion
[ 7974 7965 7964 7962 ] final  -84.64 input  175.53 | X-H torsion
[ 8008 7997 7996 7995 ] final  158.95 input   59.86 | X-H torsion
[ 10167 10162 10161 10158 ] final  -30.52 input  -65.29 | X-H torsion
[ 10718 10713 10712 10709 ] final  -72.81 input   66.30 | X-H torsion
[ 10763 10752 10751 10750 ] final  -97.81 input  -60.55 | X-H torsion
[ 11005 11000 10999 10996 ] final   52.84 input  -57.11 | X-H torsion

> <Gold.Protein.ActiveResidues>
 VAL166  LYS551  ARG553  GLY616  TRP617  ASP618  TYR619  PRO620  LYS621  CYS622 
 ASP623  PHE694  ASN695  SER759  ASP760  ASP761  ALA762  ILE779  LEU786  VAL792 
 PHE793  MET794  SER795  GLU796  ALA797  LYS798  CYS799  TRP800  GLU811  SER814 

> <Gold.Protein.RotatedAtoms>
  152.2195  134.8426  160.0487 H   0  0  0  0  0  0  0  0  0  0  0  0  # atno 6907 bound_to 6896
  151.9215  133.3581  159.3906 H   0  0  0  0  0  0  0  0  0  0  0  0  # atno 6908 bound_to 6896
  150.6996  134.4556  159.5400 H   0  0  0  0  0  0  0  0  0  0  0  0  # atno 6909 bound_to 6896
  145.5039  140.9545  143.1744 H   0  0  0  0  0  0  0  0  0  0  0  0  # atno 7974 bound_to 7965
  156.2270  140.1844  156.7337 H   0  0  0  0  0  0  0  0  0  0  0  0  # atno 8008 bound_to 7997
  154.5958  140.0643  156.9330 H   0  0  0  0  0  0  0  0  0  0  0  0  # atno 8009 bound_to 7997
  155.2258  140.3311  155.4312 H   0  0  0  0  0  0  0  0  0  0  0  0  # atno 8010 bound_to 7997
  140.7248  143.3842  151.1545 H   0  0  0  0  0  0  0  0  0  0  0  0  # atno 10167 bound_to 10162
  156.0305  130.4380  150.2649 H   0  0  0  0  0  0  0  0  0  0  0  0  # atno 10718 bound_to 10713
  154.7360  135.5032  153.9043 H   0  0  0  0  0  0  0  0  0  0  0  0  # atno 10763 bound_to 10752
  153.0996  135.6681  153.9706 H   0  0  0  0  0  0  0  0  0  0  0  0  # atno 10764 bound_to 10752
  153.9496  135.3059  155.3418 H   0  0  0  0  0  0  0  0  0  0  0  0  # atno 10765 bound_to 10752
  140.0816  134.5331  155.8941 H   0  0  0  0  0  0  0  0  0  0  0  0  # atno 11005 bound_to 11000
  144.7765  139.6619  143.7173 LP  0  0  0  0  0  0  0  0  0  0  0  0  # atno 17320 bound_to 7965
  146.2209  139.5634  142.9619 LP  0  0  0  0  0  0  0  0  0  0  0  0  # atno 17321 bound_to 7965
  139.7436  143.8886  152.3057 LP  0  0  0  0  0  0  0  0  0  0  0  0  # atno 17342 bound_to 10162
  139.8715  144.7065  150.8981 LP  0  0  0  0  0  0  0  0  0  0  0  0  # atno 17343 bound_to 10162
  157.0751  131.0128  151.3176 LP  0  0  0  0  0  0  0  0  0  0  0  0  # atno 17370 bound_to 10713
  157.4970  130.7856  149.7565 LP  0  0  0  0  0  0  0  0  0  0  0  0  # atno 17371 bound_to 10713
  141.2048  133.6642  156.6145 LP  0  0  0  0  0  0  0  0  0  0  0  0  # atno 17394 bound_to 11000
  140.3480  134.7793  157.4446 LP  0  0  0  0  0  0  0  0  0  0  0  0  # atno 17395 bound_to 11000

$$$$
