AV-unprocessed.smi:2257|AV-procd|sdf|9128|dock5
  -GOLD-   2272012333D 1   1.00000     0.00000
 Structure written by MMmdl.
 40 42  0  0  0  0  0  0  0  0  1 V2000
  146.4195  132.0651  152.1938 C   0  0  0  0  0  0  0  0  0  0  0  0
  147.6691  132.5816  152.6371 O   0  0  0  0  0  0  0  0  0  0  0  0
  147.9164  132.5156  154.0419 C   0  0  0  0  0  0  0  0  0  0  0  0
  149.2981  133.0882  154.4040 C   0  0  0  0  0  0  0  0  0  0  0  0
  149.3668  134.5262  154.1640 N   0  0  0  0  0  0  0  0  0  0  0  0
  149.7752  135.4483  155.0460 C   0  0  0  0  0  0  0  0  0  0  0  0
  150.1261  135.1859  156.1957 O   0  0  0  0  0  0  0  0  0  0  0  0
  149.7266  136.6801  154.5119 N   0  0  0  0  0  0  0  0  0  0  0  0
  150.0988  137.9146  155.1076 C   0  0  0  0  0  0  0  0  0  0  0  0
  150.2152  139.0591  154.2913 C   0  0  0  0  0  0  0  0  0  0  0  0
  150.5819  140.2594  154.7886 N   0  0  0  0  0  0  0  0  0  0  0  0
  150.8515  140.3132  156.0959 C   0  0  0  0  0  0  0  0  0  0  0  0
  151.2212  141.6530  156.6528 C   0  0  0  0  0  0  0  0  0  0  0  0
  151.5985  141.8129  158.1117 C   0  0  0  0  0  0  0  0  0  0  0  0
  150.2961  142.3733  157.6125 C   0  0  0  0  0  0  0  0  0  0  0  0
  150.7766  139.3026  156.9662 N   0  0  0  0  0  0  0  0  0  0  0  0
  150.4079  138.0982  156.4779 C   0  0  0  0  0  0  0  0  0  0  0  0
  146.6856  133.0946  154.7681 C   0  0  0  0  0  0  0  0  0  0  0  0
  146.7448  131.9081  155.7313 C   0  0  0  0  0  0  0  0  0  0  0  0
  147.4988  131.1534  154.6355 C   0  0  0  0  0  0  0  0  0  0  0  0
  146.3464  132.1915  151.1139 H   0  0  0  0  0  0  0  0  0  0  0  0
  145.5764  132.5911  152.6412 H   0  0  0  0  0  0  0  0  0  0  0  0
  146.3126  131.0018  152.4025 H   0  0  0  0  0  0  0  0  0  0  0  0
  149.4950  132.9370  155.4655 H   0  0  0  0  0  0  0  0  0  0  0  0
  150.1046  132.5655  153.8898 H   0  0  0  0  0  0  0  0  0  0  0  0
  149.0949  134.8415  153.2445 H   0  0  0  0  0  0  0  0  0  0  0  0
  149.3396  136.7468  153.5818 H   0  0  0  0  0  0  0  0  0  0  0  0
  150.0082  139.0151  153.2320 H   0  0  0  0  0  0  0  0  0  0  0  0
  151.7581  142.2512  155.9191 H   0  0  0  0  0  0  0  0  0  0  0  0
  151.5521  140.9320  158.7489 H   0  0  0  0  0  0  0  0  0  0  0  0
  152.3922  142.5180  158.3494 H   0  0  0  0  0  0  0  0  0  0  0  0
  150.2167  143.4542  157.5173 H   0  0  0  0  0  0  0  0  0  0  0  0
  149.3837  141.8640  157.9167 H   0  0  0  0  0  0  0  0  0  0  0  0
  150.3849  137.2927  157.1952 H   0  0  0  0  0  0  0  0  0  0  0  0
  146.8373  134.0652  155.2407 H   0  0  0  0  0  0  0  0  0  0  0  0
  145.7821  133.0886  154.1556 H   0  0  0  0  0  0  0  0  0  0  0  0
  147.3578  132.1046  156.6124 H   0  0  0  0  0  0  0  0  0  0  0  0
  145.7755  131.4845  155.9961 H   0  0  0  0  0  0  0  0  0  0  0  0
  146.8237  130.5841  153.9941 H   0  0  0  0  0  0  0  0  0  0  0  0
  148.3234  130.5374  154.9954 H   0  0  0  0  0  0  0  0  0  0  0  0
  1  2  1  0  0  0  0
  1 21  1  0  0  0  0
  1 22  1  0  0  0  0
  1 23  1  0  0  0  0
  2  3  1  0  0  0  0
  3 20  1  0  0  0  0
  3  4  1  0  0  0  0
  3 18  1  0  0  0  0
  4  5  1  0  0  0  0
  4 24  1  0  0  0  0
  4 25  1  0  0  0  0
  5  6  1  0  0  0  0
  5 26  1  0  0  0  0
  6  7  2  0  0  0  0
  6  8  1  0  0  0  0
  8  9  1  0  0  0  0
  8 27  1  0  0  0  0
  9 17  1  0  0  0  0
  9 10  2  0  0  0  0
 10 11  1  0  0  0  0
 10 28  1  0  0  0  0
 11 12  2  0  0  0  0
 12 13  1  0  0  0  0
 12 16  1  0  0  0  0
 13 15  1  0  0  0  0
 13 14  1  0  0  0  0
 13 29  1  0  0  0  0
 14 15  1  0  0  0  0
 14 30  1  0  0  0  0
 14 31  1  0  0  0  0
 15 32  1  0  0  0  0
 15 33  1  0  0  0  0
 16 17  2  0  0  0  0
 17 34  1  0  0  0  0
 18 19  1  0  0  0  0
 18 35  1  0  0  0  0
 18 36  1  0  0  0  0
 19 20  1  0  0  0  0
 19 37  1  0  0  0  0
 19 38  1  0  0  0  0
 20 39  1  0  0  0  0
 20 40  1  0  0  0  0
M  END
> <s_m_source_file>
AV-unprocessed.smi

> <i_m_source_file_index>
2257

> <i_lp_mmshare_version>
43012

> <i_f3d_flags>
0

> <s_epik_input>
W0NIMl0xW0NIMl1bQ0gyXUMxKE9bQ0gzXSlbQ0gyXVtOSF1DKD1PKVtOSF1jMltjSF1uYyhuW2NIXTIpW0NIXTNbQ0gyXVtDSDJdMw==

> <s_epik_cmdline>
J2VwaWtfcHl0aG9uJywgJy1waCcsICc3LjAnLCAnLXRuJywgJzgnLCAnLW1hJywgJzIwMCcsICctbWV0YWxfYmluZGluZycsICctaW1hZScsICc8aW5maWxlLm1hZT4nLCAnLW9tYWUnLCAnPG91dGZpbGUubWFlPic=

> <r_lp_tautomer_probability>
1

> <r_epik_Ionization_Penalty>
2.49679e-05

> <r_epik_Ionization_Penalty_Charging>
0

> <r_epik_Ionization_Penalty_Neutral>
2.49679e-05

> <r_epik_State_Penalty>
-0

> <r_epik_Charging_Adjusted_Penalty>
0

> <i_epik_Tot_Q>
0

> <i_epik_Tot_abs_Q>
0

> <r_epik_Metal_State_Penalty>
-0

> <b_epik_Metal_Only>
0

> <s_lp_Force_Field>
OPLS_2005

> <r_lp_Energy>
15.4086

> <b_lp_Chiralities_Consistent>
1

> <s_lp_Variant>
AV-unprocessed.smi:2257-1

> <Gold.Version>
5.8.1

> <Gold.Id.Protein>
6NUR|6NUR_protein|mol2

> <Gold.PLP.Fitness>
38.2025

> <Gold.PLP.PLP>
-27.3497

> <Gold.PLP.part.hbond>
-3.0000

> <Gold.PLP.part.metal>
0.0000

> <Gold.PLP.part.buried>
-5.7813

> <Gold.PLP.part.nonpolar>
-19.3542

> <Gold.PLP.part.repulsive>
0.3188

> <Gold.PLP.ligand.clash>
0.0000

> <Gold.PLP.ligand.torsion>
0.3220

> <Gold.PLP.Chemscore.Hbond>
2.7000

> <Gold.PLP.Chemscore.CHOScore>
1.0000

> <Gold.PLP.Chemscore.Metal>
0.0000

> <Gold.Chemscore.Hbonds>
donor molecule, donor type, donor heavy atom, donor atom, acceptor molecule, acceptor atom, score
      L1  H     5    26       P1  7948  0.75
      L1  H     8    27       P1  7948  1.00
      P1  H  7989  7998       L1    11  1.00
      L1  C    10    28       P1  7957  1.00

> <Gold.PLP.Chemscore.Internal.Correction>
0.3968

> <Gold.Rescore>
     Score         DG    S(hbond)    S(metal)    S(lipo)     H(rot)  DE(clash)    DE(int)     intcor
     13.40     -15.01       2.16        0.00      55.28       1.62       0.01       1.60       ----

> <Gold.Chemscore.Fitness>
13.4005

> <Gold.Chemscore.DG>
-15.0070

> <Gold.Chemscore.ZeroCoef>
-5.4800

> <Gold.Chemscore.Hbond>
2.1599

> <Gold.Chemscore.Metal>
0.0000

> <Gold.Chemscore.Lipo>
55.2780

> <Gold.Chemscore.Internal_Hbond>
0.0000

> <Gold.Chemscore.DEClash>
0.0106

> <Gold.Chemscore.DEInternal>
1.5959

> <Gold.Chemscore.Rot>
1.6229

> <Gold.Chemscore.Internal.Correction>
   9.000000E+99

> <Gold.Chemscore.Hbonds>
donor molecule, donor type, donor heavy atom, donor atom, acceptor molecule, acceptor atom, score
      L1  H     5    26       P1  7948  0.09
      L1  H     8    27       P1  7948  0.93
      P1  H  7989  7998       L1    11  0.34

> <Gold.Chemscore.Hbond.Weighted>
-7.2140

> <Gold.Chemscore.Metal.Weighted>
-0.0000

> <Gold.Chemscore.Lipo.Weighted>
-6.4675

> <Gold.Chemscore.Internal_Hbond.Weighted>
0.0000

> <Gold.Chemscore.DEClash.Weighted>
0.0106

> <Gold.Chemscore.DEInternal.Weighted>
1.5959

> <Gold.Chemscore.Rot.Weighted>
4.1545

> <Gold.Chemscore.Internal.Correction.Weighted>
   9.000000E+99

> <Gold.Protein.RotatedTorsions>
[ 6907 6896 6895 6894 ] final  -51.97 input  -60.11 | X-H torsion
[ 7974 7965 7964 7962 ] final   59.04 input  175.53 | X-H torsion
[ 8008 7997 7996 7995 ] final  166.75 input   59.86 | X-H torsion
[ 10167 10162 10161 10158 ] final   55.78 input  -65.29 | X-H torsion
[ 10718 10713 10712 10709 ] final   71.34 input   66.30 | X-H torsion
[ 10763 10752 10751 10750 ] final   -0.66 input  -60.55 | X-H torsion
[ 11005 11000 10999 10996 ] final -166.26 input  -57.11 | X-H torsion

> <Gold.Protein.ActiveResidues>
 VAL166  LYS551  ARG553  GLY616  TRP617  ASP618  TYR619  PRO620  LYS621  CYS622 
 ASP623  PHE694  ASN695  SER759  ASP760  ASP761  ALA762  ILE779  LEU786  VAL792 
 PHE793  MET794  SER795  GLU796  ALA797  LYS798  CYS799  TRP800  GLU811  SER814 

> <Gold.Protein.RotatedAtoms>
  150.8561  134.7900  159.7046 H   0  0  0  0  0  0  0  0  0  0  0  0  # atno 6907 bound_to 6896
  152.4612  134.5176  159.9782 H   0  0  0  0  0  0  0  0  0  0  0  0  # atno 6908 bound_to 6896
  151.5288  133.3415  159.2950 H   0  0  0  0  0  0  0  0  0  0  0  0  # atno 6909 bound_to 6896
  145.9116  139.3658  143.0532 H   0  0  0  0  0  0  0  0  0  0  0  0  # atno 7974 bound_to 7965
  156.1692  140.1635  156.8477 H   0  0  0  0  0  0  0  0  0  0  0  0  # atno 8008 bound_to 7997
  154.5239  140.0772  156.8257 H   0  0  0  0  0  0  0  0  0  0  0  0  # atno 8009 bound_to 7997
  155.3548  140.3392  155.4242 H   0  0  0  0  0  0  0  0  0  0  0  0  # atno 8010 bound_to 7997
  140.2158  144.3841  150.6470 H   0  0  0  0  0  0  0  0  0  0  0  0  # atno 10167 bound_to 10162
  157.6446  130.9523  150.0776 H   0  0  0  0  0  0  0  0  0  0  0  0  # atno 10718 bound_to 10713
  153.3347  135.6977  153.6917 H   0  0  0  0  0  0  0  0  0  0  0  0  # atno 10763 bound_to 10752
  153.5706  135.3517  155.2837 H   0  0  0  0  0  0  0  0  0  0  0  0  # atno 10764 bound_to 10752
  154.8625  135.4271  154.2545 H   0  0  0  0  0  0  0  0  0  0  0  0  # atno 10765 bound_to 10752
  140.5665  134.5281  157.5153 H   0  0  0  0  0  0  0  0  0  0  0  0  # atno 11005 bound_to 11000
  145.8664  140.9445  143.0673 LP  0  0  0  0  0  0  0  0  0  0  0  0  # atno 17320 bound_to 7965
  144.6744  140.0598  143.7476 LP  0  0  0  0  0  0  0  0  0  0  0  0  # atno 17321 bound_to 7965
  140.6290  143.2185  151.6535 LP  0  0  0  0  0  0  0  0  0  0  0  0  # atno 17342 bound_to 10162
  139.5162  144.3353  152.0790 LP  0  0  0  0  0  0  0  0  0  0  0  0  # atno 17343 bound_to 10162
  156.1761  130.3648  149.9098 LP  0  0  0  0  0  0  0  0  0  0  0  0  # atno 17370 bound_to 10713
  156.7061  130.8952  151.3604 LP  0  0  0  0  0  0  0  0  0  0  0  0  # atno 17371 bound_to 10713
  139.9382  134.7835  156.0746 LP  0  0  0  0  0  0  0  0  0  0  0  0  # atno 17394 bound_to 11000
  141.1083  133.6652  156.2916 LP  0  0  0  0  0  0  0  0  0  0  0  0  # atno 17395 bound_to 11000

$$$$
