AV-unprocessed.smi:72|AV-procd|sdf|692|dock1
  -GOLD-   2262017 03D 1   1.00000     0.00000
 Structure written by MMmdl.
 29 30  0  0  0  0  0  0  0  0  1 V2000
  146.7649  141.5031  154.4535 N   0  0  0  0  0  0  0  0  0  0  0  0
  147.8942  140.8910  154.4405 C   0  0  0  0  0  0  0  0  0  0  0  0
  148.0734  139.5231  154.1882 N   0  0  0  0  0  0  0  0  0  0  0  0
  149.2784  139.0421  154.1922 C   0  0  0  0  0  0  0  0  0  0  0  0
  150.4496  139.8774  154.4308 N   0  0  0  0  0  0  0  0  0  0  0  0
  151.8660  139.3252  154.4501 C   0  0  1  0  0  0  0  0  0  0  0  0
  152.4490  139.5490  155.7024 O   0  0  0  0  0  0  0  0  0  0  0  0
  152.3533  138.3704  156.4973 C   0  0  2  0  0  0  0  0  0  0  0  0
  153.3278  138.4170  157.6865 C   0  0  0  0  0  0  0  0  0  0  0  0
  153.0701  137.3384  158.5596 O   0  0  0  0  0  0  0  0  0  0  0  0
  152.6146  137.2722  155.4626 C   0  0  2  0  0  0  0  0  0  0  0  0
  154.0071  137.1316  155.2315 O   0  0  0  0  0  0  0  0  0  0  0  0
  151.8649  137.7947  154.2371 C   0  0  2  0  0  0  0  0  0  0  0  0
  152.4694  137.3945  153.0216 O   0  0  0  0  0  0  0  0  0  0  0  0
  150.2770  141.2530  154.7258 C   0  0  0  0  0  0  0  0  0  0  0  0
  151.2251  141.9964  154.9781 O   0  0  0  0  0  0  0  0  0  0  0  0
  149.0037  141.7013  154.7090 N   0  0  0  0  0  0  0  0  0  0  0  0
  152.4060  139.8899  153.6879 H   0  0  0  0  0  0  0  0  0  0  0  0
  151.3298  138.2567  156.8599 H   0  0  0  0  0  0  0  0  0  0  0  0
  152.2257  136.3071  155.7892 H   0  0  0  0  0  0  0  0  0  0  0  0
  150.8382  137.4259  154.2639 H   0  0  0  0  0  0  0  0  0  0  0  0
  146.0172  140.8545  154.2522 H   0  0  0  0  0  0  0  0  0  0  0  0
  149.4779  137.9851  154.0171 H   0  0  0  0  0  0  0  0  0  0  0  0
  154.3547  138.3150  157.3342 H   0  0  0  0  0  0  0  0  0  0  0  0
  153.2592  139.3628  158.2250 H   0  0  0  0  0  0  0  0  0  0  0  0
  152.1462  137.1416  158.5255 H   0  0  0  0  0  0  0  0  0  0  0  0
  154.4135  136.8518  156.0377 H   0  0  0  0  0  0  0  0  0  0  0  0
  151.8030  137.0155  152.4680 H   0  0  0  0  0  0  0  0  0  0  0  0
  148.8480  142.6791  154.9070 H   0  0  0  0  0  0  0  0  0  0  0  0
  1  2  2  0  0  0  0
  1 22  1  0  0  0  0
  2 17  1  0  0  0  0
  2  3  1  0  0  0  0
  3  4  2  0  0  0  0
  4  5  1  0  0  0  0
  4 23  1  0  0  0  0
  5  6  1  0  0  0  0
  5 15  1  0  0  0  0
  6 18  1  0  0  0  0
  6 13  1  0  0  0  0
  6  7  1  0  0  0  0
  7  8  1  0  0  0  0
  8 19  1  0  0  0  0
  8  9  1  0  0  0  0
  8 11  1  0  0  0  0
  9 10  1  0  0  0  0
  9 24  1  0  0  0  0
  9 25  1  0  0  0  0
 10 26  1  0  0  0  0
 11 20  1  0  0  0  0
 11 12  1  0  0  0  0
 11 13  1  0  0  0  0
 12 27  1  0  0  0  0
 13 21  1  0  0  0  0
 13 14  1  0  0  0  0
 14 28  1  0  0  0  0
 15 16  2  0  0  0  0
 15 17  1  0  0  0  0
 17 29  1  0  0  0  0
M  END
> <s_m_source_file>
AV-unprocessed.smi

> <i_m_source_file_index>
72

> <i_lp_mmshare_version>
43012

> <i_f3d_flags>
0

> <s_epik_input>
W05IMl1jMW5bY0hdbihjKD1PKW4xKVtDQEBIXTJPW0NASF0oW0NIMl1bT0hdKVtDQEBIXShbT0hdKVtDQEhdMltPSF0=

> <s_epik_cmdline>
J2VwaWtfcHl0aG9uJywgJy1waCcsICc3LjAnLCAnLXRuJywgJzgnLCAnLW1hJywgJzIwMCcsICctbWV0YWxfYmluZGluZycsICctaW1hZScsICc8aW5maWxlLm1hZT4nLCAnLW9tYWUnLCAnPG91dGZpbGUubWFlPic=

> <r_lp_tautomer_probability>
7.17554e-07

> <r_epik_Ionization_Penalty>
0.0066451

> <r_epik_Ionization_Penalty_Charging>
0.00663793

> <r_epik_Ionization_Penalty_Neutral>
7.17052e-06

> <r_epik_State_Penalty>
0.419231

> <r_epik_Charging_Adjusted_Penalty>
0.425868

> <i_epik_Tot_Q>
0

> <i_epik_Tot_abs_Q>
0

> <r_epik_Metal_State_Penalty>
1.44144

> <b_epik_Metal_Only>
0

> <s_epik_Chemistry_Notes>
This compound contains an acetal/aminal-like group ( X-CH(R)-Y where X, Y are N, S, or O) that may be acid/base labile, releasing an aldehyde.

> <s_lp_Force_Field>
OPLS_2005

> <r_lp_Energy>
42.1685

> <b_lp_Chiralities_Consistent>
1

> <s_lp_Variant>
AV-unprocessed.smi:72-30

> <Gold.Version>
5.8.1

> <Gold.Id.Protein>
6NUR|6NUR_protein|mol2

> <Gold.PLP.Fitness>
40.7409

> <Gold.PLP.PLP>
-24.5902

> <Gold.PLP.part.hbond>
-5.0000

> <Gold.PLP.part.metal>
0.0000

> <Gold.PLP.part.buried>
-2.8765

> <Gold.PLP.part.nonpolar>
-17.3659

> <Gold.PLP.part.repulsive>
1.1366

> <Gold.PLP.ligand.clash>
0.0000

> <Gold.PLP.ligand.torsion>
0.0809

> <Gold.PLP.Chemscore.Hbond>
4.6640

> <Gold.PLP.Chemscore.CHOScore>
0.7661

> <Gold.PLP.Chemscore.Metal>
0.0000

> <Gold.Chemscore.Hbonds>
donor molecule, donor type, donor heavy atom, donor atom, acceptor molecule, acceptor atom, score
      L1  H    14    28       P1  7949  1.00
      L1  H    17    29       P1  8028  0.68
      P1  H  7997  8008       L1     7  0.14
      P1  H 10752 10763       L1    14  1.00
      L1  C     4    23       P1  7948  0.32

> <Gold.PLP.Chemscore.Internal.Correction>
0.0223

> <Gold.Rescore>
     Score         DG    S(hbond)    S(metal)    S(lipo)     H(rot)  DE(clash)    DE(int)     intcor
      8.20      -9.51       3.70        0.00      17.72       4.06       0.08       1.23       ----

> <Gold.Chemscore.Fitness>
8.1962

> <Gold.Chemscore.DG>
-9.5066

> <Gold.Chemscore.ZeroCoef>
-5.4800

> <Gold.Chemscore.Hbond>
3.6968

> <Gold.Chemscore.Metal>
0.0000

> <Gold.Chemscore.Lipo>
17.7174

> <Gold.Chemscore.Internal_Hbond>
0.0000

> <Gold.Chemscore.DEClash>
0.0767

> <Gold.Chemscore.DEInternal>
1.2337

> <Gold.Chemscore.Rot>
4.0600

> <Gold.Chemscore.Internal.Correction>
   9.000000E+99

> <Gold.Chemscore.Hbonds>
donor molecule, donor type, donor heavy atom, donor atom, acceptor molecule, acceptor atom, score
      L1  H    14    28       P1  7949  0.93
      L1  H    17    29       P1  8028  0.67
      P1  H  7997  8008       L1     7  0.09
      P1  H 10752 10763       L1    14  0.06

> <Gold.Chemscore.Hbond.Weighted>
-12.3473

> <Gold.Chemscore.Metal.Weighted>
-0.0000

> <Gold.Chemscore.Lipo.Weighted>
-2.0729

> <Gold.Chemscore.Internal_Hbond.Weighted>
0.0000

> <Gold.Chemscore.DEClash.Weighted>
0.0767

> <Gold.Chemscore.DEInternal.Weighted>
1.2337

> <Gold.Chemscore.Rot.Weighted>
10.3936

> <Gold.Chemscore.Internal.Correction.Weighted>
   9.000000E+99

> <Gold.Protein.RotatedTorsions>
[ 6907 6896 6895 6894 ] final -177.42 input  -60.11 | X-H torsion
[ 7974 7965 7964 7962 ] final -143.07 input  175.53 | X-H torsion
[ 8008 7997 7996 7995 ] final    6.22 input   59.86 | X-H torsion
[ 10167 10162 10161 10158 ] final  154.34 input  -65.29 | X-H torsion
[ 10718 10713 10712 10709 ] final  -16.82 input   66.30 | X-H torsion
[ 10763 10752 10751 10750 ] final   -6.45 input  -60.55 | X-H torsion
[ 11005 11000 10999 10996 ] final  179.71 input  -57.11 | X-H torsion

> <Gold.Protein.ActiveResidues>
 VAL166  LYS551  ARG553  GLY616  TRP617  ASP618  TYR619  PRO620  LYS621  CYS622 
 ASP623  PHE694  ASN695  SER759  ASP760  ASP761  ALA762  ILE779  LEU786  VAL792 
 PHE793  MET794  SER795  GLU796  ALA797  LYS798  CYS799  TRP800  GLU811  SER814 

> <Gold.Protein.RotatedAtoms>
  151.6207  133.3339  159.3087 H   0  0  0  0  0  0  0  0  0  0  0  0  # atno 6907 bound_to 6896
  150.8107  134.7264  159.6697 H   0  0  0  0  0  0  0  0  0  0  0  0  # atno 6908 bound_to 6896
  152.4204  134.5971  160.0041 H   0  0  0  0  0  0  0  0  0  0  0  0  # atno 6909 bound_to 6896
  144.8397  140.5880  143.5461 H   0  0  0  0  0  0  0  0  0  0  0  0  # atno 7974 bound_to 7965
  154.7383  140.2744  155.6395 H   0  0  0  0  0  0  0  0  0  0  0  0  # atno 8008 bound_to 7997
  156.2867  140.2702  156.2029 H   0  0  0  0  0  0  0  0  0  0  0  0  # atno 8009 bound_to 7997
  155.0291  140.0371  157.2457 H   0  0  0  0  0  0  0  0  0  0  0  0  # atno 8010 bound_to 7997
  139.4823  144.5195  151.7898 H   0  0  0  0  0  0  0  0  0  0  0  0  # atno 10167 bound_to 10162
  156.5822  130.4777  149.6315 H   0  0  0  0  0  0  0  0  0  0  0  0  # atno 10718 bound_to 10713
  153.4125  135.7008  153.6349 H   0  0  0  0  0  0  0  0  0  0  0  0  # atno 10763 bound_to 10752
  153.4837  135.3688  155.2456 H   0  0  0  0  0  0  0  0  0  0  0  0  # atno 10764 bound_to 10752
  154.8718  135.4072  154.3479 H   0  0  0  0  0  0  0  0  0  0  0  0  # atno 10765 bound_to 10752
  140.4092  134.6707  157.4605 H   0  0  0  0  0  0  0  0  0  0  0  0  # atno 11005 bound_to 11000
  145.4721  139.1502  143.3808 LP  0  0  0  0  0  0  0  0  0  0  0  0  # atno 17320 bound_to 7965
  146.2691  140.4854  142.8822 LP  0  0  0  0  0  0  0  0  0  0  0  0  # atno 17321 bound_to 7965
  140.4708  144.1590  150.5918 LP  0  0  0  0  0  0  0  0  0  0  0  0  # atno 17342 bound_to 10162
  140.4385  143.2537  151.9504 LP  0  0  0  0  0  0  0  0  0  0  0  0  # atno 17343 bound_to 10162
  156.2621  130.6968  151.1740 LP  0  0  0  0  0  0  0  0  0  0  0  0  # atno 17370 bound_to 10713
  157.7324  131.0600  150.5632 LP  0  0  0  0  0  0  0  0  0  0  0  0  # atno 17371 bound_to 10713
  140.0280  134.6449  155.9146 LP  0  0  0  0  0  0  0  0  0  0  0  0  # atno 17394 bound_to 11000
  141.1827  133.6549  156.5089 LP  0  0  0  0  0  0  0  0  0  0  0  0  # atno 17395 bound_to 11000

$$$$
