AV-unprocessed.smi:51|AV-procd|sdf|499|dock10
  -GOLD-   2262016373D 1   1.00000     0.00000
 Structure written by MMmdl.
 25 26  0  0  0  0  0  0  0  0  2 V2000
  152.9362  136.7664  156.1007 O   0  0  0  0  0  0  0  0  0  0  0  0
  152.7153  137.9617  155.8082 C   0  0  0  0  0  0  0  0  0  0  0  0
  153.5609  138.7641  155.3524 O   0  5  0  0  0  0  0  0  0  0  0  0
  151.2900  138.4792  156.0421 C   0  0  2  0  0  0  0  0  0  0  0  0
  150.2335  137.7475  155.1909 C   0  0  0  0  0  0  0  0  0  0  0  0
  149.9425  138.7248  154.0539 C   0  0  1  0  0  0  0  0  0  0  0  0
  148.6552  138.5468  153.5010 O   0  0  0  0  0  0  0  0  0  0  0  0
  150.1020  140.0784  154.7416 C   0  0  0  0  0  0  0  0  0  0  0  0
  151.2114  139.8915  155.6665 N   0  0  0  0  0  0  0  0  0  0  0  0
  151.2880  140.8109  156.7219 C   0  0  0  0  0  0  0  0  0  0  0  0
  151.8631  140.4182  157.9483 C   0  0  0  0  0  0  0  0  0  0  0  0
  151.9032  141.3931  158.9649 C   0  0  0  0  0  0  0  0  0  0  0  0
  151.4212  142.6404  158.7746 N   0  0  0  0  0  0  0  0  0  0  0  0
  150.8997  142.9045  157.5738 C   0  0  0  0  0  0  0  0  0  0  0  0
  150.8079  142.0649  156.5399 N   0  0  0  0  0  0  0  0  0  0  0  0
  151.0519  138.3396  157.0979 H   0  0  0  0  0  0  0  0  0  0  0  0
  150.5535  136.7683  154.8314 H   0  0  0  0  0  0  0  0  0  0  0  0
  149.3371  137.5959  155.7943 H   0  0  0  0  0  0  0  0  0  0  0  0
  150.6939  138.6153  153.2704 H   0  0  0  0  0  0  0  0  0  0  0  0
  148.6312  137.7072  153.0683 H   0  0  0  0  0  0  0  0  0  0  0  0
  150.3166  140.8706  154.0238 H   0  0  0  0  0  0  0  0  0  0  0  0
  149.1910  140.3472  155.2794 H   0  0  0  0  0  0  0  0  0  0  0  0
  152.2471  139.4205  158.1033 H   0  0  0  0  0  0  0  0  0  0  0  0
  152.3251  141.1715  159.9339 H   0  0  0  0  0  0  0  0  0  0  0  0
  150.5150  143.9020  157.4221 H   0  0  0  0  0  0  0  0  0  0  0  0
  1  2  2  0  0  0  0
  2  3  1  0  0  0  0
  2  4  1  0  0  0  0
  4  9  1  0  0  0  0
  4  5  1  0  0  0  0
  4 16  1  0  0  0  0
  5  6  1  0  0  0  0
  5 17  1  0  0  0  0
  5 18  1  0  0  0  0
  6  7  1  0  0  0  0
  6  8  1  0  0  0  0
  6 19  1  0  0  0  0
  7 20  1  0  0  0  0
  8  9  1  0  0  0  0
  8 21  1  0  0  0  0
  8 22  1  0  0  0  0
  9 10  1  0  0  0  0
 10 15  1  0  0  0  0
 10 11  2  0  0  0  0
 11 12  1  0  0  0  0
 11 23  1  0  0  0  0
 12 13  2  0  0  0  0
 12 24  1  0  0  0  0
 13 14  1  0  0  0  0
 14 15  2  0  0  0  0
 14 25  1  0  0  0  0
M  CHG  1   3  -1
M  END
> <s_m_source_file>
AV-unprocessed.smi

> <i_m_source_file_index>
51

> <i_lp_mmshare_version>
43012

> <i_f3d_flags>
0

> <s_epik_input>
Tz1DKFtPSF0pW0NAQEhdMVtDSDJdW0NAQEhdKFtPSF0pW0NIMl1OMWMyW2NIXVtjSF1uW2NIXW4y

> <s_epik_cmdline>
J2VwaWtfcHl0aG9uJywgJy1waCcsICc3LjAnLCAnLXRuJywgJzgnLCAnLW1hJywgJzIwMCcsICctbWV0YWxfYmluZGluZycsICctaW1hZScsICc8aW5maWxlLm1hZT4nLCAnLW9tYWUnLCAnPG91dGZpbGUubWFlPic=

> <r_lp_tautomer_probability>
1

> <r_epik_Ionization_Penalty>
0.225251

> <r_epik_Ionization_Penalty_Charging>
0.000248217

> <r_epik_Ionization_Penalty_Neutral>
0.225002

> <r_epik_State_Penalty>
0.21284

> <r_epik_Charging_Adjusted_Penalty>
0.213088

> <i_epik_Tot_Q>
-1

> <i_epik_Tot_abs_Q>
1

> <r_epik_Metal_State_Penalty>
0.154111

> <b_epik_Metal_Only>
0

> <s_lp_Force_Field>
OPLS_2005

> <r_lp_Energy>
17.878

> <b_lp_Chiralities_Consistent>
1

> <s_lp_Variant>
AV-unprocessed.smi:51-1

> <Gold.Version>
5.8.1

> <Gold.Id.Protein>
6NUR|6NUR_protein|mol2

> <Gold.PLP.Fitness>
38.1965

> <Gold.PLP.PLP>
-22.4377

> <Gold.PLP.part.hbond>
-4.0000

> <Gold.PLP.part.metal>
0.0000

> <Gold.PLP.part.buried>
-3.3958

> <Gold.PLP.part.nonpolar>
-15.6564

> <Gold.PLP.part.repulsive>
0.1146

> <Gold.PLP.ligand.clash>
0.0000

> <Gold.PLP.ligand.torsion>
0.6765

> <Gold.PLP.Chemscore.Hbond>
4.6960

> <Gold.PLP.Chemscore.CHOScore>
0.9748

> <Gold.PLP.Chemscore.Metal>
0.0000

> <Gold.Chemscore.Hbonds>
donor molecule, donor type, donor heavy atom, donor atom, acceptor molecule, acceptor atom, score
      L1  H     7    20       P1  7948  1.00
      P1  H  7997  8009       L1     3  1.76
      P1  H 10752 10765       L1     1  1.60
      L1  C    14    25       P1  8028  1.00

> <Gold.PLP.Chemscore.Internal.Correction>
0.0992

> <Gold.Rescore>
     Score         DG    S(hbond)    S(metal)    S(lipo)     H(rot)  DE(clash)    DE(int)     intcor
     12.78     -13.42       2.81        0.00      36.49       2.23       0.01       0.63       ----

> <Gold.Chemscore.Fitness>
12.7788

> <Gold.Chemscore.DG>
-13.4207

> <Gold.Chemscore.ZeroCoef>
-5.4800

> <Gold.Chemscore.Hbond>
2.8074

> <Gold.Chemscore.Metal>
0.0000

> <Gold.Chemscore.Lipo>
36.4879

> <Gold.Chemscore.Internal_Hbond>
0.0000

> <Gold.Chemscore.DEClash>
0.0098

> <Gold.Chemscore.DEInternal>
0.6322

> <Gold.Chemscore.Rot>
2.2285

> <Gold.Chemscore.Internal.Correction>
   9.000000E+99

> <Gold.Chemscore.Hbonds>
donor molecule, donor type, donor heavy atom, donor atom, acceptor molecule, acceptor atom, score
      L1  H     7    20       P1  7948  0.99
      P1  H  7997  8009       L1     3  0.87
      P1  H 10752 10765       L1     1  0.79

> <Gold.Chemscore.Hbond.Weighted>
-9.3766

> <Gold.Chemscore.Metal.Weighted>
-0.0000

> <Gold.Chemscore.Lipo.Weighted>
-4.2691

> <Gold.Chemscore.Internal_Hbond.Weighted>
0.0000

> <Gold.Chemscore.DEClash.Weighted>
0.0098

> <Gold.Chemscore.DEInternal.Weighted>
0.6322

> <Gold.Chemscore.Rot.Weighted>
5.7050

> <Gold.Chemscore.Internal.Correction.Weighted>
   9.000000E+99

> <Gold.Protein.RotatedTorsions>
[ 6907 6896 6895 6894 ] final   33.86 input  -60.11 | X-H torsion
[ 7974 7965 7964 7962 ] final  144.40 input  175.53 | X-H torsion
[ 8008 7997 7996 7995 ] final -148.85 input   59.86 | X-H torsion
[ 10167 10162 10161 10158 ] final   47.93 input  -65.29 | X-H torsion
[ 10718 10713 10712 10709 ] final   92.19 input   66.30 | X-H torsion
[ 10763 10752 10751 10750 ] final -134.54 input  -60.55 | X-H torsion
[ 11005 11000 10999 10996 ] final -165.68 input  -57.11 | X-H torsion

> <Gold.Protein.ActiveResidues>
 VAL166  LYS551  ARG553  GLY616  TRP617  ASP618  TYR619  PRO620  LYS621  CYS622 
 ASP623  PHE694  ASN695  SER759  ASP760  ASP761  ALA762  ILE779  LEU786  VAL792 
 PHE793  MET794  SER795  GLU796  ALA797  LYS798  CYS799  TRP800  GLU811  SER814 

> <Gold.Protein.RotatedAtoms>
  152.0944  134.9385  160.0570 H   0  0  0  0  0  0  0  0  0  0  0  0  # atno 6907 bound_to 6896
  152.0623  133.4063  159.4431 H   0  0  0  0  0  0  0  0  0  0  0  0  # atno 6908 bound_to 6896
  150.6837  134.3106  159.4788 H   0  0  0  0  0  0  0  0  0  0  0  0  # atno 6909 bound_to 6896
  144.8839  139.5658  143.5830 H   0  0  0  0  0  0  0  0  0  0  0  0  # atno 7974 bound_to 7965
  155.5981  140.0659  157.2740 H   0  0  0  0  0  0  0  0  0  0  0  0  # atno 8008 bound_to 7997
  154.4286  140.1823  156.1192 H   0  0  0  0  0  0  0  0  0  0  0  0  # atno 8009 bound_to 7997
  156.0180  140.3320  155.7013 H   0  0  0  0  0  0  0  0  0  0  0  0  # atno 8010 bound_to 7997
  140.2985  144.2962  150.6224 H   0  0  0  0  0  0  0  0  0  0  0  0  # atno 10167 bound_to 10162
  157.6959  131.0434  150.3844 H   0  0  0  0  0  0  0  0  0  0  0  0  # atno 10718 bound_to 10713
  154.8717  135.3731  154.4752 H   0  0  0  0  0  0  0  0  0  0  0  0  # atno 10763 bound_to 10752
  153.5410  135.7026  153.5642 H   0  0  0  0  0  0  0  0  0  0  0  0  # atno 10764 bound_to 10752
  153.3804  135.3998  155.1817 H   0  0  0  0  0  0  0  0  0  0  0  0  # atno 10765 bound_to 10752
  140.5730  134.5219  157.5165 H   0  0  0  0  0  0  0  0  0  0  0  0  # atno 11005 bound_to 11000
  146.3012  139.7432  142.9090 LP  0  0  0  0  0  0  0  0  0  0  0  0  # atno 17320 bound_to 7965
  145.3905  141.0371  143.3127 LP  0  0  0  0  0  0  0  0  0  0  0  0  # atno 17321 bound_to 7965
  140.5671  143.2185  151.7664 LP  0  0  0  0  0  0  0  0  0  0  0  0  # atno 17342 bound_to 10162
  139.4920  144.4268  151.9916 LP  0  0  0  0  0  0  0  0  0  0  0  0  # atno 17343 bound_to 10162
  156.4254  130.3961  149.6796 LP  0  0  0  0  0  0  0  0  0  0  0  0  # atno 17370 bound_to 10713
  156.4032  130.7685  151.2694 LP  0  0  0  0  0  0  0  0  0  0  0  0  # atno 17371 bound_to 10713
  139.9353  134.7887  156.0820 LP  0  0  0  0  0  0  0  0  0  0  0  0  # atno 17394 bound_to 11000
  141.1044  133.6665  156.2830 LP  0  0  0  0  0  0  0  0  0  0  0  0  # atno 17395 bound_to 11000

$$$$
