AV-unprocessed.smi:21|AV-procd|sdf|137|dock9
  -GOLD-   2262015333D 1   1.00000     0.00000
 Structure written by MMmdl.
 62 65  0  0  0  0  0  0  0  0  2 V2000
  143.8197  132.7010  148.4925 C   0  0  0  0  0  0  0  0  0  0  0  0
  143.9708  133.3231  149.7581 O   0  0  0  0  0  0  0  0  0  0  0  0
  145.2480  133.1178  150.3438 C   0  0  1  0  0  0  0  0  0  0  0  0
  145.4730  133.9474  151.6036 C   0  0  0  0  0  0  0  0  0  0  0  0
  146.5591  133.1715  152.3630 C   0  0  1  0  0  0  0  0  0  0  0  0
  146.5567  133.4303  153.8900 C   0  0  0  0  0  0  0  0  0  0  0  0
  147.8937  133.3146  154.4799 N   0  0  0  0  0  0  0  0  0  0  0  0
  148.6901  132.1421  154.1387 C   0  0  0  0  0  0  0  0  0  0  0  0
  148.4759  134.3794  155.1053 C   0  0  0  0  0  0  0  0  0  0  0  0
  149.7987  134.3001  155.4112 N   0  0  0  0  0  0  0  0  0  0  0  0
  150.4249  135.3058  156.0258 C   0  0  0  0  0  0  0  0  0  0  0  0
  149.9269  136.4758  156.4209 N   0  0  0  0  0  0  0  0  0  0  0  0
  148.6028  136.5789  156.1179 C   0  0  0  0  0  0  0  0  0  0  0  0
  147.8039  135.5876  155.4736 C   0  0  0  0  0  0  0  0  0  0  0  0
  146.4971  136.0531  155.3661 N   0  0  0  0  0  0  0  0  0  0  0  0
  146.5256  137.2423  155.8998 C   0  0  0  0  0  0  0  0  0  0  0  0
  147.7561  137.6477  156.3617 N   0  0  0  0  0  0  0  0  0  0  0  0
  148.0660  138.9234  156.9928 C   0  0  0  0  0  0  0  0  0  0  0  0
  148.8602  139.9103  156.0919 C   0  0  2  0  0  0  0  0  0  0  0  0
  149.9268  139.1955  155.2281 C   0  0  0  0  0  0  0  0  0  0  0  0
  150.0919  139.8439  153.9840 O   0  0  0  0  0  0  0  0  0  0  0  0
  149.4833  141.0753  156.9046 C   0  0  2  0  0  0  0  0  0  0  0  0
  150.4102  141.9791  156.1077 C   0  0  0  0  0  0  0  0  0  0  0  0
  151.1820  142.6998  157.2067 C   0  0  0  0  0  0  0  0  0  0  0  0
  151.2834  141.7670  158.2765 O   0  0  0  0  0  0  0  0  0  0  0  0
  150.4374  140.6494  158.0263 C   0  0  0  0  0  0  0  0  0  0  0  0
  146.4034  131.7470  151.9422 N   0  3  1  0  0  0  0  0  0  0  0  0
  146.2062  130.7295  153.0017 C   0  0  0  0  0  0  0  0  0  0  0  0
  145.3689  131.6950  150.8841 C   0  0  0  0  0  0  0  0  0  0  0  0
  146.0452  133.2997  149.6204 H   0  0  0  0  0  0  0  0  0  0  0  0
  147.5276  133.4786  151.9655 H   0  0  0  0  0  0  0  0  0  0  0  0
  142.8065  132.8658  148.1256 H   0  0  0  0  0  0  0  0  0  0  0  0
  143.9814  131.6246  148.5589 H   0  0  0  0  0  0  0  0  0  0  0  0
  144.5103  133.1144  147.7570 H   0  0  0  0  0  0  0  0  0  0  0  0
  145.7636  134.9767  151.3902 H   0  0  0  0  0  0  0  0  0  0  0  0
  144.5516  133.9729  152.1870 H   0  0  0  0  0  0  0  0  0  0  0  0
  146.0951  134.3907  154.1172 H   0  0  0  0  0  0  0  0  0  0  0  0
  145.9309  132.6873  154.3845 H   0  0  0  0  0  0  0  0  0  0  0  0
  149.3906  132.3715  153.3355 H   0  0  0  0  0  0  0  0  0  0  0  0
  148.0538  131.3236  153.8017 H   0  0  0  0  0  0  0  0  0  0  0  0
  149.2480  131.7859  155.0053 H   0  0  0  0  0  0  0  0  0  0  0  0
  151.4744  135.1513  156.2290 H   0  0  0  0  0  0  0  0  0  0  0  0
  145.6441  137.8638  155.9644 H   0  0  0  0  0  0  0  0  0  0  0  0
  147.1233  139.3814  157.2943 H   0  0  0  0  0  0  0  0  0  0  0  0
  148.6001  138.7296  157.9227 H   0  0  0  0  0  0  0  0  0  0  0  0
  148.1406  140.3547  155.4024 H   0  0  0  0  0  0  0  0  0  0  0  0
  150.8980  139.2071  155.7215 H   0  0  0  0  0  0  0  0  0  0  0  0
  149.6723  138.1481  155.0653 H   0  0  0  0  0  0  0  0  0  0  0  0
  150.1268  139.1870  153.3052 H   0  0  0  0  0  0  0  0  0  0  0  0
  148.6916  141.6807  157.3481 H   0  0  0  0  0  0  0  0  0  0  0  0
  151.0952  141.3829  155.5029 H   0  0  0  0  0  0  0  0  0  0  0  0
  149.8931  142.6714  155.4448 H   0  0  0  0  0  0  0  0  0  0  0  0
  152.1638  143.0372  156.8743 H   0  0  0  0  0  0  0  0  0  0  0  0
  150.6235  143.5695  157.5553 H   0  0  0  0  0  0  0  0  0  0  0  0
  149.9119  140.3507  158.9333 H   0  0  0  0  0  0  0  0  0  0  0  0
  151.0616  139.8139  157.7062 H   0  0  0  0  0  0  0  0  0  0  0  0
  145.2976  130.9178  153.5748 H   0  0  0  0  0  0  0  0  0  0  0  0
  147.0553  130.7017  153.6845 H   0  0  0  0  0  0  0  0  0  0  0  0
  146.1199  129.7383  152.5548 H   0  0  0  0  0  0  0  0  0  0  0  0
  144.4155  131.3942  151.3230 H   0  0  0  0  0  0  0  0  0  0  0  0
  145.6209  130.9717  150.1082 H   0  0  0  0  0  0  0  0  0  0  0  0
  147.2748  131.5102  151.4894 H   0  0  0  0  0  0  0  0  0  0  0  0
  1  2  1  0  0  0  0
  1 32  1  0  0  0  0
  1 33  1  0  0  0  0
  1 34  1  0  0  0  0
  2  3  1  0  0  0  0
  3 30  1  0  0  0  0
  3 29  1  0  0  0  0
  3  4  1  0  0  0  0
  4  5  1  0  0  0  0
  4 35  1  0  0  0  0
  4 36  1  0  0  0  0
  5 31  1  0  0  0  0
  5  6  1  0  0  0  0
  5 27  1  0  0  0  0
  6  7  1  0  0  0  0
  6 37  1  0  0  0  0
  6 38  1  0  0  0  0
  7  8  1  0  0  0  0
  7  9  1  0  0  0  0
  8 39  1  0  0  0  0
  8 40  1  0  0  0  0
  8 41  1  0  0  0  0
  9 14  1  0  0  0  0
  9 10  2  0  0  0  0
 10 11  1  0  0  0  0
 11 12  2  0  0  0  0
 11 42  1  0  0  0  0
 12 13  1  0  0  0  0
 13 17  1  0  0  0  0
 13 14  2  0  0  0  0
 14 15  1  0  0  0  0
 15 16  2  0  0  0  0
 16 17  1  0  0  0  0
 16 43  1  0  0  0  0
 17 18  1  0  0  0  0
 18 19  1  0  0  0  0
 18 44  1  0  0  0  0
 18 45  1  0  0  0  0
 19 20  1  0  0  0  0
 19 22  1  0  0  0  0
 19 46  1  0  0  0  0
 20 21  1  0  0  0  0
 20 47  1  0  0  0  0
 20 48  1  0  0  0  0
 21 49  1  0  0  0  0
 22 26  1  0  0  0  0
 22 23  1  0  0  0  0
 22 50  1  0  0  0  0
 23 24  1  0  0  0  0
 23 51  1  0  0  0  0
 23 52  1  0  0  0  0
 24 25  1  0  0  0  0
 24 53  1  0  0  0  0
 24 54  1  0  0  0  0
 25 26  1  0  0  0  0
 26 55  1  0  0  0  0
 26 56  1  0  0  0  0
 27 28  1  0  0  0  0
 27 29  1  0  0  0  0
 27 62  1  0  0  0  0
 28 57  1  0  0  0  0
 28 58  1  0  0  0  0
 28 59  1  0  0  0  0
 29 60  1  0  0  0  0
 29 61  1  0  0  0  0
M  CHG  1  27   1
M  END
> <s_m_source_file>
AV-unprocessed.smi

> <i_m_source_file_index>
21

> <i_lp_mmshare_version>
43012

> <i_f3d_flags>
0

> <s_epik_input>
W0NIM11PW0NASF0xW0NIMl1bQ0BIXShOKFtDSDNdKVtDSDJdMSlbQ0gyXU4oW0NIM10pYyhuW2NIXW4yKWMoYzIzKW5bY0hdbjNbQ0gyXVtDQEhdKFtDSDJdW09IXSlbQ0BASF00W0NIMl1bQ0gyXU9bQ0gyXTQ=

> <s_epik_cmdline>
J2VwaWtfcHl0aG9uJywgJy1waCcsICc3LjAnLCAnLXRuJywgJzgnLCAnLW1hJywgJzIwMCcsICctbWV0YWxfYmluZGluZycsICctaW1hZScsICc8aW5maWxlLm1hZT4nLCAnLW9tYWUnLCAnPG91dGZpbGUubWFlPic=

> <r_lp_tautomer_probability>
1

> <r_epik_Ionization_Penalty>
0.0157465

> <r_epik_Ionization_Penalty_Charging>
0.015354

> <r_epik_Ionization_Penalty_Neutral>
0.000392529

> <r_epik_State_Penalty>
0.0120612

> <r_epik_Charging_Adjusted_Penalty>
0.0274152

> <i_epik_Tot_Q>
1

> <i_epik_Tot_abs_Q>
1

> <r_epik_Metal_State_Penalty>
0.0121253

> <b_epik_Metal_Only>
0

> <s_lp_Force_Field>
OPLS_2005

> <r_lp_Energy>
60.1072

> <b_lp_Chiralities_Consistent>
1

> <s_lp_Variant>
AV-unprocessed.smi:21-17

> <Gold.Version>
5.8.1

> <Gold.Id.Protein>
6NUR|6NUR_protein|mol2

> <Gold.PLP.Fitness>
44.9715

> <Gold.PLP.PLP>
-40.7162

> <Gold.PLP.part.hbond>
-3.0000

> <Gold.PLP.part.metal>
0.0000

> <Gold.PLP.part.buried>
-6.0007

> <Gold.PLP.part.nonpolar>
-30.9072

> <Gold.PLP.part.repulsive>
0.4549

> <Gold.PLP.ligand.clash>
0.0000

> <Gold.PLP.ligand.torsion>
1.3090

> <Gold.PLP.Chemscore.Hbond>
2.1488

> <Gold.PLP.Chemscore.CHOScore>
0.0000

> <Gold.PLP.Chemscore.Metal>
0.0000

> <Gold.Chemscore.Hbonds>
donor molecule, donor type, donor heavy atom, donor atom, acceptor molecule, acceptor atom, score
      L1  H    21    49       P1  7957  0.05
      L1  H    27    62       P1 10747  0.60
      P1  H  7989  7998       L1    21  0.93

> <Gold.PLP.Chemscore.Internal.Correction>
0.4268

> <Gold.Rescore>
     Score         DG    S(hbond)    S(metal)    S(lipo)     H(rot)  DE(clash)    DE(int)     intcor
     11.50     -15.38       1.96        0.00      95.82       3.08       0.12       3.76       ----

> <Gold.Chemscore.Fitness>
11.4976

> <Gold.Chemscore.DG>
-15.3779

> <Gold.Chemscore.ZeroCoef>
-5.4800

> <Gold.Chemscore.Hbond>
1.9643

> <Gold.Chemscore.Metal>
0.0000

> <Gold.Chemscore.Lipo>
95.8236

> <Gold.Chemscore.Internal_Hbond>
0.0000

> <Gold.Chemscore.DEClash>
0.1194

> <Gold.Chemscore.DEInternal>
3.7609

> <Gold.Chemscore.Rot>
3.0758

> <Gold.Chemscore.Internal.Correction>
   9.000000E+99

> <Gold.Chemscore.Hbonds>
donor molecule, donor type, donor heavy atom, donor atom, acceptor molecule, acceptor atom, score
      L1  H    21    49       P1  7957  0.05
      L1  H    27    62       P1 10747  0.60
      P1  H  7989  7998       L1    21  0.20

> <Gold.Chemscore.Hbond.Weighted>
-6.5607

> <Gold.Chemscore.Metal.Weighted>
-0.0000

> <Gold.Chemscore.Lipo.Weighted>
-11.2114

> <Gold.Chemscore.Internal_Hbond.Weighted>
0.0000

> <Gold.Chemscore.DEClash.Weighted>
0.1194

> <Gold.Chemscore.DEInternal.Weighted>
3.7609

> <Gold.Chemscore.Rot.Weighted>
7.8741

> <Gold.Chemscore.Internal.Correction.Weighted>
   9.000000E+99

> <Gold.Protein.RotatedTorsions>
[ 6907 6896 6895 6894 ] final   41.94 input  -60.11 | X-H torsion
[ 7974 7965 7964 7962 ] final   76.17 input  175.53 | X-H torsion
[ 8008 7997 7996 7995 ] final -137.06 input   59.86 | X-H torsion
[ 10167 10162 10161 10158 ] final -172.24 input  -65.29 | X-H torsion
[ 10718 10713 10712 10709 ] final  -22.77 input   66.30 | X-H torsion
[ 10763 10752 10751 10750 ] final -164.00 input  -60.55 | X-H torsion
[ 11005 11000 10999 10996 ] final -149.90 input  -57.11 | X-H torsion

> <Gold.Protein.ActiveResidues>
 VAL166  LYS551  ARG553  GLY616  TRP617  ASP618  TYR619  PRO620  LYS621  CYS622 
 ASP623  PHE694  ASN695  SER759  ASP760  ASP761  ALA762  ILE779  LEU786  VAL792 
 PHE793  MET794  SER795  GLU796  ALA797  LYS798  CYS799  TRP800  GLU811  SER814 

> <Gold.Protein.RotatedAtoms>
  152.2016  134.8583  160.0507 H   0  0  0  0  0  0  0  0  0  0  0  0  # atno 6907 bound_to 6896
  151.9434  133.3639  159.3981 H   0  0  0  0  0  0  0  0  0  0  0  0  # atno 6908 bound_to 6896
  150.6956  134.4339  159.5305 H   0  0  0  0  0  0  0  0  0  0  0  0  # atno 6909 bound_to 6896
  145.7062  139.2599  143.1677 H   0  0  0  0  0  0  0  0  0  0  0  0  # atno 7974 bound_to 7965
  155.4056  140.0509  157.3034 H   0  0  0  0  0  0  0  0  0  0  0  0  # atno 8008 bound_to 7997
  154.4970  140.2142  155.9386 H   0  0  0  0  0  0  0  0  0  0  0  0  # atno 8009 bound_to 7997
  156.1418  140.3153  155.8513 H   0  0  0  0  0  0  0  0  0  0  0  0  # atno 8010 bound_to 7997
  139.5756  144.1541  152.1445 H   0  0  0  0  0  0  0  0  0  0  0  0  # atno 10167 bound_to 10162
  156.5001  130.4586  149.6706 H   0  0  0  0  0  0  0  0  0  0  0  0  # atno 10718 bound_to 10713
  154.7070  135.2999  154.9256 H   0  0  0  0  0  0  0  0  0  0  0  0  # atno 10763 bound_to 10752
  154.0170  135.6687  153.4773 H   0  0  0  0  0  0  0  0  0  0  0  0  # atno 10764 bound_to 10752
  153.0725  135.5053  154.8246 H   0  0  0  0  0  0  0  0  0  0  0  0  # atno 10765 bound_to 10752
  140.7458  134.3462  157.5137 H   0  0  0  0  0  0  0  0  0  0  0  0  # atno 11005 bound_to 11000
  146.0753  140.7824  142.9668 LP  0  0  0  0  0  0  0  0  0  0  0  0  # atno 17320 bound_to 7965
  144.6954  140.3406  143.7200 LP  0  0  0  0  0  0  0  0  0  0  0  0  # atno 17321 bound_to 7965
  140.1083  144.5479  150.6942 LP  0  0  0  0  0  0  0  0  0  0  0  0  # atno 17342 bound_to 10162
  140.7038  143.2453  151.4785 LP  0  0  0  0  0  0  0  0  0  0  0  0  # atno 17343 bound_to 10162
  156.3341  130.7347  151.2282 LP  0  0  0  0  0  0  0  0  0  0  0  0  # atno 17370 bound_to 10713
  157.7464  131.0421  150.4681 LP  0  0  0  0  0  0  0  0  0  0  0  0  # atno 17371 bound_to 10713
  139.8797  134.9110  156.3028 LP  0  0  0  0  0  0  0  0  0  0  0  0  # atno 17394 bound_to 11000
  140.9795  133.7276  156.0651 LP  0  0  0  0  0  0  0  0  0  0  0  0  # atno 17395 bound_to 11000

$$$$
