AV-unprocessed.smi:2721|AV-procd|sdf|10500|dock10
  -GOLD-   2272014543D 1   1.00000     0.00000
 Structure written by MMmdl.
 29 30  0  0  0  0  0  0  0  0  2 V2000
  148.6068  141.1661  154.1157 C   0  0  0  0  0  0  0  0  0  0  0  0
  149.6082  141.1146  155.1593 N   0  0  0  0  0  0  0  0  0  0  0  0
  149.6034  141.7382  156.3882 C   0  0  0  0  0  0  0  0  0  0  0  0
  150.7624  141.3954  157.0273 C   0  0  0  0  0  0  0  0  0  0  0  0
  151.2362  141.7895  158.4019 C   0  0  1  0  0  0  0  0  0  0  0  0
  152.5026  141.1893  158.6687 O   0  0  0  0  0  0  0  0  0  0  0  0
  152.9906  141.4241  159.9853 C   0  0  0  0  0  0  0  0  0  0  0  0
  153.2179  142.9281  160.1915 C   0  0  0  0  0  0  0  0  0  0  0  0
  151.9228  143.6993  159.9207 C   0  0  0  0  0  0  0  0  0  0  0  0
  151.3684  143.3268  158.5371 C   0  0  2  0  0  0  0  0  0  0  0  0
  150.0787  144.0048  158.3053 N   0  3  0  0  0  0  0  0  0  0  0  0
  151.4156  140.5451  156.0897 C   0  0  0  0  0  0  0  0  0  0  0  0
  150.7233  140.3786  154.9755 N   0  0  0  0  0  0  0  0  0  0  0  0
  150.5283  141.4246  159.1487 H   0  0  0  0  0  0  0  0  0  0  0  0
  152.0636  143.6876  157.7773 H   0  0  0  0  0  0  0  0  0  0  0  0
  147.6941  141.6255  154.4959 H   0  0  0  0  0  0  0  0  0  0  0  0
  148.3770  140.1576  153.7699 H   0  0  0  0  0  0  0  0  0  0  0  0
  148.9795  141.7560  153.2779 H   0  0  0  0  0  0  0  0  0  0  0  0
  148.7842  142.3671  156.7051 H   0  0  0  0  0  0  0  0  0  0  0  0
  152.2904  141.0287  160.7226 H   0  0  0  0  0  0  0  0  0  0  0  0
  153.9279  140.8826  160.1145 H   0  0  0  0  0  0  0  0  0  0  0  0
  153.5689  143.1221  161.2053 H   0  0  0  0  0  0  0  0  0  0  0  0
  154.0017  143.2747  159.5166 H   0  0  0  0  0  0  0  0  0  0  0  0
  151.1907  143.4596  160.6934 H   0  0  0  0  0  0  0  0  0  0  0  0
  152.1070  144.7724  159.9846 H   0  0  0  0  0  0  0  0  0  0  0  0
  150.1368  144.9623  158.6214 H   0  0  0  0  0  0  0  0  0  0  0  0
  149.3512  143.5255  158.8169 H   0  0  0  0  0  0  0  0  0  0  0  0
  152.3663  140.0425  156.1885 H   0  0  0  0  0  0  0  0  0  0  0  0
  149.8611  143.9886  157.3191 H   0  0  0  0  0  0  0  0  0  0  0  0
  1  2  1  0  0  0  0
  1 16  1  0  0  0  0
  1 17  1  0  0  0  0
  1 18  1  0  0  0  0
  2 13  1  0  0  0  0
  2  3  1  0  0  0  0
  3  4  2  0  0  0  0
  3 19  1  0  0  0  0
  4  5  1  0  0  0  0
  4 12  1  0  0  0  0
  5 14  1  0  0  0  0
  5 10  1  0  0  0  0
  5  6  1  0  0  0  0
  6  7  1  0  0  0  0
  7  8  1  0  0  0  0
  7 20  1  0  0  0  0
  7 21  1  0  0  0  0
  8  9  1  0  0  0  0
  8 22  1  0  0  0  0
  8 23  1  0  0  0  0
  9 10  1  0  0  0  0
  9 24  1  0  0  0  0
  9 25  1  0  0  0  0
 10 15  1  0  0  0  0
 10 11  1  0  0  0  0
 11 26  1  0  0  0  0
 11 27  1  0  0  0  0
 11 29  1  0  0  0  0
 12 13  2  0  0  0  0
 12 28  1  0  0  0  0
M  CHG  1  11   1
M  END
> <s_m_source_file>
AV-unprocessed.smi

> <i_m_source_file_index>
2721

> <i_lp_mmshare_version>
43012

> <i_f3d_flags>
0

> <s_epik_input>
W0NIM11uMVtjSF1jKFtjSF1uMSlbQ0BIXTJPW0NIMl1bQ0gyXVtDSDJdW0NAQEhdMltOSDJd

> <s_epik_cmdline>
J2VwaWtfcHl0aG9uJywgJy1waCcsICc3LjAnLCAnLXRuJywgJzgnLCAnLW1hJywgJzIwMCcsICctbWV0YWxfYmluZGluZycsICctaW1hZScsICc8aW5maWxlLm1hZT4nLCAnLW9tYWUnLCAnPG91dGZpbGUubWFlPic=

> <r_lp_tautomer_probability>
1

> <r_epik_Ionization_Penalty>
0.0061467

> <r_epik_Ionization_Penalty_Charging>
0.00611941

> <r_epik_Ionization_Penalty_Neutral>
2.72888e-05

> <r_epik_State_Penalty>
0.00451057

> <r_epik_Charging_Adjusted_Penalty>
0.01063

> <i_epik_Tot_Q>
1

> <i_epik_Tot_abs_Q>
1

> <r_epik_Metal_State_Penalty>
-0

> <b_epik_Metal_Only>
0

> <s_lp_Force_Field>
OPLS_2005

> <r_lp_Energy>
11.0235

> <b_lp_Chiralities_Consistent>
1

> <s_lp_Variant>
AV-unprocessed.smi:2721-1

> <Gold.Version>
5.8.1

> <Gold.Id.Protein>
6NUR|6NUR_protein|mol2

> <Gold.PLP.Fitness>
41.6517

> <Gold.PLP.PLP>
-30.5908

> <Gold.PLP.part.hbond>
-2.8164

> <Gold.PLP.part.metal>
0.0000

> <Gold.PLP.part.buried>
-3.1613

> <Gold.PLP.part.nonpolar>
-25.5800

> <Gold.PLP.part.repulsive>
0.1287

> <Gold.PLP.ligand.clash>
0.0000

> <Gold.PLP.ligand.torsion>
0.0023

> <Gold.PLP.Chemscore.Hbond>
3.0000

> <Gold.PLP.Chemscore.CHOScore>
0.6875

> <Gold.PLP.Chemscore.Metal>
0.0000

> <Gold.Chemscore.Hbonds>
donor molecule, donor type, donor heavy atom, donor atom, acceptor molecule, acceptor atom, score
      L1  H    11    29       P1  8028  1.98
      P1  H  7989  7998       L1    13  1.00
      L1  C     3    19       P1  8028  0.59

> <Gold.PLP.Chemscore.Internal.Correction>
0.0029

> <Gold.Rescore>
     Score         DG    S(hbond)    S(metal)    S(lipo)     H(rot)  DE(clash)    DE(int)     intcor
     17.12     -17.31       1.55        0.00      78.69       1.00       0.00       0.19       ----

> <Gold.Chemscore.Fitness>
17.1198

> <Gold.Chemscore.DG>
-17.3121

> <Gold.Chemscore.ZeroCoef>
-5.4800

> <Gold.Chemscore.Hbond>
1.5526

> <Gold.Chemscore.Metal>
0.0000

> <Gold.Chemscore.Lipo>
78.6866

> <Gold.Chemscore.Internal_Hbond>
0.0000

> <Gold.Chemscore.DEClash>
0.0015

> <Gold.Chemscore.DEInternal>
0.1908

> <Gold.Chemscore.Rot>
1.0000

> <Gold.Chemscore.Internal.Correction>
   9.000000E+99

> <Gold.Chemscore.Hbonds>
donor molecule, donor type, donor heavy atom, donor atom, acceptor molecule, acceptor atom, score
      L1  H    11    29       P1  8028  0.62
      P1  H  7989  7998       L1    13  0.69

> <Gold.Chemscore.Hbond.Weighted>
-5.1857

> <Gold.Chemscore.Metal.Weighted>
-0.0000

> <Gold.Chemscore.Lipo.Weighted>
-9.2063

> <Gold.Chemscore.Internal_Hbond.Weighted>
0.0000

> <Gold.Chemscore.DEClash.Weighted>
0.0015

> <Gold.Chemscore.DEInternal.Weighted>
0.1908

> <Gold.Chemscore.Rot.Weighted>
2.5600

> <Gold.Chemscore.Internal.Correction.Weighted>
   9.000000E+99

> <Gold.Protein.RotatedTorsions>
[ 6907 6896 6895 6894 ] final  104.76 input  -60.11 | X-H torsion
[ 7974 7965 7964 7962 ] final   31.57 input  175.53 | X-H torsion
[ 8008 7997 7996 7995 ] final  -46.70 input   59.86 | X-H torsion
[ 10167 10162 10161 10158 ] final  -95.64 input  -65.29 | X-H torsion
[ 10718 10713 10712 10709 ] final  142.39 input   66.30 | X-H torsion
[ 10763 10752 10751 10750 ] final   25.58 input  -60.55 | X-H torsion
[ 11005 11000 10999 10996 ] final  -76.36 input  -57.11 | X-H torsion

> <Gold.Protein.ActiveResidues>
 VAL166  LYS551  ARG553  GLY616  TRP617  ASP618  TYR619  PRO620  LYS621  CYS622 
 ASP623  PHE694  ASN695  SER759  ASP760  ASP761  ALA762  ILE779  LEU786  VAL792 
 PHE793  MET794  SER795  GLU796  ALA797  LYS798  CYS799  TRP800  GLU811  SER814 

> <Gold.Protein.RotatedAtoms>
  152.5253  133.9629  159.7725 H   0  0  0  0  0  0  0  0  0  0  0  0  # atno 6907 bound_to 6896
  150.9916  133.6136  159.2714 H   0  0  0  0  0  0  0  0  0  0  0  0  # atno 6908 bound_to 6896
  151.3277  135.0840  159.9381 H   0  0  0  0  0  0  0  0  0  0  0  0  # atno 6909 bound_to 6896
  146.1541  139.6639  142.9078 H   0  0  0  0  0  0  0  0  0  0  0  0  # atno 7974 bound_to 7965
  154.4009  140.1365  156.4055 H   0  0  0  0  0  0  0  0  0  0  0  0  # atno 8008 bound_to 7997
  155.7784  140.3482  155.5264 H   0  0  0  0  0  0  0  0  0  0  0  0  # atno 8009 bound_to 7997
  155.8698  140.0970  157.1548 H   0  0  0  0  0  0  0  0  0  0  0  0  # atno 8010 bound_to 7997
  140.3020  143.3156  152.0238 H   0  0  0  0  0  0  0  0  0  0  0  0  # atno 10167 bound_to 10162
  157.3810  131.0992  151.0738 H   0  0  0  0  0  0  0  0  0  0  0  0  # atno 10718 bound_to 10713
  153.0682  135.6580  154.0306 H   0  0  0  0  0  0  0  0  0  0  0  0  # atno 10763 bound_to 10752
  153.9958  135.2941  155.3409 H   0  0  0  0  0  0  0  0  0  0  0  0  # atno 10764 bound_to 10752
  154.7048  135.5230  153.8648 H   0  0  0  0  0  0  0  0  0  0  0  0  # atno 10765 bound_to 10752
  141.1653  133.6981  156.7657 H   0  0  0  0  0  0  0  0  0  0  0  0  # atno 11005 bound_to 11000
  145.4751  141.0437  143.2677 LP  0  0  0  0  0  0  0  0  0  0  0  0  # atno 17320 bound_to 7965
  144.7941  139.6269  143.7100 LP  0  0  0  0  0  0  0  0  0  0  0  0  # atno 17321 bound_to 7965
  139.4913  144.6448  151.6801 LP  0  0  0  0  0  0  0  0  0  0  0  0  # atno 17342 bound_to 10162
  140.5642  144.0217  150.6184 LP  0  0  0  0  0  0  0  0  0  0  0  0  # atno 17343 bound_to 10162
  157.1807  130.6308  149.5671 LP  0  0  0  0  0  0  0  0  0  0  0  0  # atno 17370 bound_to 10713
  155.9776  130.4754  150.6602 LP  0  0  0  0  0  0  0  0  0  0  0  0  # atno 17371 bound_to 10713
  140.2501  134.8547  157.3659 LP  0  0  0  0  0  0  0  0  0  0  0  0  # atno 17394 bound_to 11000
  140.1711  134.4608  155.7831 LP  0  0  0  0  0  0  0  0  0  0  0  0  # atno 17395 bound_to 11000

$$$$
