AV-unprocessed.smi:3017|AV-procd|sdf|11476|dock5
  -GOLD-   2272016413D 1   1.00000     0.00000
 Structure written by MMmdl.
 37 38  0  0  0  0  0  0  0  0  1 V2000
  154.0101  141.5482  162.6760 C   0  0  0  0  0  0  0  0  0  0  0  0
  152.8797  142.1841  161.8545 C   0  0  1  0  0  0  0  0  0  0  0  0
  152.8117  143.7077  162.0731 C   0  0  0  0  0  0  0  0  0  0  0  0
  151.6792  144.3432  161.2514 C   0  0  0  0  0  0  0  0  0  0  0  0
  151.8209  144.0126  159.7576 C   0  0  0  0  0  0  0  0  0  0  0  0
  151.8860  142.4895  159.5246 C   0  0  1  0  0  0  0  0  0  0  0  0
  152.1490  142.2079  158.1561 O   0  0  0  0  0  0  0  0  0  0  0  0
  151.2225  142.7947  157.2494 C   0  0  0  0  0  0  0  0  0  0  0  0
  150.4257  141.7017  156.5327 C   0  0  0  0  0  0  0  0  0  0  0  0
  150.7074  140.5232  156.7486 O   0  0  0  0  0  0  0  0  0  0  0  0
  149.4608  142.1109  155.6867 N   0  0  0  0  0  0  0  0  0  0  0  0
  148.5721  141.3139  154.9183 C   0  0  0  0  0  0  0  0  0  0  0  0
  147.4280  141.9777  154.4158 C   0  0  0  0  0  0  0  0  0  0  0  0
  146.4886  141.3516  153.6724 N   0  0  0  0  0  0  0  0  0  0  0  0
  146.6907  140.0401  153.4238 C   0  0  0  0  0  0  0  0  0  0  0  0
  147.8247  139.3625  153.9144 C   0  0  0  0  0  0  0  0  0  0  0  0
  148.7597  139.9947  154.6566 N   0  0  0  0  0  0  0  0  0  0  0  0
  153.0218  141.8634  160.3533 C   0  0  0  0  0  0  0  0  0  0  0  0
  154.9854  141.9308  162.3733 H   0  0  0  0  0  0  0  0  0  0  0  0
  154.0238  140.4651  162.5515 H   0  0  0  0  0  0  0  0  0  0  0  0
  153.8866  141.7553  163.7394 H   0  0  0  0  0  0  0  0  0  0  0  0
  151.9403  141.7524  162.2029 H   0  0  0  0  0  0  0  0  0  0  0  0
  152.6625  143.9278  163.1308 H   0  0  0  0  0  0  0  0  0  0  0  0
  153.7628  144.1640  161.7944 H   0  0  0  0  0  0  0  0  0  0  0  0
  150.7163  143.9828  161.6159 H   0  0  0  0  0  0  0  0  0  0  0  0
  151.6786  145.4241  161.3941 H   0  0  0  0  0  0  0  0  0  0  0  0
  150.9862  144.4517  159.2118 H   0  0  0  0  0  0  0  0  0  0  0  0
  152.7254  144.4804  159.3667 H   0  0  0  0  0  0  0  0  0  0  0  0
  150.9451  142.0266  159.8287 H   0  0  0  0  0  0  0  0  0  0  0  0
  150.5292  143.4438  157.7858 H   0  0  0  0  0  0  0  0  0  0  0  0
  151.7365  143.4010  156.5031 H   0  0  0  0  0  0  0  0  0  0  0  0
  149.3393  143.1097  155.6013 H   0  0  0  0  0  0  0  0  0  0  0  0
  147.2600  143.0265  154.6136 H   0  0  0  0  0  0  0  0  0  0  0  0
  145.9455  139.5288  152.8326 H   0  0  0  0  0  0  0  0  0  0  0  0
  147.9814  138.3132  153.7130 H   0  0  0  0  0  0  0  0  0  0  0  0
  153.9838  142.2284  159.9900 H   0  0  0  0  0  0  0  0  0  0  0  0
  153.0262  140.7831  160.2043 H   0  0  0  0  0  0  0  0  0  0  0  0
  1  2  1  0  0  0  0
  1 19  1  0  0  0  0
  1 20  1  0  0  0  0
  1 21  1  0  0  0  0
  2 18  1  0  0  0  0
  2  3  1  0  0  0  0
  2 22  1  0  0  0  0
  3  4  1  0  0  0  0
  3 23  1  0  0  0  0
  3 24  1  0  0  0  0
  4  5  1  0  0  0  0
  4 25  1  0  0  0  0
  4 26  1  0  0  0  0
  5  6  1  0  0  0  0
  5 27  1  0  0  0  0
  5 28  1  0  0  0  0
  6  7  1  0  0  0  0
  6 18  1  0  0  0  0
  6 29  1  0  0  0  0
  7  8  1  0  0  0  0
  8  9  1  0  0  0  0
  8 30  1  0  0  0  0
  8 31  1  0  0  0  0
  9 10  2  0  0  0  0
  9 11  1  0  0  0  0
 11 12  1  0  0  0  0
 11 32  1  0  0  0  0
 12 17  1  0  0  0  0
 12 13  2  0  0  0  0
 13 14  1  0  0  0  0
 13 33  1  0  0  0  0
 14 15  2  0  0  0  0
 15 16  1  0  0  0  0
 15 34  1  0  0  0  0
 16 17  2  0  0  0  0
 16 35  1  0  0  0  0
 18 36  1  0  0  0  0
 18 37  1  0  0  0  0
M  END
> <s_m_source_file>
AV-unprocessed.smi

> <i_m_source_file_index>
3017

> <i_lp_mmshare_version>
43012

> <i_f3d_flags>
0

> <s_epik_input>
W0NIM11bQ0BASF0xW0NIMl1bQ0gyXVtDSDJdW0NASF0oW0NIMl0xKU9bQ0gyXUMoPU8pW05IXWMyW2NIXW5bY0hdW2NIXW4y

> <s_epik_cmdline>
J2VwaWtfcHl0aG9uJywgJy1waCcsICc3LjAnLCAnLXRuJywgJzgnLCAnLW1hJywgJzIwMCcsICctbWV0YWxfYmluZGluZycsICctaW1hZScsICc8aW5maWxlLm1hZT4nLCAnLW9tYWUnLCAnPG91dGZpbGUubWFlPic=

> <r_lp_tautomer_probability>
1

> <r_epik_Ionization_Penalty>
2.89243e-06

> <r_epik_Ionization_Penalty_Charging>
0

> <r_epik_Ionization_Penalty_Neutral>
2.89243e-06

> <r_epik_State_Penalty>
-0

> <r_epik_Charging_Adjusted_Penalty>
0

> <i_epik_Tot_Q>
0

> <i_epik_Tot_abs_Q>
0

> <r_epik_Metal_State_Penalty>
-0

> <b_epik_Metal_Only>
0

> <s_lp_Force_Field>
OPLS_2005

> <r_lp_Energy>
20.2083

> <b_lp_Chiralities_Consistent>
1

> <s_lp_Variant>
AV-unprocessed.smi:3017-2

> <Gold.Version>
5.8.1

> <Gold.Id.Protein>
6NUR|6NUR_protein|mol2

> <Gold.PLP.Fitness>
45.5023

> <Gold.PLP.PLP>
-38.1481

> <Gold.PLP.part.hbond>
-1.0000

> <Gold.PLP.part.metal>
0.0000

> <Gold.PLP.part.buried>
1.2056

> <Gold.PLP.part.nonpolar>
-37.4526

> <Gold.PLP.part.repulsive>
0.5254

> <Gold.PLP.ligand.clash>
0.0000

> <Gold.PLP.ligand.torsion>
0.4541

> <Gold.PLP.Chemscore.Hbond>
1.0000

> <Gold.PLP.Chemscore.CHOScore>
1.7494

> <Gold.PLP.Chemscore.Metal>
0.0000

> <Gold.Chemscore.Hbonds>
donor molecule, donor type, donor heavy atom, donor atom, acceptor molecule, acceptor atom, score
      L1  H    11    32       P1  8028  1.00
      L1  C    13    33       P1  8028  0.99
      L1  C    15    34       P1 10175  0.84

> <Gold.PLP.Chemscore.Internal.Correction>
0.0141

> <Gold.Rescore>
     Score         DG    S(hbond)    S(metal)    S(lipo)     H(rot)  DE(clash)    DE(int)     intcor
     15.57     -17.44       1.00        0.00     106.73       1.51       0.21       1.65       ----

> <Gold.Chemscore.Fitness>
15.5734

> <Gold.Chemscore.DG>
-17.4365

> <Gold.Chemscore.ZeroCoef>
-5.4800

> <Gold.Chemscore.Hbond>
0.9999

> <Gold.Chemscore.Metal>
0.0000

> <Gold.Chemscore.Lipo>
106.7292

> <Gold.Chemscore.Internal_Hbond>
0.0000

> <Gold.Chemscore.DEClash>
0.2129

> <Gold.Chemscore.DEInternal>
1.6502

> <Gold.Chemscore.Rot>
1.5119

> <Gold.Chemscore.Internal.Correction>
   9.000000E+99

> <Gold.Chemscore.Hbonds>
donor molecule, donor type, donor heavy atom, donor atom, acceptor molecule, acceptor atom, score
      L1  H    11    32       P1  8028  1.00

> <Gold.Chemscore.Hbond.Weighted>
-3.3398

> <Gold.Chemscore.Metal.Weighted>
-0.0000

> <Gold.Chemscore.Lipo.Weighted>
-12.4873

> <Gold.Chemscore.Internal_Hbond.Weighted>
0.0000

> <Gold.Chemscore.DEClash.Weighted>
0.2129

> <Gold.Chemscore.DEInternal.Weighted>
1.6502

> <Gold.Chemscore.Rot.Weighted>
3.8706

> <Gold.Chemscore.Internal.Correction.Weighted>
   9.000000E+99

> <Gold.Protein.RotatedTorsions>
[ 6907 6896 6895 6894 ] final  -84.64 input  -60.11 | X-H torsion
[ 7974 7965 7964 7962 ] final  130.15 input  175.53 | X-H torsion
[ 8008 7997 7996 7995 ] final    9.22 input   59.86 | X-H torsion
[ 10167 10162 10161 10158 ] final   92.07 input  -65.29 | X-H torsion
[ 10718 10713 10712 10709 ] final  147.80 input   66.30 | X-H torsion
[ 10763 10752 10751 10750 ] final  -17.95 input  -60.55 | X-H torsion
[ 11005 11000 10999 10996 ] final   21.62 input  -57.11 | X-H torsion

> <Gold.Protein.ActiveResidues>
 VAL166  LYS551  ARG553  GLY616  TRP617  ASP618  TYR619  PRO620  LYS621  CYS622 
 ASP623  PHE694  ASN695  SER759  ASP760  ASP761  ALA762  ILE779  LEU786  VAL792 
 PHE793  MET794  SER795  GLU796  ALA797  LYS798  CYS799  TRP800  GLU811  SER814 

> <Gold.Protein.RotatedAtoms>
  150.6875  134.3328  159.4833 H   0  0  0  0  0  0  0  0  0  0  0  0  # atno 6907 bound_to 6896
  152.1190  134.9217  160.0573 H   0  0  0  0  0  0  0  0  0  0  0  0  # atno 6908 bound_to 6896
  152.0430  133.3951  159.4382 H   0  0  0  0  0  0  0  0  0  0  0  0  # atno 6909 bound_to 6896
  145.0210  139.4132  143.5197 H   0  0  0  0  0  0  0  0  0  0  0  0  # atno 7974 bound_to 7965
  154.7771  140.2812  155.6092 H   0  0  0  0  0  0  0  0  0  0  0  0  # atno 8008 bound_to 7997
  156.2944  140.2630  156.2515 H   0  0  0  0  0  0  0  0  0  0  0  0  # atno 8009 bound_to 7997
  154.9829  140.0374  157.2275 H   0  0  0  0  0  0  0  0  0  0  0  0  # atno 8010 bound_to 7997
  139.8313  144.6686  150.9396 H   0  0  0  0  0  0  0  0  0  0  0  0  # atno 10167 bound_to 10162
  157.3165  131.0897  151.1274 H   0  0  0  0  0  0  0  0  0  0  0  0  # atno 10718 bound_to 10713
  153.5818  135.7005  153.5460 H   0  0  0  0  0  0  0  0  0  0  0  0  # atno 10763 bound_to 10752
  153.3254  135.4062  155.1451 H   0  0  0  0  0  0  0  0  0  0  0  0  # atno 10764 bound_to 10752
  154.8616  135.3706  154.5346 H   0  0  0  0  0  0  0  0  0  0  0  0  # atno 10765 bound_to 10752
  140.3896  134.1833  155.7662 H   0  0  0  0  0  0  0  0  0  0  0  0  # atno 11005 bound_to 11000
  146.3485  139.9707  142.8706 LP  0  0  0  0  0  0  0  0  0  0  0  0  # atno 17320 bound_to 7965
  145.1896  140.9805  143.4218 LP  0  0  0  0  0  0  0  0  0  0  0  0  # atno 17321 bound_to 7965
  140.7806  143.3998  151.1168 LP  0  0  0  0  0  0  0  0  0  0  0  0  # atno 17342 bound_to 10162
  139.7652  143.8576  152.3109 LP  0  0  0  0  0  0  0  0  0  0  0  0  # atno 17343 bound_to 10162
  157.2576  130.6643  149.5960 LP  0  0  0  0  0  0  0  0  0  0  0  0  # atno 17370 bound_to 10713
  155.9682  130.4519  150.5752 LP  0  0  0  0  0  0  0  0  0  0  0  0  # atno 17371 bound_to 10713
  141.1895  133.8236  157.0953 LP  0  0  0  0  0  0  0  0  0  0  0  0  # atno 17394 bound_to 11000
  140.0417  134.9851  157.0973 LP  0  0  0  0  0  0  0  0  0  0  0  0  # atno 17395 bound_to 11000

$$$$
