AV-unprocessed.smi:368|AV-procd|sdf|2434|dock7
  -GOLD-   2262022373D 1   1.00000     0.00000
 Structure written by MMmdl.
 37 38  0  0  0  0  0  0  0  0  1 V2000
  152.4273  140.1359  155.1340 O   0  0  0  0  0  0  0  0  0  0  0  0
  151.3899  139.9071  155.7578 C   0  0  0  0  0  0  0  0  0  0  0  0
  150.3915  138.8472  155.2700 C   0  0  0  0  0  0  0  0  0  0  0  0
  149.1349  139.4154  154.7550 N   0  0  0  0  0  0  0  0  0  0  0  0
  149.0999  140.7991  154.5141 C   0  0  0  0  0  0  0  0  0  0  0  0
  147.9902  141.3888  154.0467 C   0  0  0  0  0  0  0  0  0  0  0  0
  146.8364  140.5118  153.8083 C   0  0  0  0  0  0  0  0  0  0  0  0
  146.8633  139.2509  154.0316 N   0  0  0  0  0  0  0  0  0  0  0  0
  148.0282  138.6351  154.5275 C   0  0  0  0  0  0  0  0  0  0  0  0
  148.0585  137.4251  154.7530 O   0  0  0  0  0  0  0  0  0  0  0  0
  151.0594  140.5400  156.8940 N   0  0  0  0  0  0  0  0  0  0  0  0
  151.8464  141.5823  157.5487 C   0  0  0  0  0  0  0  0  0  0  0  0
  152.0642  141.1855  159.0239 C   0  0  0  0  0  0  0  0  0  0  0  0
  153.1507  142.0202  159.7232 C   0  0  0  0  0  0  0  0  0  0  0  0
  152.6719  143.3368  160.3592 C   0  0  0  0  0  0  0  0  0  0  0  0
  151.6383  144.1497  159.5607 C   0  0  0  0  0  0  0  0  0  0  0  0
  151.8276  144.1397  158.0353 C   0  0  0  0  0  0  0  0  0  0  0  0
  151.1417  142.9414  157.3568 C   0  0  0  0  0  0  0  0  0  0  0  0
  150.8806  138.2484  154.5003 H   0  0  0  0  0  0  0  0  0  0  0  0
  150.1805  138.1505  156.0836 H   0  0  0  0  0  0  0  0  0  0  0  0
  150.0115  141.3348  154.7355 H   0  0  0  0  0  0  0  0  0  0  0  0
  147.8955  142.4451  153.8430 H   0  0  0  0  0  0  0  0  0  0  0  0
  145.9425  141.0098  153.4238 H   0  0  0  0  0  0  0  0  0  0  0  0
  150.1893  140.2844  157.3380 H   0  0  0  0  0  0  0  0  0  0  0  0
  152.8257  141.6270  157.0680 H   0  0  0  0  0  0  0  0  0  0  0  0
  151.1285  141.2177  159.5837 H   0  0  0  0  0  0  0  0  0  0  0  0
  152.3889  140.1440  159.0491 H   0  0  0  0  0  0  0  0  0  0  0  0
  153.6056  141.4176  160.5102 H   0  0  0  0  0  0  0  0  0  0  0  0
  153.9591  142.2256  159.0206 H   0  0  0  0  0  0  0  0  0  0  0  0
  152.2520  143.1271  161.3436 H   0  0  0  0  0  0  0  0  0  0  0  0
  153.5483  143.9593  160.5437 H   0  0  0  0  0  0  0  0  0  0  0  0
  150.6338  143.8007  159.8027 H   0  0  0  0  0  0  0  0  0  0  0  0
  151.6756  145.1800  159.9165 H   0  0  0  0  0  0  0  0  0  0  0  0
  151.3715  145.0463  157.6364 H   0  0  0  0  0  0  0  0  0  0  0  0
  152.8832  144.1956  157.7671 H   0  0  0  0  0  0  0  0  0  0  0  0
  151.0824  143.1501  156.2878 H   0  0  0  0  0  0  0  0  0  0  0  0
  150.1072  142.8750  157.6976 H   0  0  0  0  0  0  0  0  0  0  0  0
  1  2  2  0  0  0  0
  2  3  1  0  0  0  0
  2 11  1  0  0  0  0
  3  4  1  0  0  0  0
  3 19  1  0  0  0  0
  3 20  1  0  0  0  0
  4  9  1  0  0  0  0
  4  5  1  0  0  0  0
  5  6  2  0  0  0  0
  5 21  1  0  0  0  0
  6  7  1  0  0  0  0
  6 22  1  0  0  0  0
  7  8  2  0  0  0  0
  7 23  1  0  0  0  0
  8  9  1  0  0  0  0
  9 10  2  0  0  0  0
 11 12  1  0  0  0  0
 11 24  1  0  0  0  0
 12 18  1  0  0  0  0
 12 13  1  0  0  0  0
 12 25  1  0  0  0  0
 13 14  1  0  0  0  0
 13 26  1  0  0  0  0
 13 27  1  0  0  0  0
 14 15  1  0  0  0  0
 14 28  1  0  0  0  0
 14 29  1  0  0  0  0
 15 16  1  0  0  0  0
 15 30  1  0  0  0  0
 15 31  1  0  0  0  0
 16 17  1  0  0  0  0
 16 32  1  0  0  0  0
 16 33  1  0  0  0  0
 17 18  1  0  0  0  0
 17 34  1  0  0  0  0
 17 35  1  0  0  0  0
 18 36  1  0  0  0  0
 18 37  1  0  0  0  0
M  END
> <s_m_source_file>
AV-unprocessed.smi

> <i_m_source_file_index>
368

> <i_lp_mmshare_version>
43012

> <i_f3d_flags>
0

> <s_epik_input>
W0NIMl0xW0NIMl1bQ0gyXVtDSDJdW0NIMl1bQ0gyXVtDSF0xW05IXUMoPU8pW0NIMl1uMltjSF1bY0hdW2NIXW5jMj1P

> <s_epik_cmdline>
J2VwaWtfcHl0aG9uJywgJy1waCcsICc3LjAnLCAnLXRuJywgJzgnLCAnLW1hJywgJzIwMCcsICctbWV0YWxfYmluZGluZycsICctaW1hZScsICc8aW5maWxlLm1hZT4nLCAnLW9tYWUnLCAnPG91dGZpbGUubWFlPic=

> <r_lp_tautomer_probability>
1

> <r_epik_Ionization_Penalty>
7.18069e-06

> <r_epik_Ionization_Penalty_Charging>
1.77491e-08

> <r_epik_Ionization_Penalty_Neutral>
7.16294e-06

> <r_epik_State_Penalty>
-0

> <r_epik_Charging_Adjusted_Penalty>
1.77491e-08

> <i_epik_Tot_Q>
0

> <i_epik_Tot_abs_Q>
0

> <r_epik_Metal_State_Penalty>
-0

> <b_epik_Metal_Only>
0

> <s_lp_Force_Field>
OPLS_2005

> <r_lp_Energy>
17.0449

> <b_lp_Chiralities_Consistent>
1

> <s_lp_Variant>
AV-unprocessed.smi:368-1

> <Gold.Version>
5.8.1

> <Gold.Id.Protein>
6NUR|6NUR_protein|mol2

> <Gold.PLP.Fitness>
44.4881

> <Gold.PLP.PLP>
-38.4649

> <Gold.PLP.part.hbond>
-1.8799

> <Gold.PLP.part.metal>
0.0000

> <Gold.PLP.part.buried>
-4.0492

> <Gold.PLP.part.nonpolar>
-33.8645

> <Gold.PLP.part.repulsive>
0.3792

> <Gold.PLP.ligand.clash>
0.0000

> <Gold.PLP.ligand.torsion>
0.3457

> <Gold.PLP.Chemscore.Hbond>
1.3681

> <Gold.PLP.Chemscore.CHOScore>
0.8654

> <Gold.PLP.Chemscore.Metal>
0.0000

> <Gold.Chemscore.Hbonds>
donor molecule, donor type, donor heavy atom, donor atom, acceptor molecule, acceptor atom, score
      P1  H  7989  7998       L1     1  0.58
      P1  H  7997  8008       L1     1  0.70
      L1  C     7    23       P1 10175  1.00

> <Gold.PLP.Chemscore.Internal.Correction>
0.0142

> <Gold.Rescore>
     Score         DG    S(hbond)    S(metal)    S(lipo)     H(rot)  DE(clash)    DE(int)     intcor
     16.59     -17.03       1.01        0.00     102.72       1.50       0.14       0.30       ----

> <Gold.Chemscore.Fitness>
16.5890

> <Gold.Chemscore.DG>
-17.0286

> <Gold.Chemscore.ZeroCoef>
-5.4800

> <Gold.Chemscore.Hbond>
1.0075

> <Gold.Chemscore.Metal>
0.0000

> <Gold.Chemscore.Lipo>
102.7155

> <Gold.Chemscore.Internal_Hbond>
0.0000

> <Gold.Chemscore.DEClash>
0.1445

> <Gold.Chemscore.DEInternal>
0.2951

> <Gold.Chemscore.Rot>
1.4977

> <Gold.Chemscore.Internal.Correction>
   9.000000E+99

> <Gold.Chemscore.Hbonds>
donor molecule, donor type, donor heavy atom, donor atom, acceptor molecule, acceptor atom, score
      P1  H  7989  7998       L1     1  0.15
      P1  H  7997  8008       L1     1  0.69

> <Gold.Chemscore.Hbond.Weighted>
-3.3650

> <Gold.Chemscore.Metal.Weighted>
-0.0000

> <Gold.Chemscore.Lipo.Weighted>
-12.0177

> <Gold.Chemscore.Internal_Hbond.Weighted>
0.0000

> <Gold.Chemscore.DEClash.Weighted>
0.1445

> <Gold.Chemscore.DEInternal.Weighted>
0.2951

> <Gold.Chemscore.Rot.Weighted>
3.8341

> <Gold.Chemscore.Internal.Correction.Weighted>
   9.000000E+99

> <Gold.Protein.RotatedTorsions>
[ 6907 6896 6895 6894 ] final  -51.00 input  -60.11 | X-H torsion
[ 7974 7965 7964 7962 ] final   51.40 input  175.53 | X-H torsion
[ 8008 7997 7996 7995 ] final  -21.64 input   59.86 | X-H torsion
[ 10167 10162 10161 10158 ] final   -6.18 input  -65.29 | X-H torsion
[ 10718 10713 10712 10709 ] final -117.95 input   66.30 | X-H torsion
[ 10763 10752 10751 10750 ] final -177.80 input  -60.55 | X-H torsion
[ 11005 11000 10999 10996 ] final   76.11 input  -57.11 | X-H torsion

> <Gold.Protein.ActiveResidues>
 VAL166  LYS551  ARG553  GLY616  TRP617  ASP618  TYR619  PRO620  LYS621  CYS622 
 ASP623  PHE694  ASN695  SER759  ASP760  ASP761  ALA762  ILE779  LEU786  VAL792 
 PHE793  MET794  SER795  GLU796  ALA797  LYS798  CYS799  TRP800  GLU811  SER814 

> <Gold.Protein.RotatedAtoms>
  150.8653  134.8015  159.7113 H   0  0  0  0  0  0  0  0  0  0  0  0  # atno 6907 bound_to 6896
  152.4676  134.5034  159.9741 H   0  0  0  0  0  0  0  0  0  0  0  0  # atno 6908 bound_to 6896
  151.5131  133.3442  159.2924 H   0  0  0  0  0  0  0  0  0  0  0  0  # atno 6909 bound_to 6896
  145.9917  139.4346  143.0069 H   0  0  0  0  0  0  0  0  0  0  0  0  # atno 7974 bound_to 7965
  154.4693  140.2029  156.0036 H   0  0  0  0  0  0  0  0  0  0  0  0  # atno 8008 bound_to 7997
  156.0983  140.3248  155.7878 H   0  0  0  0  0  0  0  0  0  0  0  0  # atno 8009 bound_to 7997
  155.4841  140.0541  157.2954 H   0  0  0  0  0  0  0  0  0  0  0  0  # atno 8010 bound_to 7997
  140.6988  143.6223  150.8600 H   0  0  0  0  0  0  0  0  0  0  0  0  # atno 10167 bound_to 10162
  156.1071  130.6219  150.9230 H   0  0  0  0  0  0  0  0  0  0  0  0  # atno 10718 bound_to 10713
  154.5556  135.2816  155.0968 H   0  0  0  0  0  0  0  0  0  0  0  0  # atno 10763 bound_to 10752
  154.2397  135.6359  153.5206 H   0  0  0  0  0  0  0  0  0  0  0  0  # atno 10764 bound_to 10752
  153.0014  135.5557  154.6134 H   0  0  0  0  0  0  0  0  0  0  0  0  # atno 10765 bound_to 10752
  139.9313  134.7574  156.1355 H   0  0  0  0  0  0  0  0  0  0  0  0  # atno 11005 bound_to 11000
  145.7619  140.9931  143.1195 LP  0  0  0  0  0  0  0  0  0  0  0  0  # atno 17320 bound_to 7965
  144.6891  139.9341  143.7473 LP  0  0  0  0  0  0  0  0  0  0  0  0  # atno 17321 bound_to 7965
  139.9944  143.5812  152.2898 LP  0  0  0  0  0  0  0  0  0  0  0  0  # atno 17342 bound_to 10162
  139.6479  144.7659  151.2207 LP  0  0  0  0  0  0  0  0  0  0  0  0  # atno 17343 bound_to 10162
  157.6249  131.0926  150.8553 LP  0  0  0  0  0  0  0  0  0  0  0  0  # atno 17370 bound_to 10713
  156.8670  130.5133  149.5299 LP  0  0  0  0  0  0  0  0  0  0  0  0  # atno 17371 bound_to 10713
  141.0903  133.6717  156.2525 LP  0  0  0  0  0  0  0  0  0  0  0  0  # atno 17394 bound_to 11000
  140.6195  134.5376  157.5545 LP  0  0  0  0  0  0  0  0  0  0  0  0  # atno 17395 bound_to 11000

$$$$
