AV-unprocessed.smi:3038|AV-procd|sdf|11589|dock7
  -GOLD-   2272016563D 1   1.00000     0.00000
 Structure written by MMmdl.
 37 39  0  0  0  0  0  0  0  0  2 V2000
  150.6351  140.1472  155.0160 O   0  0  0  0  0  0  0  0  0  0  0  0
  150.5511  140.8055  156.0522 C   0  0  0  0  0  0  0  0  0  0  0  0
  151.7829  140.9935  156.9398 C   0  0  0  0  0  0  0  0  0  0  0  0
  152.0648  139.7979  157.7132 N   0  0  0  0  0  0  0  0  0  0  0  0
  151.3407  139.1556  158.6321 C   0  0  0  0  0  0  0  0  0  0  0  0
  151.9845  138.1024  159.1121 N   0  0  0  0  0  0  0  0  0  0  0  0
  153.1836  138.1233  158.4196 N   0  0  0  0  0  0  0  0  0  0  0  0
  153.2372  139.1270  157.5880 N   0  0  0  0  0  0  0  0  0  0  0  0
  149.4166  141.3952  156.4628 N   0  0  0  0  0  0  0  0  0  0  0  0
  148.1335  141.3292  155.7717 C   0  0  2  0  0  0  0  0  0  0  0  0
  147.4978  139.9363  155.9355 C   0  0  0  0  0  0  0  0  0  0  0  0
  146.1985  139.8160  155.1171 C   0  0  0  0  0  0  0  0  0  0  0  0
  146.4071  140.1427  153.6829 N   0  3  2  0  0  0  0  0  0  0  0  0
  147.1121  139.0759  152.9339 C   0  0  0  0  0  0  0  0  0  0  0  0
  146.8244  139.0861  151.4505 C   0  0  0  0  0  0  0  0  0  0  0  0
  146.1880  138.0397  152.3376 C   0  0  0  0  0  0  0  0  0  0  0  0
  147.0106  141.4877  153.4984 C   0  0  0  0  0  0  0  0  0  0  0  0
  148.3295  141.6437  154.2794 C   0  0  0  0  0  0  0  0  0  0  0  0
  152.6552  141.2266  156.3276 H   0  0  0  0  0  0  0  0  0  0  0  0
  151.6268  141.8362  157.6149 H   0  0  0  0  0  0  0  0  0  0  0  0
  150.3549  139.4603  158.9512 H   0  0  0  0  0  0  0  0  0  0  0  0
  149.4442  141.9178  157.3270 H   0  0  0  0  0  0  0  0  0  0  0  0
  147.4591  142.0789  156.1905 H   0  0  0  0  0  0  0  0  0  0  0  0
  148.2036  139.1649  155.6241 H   0  0  0  0  0  0  0  0  0  0  0  0
  147.2828  139.7443  156.9874 H   0  0  0  0  0  0  0  0  0  0  0  0
  145.7791  138.8140  155.2144 H   0  0  0  0  0  0  0  0  0  0  0  0
  145.4514  140.5008  155.5204 H   0  0  0  0  0  0  0  0  0  0  0  0
  148.0952  138.7860  153.2993 H   0  0  0  0  0  0  0  0  0  0  0  0
  146.1781  139.8674  151.0545 H   0  0  0  0  0  0  0  0  0  0  0  0
  147.6180  138.7566  150.7827 H   0  0  0  0  0  0  0  0  0  0  0  0
  146.5626  137.0215  152.2538 H   0  0  0  0  0  0  0  0  0  0  0  0
  145.1199  138.1277  152.5295 H   0  0  0  0  0  0  0  0  0  0  0  0
  147.1713  141.6818  152.4374 H   0  0  0  0  0  0  0  0  0  0  0  0
  146.2947  142.2358  153.8417 H   0  0  0  0  0  0  0  0  0  0  0  0
  148.7060  142.6606  154.1606 H   0  0  0  0  0  0  0  0  0  0  0  0
  149.0903  140.9869  153.8553 H   0  0  0  0  0  0  0  0  0  0  0  0
  145.4861  140.1906  153.2708 H   0  0  0  0  0  0  0  0  0  0  0  0
  1  2  2  0  0  0  0
  2  3  1  0  0  0  0
  2  9  1  0  0  0  0
  3  4  1  0  0  0  0
  3 19  1  0  0  0  0
  3 20  1  0  0  0  0
  4  8  1  0  0  0  0
  4  5  1  0  0  0  0
  5  6  2  0  0  0  0
  5 21  1  0  0  0  0
  6  7  1  0  0  0  0
  7  8  2  0  0  0  0
  9 10  1  0  0  0  0
  9 22  1  0  0  0  0
 10 18  1  0  0  0  0
 10 11  1  0  0  0  0
 10 23  1  0  0  0  0
 11 12  1  0  0  0  0
 11 24  1  0  0  0  0
 11 25  1  0  0  0  0
 12 13  1  0  0  0  0
 12 26  1  0  0  0  0
 12 27  1  0  0  0  0
 13 14  1  0  0  0  0
 13 17  1  0  0  0  0
 13 37  1  0  0  0  0
 14 16  1  0  0  0  0
 14 15  1  0  0  0  0
 14 28  1  0  0  0  0
 15 16  1  0  0  0  0
 15 29  1  0  0  0  0
 15 30  1  0  0  0  0
 16 31  1  0  0  0  0
 16 32  1  0  0  0  0
 17 18  1  0  0  0  0
 17 33  1  0  0  0  0
 17 34  1  0  0  0  0
 18 35  1  0  0  0  0
 18 36  1  0  0  0  0
M  CHG  1  13   1
M  END
> <s_m_source_file>
AV-unprocessed.smi

> <i_m_source_file_index>
3038

> <i_lp_mmshare_version>
43012

> <i_f3d_flags>
0

> <s_epik_input>
bjFubltjSF1uMVtDSDJdQyg9TylbTkhdW0NIXTJbQ0gyXVtDSDJdTihbQ0gyXVtDSDJdMilbQ0hdM1tDSDJdW0NIMl0z

> <s_epik_cmdline>
J2VwaWtfcHl0aG9uJywgJy1waCcsICc3LjAnLCAnLXRuJywgJzgnLCAnLW1hJywgJzIwMCcsICctbWV0YWxfYmluZGluZycsICctaW1hZScsICc8aW5maWxlLm1hZT4nLCAnLW9tYWUnLCAnPG91dGZpbGUubWFlPic=

> <r_lp_tautomer_probability>
1

> <r_epik_Ionization_Penalty>
0.284275

> <r_epik_Ionization_Penalty_Charging>
0.284273

> <r_epik_Ionization_Penalty_Neutral>
2.31262e-06

> <r_epik_State_Penalty>
0.277002

> <r_epik_Charging_Adjusted_Penalty>
0.561274

> <i_epik_Tot_Q>
1

> <i_epik_Tot_abs_Q>
1

> <r_epik_Metal_State_Penalty>
0.277002

> <b_epik_Metal_Only>
0

> <s_lp_Force_Field>
OPLS_2005

> <r_lp_Energy>
29.3434

> <b_lp_Chiralities_Consistent>
1

> <s_lp_Variant>
AV-unprocessed.smi:3038-2

> <Gold.Version>
5.8.1

> <Gold.Id.Protein>
6NUR|6NUR_protein|mol2

> <Gold.PLP.Fitness>
38.6160

> <Gold.PLP.PLP>
-27.3320

> <Gold.PLP.part.hbond>
-3.0000

> <Gold.PLP.part.metal>
0.0000

> <Gold.PLP.part.buried>
-1.7284

> <Gold.PLP.part.nonpolar>
-21.4150

> <Gold.PLP.part.repulsive>
0.0904

> <Gold.PLP.ligand.clash>
0.0000

> <Gold.PLP.ligand.torsion>
0.9934

> <Gold.PLP.Chemscore.Hbond>
4.0000

> <Gold.PLP.Chemscore.CHOScore>
0.0000

> <Gold.PLP.Chemscore.Metal>
0.0000

> <Gold.Chemscore.Hbonds>
donor molecule, donor type, donor heavy atom, donor atom, acceptor molecule, acceptor atom, score
      L1  H    13    37       P1 10175  2.00
      P1  H  7989  7998       L1     1  1.00
      P1  H  7997  8010       L1     8  1.00

> <Gold.PLP.Chemscore.Internal.Correction>
1.2709

> <Gold.Rescore>
     Score         DG    S(hbond)    S(metal)    S(lipo)     H(rot)  DE(clash)    DE(int)     intcor
     13.12     -15.60       2.93        0.00      52.17       2.25       0.08       2.40       ----

> <Gold.Chemscore.Fitness>
13.1239

> <Gold.Chemscore.DG>
-15.6020

> <Gold.Chemscore.ZeroCoef>
-5.4800

> <Gold.Chemscore.Hbond>
2.9299

> <Gold.Chemscore.Metal>
0.0000

> <Gold.Chemscore.Lipo>
52.1667

> <Gold.Chemscore.Internal_Hbond>
0.0000

> <Gold.Chemscore.DEClash>
0.0785

> <Gold.Chemscore.DEInternal>
2.3996

> <Gold.Chemscore.Rot>
2.2528

> <Gold.Chemscore.Internal.Correction>
   9.000000E+99

> <Gold.Chemscore.Hbonds>
donor molecule, donor type, donor heavy atom, donor atom, acceptor molecule, acceptor atom, score
      L1  H    13    37       P1 10175  0.96
      P1  H  7989  7998       L1     1  0.96
      P1  H  7997  8010       L1     8  0.85

> <Gold.Chemscore.Hbond.Weighted>
-9.7858

> <Gold.Chemscore.Metal.Weighted>
-0.0000

> <Gold.Chemscore.Lipo.Weighted>
-6.1035

> <Gold.Chemscore.Internal_Hbond.Weighted>
0.0000

> <Gold.Chemscore.DEClash.Weighted>
0.0785

> <Gold.Chemscore.DEInternal.Weighted>
2.3996

> <Gold.Chemscore.Rot.Weighted>
5.7672

> <Gold.Chemscore.Internal.Correction.Weighted>
   9.000000E+99

> <Gold.Protein.RotatedTorsions>
[ 6907 6896 6895 6894 ] final -163.16 input  -60.11 | X-H torsion
[ 7974 7965 7964 7962 ] final -106.22 input  175.53 | X-H torsion
[ 8008 7997 7996 7995 ] final   48.16 input   59.86 | X-H torsion
[ 10167 10162 10161 10158 ] final   23.10 input  -65.29 | X-H torsion
[ 10718 10713 10712 10709 ] final   85.98 input   66.30 | X-H torsion
[ 10763 10752 10751 10750 ] final -177.96 input  -60.55 | X-H torsion
[ 11005 11000 10999 10996 ] final  169.03 input  -57.11 | X-H torsion

> <Gold.Protein.ActiveResidues>
 VAL166  LYS551  ARG553  GLY616  TRP617  ASP618  TYR619  PRO620  LYS621  CYS622 
 ASP623  PHE694  ASN695  SER759  ASP760  ASP761  ALA762  ILE779  LEU786  VAL792 
 PHE793  MET794  SER795  GLU796  ALA797  LYS798  CYS799  TRP800  GLU811  SER814 

> <Gold.Protein.RotatedAtoms>
  151.3917  133.3786  159.2721 H   0  0  0  0  0  0  0  0  0  0  0  0  # atno 6907 bound_to 6896
  150.9500  134.8902  159.7676 H   0  0  0  0  0  0  0  0  0  0  0  0  # atno 6908 bound_to 6896
  152.5107  134.3872  159.9424 H   0  0  0  0  0  0  0  0  0  0  0  0  # atno 6909 bound_to 6896
  145.2206  140.9132  143.3262 H   0  0  0  0  0  0  0  0  0  0  0  0  # atno 7974 bound_to 7965
  155.3811  140.3428  155.4247 H   0  0  0  0  0  0  0  0  0  0  0  0  # atno 8008 bound_to 7997
  156.1610  140.1601  156.8646 H   0  0  0  0  0  0  0  0  0  0  0  0  # atno 8009 bound_to 7997
  154.5139  140.0783  156.8026 H   0  0  0  0  0  0  0  0  0  0  0  0  # atno 8010 bound_to 7997
  140.5296  143.9864  150.6458 H   0  0  0  0  0  0  0  0  0  0  0  0  # atno 10167 bound_to 10162
  157.6922  131.0197  150.2904 H   0  0  0  0  0  0  0  0  0  0  0  0  # atno 10718 bound_to 10713
  154.5537  135.2815  155.0984 H   0  0  0  0  0  0  0  0  0  0  0  0  # atno 10763 bound_to 10752
  154.2420  135.6355  153.5214 H   0  0  0  0  0  0  0  0  0  0  0  0  # atno 10764 bound_to 10752
  153.0010  135.5562  154.6111 H   0  0  0  0  0  0  0  0  0  0  0  0  # atno 10765 bound_to 10752
  140.2934  134.7654  157.3857 H   0  0  0  0  0  0  0  0  0  0  0  0  # atno 11005 bound_to 11000
  144.9769  139.3822  143.6281 LP  0  0  0  0  0  0  0  0  0  0  0  0  # atno 17320 bound_to 7965
  146.3377  139.8892  142.8812 LP  0  0  0  0  0  0  0  0  0  0  0  0  # atno 17321 bound_to 7965
  140.3236  143.3122  152.0759 LP  0  0  0  0  0  0  0  0  0  0  0  0  # atno 17342 bound_to 10162
  139.4950  144.6557  151.6577 LP  0  0  0  0  0  0  0  0  0  0  0  0  # atno 17343 bound_to 10162
  156.3436  130.3819  149.7388 LP  0  0  0  0  0  0  0  0  0  0  0  0  # atno 17370 bound_to 10713
  156.4889  130.8076  151.3086 LP  0  0  0  0  0  0  0  0  0  0  0  0  # atno 17371 bound_to 10713
  140.1174  134.5265  155.8213 LP  0  0  0  0  0  0  0  0  0  0  0  0  # atno 17394 bound_to 11000
  141.2142  133.6745  156.6803 LP  0  0  0  0  0  0  0  0  0  0  0  0  # atno 17395 bound_to 11000

$$$$
