AV-unprocessed.smi:2245|AV-procd|sdf|9076|dock4
  -GOLD-   2272012283D 1   1.00000     0.00000
 Structure written by MMmdl.
 44 45  0  0  0  0  0  0  0  0  1 V2000
  152.1009  145.8492  160.4437 C   0  0  0  0  0  0  0  0  0  0  0  0
  152.0708  144.4859  159.7849 C   0  0  0  0  0  0  0  0  0  0  0  0
  152.8611  143.4282  160.2737 C   0  0  0  0  0  0  0  0  0  0  0  0
  152.7901  142.1855  159.6144 C   0  0  0  0  0  0  0  0  0  0  0  0
  153.6191  141.0081  160.0825 C   0  0  0  0  0  0  0  0  0  0  0  0
  152.0034  141.9657  158.5394 N   0  0  0  0  0  0  0  0  0  0  0  0
  151.2378  142.9771  158.0600 C   0  0  0  0  0  0  0  0  0  0  0  0
  150.3896  142.8543  156.9282 N   0  0  0  0  0  0  0  0  0  0  0  0
  150.0863  141.7432  156.2346 C   0  0  0  0  0  0  0  0  0  0  0  0
  150.4325  140.5992  156.5315 O   0  0  0  0  0  0  0  0  0  0  0  0
  149.3452  142.0337  155.1569 N   0  0  0  0  0  0  0  0  0  0  0  0
  148.8941  141.0597  154.1710 C   0  0  0  0  0  0  0  0  0  0  0  0
  147.3602  140.9642  154.1648 C   0  0  2  0  0  0  0  0  0  0  0  0
  146.6358  142.2655  153.8127 C   0  0  0  0  0  0  0  0  0  0  0  0
  145.4820  142.3567  154.8175 C   0  0  0  0  0  0  0  0  0  0  0  0
  145.3785  141.0157  155.3827 N   0  0  0  0  0  0  0  0  0  0  0  0
  144.6805  140.9715  156.6658 C   0  0  0  0  0  0  0  0  0  0  0  0
  143.1473  140.9249  156.5175 C   0  0  0  0  0  0  0  0  0  0  0  0
  142.6023  140.9122  157.7334 F   0  0  0  0  0  0  0  0  0  0  0  0
  142.6865  141.9924  155.8662 F   0  0  0  0  0  0  0  0  0  0  0  0
  142.7734  139.8185  155.8739 F   0  0  0  0  0  0  0  0  0  0  0  0
  146.7626  140.5868  155.5185 C   0  0  0  0  0  0  0  0  0  0  0  0
  151.2484  144.2544  158.6640 C   0  0  0  0  0  0  0  0  0  0  0  0
  152.8232  145.8797  161.2600 H   0  0  0  0  0  0  0  0  0  0  0  0
  151.1183  146.0951  160.8471 H   0  0  0  0  0  0  0  0  0  0  0  0
  152.3759  146.6140  159.7171 H   0  0  0  0  0  0  0  0  0  0  0  0
  153.5062  143.5656  161.1292 H   0  0  0  0  0  0  0  0  0  0  0  0
  154.0144  141.1784  161.0841 H   0  0  0  0  0  0  0  0  0  0  0  0
  154.4585  140.8464  159.4058 H   0  0  0  0  0  0  0  0  0  0  0  0
  153.0167  140.0992  160.1063 H   0  0  0  0  0  0  0  0  0  0  0  0
  150.0036  143.7195  156.5807 H   0  0  0  0  0  0  0  0  0  0  0  0
  149.0992  142.9984  154.9904 H   0  0  0  0  0  0  0  0  0  0  0  0
  149.2416  141.3472  153.1770 H   0  0  0  0  0  0  0  0  0  0  0  0
  149.3393  140.0896  154.3964 H   0  0  0  0  0  0  0  0  0  0  0  0
  147.0595  140.1995  153.4460 H   0  0  0  0  0  0  0  0  0  0  0  0
  147.2835  143.1382  153.9051 H   0  0  0  0  0  0  0  0  0  0  0  0
  146.2684  142.2341  152.7865 H   0  0  0  0  0  0  0  0  0  0  0  0
  145.7324  143.0746  155.6004 H   0  0  0  0  0  0  0  0  0  0  0  0
  144.5517  142.6740  154.3461 H   0  0  0  0  0  0  0  0  0  0  0  0
  144.9979  140.0664  157.1856 H   0  0  0  0  0  0  0  0  0  0  0  0
  144.9802  141.8118  157.2932 H   0  0  0  0  0  0  0  0  0  0  0  0
  146.8405  139.5191  155.7270 H   0  0  0  0  0  0  0  0  0  0  0  0
  147.2532  141.1354  156.3249 H   0  0  0  0  0  0  0  0  0  0  0  0
  150.6352  145.0527  158.2711 H   0  0  0  0  0  0  0  0  0  0  0  0
  1  2  1  0  0  0  0
  1 24  1  0  0  0  0
  1 25  1  0  0  0  0
  1 26  1  0  0  0  0
  2 23  1  0  0  0  0
  2  3  2  0  0  0  0
  3  4  1  0  0  0  0
  3 27  1  0  0  0  0
  4  5  1  0  0  0  0
  4  6  2  0  0  0  0
  5 28  1  0  0  0  0
  5 29  1  0  0  0  0
  5 30  1  0  0  0  0
  6  7  1  0  0  0  0
  7  8  1  0  0  0  0
  7 23  2  0  0  0  0
  8  9  1  0  0  0  0
  8 31  1  0  0  0  0
  9 10  2  0  0  0  0
  9 11  1  0  0  0  0
 11 12  1  0  0  0  0
 11 32  1  0  0  0  0
 12 13  1  0  0  0  0
 12 33  1  0  0  0  0
 12 34  1  0  0  0  0
 13 22  1  0  0  0  0
 13 14  1  0  0  0  0
 13 35  1  0  0  0  0
 14 15  1  0  0  0  0
 14 36  1  0  0  0  0
 14 37  1  0  0  0  0
 15 16  1  0  0  0  0
 15 38  1  0  0  0  0
 15 39  1  0  0  0  0
 16 17  1  0  0  0  0
 16 22  1  0  0  0  0
 17 18  1  0  0  0  0
 17 40  1  0  0  0  0
 17 41  1  0  0  0  0
 18 19  1  0  0  0  0
 18 20  1  0  0  0  0
 18 21  1  0  0  0  0
 22 42  1  0  0  0  0
 22 43  1  0  0  0  0
 23 44  1  0  0  0  0
M  END
> <s_m_source_file>
AV-unprocessed.smi

> <i_m_source_file_index>
2245

> <i_lp_mmshare_version>
43012

> <i_f3d_flags>
0

> <s_epik_input>
W0NIM11jMVtjSF1jKFtDSDNdKW5jKFtjSF0xKVtOSF1DKD1PKVtOSF1bQ0gyXVtDQEBIXTJbQ0gyXVtDSDJdTihbQ0gyXTIpW0NIMl1DKEYpKEYpRg==

> <s_epik_cmdline>
J2VwaWtfcHl0aG9uJywgJy1waCcsICc3LjAnLCAnLXRuJywgJzgnLCAnLW1hJywgJzIwMCcsICctbWV0YWxfYmluZGluZycsICctaW1hZScsICc8aW5maWxlLm1hZT4nLCAnLW9tYWUnLCAnPG91dGZpbGUubWFlPic=

> <r_epik_Ionization_Penalty>
0.252219

> <r_epik_Ionization_Penalty_Charging>
0

> <r_epik_Ionization_Penalty_Neutral>
0.252219

> <r_epik_State_Penalty>
0.24335

> <r_epik_Charging_Adjusted_Penalty>
0.24335

> <i_epik_Tot_Q>
0

> <i_epik_Tot_abs_Q>
0

> <r_epik_Metal_State_Penalty>
0.243337

> <b_epik_Metal_Only>
0

> <s_lp_Force_Field>
OPLS_2005

> <r_lp_Energy>
29.2312

> <b_lp_Chiralities_Consistent>
1

> <s_lp_Variant>
AV-unprocessed.smi:2245-1

> <Gold.Version>
5.8.1

> <Gold.Id.Protein>
6NUR|6NUR_protein|mol2

> <Gold.PLP.Fitness>
47.8211

> <Gold.PLP.PLP>
-42.0929

> <Gold.PLP.part.hbond>
-2.0000

> <Gold.PLP.part.metal>
0.0000

> <Gold.PLP.part.buried>
-6.2590

> <Gold.PLP.part.nonpolar>
-34.0282

> <Gold.PLP.part.repulsive>
0.3936

> <Gold.PLP.ligand.clash>
0.0000

> <Gold.PLP.ligand.torsion>
0.2410

> <Gold.PLP.Chemscore.Hbond>
1.9440

> <Gold.PLP.Chemscore.CHOScore>
0.0000

> <Gold.PLP.Chemscore.Metal>
0.0000

> <Gold.Chemscore.Hbonds>
donor molecule, donor type, donor heavy atom, donor atom, acceptor molecule, acceptor atom, score
      L1  H     8    31       P1  8028  1.00
      L1  H    11    32       P1  8028  0.99

> <Gold.PLP.Chemscore.Internal.Correction>
0.3782

> <Gold.Rescore>
     Score         DG    S(hbond)    S(metal)    S(lipo)     H(rot)  DE(clash)    DE(int)     intcor
     17.42     -19.07       1.91        0.00      96.19       1.58       0.00       1.65       ----

> <Gold.Chemscore.Fitness>
17.4178

> <Gold.Chemscore.DG>
-19.0667

> <Gold.Chemscore.ZeroCoef>
-5.4800

> <Gold.Chemscore.Hbond>
1.9113

> <Gold.Chemscore.Metal>
0.0000

> <Gold.Chemscore.Lipo>
96.1919

> <Gold.Chemscore.Internal_Hbond>
0.0000

> <Gold.Chemscore.DEClash>
0.0029

> <Gold.Chemscore.DEInternal>
1.6460

> <Gold.Chemscore.Rot>
1.5826

> <Gold.Chemscore.Internal.Correction>
   9.000000E+99

> <Gold.Chemscore.Hbonds>
donor molecule, donor type, donor heavy atom, donor atom, acceptor molecule, acceptor atom, score
      L1  H     8    31       P1  8028  0.99
      L1  H    11    32       P1  8028  0.94

> <Gold.Chemscore.Hbond.Weighted>
-6.3837

> <Gold.Chemscore.Metal.Weighted>
-0.0000

> <Gold.Chemscore.Lipo.Weighted>
-11.2544

> <Gold.Chemscore.Internal_Hbond.Weighted>
0.0000

> <Gold.Chemscore.DEClash.Weighted>
0.0029

> <Gold.Chemscore.DEInternal.Weighted>
1.6460

> <Gold.Chemscore.Rot.Weighted>
4.0515

> <Gold.Chemscore.Internal.Correction.Weighted>
   9.000000E+99

> <Gold.Protein.RotatedTorsions>
[ 6907 6896 6895 6894 ] final -153.10 input  -60.11 | X-H torsion
[ 7974 7965 7964 7962 ] final   26.34 input  175.53 | X-H torsion
[ 8008 7997 7996 7995 ] final   83.48 input   59.86 | X-H torsion
[ 10167 10162 10161 10158 ] final   -6.97 input  -65.29 | X-H torsion
[ 10718 10713 10712 10709 ] final  -84.40 input   66.30 | X-H torsion
[ 10763 10752 10751 10750 ] final  145.84 input  -60.55 | X-H torsion
[ 11005 11000 10999 10996 ] final -107.40 input  -57.11 | X-H torsion

> <Gold.Protein.ActiveResidues>
 VAL166  LYS551  ARG553  GLY616  TRP617  ASP618  TYR619  PRO620  LYS621  CYS622 
 ASP623  PHE694  ASN695  SER759  ASP760  ASP761  ALA762  ILE779  LEU786  VAL792 
 PHE793  MET794  SER795  GLU796  ALA797  LYS798  CYS799  TRP800  GLU811  SER814 

> <Gold.Protein.RotatedAtoms>
  151.2375  133.4417  159.2605 H   0  0  0  0  0  0  0  0  0  0  0  0  # atno 6907 bound_to 6896
  151.0736  134.9814  159.8331 H   0  0  0  0  0  0  0  0  0  0  0  0  # atno 6908 bound_to 6896
  152.5415  134.2319  159.8881 H   0  0  0  0  0  0  0  0  0  0  0  0  # atno 6909 bound_to 6896
  146.1842  139.7342  142.8878 H   0  0  0  0  0  0  0  0  0  0  0  0  # atno 7974 bound_to 7965
  155.9244  140.3419  155.6199 H   0  0  0  0  0  0  0  0  0  0  0  0  # atno 8008 bound_to 7997
  155.7234  140.0786  157.2339 H   0  0  0  0  0  0  0  0  0  0  0  0  # atno 8009 bound_to 7997
  154.4075  140.1601  156.2415 H   0  0  0  0  0  0  0  0  0  0  0  0  # atno 8010 bound_to 7997
  140.7014  143.6134  150.8682 H   0  0  0  0  0  0  0  0  0  0  0  0  # atno 10167 bound_to 10162
  156.0007  130.4697  150.4404 H   0  0  0  0  0  0  0  0  0  0  0  0  # atno 10718 bound_to 10713
  154.0120  135.2913  155.3391 H   0  0  0  0  0  0  0  0  0  0  0  0  # atno 10763 bound_to 10752
  154.7097  135.5154  153.8651 H   0  0  0  0  0  0  0  0  0  0  0  0  # atno 10764 bound_to 10752
  153.0719  135.6650  154.0351 H   0  0  0  0  0  0  0  0  0  0  0  0  # atno 10765 bound_to 10752
  141.0956  133.8978  157.1971 H   0  0  0  0  0  0  0  0  0  0  0  0  # atno 11005 bound_to 11000
  145.3986  141.0382  143.3083 LP  0  0  0  0  0  0  0  0  0  0  0  0  # atno 17320 bound_to 7965
  144.8369  139.5536  143.6918 LP  0  0  0  0  0  0  0  0  0  0  0  0  # atno 17321 bound_to 7965
  139.9856  143.5903  152.2928 LP  0  0  0  0  0  0  0  0  0  0  0  0  # atno 17342 bound_to 10162
  139.6539  144.7661  151.2093 LP  0  0  0  0  0  0  0  0  0  0  0  0  # atno 17343 bound_to 10162
  157.2446  131.0533  151.2416 LP  0  0  0  0  0  0  0  0  0  0  0  0  # atno 17370 bound_to 10713
  157.3587  130.7120  149.6488 LP  0  0  0  0  0  0  0  0  0  0  0  0  # atno 17371 bound_to 10713
  139.9792  135.0104  156.9706 LP  0  0  0  0  0  0  0  0  0  0  0  0  # atno 17394 bound_to 11000
  140.5149  134.0965  155.7278 LP  0  0  0  0  0  0  0  0  0  0  0  0  # atno 17395 bound_to 11000

$$$$
