AV-unprocessed.smi:387|AV-procd|sdf|2474|dock7
  -GOLD-   2262022413D 1   1.00000     0.00000
 Structure written by MMmdl.
 39 40  0  0  0  0  0  0  0  0  1 V2000
  148.9670  141.5086  153.8718 C   0  0  0  0  0  0  0  0  0  0  0  0
  148.9771  140.6394  155.1419 C   0  0  0  0  0  0  0  0  0  0  0  0
  147.9834  141.2323  156.1630 C   0  0  0  0  0  0  0  0  0  0  0  0
  148.5745  139.1977  154.7656 C   0  0  0  0  0  0  0  0  0  0  0  0
  150.3457  140.6755  155.6712 N   0  0  0  0  0  0  0  0  0  0  0  0
  150.8360  140.0679  156.7658 C   0  0  0  0  0  0  0  0  0  0  0  0
  150.1635  139.3556  157.5127 O   0  0  0  0  0  0  0  0  0  0  0  0
  152.3257  140.3191  157.0464 C   0  0  0  0  0  0  0  0  0  0  0  0
  152.5740  141.0872  158.2862 N   0  0  0  0  0  0  0  0  0  0  0  0
  153.5072  140.5782  159.2251 C   0  0  0  0  0  0  0  0  0  0  0  0
  154.1232  139.5336  159.0059 O   0  0  0  0  0  0  0  0  0  0  0  0
  153.6619  141.3637  160.4472 C   0  0  0  0  0  0  0  0  0  0  0  0
  154.5665  140.8667  161.4303 C   0  0  0  0  0  0  0  0  0  0  0  0
  155.2835  140.4670  162.2460 N   0  0  0  0  0  0  0  0  0  0  0  0
  152.9686  142.5061  160.6316 C   0  0  0  0  0  0  0  0  0  0  0  0
  152.0956  143.0040  159.6891 N   0  0  0  0  0  0  0  0  0  0  0  0
  151.2527  144.1314  159.9715 C   0  0  0  0  0  0  0  0  0  0  0  0
  151.1245  145.2622  158.9694 C   0  0  0  0  0  0  0  0  0  0  0  0
  151.8924  145.4739  160.2513 C   0  0  0  0  0  0  0  0  0  0  0  0
  151.8353  142.2749  158.5082 C   0  0  0  0  0  0  0  0  0  0  0  0
  150.9833  142.6520  157.6996 O   0  0  0  0  0  0  0  0  0  0  0  0
  147.9765  141.5347  153.4162 H   0  0  0  0  0  0  0  0  0  0  0  0
  149.6617  141.1265  153.1227 H   0  0  0  0  0  0  0  0  0  0  0  0
  149.2536  142.5381  154.0909 H   0  0  0  0  0  0  0  0  0  0  0  0
  148.2747  142.2398  156.4619 H   0  0  0  0  0  0  0  0  0  0  0  0
  147.9133  140.6277  157.0671 H   0  0  0  0  0  0  0  0  0  0  0  0
  146.9792  141.2938  155.7424 H   0  0  0  0  0  0  0  0  0  0  0  0
  147.5963  139.1768  154.2839 H   0  0  0  0  0  0  0  0  0  0  0  0
  148.5133  138.5466  155.6377 H   0  0  0  0  0  0  0  0  0  0  0  0
  149.2899  138.7538  154.0723 H   0  0  0  0  0  0  0  0  0  0  0  0
  150.9984  141.2331  155.1396 H   0  0  0  0  0  0  0  0  0  0  0  0
  152.8398  139.3569  157.0741 H   0  0  0  0  0  0  0  0  0  0  0  0
  152.7593  140.8242  156.1817 H   0  0  0  0  0  0  0  0  0  0  0  0
  153.1044  143.0567  161.5514 H   0  0  0  0  0  0  0  0  0  0  0  0
  150.3561  143.9062  160.5467 H   0  0  0  0  0  0  0  0  0  0  0  0
  151.7024  145.2037  158.0489 H   0  0  0  0  0  0  0  0  0  0  0  0
  150.1527  145.7428  158.8789 H   0  0  0  0  0  0  0  0  0  0  0  0
  151.4333  146.0986  161.0148 H   0  0  0  0  0  0  0  0  0  0  0  0
  152.9754  145.5527  160.1749 H   0  0  0  0  0  0  0  0  0  0  0  0
  1  2  1  0  0  0  0
  1 22  1  0  0  0  0
  1 23  1  0  0  0  0
  1 24  1  0  0  0  0
  2  3  1  0  0  0  0
  2  4  1  0  0  0  0
  2  5  1  0  0  0  0
  3 25  1  0  0  0  0
  3 26  1  0  0  0  0
  3 27  1  0  0  0  0
  4 28  1  0  0  0  0
  4 29  1  0  0  0  0
  4 30  1  0  0  0  0
  5  6  1  0  0  0  0
  5 31  1  0  0  0  0
  6  7  2  0  0  0  0
  6  8  1  0  0  0  0
  8  9  1  0  0  0  0
  8 32  1  0  0  0  0
  8 33  1  0  0  0  0
  9 20  1  0  0  0  0
  9 10  1  0  0  0  0
 10 11  2  0  0  0  0
 10 12  1  0  0  0  0
 12 13  1  0  0  0  0
 12 15  2  0  0  0  0
 13 14  3  0  0  0  0
 15 16  1  0  0  0  0
 15 34  1  0  0  0  0
 16 17  1  0  0  0  0
 16 20  1  0  0  0  0
 17 19  1  0  0  0  0
 17 18  1  0  0  0  0
 17 35  1  0  0  0  0
 18 19  1  0  0  0  0
 18 36  1  0  0  0  0
 18 37  1  0  0  0  0
 19 38  1  0  0  0  0
 19 39  1  0  0  0  0
 20 21  2  0  0  0  0
M  END
> <s_m_source_file>
AV-unprocessed.smi

> <i_m_source_file_index>
387

> <i_lp_mmshare_version>
43012

> <i_f3d_flags>
0

> <s_epik_input>
W0NIM11DKFtDSDNdKShbQ0gzXSlbTkhdQyg9TylbQ0gyXW4xYyg9TyljKEMjTilbY0hdbihjMT1PKVtDSF0yW0NIMl1bQ0gyXTI=

> <s_epik_cmdline>
J2VwaWtfcHl0aG9uJywgJy1waCcsICc3LjAnLCAnLXRuJywgJzgnLCAnLW1hJywgJzIwMCcsICctbWV0YWxfYmluZGluZycsICctaW1hZScsICc8aW5maWxlLm1hZT4nLCAnLW9tYWUnLCAnPG91dGZpbGUubWFlPic=

> <r_lp_tautomer_probability>
1

> <r_epik_Ionization_Penalty>
2.47136e-08

> <r_epik_Ionization_Penalty_Charging>
8.30431e-11

> <r_epik_Ionization_Penalty_Neutral>
2.46306e-08

> <r_epik_State_Penalty>
-0

> <r_epik_Charging_Adjusted_Penalty>
8.30431e-11

> <i_epik_Tot_Q>
0

> <i_epik_Tot_abs_Q>
0

> <r_epik_Metal_State_Penalty>
-0

> <b_epik_Metal_Only>
0

> <s_lp_Force_Field>
OPLS_2005

> <r_lp_Energy>
29.2267

> <b_lp_Chiralities_Consistent>
1

> <s_lp_Variant>
AV-unprocessed.smi:387-1

> <Gold.Version>
5.8.1

> <Gold.Id.Protein>
6NUR|6NUR_protein|mol2

> <Gold.PLP.Fitness>
43.2139

> <Gold.PLP.PLP>
-40.5150

> <Gold.PLP.part.hbond>
-2.0000

> <Gold.PLP.part.metal>
0.0000

> <Gold.PLP.part.buried>
-4.3121

> <Gold.PLP.part.nonpolar>
-33.6471

> <Gold.PLP.part.repulsive>
0.1873

> <Gold.PLP.ligand.clash>
0.0000

> <Gold.PLP.ligand.torsion>
0.2580

> <Gold.PLP.Chemscore.Hbond>
1.0000

> <Gold.PLP.Chemscore.CHOScore>
0.0000

> <Gold.PLP.Chemscore.Metal>
0.0000

> <Gold.Chemscore.Hbonds>
donor molecule, donor type, donor heavy atom, donor atom, acceptor molecule, acceptor atom, score
      P1  H  7997  8010       L1    11  1.00

> <Gold.PLP.Chemscore.Internal.Correction>
0.2148

> <Gold.Rescore>
     Score         DG    S(hbond)    S(metal)    S(lipo)     H(rot)  DE(clash)    DE(int)     intcor
      8.99     -11.86       0.55        0.00      77.68       1.78       0.37       2.49       ----

> <Gold.Chemscore.Fitness>
8.9935

> <Gold.Chemscore.DG>
-11.8556

> <Gold.Chemscore.ZeroCoef>
-5.4800

> <Gold.Chemscore.Hbond>
0.5487

> <Gold.Chemscore.Metal>
0.0000

> <Gold.Chemscore.Lipo>
77.6832

> <Gold.Chemscore.Internal_Hbond>
0.0000

> <Gold.Chemscore.DEClash>
0.3721

> <Gold.Chemscore.DEInternal>
2.4901

> <Gold.Chemscore.Rot>
1.7757

> <Gold.Chemscore.Internal.Correction>
   9.000000E+99

> <Gold.Chemscore.Hbonds>
donor molecule, donor type, donor heavy atom, donor atom, acceptor molecule, acceptor atom, score
      P1  H  7997  8010       L1    11  0.25

> <Gold.Chemscore.Hbond.Weighted>
-1.8326

> <Gold.Chemscore.Metal.Weighted>
-0.0000

> <Gold.Chemscore.Lipo.Weighted>
-9.0889

> <Gold.Chemscore.Internal_Hbond.Weighted>
0.0000

> <Gold.Chemscore.DEClash.Weighted>
0.3721

> <Gold.Chemscore.DEInternal.Weighted>
2.4901

> <Gold.Chemscore.Rot.Weighted>
4.5459

> <Gold.Chemscore.Internal.Correction.Weighted>
   9.000000E+99

> <Gold.Protein.RotatedTorsions>
[ 6907 6896 6895 6894 ] final  153.19 input  -60.11 | X-H torsion
[ 7974 7965 7964 7962 ] final   49.99 input  175.53 | X-H torsion
[ 8008 7997 7996 7995 ] final    2.89 input   59.86 | X-H torsion
[ 10167 10162 10161 10158 ] final  -24.24 input  -65.29 | X-H torsion
[ 10718 10713 10712 10709 ] final  -23.95 input   66.30 | X-H torsion
[ 10763 10752 10751 10750 ] final -153.56 input  -60.55 | X-H torsion
[ 11005 11000 10999 10996 ] final -103.31 input  -57.11 | X-H torsion

> <Gold.Protein.ActiveResidues>
 VAL166  LYS551  ARG553  GLY616  TRP617  ASP618  TYR619  PRO620  LYS621  CYS622 
 ASP623  PHE694  ASN695  SER759  ASP760  ASP761  ALA762  ILE779  LEU786  VAL792 
 PHE793  MET794  SER795  GLU796  ALA797  LYS798  CYS799  TRP800  GLU811  SER814 

> <Gold.Protein.RotatedAtoms>
  152.0761  133.4130  159.4480 H   0  0  0  0  0  0  0  0  0  0  0  0  # atno 6907 bound_to 6896
  150.6863  134.3036  159.4726 H   0  0  0  0  0  0  0  0  0  0  0  0  # atno 6908 bound_to 6896
  152.0872  134.9431  160.0623 H   0  0  0  0  0  0  0  0  0  0  0  0  # atno 6909 bound_to 6896
  146.0056  139.4486  142.9988 H   0  0  0  0  0  0  0  0  0  0  0  0  # atno 7974 bound_to 7965
  154.6971  140.2665  155.6756 H   0  0  0  0  0  0  0  0  0  0  0  0  # atno 8008 bound_to 7997
  156.2752  140.2779  156.1492 H   0  0  0  0  0  0  0  0  0  0  0  0  # atno 8009 bound_to 7997
  155.0816  140.0372  157.2631 H   0  0  0  0  0  0  0  0  0  0  0  0  # atno 8010 bound_to 7997
  140.7288  143.4371  151.0713 H   0  0  0  0  0  0  0  0  0  0  0  0  # atno 10167 bound_to 10162
  156.4842  130.4552  149.6793 H   0  0  0  0  0  0  0  0  0  0  0  0  # atno 10718 bound_to 10713
  154.7919  135.3210  154.7757 H   0  0  0  0  0  0  0  0  0  0  0  0  # atno 10763 bound_to 10752
  153.8444  135.6868  153.4803 H   0  0  0  0  0  0  0  0  0  0  0  0  # atno 10764 bound_to 10752
  153.1593  135.4667  154.9690 H   0  0  0  0  0  0  0  0  0  0  0  0  # atno 10765 bound_to 10752
  141.1151  133.8630  157.1470 H   0  0  0  0  0  0  0  0  0  0  0  0  # atno 11005 bound_to 11000
  145.7421  141.0004  143.1295 LP  0  0  0  0  0  0  0  0  0  0  0  0  # atno 17320 bound_to 7965
  144.6934  139.9112  143.7463 LP  0  0  0  0  0  0  0  0  0  0  0  0  # atno 17321 bound_to 7965
  139.8034  143.8051  152.3165 LP  0  0  0  0  0  0  0  0  0  0  0  0  # atno 17342 bound_to 10162
  139.8076  144.7349  150.9740 LP  0  0  0  0  0  0  0  0  0  0  0  0  # atno 17343 bound_to 10162
  156.3491  130.7422  151.2379 LP  0  0  0  0  0  0  0  0  0  0  0  0  # atno 17370 bound_to 10713
  157.7480  131.0382  150.4492 LP  0  0  0  0  0  0  0  0  0  0  0  0  # atno 17371 bound_to 10713
  140.0068  135.0005  157.0310 LP  0  0  0  0  0  0  0  0  0  0  0  0  # atno 17394 bound_to 11000
  140.4668  134.1427  155.7198 LP  0  0  0  0  0  0  0  0  0  0  0  0  # atno 17395 bound_to 11000

$$$$
