AV-unprocessed.smi:1110|AV-procd|sdf|4790|dock5
  -GOLD-   22720 3333D 1   1.00000     0.00000
 Structure written by MMmdl.
 44 45  0  0  0  0  0  0  0  0  2 V2000
  151.2557  135.9607  156.1769 C   0  0  0  0  0  0  0  0  0  0  0  0
  150.6732  136.9198  155.1300 C   0  0  0  0  0  0  0  0  0  0  0  0
  149.1329  137.0708  155.2175 C   0  0  2  0  0  0  0  0  0  0  0  0
  148.4049  135.7045  155.2372 C   0  0  0  0  0  0  0  0  0  0  0  0
  148.4225  135.0638  153.9243 N   0  0  0  0  0  0  0  0  0  0  0  0
  148.0304  133.8067  153.6667 C   0  0  0  0  0  0  0  0  0  0  0  0
  147.4978  133.0771  154.5028 O   0  0  0  0  0  0  0  0  0  0  0  0
  148.3096  133.2876  152.2509 C   0  0  0  0  0  0  0  0  0  0  0  0
  147.0769  133.1251  151.4605 N   0  0  0  0  0  0  0  0  0  0  0  0
  146.3837  134.2975  151.0990 C   0  0  0  0  0  0  0  0  0  0  0  0
  145.2526  134.2598  150.3768 C   0  0  0  0  0  0  0  0  0  0  0  0
  144.7469  132.9715  149.9658 C   0  0  0  0  0  0  0  0  0  0  0  0
  145.3988  131.8430  150.3092 C   0  0  0  0  0  0  0  0  0  0  0  0
  146.6332  131.8788  151.1016 C   0  0  0  0  0  0  0  0  0  0  0  0
  147.2296  130.8510  151.4277 O   0  0  0  0  0  0  0  0  0  0  0  0
  148.5648  137.9725  154.1719 N   0  3  0  0  0  0  0  0  0  0  0  0
  147.0924  138.1307  154.1964 C   0  0  0  0  0  0  0  0  0  0  0  0
  146.8207  139.5115  153.6043 C   0  0  0  0  0  0  0  0  0  0  0  0
  148.0225  140.3228  154.0743 C   0  0  0  0  0  0  0  0  0  0  0  0
  149.1753  139.3175  154.0216 C   0  0  0  0  0  0  0  0  0  0  0  0
  152.3436  135.9349  156.1111 H   0  0  0  0  0  0  0  0  0  0  0  0
  150.8978  134.9414  156.0341 H   0  0  0  0  0  0  0  0  0  0  0  0
  150.9937  136.2719  157.1884 H   0  0  0  0  0  0  0  0  0  0  0  0
  151.1560  137.8873  155.2629 H   0  0  0  0  0  0  0  0  0  0  0  0
  150.9689  136.5726  154.1404 H   0  0  0  0  0  0  0  0  0  0  0  0
  148.9049  137.5545  156.1691 H   0  0  0  0  0  0  0  0  0  0  0  0
  148.8413  135.0532  155.9963 H   0  0  0  0  0  0  0  0  0  0  0  0
  147.3609  135.8382  155.5196 H   0  0  0  0  0  0  0  0  0  0  0  0
  148.8255  135.5954  153.1656 H   0  0  0  0  0  0  0  0  0  0  0  0
  149.0027  133.9775  151.7679 H   0  0  0  0  0  0  0  0  0  0  0  0
  148.8364  132.3323  152.2982 H   0  0  0  0  0  0  0  0  0  0  0  0
  146.8227  135.2210  151.4474 H   0  0  0  0  0  0  0  0  0  0  0  0
  144.7335  135.1691  150.1113 H   0  0  0  0  0  0  0  0  0  0  0  0
  143.8416  132.9124  149.3795 H   0  0  0  0  0  0  0  0  0  0  0  0
  145.0055  130.8882  149.9917 H   0  0  0  0  0  0  0  0  0  0  0  0
  146.6016  137.3351  153.6352 H   0  0  0  0  0  0  0  0  0  0  0  0
  146.7147  138.0947  155.2183 H   0  0  0  0  0  0  0  0  0  0  0  0
  146.8138  139.4552  152.5147 H   0  0  0  0  0  0  0  0  0  0  0  0
  145.8689  139.9331  153.9284 H   0  0  0  0  0  0  0  0  0  0  0  0
  148.2037  141.2074  153.4628 H   0  0  0  0  0  0  0  0  0  0  0  0
  147.8648  140.6512  155.1028 H   0  0  0  0  0  0  0  0  0  0  0  0
  149.9502  139.5450  154.7523 H   0  0  0  0  0  0  0  0  0  0  0  0
  149.6460  139.3572  153.0391 H   0  0  0  0  0  0  0  0  0  0  0  0
  148.7532  137.5085  153.2942 H   0  0  0  0  0  0  0  0  0  0  0  0
  1  2  1  0  0  0  0
  1 21  1  0  0  0  0
  1 22  1  0  0  0  0
  1 23  1  0  0  0  0
  2  3  1  0  0  0  0
  2 24  1  0  0  0  0
  2 25  1  0  0  0  0
  3  4  1  0  0  0  0
  3 16  1  0  0  0  0
  3 26  1  0  0  0  0
  4  5  1  0  0  0  0
  4 27  1  0  0  0  0
  4 28  1  0  0  0  0
  5  6  1  0  0  0  0
  5 29  1  0  0  0  0
  6  7  2  0  0  0  0
  6  8  1  0  0  0  0
  8  9  1  0  0  0  0
  8 30  1  0  0  0  0
  8 31  1  0  0  0  0
  9 14  1  0  0  0  0
  9 10  1  0  0  0  0
 10 11  2  0  0  0  0
 10 32  1  0  0  0  0
 11 12  1  0  0  0  0
 11 33  1  0  0  0  0
 12 13  2  0  0  0  0
 12 34  1  0  0  0  0
 13 14  1  0  0  0  0
 13 35  1  0  0  0  0
 14 15  2  0  0  0  0
 16 20  1  0  0  0  0
 16 17  1  0  0  0  0
 16 44  1  0  0  0  0
 17 18  1  0  0  0  0
 17 36  1  0  0  0  0
 17 37  1  0  0  0  0
 18 19  1  0  0  0  0
 18 38  1  0  0  0  0
 18 39  1  0  0  0  0
 19 20  1  0  0  0  0
 19 40  1  0  0  0  0
 19 41  1  0  0  0  0
 20 42  1  0  0  0  0
 20 43  1  0  0  0  0
M  CHG  1  16   1
M  END
> <s_m_source_file>
AV-unprocessed.smi

> <i_m_source_file_index>
1110

> <i_lp_mmshare_version>
43012

> <i_f3d_flags>
0

> <s_epik_input>
W0NIMl0xW0NIMl1bQ0gyXVtDSDJdTjFbQ0BIXShbQ0gyXVtDSDNdKVtDSDJdW05IXUMoPU8pW0NIMl1uMltjSF1bY0hdW2NIXVtjSF1jMj1P

> <s_epik_cmdline>
J2VwaWtfcHl0aG9uJywgJy1waCcsICc3LjAnLCAnLXRuJywgJzgnLCAnLW1hJywgJzIwMCcsICctbWV0YWxfYmluZGluZycsICctaW1hZScsICc8aW5maWxlLm1hZT4nLCAnLW9tYWUnLCAnPG91dGZpbGUubWFlPic=

> <r_lp_tautomer_probability>
1

> <r_epik_Ionization_Penalty>
0.00361135

> <r_epik_Ionization_Penalty_Charging>
0.00361127

> <r_epik_Ionization_Penalty_Neutral>
7.8489e-08

> <r_epik_State_Penalty>
0.00256751

> <r_epik_Charging_Adjusted_Penalty>
0.00617878

> <i_epik_Tot_Q>
1

> <i_epik_Tot_abs_Q>
1

> <r_epik_Metal_State_Penalty>
-0

> <b_epik_Metal_Only>
0

> <s_lp_Force_Field>
OPLS_2005

> <r_lp_Energy>
45.664

> <b_lp_Chiralities_Consistent>
1

> <s_lp_Variant>
AV-unprocessed.smi:1110-1

> <Gold.Version>
5.8.1

> <Gold.Id.Protein>
6NUR|6NUR_protein|mol2

> <Gold.PLP.Fitness>
43.7605

> <Gold.PLP.PLP>
-32.1807

> <Gold.PLP.part.hbond>
-2.0000

> <Gold.PLP.part.metal>
0.0000

> <Gold.PLP.part.buried>
-3.1034

> <Gold.PLP.part.nonpolar>
-27.4500

> <Gold.PLP.part.repulsive>
0.5455

> <Gold.PLP.ligand.clash>
0.0000

> <Gold.PLP.ligand.torsion>
0.3197

> <Gold.PLP.Chemscore.Hbond>
3.0000

> <Gold.PLP.Chemscore.CHOScore>
0.9910

> <Gold.PLP.Chemscore.Metal>
0.0000

> <Gold.Chemscore.Hbonds>
donor molecule, donor type, donor heavy atom, donor atom, acceptor molecule, acceptor atom, score
      L1  H     5    29       P1  7948  0.75
      L1  H    16    44       P1  7948  2.00
      L1  C    10    32       P1  7948  1.00

> <Gold.PLP.Chemscore.Internal.Correction>
0.2464

> <Gold.Rescore>
     Score         DG    S(hbond)    S(metal)    S(lipo)     H(rot)  DE(clash)    DE(int)     intcor
     14.47     -15.23       1.97        0.00      70.62       1.99       0.11       0.66       ----

> <Gold.Chemscore.Fitness>
14.4701

> <Gold.Chemscore.DG>
-15.2341

> <Gold.Chemscore.ZeroCoef>
-5.4800

> <Gold.Chemscore.Hbond>
1.9713

> <Gold.Chemscore.Metal>
0.0000

> <Gold.Chemscore.Lipo>
70.6201

> <Gold.Chemscore.Internal_Hbond>
0.0000

> <Gold.Chemscore.DEClash>
0.1058

> <Gold.Chemscore.DEInternal>
0.6582

> <Gold.Chemscore.Rot>
1.9893

> <Gold.Chemscore.Internal.Correction>
   9.000000E+99

> <Gold.Chemscore.Hbonds>
donor molecule, donor type, donor heavy atom, donor atom, acceptor molecule, acceptor atom, score
      L1  H     5    29       P1  7948  0.66
      L1  H    16    44       P1  7948  1.00

> <Gold.Chemscore.Hbond.Weighted>
-6.5842

> <Gold.Chemscore.Metal.Weighted>
-0.0000

> <Gold.Chemscore.Lipo.Weighted>
-8.2626

> <Gold.Chemscore.Internal_Hbond.Weighted>
0.0000

> <Gold.Chemscore.DEClash.Weighted>
0.1058

> <Gold.Chemscore.DEInternal.Weighted>
0.6582

> <Gold.Chemscore.Rot.Weighted>
5.0927

> <Gold.Chemscore.Internal.Correction.Weighted>
   9.000000E+99

> <Gold.Protein.RotatedTorsions>
[ 6907 6896 6895 6894 ] final   38.39 input  -60.11 | X-H torsion
[ 7974 7965 7964 7962 ] final   15.54 input  175.53 | X-H torsion
[ 8008 7997 7996 7995 ] final  -34.77 input   59.86 | X-H torsion
[ 10167 10162 10161 10158 ] final  -23.68 input  -65.29 | X-H torsion
[ 10718 10713 10712 10709 ] final   -8.66 input   66.30 | X-H torsion
[ 10763 10752 10751 10750 ] final   98.67 input  -60.55 | X-H torsion
[ 11005 11000 10999 10996 ] final   26.95 input  -57.11 | X-H torsion

> <Gold.Protein.ActiveResidues>
 VAL166  LYS551  ARG553  GLY616  TRP617  ASP618  TYR619  PRO620  LYS621  CYS622 
 ASP623  PHE694  ASN695  SER759  ASP760  ASP761  ALA762  ILE779  LEU786  VAL792 
 PHE793  MET794  SER795  GLU796  ALA797  LYS798  CYS799  TRP800  GLU811  SER814 

> <Gold.Protein.RotatedAtoms>
  152.1559  134.8951  160.0544 H   0  0  0  0  0  0  0  0  0  0  0  0  # atno 6907 bound_to 6896
  151.9966  133.3805  159.4173 H   0  0  0  0  0  0  0  0  0  0  0  0  # atno 6908 bound_to 6896
  150.6881  134.3802  159.5074 H   0  0  0  0  0  0  0  0  0  0  0  0  # atno 6909 bound_to 6896
  146.2275  139.8879  142.8559 H   0  0  0  0  0  0  0  0  0  0  0  0  # atno 7974 bound_to 7965
  154.4112  140.1675  156.2104 H   0  0  0  0  0  0  0  0  0  0  0  0  # atno 8008 bound_to 7997
  155.9449  140.3405  155.6335 H   0  0  0  0  0  0  0  0  0  0  0  0  # atno 8009 bound_to 7997
  155.6943  140.0737  157.2426 H   0  0  0  0  0  0  0  0  0  0  0  0  # atno 8010 bound_to 7997
  140.7288  143.4421  151.0642 H   0  0  0  0  0  0  0  0  0  0  0  0  # atno 10167 bound_to 10162
  156.6994  130.5088  149.5921 H   0  0  0  0  0  0  0  0  0  0  0  0  # atno 10718 bound_to 10713
  153.2919  135.4140  155.1174 H   0  0  0  0  0  0  0  0  0  0  0  0  # atno 10763 bound_to 10752
  154.8523  135.3520  154.5970 H   0  0  0  0  0  0  0  0  0  0  0  0  # atno 10764 bound_to 10752
  153.6392  135.7057  153.5305 H   0  0  0  0  0  0  0  0  0  0  0  0  # atno 10765 bound_to 10752
  140.3315  134.2433  155.7702 H   0  0  0  0  0  0  0  0  0  0  0  0  # atno 11005 bound_to 11000
  145.2446  141.0022  143.3916 LP  0  0  0  0  0  0  0  0  0  0  0  0  # atno 17320 bound_to 7965
  144.9424  139.4174  143.6442 LP  0  0  0  0  0  0  0  0  0  0  0  0  # atno 17321 bound_to 7965
  139.8089  143.7979  152.3169 LP  0  0  0  0  0  0  0  0  0  0  0  0  # atno 17342 bound_to 10162
  139.8021  144.7370  150.9810 LP  0  0  0  0  0  0  0  0  0  0  0  0  # atno 17343 bound_to 10162
  156.1740  130.6455  151.0872 LP  0  0  0  0  0  0  0  0  0  0  0  0  # atno 17370 bound_to 10713
  157.6979  131.0787  150.6912 LP  0  0  0  0  0  0  0  0  0  0  0  0  # atno 17371 bound_to 10713
  141.2062  133.7839  157.0190 LP  0  0  0  0  0  0  0  0  0  0  0  0  # atno 17394 bound_to 11000
  140.0857  134.9622  157.1695 LP  0  0  0  0  0  0  0  0  0  0  0  0  # atno 17395 bound_to 11000

$$$$
