AV-unprocessed.smi:240|AV-procd|sdf|1830|dock4
  -GOLD-   2262020433D 1   1.00000     0.00000
 Structure written by MMmdl.
 55 59  0  0  0  0  0  0  0  0  1 V2000
  148.0760  142.0400  155.0373 O   0  0  0  0  0  0  0  0  0  0  0  0
  148.0430  141.2125  156.1859 C   0  0  2  0  0  0  0  0  0  0  0  0
  147.4873  142.0289  157.3574 C   0  0  0  0  0  0  0  0  0  0  0  0
  148.6976  142.6964  158.0206 C   0  0  0  0  0  0  0  0  0  0  0  0
  149.9388  142.0880  157.3566 C   0  0  0  0  0  0  0  0  0  0  0  0
  149.4665  140.8122  156.6339 C   0  0  2  0  0  0  0  0  0  0  0  0
  150.4481  140.2634  155.5428 C   0  0  1  0  0  0  0  0  0  0  0  0
  151.8971  140.2065  156.0963 C   0  0  0  0  0  0  0  0  0  0  0  0
  152.7991  139.6706  155.1364 O   0  0  0  0  0  0  0  0  0  0  0  0
  152.4670  138.3348  154.7928 C   0  0  0  0  0  0  0  0  0  0  0  0
  151.0782  138.3342  154.1476 C   0  0  0  0  0  0  0  0  0  0  0  0
  150.0938  138.9189  155.0540 N   0  0  0  0  0  0  0  0  0  0  0  0
  148.8498  138.7469  154.5580 C   0  0  0  0  0  0  0  0  0  0  0  0
  148.3267  139.7676  153.8355 N   0  0  0  0  0  0  0  0  0  0  0  0
  147.1035  139.6535  153.3095 C   0  0  0  0  0  0  0  0  0  0  0  0
  146.2532  138.6273  153.3869 N   0  0  0  0  0  0  0  0  0  0  0  0
  146.7718  137.6058  154.1275 C   0  0  0  0  0  0  0  0  0  0  0  0
  148.0513  137.5838  154.7495 C   0  0  0  0  0  0  0  0  0  0  0  0
  148.2352  136.3789  155.4164 N   0  0  0  0  0  0  0  0  0  0  0  0
  147.1283  135.7233  155.1966 C   0  0  0  0  0  0  0  0  0  0  0  0
  146.1934  136.3863  154.4335 N   0  0  0  0  0  0  0  0  0  0  0  0
  144.8864  135.8867  154.0343 C   0  0  0  0  0  0  0  0  0  0  0  0
  144.7675  135.6106  152.5176 C   0  0  1  0  0  0  0  0  0  0  0  0
  144.8714  136.8375  151.8152 O   0  0  0  0  0  0  0  0  0  0  0  0
  145.8185  134.6474  151.9732 C   0  0  0  0  0  0  0  0  0  0  0  0
  145.0814  133.9439  150.8423 C   0  0  0  0  0  0  0  0  0  0  0  0
  143.7825  133.7695  151.3813 O   0  0  0  0  0  0  0  0  0  0  0  0
  143.4385  134.9358  152.1226 C   0  0  0  0  0  0  0  0  0  0  0  0
  148.2302  142.9313  155.3123 H   0  0  0  0  0  0  0  0  0  0  0  0
  147.3994  140.3573  155.9882 H   0  0  0  0  0  0  0  0  0  0  0  0
  146.7268  142.7485  157.0507 H   0  0  0  0  0  0  0  0  0  0  0  0
  147.0166  141.3540  158.0736 H   0  0  0  0  0  0  0  0  0  0  0  0
  148.6801  143.7781  157.8839 H   0  0  0  0  0  0  0  0  0  0  0  0
  148.6951  142.5024  159.0938 H   0  0  0  0  0  0  0  0  0  0  0  0
  150.3379  142.7984  156.6311 H   0  0  0  0  0  0  0  0  0  0  0  0
  150.7245  141.8877  158.0860 H   0  0  0  0  0  0  0  0  0  0  0  0
  149.3643  140.0427  157.4014 H   0  0  0  0  0  0  0  0  0  0  0  0
  150.4562  140.9452  154.6921 H   0  0  0  0  0  0  0  0  0  0  0  0
  152.2596  141.2035  156.3446 H   0  0  0  0  0  0  0  0  0  0  0  0
  151.9410  139.6159  157.0132 H   0  0  0  0  0  0  0  0  0  0  0  0
  153.2090  137.9511  154.0927 H   0  0  0  0  0  0  0  0  0  0  0  0
  152.4938  137.6932  155.6751 H   0  0  0  0  0  0  0  0  0  0  0  0
  151.1106  138.9014  153.2166 H   0  0  0  0  0  0  0  0  0  0  0  0
  150.7932  137.3123  153.8925 H   0  0  0  0  0  0  0  0  0  0  0  0
  146.7571  140.5058  152.7436 H   0  0  0  0  0  0  0  0  0  0  0  0
  146.9607  134.7307  155.5893 H   0  0  0  0  0  0  0  0  0  0  0  0
  144.6813  134.9762  154.5990 H   0  0  0  0  0  0  0  0  0  0  0  0
  144.1341  136.6132  154.3445 H   0  0  0  0  0  0  0  0  0  0  0  0
  144.1543  136.8929  151.2020 H   0  0  0  0  0  0  0  0  0  0  0  0
  146.7409  135.1337  151.6524 H   0  0  0  0  0  0  0  0  0  0  0  0
  146.0792  133.9065  152.7296 H   0  0  0  0  0  0  0  0  0  0  0  0
  145.0318  134.5730  149.9522 H   0  0  0  0  0  0  0  0  0  0  0  0
  145.5352  132.9907  150.5699 H   0  0  0  0  0  0  0  0  0  0  0  0
  142.8488  134.6414  152.9914 H   0  0  0  0  0  0  0  0  0  0  0  0
  142.8125  135.5868  151.5102 H   0  0  0  0  0  0  0  0  0  0  0  0
  1  2  1  0  0  0  0
  1 29  1  0  0  0  0
  2  6  1  0  0  0  0
  2  3  1  0  0  0  0
  2 30  1  0  0  0  0
  3  4  1  0  0  0  0
  3 31  1  0  0  0  0
  3 32  1  0  0  0  0
  4  5  1  0  0  0  0
  4 33  1  0  0  0  0
  4 34  1  0  0  0  0
  5  6  1  0  0  0  0
  5 35  1  0  0  0  0
  5 36  1  0  0  0  0
  6  7  1  0  0  0  0
  6 37  1  0  0  0  0
  7 12  1  0  0  0  0
  7  8  1  0  0  0  0
  7 38  1  0  0  0  0
  8  9  1  0  0  0  0
  8 39  1  0  0  0  0
  8 40  1  0  0  0  0
  9 10  1  0  0  0  0
 10 11  1  0  0  0  0
 10 41  1  0  0  0  0
 10 42  1  0  0  0  0
 11 12  1  0  0  0  0
 11 43  1  0  0  0  0
 11 44  1  0  0  0  0
 12 13  1  0  0  0  0
 13 18  1  0  0  0  0
 13 14  2  0  0  0  0
 14 15  1  0  0  0  0
 15 16  2  0  0  0  0
 15 45  1  0  0  0  0
 16 17  1  0  0  0  0
 17 21  1  0  0  0  0
 17 18  2  0  0  0  0
 18 19  1  0  0  0  0
 19 20  2  0  0  0  0
 20 21  1  0  0  0  0
 20 46  1  0  0  0  0
 21 22  1  0  0  0  0
 22 23  1  0  0  0  0
 22 47  1  0  0  0  0
 22 48  1  0  0  0  0
 23 28  1  0  0  0  0
 23 24  1  0  0  0  0
 23 25  1  0  0  0  0
 24 49  1  0  0  0  0
 25 26  1  0  0  0  0
 25 50  1  0  0  0  0
 25 51  1  0  0  0  0
 26 27  1  0  0  0  0
 26 52  1  0  0  0  0
 26 53  1  0  0  0  0
 27 28  1  0  0  0  0
 28 54  1  0  0  0  0
 28 55  1  0  0  0  0
M  END
> <s_m_source_file>
AV-unprocessed.smi

> <i_m_source_file_index>
240

> <i_lp_mmshare_version>
43012

> <i_f3d_flags>
0

> <s_epik_input>
W09IXVtDQEBIXTFbQ0gyXVtDSDJdW0NIMl1bQ0BIXTFbQ0BASF0yW0NIMl1PW0NIMl1bQ0gyXU4yYyhuW2NIXW4zKWMoYzM0KW5bY0hdbjRbQ0gyXVtDQEBdNShbT0hdKVtDSDJdW0NIMl1PW0NIMl01

> <s_epik_cmdline>
J2VwaWtfcHl0aG9uJywgJy1waCcsICc3LjAnLCAnLXRuJywgJzgnLCAnLW1hJywgJzIwMCcsICctbWV0YWxfYmluZGluZycsICctaW1hZScsICc8aW5maWxlLm1hZT4nLCAnLW9tYWUnLCAnPG91dGZpbGUubWFlPic=

> <r_lp_tautomer_probability>
1

> <r_epik_Ionization_Penalty>
0.000130618

> <r_epik_Ionization_Penalty_Charging>
0

> <r_epik_Ionization_Penalty_Neutral>
0.000130618

> <r_epik_State_Penalty>
-0

> <r_epik_Charging_Adjusted_Penalty>
0

> <i_epik_Tot_Q>
0

> <i_epik_Tot_abs_Q>
0

> <r_epik_Metal_State_Penalty>
-0

> <b_epik_Metal_Only>
0

> <s_lp_Force_Field>
OPLS_2005

> <r_lp_Energy>
63.9037

> <b_lp_Chiralities_Consistent>
1

> <s_lp_Variant>
AV-unprocessed.smi:240-7

> <Gold.Version>
5.8.1

> <Gold.Id.Protein>
6NUR|6NUR_protein|mol2

> <Gold.PLP.Fitness>
41.9307

> <Gold.PLP.PLP>
-35.4111

> <Gold.PLP.part.hbond>
-4.0000

> <Gold.PLP.part.metal>
0.0000

> <Gold.PLP.part.buried>
-8.1376

> <Gold.PLP.part.nonpolar>
-24.6609

> <Gold.PLP.part.repulsive>
1.6907

> <Gold.PLP.ligand.clash>
0.0000

> <Gold.PLP.ligand.torsion>
0.8820

> <Gold.PLP.Chemscore.Hbond>
2.6410

> <Gold.PLP.Chemscore.CHOScore>
0.0000

> <Gold.PLP.Chemscore.Metal>
0.0000

> <Gold.Chemscore.Hbonds>
donor molecule, donor type, donor heavy atom, donor atom, acceptor molecule, acceptor atom, score
      L1  H     1    29       P1  8028  1.00
      L1  H    24    49       P1 10171  0.27
      P1  H  7989  7998       L1     9  0.07
      P1  H  7997  8010       L1     9  1.00

> <Gold.PLP.Chemscore.Internal.Correction>
0.3605

> <Gold.Rescore>
     Score         DG    S(hbond)    S(metal)    S(lipo)     H(rot)  DE(clash)    DE(int)     intcor
      9.83     -14.63       2.75        0.00      65.47       3.00       0.15       4.65       ----

> <Gold.Chemscore.Fitness>
9.8323

> <Gold.Chemscore.DG>
-14.6319

> <Gold.Chemscore.ZeroCoef>
-5.4800

> <Gold.Chemscore.Hbond>
2.7489

> <Gold.Chemscore.Metal>
0.0000

> <Gold.Chemscore.Lipo>
65.4727

> <Gold.Chemscore.Internal_Hbond>
0.0000

> <Gold.Chemscore.DEClash>
0.1481

> <Gold.Chemscore.DEInternal>
4.6515

> <Gold.Chemscore.Rot>
3.0039

> <Gold.Chemscore.Internal.Correction>
   9.000000E+99

> <Gold.Chemscore.Hbonds>
donor molecule, donor type, donor heavy atom, donor atom, acceptor molecule, acceptor atom, score
      L1  H     1    29       P1  8028  0.97
      L1  H    24    49       P1 10171  0.27
      P1  H  7997  8010       L1     9  0.30

> <Gold.Chemscore.Hbond.Weighted>
-9.1815

> <Gold.Chemscore.Metal.Weighted>
-0.0000

> <Gold.Chemscore.Lipo.Weighted>
-7.6603

> <Gold.Chemscore.Internal_Hbond.Weighted>
0.0000

> <Gold.Chemscore.DEClash.Weighted>
0.1481

> <Gold.Chemscore.DEInternal.Weighted>
4.6515

> <Gold.Chemscore.Rot.Weighted>
7.6899

> <Gold.Chemscore.Internal.Correction.Weighted>
   9.000000E+99

> <Gold.Protein.RotatedTorsions>
[ 6907 6896 6895 6894 ] final  179.26 input  -60.11 | X-H torsion
[ 7974 7965 7964 7962 ] final   -6.13 input  175.53 | X-H torsion
[ 8008 7997 7996 7995 ] final  106.61 input   59.86 | X-H torsion
[ 10167 10162 10161 10158 ] final  -81.73 input  -65.29 | X-H torsion
[ 10718 10713 10712 10709 ] final  159.95 input   66.30 | X-H torsion
[ 10763 10752 10751 10750 ] final  111.22 input  -60.55 | X-H torsion
[ 11005 11000 10999 10996 ] final   86.52 input  -57.11 | X-H torsion

> <Gold.Protein.ActiveResidues>
 VAL166  LYS551  ARG553  GLY616  TRP617  ASP618  TYR619  PRO620  LYS621  CYS622 
 ASP623  PHE694  ASN695  SER759  ASP760  ASP761  ALA762  ILE779  LEU786  VAL792 
 PHE793  MET794  SER795  GLU796  ALA797  LYS798  CYS799  TRP800  GLU811  SER814 

> <Gold.Protein.RotatedAtoms>
  151.6745  133.3313  159.3204 H   0  0  0  0  0  0  0  0  0  0  0  0  # atno 6907 bound_to 6896
  150.7852  134.6834  159.6466 H   0  0  0  0  0  0  0  0  0  0  0  0  # atno 6908 bound_to 6896
  152.3920  134.6430  160.0156 H   0  0  0  0  0  0  0  0  0  0  0  0  # atno 6909 bound_to 6896
  146.2338  140.2125  142.8335 H   0  0  0  0  0  0  0  0  0  0  0  0  # atno 7974 bound_to 7965
  156.1757  140.3110  155.9055 H   0  0  0  0  0  0  0  0  0  0  0  0  # atno 8008 bound_to 7997
  155.3492  140.0470  157.3063 H   0  0  0  0  0  0  0  0  0  0  0  0  # atno 8009 bound_to 7997
  154.5288  140.2223  155.8852 H   0  0  0  0  0  0  0  0  0  0  0  0  # atno 8010 bound_to 7997
  140.4385  143.2523  151.8660 H   0  0  0  0  0  0  0  0  0  0  0  0  # atno 10167 bound_to 10162
  157.1571  131.0578  151.2251 H   0  0  0  0  0  0  0  0  0  0  0  0  # atno 10718 bound_to 10713
  153.4601  135.3724  155.2333 H   0  0  0  0  0  0  0  0  0  0  0  0  # atno 10763 bound_to 10752
  154.8757  135.3906  154.3934 H   0  0  0  0  0  0  0  0  0  0  0  0  # atno 10764 bound_to 10752
  153.4507  135.7085  153.6175 H   0  0  0  0  0  0  0  0  0  0  0  0  # atno 10765 bound_to 10752
  139.8942  134.8361  156.2732 H   0  0  0  0  0  0  0  0  0  0  0  0  # atno 11005 bound_to 11000
  144.9695  140.8355  143.5464 LP  0  0  0  0  0  0  0  0  0  0  0  0  # atno 17320 bound_to 7965
  145.2105  139.2207  143.5145 LP  0  0  0  0  0  0  0  0  0  0  0  0  # atno 17321 bound_to 7965
  139.4788  144.5256  151.8740 LP  0  0  0  0  0  0  0  0  0  0  0  0  # atno 17342 bound_to 10162
  140.4346  144.2069  150.5889 LP  0  0  0  0  0  0  0  0  0  0  0  0  # atno 17343 bound_to 10162
  157.4167  130.7415  149.6881 LP  0  0  0  0  0  0  0  0  0  0  0  0  # atno 17370 bound_to 10713
  155.9760  130.4081  150.3808 LP  0  0  0  0  0  0  0  0  0  0  0  0  # atno 17371 bound_to 10713
  141.0087  133.7108  156.1076 LP  0  0  0  0  0  0  0  0  0  0  0  0  # atno 17394 bound_to 11000
  140.7398  134.4163  157.5556 LP  0  0  0  0  0  0  0  0  0  0  0  0  # atno 17395 bound_to 11000

$$$$
