AV-unprocessed.smi:719|AV-procd|sdf|3494|dock8
  -GOLD-   22720 0493D 1   1.00000     0.00000
 Structure written by MMmdl.
 41 43  0  0  0  0  0  0  0  0  1 V2000
  152.2575  144.9218  159.1722 C   0  0  0  0  0  0  0  0  0  0  0  0
  151.6496  144.2067  160.3837 C   0  0  0  0  0  0  0  0  0  0  0  0
  152.4983  143.0621  160.8541 C   0  0  0  0  0  0  0  0  0  0  0  0
  152.7660  142.0034  159.9805 N   0  0  0  0  0  0  0  0  0  0  0  0
  153.5239  141.0558  160.5358 C   0  0  0  0  0  0  0  0  0  0  0  0
  153.9776  139.8335  159.8110 C   0  0  0  0  0  0  0  0  0  0  0  0
  152.8890  138.7495  159.7546 C   0  0  0  0  0  0  0  0  0  0  0  0
  151.9084  139.0189  158.7091 N   0  0  0  0  0  0  0  0  0  0  0  0
  152.1751  139.0736  157.3952 C   0  0  0  0  0  0  0  0  0  0  0  0
  153.3005  138.8859  156.9308 O   0  0  0  0  0  0  0  0  0  0  0  0
  150.9838  139.3794  156.5474 C   0  0  2  0  0  0  0  0  0  0  0  0
  151.1439  139.2426  155.0440 C   0  0  1  0  0  0  0  0  0  0  0  0
  149.9629  139.0524  154.1204 C   0  0  0  0  0  0  0  0  0  0  0  0
  148.9712  140.1747  154.4735 C   0  0  0  0  0  0  0  0  0  0  0  0
  149.8130  141.2878  155.1212 C   0  0  0  0  0  0  0  0  0  0  0  0
  151.0521  140.6072  155.6561 C   0  0  1  0  0  0  0  0  0  0  0  0
  153.9963  141.4285  162.1872 S   0  0  0  0  0  0  0  0  0  0  0  0
  153.0897  142.9165  162.0875 C   0  0  0  0  0  0  0  0  0  0  0  0
  153.0268  143.8522  163.2489 C   0  0  0  0  0  0  0  0  0  0  0  0
  151.6269  145.7524  158.8549 H   0  0  0  0  0  0  0  0  0  0  0  0
  152.3640  144.2425  158.3260 H   0  0  0  0  0  0  0  0  0  0  0  0
  153.2437  145.3230  159.4072 H   0  0  0  0  0  0  0  0  0  0  0  0
  151.5038  144.9266  161.1894 H   0  0  0  0  0  0  0  0  0  0  0  0
  150.6526  143.8488  160.1241 H   0  0  0  0  0  0  0  0  0  0  0  0
  154.2791  140.1248  158.8043 H   0  0  0  0  0  0  0  0  0  0  0  0
  154.8700  139.4456  160.3037 H   0  0  0  0  0  0  0  0  0  0  0  0
  153.3430  137.7799  159.5482 H   0  0  0  0  0  0  0  0  0  0  0  0
  152.3885  138.6590  160.7202 H   0  0  0  0  0  0  0  0  0  0  0  0
  150.9572  139.1814  159.0069 H   0  0  0  0  0  0  0  0  0  0  0  0
  150.0124  139.1222  156.9677 H   0  0  0  0  0  0  0  0  0  0  0  0
  152.1073  138.9105  154.6602 H   0  0  0  0  0  0  0  0  0  0  0  0
  150.3036  139.1576  153.0899 H   0  0  0  0  0  0  0  0  0  0  0  0
  149.5297  138.0589  154.2378 H   0  0  0  0  0  0  0  0  0  0  0  0
  148.4102  140.5246  153.6065 H   0  0  0  0  0  0  0  0  0  0  0  0
  148.2484  139.8010  155.1999 H   0  0  0  0  0  0  0  0  0  0  0  0
  150.1125  142.0214  154.3719 H   0  0  0  0  0  0  0  0  0  0  0  0
  149.2784  141.8090  155.9159 H   0  0  0  0  0  0  0  0  0  0  0  0
  151.9518  141.2195  155.6930 H   0  0  0  0  0  0  0  0  0  0  0  0
  153.3136  144.8605  162.9491 H   0  0  0  0  0  0  0  0  0  0  0  0
  153.6982  143.5371  164.0481 H   0  0  0  0  0  0  0  0  0  0  0  0
  152.0165  143.8946  163.6559 H   0  0  0  0  0  0  0  0  0  0  0  0
  1  2  1  0  0  0  0
  1 20  1  0  0  0  0
  1 21  1  0  0  0  0
  1 22  1  0  0  0  0
  2  3  1  0  0  0  0
  2 23  1  0  0  0  0
  2 24  1  0  0  0  0
  3 18  2  0  0  0  0
  3  4  1  0  0  0  0
  4  5  2  0  0  0  0
  5  6  1  0  0  0  0
  5 17  1  0  0  0  0
  6  7  1  0  0  0  0
  6 25  1  0  0  0  0
  6 26  1  0  0  0  0
  7  8  1  0  0  0  0
  7 27  1  0  0  0  0
  7 28  1  0  0  0  0
  8  9  1  0  0  0  0
  8 29  1  0  0  0  0
  9 10  2  0  0  0  0
  9 11  1  0  0  0  0
 11 16  1  0  0  0  0
 11 12  1  0  0  0  0
 11 30  1  0  0  0  0
 12 16  1  0  0  0  0
 12 13  1  0  0  0  0
 12 31  1  0  0  0  0
 13 14  1  0  0  0  0
 13 32  1  0  0  0  0
 13 33  1  0  0  0  0
 14 15  1  0  0  0  0
 14 34  1  0  0  0  0
 14 35  1  0  0  0  0
 15 16  1  0  0  0  0
 15 36  1  0  0  0  0
 15 37  1  0  0  0  0
 16 38  1  0  0  0  0
 17 18  1  0  0  0  0
 18 19  1  0  0  0  0
 19 39  1  0  0  0  0
 19 40  1  0  0  0  0
 19 41  1  0  0  0  0
M  END
> <s_m_source_file>
AV-unprocessed.smi

> <i_m_source_file_index>
719

> <i_lp_mmshare_version>
43012

> <i_f3d_flags>
0

> <s_epik_input>
W0NIM11bQ0gyXWMxbmMoc2MxW0NIM10pW0NIMl1bQ0gyXVtOSF1DKD1PKVtDQEhdMltDQEhdKFtDQEBIXTIzKVtDSDJdW0NIMl1bQ0gyXTM=

> <s_epik_cmdline>
J2VwaWtfcHl0aG9uJywgJy1waCcsICc3LjAnLCAnLXRuJywgJzgnLCAnLW1hJywgJzIwMCcsICctbWV0YWxfYmluZGluZycsICctaW1hZScsICc8aW5maWxlLm1hZT4nLCAnLW9tYWUnLCAnPG91dGZpbGUubWFlPic=

> <r_epik_Ionization_Penalty>
0.00247473

> <r_epik_Ionization_Penalty_Charging>
0

> <r_epik_Ionization_Penalty_Neutral>
0.00247473

> <r_epik_State_Penalty>
0.00171502

> <r_epik_Charging_Adjusted_Penalty>
0.00171502

> <i_epik_Tot_Q>
0

> <i_epik_Tot_abs_Q>
0

> <r_epik_Metal_State_Penalty>
-0

> <b_epik_Metal_Only>
0

> <s_lp_Force_Field>
OPLS_2005

> <r_lp_Energy>
19.4586

> <b_lp_Chiralities_Consistent>
1

> <s_lp_Variant>
AV-unprocessed.smi:719-2

> <Gold.Version>
5.8.1

> <Gold.Id.Protein>
6NUR|6NUR_protein|mol2

> <Gold.PLP.Fitness>
47.9936

> <Gold.PLP.PLP>
-45.8073

> <Gold.PLP.part.hbond>
-0.9171

> <Gold.PLP.part.metal>
0.0000

> <Gold.PLP.part.buried>
-1.3491

> <Gold.PLP.part.nonpolar>
-42.1629

> <Gold.PLP.part.repulsive>
0.0878

> <Gold.PLP.ligand.clash>
0.0000

> <Gold.PLP.ligand.torsion>
0.4486

> <Gold.PLP.Chemscore.Hbond>
1.0000

> <Gold.PLP.Chemscore.CHOScore>
0.0000

> <Gold.PLP.Chemscore.Metal>
0.0000

> <Gold.Chemscore.Hbonds>
donor molecule, donor type, donor heavy atom, donor atom, acceptor molecule, acceptor atom, score
      P1  H  7997  8009       L1    10  1.00

> <Gold.PLP.Chemscore.Internal.Correction>
0.0835

> <Gold.Rescore>
     Score         DG    S(hbond)    S(metal)    S(lipo)     H(rot)  DE(clash)    DE(int)     intcor
     20.01     -21.20       0.97        0.00     137.72       1.42       0.71       0.48       ----

> <Gold.Chemscore.Fitness>
20.0056

> <Gold.Chemscore.DG>
-21.1984

> <Gold.Chemscore.ZeroCoef>
-5.4800

> <Gold.Chemscore.Hbond>
0.9710

> <Gold.Chemscore.Metal>
0.0000

> <Gold.Chemscore.Lipo>
137.7180

> <Gold.Chemscore.Internal_Hbond>
0.0000

> <Gold.Chemscore.DEClash>
0.7100

> <Gold.Chemscore.DEInternal>
0.4829

> <Gold.Chemscore.Rot>
1.4209

> <Gold.Chemscore.Internal.Correction>
   9.000000E+99

> <Gold.Chemscore.Hbonds>
donor molecule, donor type, donor heavy atom, donor atom, acceptor molecule, acceptor atom, score
      P1  H  7997  8009       L1    10  0.98

> <Gold.Chemscore.Hbond.Weighted>
-3.2430

> <Gold.Chemscore.Metal.Weighted>
-0.0000

> <Gold.Chemscore.Lipo.Weighted>
-16.1130

> <Gold.Chemscore.Internal_Hbond.Weighted>
0.0000

> <Gold.Chemscore.DEClash.Weighted>
0.7100

> <Gold.Chemscore.DEInternal.Weighted>
0.4829

> <Gold.Chemscore.Rot.Weighted>
3.6376

> <Gold.Chemscore.Internal.Correction.Weighted>
   9.000000E+99

> <Gold.Protein.RotatedTorsions>
[ 6907 6896 6895 6894 ] final -178.99 input  -60.11 | X-H torsion
[ 7974 7965 7964 7962 ] final  -15.80 input  175.53 | X-H torsion
[ 8008 7997 7996 7995 ] final  167.58 input   59.86 | X-H torsion
[ 10167 10162 10161 10158 ] final   34.07 input  -65.29 | X-H torsion
[ 10718 10713 10712 10709 ] final  120.33 input   66.30 | X-H torsion
[ 10763 10752 10751 10750 ] final  134.83 input  -60.55 | X-H torsion
[ 11005 11000 10999 10996 ] final  151.90 input  -57.11 | X-H torsion

> <Gold.Protein.ActiveResidues>
 VAL166  LYS551  ARG553  GLY616  TRP617  ASP618  TYR619  PRO620  LYS621  CYS622 
 ASP623  PHE694  ASN695  SER759  ASP760  ASP761  ALA762  ILE779  LEU786  VAL792 
 PHE793  MET794  SER795  GLU796  ALA797  LYS798  CYS799  TRP800  GLU811  SER814 

> <Gold.Protein.RotatedAtoms>
  151.6462  133.3323  159.3141 H   0  0  0  0  0  0  0  0  0  0  0  0  # atno 6907 bound_to 6896
  150.7983  134.7062  159.6587 H   0  0  0  0  0  0  0  0  0  0  0  0  # atno 6908 bound_to 6896
  152.4073  134.6190  160.0097 H   0  0  0  0  0  0  0  0  0  0  0  0  # atno 6909 bound_to 6896
  146.2016  140.3544  142.8421 H   0  0  0  0  0  0  0  0  0  0  0  0  # atno 7974 bound_to 7965
  156.1622  140.1613  156.8593 H   0  0  0  0  0  0  0  0  0  0  0  0  # atno 8008 bound_to 7997
  154.5171  140.0787  156.8138 H   0  0  0  0  0  0  0  0  0  0  0  0  # atno 8009 bound_to 7997
  155.3685  140.3399  155.4245 H   0  0  0  0  0  0  0  0  0  0  0  0  # atno 8010 bound_to 7997
  140.4349  144.1271  150.6165 H   0  0  0  0  0  0  0  0  0  0  0  0  # atno 10167 bound_to 10162
  157.5898  131.1065  150.8020 H   0  0  0  0  0  0  0  0  0  0  0  0  # atno 10718 bound_to 10713
  153.8301  135.3105  155.3418 H   0  0  0  0  0  0  0  0  0  0  0  0  # atno 10763 bound_to 10752
  154.7977  135.4745  154.0203 H   0  0  0  0  0  0  0  0  0  0  0  0  # atno 10764 bound_to 10752
  153.1639  135.6866  153.8793 H   0  0  0  0  0  0  0  0  0  0  0  0  # atno 10765 bound_to 10752
  140.1260  134.8833  157.2138 H   0  0  0  0  0  0  0  0  0  0  0  0  # atno 11005 bound_to 11000
  144.8697  140.7255  143.6055 LP  0  0  0  0  0  0  0  0  0  0  0  0  # atno 17320 bound_to 7965
  145.3464  139.1718  143.4458 LP  0  0  0  0  0  0  0  0  0  0  0  0  # atno 17321 bound_to 7965
  140.4384  143.2537  151.9504 LP  0  0  0  0  0  0  0  0  0  0  0  0  # atno 17342 bound_to 10162
  139.4786  144.5677  151.8138 LP  0  0  0  0  0  0  0  0  0  0  0  0  # atno 17343 bound_to 10162
  156.8445  130.5059  149.5318 LP  0  0  0  0  0  0  0  0  0  0  0  0  # atno 17370 bound_to 10713
  156.0952  130.5926  150.9801 LP  0  0  0  0  0  0  0  0  0  0  0  0  # atno 17371 bound_to 10713
  140.2903  134.3248  155.7317 LP  0  0  0  0  0  0  0  0  0  0  0  0  # atno 17394 bound_to 11000
  141.2161  133.7531  156.9493 LP  0  0  0  0  0  0  0  0  0  0  0  0  # atno 17395 bound_to 11000

$$$$
