AV-unprocessed.smi:1406|AV-procd|sdf|5719|dock3
  -GOLD-   22720 5353D 1   1.00000     0.00000
 Structure written by MMmdl.
 41 43  0  0  0  0  0  0  0  0  2 V2000
  153.0072  138.5646  154.6995 C   0  0  0  0  0  0  0  0  0  0  0  0
  151.8354  138.5208  155.7011 C   0  0  2  0  0  0  0  0  0  0  0  0
  150.9737  139.7921  155.6580 C   0  0  0  0  0  0  0  0  0  0  0  0
  150.3706  140.1094  154.6323 O   0  0  0  0  0  0  0  0  0  0  0  0
  150.9305  140.5212  156.7840 N   0  0  0  0  0  0  0  0  0  0  0  0
  150.2100  141.7816  156.9273 C   0  0  1  0  0  0  0  0  0  0  0  0
  148.7571  141.6284  157.4180 C   0  0  0  0  0  0  0  0  0  0  0  0
  148.5140  142.8282  158.3548 C   0  0  0  0  0  0  0  0  0  0  0  0
  149.7546  143.6255  158.2990 N   0  3  1  0  0  0  0  0  0  0  0  0
  150.0559  144.4891  159.4612 C   0  0  0  0  0  0  0  0  0  0  0  0
  151.3389  145.2957  159.1750 C   0  0  0  0  0  0  0  0  0  0  0  0
  152.5118  144.3820  158.7623 C   0  0  0  0  0  0  0  0  0  0  0  0
  152.1078  143.4413  157.6102 C   0  0  0  0  0  0  0  0  0  0  0  0
  150.8345  142.6732  157.9993 C   0  0  2  0  0  0  0  0  0  0  0  0
  152.2843  138.2685  157.0646 N   0  0  0  0  0  0  0  0  0  0  0  0
  152.0797  137.2108  157.8528 C   0  0  0  0  0  0  0  0  0  0  0  0
  152.5937  137.3364  159.0681 N   0  0  0  0  0  0  0  0  0  0  0  0
  153.1329  138.5867  158.9593 C   0  0  0  0  0  0  0  0  0  0  0  0
  152.9660  139.1941  157.7850 N   0  0  0  0  0  0  0  0  0  0  0  0
  152.6463  138.6926  153.6784 H   0  0  0  0  0  0  0  0  0  0  0  0
  153.5777  137.6358  154.7294 H   0  0  0  0  0  0  0  0  0  0  0  0
  153.6985  139.3817  154.9096 H   0  0  0  0  0  0  0  0  0  0  0  0
  151.1991  137.6818  155.4139 H   0  0  0  0  0  0  0  0  0  0  0  0
  151.4529  140.1940  157.5838 H   0  0  0  0  0  0  0  0  0  0  0  0
  150.2137  142.3149  155.9743 H   0  0  0  0  0  0  0  0  0  0  0  0
  148.0587  141.6176  156.5804 H   0  0  0  0  0  0  0  0  0  0  0  0
  148.6205  140.6974  157.9701 H   0  0  0  0  0  0  0  0  0  0  0  0
  147.6573  143.4286  158.0473 H   0  0  0  0  0  0  0  0  0  0  0  0
  148.3355  142.4778  159.3726 H   0  0  0  0  0  0  0  0  0  0  0  0
  149.2188  145.1640  159.6429 H   0  0  0  0  0  0  0  0  0  0  0  0
  150.1795  143.8784  160.3569 H   0  0  0  0  0  0  0  0  0  0  0  0
  151.1424  146.0103  158.3746 H   0  0  0  0  0  0  0  0  0  0  0  0
  151.6134  145.8843  160.0510 H   0  0  0  0  0  0  0  0  0  0  0  0
  153.3724  144.9848  158.4714 H   0  0  0  0  0  0  0  0  0  0  0  0
  152.8269  143.7883  159.6215 H   0  0  0  0  0  0  0  0  0  0  0  0
  151.9363  144.0198  156.7014 H   0  0  0  0  0  0  0  0  0  0  0  0
  152.9188  142.7459  157.3914 H   0  0  0  0  0  0  0  0  0  0  0  0
  151.0291  142.0764  158.8937 H   0  0  0  0  0  0  0  0  0  0  0  0
  151.5385  136.3325  157.5331 H   0  0  0  0  0  0  0  0  0  0  0  0
  153.6579  139.0665  159.7722 H   0  0  0  0  0  0  0  0  0  0  0  0
  149.6728  144.2261  157.4911 H   0  0  0  0  0  0  0  0  0  0  0  0
  1  2  1  0  0  0  0
  1 20  1  0  0  0  0
  1 21  1  0  0  0  0
  1 22  1  0  0  0  0
  2  3  1  0  0  0  0
  2 15  1  0  0  0  0
  2 23  1  0  0  0  0
  3  4  2  0  0  0  0
  3  5  1  0  0  0  0
  5  6  1  0  0  0  0
  5 24  1  0  0  0  0
  6 14  1  0  0  0  0
  6  7  1  0  0  0  0
  6 25  1  0  0  0  0
  7  8  1  0  0  0  0
  7 26  1  0  0  0  0
  7 27  1  0  0  0  0
  8  9  1  0  0  0  0
  8 28  1  0  0  0  0
  8 29  1  0  0  0  0
  9 14  1  0  0  0  0
  9 10  1  0  0  0  0
  9 41  1  0  0  0  0
 10 11  1  0  0  0  0
 10 30  1  0  0  0  0
 10 31  1  0  0  0  0
 11 12  1  0  0  0  0
 11 32  1  0  0  0  0
 11 33  1  0  0  0  0
 12 13  1  0  0  0  0
 12 34  1  0  0  0  0
 12 35  1  0  0  0  0
 13 14  1  0  0  0  0
 13 36  1  0  0  0  0
 13 37  1  0  0  0  0
 14 38  1  0  0  0  0
 15 19  1  0  0  0  0
 15 16  1  0  0  0  0
 16 17  2  0  0  0  0
 16 39  1  0  0  0  0
 17 18  1  0  0  0  0
 18 19  2  0  0  0  0
 18 40  1  0  0  0  0
M  CHG  1   9   1
M  END
> <s_m_source_file>
AV-unprocessed.smi

> <i_m_source_file_index>
1406

> <i_lp_mmshare_version>
43012

> <i_f3d_flags>
0

> <s_epik_input>
bjFbY0hdbltjSF1uMVtDQEhdKFtDSDNdKUMoPU8pW05IXVtDQEhdKFtDSDJdW0NIMl0yKVtDQEBIXShOMjMpW0NIMl1bQ0gyXVtDSDJdW0NIMl0z

> <s_epik_cmdline>
J2VwaWtfcHl0aG9uJywgJy1waCcsICc3LjAnLCAnLXRuJywgJzgnLCAnLW1hJywgJzIwMCcsICctbWV0YWxfYmluZGluZycsICctaW1hZScsICc8aW5maWxlLm1hZT4nLCAnLW9tYWUnLCAnPG91dGZpbGUubWFlPic=

> <r_lp_tautomer_probability>
1

> <r_epik_Ionization_Penalty>
0.00197066

> <r_epik_Ionization_Penalty_Charging>
0.00196223

> <r_epik_Ionization_Penalty_Neutral>
8.43107e-06

> <r_epik_State_Penalty>
0.00133866

> <r_epik_Charging_Adjusted_Penalty>
0.00330089

> <i_epik_Tot_Q>
1

> <i_epik_Tot_abs_Q>
1

> <r_epik_Metal_State_Penalty>
-0

> <b_epik_Metal_Only>
0

> <s_lp_Force_Field>
OPLS_2005

> <r_lp_Energy>
39.7149

> <b_lp_Chiralities_Consistent>
1

> <s_lp_Variant>
AV-unprocessed.smi:1406-11

> <Gold.Version>
5.8.1

> <Gold.Id.Protein>
6NUR|6NUR_protein|mol2

> <Gold.PLP.Fitness>
46.1782

> <Gold.PLP.PLP>
-35.1321

> <Gold.PLP.part.hbond>
-3.6000

> <Gold.PLP.part.metal>
0.0000

> <Gold.PLP.part.buried>
-6.2745

> <Gold.PLP.part.nonpolar>
-26.3885

> <Gold.PLP.part.repulsive>
0.2231

> <Gold.PLP.ligand.clash>
0.0000

> <Gold.PLP.ligand.torsion>
0.5273

> <Gold.PLP.Chemscore.Hbond>
4.0000

> <Gold.PLP.Chemscore.CHOScore>
0.0000

> <Gold.PLP.Chemscore.Metal>
0.0000

> <Gold.Chemscore.Hbonds>
donor molecule, donor type, donor heavy atom, donor atom, acceptor molecule, acceptor atom, score
      L1  H     9    41       P1  8028  1.90
      P1  H  7989  7998       L1     4  1.00
      P1  H  7997  8010       L1    19  0.98

> <Gold.PLP.Chemscore.Internal.Correction>
0.1007

> <Gold.Rescore>
     Score         DG    S(hbond)    S(metal)    S(lipo)     H(rot)  DE(clash)    DE(int)     intcor
     16.27     -19.96       2.83        0.00      84.18       1.89       1.76       1.93       ----

> <Gold.Chemscore.Fitness>
16.2685

> <Gold.Chemscore.DG>
-19.9567

> <Gold.Chemscore.ZeroCoef>
-5.4800

> <Gold.Chemscore.Hbond>
2.8316

> <Gold.Chemscore.Metal>
0.0000

> <Gold.Chemscore.Lipo>
84.1771

> <Gold.Chemscore.Internal_Hbond>
0.0000

> <Gold.Chemscore.DEClash>
1.7578

> <Gold.Chemscore.DEInternal>
1.9305

> <Gold.Chemscore.Rot>
1.8865

> <Gold.Chemscore.Internal.Correction>
   9.000000E+99

> <Gold.Chemscore.Hbonds>
donor molecule, donor type, donor heavy atom, donor atom, acceptor molecule, acceptor atom, score
      L1  H     9    41       P1  8028  0.20
      P1  H  7989  7998       L1     4  0.60
      P1  H  7997  8010       L1    19  0.65

> <Gold.Chemscore.Hbond.Weighted>
-9.4575

> <Gold.Chemscore.Metal.Weighted>
-0.0000

> <Gold.Chemscore.Lipo.Weighted>
-9.8487

> <Gold.Chemscore.Internal_Hbond.Weighted>
0.0000

> <Gold.Chemscore.DEClash.Weighted>
1.7578

> <Gold.Chemscore.DEInternal.Weighted>
1.9305

> <Gold.Chemscore.Rot.Weighted>
4.8295

> <Gold.Chemscore.Internal.Correction.Weighted>
   9.000000E+99

> <Gold.Protein.RotatedTorsions>
[ 6907 6896 6895 6894 ] final   79.08 input  -60.11 | X-H torsion
[ 7974 7965 7964 7962 ] final  153.17 input  175.53 | X-H torsion
[ 8008 7997 7996 7995 ] final   63.69 input   59.86 | X-H torsion
[ 10167 10162 10161 10158 ] final   11.40 input  -65.29 | X-H torsion
[ 10718 10713 10712 10709 ] final  123.41 input   66.30 | X-H torsion
[ 10763 10752 10751 10750 ] final -163.82 input  -60.55 | X-H torsion
[ 11005 11000 10999 10996 ] final -121.68 input  -57.11 | X-H torsion

> <Gold.Protein.ActiveResidues>
 VAL166  LYS551  ARG553  GLY616  TRP617  ASP618  TYR619  PRO620  LYS621  CYS622 
 ASP623  PHE694  ASN695  SER759  ASP760  ASP761  ALA762  ILE779  LEU786  VAL792 
 PHE793  MET794  SER795  GLU796  ALA797  LYS798  CYS799  TRP800  GLU811  SER814 

> <Gold.Protein.RotatedAtoms>
  152.5185  134.3565  159.9269 H   0  0  0  0  0  0  0  0  0  0  0  0  # atno 6907 bound_to 6896
  151.3517  133.3916  159.2688 H   0  0  0  0  0  0  0  0  0  0  0  0  # atno 6908 bound_to 6896
  150.9722  134.9111  159.7852 H   0  0  0  0  0  0  0  0  0  0  0  0  # atno 6909 bound_to 6896
  144.8172  139.6765  143.6116 H   0  0  0  0  0  0  0  0  0  0  0  0  # atno 7974 bound_to 7965
  155.6342  140.3496  155.4693 H   0  0  0  0  0  0  0  0  0  0  0  0  # atno 8008 bound_to 7997
  155.9978  140.1207  157.0600 H   0  0  0  0  0  0  0  0  0  0  0  0  # atno 8009 bound_to 7997
  154.4239  140.1106  156.5641 H   0  0  0  0  0  0  0  0  0  0  0  0  # atno 8010 bound_to 7997
  140.6134  143.8359  150.7091 H   0  0  0  0  0  0  0  0  0  0  0  0  # atno 10167 bound_to 10162
  157.5667  131.1086  150.8442 H   0  0  0  0  0  0  0  0  0  0  0  0  # atno 10718 bound_to 10713
  154.7087  135.3002  154.9231 H   0  0  0  0  0  0  0  0  0  0  0  0  # atno 10763 bound_to 10752
  154.0140  135.6691  153.4771 H   0  0  0  0  0  0  0  0  0  0  0  0  # atno 10764 bound_to 10752
  153.0737  135.5046  154.8272 H   0  0  0  0  0  0  0  0  0  0  0  0  # atno 10765 bound_to 10752
  141.0052  134.0345  157.3487 H   0  0  0  0  0  0  0  0  0  0  0  0  # atno 11005 bound_to 11000
  146.2476  139.6131  142.9449 LP  0  0  0  0  0  0  0  0  0  0  0  0  # atno 17320 bound_to 7965
  145.5186  141.0433  143.2448 LP  0  0  0  0  0  0  0  0  0  0  0  0  # atno 17321 bound_to 7965
  140.1933  143.4019  152.1847 LP  0  0  0  0  0  0  0  0  0  0  0  0  # atno 17342 bound_to 10162
  139.5379  144.7228  151.4831 LP  0  0  0  0  0  0  0  0  0  0  0  0  # atno 17343 bound_to 10162
  156.8925  130.5218  149.5285 LP  0  0  0  0  0  0  0  0  0  0  0  0  # atno 17370 bound_to 10713
  156.0714  130.5746  150.9391 LP  0  0  0  0  0  0  0  0  0  0  0  0  # atno 17371 bound_to 10713
  139.9059  135.0179  156.7484 LP  0  0  0  0  0  0  0  0  0  0  0  0  # atno 17394 bound_to 11000
  140.6825  133.9462  155.7918 LP  0  0  0  0  0  0  0  0  0  0  0  0  # atno 17395 bound_to 11000

$$$$
