AV-unprocessed.smi:1056|AV-procd|sdf|4633|dock9
  -GOLD-   22720 3133D 1   1.00000     0.00000
 Structure written by MMmdl.
 45 47  0  0  0  0  0  0  0  0  2 V2000
  152.5593  142.5424  160.1903 C   0  0  0  0  0  0  0  0  0  0  0  0
  151.9221  141.9311  158.9550 C   0  0  0  0  0  0  0  0  0  0  0  0
  151.7781  140.5272  158.8800 C   0  0  0  0  0  0  0  0  0  0  0  0
  151.1923  139.9188  157.7485 C   0  0  0  0  0  0  0  0  0  0  0  0
  150.9552  138.5846  157.4651 N   0  0  0  0  0  0  0  0  0  0  0  0
  150.3882  138.6610  156.2646 C   0  0  0  0  0  0  0  0  0  0  0  0
  150.2348  139.8895  155.7337 N   0  0  0  0  0  0  0  0  0  0  0  0
  149.6479  140.2265  154.4503 C   0  0  0  0  0  0  0  0  0  0  0  0
  148.4950  141.2426  154.5825 C   0  0  1  0  0  0  0  0  0  0  0  0
  148.9919  142.5434  154.3414 O   0  0  0  0  0  0  0  0  0  0  0  0
  147.3472  140.9783  153.5878 C   0  0  0  0  0  0  0  0  0  0  0  0
  146.0636  141.5910  154.0139 N   0  3  1  0  0  0  0  0  0  0  0  0
  145.6338  141.1971  155.3773 C   0  0  0  0  0  0  0  0  0  0  0  0
  144.2033  141.6964  155.6460 C   0  0  0  0  0  0  0  0  0  0  0  0
  143.9801  143.0657  155.1878 N   0  0  0  0  0  0  0  0  0  0  0  0
  144.7826  143.7483  154.3548 C   0  0  0  0  0  0  0  0  0  0  0  0
  144.5232  144.8957  154.0024 O   0  0  0  0  0  0  0  0  0  0  0  0
  146.0584  143.0660  153.8384 C   0  0  0  0  0  0  0  0  0  0  0  0
  150.7512  140.7605  156.6863 C   0  0  0  0  0  0  0  0  0  0  0  0
  150.8875  142.1586  156.7490 C   0  0  0  0  0  0  0  0  0  0  0  0
  151.4769  142.7498  157.8858 C   0  0  0  0  0  0  0  0  0  0  0  0
  151.6247  144.2599  157.9432 C   0  0  0  0  0  0  0  0  0  0  0  0
  152.7748  141.7839  160.9438 H   0  0  0  0  0  0  0  0  0  0  0  0
  151.8949  143.2796  160.6414 H   0  0  0  0  0  0  0  0  0  0  0  0
  153.4974  143.0334  159.9305 H   0  0  0  0  0  0  0  0  0  0  0  0
  152.1183  139.9036  159.6939 H   0  0  0  0  0  0  0  0  0  0  0  0
  150.0692  137.7726  155.7391 H   0  0  0  0  0  0  0  0  0  0  0  0
  150.4296  140.6149  153.7957 H   0  0  0  0  0  0  0  0  0  0  0  0
  149.2928  139.3007  153.9964 H   0  0  0  0  0  0  0  0  0  0  0  0
  148.1157  141.2374  155.6038 H   0  0  0  0  0  0  0  0  0  0  0  0
  148.7834  143.0892  155.0848 H   0  0  0  0  0  0  0  0  0  0  0  0
  147.6060  141.3450  152.5929 H   0  0  0  0  0  0  0  0  0  0  0  0
  147.2173  139.8991  153.4906 H   0  0  0  0  0  0  0  0  0  0  0  0
  145.6639  140.1162  155.5085 H   0  0  0  0  0  0  0  0  0  0  0  0
  146.3243  141.6234  156.1070 H   0  0  0  0  0  0  0  0  0  0  0  0
  143.4897  141.0558  155.1264 H   0  0  0  0  0  0  0  0  0  0  0  0
  143.9698  141.6273  156.7087 H   0  0  0  0  0  0  0  0  0  0  0  0
  143.1477  143.5296  155.5239 H   0  0  0  0  0  0  0  0  0  0  0  0
  146.9102  143.4976  154.3664 H   0  0  0  0  0  0  0  0  0  0  0  0
  146.1816  143.3050  152.7811 H   0  0  0  0  0  0  0  0  0  0  0  0
  150.5433  142.7706  155.9288 H   0  0  0  0  0  0  0  0  0  0  0  0
  151.2725  144.7296  157.0242 H   0  0  0  0  0  0  0  0  0  0  0  0
  152.6702  144.5369  158.0801 H   0  0  0  0  0  0  0  0  0  0  0  0
  151.0463  144.6688  158.7717 H   0  0  0  0  0  0  0  0  0  0  0  0
  145.3587  141.2399  153.3817 H   0  0  0  0  0  0  0  0  0  0  0  0
  1  2  1  0  0  0  0
  1 23  1  0  0  0  0
  1 24  1  0  0  0  0
  1 25  1  0  0  0  0
  2 21  1  0  0  0  0
  2  3  2  0  0  0  0
  3  4  1  0  0  0  0
  3 26  1  0  0  0  0
  4 19  2  0  0  0  0
  4  5  1  0  0  0  0
  5  6  2  0  0  0  0
  6  7  1  0  0  0  0
  6 27  1  0  0  0  0
  7  8  1  0  0  0  0
  7 19  1  0  0  0  0
  8  9  1  0  0  0  0
  8 28  1  0  0  0  0
  8 29  1  0  0  0  0
  9 10  1  0  0  0  0
  9 11  1  0  0  0  0
  9 30  1  0  0  0  0
 10 31  1  0  0  0  0
 11 12  1  0  0  0  0
 11 32  1  0  0  0  0
 11 33  1  0  0  0  0
 12 18  1  0  0  0  0
 12 13  1  0  0  0  0
 12 45  1  0  0  0  0
 13 14  1  0  0  0  0
 13 34  1  0  0  0  0
 13 35  1  0  0  0  0
 14 15  1  0  0  0  0
 14 36  1  0  0  0  0
 14 37  1  0  0  0  0
 15 16  1  0  0  0  0
 15 38  1  0  0  0  0
 16 17  2  0  0  0  0
 16 18  1  0  0  0  0
 18 39  1  0  0  0  0
 18 40  1  0  0  0  0
 19 20  1  0  0  0  0
 20 21  2  0  0  0  0
 20 41  1  0  0  0  0
 21 22  1  0  0  0  0
 22 42  1  0  0  0  0
 22 43  1  0  0  0  0
 22 44  1  0  0  0  0
M  CHG  1  12   1
M  END
> <s_m_source_file>
AV-unprocessed.smi

> <i_m_source_file_index>
1056

> <i_lp_mmshare_version>
43012

> <i_f3d_flags>
0

> <s_epik_input>
W0NIM11jKFtjSF0xKWMoW0NIM10pW2NIXWMoYzEyKW4oW2NIXW4yKVtDSDJdW0NASF0oW09IXSlbQ0gyXU4zW0NIMl1bQ0gyXVtOSF1DKD1PKVtDSDJdMw==

> <s_epik_cmdline>
J2VwaWtfcHl0aG9uJywgJy1waCcsICc3LjAnLCAnLXRuJywgJzgnLCAnLW1hJywgJzIwMCcsICctbWV0YWxfYmluZGluZycsICctaW1hZScsICc8aW5maWxlLm1hZT4nLCAnLW9tYWUnLCAnPG91dGZpbGUubWFlPic=

> <r_epik_Ionization_Penalty>
0.153633

> <r_epik_Ionization_Penalty_Charging>
0.0674887

> <r_epik_Ionization_Penalty_Neutral>
0.0861443

> <r_epik_State_Penalty>
0.135155

> <r_epik_Charging_Adjusted_Penalty>
0.202644

> <i_epik_Tot_Q>
1

> <i_epik_Tot_abs_Q>
1

> <r_epik_Metal_State_Penalty>
0.190685

> <b_epik_Metal_Only>
0

> <s_lp_Force_Field>
OPLS_2005

> <r_lp_Energy>
24.5126

> <b_lp_Chiralities_Consistent>
1

> <s_lp_Variant>
AV-unprocessed.smi:1056-4

> <Gold.Version>
5.8.1

> <Gold.Id.Protein>
6NUR|6NUR_protein|mol2

> <Gold.PLP.Fitness>
49.8642

> <Gold.PLP.PLP>
-42.3370

> <Gold.PLP.part.hbond>
-3.0528

> <Gold.PLP.part.metal>
0.0000

> <Gold.PLP.part.buried>
-4.5522

> <Gold.PLP.part.nonpolar>
-35.2137

> <Gold.PLP.part.repulsive>
0.1411

> <Gold.PLP.ligand.clash>
0.0000

> <Gold.PLP.ligand.torsion>
0.7850

> <Gold.PLP.Chemscore.Hbond>
3.0226

> <Gold.PLP.Chemscore.CHOScore>
0.0000

> <Gold.PLP.Chemscore.Metal>
0.0000

> <Gold.Chemscore.Hbonds>
donor molecule, donor type, donor heavy atom, donor atom, acceptor molecule, acceptor atom, score
      L1  H    10    31       P1  8028  0.83
      L1  H    12    45       P1 10175  1.98
      P1  H  8011  8017       L1    10  0.07

> <Gold.PLP.Chemscore.Internal.Correction>
0.0293

> <Gold.Rescore>
     Score         DG    S(hbond)    S(metal)    S(lipo)     H(rot)  DE(clash)    DE(int)     intcor
     17.11     -18.14       2.05        0.00     101.72       2.38       0.11       0.92       ----

> <Gold.Chemscore.Fitness>
17.1072

> <Gold.Chemscore.DG>
-18.1396

> <Gold.Chemscore.ZeroCoef>
-5.4800

> <Gold.Chemscore.Hbond>
2.0500

> <Gold.Chemscore.Metal>
0.0000

> <Gold.Chemscore.Lipo>
101.7161

> <Gold.Chemscore.Internal_Hbond>
0.0000

> <Gold.Chemscore.DEClash>
0.1105

> <Gold.Chemscore.DEInternal>
0.9219

> <Gold.Chemscore.Rot>
2.3783

> <Gold.Chemscore.Internal.Correction>
   9.000000E+99

> <Gold.Chemscore.Hbonds>
donor molecule, donor type, donor heavy atom, donor atom, acceptor molecule, acceptor atom, score
      L1  H    10    31       P1  8028  0.83
      L1  H    12    45       P1 10175  0.28
      P1  H  8011  8017       L1    10  0.04

> <Gold.Chemscore.Hbond.Weighted>
-6.8472

> <Gold.Chemscore.Metal.Weighted>
-0.0000

> <Gold.Chemscore.Lipo.Weighted>
-11.9008

> <Gold.Chemscore.Internal_Hbond.Weighted>
0.0000

> <Gold.Chemscore.DEClash.Weighted>
0.1105

> <Gold.Chemscore.DEInternal.Weighted>
0.9219

> <Gold.Chemscore.Rot.Weighted>
6.0884

> <Gold.Chemscore.Internal.Correction.Weighted>
   9.000000E+99

> <Gold.Protein.RotatedTorsions>
[ 6907 6896 6895 6894 ] final  -86.86 input  -60.11 | X-H torsion
[ 7974 7965 7964 7962 ] final  -95.50 input  175.53 | X-H torsion
[ 8008 7997 7996 7995 ] final  -59.56 input   59.86 | X-H torsion
[ 10167 10162 10161 10158 ] final   -6.95 input  -65.29 | X-H torsion
[ 10718 10713 10712 10709 ] final -118.44 input   66.30 | X-H torsion
[ 10763 10752 10751 10750 ] final  152.23 input  -60.55 | X-H torsion
[ 11005 11000 10999 10996 ] final  115.00 input  -57.11 | X-H torsion

> <Gold.Protein.ActiveResidues>
 VAL166  LYS551  ARG553  GLY616  TRP617  ASP618  TYR619  PRO620  LYS621  CYS622 
 ASP623  PHE694  ASN695  SER759  ASP760  ASP761  ALA762  ILE779  LEU786  VAL792 
 PHE793  MET794  SER795  GLU796  ALA797  LYS798  CYS799  TRP800  GLU811  SER814 

> <Gold.Protein.RotatedAtoms>
  150.6866  134.2985  159.4696 H   0  0  0  0  0  0  0  0  0  0  0  0  # atno 6907 bound_to 6896
  152.0883  134.9422  160.0581 H   0  0  0  0  0  0  0  0  0  0  0  0  # atno 6908 bound_to 6896
  152.0748  133.4089  159.4512 H   0  0  0  0  0  0  0  0  0  0  0  0  # atno 6909 bound_to 6896
  145.3592  140.9489  143.2510 H   0  0  0  0  0  0  0  0  0  0  0  0  # atno 7974 bound_to 7965
  154.4358  140.1059  156.6134 H   0  0  0  0  0  0  0  0  0  0  0  0  # atno 8008 bound_to 7997
  155.5785  140.3490  155.4515 H   0  0  0  0  0  0  0  0  0  0  0  0  # atno 8009 bound_to 7997
  156.0337  140.1266  157.0220 H   0  0  0  0  0  0  0  0  0  0  0  0  # atno 8010 bound_to 7997
  140.7013  143.6136  150.8680 H   0  0  0  0  0  0  0  0  0  0  0  0  # atno 10167 bound_to 10162
  156.1106  130.6246  150.9290 H   0  0  0  0  0  0  0  0  0  0  0  0  # atno 10718 bound_to 10713
  154.1166  135.2835  155.3218 H   0  0  0  0  0  0  0  0  0  0  0  0  # atno 10763 bound_to 10752
  154.6452  135.5388  153.7840 H   0  0  0  0  0  0  0  0  0  0  0  0  # atno 10764 bound_to 10752
  153.0327  135.6496  154.1322 H   0  0  0  0  0  0  0  0  0  0  0  0  # atno 10765 bound_to 10752
  139.8997  134.9577  156.6978 H   0  0  0  0  0  0  0  0  0  0  0  0  # atno 11005 bound_to 11000
  144.8659  139.5108  143.6790 LP  0  0  0  0  0  0  0  0  0  0  0  0  # atno 17320 bound_to 7965
  146.2935  139.7208  142.9144 LP  0  0  0  0  0  0  0  0  0  0  0  0  # atno 17321 bound_to 7965
  139.9859  143.5900  152.2927 LP  0  0  0  0  0  0  0  0  0  0  0  0  # atno 17342 bound_to 10162
  139.6538  144.7661  151.2096 LP  0  0  0  0  0  0  0  0  0  0  0  0  # atno 17343 bound_to 10162
  157.6287  131.0923  150.8484 LP  0  0  0  0  0  0  0  0  0  0  0  0  # atno 17370 bound_to 10713
  156.8595  130.5108  149.5305 LP  0  0  0  0  0  0  0  0  0  0  0  0  # atno 17371 bound_to 10713
  140.7174  133.9170  155.8124 LP  0  0  0  0  0  0  0  0  0  0  0  0  # atno 17394 bound_to 11000
  141.0253  134.0831  157.4075 LP  0  0  0  0  0  0  0  0  0  0  0  0  # atno 17395 bound_to 11000

$$$$
