AV-unprocessed.smi:910|AV-procd|sdf|4117|dock9
  -GOLD-   22720 2 13D 1   1.00000     0.00000
 Structure written by MMmdl.
 46 47  0  0  0  0  0  0  0  0  1 V2000
  146.7995  133.9658  162.4755 C   0  0  0  0  0  0  0  0  0  0  0  0
  147.3556  135.0847  161.6519 C   0  0  0  0  0  0  0  0  0  0  0  0
  147.8651  134.8826  160.3770 N   0  0  0  0  0  0  0  0  0  0  0  0
  148.2569  136.0934  159.9771 C   0  0  0  0  0  0  0  0  0  0  0  0
  148.8557  136.4195  158.7349 N   0  0  0  0  0  0  0  0  0  0  0  0
  150.1385  136.7448  158.5055 C   0  0  0  0  0  0  0  0  0  0  0  0
  151.0295  136.7643  159.3552 O   0  0  0  0  0  0  0  0  0  0  0  0
  150.3348  137.0634  157.2183 N   0  0  0  0  0  0  0  0  0  0  0  0
  151.5876  137.5508  156.6497 C   0  0  0  0  0  0  0  0  0  0  0  0
  151.3677  138.7892  155.7674 C   0  0  0  0  0  0  0  0  0  0  0  0
  151.1121  139.9038  156.6087 O   0  0  0  0  0  0  0  0  0  0  0  0
  150.7871  141.1058  155.9214 C   0  0  1  0  0  0  0  0  0  0  0  0
  149.6035  140.8640  154.9631 C   0  0  0  0  0  0  0  0  0  0  0  0
  148.3142  140.5179  155.7264 C   0  0  0  0  0  0  0  0  0  0  0  0
  147.9757  141.5967  156.7665 C   0  0  0  0  0  0  0  0  0  0  0  0
  149.1494  141.8307  157.7311 C   0  0  0  0  0  0  0  0  0  0  0  0
  150.4436  142.1851  156.9715 C   0  0  1  0  0  0  0  0  0  0  0  0
  151.6170  142.4463  157.9302 C   0  0  0  0  0  0  0  0  0  0  0  0
  148.0421  137.0726  160.8953 O   0  0  0  0  0  0  0  0  0  0  0  0
  147.4713  136.4179  161.9540 C   0  0  0  0  0  0  0  0  0  0  0  0
  147.1061  137.2229  163.1546 C   0  0  0  0  0  0  0  0  0  0  0  0
  147.4302  133.7667  163.3420 H   0  0  0  0  0  0  0  0  0  0  0  0
  146.7260  133.0423  161.9004 H   0  0  0  0  0  0  0  0  0  0  0  0
  145.8012  134.2066  162.8411 H   0  0  0  0  0  0  0  0  0  0  0  0
  148.2332  136.4365  157.9410 H   0  0  0  0  0  0  0  0  0  0  0  0
  149.5451  137.0142  156.5916 H   0  0  0  0  0  0  0  0  0  0  0  0
  152.2990  137.7723  157.4467 H   0  0  0  0  0  0  0  0  0  0  0  0
  152.0239  136.7484  156.0544 H   0  0  0  0  0  0  0  0  0  0  0  0
  152.2502  138.9696  155.1522 H   0  0  0  0  0  0  0  0  0  0  0  0
  150.5294  138.6228  155.0906 H   0  0  0  0  0  0  0  0  0  0  0  0
  151.6484  141.4549  155.3489 H   0  0  0  0  0  0  0  0  0  0  0  0
  149.4354  141.7624  154.3680 H   0  0  0  0  0  0  0  0  0  0  0  0
  149.8395  140.0721  154.2525 H   0  0  0  0  0  0  0  0  0  0  0  0
  147.4869  140.4060  155.0253 H   0  0  0  0  0  0  0  0  0  0  0  0
  148.4303  139.5541  156.2236 H   0  0  0  0  0  0  0  0  0  0  0  0
  147.7294  142.5296  156.2581 H   0  0  0  0  0  0  0  0  0  0  0  0
  147.0868  141.3063  157.3268 H   0  0  0  0  0  0  0  0  0  0  0  0
  148.8948  142.6312  158.4264 H   0  0  0  0  0  0  0  0  0  0  0  0
  149.3076  140.9372  158.3365 H   0  0  0  0  0  0  0  0  0  0  0  0
  150.2607  143.1164  156.4332 H   0  0  0  0  0  0  0  0  0  0  0  0
  151.8480  141.5655  158.5301 H   0  0  0  0  0  0  0  0  0  0  0  0
  151.3888  143.2625  158.6157 H   0  0  0  0  0  0  0  0  0  0  0  0
  152.5193  142.7190  157.3822 H   0  0  0  0  0  0  0  0  0  0  0  0
  146.0332  137.4136  163.1784 H   0  0  0  0  0  0  0  0  0  0  0  0
  147.6207  138.1839  163.1535 H   0  0  0  0  0  0  0  0  0  0  0  0
  147.3770  136.6968  164.0701 H   0  0  0  0  0  0  0  0  0  0  0  0
  1  2  1  0  0  0  0
  1 22  1  0  0  0  0
  1 23  1  0  0  0  0
  1 24  1  0  0  0  0
  2 20  2  0  0  0  0
  2  3  1  0  0  0  0
  3  4  2  0  0  0  0
  4  5  1  0  0  0  0
  4 19  1  0  0  0  0
  5  6  1  0  0  0  0
  5 25  1  0  0  0  0
  6  7  2  0  0  0  0
  6  8  1  0  0  0  0
  8  9  1  0  0  0  0
  8 26  1  0  0  0  0
  9 10  1  0  0  0  0
  9 27  1  0  0  0  0
  9 28  1  0  0  0  0
 10 11  1  0  0  0  0
 10 29  1  0  0  0  0
 10 30  1  0  0  0  0
 11 12  1  0  0  0  0
 12 17  1  0  0  0  0
 12 13  1  0  0  0  0
 12 31  1  0  0  0  0
 13 14  1  0  0  0  0
 13 32  1  0  0  0  0
 13 33  1  0  0  0  0
 14 15  1  0  0  0  0
 14 34  1  0  0  0  0
 14 35  1  0  0  0  0
 15 16  1  0  0  0  0
 15 36  1  0  0  0  0
 15 37  1  0  0  0  0
 16 17  1  0  0  0  0
 16 38  1  0  0  0  0
 16 39  1  0  0  0  0
 17 18  1  0  0  0  0
 17 40  1  0  0  0  0
 18 41  1  0  0  0  0
 18 42  1  0  0  0  0
 18 43  1  0  0  0  0
 19 20  1  0  0  0  0
 20 21  1  0  0  0  0
 21 44  1  0  0  0  0
 21 45  1  0  0  0  0
 21 46  1  0  0  0  0
M  END
> <s_m_source_file>
AV-unprocessed.smi

> <i_m_source_file_index>
910

> <i_lp_mmshare_version>
43012

> <i_f3d_flags>
0

> <s_epik_input>
W0NIM11jMW5jKG9jMVtDSDNdKVtOSF1DKD1PKVtOSF1bQ0gyXVtDSDJdT1tDQEBIXTJbQ0gyXVtDSDJdW0NIMl1bQ0gyXVtDQEhdMltDSDNd

> <s_epik_cmdline>
J2VwaWtfcHl0aG9uJywgJy1waCcsICc3LjAnLCAnLXRuJywgJzgnLCAnLW1hJywgJzIwMCcsICctbWV0YWxfYmluZGluZycsICctaW1hZScsICc8aW5maWxlLm1hZT4nLCAnLW9tYWUnLCAnPG91dGZpbGUubWFlPic=

> <r_lp_tautomer_probability>
0.785861

> <r_epik_Ionization_Penalty>
4.15957e-05

> <r_epik_Ionization_Penalty_Charging>
0

> <r_epik_Ionization_Penalty_Neutral>
4.15957e-05

> <r_epik_State_Penalty>
0.0240523

> <r_epik_Charging_Adjusted_Penalty>
0.0240523

> <i_epik_Tot_Q>
0

> <i_epik_Tot_abs_Q>
0

> <r_epik_Metal_State_Penalty>
0.057053

> <b_epik_Metal_Only>
0

> <s_lp_Force_Field>
OPLS_2005

> <r_lp_Energy>
9.72379

> <b_lp_Chiralities_Consistent>
1

> <s_lp_Variant>
AV-unprocessed.smi:910-2

> <Gold.Version>
5.8.1

> <Gold.Id.Protein>
6NUR|6NUR_protein|mol2

> <Gold.PLP.Fitness>
40.8254

> <Gold.PLP.PLP>
-34.8962

> <Gold.PLP.part.hbond>
-3.0000

> <Gold.PLP.part.metal>
0.0000

> <Gold.PLP.part.buried>
-2.8211

> <Gold.PLP.part.nonpolar>
-28.9809

> <Gold.PLP.part.repulsive>
0.1894

> <Gold.PLP.ligand.clash>
0.0000

> <Gold.PLP.ligand.torsion>
0.8142

> <Gold.PLP.Chemscore.Hbond>
2.5088

> <Gold.PLP.Chemscore.CHOScore>
0.0000

> <Gold.PLP.Chemscore.Metal>
0.0000

> <Gold.Chemscore.Hbonds>
donor molecule, donor type, donor heavy atom, donor atom, acceptor molecule, acceptor atom, score
      P1  H  6896  6909       L1     7  1.00
      P1  H  6931  6943       L1    19  0.82
      P1  H  6934  6947       L1    19  0.57

> <Gold.PLP.Chemscore.Internal.Correction>
0.0312

> <Gold.Rescore>
     Score         DG    S(hbond)    S(metal)    S(lipo)     H(rot)  DE(clash)    DE(int)     intcor
     16.83     -17.70       1.86        0.00      87.52       1.66       0.06       0.81       ----

> <Gold.Chemscore.Fitness>
16.8278

> <Gold.Chemscore.DG>
-17.7041

> <Gold.Chemscore.ZeroCoef>
-5.4800

> <Gold.Chemscore.Hbond>
1.8647

> <Gold.Chemscore.Metal>
0.0000

> <Gold.Chemscore.Lipo>
87.5173

> <Gold.Chemscore.Internal_Hbond>
0.0000

> <Gold.Chemscore.DEClash>
0.0640

> <Gold.Chemscore.DEInternal>
0.8124

> <Gold.Chemscore.Rot>
1.6576

> <Gold.Chemscore.Internal.Correction>
   9.000000E+99

> <Gold.Chemscore.Hbonds>
donor molecule, donor type, donor heavy atom, donor atom, acceptor molecule, acceptor atom, score
      P1  H  6896  6909       L1     7  0.65
      P1  H  6931  6943       L1    19  0.14
      P1  H  6934  6947       L1    19  0.28

> <Gold.Chemscore.Hbond.Weighted>
-6.2282

> <Gold.Chemscore.Metal.Weighted>
-0.0000

> <Gold.Chemscore.Lipo.Weighted>
-10.2395

> <Gold.Chemscore.Internal_Hbond.Weighted>
0.0000

> <Gold.Chemscore.DEClash.Weighted>
0.0640

> <Gold.Chemscore.DEInternal.Weighted>
0.8124

> <Gold.Chemscore.Rot.Weighted>
4.2436

> <Gold.Chemscore.Internal.Correction.Weighted>
   9.000000E+99

> <Gold.Protein.RotatedTorsions>
[ 6907 6896 6895 6894 ] final  102.45 input  -60.11 | X-H torsion
[ 7974 7965 7964 7962 ] final   29.42 input  175.53 | X-H torsion
[ 8008 7997 7996 7995 ] final  116.15 input   59.86 | X-H torsion
[ 10167 10162 10161 10158 ] final  161.38 input  -65.29 | X-H torsion
[ 10718 10713 10712 10709 ] final  109.24 input   66.30 | X-H torsion
[ 10763 10752 10751 10750 ] final -160.80 input  -60.55 | X-H torsion
[ 11005 11000 10999 10996 ] final   28.97 input  -57.11 | X-H torsion

> <Gold.Protein.ActiveResidues>
 VAL166  LYS551  ARG553  GLY616  TRP617  ASP618  TYR619  PRO620  LYS621  CYS622 
 ASP623  PHE694  ASN695  SER759  ASP760  ASP761  ALA762  ILE779  LEU786  VAL792 
 PHE793  MET794  SER795  GLU796  ALA797  LYS798  CYS799  TRP800  GLU811  SER814 

> <Gold.Protein.RotatedAtoms>
  152.5323  133.9973  159.7878 H   0  0  0  0  0  0  0  0  0  0  0  0  # atno 6907 bound_to 6896
  151.0198  133.5879  159.2679 H   0  0  0  0  0  0  0  0  0  0  0  0  # atno 6908 bound_to 6896
  151.2923  135.0752  159.9262 H   0  0  0  0  0  0  0  0  0  0  0  0  # atno 6909 bound_to 6896
  146.1672  139.6924  142.8993 H   0  0  0  0  0  0  0  0  0  0  0  0  # atno 7974 bound_to 7965
  156.2423  140.2923  156.0479 H   0  0  0  0  0  0  0  0  0  0  0  0  # atno 8008 bound_to 7997
  155.1914  140.0407  157.2918 H   0  0  0  0  0  0  0  0  0  0  0  0  # atno 8009 bound_to 7997
  154.6192  140.2471  155.7578 H   0  0  0  0  0  0  0  0  0  0  0  0  # atno 8010 bound_to 7997
  139.4849  144.4542  151.8790 H   0  0  0  0  0  0  0  0  0  0  0  0  # atno 10167 bound_to 10162
  157.6550  131.0910  150.6425 H   0  0  0  0  0  0  0  0  0  0  0  0  # atno 10718 bound_to 10713
  154.7359  135.3057  154.8812 H   0  0  0  0  0  0  0  0  0  0  0  0  # atno 10763 bound_to 10752
  153.9641  135.6749  153.4750 H   0  0  0  0  0  0  0  0  0  0  0  0  # atno 10764 bound_to 10752
  153.0962  135.4934  154.8705 H   0  0  0  0  0  0  0  0  0  0  0  0  # atno 10765 bound_to 10752
  140.3100  134.2661  155.7736 H   0  0  0  0  0  0  0  0  0  0  0  0  # atno 11005 bound_to 11000
  145.4436  141.0424  143.2844 LP  0  0  0  0  0  0  0  0  0  0  0  0  # atno 17320 bound_to 7965
  144.8110  139.5963  143.7029 LP  0  0  0  0  0  0  0  0  0  0  0  0  # atno 17321 bound_to 7965
  140.4000  144.2505  150.5893 LP  0  0  0  0  0  0  0  0  0  0  0  0  # atno 17342 bound_to 10162
  140.5066  143.2302  151.8599 LP  0  0  0  0  0  0  0  0  0  0  0  0  # atno 17343 bound_to 10162
  156.6732  130.4545  149.5650 LP  0  0  0  0  0  0  0  0  0  0  0  0  # atno 17370 bound_to 10713
  156.1982  130.6603  151.1138 LP  0  0  0  0  0  0  0  0  0  0  0  0  # atno 17371 bound_to 10713
  141.2110  133.7702  156.9893 LP  0  0  0  0  0  0  0  0  0  0  0  0  # atno 17394 bound_to 11000
  140.1033  134.9522  157.1957 LP  0  0  0  0  0  0  0  0  0  0  0  0  # atno 17395 bound_to 11000

$$$$
