AV-unprocessed.smi:136|AV-procd|sdf|1173|dock9
  -GOLD-   2262018323D 1   1.00000     0.00000
 Structure written by MMmdl.
 54 58  0  0  0  0  0  0  0  0  1 V2000
  151.3529  135.0805  156.1267 O   0  0  0  0  0  0  0  0  0  0  0  0
  150.2591  135.1938  155.5702 C   0  0  0  0  0  0  0  0  0  0  0  0
  149.5025  136.5377  155.6296 C   0  0  0  0  0  0  0  0  0  0  0  0
  150.3938  137.7101  155.7696 N   0  0  0  0  0  0  0  0  0  0  0  0
  151.5237  137.8116  154.9208 C   0  0  0  0  0  0  0  0  0  0  0  0
  151.7640  136.9528  154.0710 O   0  0  0  0  0  0  0  0  0  0  0  0
  152.3677  138.9816  155.1339 C   0  0  0  0  0  0  0  0  0  0  0  0
  153.4608  139.1602  154.3729 F   0  0  0  0  0  0  0  0  0  0  0  0
  152.0708  139.8898  156.0860 C   0  0  0  0  0  0  0  0  0  0  0  0
  150.9645  139.7775  156.9093 N   0  0  0  0  0  0  0  0  0  0  0  0
  150.6554  140.7963  157.9864 C   0  0  2  0  0  0  0  0  0  0  0  0
  150.4658  142.1964  157.3717 C   0  0  0  0  0  0  0  0  0  0  0  0
  151.4031  143.0554  158.1971 C   0  0  0  0  0  0  0  0  0  0  0  0
  152.4805  142.0566  158.5913 C   0  0  0  0  0  0  0  0  0  0  0  0
  151.7289  140.8854  158.8800 O   0  0  0  0  0  0  0  0  0  0  0  0
  150.1037  138.6667  156.7714 C   0  0  0  0  0  0  0  0  0  0  0  0
  149.1261  138.5350  157.5115 O   0  0  0  0  0  0  0  0  0  0  0  0
  149.6924  134.1693  154.8945 N   0  0  0  0  0  0  0  0  0  0  0  0
  148.5670  134.3058  154.1489 N   0  0  0  0  0  0  0  0  0  0  0  0
  148.3495  133.2279  153.4905 C   0  0  0  0  0  0  0  0  0  0  0  0
  147.2088  133.0239  152.5698 C   0  0  0  0  0  0  0  0  0  0  0  0
  146.8411  131.7101  152.1995 C   0  0  0  0  0  0  0  0  0  0  0  0
  145.7569  131.5152  151.3216 C   0  0  0  0  0  0  0  0  0  0  0  0
  145.0454  132.6226  150.8179 C   0  0  0  0  0  0  0  0  0  0  0  0
  143.7194  132.3774  149.7418 Cl  0  0  0  0  0  0  0  0  0  0  0  0
  145.4151  133.9302  151.1918 C   0  0  0  0  0  0  0  0  0  0  0  0
  146.4974  134.1379  152.0692 C   0  0  0  0  0  0  0  0  0  0  0  0
  149.3635  132.1606  153.7310 C   0  0  0  0  0  0  0  0  0  0  0  0
  150.2777  132.8289  154.7608 C   0  0  2  0  0  0  0  0  0  0  0  0
  150.3549  132.0643  156.0518 C   0  0  0  0  0  0  0  0  0  0  0  0
  151.3749  131.5040  156.7738 C   0  0  0  0  0  0  0  0  0  0  0  0
  150.7821  130.9229  157.9281 C   0  0  0  0  0  0  0  0  0  0  0  0
  149.4440  131.1760  157.8304 C   0  0  0  0  0  0  0  0  0  0  0  0
  149.1680  131.8730  156.6949 O   0  0  0  0  0  0  0  0  0  0  0  0
  148.8775  136.6261  154.7396 H   0  0  0  0  0  0  0  0  0  0  0  0
  148.7885  136.5038  156.4542 H   0  0  0  0  0  0  0  0  0  0  0  0
  152.7403  140.7294  156.1937 H   0  0  0  0  0  0  0  0  0  0  0  0
  149.7777  140.4142  158.5109 H   0  0  0  0  0  0  0  0  0  0  0  0
  150.7746  142.1957  156.3250 H   0  0  0  0  0  0  0  0  0  0  0  0
  149.4246  142.5138  157.4341 H   0  0  0  0  0  0  0  0  0  0  0  0
  151.7942  143.9116  157.6467 H   0  0  0  0  0  0  0  0  0  0  0  0
  150.8909  143.4230  159.0870 H   0  0  0  0  0  0  0  0  0  0  0  0
  153.1625  141.8727  157.7601 H   0  0  0  0  0  0  0  0  0  0  0  0
  153.0648  142.3813  159.4525 H   0  0  0  0  0  0  0  0  0  0  0  0
  147.3740  130.8481  152.5741 H   0  0  0  0  0  0  0  0  0  0  0  0
  145.4721  130.5135  151.0342 H   0  0  0  0  0  0  0  0  0  0  0  0
  144.8678  134.7772  150.8047 H   0  0  0  0  0  0  0  0  0  0  0  0
  146.7594  135.1496  152.3405 H   0  0  0  0  0  0  0  0  0  0  0  0
  148.8951  131.2548  154.1192 H   0  0  0  0  0  0  0  0  0  0  0  0
  149.9028  131.9129  152.8161 H   0  0  0  0  0  0  0  0  0  0  0  0
  151.2805  132.9285  154.3414 H   0  0  0  0  0  0  0  0  0  0  0  0
  152.4203  131.5098  156.5027 H   0  0  0  0  0  0  0  0  0  0  0  0
  151.2724  130.3891  158.7285 H   0  0  0  0  0  0  0  0  0  0  0  0
  148.5896  130.9442  158.4489 H   0  0  0  0  0  0  0  0  0  0  0  0
  1  2  2  0  0  0  0
  2  3  1  0  0  0  0
  2 18  1  0  0  0  0
  3  4  1  0  0  0  0
  3 35  1  0  0  0  0
  3 36  1  0  0  0  0
  4 16  1  0  0  0  0
  4  5  1  0  0  0  0
  5  6  2  0  0  0  0
  5  7  1  0  0  0  0
  7  8  1  0  0  0  0
  7  9  2  0  0  0  0
  9 10  1  0  0  0  0
  9 37  1  0  0  0  0
 10 11  1  0  0  0  0
 10 16  1  0  0  0  0
 11 15  1  0  0  0  0
 11 12  1  0  0  0  0
 11 38  1  0  0  0  0
 12 13  1  0  0  0  0
 12 39  1  0  0  0  0
 12 40  1  0  0  0  0
 13 14  1  0  0  0  0
 13 41  1  0  0  0  0
 13 42  1  0  0  0  0
 14 15  1  0  0  0  0
 14 43  1  0  0  0  0
 14 44  1  0  0  0  0
 16 17  2  0  0  0  0
 18 29  1  0  0  0  0
 18 19  1  0  0  0  0
 19 20  2  0  0  0  0
 20 21  1  0  0  0  0
 20 28  1  0  0  0  0
 21 27  1  0  0  0  0
 21 22  2  0  0  0  0
 22 23  1  0  0  0  0
 22 45  1  0  0  0  0
 23 24  2  0  0  0  0
 23 46  1  0  0  0  0
 24 25  1  0  0  0  0
 24 26  1  0  0  0  0
 26 27  2  0  0  0  0
 26 47  1  0  0  0  0
 27 48  1  0  0  0  0
 28 29  1  0  0  0  0
 28 49  1  0  0  0  0
 28 50  1  0  0  0  0
 29 30  1  0  0  0  0
 29 51  1  0  0  0  0
 30 34  1  0  0  0  0
 30 31  2  0  0  0  0
 31 32  1  0  0  0  0
 31 52  1  0  0  0  0
 32 33  2  0  0  0  0
 32 53  1  0  0  0  0
 33 34  1  0  0  0  0
 33 54  1  0  0  0  0
M  END
> <s_m_source_file>
AV-unprocessed.smi

> <i_m_source_file_index>
136

> <i_lp_mmshare_version>
43012

> <i_f3d_flags>
0

> <s_epik_input>
bzFbY0hdW2NIXVtjSF1jMVtDQEBIXTJbQ0gyXUMoYzNbY0hdW2NIXWMoQ2wpW2NIXVtjSF0zKT1OTjJDKD1PKVtDSDJdbjRjKD1PKWMoRilbY0hdbihjND1PKVtDQEBIXTVbQ0gyXVtDSDJdW0NIMl1PNQ==

> <s_epik_cmdline>
J2VwaWtfcHl0aG9uJywgJy1waCcsICc3LjAnLCAnLXRuJywgJzgnLCAnLW1hJywgJzIwMCcsICctbWV0YWxfYmluZGluZycsICctaW1hZScsICc8aW5maWxlLm1hZT4nLCAnLW9tYWUnLCAnPG91dGZpbGUubWFlPic=

> <r_lp_tautomer_probability>
1

> <r_epik_Ionization_Penalty>
2.55467e-08

> <r_epik_Ionization_Penalty_Charging>
4.85705e-09

> <r_epik_Ionization_Penalty_Neutral>
2.06897e-08

> <r_epik_State_Penalty>
-0

> <r_epik_Charging_Adjusted_Penalty>
4.85705e-09

> <i_epik_Tot_Q>
0

> <i_epik_Tot_abs_Q>
0

> <r_epik_Metal_State_Penalty>
-0

> <b_epik_Metal_Only>
0

> <s_epik_Chemistry_Notes>
This compound has an imine and may undergo hydrolysis. This compound contains an acetal/aminal-like group ( X-CH(R)-Y where X, Y are N, S, or O) that may be acid/base labile, releasing an aldehyde.

> <s_lp_Force_Field>
OPLS_2005

> <r_lp_Energy>
40.0267

> <b_lp_Chiralities_Consistent>
1

> <s_lp_Variant>
AV-unprocessed.smi:136-3

> <Gold.Version>
5.8.1

> <Gold.Id.Protein>
6NUR|6NUR_protein|mol2

> <Gold.PLP.Fitness>
53.2920

> <Gold.PLP.PLP>
-51.5341

> <Gold.PLP.part.hbond>
-1.1949

> <Gold.PLP.part.metal>
0.0000

> <Gold.PLP.part.buried>
-5.2172

> <Gold.PLP.part.nonpolar>
-47.2581

> <Gold.PLP.part.repulsive>
2.2141

> <Gold.PLP.ligand.clash>
0.0000

> <Gold.PLP.ligand.torsion>
0.6600

> <Gold.PLP.Chemscore.Hbond>
1.0000

> <Gold.PLP.Chemscore.CHOScore>
0.0000

> <Gold.PLP.Chemscore.Metal>
0.0000

> <Gold.Chemscore.Hbonds>
donor molecule, donor type, donor heavy atom, donor atom, acceptor molecule, acceptor atom, score
      P1  H 10752 10763       L1     6  1.00

> <Gold.PLP.Chemscore.Internal.Correction>
0.0778

> <Gold.Rescore>
     Score         DG    S(hbond)    S(metal)    S(lipo)     H(rot)  DE(clash)    DE(int)     intcor
     13.63     -18.37       0.98        0.00     121.77       1.81       2.13       2.60       ----

> <Gold.Chemscore.Fitness>
13.6326

> <Gold.Chemscore.DG>
-18.3685

> <Gold.Chemscore.ZeroCoef>
-5.4800

> <Gold.Chemscore.Hbond>
0.9773

> <Gold.Chemscore.Metal>
0.0000

> <Gold.Chemscore.Lipo>
121.7671

> <Gold.Chemscore.Internal_Hbond>
0.0000

> <Gold.Chemscore.DEClash>
2.1326

> <Gold.Chemscore.DEInternal>
2.6033

> <Gold.Chemscore.Rot>
1.8056

> <Gold.Chemscore.Internal.Correction>
   9.000000E+99

> <Gold.Chemscore.Hbonds>
donor molecule, donor type, donor heavy atom, donor atom, acceptor molecule, acceptor atom, score
      P1  H 10752 10763       L1     6  0.99

> <Gold.Chemscore.Hbond.Weighted>
-3.2641

> <Gold.Chemscore.Metal.Weighted>
-0.0000

> <Gold.Chemscore.Lipo.Weighted>
-14.2468

> <Gold.Chemscore.Internal_Hbond.Weighted>
0.0000

> <Gold.Chemscore.DEClash.Weighted>
2.1326

> <Gold.Chemscore.DEInternal.Weighted>
2.6033

> <Gold.Chemscore.Rot.Weighted>
4.6223

> <Gold.Chemscore.Internal.Correction.Weighted>
   9.000000E+99

> <Gold.Protein.RotatedTorsions>
[ 6907 6896 6895 6894 ] final -131.32 input  -60.11 | X-H torsion
[ 7974 7965 7964 7962 ] final  104.15 input  175.53 | X-H torsion
[ 8008 7997 7996 7995 ] final  -78.25 input   59.86 | X-H torsion
[ 10167 10162 10161 10158 ] final -152.64 input  -65.29 | X-H torsion
[ 10718 10713 10712 10709 ] final   97.53 input   66.30 | X-H torsion
[ 10763 10752 10751 10750 ] final   40.05 input  -60.55 | X-H torsion
[ 11005 11000 10999 10996 ] final -175.09 input  -57.11 | X-H torsion

> <Gold.Protein.ActiveResidues>
 VAL166  LYS551  ARG553  GLY616  TRP617  ASP618  TYR619  PRO620  LYS621  CYS622 
 ASP623  PHE694  ASN695  SER759  ASP760  ASP761  ALA762  ILE779  LEU786  VAL792 
 PHE793  MET794  SER795  GLU796  ALA797  LYS798  CYS799  TRP800  GLU811  SER814 

> <Gold.Protein.RotatedAtoms>
  150.9497  133.6563  159.2774 H   0  0  0  0  0  0  0  0  0  0  0  0  # atno 6907 bound_to 6896
  151.3924  135.0957  159.9540 H   0  0  0  0  0  0  0  0  0  0  0  0  # atno 6908 bound_to 6896
  152.5104  133.9008  159.7495 H   0  0  0  0  0  0  0  0  0  0  0  0  # atno 6909 bound_to 6896
  145.3366  139.2473  143.3632 H   0  0  0  0  0  0  0  0  0  0  0  0  # atno 7974 bound_to 7965
  154.5672  140.0697  156.8909 H   0  0  0  0  0  0  0  0  0  0  0  0  # atno 8008 bound_to 7997
  155.2702  140.3364  155.4247 H   0  0  0  0  0  0  0  0  0  0  0  0  # atno 8009 bound_to 7997
  156.2089  140.1751  156.7723 H   0  0  0  0  0  0  0  0  0  0  0  0  # atno 8010 bound_to 7997
  139.7164  143.9026  152.2487 H   0  0  0  0  0  0  0  0  0  0  0  0  # atno 10167 bound_to 10162
  157.6911  131.0612  150.4657 H   0  0  0  0  0  0  0  0  0  0  0  0  # atno 10718 bound_to 10713
  152.9948  135.6202  154.2564 H   0  0  0  0  0  0  0  0  0  0  0  0  # atno 10763 bound_to 10752
  154.2301  135.2792  155.2895 H   0  0  0  0  0  0  0  0  0  0  0  0  # atno 10764 bound_to 10752
  154.5456  135.5748  153.6935 H   0  0  0  0  0  0  0  0  0  0  0  0  # atno 10765 bound_to 10752
  140.4672  134.6199  157.4867 H   0  0  0  0  0  0  0  0  0  0  0  0  # atno 11005 bound_to 11000
  146.3024  140.3955  142.8699 LP  0  0  0  0  0  0  0  0  0  0  0  0  # atno 17320 bound_to 7965
  144.8823  140.7416  143.5979 LP  0  0  0  0  0  0  0  0  0  0  0  0  # atno 17321 bound_to 7965
  139.8910  144.6965  150.8770 LP  0  0  0  0  0  0  0  0  0  0  0  0  # atno 17342 bound_to 10162
  140.7744  143.3586  151.1872 LP  0  0  0  0  0  0  0  0  0  0  0  0  # atno 17343 bound_to 10162
  156.4998  130.4114  149.6359 LP  0  0  0  0  0  0  0  0  0  0  0  0  # atno 17370 bound_to 10713
  156.3338  130.7346  151.2280 LP  0  0  0  0  0  0  0  0  0  0  0  0  # atno 17371 bound_to 10713
  139.9908  134.6988  155.9693 LP  0  0  0  0  0  0  0  0  0  0  0  0  # atno 17394 bound_to 11000
  141.1594  133.6540  156.4268 LP  0  0  0  0  0  0  0  0  0  0  0  0  # atno 17395 bound_to 11000

$$$$
