AV-unprocessed.smi:1726|AV-procd|sdf|6964|dock2
  -GOLD-   22720 8173D 1   1.00000     0.00000
 Structure written by MMmdl.
 42 43  0  0  0  0  0  0  0  0  3 V2000
  144.1410  132.3564  149.8548 C   0  0  0  0  0  0  0  0  0  0  0  0
  145.6233  132.0722  149.5710 C   0  0  0  0  0  0  0  0  0  0  0  0
  146.3599  131.6162  150.7772 N   0  3  2  0  0  0  0  0  0  0  0  0
  145.8182  130.3398  151.3121 C   0  0  0  0  0  0  0  0  0  0  0  0
  146.6735  129.8144  152.4772 C   0  0  0  0  0  0  0  0  0  0  0  0
  146.7922  130.8633  153.5899 C   0  0  0  0  0  0  0  0  0  0  0  0
  147.3323  132.1804  153.0123 C   0  0  2  0  0  0  0  0  0  0  0  0
  147.3918  133.1958  154.0592 N   0  0  0  0  0  0  0  0  0  0  0  0
  148.5110  133.8006  154.4831 C   0  0  0  0  0  0  0  0  0  0  0  0
  149.6240  133.5546  154.0179 O   0  0  0  0  0  0  0  0  0  0  0  0
  148.2354  134.7026  155.4420 N   0  0  0  0  0  0  0  0  0  0  0  0
  149.1125  135.5323  156.1608 C   0  0  0  0  0  0  0  0  0  0  0  0
  149.8936  136.5009  155.6074 C   0  0  0  0  0  0  0  0  0  0  0  0
  150.7957  137.3242  156.4029 C   0  0  0  0  0  0  0  0  0  0  0  0
  151.7334  138.3617  155.8115 C   0  0  0  0  0  0  0  0  0  0  0  0
  153.0065  138.0559  156.0638 F   0  0  0  0  0  0  0  0  0  0  0  0
  151.5764  138.4516  154.4908 F   0  0  0  0  0  0  0  0  0  0  0  0
  151.4806  139.5569  156.3427 F   0  0  0  0  0  0  0  0  0  0  0  0
  150.7784  136.9793  157.7404 C   0  0  0  0  0  0  0  0  0  0  0  0
  150.0343  136.0420  158.3676 N   0  5  0  0  0  0  0  0  0  0  0  0
  149.1857  135.2854  157.6157 C   0  0  0  0  0  0  0  0  0  0  0  0
  148.4837  134.4087  158.1211 O   0  0  0  0  0  0  0  0  0  0  0  0
  146.4516  132.6558  151.8369 C   0  0  0  0  0  0  0  0  0  0  0  0
  143.6612  132.7916  148.9779 H   0  0  0  0  0  0  0  0  0  0  0  0
  144.0255  133.0626  150.6776 H   0  0  0  0  0  0  0  0  0  0  0  0
  143.5888  131.4513  150.1060 H   0  0  0  0  0  0  0  0  0  0  0  0
  145.7289  131.3412  148.7680 H   0  0  0  0  0  0  0  0  0  0  0  0
  146.0728  132.9969  149.2070 H   0  0  0  0  0  0  0  0  0  0  0  0
  144.7880  130.4897  151.6390 H   0  0  0  0  0  0  0  0  0  0  0  0
  145.7939  129.5886  150.5215 H   0  0  0  0  0  0  0  0  0  0  0  0
  146.2383  128.8972  152.8750 H   0  0  0  0  0  0  0  0  0  0  0  0
  147.6677  129.5520  152.1128 H   0  0  0  0  0  0  0  0  0  0  0  0
  145.8145  131.0263  154.0458 H   0  0  0  0  0  0  0  0  0  0  0  0
  147.4491  130.4964  154.3797 H   0  0  0  0  0  0  0  0  0  0  0  0
  148.3444  131.9989  152.6444 H   0  0  0  0  0  0  0  0  0  0  0  0
  146.5183  133.4588  154.4923 H   0  0  0  0  0  0  0  0  0  0  0  0
  147.2602  134.8437  155.6625 H   0  0  0  0  0  0  0  0  0  0  0  0
  149.8817  136.6806  154.5452 H   0  0  0  0  0  0  0  0  0  0  0  0
  151.4691  137.5390  158.4064 H   0  0  0  0  0  0  0  0  0  0  0  0
  146.8737  133.5703  151.4216 H   0  0  0  0  0  0  0  0  0  0  0  0
  145.4493  132.9043  152.1903 H   0  0  0  0  0  0  0  0  0  0  0  0
  147.3043  131.4187  150.4780 H   0  0  0  0  0  0  0  0  0  0  0  0
  1  2  1  0  0  0  0
  1 24  1  0  0  0  0
  1 25  1  0  0  0  0
  1 26  1  0  0  0  0
  2  3  1  0  0  0  0
  2 27  1  0  0  0  0
  2 28  1  0  0  0  0
  3 23  1  0  0  0  0
  3  4  1  0  0  0  0
  3 42  1  0  0  0  0
  4  5  1  0  0  0  0
  4 29  1  0  0  0  0
  4 30  1  0  0  0  0
  5  6  1  0  0  0  0
  5 31  1  0  0  0  0
  5 32  1  0  0  0  0
  6  7  1  0  0  0  0
  6 33  1  0  0  0  0
  6 34  1  0  0  0  0
  7  8  1  0  0  0  0
  7 23  1  0  0  0  0
  7 35  1  0  0  0  0
  8  9  1  0  0  0  0
  8 36  1  0  0  0  0
  9 10  2  0  0  0  0
  9 11  1  0  0  0  0
 11 12  1  0  0  0  0
 11 37  1  0  0  0  0
 12 21  1  0  0  0  0
 12 13  2  0  0  0  0
 13 14  1  0  0  0  0
 13 38  1  0  0  0  0
 14 15  1  0  0  0  0
 14 19  2  0  0  0  0
 15 16  1  0  0  0  0
 15 17  1  0  0  0  0
 15 18  1  0  0  0  0
 19 20  1  0  0  0  0
 19 39  1  0  0  0  0
 20 21  1  0  0  0  0
 21 22  2  0  0  0  0
 23 40  1  0  0  0  0
 23 41  1  0  0  0  0
M  CHG  1   3   1
M  CHG  1  20  -1
M  END
> <s_m_source_file>
AV-unprocessed.smi

> <i_m_source_file_index>
1726

> <i_lp_mmshare_version>
43012

> <i_f3d_flags>
0

> <s_epik_input>
W0NIM11bQ0gyXU4xW0NIMl1bQ0gyXVtDSDJdW0NASF0oW0NIMl0xKVtOSF1DKD1PKVtOSF1jMltjSF1jKEMoRikoRilGKVtjSF1bbkhdYzI9Tw==

> <s_epik_cmdline>
J2VwaWtfcHl0aG9uJywgJy1waCcsICc3LjAnLCAnLXRuJywgJzgnLCAnLW1hJywgJzIwMCcsICctbWV0YWxfYmluZGluZycsICctaW1hZScsICc8aW5maWxlLm1hZT4nLCAnLW9tYWUnLCAnPG91dGZpbGUubWFlPic=

> <r_lp_tautomer_probability>
1

> <r_epik_Ionization_Penalty>
3.01007

> <r_epik_Ionization_Penalty_Charging>
0.14897

> <r_epik_Ionization_Penalty_Neutral>
2.8611

> <r_epik_State_Penalty>
2.85632

> <r_epik_Charging_Adjusted_Penalty>
3.00529

> <i_epik_Tot_Q>
0

> <i_epik_Tot_abs_Q>
2

> <r_epik_Metal_State_Penalty>
0.443826

> <b_epik_Metal_Only>
1

> <s_lp_Force_Field>
OPLS_2005

> <r_lp_Energy>
27.5552

> <b_lp_Chiralities_Consistent>
1

> <s_lp_Variant>
AV-unprocessed.smi:1726-8

> <Gold.Version>
5.8.1

> <Gold.Id.Protein>
6NUR|6NUR_protein|mol2

> <Gold.PLP.Fitness>
42.6602

> <Gold.PLP.PLP>
-34.9011

> <Gold.PLP.part.hbond>
-2.0000

> <Gold.PLP.part.metal>
0.0000

> <Gold.PLP.part.buried>
-6.2064

> <Gold.PLP.part.nonpolar>
-27.5178

> <Gold.PLP.part.repulsive>
0.2214

> <Gold.PLP.ligand.clash>
0.0000

> <Gold.PLP.ligand.torsion>
0.6327

> <Gold.PLP.Chemscore.Hbond>
2.9840

> <Gold.PLP.Chemscore.CHOScore>
0.0000

> <Gold.PLP.Chemscore.Metal>
0.0000

> <Gold.Chemscore.Hbonds>
donor molecule, donor type, donor heavy atom, donor atom, acceptor molecule, acceptor atom, score
      L1  H     3    42       P1 10747  1.00
      P1  H  6896  6909       L1    20  2.00

> <Gold.PLP.Chemscore.Internal.Correction>
0.0724

> <Gold.Rescore>
     Score         DG    S(hbond)    S(metal)    S(lipo)     H(rot)  DE(clash)    DE(int)     intcor
     16.40     -17.14       1.72        0.00      78.59       1.28       0.06       0.68       ----

> <Gold.Chemscore.Fitness>
16.4041

> <Gold.Chemscore.DG>
-17.1439

> <Gold.Chemscore.ZeroCoef>
-5.4800

> <Gold.Chemscore.Hbond>
1.7201

> <Gold.Chemscore.Metal>
0.0000

> <Gold.Chemscore.Lipo>
78.5860

> <Gold.Chemscore.Internal_Hbond>
0.0000

> <Gold.Chemscore.DEClash>
0.0628

> <Gold.Chemscore.DEInternal>
0.6770

> <Gold.Chemscore.Rot>
1.2796

> <Gold.Chemscore.Internal.Correction>
   9.000000E+99

> <Gold.Chemscore.Hbonds>
donor molecule, donor type, donor heavy atom, donor atom, acceptor molecule, acceptor atom, score
      L1  H     3    42       P1 10747  1.00
      P1  H  6896  6909       L1    20  0.42

> <Gold.Chemscore.Hbond.Weighted>
-5.7452

> <Gold.Chemscore.Metal.Weighted>
-0.0000

> <Gold.Chemscore.Lipo.Weighted>
-9.1946

> <Gold.Chemscore.Internal_Hbond.Weighted>
0.0000

> <Gold.Chemscore.DEClash.Weighted>
0.0628

> <Gold.Chemscore.DEInternal.Weighted>
0.6770

> <Gold.Chemscore.Rot.Weighted>
3.2759

> <Gold.Chemscore.Internal.Correction.Weighted>
   9.000000E+99

> <Gold.Protein.RotatedTorsions>
[ 6907 6896 6895 6894 ] final   64.40 input  -60.11 | X-H torsion
[ 7974 7965 7964 7962 ] final  -65.47 input  175.53 | X-H torsion
[ 8008 7997 7996 7995 ] final  -90.14 input   59.86 | X-H torsion
[ 10167 10162 10161 10158 ] final  -67.19 input  -65.29 | X-H torsion
[ 10718 10713 10712 10709 ] final   48.73 input   66.30 | X-H torsion
[ 10763 10752 10751 10750 ] final  114.63 input  -60.55 | X-H torsion
[ 11005 11000 10999 10996 ] final   56.16 input  -57.11 | X-H torsion

> <Gold.Protein.ActiveResidues>
 VAL166  LYS551  ARG553  GLY616  TRP617  ASP618  TYR619  PRO620  LYS621  CYS622 
 ASP623  PHE694  ASN695  SER759  ASP760  ASP761  ALA762  ILE779  LEU786  VAL792 
 PHE793  MET794  SER795  GLU796  ALA797  LYS798  CYS799  TRP800  GLU811  SER814 

> <Gold.Protein.RotatedAtoms>
  152.4329  134.5744  159.9929 H   0  0  0  0  0  0  0  0  0  0  0  0  # atno 6907 bound_to 6896
  151.5862  133.3366  159.3026 H   0  0  0  0  0  0  0  0  0  0  0  0  # atno 6908 bound_to 6896
  150.8223  134.7473  159.6848 H   0  0  0  0  0  0  0  0  0  0  0  0  # atno 6909 bound_to 6896
  145.7539  140.8895  143.0465 H   0  0  0  0  0  0  0  0  0  0  0  0  # atno 7974 bound_to 7965
  154.6950  140.0534  157.0402 H   0  0  0  0  0  0  0  0  0  0  0  0  # atno 8008 bound_to 7997
  155.0763  140.3205  155.4596 H   0  0  0  0  0  0  0  0  0  0  0  0  # atno 8009 bound_to 7997
  156.2741  140.2073  156.5891 H   0  0  0  0  0  0  0  0  0  0  0  0  # atno 8010 bound_to 7997
  140.5601  143.2312  151.6745 H   0  0  0  0  0  0  0  0  0  0  0  0  # atno 10167 bound_to 10162
  157.4716  130.8258  149.7994 H   0  0  0  0  0  0  0  0  0  0  0  0  # atno 10718 bound_to 10713
  153.5101  135.3620  155.2582 H   0  0  0  0  0  0  0  0  0  0  0  0  # atno 10763 bound_to 10752
  154.8742  135.4020  154.3379 H   0  0  0  0  0  0  0  0  0  0  0  0  # atno 10764 bound_to 10752
  153.4030  135.7075  153.6479 H   0  0  0  0  0  0  0  0  0  0  0  0  # atno 10765 bound_to 10752
  140.0551  134.5682  155.9218 H   0  0  0  0  0  0  0  0  0  0  0  0  # atno 11005 bound_to 11000
  144.6844  139.9629  143.7480 LP  0  0  0  0  0  0  0  0  0  0  0  0  # atno 17320 bound_to 7965
  146.0330  139.3352  143.0743 LP  0  0  0  0  0  0  0  0  0  0  0  0  # atno 17321 bound_to 7965
  139.5066  144.3676  152.0502 LP  0  0  0  0  0  0  0  0  0  0  0  0  # atno 17342 bound_to 10162
  140.2802  144.3868  150.6121 LP  0  0  0  0  0  0  0  0  0  0  0  0  # atno 17343 bound_to 10162
  156.0076  130.3848  150.2376 LP  0  0  0  0  0  0  0  0  0  0  0  0  # atno 17370 bound_to 10713
  157.0559  131.0076  151.3238 LP  0  0  0  0  0  0  0  0  0  0  0  0  # atno 17371 bound_to 10713
  141.1948  133.6584  156.5613 LP  0  0  0  0  0  0  0  0  0  0  0  0  # atno 17394 bound_to 11000
  140.3857  134.7484  157.4690 LP  0  0  0  0  0  0  0  0  0  0  0  0  # atno 17395 bound_to 11000

$$$$
