AV-unprocessed.smi:740|AV-procd|sdf|3550|dock9
  -GOLD-   22720 0543D 1   1.00000     0.00000
 Structure written by MMmdl.
 45 47  0  0  0  0  0  0  0  0  2 V2000
  152.5974  144.1922  161.5420 C   0  0  0  0  0  0  0  0  0  0  0  0
  152.2059  143.2690  160.4009 C   0  0  0  0  0  0  0  0  0  0  0  0
  151.2774  143.7364  159.4438 C   0  0  0  0  0  0  0  0  0  0  0  0
  150.9385  142.8689  158.4123 C   0  0  0  0  0  0  0  0  0  0  0  0
  150.0648  143.0282  157.3346 N   0  3  0  0  0  0  0  0  0  0  0  0
  150.0589  141.8930  156.5830 C   0  0  0  0  0  0  0  0  0  0  0  0
  150.9187  141.0120  157.1626 N   0  0  0  0  0  0  0  0  0  0  0  0
  151.2760  139.6474  156.7500 C   0  0  0  0  0  0  0  0  0  0  0  0
  151.8291  139.5865  155.3128 C   0  0  2  0  0  0  0  0  0  0  0  0
  150.8058  139.9634  154.4121 O   0  0  0  0  0  0  0  0  0  0  0  0
  152.3110  138.1670  154.9503 C   0  0  0  0  0  0  0  0  0  0  0  0
  151.3928  137.1318  155.4391 N   0  0  0  0  0  0  0  0  0  0  0  0
  150.1013  137.0492  155.0917 C   0  0  0  0  0  0  0  0  0  0  0  0
  149.5030  137.8067  154.3281 O   0  0  0  0  0  0  0  0  0  0  0  0
  149.4241  135.8734  155.7815 C   0  0  0  0  0  0  0  0  0  0  0  0
  150.5545  135.2576  156.6202 C   0  0  1  0  0  0  0  0  0  0  0  0
  150.8463  133.7865  156.2812 C   0  0  0  0  0  0  0  0  0  0  0  0
  151.7418  136.1625  156.2967 C   0  0  0  0  0  0  0  0  0  0  0  0
  152.8600  135.9924  156.7833 O   0  0  0  0  0  0  0  0  0  0  0  0
  151.4900  141.5769  158.3094 C   0  0  0  0  0  0  0  0  0  0  0  0
  152.4055  141.1006  159.2454 C   0  0  0  0  0  0  0  0  0  0  0  0
  152.7608  141.9666  160.3042 C   0  0  0  0  0  0  0  0  0  0  0  0
  153.7521  141.4709  161.3433 C   0  0  0  0  0  0  0  0  0  0  0  0
  152.1096  145.1634  161.4547 H   0  0  0  0  0  0  0  0  0  0  0  0
  153.6746  144.3608  161.5469 H   0  0  0  0  0  0  0  0  0  0  0  0
  152.3094  143.7591  162.5001 H   0  0  0  0  0  0  0  0  0  0  0  0
  150.8480  144.7252  159.5128 H   0  0  0  0  0  0  0  0  0  0  0  0
  149.4764  141.7212  155.6893 H   0  0  0  0  0  0  0  0  0  0  0  0
  152.0333  139.2953  157.4514 H   0  0  0  0  0  0  0  0  0  0  0  0
  150.4157  138.9898  156.8764 H   0  0  0  0  0  0  0  0  0  0  0  0
  152.6509  140.2985  155.2246 H   0  0  0  0  0  0  0  0  0  0  0  0
  150.2191  139.2313  154.2993 H   0  0  0  0  0  0  0  0  0  0  0  0
  152.3773  138.0722  153.8649 H   0  0  0  0  0  0  0  0  0  0  0  0
  153.3278  138.0013  155.3113 H   0  0  0  0  0  0  0  0  0  0  0  0
  148.6003  136.2212  156.4057 H   0  0  0  0  0  0  0  0  0  0  0  0
  149.0281  135.1799  155.0385 H   0  0  0  0  0  0  0  0  0  0  0  0
  150.3248  135.3524  157.6823 H   0  0  0  0  0  0  0  0  0  0  0  0
  151.6522  133.3905  156.9002 H   0  0  0  0  0  0  0  0  0  0  0  0
  151.1368  133.6652  155.2369 H   0  0  0  0  0  0  0  0  0  0  0  0
  149.9660  133.1670  156.4544 H   0  0  0  0  0  0  0  0  0  0  0  0
  152.8266  140.1089  159.1760 H   0  0  0  0  0  0  0  0  0  0  0  0
  154.0579  140.4431  161.1449 H   0  0  0  0  0  0  0  0  0  0  0  0
  153.3103  141.4991  162.3394 H   0  0  0  0  0  0  0  0  0  0  0  0
  154.6487  142.0910  161.3435 H   0  0  0  0  0  0  0  0  0  0  0  0
  149.5106  143.8491  157.1262 H   0  0  0  0  0  0  0  0  0  0  0  0
  1  2  1  0  0  0  0
  1 24  1  0  0  0  0
  1 25  1  0  0  0  0
  1 26  1  0  0  0  0
  2 22  1  0  0  0  0
  2  3  2  0  0  0  0
  3  4  1  0  0  0  0
  3 27  1  0  0  0  0
  4 20  2  0  0  0  0
  4  5  1  0  0  0  0
  5  6  2  0  0  0  0
  5 45  1  0  0  0  0
  6  7  1  0  0  0  0
  6 28  1  0  0  0  0
  7  8  1  0  0  0  0
  7 20  1  0  0  0  0
  8  9  1  0  0  0  0
  8 29  1  0  0  0  0
  8 30  1  0  0  0  0
  9 10  1  0  0  0  0
  9 11  1  0  0  0  0
  9 31  1  0  0  0  0
 10 32  1  0  0  0  0
 11 12  1  0  0  0  0
 11 33  1  0  0  0  0
 11 34  1  0  0  0  0
 12 18  1  0  0  0  0
 12 13  1  0  0  0  0
 13 14  2  0  0  0  0
 13 15  1  0  0  0  0
 15 16  1  0  0  0  0
 15 35  1  0  0  0  0
 15 36  1  0  0  0  0
 16 17  1  0  0  0  0
 16 18  1  0  0  0  0
 16 37  1  0  0  0  0
 17 38  1  0  0  0  0
 17 39  1  0  0  0  0
 17 40  1  0  0  0  0
 18 19  2  0  0  0  0
 20 21  1  0  0  0  0
 21 22  2  0  0  0  0
 21 41  1  0  0  0  0
 22 23  1  0  0  0  0
 23 42  1  0  0  0  0
 23 43  1  0  0  0  0
 23 44  1  0  0  0  0
M  CHG  1   5   1
M  END
> <s_m_source_file>
AV-unprocessed.smi

> <i_m_source_file_index>
740

> <i_lp_mmshare_version>
43012

> <i_f3d_flags>
0

> <s_epik_input>
W0NIM11jKFtjSF0xKWMoW0NIM10pW2NIXWMoYzEyKW4oW2NIXW4yKVtDSDJdW0NASF0oW09IXSlbQ0gyXU4zQyg9TylbQ0gyXVtDQEBIXShbQ0gzXSlDMz1P

> <s_epik_cmdline>
J2VwaWtfcHl0aG9uJywgJy1waCcsICc3LjAnLCAnLXRuJywgJzgnLCAnLW1hJywgJzIwMCcsICctbWV0YWxfYmluZGluZycsICctaW1hZScsICc8aW5maWxlLm1hZT4nLCAnLW9tYWUnLCAnPG91dGZpbGUubWFlPic=

> <r_lp_tautomer_probability>
1

> <r_epik_Ionization_Penalty>
1.08202

> <r_epik_Ionization_Penalty_Charging>
1.08202

> <r_epik_Ionization_Penalty_Neutral>
1.16605e-06

> <r_epik_State_Penalty>
1.13754

> <r_epik_Charging_Adjusted_Penalty>
2.21956

> <i_epik_Tot_Q>
1

> <i_epik_Tot_abs_Q>
1

> <r_epik_Metal_State_Penalty>
5.13645

> <b_epik_Metal_Only>
0

> <s_lp_Force_Field>
OPLS_2005

> <r_lp_Energy>
22.4261

> <b_lp_Chiralities_Consistent>
1

> <s_lp_Variant>
AV-unprocessed.smi:740-5

> <Gold.Version>
5.8.1

> <Gold.Id.Protein>
6NUR|6NUR_protein|mol2

> <Gold.PLP.Fitness>
52.0874

> <Gold.PLP.PLP>
-41.6943

> <Gold.PLP.part.hbond>
-3.0000

> <Gold.PLP.part.metal>
0.0000

> <Gold.PLP.part.buried>
-5.2127

> <Gold.PLP.part.nonpolar>
-34.7477

> <Gold.PLP.part.repulsive>
1.3635

> <Gold.PLP.ligand.clash>
0.0325

> <Gold.PLP.ligand.torsion>
0.1879

> <Gold.PLP.Chemscore.Hbond>
3.6000

> <Gold.PLP.Chemscore.CHOScore>
0.0000

> <Gold.PLP.Chemscore.Metal>
0.0000

> <Gold.Chemscore.Hbonds>
donor molecule, donor type, donor heavy atom, donor atom, acceptor molecule, acceptor atom, score
      L1  H     5    45       P1  8028  1.57
      P1  H  7989  7998       L1    10  0.94
      P1  H 10752 10765       L1    19  0.85

> <Gold.PLP.Chemscore.Internal.Correction>
0.0015

> <Gold.Rescore>
     Score         DG    S(hbond)    S(metal)    S(lipo)     H(rot)  DE(clash)    DE(int)     intcor
     15.37     -19.37       2.28        0.00     105.48       2.37       0.01       4.00       ----

> <Gold.Chemscore.Fitness>
15.3684

> <Gold.Chemscore.DG>
-19.3715

> <Gold.Chemscore.ZeroCoef>
-5.4800

> <Gold.Chemscore.Hbond>
2.2825

> <Gold.Chemscore.Metal>
0.0000

> <Gold.Chemscore.Lipo>
105.4816

> <Gold.Chemscore.Internal_Hbond>
0.0000

> <Gold.Chemscore.DEClash>
0.0075

> <Gold.Chemscore.DEInternal>
3.9956

> <Gold.Chemscore.Rot>
2.3724

> <Gold.Chemscore.Internal.Correction>
   9.000000E+99

> <Gold.Chemscore.Hbonds>
donor molecule, donor type, donor heavy atom, donor atom, acceptor molecule, acceptor atom, score
      L1  H     5    45       P1  8028  0.54
      P1  H  7989  7998       L1    10  0.20
      P1  H 10752 10765       L1    19  0.15

> <Gold.Chemscore.Hbond.Weighted>
-7.6236

> <Gold.Chemscore.Metal.Weighted>
-0.0000

> <Gold.Chemscore.Lipo.Weighted>
-12.3414

> <Gold.Chemscore.Internal_Hbond.Weighted>
0.0000

> <Gold.Chemscore.DEClash.Weighted>
0.0075

> <Gold.Chemscore.DEInternal.Weighted>
3.9956

> <Gold.Chemscore.Rot.Weighted>
6.0734

> <Gold.Chemscore.Internal.Correction.Weighted>
   9.000000E+99

> <Gold.Protein.RotatedTorsions>
[ 6907 6896 6895 6894 ] final   62.49 input  -60.11 | X-H torsion
[ 7974 7965 7964 7962 ] final  -54.18 input  175.53 | X-H torsion
[ 8008 7997 7996 7995 ] final   22.74 input   59.86 | X-H torsion
[ 10167 10162 10161 10158 ] final  -27.07 input  -65.29 | X-H torsion
[ 10718 10713 10712 10709 ] final  128.34 input   66.30 | X-H torsion
[ 10763 10752 10751 10750 ] final -116.27 input  -60.55 | X-H torsion
[ 11005 11000 10999 10996 ] final -104.60 input  -57.11 | X-H torsion

> <Gold.Protein.ActiveResidues>
 VAL166  LYS551  ARG553  GLY616  TRP617  ASP618  TYR619  PRO620  LYS621  CYS622 
 ASP623  PHE694  ASN695  SER759  ASP760  ASP761  ALA762  ILE779  LEU786  VAL792 
 PHE793  MET794  SER795  GLU796  ALA797  LYS798  CYS799  TRP800  GLU811  SER814 

> <Gold.Protein.RotatedAtoms>
  152.4176  134.6013  160.0000 H   0  0  0  0  0  0  0  0  0  0  0  0  # atno 6907 bound_to 6896
  151.6172  133.3336  159.3088 H   0  0  0  0  0  0  0  0  0  0  0  0  # atno 6908 bound_to 6896
  150.8064  134.7231  159.6714 H   0  0  0  0  0  0  0  0  0  0  0  0  # atno 6909 bound_to 6896
  145.8885  140.8089  142.9804 H   0  0  0  0  0  0  0  0  0  0  0  0  # atno 7974 bound_to 7965
  154.9702  140.3089  155.4991 H   0  0  0  0  0  0  0  0  0  0  0  0  # atno 8008 bound_to 7997
  156.2966  140.2285  156.4733 H   0  0  0  0  0  0  0  0  0  0  0  0  # atno 8009 bound_to 7997
  154.7883  140.0441  157.1169 H   0  0  0  0  0  0  0  0  0  0  0  0  # atno 8010 bound_to 7997
  140.7279  143.4124  151.1084 H   0  0  0  0  0  0  0  0  0  0  0  0  # atno 10167 bound_to 10162
  157.5253  131.1098  150.9092 H   0  0  0  0  0  0  0  0  0  0  0  0  # atno 10718 bound_to 10713
  154.8513  135.4351  154.1794 H   0  0  0  0  0  0  0  0  0  0  0  0  # atno 10763 bound_to 10752
  153.2888  135.6960  153.7319 H   0  0  0  0  0  0  0  0  0  0  0  0  # atno 10764 bound_to 10752
  153.6494  135.3454  155.3070 H   0  0  0  0  0  0  0  0  0  0  0  0  # atno 10765 bound_to 10752
  141.1093  133.8737  157.1631 H   0  0  0  0  0  0  0  0  0  0  0  0  # atno 11005 bound_to 11000
  144.6729  140.1492  143.7431 LP  0  0  0  0  0  0  0  0  0  0  0  0  # atno 17320 bound_to 7965
  145.8938  139.2391  143.1534 LP  0  0  0  0  0  0  0  0  0  0  0  0  # atno 17321 bound_to 7965
  139.7759  143.8426  152.3129 LP  0  0  0  0  0  0  0  0  0  0  0  0  # atno 17342 bound_to 10162
  139.8360  144.7232  150.9390 LP  0  0  0  0  0  0  0  0  0  0  0  0  # atno 17343 bound_to 10162
  156.9690  130.5484  149.5289 LP  0  0  0  0  0  0  0  0  0  0  0  0  # atno 17370 bound_to 10713
  156.0382  130.5468  150.8707 LP  0  0  0  0  0  0  0  0  0  0  0  0  # atno 17371 bound_to 10713
  139.9978  135.0040  157.0122 LP  0  0  0  0  0  0  0  0  0  0  0  0  # atno 17394 bound_to 11000
  140.4819  134.1281  155.7218 LP  0  0  0  0  0  0  0  0  0  0  0  0  # atno 17395 bound_to 11000

$$$$
