AV-unprocessed.smi:161|AV-procd|sdf|1375|dock3
  -GOLD-   2262019 93D 1   1.00000     0.00000
 Structure written by MMmdl.
 52 55  0  0  0  0  0  0  0  0  1 V2000
  147.8672  130.7005  161.1655 C   0  0  0  0  0  0  0  0  0  0  0  0
  146.9014  131.6745  160.4871 C   0  0  0  0  0  0  0  0  0  0  0  0
  147.1169  132.9761  161.0074 O   0  0  0  0  0  0  0  0  0  0  0  0
  146.3997  134.0176  160.5515 C   0  0  0  0  0  0  0  0  0  0  0  0
  145.5305  133.9165  159.6846 O   0  0  0  0  0  0  0  0  0  0  0  0
  146.7993  135.2957  161.2509 C   0  0  2  0  0  0  0  0  0  0  0  0
  147.6360  135.1794  162.5297 C   0  0  0  0  0  0  0  0  0  0  0  0
  147.0521  136.6001  162.6353 C   0  0  2  0  0  0  0  0  0  0  0  0
  147.1377  137.4225  163.9111 C   0  0  0  0  0  0  0  0  0  0  0  0
  145.7525  135.9205  162.1852 C   0  0  0  0  0  0  0  0  0  0  0  0
  147.5186  137.3120  161.4767 O   0  0  0  0  0  0  0  0  0  0  0  0
  147.3873  136.4045  160.3801 C   0  0  0  0  0  0  0  0  0  0  0  0
  146.4126  136.9818  159.3131 C   0  0  0  0  0  0  0  0  0  0  0  0
  147.0613  138.1023  158.4819 C   0  0  0  0  0  0  0  0  0  0  0  0
  148.3017  137.5863  157.8921 N   0  0  0  0  0  0  0  0  0  0  0  0
  148.4469  137.0962  156.6352 C   0  0  0  0  0  0  0  0  0  0  0  0
  147.5837  137.2394  155.7687 O   0  0  0  0  0  0  0  0  0  0  0  0
  149.7119  136.4159  156.2736 C   0  0  0  0  0  0  0  0  0  0  0  0
  150.1990  135.1498  156.4463 C   0  0  0  0  0  0  0  0  0  0  0  0
  151.4623  135.0670  155.8683 N   0  0  0  0  0  0  0  0  0  0  0  0
  151.7649  136.2107  155.3428 N   0  0  0  0  0  0  0  0  0  0  0  0
  150.7225  137.0497  155.5614 N   0  0  0  0  0  0  0  0  0  0  0  0
  150.8156  138.4182  155.0687 C   0  0  0  0  0  0  0  0  0  0  0  0
  152.1244  139.0972  155.4932 C   0  0  0  0  0  0  0  0  0  0  0  0
  149.2946  137.3289  158.9381 C   0  0  0  0  0  0  0  0  0  0  0  0
  148.8000  136.1384  159.7780 C   0  0  0  0  0  0  0  0  0  0  0  0
  147.7169  129.6857  160.7973 H   0  0  0  0  0  0  0  0  0  0  0  0
  147.7200  130.6901  162.2456 H   0  0  0  0  0  0  0  0  0  0  0  0
  148.9033  130.9774  160.9696 H   0  0  0  0  0  0  0  0  0  0  0  0
  147.0656  131.6617  159.4087 H   0  0  0  0  0  0  0  0  0  0  0  0
  145.8685  131.3754  160.6672 H   0  0  0  0  0  0  0  0  0  0  0  0
  147.2937  134.4589  163.2786 H   0  0  0  0  0  0  0  0  0  0  0  0
  148.7162  135.1316  162.4029 H   0  0  0  0  0  0  0  0  0  0  0  0
  146.7763  136.8575  164.7706 H   0  0  0  0  0  0  0  0  0  0  0  0
  146.5382  138.3297  163.8360 H   0  0  0  0  0  0  0  0  0  0  0  0
  148.1653  137.7204  164.1195 H   0  0  0  0  0  0  0  0  0  0  0  0
  145.0202  136.5846  161.7292 H   0  0  0  0  0  0  0  0  0  0  0  0
  145.2800  135.2541  162.9132 H   0  0  0  0  0  0  0  0  0  0  0  0
  146.0956  136.1862  158.6387 H   0  0  0  0  0  0  0  0  0  0  0  0
  145.5026  137.3682  159.7682 H   0  0  0  0  0  0  0  0  0  0  0  0
  146.3482  138.4788  157.7531 H   0  0  0  0  0  0  0  0  0  0  0  0
  147.2894  138.9551  159.1227 H   0  0  0  0  0  0  0  0  0  0  0  0
  149.7480  134.2993  156.9360 H   0  0  0  0  0  0  0  0  0  0  0  0
  150.7448  138.4100  153.9801 H   0  0  0  0  0  0  0  0  0  0  0  0
  149.9560  138.9863  155.4233 H   0  0  0  0  0  0  0  0  0  0  0  0
  152.1993  140.0942  155.0593 H   0  0  0  0  0  0  0  0  0  0  0  0
  152.9923  138.5253  155.1640 H   0  0  0  0  0  0  0  0  0  0  0  0
  152.1848  139.2069  156.5756 H   0  0  0  0  0  0  0  0  0  0  0  0
  150.2860  137.1214  158.5326 H   0  0  0  0  0  0  0  0  0  0  0  0
  149.4143  138.2124  159.5667 H   0  0  0  0  0  0  0  0  0  0  0  0
  149.5341  135.9241  160.5525 H   0  0  0  0  0  0  0  0  0  0  0  0
  148.7756  135.2630  159.1303 H   0  0  0  0  0  0  0  0  0  0  0  0
  1  2  1  0  0  0  0
  1 27  1  0  0  0  0
  1 28  1  0  0  0  0
  1 29  1  0  0  0  0
  2  3  1  0  0  0  0
  2 30  1  0  0  0  0
  2 31  1  0  0  0  0
  3  4  1  0  0  0  0
  4  5  2  0  0  0  0
  4  6  1  0  0  0  0
  6 10  1  0  0  0  0
  6 12  1  0  0  0  0
  6  7  1  0  0  0  0
  7  8  1  0  0  0  0
  7 32  1  0  0  0  0
  7 33  1  0  0  0  0
  8  9  1  0  0  0  0
  8 10  1  0  0  0  0
  8 11  1  0  0  0  0
  9 34  1  0  0  0  0
  9 35  1  0  0  0  0
  9 36  1  0  0  0  0
 10 37  1  0  0  0  0
 10 38  1  0  0  0  0
 11 12  1  0  0  0  0
 12 26  1  0  0  0  0
 12 13  1  0  0  0  0
 13 14  1  0  0  0  0
 13 39  1  0  0  0  0
 13 40  1  0  0  0  0
 14 15  1  0  0  0  0
 14 41  1  0  0  0  0
 14 42  1  0  0  0  0
 15 16  1  0  0  0  0
 15 25  1  0  0  0  0
 16 17  2  0  0  0  0
 16 18  1  0  0  0  0
 18 22  1  0  0  0  0
 18 19  2  0  0  0  0
 19 20  1  0  0  0  0
 19 43  1  0  0  0  0
 20 21  2  0  0  0  0
 21 22  1  0  0  0  0
 22 23  1  0  0  0  0
 23 24  1  0  0  0  0
 23 44  1  0  0  0  0
 23 45  1  0  0  0  0
 24 46  1  0  0  0  0
 24 47  1  0  0  0  0
 24 48  1  0  0  0  0
 25 26  1  0  0  0  0
 25 49  1  0  0  0  0
 25 50  1  0  0  0  0
 26 51  1  0  0  0  0
 26 52  1  0  0  0  0
M  END
> <s_m_source_file>
AV-unprocessed.smi

> <i_m_source_file_index>
161

> <i_lp_mmshare_version>
43012

> <i_f3d_flags>
2

> <s_epik_input>
W0NIM11bQ0gyXU9DKD1PKVtDQEBdMShbQ0gyXVtDQF0oTzIpKFtDSDNdKVtDSDJdMSlDMjNbQ0gyXVtDSDJdTihbQ0gyXVtDSDJdMylDKD1PKWM0W2NIXW5ubjRbQ0gyXVtDSDNd

> <s_epik_cmdline>
J2VwaWtfcHl0aG9uJywgJy1waCcsICc3LjAnLCAnLXRuJywgJzgnLCAnLW1hJywgJzIwMCcsICctbWV0YWxfYmluZGluZycsICctaW1hZScsICc8aW5maWxlLm1hZT4nLCAnLW9tYWUnLCAnPG91dGZpbGUubWFlPic=

> <r_lp_tautomer_probability>
1

> <r_epik_Ionization_Penalty>
1.75517e-07

> <r_epik_Ionization_Penalty_Charging>
0

> <r_epik_Ionization_Penalty_Neutral>
1.75517e-07

> <r_epik_State_Penalty>
-0

> <r_epik_Charging_Adjusted_Penalty>
0

> <i_epik_Tot_Q>
0

> <i_epik_Tot_abs_Q>
0

> <r_epik_Metal_State_Penalty>
-0

> <b_epik_Metal_Only>
0

> <s_epik_Chemistry_Notes>
This compound has an ester and may undergo hydrolysis at high or low pH.

> <s_lp_Force_Field>
OPLS_2005

> <r_lp_Energy>
59.4881

> <b_lp_Chiralities_Consistent>
0

> <s_lp_Variant>
AV-unprocessed.smi:161-1

> <Gold.Version>
5.8.1

> <Gold.Id.Protein>
6NUR|6NUR_protein|mol2

> <Gold.PLP.Fitness>
37.0365

> <Gold.PLP.PLP>
-33.7950

> <Gold.PLP.part.hbond>
-3.7300

> <Gold.PLP.part.metal>
0.0000

> <Gold.PLP.part.buried>
-4.1322

> <Gold.PLP.part.nonpolar>
-27.5455

> <Gold.PLP.part.repulsive>
0.1355

> <Gold.PLP.ligand.clash>
0.0000

> <Gold.PLP.ligand.torsion>
1.8101

> <Gold.PLP.Chemscore.Hbond>
2.0132

> <Gold.PLP.Chemscore.CHOScore>
0.0000

> <Gold.PLP.Chemscore.Metal>
0.0000

> <Gold.Chemscore.Hbonds>
donor molecule, donor type, donor heavy atom, donor atom, acceptor molecule, acceptor atom, score
      P1  H  6931  6943       L1    11  0.88
      P1  H  6934  6947       L1    11  0.83
      P1  H 10752 10764       L1    21  0.36

> <Gold.PLP.Chemscore.Internal.Correction>
0.8222

> <Gold.Rescore>
     Score         DG    S(hbond)    S(metal)    S(lipo)     H(rot)  DE(clash)    DE(int)     intcor
     14.11     -17.75       2.02        0.00      79.39       1.47       1.75       1.89       ----

> <Gold.Chemscore.Fitness>
14.1063

> <Gold.Chemscore.DG>
-17.7492

> <Gold.Chemscore.ZeroCoef>
-5.4800

> <Gold.Chemscore.Hbond>
2.0155

> <Gold.Chemscore.Metal>
0.0000

> <Gold.Chemscore.Lipo>
79.3893

> <Gold.Chemscore.Internal_Hbond>
0.0000

> <Gold.Chemscore.DEClash>
1.7512

> <Gold.Chemscore.DEInternal>
1.8917

> <Gold.Chemscore.Rot>
1.4652

> <Gold.Chemscore.Internal.Correction>
   9.000000E+99

> <Gold.Chemscore.Hbonds>
donor molecule, donor type, donor heavy atom, donor atom, acceptor molecule, acceptor atom, score
      P1  H  6931  6943       L1    11  0.60
      P1  H  6934  6947       L1    11  0.65
      P1  H 10752 10764       L1    21  0.01

> <Gold.Chemscore.Hbond.Weighted>
-6.7317

> <Gold.Chemscore.Metal.Weighted>
-0.0000

> <Gold.Chemscore.Lipo.Weighted>
-9.2885

> <Gold.Chemscore.Internal_Hbond.Weighted>
0.0000

> <Gold.Chemscore.DEClash.Weighted>
1.7512

> <Gold.Chemscore.DEInternal.Weighted>
1.8917

> <Gold.Chemscore.Rot.Weighted>
3.7510

> <Gold.Chemscore.Internal.Correction.Weighted>
   9.000000E+99

> <Gold.Protein.RotatedTorsions>
[ 6907 6896 6895 6894 ] final  -15.20 input  -60.11 | X-H torsion
[ 7974 7965 7964 7962 ] final    3.72 input  175.53 | X-H torsion
[ 8008 7997 7996 7995 ] final  164.48 input   59.86 | X-H torsion
[ 10167 10162 10161 10158 ] final   81.92 input  -65.29 | X-H torsion
[ 10718 10713 10712 10709 ] final   39.09 input   66.30 | X-H torsion
[ 10763 10752 10751 10750 ] final  -51.37 input  -60.55 | X-H torsion
[ 11005 11000 10999 10996 ] final   67.67 input  -57.11 | X-H torsion

> <Gold.Protein.ActiveResidues>
 VAL166  LYS551  ARG553  GLY616  TRP617  ASP618  TYR619  PRO620  LYS621  CYS622 
 ASP623  PHE694  ASN695  SER759  ASP760  ASP761  ALA762  ILE779  LEU786  VAL792 
 PHE793  MET794  SER795  GLU796  ALA797  LYS798  CYS799  TRP800  GLU811  SER814 

> <Gold.Protein.RotatedAtoms>
  151.3276  135.0834  159.9327 H   0  0  0  0  0  0  0  0  0  0  0  0  # atno 6907 bound_to 6896
  152.5242  133.9576  159.7712 H   0  0  0  0  0  0  0  0  0  0  0  0  # atno 6908 bound_to 6896
  150.9908  133.6099  159.2738 H   0  0  0  0  0  0  0  0  0  0  0  0  # atno 6909 bound_to 6896
  146.2445  140.0643  142.8366 H   0  0  0  0  0  0  0  0  0  0  0  0  # atno 7974 bound_to 7965
  156.1876  140.1695  156.8154 H   0  0  0  0  0  0  0  0  0  0  0  0  # atno 8008 bound_to 7997
  154.5433  140.0732  156.8579 H   0  0  0  0  0  0  0  0  0  0  0  0  # atno 8009 bound_to 7997
  155.3171  140.3371  155.4244 H   0  0  0  0  0  0  0  0  0  0  0  0  # atno 8010 bound_to 7997
  139.9342  144.6132  150.8314 H   0  0  0  0  0  0  0  0  0  0  0  0  # atno 10167 bound_to 10162
  157.3665  130.7678  149.7087 H   0  0  0  0  0  0  0  0  0  0  0  0  # atno 10718 bound_to 10713
  154.1255  135.6528  153.4911 H   0  0  0  0  0  0  0  0  0  0  0  0  # atno 10763 bound_to 10752
  153.0212  135.5280  154.7054 H   0  0  0  0  0  0  0  0  0  0  0  0  # atno 10764 bound_to 10752
  154.6274  135.2972  155.0227 H   0  0  0  0  0  0  0  0  0  0  0  0  # atno 10765 bound_to 10752
  139.9756  134.6827  156.0360 H   0  0  0  0  0  0  0  0  0  0  0  0  # atno 11005 bound_to 11000
  145.0873  140.9261  143.4790 LP  0  0  0  0  0  0  0  0  0  0  0  0  # atno 17320 bound_to 7965
  145.0808  139.2961  143.5784 LP  0  0  0  0  0  0  0  0  0  0  0  0  # atno 17321 bound_to 7965
  140.7629  143.3209  151.2624 LP  0  0  0  0  0  0  0  0  0  0  0  0  # atno 17342 bound_to 10162
  139.6757  143.9942  152.2779 LP  0  0  0  0  0  0  0  0  0  0  0  0  # atno 17343 bound_to 10162
  155.9747  130.4099  150.3903 LP  0  0  0  0  0  0  0  0  0  0  0  0  # atno 17370 bound_to 10713
  157.1988  131.0433  151.2661 LP  0  0  0  0  0  0  0  0  0  0  0  0  # atno 17371 bound_to 10713
  141.1434  133.6560  156.3795 LP  0  0  0  0  0  0  0  0  0  0  0  0  # atno 17394 bound_to 11000
  140.5201  134.6312  157.5315 LP  0  0  0  0  0  0  0  0  0  0  0  0  # atno 17395 bound_to 11000

$$$$
