AV-unprocessed.smi:2942|AV-procd|sdf|11266|dock9
  -GOLD-   2272016153D 1   1.00000     0.00000
 Structure written by MMmdl.
 45 48  0  0  0  0  0  0  0  0  1 V2000
  150.1124  140.2983  157.3788 O   0  0  0  0  0  0  0  0  0  0  0  0
  149.9644  141.5103  157.2162 C   0  0  0  0  0  0  0  0  0  0  0  0
  149.0914  142.0129  156.3282 N   0  0  0  0  0  0  0  0  0  0  0  0
  148.1797  141.2306  155.5000 C   0  0  0  0  0  0  0  0  0  0  0  0
  147.6673  141.9990  154.2633 C   0  0  0  0  0  0  0  0  0  0  0  0
  146.4418  142.8575  154.5352 C   0  0  0  0  0  0  0  0  0  0  0  0
  145.8476  143.6084  153.4988 C   0  0  0  0  0  0  0  0  0  0  0  0
  144.7333  144.4128  153.8068 C   0  0  0  0  0  0  0  0  0  0  0  0
  144.2578  144.4361  155.1321 C   0  0  0  0  0  0  0  0  0  0  0  0
  144.9205  143.6495  156.0951 C   0  0  0  0  0  0  0  0  0  0  0  0
  145.9900  142.8762  155.8102 N   0  0  0  0  0  0  0  0  0  0  0  0
  150.7650  142.5240  158.0668 C   0  0  0  0  0  0  0  0  0  0  0  0
  151.6902  141.7487  159.0423 C   0  0  0  0  0  0  0  0  0  0  0  0
  152.5130  142.7352  159.8985 C   0  0  1  0  0  0  0  0  0  0  0  0
  153.3884  143.6124  158.9798 C   0  0  0  0  0  0  0  0  0  0  0  0
  152.4794  144.4063  158.0185 C   0  0  2  0  0  0  0  0  0  0  0  0
  151.5269  145.3089  158.8287 C   0  0  0  0  0  0  0  0  0  0  0  0
  150.6559  144.4297  159.7486 C   0  0  2  0  0  0  0  0  0  0  0  0
  151.5590  143.6333  160.7145 C   0  0  0  0  0  0  0  0  0  0  0  0
  149.8247  143.4490  158.8943 C   0  0  0  0  0  0  0  0  0  0  0  0
  151.6551  143.4234  157.1601 C   0  0  0  0  0  0  0  0  0  0  0  0
  149.0252  143.0175  156.2520 H   0  0  0  0  0  0  0  0  0  0  0  0
  148.7280  140.3482  155.1696 H   0  0  0  0  0  0  0  0  0  0  0  0
  147.3428  140.8657  156.0971 H   0  0  0  0  0  0  0  0  0  0  0  0
  148.4633  142.6328  153.8712 H   0  0  0  0  0  0  0  0  0  0  0  0
  147.4314  141.2915  153.4668 H   0  0  0  0  0  0  0  0  0  0  0  0
  146.2399  143.5753  152.4933 H   0  0  0  0  0  0  0  0  0  0  0  0
  144.2537  145.0039  153.0406 H   0  0  0  0  0  0  0  0  0  0  0  0
  143.4065  145.0421  155.4044 H   0  0  0  0  0  0  0  0  0  0  0  0
  144.5854  143.6438  157.1218 H   0  0  0  0  0  0  0  0  0  0  0  0
  151.0994  141.1069  159.6977 H   0  0  0  0  0  0  0  0  0  0  0  0
  152.3608  141.0870  158.4913 H   0  0  0  0  0  0  0  0  0  0  0  0
  153.1529  142.1739  160.5801 H   0  0  0  0  0  0  0  0  0  0  0  0
  153.9962  144.2944  159.5757 H   0  0  0  0  0  0  0  0  0  0  0  0
  154.0848  142.9907  158.4156 H   0  0  0  0  0  0  0  0  0  0  0  0
  153.0965  145.0255  157.3667 H   0  0  0  0  0  0  0  0  0  0  0  0
  152.0970  146.0265  159.4201 H   0  0  0  0  0  0  0  0  0  0  0  0
  150.8969  145.8933  158.1568 H   0  0  0  0  0  0  0  0  0  0  0  0
  149.9832  145.0658  160.3243 H   0  0  0  0  0  0  0  0  0  0  0  0
  150.9517  143.0264  161.3872 H   0  0  0  0  0  0  0  0  0  0  0  0
  152.1302  144.3149  161.3459 H   0  0  0  0  0  0  0  0  0  0  0  0
  149.1589  144.0050  158.2325 H   0  0  0  0  0  0  0  0  0  0  0  0
  149.1830  142.8673  159.5576 H   0  0  0  0  0  0  0  0  0  0  0  0
  152.3368  142.8171  156.5612 H   0  0  0  0  0  0  0  0  0  0  0  0
  151.0381  143.9800  156.4527 H   0  0  0  0  0  0  0  0  0  0  0  0
  1  2  2  0  0  0  0
  2  3  1  0  0  0  0
  2 12  1  0  0  0  0
  3  4  1  0  0  0  0
  3 22  1  0  0  0  0
  4  5  1  0  0  0  0
  4 23  1  0  0  0  0
  4 24  1  0  0  0  0
  5  6  1  0  0  0  0
  5 25  1  0  0  0  0
  5 26  1  0  0  0  0
  6 11  1  0  0  0  0
  6  7  2  0  0  0  0
  7  8  1  0  0  0  0
  7 27  1  0  0  0  0
  8  9  2  0  0  0  0
  8 28  1  0  0  0  0
  9 10  1  0  0  0  0
  9 29  1  0  0  0  0
 10 11  2  0  0  0  0
 10 30  1  0  0  0  0
 12 20  1  0  0  0  0
 12 21  1  0  0  0  0
 12 13  1  0  0  0  0
 13 14  1  0  0  0  0
 13 31  1  0  0  0  0
 13 32  1  0  0  0  0
 14 19  1  0  0  0  0
 14 15  1  0  0  0  0
 14 33  1  0  0  0  0
 15 16  1  0  0  0  0
 15 34  1  0  0  0  0
 15 35  1  0  0  0  0
 16 17  1  0  0  0  0
 16 21  1  0  0  0  0
 16 36  1  0  0  0  0
 17 18  1  0  0  0  0
 17 37  1  0  0  0  0
 17 38  1  0  0  0  0
 18 19  1  0  0  0  0
 18 20  1  0  0  0  0
 18 39  1  0  0  0  0
 19 40  1  0  0  0  0
 19 41  1  0  0  0  0
 20 42  1  0  0  0  0
 20 43  1  0  0  0  0
 21 44  1  0  0  0  0
 21 45  1  0  0  0  0
M  END
> <s_m_source_file>
AV-unprocessed.smi

> <i_m_source_file_index>
2942

> <i_lp_mmshare_version>
43012

> <i_f3d_flags>
0

> <s_epik_input>
W0NIMl0xW0NASF0oW0NIMl0yKVtDSDJdW0NASF0oW0NIMl0zKVtDSDJdW0NAQEhdMVtDSDJdQzIzQyg9TylbTkhdW0NIMl1bQ0gyXWM0W2NIXVtjSF1bY0hdW2NIXW40

> <s_epik_cmdline>
J2VwaWtfcHl0aG9uJywgJy1waCcsICc3LjAnLCAnLXRuJywgJzgnLCAnLW1hJywgJzIwMCcsICctbWV0YWxfYmluZGluZycsICctaW1hZScsICc8aW5maWxlLm1hZT4nLCAnLW9tYWUnLCAnPG91dGZpbGUubWFlPic=

> <r_epik_Ionization_Penalty>
0.0283659

> <r_epik_Ionization_Penalty_Charging>
0

> <r_epik_Ionization_Penalty_Neutral>
0.0283659

> <r_epik_State_Penalty>
0.0232723

> <r_epik_Charging_Adjusted_Penalty>
0.0232723

> <i_epik_Tot_Q>
0

> <i_epik_Tot_abs_Q>
0

> <r_epik_Metal_State_Penalty>
0.0222054

> <b_epik_Metal_Only>
0

> <s_lp_Force_Field>
OPLS_2005

> <r_lp_Energy>
35.5919

> <b_lp_Chiralities_Consistent>
1

> <s_lp_Variant>
AV-unprocessed.smi:2942-1

> <Gold.Version>
5.8.1

> <Gold.Id.Protein>
6NUR|6NUR_protein|mol2

> <Gold.PLP.Fitness>
49.7314

> <Gold.PLP.PLP>
-47.3065

> <Gold.PLP.part.hbond>
-1.0000

> <Gold.PLP.part.metal>
0.0000

> <Gold.PLP.part.buried>
-6.0289

> <Gold.PLP.part.nonpolar>
-40.2176

> <Gold.PLP.part.repulsive>
0.2069

> <Gold.PLP.ligand.clash>
0.0000

> <Gold.PLP.ligand.torsion>
0.2941

> <Gold.PLP.Chemscore.Hbond>
1.0000

> <Gold.PLP.Chemscore.CHOScore>
0.0000

> <Gold.PLP.Chemscore.Metal>
0.0000

> <Gold.Chemscore.Hbonds>
donor molecule, donor type, donor heavy atom, donor atom, acceptor molecule, acceptor atom, score
      L1  H     3    22       P1  8028  1.00

> <Gold.PLP.Chemscore.Internal.Correction>
0.0132

> <Gold.Rescore>
     Score         DG    S(hbond)    S(metal)    S(lipo)     H(rot)  DE(clash)    DE(int)     intcor
     21.27     -22.59       0.99        0.00     147.14       1.32       0.74       0.59       ----

> <Gold.Chemscore.Fitness>
21.2657

> <Gold.Chemscore.DG>
-22.5936

> <Gold.Chemscore.ZeroCoef>
-5.4800

> <Gold.Chemscore.Hbond>
0.9850

> <Gold.Chemscore.Metal>
0.0000

> <Gold.Chemscore.Lipo>
147.1408

> <Gold.Chemscore.Internal_Hbond>
0.0000

> <Gold.Chemscore.DEClash>
0.7354

> <Gold.Chemscore.DEInternal>
0.5925

> <Gold.Chemscore.Rot>
1.3250

> <Gold.Chemscore.Internal.Correction>
   9.000000E+99

> <Gold.Chemscore.Hbonds>
donor molecule, donor type, donor heavy atom, donor atom, acceptor molecule, acceptor atom, score
      L1  H     3    22       P1  8028  1.00

> <Gold.Chemscore.Hbond.Weighted>
-3.2901

> <Gold.Chemscore.Metal.Weighted>
-0.0000

> <Gold.Chemscore.Lipo.Weighted>
-17.2155

> <Gold.Chemscore.Internal_Hbond.Weighted>
0.0000

> <Gold.Chemscore.DEClash.Weighted>
0.7354

> <Gold.Chemscore.DEInternal.Weighted>
0.5925

> <Gold.Chemscore.Rot.Weighted>
3.3920

> <Gold.Chemscore.Internal.Correction.Weighted>
   9.000000E+99

> <Gold.Protein.RotatedTorsions>
[ 6907 6896 6895 6894 ] final -131.15 input  -60.11 | X-H torsion
[ 7974 7965 7964 7962 ] final  123.13 input  175.53 | X-H torsion
[ 8008 7997 7996 7995 ] final   81.15 input   59.86 | X-H torsion
[ 10167 10162 10161 10158 ] final   68.67 input  -65.29 | X-H torsion
[ 10718 10713 10712 10709 ] final  173.74 input   66.30 | X-H torsion
[ 10763 10752 10751 10750 ] final  160.20 input  -60.55 | X-H torsion
[ 11005 11000 10999 10996 ] final   38.74 input  -57.11 | X-H torsion

> <Gold.Protein.ActiveResidues>
 VAL166  LYS551  ARG553  GLY616  TRP617  ASP618  TYR619  PRO620  LYS621  CYS622 
 ASP623  PHE694  ASN695  SER759  ASP760  ASP761  ALA762  ILE779  LEU786  VAL792 
 PHE793  MET794  SER795  GLU796  ALA797  LYS798  CYS799  TRP800  GLU811  SER814 

> <Gold.Protein.RotatedAtoms>
  150.9477  133.6584  159.2777 H   0  0  0  0  0  0  0  0  0  0  0  0  # atno 6907 bound_to 6896
  151.3951  135.0961  159.9548 H   0  0  0  0  0  0  0  0  0  0  0  0  # atno 6908 bound_to 6896
  152.5097  133.8983  159.7483 H   0  0  0  0  0  0  0  0  0  0  0  0  # atno 6909 bound_to 6896
  145.0995  139.3528  143.4819 H   0  0  0  0  0  0  0  0  0  0  0  0  # atno 7974 bound_to 7965
  155.8932  140.3437  155.5972 H   0  0  0  0  0  0  0  0  0  0  0  0  # atno 8008 bound_to 7997
  155.7586  140.0829  157.2185 H   0  0  0  0  0  0  0  0  0  0  0  0  # atno 8009 bound_to 7997
  154.4035  140.1540  156.2794 H   0  0  0  0  0  0  0  0  0  0  0  0  # atno 8010 bound_to 7997
  140.0762  144.5110  150.7193 H   0  0  0  0  0  0  0  0  0  0  0  0  # atno 10167 bound_to 10162
  156.9598  131.0057  151.2930 H   0  0  0  0  0  0  0  0  0  0  0  0  # atno 10718 bound_to 10713
  154.2437  135.2774  155.2844 H   0  0  0  0  0  0  0  0  0  0  0  0  # atno 10763 bound_to 10752
  154.5523  135.5671  153.6937 H   0  0  0  0  0  0  0  0  0  0  0  0  # atno 10764 bound_to 10752
  152.9994  135.6277  154.2582 H   0  0  0  0  0  0  0  0  0  0  0  0  # atno 10765 bound_to 10752
  140.2097  134.3770  155.8055 H   0  0  0  0  0  0  0  0  0  0  0  0  # atno 11005 bound_to 11000
  146.3530  140.0866  142.8615 LP  0  0  0  0  0  0  0  0  0  0  0  0  # atno 17320 bound_to 7965
  145.0971  140.9322  143.4734 LP  0  0  0  0  0  0  0  0  0  0  0  0  # atno 17321 bound_to 7965
  140.7101  143.2498  151.4608 LP  0  0  0  0  0  0  0  0  0  0  0  0  # atno 17342 bound_to 10162
  139.5806  144.1717  152.1963 LP  0  0  0  0  0  0  0  0  0  0  0  0  # atno 17343 bound_to 10162
  157.5666  130.8281  149.8335 LP  0  0  0  0  0  0  0  0  0  0  0  0  # atno 17370 bound_to 10713
  156.0327  130.3760  150.1644 LP  0  0  0  0  0  0  0  0  0  0  0  0  # atno 17371 bound_to 10713
  141.2226  133.7136  156.8397 LP  0  0  0  0  0  0  0  0  0  0  0  0  # atno 17394 bound_to 11000
  140.1964  134.8928  157.3120 LP  0  0  0  0  0  0  0  0  0  0  0  0  # atno 17395 bound_to 11000

$$$$
