AV-unprocessed.smi:1566|AV-procd|sdf|6304|dock2
  -GOLD-   22720 6503D 1   1.00000     0.00000
 Structure written by MMmdl.
 42 43  0  0  0  0  0  0  0  0  1 V2000
  145.4530  136.5452  151.3669 C   0  0  0  0  0  0  0  0  0  0  0  0
  145.9157  137.9815  151.6445 C   0  0  0  0  0  0  0  0  0  0  0  0
  147.2307  138.0060  152.2744 N   0  0  0  0  0  0  0  0  0  0  0  0
  147.6038  138.8501  153.2467 C   0  0  0  0  0  0  0  0  0  0  0  0
  146.8590  139.7033  153.7291 O   0  0  0  0  0  0  0  0  0  0  0  0
  148.8862  138.6511  153.5957 N   0  0  0  0  0  0  0  0  0  0  0  0
  149.6544  139.3490  154.5656 C   0  0  0  0  0  0  0  0  0  0  0  0
  150.9159  138.9188  155.0413 C   0  0  0  0  0  0  0  0  0  0  0  0
  151.5897  139.7094  155.9919 C   0  0  0  0  0  0  0  0  0  0  0  0
  150.9868  140.9047  156.4337 C   0  0  0  0  0  0  0  0  0  0  0  0
  151.6547  141.6932  157.3810 N   0  0  0  0  0  0  0  0  0  0  0  0
  150.9807  142.9555  157.6546 C   0  0  0  0  0  0  0  0  0  0  0  0
  151.8307  143.8362  158.5923 C   0  0  2  0  0  0  0  0  0  0  0  0
  153.0457  144.4762  157.8976 C   0  0  0  0  0  0  0  0  0  0  0  0
  152.2044  143.0964  159.7584 O   0  0  0  0  0  0  0  0  0  0  0  0
  152.8827  141.8667  159.4981 C   0  0  1  0  0  0  0  0  0  0  0  0
  153.1884  141.1978  160.8421 C   0  0  0  0  0  0  0  0  0  0  0  0
  152.0042  140.9775  158.6002 C   0  0  0  0  0  0  0  0  0  0  0  0
  149.7873  141.3300  155.9712 N   0  0  0  0  0  0  0  0  0  0  0  0
  149.1482  140.5694  155.0580 C   0  0  0  0  0  0  0  0  0  0  0  0
  144.4597  136.5385  150.9178 H   0  0  0  0  0  0  0  0  0  0  0  0
  145.4059  135.9615  152.2868 H   0  0  0  0  0  0  0  0  0  0  0  0
  146.1295  136.0355  150.6801 H   0  0  0  0  0  0  0  0  0  0  0  0
  145.9251  138.5626  150.7210 H   0  0  0  0  0  0  0  0  0  0  0  0
  145.2083  138.4725  152.3130 H   0  0  0  0  0  0  0  0  0  0  0  0
  147.9093  137.3394  151.9366 H   0  0  0  0  0  0  0  0  0  0  0  0
  149.3932  137.9681  153.0522 H   0  0  0  0  0  0  0  0  0  0  0  0
  151.3831  138.0124  154.6889 H   0  0  0  0  0  0  0  0  0  0  0  0
  152.5532  139.4029  156.3722 H   0  0  0  0  0  0  0  0  0  0  0  0
  150.7752  143.4819  156.7216 H   0  0  0  0  0  0  0  0  0  0  0  0
  150.0168  142.7517  158.1238 H   0  0  0  0  0  0  0  0  0  0  0  0
  151.2000  144.6546  158.9399 H   0  0  0  0  0  0  0  0  0  0  0  0
  152.7251  145.1306  157.0866 H   0  0  0  0  0  0  0  0  0  0  0  0
  153.7156  143.7330  157.4662 H   0  0  0  0  0  0  0  0  0  0  0  0
  153.6217  145.0792  158.5997 H   0  0  0  0  0  0  0  0  0  0  0  0
  153.8303  142.0687  158.9982 H   0  0  0  0  0  0  0  0  0  0  0  0
  153.7172  140.2553  160.6993 H   0  0  0  0  0  0  0  0  0  0  0  0
  152.2732  140.9881  161.3966 H   0  0  0  0  0  0  0  0  0  0  0  0
  153.8147  141.8393  161.4625 H   0  0  0  0  0  0  0  0  0  0  0  0
  151.0957  140.6911  159.1324 H   0  0  0  0  0  0  0  0  0  0  0  0
  152.5340  140.0581  158.3481 H   0  0  0  0  0  0  0  0  0  0  0  0
  148.1960  140.9466  154.7143 H   0  0  0  0  0  0  0  0  0  0  0  0
  1  2  1  0  0  0  0
  1 21  1  0  0  0  0
  1 22  1  0  0  0  0
  1 23  1  0  0  0  0
  2  3  1  0  0  0  0
  2 24  1  0  0  0  0
  2 25  1  0  0  0  0
  3  4  1  0  0  0  0
  3 26  1  0  0  0  0
  4  5  2  0  0  0  0
  4  6  1  0  0  0  0
  6  7  1  0  0  0  0
  6 27  1  0  0  0  0
  7 20  1  0  0  0  0
  7  8  2  0  0  0  0
  8  9  1  0  0  0  0
  8 28  1  0  0  0  0
  9 10  2  0  0  0  0
  9 29  1  0  0  0  0
 10 11  1  0  0  0  0
 10 19  1  0  0  0  0
 11 18  1  0  0  0  0
 11 12  1  0  0  0  0
 12 13  1  0  0  0  0
 12 30  1  0  0  0  0
 12 31  1  0  0  0  0
 13 14  1  0  0  0  0
 13 15  1  0  0  0  0
 13 32  1  0  0  0  0
 14 33  1  0  0  0  0
 14 34  1  0  0  0  0
 14 35  1  0  0  0  0
 15 16  1  0  0  0  0
 16 17  1  0  0  0  0
 16 18  1  0  0  0  0
 16 36  1  0  0  0  0
 17 37  1  0  0  0  0
 17 38  1  0  0  0  0
 17 39  1  0  0  0  0
 18 40  1  0  0  0  0
 18 41  1  0  0  0  0
 19 20  2  0  0  0  0
 20 42  1  0  0  0  0
M  END
> <s_m_source_file>
AV-unprocessed.smi

> <i_m_source_file_index>
1566

> <i_lp_mmshare_version>
43012

> <i_f3d_flags>
0

> <s_epik_input>
W0NIM11bQ0gyXVtOSF1DKD1PKVtOSF1jMVtjSF1bY0hdYyhuW2NIXTEpTjJbQ0gyXVtDQEBIXShbQ0gzXSlPW0NAQEhdKFtDSDNdKVtDSDJdMg==

> <s_epik_cmdline>
J2VwaWtfcHl0aG9uJywgJy1waCcsICc3LjAnLCAnLXRuJywgJzgnLCAnLW1hJywgJzIwMCcsICctbWV0YWxfYmluZGluZycsICctaW1hZScsICc8aW5maWxlLm1hZT4nLCAnLW9tYWUnLCAnPG91dGZpbGUubWFlPic=

> <r_lp_tautomer_probability>
1

> <r_epik_Ionization_Penalty>
0.0027066

> <r_epik_Ionization_Penalty_Charging>
0

> <r_epik_Ionization_Penalty_Neutral>
0.0027066

> <r_epik_State_Penalty>
0.00185803

> <r_epik_Charging_Adjusted_Penalty>
0.00185803

> <i_epik_Tot_Q>
0

> <i_epik_Tot_abs_Q>
0

> <r_epik_Metal_State_Penalty>
-0

> <b_epik_Metal_Only>
0

> <s_lp_Force_Field>
OPLS_2005

> <r_lp_Energy>
23.2007

> <b_lp_Chiralities_Consistent>
1

> <s_lp_Variant>
AV-unprocessed.smi:1566-2

> <Gold.Version>
5.8.1

> <Gold.Id.Protein>
6NUR|6NUR_protein|mol2

> <Gold.PLP.Fitness>
45.3581

> <Gold.PLP.PLP>
-41.6129

> <Gold.PLP.part.hbond>
-2.7630

> <Gold.PLP.part.metal>
0.0000

> <Gold.PLP.part.buried>
-1.5917

> <Gold.PLP.part.nonpolar>
-38.2542

> <Gold.PLP.part.repulsive>
0.4042

> <Gold.PLP.ligand.clash>
0.0000

> <Gold.PLP.ligand.torsion>
0.2381

> <Gold.PLP.Chemscore.Hbond>
1.3744

> <Gold.PLP.Chemscore.CHOScore>
0.0000

> <Gold.PLP.Chemscore.Metal>
0.0000

> <Gold.Chemscore.Hbonds>
donor molecule, donor type, donor heavy atom, donor atom, acceptor molecule, acceptor atom, score
      L1  H     3    26       P1  7948  0.93
      L1  H     6    27       P1  7948  0.62

> <Gold.PLP.Chemscore.Internal.Correction>
0.0981

> <Gold.Rescore>
     Score         DG    S(hbond)    S(metal)    S(lipo)     H(rot)  DE(clash)    DE(int)     intcor
     17.44     -19.81       1.71        0.00      99.65       1.19       0.68       1.70       ----

> <Gold.Chemscore.Fitness>
17.4375

> <Gold.Chemscore.DG>
-19.8141

> <Gold.Chemscore.ZeroCoef>
-5.4800

> <Gold.Chemscore.Hbond>
1.7109

> <Gold.Chemscore.Metal>
0.0000

> <Gold.Chemscore.Lipo>
99.6505

> <Gold.Chemscore.Internal_Hbond>
0.0000

> <Gold.Chemscore.DEClash>
0.6786

> <Gold.Chemscore.DEInternal>
1.6980

> <Gold.Chemscore.Rot>
1.1873

> <Gold.Chemscore.Internal.Correction>
   9.000000E+99

> <Gold.Chemscore.Hbonds>
donor molecule, donor type, donor heavy atom, donor atom, acceptor molecule, acceptor atom, score
      L1  H     3    26       P1  7948  0.89
      L1  H     6    27       P1  7948  0.58

> <Gold.Chemscore.Hbond.Weighted>
-5.7145

> <Gold.Chemscore.Metal.Weighted>
-0.0000

> <Gold.Chemscore.Lipo.Weighted>
-11.6591

> <Gold.Chemscore.Internal_Hbond.Weighted>
0.0000

> <Gold.Chemscore.DEClash.Weighted>
0.6786

> <Gold.Chemscore.DEInternal.Weighted>
1.6980

> <Gold.Chemscore.Rot.Weighted>
3.0396

> <Gold.Chemscore.Internal.Correction.Weighted>
   9.000000E+99

> <Gold.Protein.RotatedTorsions>
[ 6907 6896 6895 6894 ] final   63.39 input  -60.11 | X-H torsion
[ 7974 7965 7964 7962 ] final  -97.33 input  175.53 | X-H torsion
[ 8008 7997 7996 7995 ] final -151.39 input   59.86 | X-H torsion
[ 10167 10162 10161 10158 ] final   27.63 input  -65.29 | X-H torsion
[ 10718 10713 10712 10709 ] final  -82.27 input   66.30 | X-H torsion
[ 10763 10752 10751 10750 ] final   85.16 input  -60.55 | X-H torsion
[ 11005 11000 10999 10996 ] final   92.54 input  -57.11 | X-H torsion

> <Gold.Protein.ActiveResidues>
 VAL166  LYS551  ARG553  GLY616  TRP617  ASP618  TYR619  PRO620  LYS621  CYS622 
 ASP623  PHE694  ASN695  SER759  ASP760  ASP761  ALA762  ILE779  LEU786  VAL792 
 PHE793  MET794  SER795  GLU796  ALA797  LYS798  CYS799  TRP800  GLU811  SER814 

> <Gold.Protein.RotatedAtoms>
  152.4249  134.5887  159.9967 H   0  0  0  0  0  0  0  0  0  0  0  0  # atno 6907 bound_to 6896
  151.6026  133.3349  159.3058 H   0  0  0  0  0  0  0  0  0  0  0  0  # atno 6908 bound_to 6896
  150.8138  134.7346  159.6777 H   0  0  0  0  0  0  0  0  0  0  0  0  # atno 6909 bound_to 6896
  145.3351  140.9449  143.2639 H   0  0  0  0  0  0  0  0  0  0  0  0  # atno 7974 bound_to 7965
  155.6387  140.0699  157.2625 H   0  0  0  0  0  0  0  0  0  0  0  0  # atno 8008 bound_to 7997
  154.4189  140.1754  156.1599 H   0  0  0  0  0  0  0  0  0  0  0  0  # atno 8009 bound_to 7997
  155.9873  140.3348  155.6723 H   0  0  0  0  0  0  0  0  0  0  0  0  # atno 8010 bound_to 7997
  140.4922  144.0449  150.6301 H   0  0  0  0  0  0  0  0  0  0  0  0  # atno 10167 bound_to 10162
  156.0036  130.4629  150.4080 H   0  0  0  0  0  0  0  0  0  0  0  0  # atno 10718 bound_to 10713
  153.1449  135.4627  154.9551 H   0  0  0  0  0  0  0  0  0  0  0  0  # atno 10763 bound_to 10752
  154.7778  135.3178  154.8057 H   0  0  0  0  0  0  0  0  0  0  0  0  # atno 10764 bound_to 10752
  153.8573  135.6916  153.4840 H   0  0  0  0  0  0  0  0  0  0  0  0  # atno 10765 bound_to 10752
  139.8822  134.8739  156.3587 H   0  0  0  0  0  0  0  0  0  0  0  0  # atno 11005 bound_to 11000
  144.8833  139.4873  143.6712 LP  0  0  0  0  0  0  0  0  0  0  0  0  # atno 17320 bound_to 7965
  146.3030  139.7487  142.9077 LP  0  0  0  0  0  0  0  0  0  0  0  0  # atno 17321 bound_to 7965
  140.3721  143.2849  152.0266 LP  0  0  0  0  0  0  0  0  0  0  0  0  # atno 17342 bound_to 10162
  139.4853  144.6221  151.7234 LP  0  0  0  0  0  0  0  0  0  0  0  0  # atno 17343 bound_to 10162
  157.2144  131.0468  151.2581 LP  0  0  0  0  0  0  0  0  0  0  0  0  # atno 17370 bound_to 10713
  157.3858  130.7256  149.6662 LP  0  0  0  0  0  0  0  0  0  0  0  0  # atno 17371 bound_to 10713
  140.9544  133.7429  156.0315 LP  0  0  0  0  0  0  0  0  0  0  0  0  # atno 17394 bound_to 11000
  140.8066  134.3447  157.5424 LP  0  0  0  0  0  0  0  0  0  0  0  0  # atno 17395 bound_to 11000

$$$$
