AV-unprocessed.smi:72|AV-procd|sdf|729|dock10
  -GOLD-   2262017 53D 1   1.00000     0.00000
 Structure written by MMmdl.
 28 29  0  0  0  0  0  0  0  0  2 V2000
  154.2103  138.1719  154.5864 N   0  0  0  0  0  0  0  0  0  0  0  0
  152.9872  138.4457  154.7232 C   0  0  0  0  0  0  0  0  0  0  0  0
  151.9815  137.5404  154.2125 N   0  0  0  0  0  0  0  0  0  0  0  0
  150.7363  137.8795  154.3473 C   0  0  0  0  0  0  0  0  0  0  0  0
  150.3423  139.1380  154.9728 N   0  0  0  0  0  0  0  0  0  0  0  0
  148.8871  139.5527  155.1382 C   0  0  2  0  0  0  0  0  0  0  0  0
  148.0572  138.6907  154.4119 O   0  0  0  0  0  0  0  0  0  0  0  0
  147.7275  139.2796  153.1571 C   0  0  1  0  0  0  0  0  0  0  0  0
  146.5085  138.5912  152.5185 C   0  0  0  0  0  0  0  0  0  0  0  0
  146.6642  137.1886  152.5640 O   0  0  0  0  0  0  0  0  0  0  0  0
  147.5364  140.7498  153.5414 C   0  0  1  0  0  0  0  0  0  0  0  0
  146.2432  140.9574  154.0871 O   0  0  0  0  0  0  0  0  0  0  0  0
  148.6498  140.9681  154.5657 C   0  0  1  0  0  0  0  0  0  0  0  0
  148.3005  141.9231  155.5507 O   0  0  0  0  0  0  0  0  0  0  0  0
  151.3532  139.9818  155.5084 C   0  0  0  0  0  0  0  0  0  0  0  0
  151.0034  141.0138  156.0818 O   0  0  0  0  0  0  0  0  0  0  0  0
  152.6579  139.6169  155.3677 N   0  5  0  0  0  0  0  0  0  0  0  0
  148.6779  139.4500  156.2046 H   0  0  0  0  0  0  0  0  0  0  0  0
  148.5860  139.2142  152.4858 H   0  0  0  0  0  0  0  0  0  0  0  0
  147.6506  141.4104  152.6813 H   0  0  0  0  0  0  0  0  0  0  0  0
  149.5491  141.3042  154.0471 H   0  0  0  0  0  0  0  0  0  0  0  0
  154.3629  137.2982  154.1045 H   0  0  0  0  0  0  0  0  0  0  0  0
  149.9219  137.2431  154.0019 H   0  0  0  0  0  0  0  0  0  0  0  0
  145.5814  138.8841  153.0121 H   0  0  0  0  0  0  0  0  0  0  0  0
  146.4240  138.8759  151.4693 H   0  0  0  0  0  0  0  0  0  0  0  0
  147.4685  136.9618  152.1233 H   0  0  0  0  0  0  0  0  0  0  0  0
  145.6065  140.7540  153.4186 H   0  0  0  0  0  0  0  0  0  0  0  0
  148.4424  142.7849  155.1875 H   0  0  0  0  0  0  0  0  0  0  0  0
  1  2  2  0  0  0  0
  1 22  1  0  0  0  0
  2 17  1  0  0  0  0
  2  3  1  0  0  0  0
  3  4  2  0  0  0  0
  4  5  1  0  0  0  0
  4 23  1  0  0  0  0
  5  6  1  0  0  0  0
  5 15  1  0  0  0  0
  6 18  1  0  0  0  0
  6 13  1  0  0  0  0
  6  7  1  0  0  0  0
  7  8  1  0  0  0  0
  8 19  1  0  0  0  0
  8  9  1  0  0  0  0
  8 11  1  0  0  0  0
  9 10  1  0  0  0  0
  9 24  1  0  0  0  0
  9 25  1  0  0  0  0
 10 26  1  0  0  0  0
 11 20  1  0  0  0  0
 11 12  1  0  0  0  0
 11 13  1  0  0  0  0
 12 27  1  0  0  0  0
 13 21  1  0  0  0  0
 13 14  1  0  0  0  0
 14 28  1  0  0  0  0
 15 16  2  0  0  0  0
 15 17  1  0  0  0  0
M  CHG  1  17  -1
M  END
> <s_m_source_file>
AV-unprocessed.smi

> <i_m_source_file_index>
72

> <i_lp_mmshare_version>
43012

> <i_f3d_flags>
0

> <s_epik_input>
W05IMl1jMW5bY0hdbihjKD1PKW4xKVtDQEBIXTJPW0NASF0oW0NIMl1bT0hdKVtDQEBIXShbT0hdKVtDQEhdMltPSF0=

> <s_epik_cmdline>
J2VwaWtfcHl0aG9uJywgJy1waCcsICc3LjAnLCAnLXRuJywgJzgnLCAnLW1hJywgJzIwMCcsICctbWV0YWxfYmluZGluZycsICctaW1hZScsICc8aW5maWxlLm1hZT4nLCAnLW9tYWUnLCAnPG91dGZpbGUubWFlPic=

> <r_lp_tautomer_probability>
7.17554e-07

> <r_epik_Ionization_Penalty>
12.8705

> <r_epik_Ionization_Penalty_Charging>
5.64144

> <r_epik_Ionization_Penalty_Neutral>
7.22905

> <r_epik_State_Penalty>
3.30104

> <r_epik_Charging_Adjusted_Penalty>
8.94249

> <i_epik_Tot_Q>
-1

> <i_epik_Tot_abs_Q>
1

> <r_epik_Metal_State_Penalty>
0.529074

> <b_epik_Metal_Only>
1

> <s_epik_Chemistry_Notes>
This compound contains an acetal/aminal-like group ( X-CH(R)-Y where X, Y are N, S, or O) that may be acid/base labile, releasing an aldehyde.

> <s_lp_Force_Field>
OPLS_2005

> <r_lp_Energy>
36.9813

> <b_lp_Chiralities_Consistent>
1

> <s_lp_Variant>
AV-unprocessed.smi:72-67

> <Gold.Version>
5.8.1

> <Gold.Id.Protein>
6NUR|6NUR_protein|mol2

> <Gold.PLP.Fitness>
48.8053

> <Gold.PLP.PLP>
-30.0884

> <Gold.PLP.part.hbond>
-7.1258

> <Gold.PLP.part.metal>
0.0000

> <Gold.PLP.part.buried>
-3.5372

> <Gold.PLP.part.nonpolar>
-22.8874

> <Gold.PLP.part.repulsive>
0.3374

> <Gold.PLP.ligand.clash>
0.0000

> <Gold.PLP.ligand.torsion>
0.2163

> <Gold.PLP.Chemscore.Hbond>
5.3756

> <Gold.PLP.Chemscore.CHOScore>
1.0000

> <Gold.PLP.Chemscore.Metal>
0.0000

> <Gold.Chemscore.Hbonds>
donor molecule, donor type, donor heavy atom, donor atom, acceptor molecule, acceptor atom, score
      L1  H    10    26       P1  7948  1.00
      L1  H    12    27       P1 10175  0.70
      L1  H    14    28       P1  8028  0.90
      P1  H  7997  8010       L1    17  2.00
      P1  H 10752 10765       L1     3  0.74
      L1  C     4    23       P1  7948  1.00

> <Gold.PLP.Chemscore.Internal.Correction>
0.0226

> <Gold.Rescore>
     Score         DG    S(hbond)    S(metal)    S(lipo)     H(rot)  DE(clash)    DE(int)     intcor
      6.01      -8.83       3.13        0.00      27.79       4.04       0.12       2.70       ----

> <Gold.Chemscore.Fitness>
6.0104

> <Gold.Chemscore.DG>
-8.8281

> <Gold.Chemscore.ZeroCoef>
-5.4800

> <Gold.Chemscore.Hbond>
3.1256

> <Gold.Chemscore.Metal>
0.0000

> <Gold.Chemscore.Lipo>
27.7930

> <Gold.Chemscore.Internal_Hbond>
0.0000

> <Gold.Chemscore.DEClash>
0.1199

> <Gold.Chemscore.DEInternal>
2.6978

> <Gold.Chemscore.Rot>
4.0403

> <Gold.Chemscore.Internal.Correction>
   9.000000E+99

> <Gold.Chemscore.Hbonds>
donor molecule, donor type, donor heavy atom, donor atom, acceptor molecule, acceptor atom, score
      L1  H    10    26       P1  7948  0.99
      L1  H    12    27       P1 10175  0.56
      L1  H    14    28       P1  8028  0.82
      P1  H  7997  8010       L1    17  0.25
      P1  H 10752 10765       L1     3  0.29

> <Gold.Chemscore.Hbond.Weighted>
-10.4394

> <Gold.Chemscore.Metal.Weighted>
-0.0000

> <Gold.Chemscore.Lipo.Weighted>
-3.2518

> <Gold.Chemscore.Internal_Hbond.Weighted>
0.0000

> <Gold.Chemscore.DEClash.Weighted>
0.1199

> <Gold.Chemscore.DEInternal.Weighted>
2.6978

> <Gold.Chemscore.Rot.Weighted>
10.3431

> <Gold.Chemscore.Internal.Correction.Weighted>
   9.000000E+99

> <Gold.Protein.RotatedTorsions>
[ 6907 6896 6895 6894 ] final   93.38 input  -60.11 | X-H torsion
[ 7974 7965 7964 7962 ] final  -76.60 input  175.53 | X-H torsion
[ 8008 7997 7996 7995 ] final  101.94 input   59.86 | X-H torsion
[ 10167 10162 10161 10158 ] final  -95.86 input  -65.29 | X-H torsion
[ 10718 10713 10712 10709 ] final   -4.83 input   66.30 | X-H torsion
[ 10763 10752 10751 10750 ] final  149.52 input  -60.55 | X-H torsion
[ 11005 11000 10999 10996 ] final -149.21 input  -57.11 | X-H torsion

> <Gold.Protein.ActiveResidues>
 VAL166  LYS551  ARG553  GLY616  TRP617  ASP618  TYR619  PRO620  LYS621  CYS622 
 ASP623  PHE694  ASN695  SER759  ASP760  ASP761  ALA762  ILE779  LEU786  VAL792 
 PHE793  MET794  SER795  GLU796  ALA797  LYS798  CYS799  TRP800  GLU811  SER814 

> <Gold.Protein.RotatedAtoms>
  152.5452  134.1356  159.8457 H   0  0  0  0  0  0  0  0  0  0  0  0  # atno 6907 bound_to 6896
  151.1397  133.4972  159.2604 H   0  0  0  0  0  0  0  0  0  0  0  0  # atno 6908 bound_to 6896
  151.1586  135.0272  159.8755 H   0  0  0  0  0  0  0  0  0  0  0  0  # atno 6909 bound_to 6896
  145.6107  140.9387  143.1191 H   0  0  0  0  0  0  0  0  0  0  0  0  # atno 7974 bound_to 7965
  156.1346  140.3189  155.8401 H   0  0  0  0  0  0  0  0  0  0  0  0  # atno 8008 bound_to 7997
  155.4268  140.0516  157.3039 H   0  0  0  0  0  0  0  0  0  0  0  0  # atno 8009 bound_to 7997
  154.4927  140.2098  155.9527 H   0  0  0  0  0  0  0  0  0  0  0  0  # atno 8010 bound_to 7997
  140.2998  143.3169  152.0260 H   0  0  0  0  0  0  0  0  0  0  0  0  # atno 10167 bound_to 10162
  156.7556  130.5253  149.5795 H   0  0  0  0  0  0  0  0  0  0  0  0  # atno 10718 bound_to 10713
  154.0725  135.2865  155.3305 H   0  0  0  0  0  0  0  0  0  0  0  0  # atno 10763 bound_to 10752
  154.6737  135.5290  153.8175 H   0  0  0  0  0  0  0  0  0  0  0  0  # atno 10764 bound_to 10752
  153.0479  135.6564  154.0906 H   0  0  0  0  0  0  0  0  0  0  0  0  # atno 10765 bound_to 10752
  140.7531  134.3383  157.5121 H   0  0  0  0  0  0  0  0  0  0  0  0  # atno 11005 bound_to 11000
  144.7271  139.7841  143.7361 LP  0  0  0  0  0  0  0  0  0  0  0  0  # atno 17320 bound_to 7965
  146.1506  139.4589  143.0051 LP  0  0  0  0  0  0  0  0  0  0  0  0  # atno 17321 bound_to 7965
  139.4918  144.6464  151.6769 LP  0  0  0  0  0  0  0  0  0  0  0  0  # atno 17342 bound_to 10162
  140.5661  144.0188  150.6193 LP  0  0  0  0  0  0  0  0  0  0  0  0  # atno 17343 bound_to 10162
  156.1373  130.6220  151.0418 LP  0  0  0  0  0  0  0  0  0  0  0  0  # atno 17370 bound_to 10713
  157.6758  131.0851  150.7499 LP  0  0  0  0  0  0  0  0  0  0  0  0  # atno 17371 bound_to 10713
  139.8784  134.9155  156.3132 LP  0  0  0  0  0  0  0  0  0  0  0  0  # atno 17394 bound_to 11000
  140.9732  133.7314  156.0565 LP  0  0  0  0  0  0  0  0  0  0  0  0  # atno 17395 bound_to 11000

$$$$
