AV-unprocessed.smi:3266|AV-procd|sdf|12500|dock4
  -GOLD-   2272018403D 1   1.00000     0.00000
 Structure written by MMmdl.
 38 39  0  0  0  0  0  0  0  0  1 V2000
  150.8403  137.8768  157.1387 O   0  0  0  0  0  0  0  0  0  0  0  0
  150.1887  138.3290  158.0804 C   0  0  0  0  0  0  0  0  0  0  0  0
  149.9543  137.4798  159.3311 C   0  0  0  0  0  0  0  0  0  0  0  0
  148.4840  137.0466  159.4711 C   0  0  0  0  0  0  0  0  0  0  0  0
  148.1808  136.4130  160.8365 C   0  0  2  0  0  0  0  0  0  0  0  0
  147.1922  135.2505  160.7708 C   0  0  0  0  0  0  0  0  0  0  0  0
  146.6412  135.2428  162.1782 C   0  0  0  0  0  0  0  0  0  0  0  0
  146.5522  136.7350  162.4867 C   0  0  0  0  0  0  0  0  0  0  0  0
  147.5736  137.3597  161.7125 O   0  0  0  0  0  0  0  0  0  0  0  0
  149.6654  139.5654  158.0914 N   0  0  0  0  0  0  0  0  0  0  0  0
  149.8353  140.5686  157.0427 C   0  0  0  0  0  0  0  0  0  0  0  0
  149.5834  141.9993  157.5582 C   0  0  0  0  0  0  0  0  0  0  0  0
  150.7985  142.6363  158.2115 C   0  0  0  0  0  0  0  0  0  0  0  0
  151.3806  143.8032  157.6704 C   0  0  0  0  0  0  0  0  0  0  0  0
  152.4830  144.3732  158.3356 C   0  0  0  0  0  0  0  0  0  0  0  0
  152.9617  143.7554  159.5068 C   0  0  0  0  0  0  0  0  0  0  0  0
  152.3140  142.5897  159.9624 C   0  0  0  0  0  0  0  0  0  0  0  0
  151.2557  142.0353  159.3329 N   0  0  0  0  0  0  0  0  0  0  0  0
  150.5955  136.5976  159.3007 H   0  0  0  0  0  0  0  0  0  0  0  0
  150.2603  138.0587  160.2029 H   0  0  0  0  0  0  0  0  0  0  0  0
  147.8249  137.9021  159.3153 H   0  0  0  0  0  0  0  0  0  0  0  0
  148.2440  136.3272  158.6865 H   0  0  0  0  0  0  0  0  0  0  0  0
  149.1039  136.0662  161.3042 H   0  0  0  0  0  0  0  0  0  0  0  0
  146.3926  135.4621  160.0591 H   0  0  0  0  0  0  0  0  0  0  0  0
  147.6616  134.3078  160.4881 H   0  0  0  0  0  0  0  0  0  0  0  0
  145.6821  134.7311  162.2629 H   0  0  0  0  0  0  0  0  0  0  0  0
  147.3487  134.7599  162.8539 H   0  0  0  0  0  0  0  0  0  0  0  0
  145.5876  137.1335  162.1700 H   0  0  0  0  0  0  0  0  0  0  0  0
  146.6728  136.9460  163.5495 H   0  0  0  0  0  0  0  0  0  0  0  0
  149.1389  139.8461  158.9061 H   0  0  0  0  0  0  0  0  0  0  0  0
  150.8294  140.4995  156.5978 H   0  0  0  0  0  0  0  0  0  0  0  0
  149.1303  140.3424  156.2427 H   0  0  0  0  0  0  0  0  0  0  0  0
  149.2578  142.6322  156.7317 H   0  0  0  0  0  0  0  0  0  0  0  0
  148.7590  141.9910  158.2723 H   0  0  0  0  0  0  0  0  0  0  0  0
  150.9840  144.2593  156.7754 H   0  0  0  0  0  0  0  0  0  0  0  0
  152.9507  145.2696  157.9564 H   0  0  0  0  0  0  0  0  0  0  0  0
  153.8043  144.1651  160.0437 H   0  0  0  0  0  0  0  0  0  0  0  0
  152.6545  142.0896  160.8571 H   0  0  0  0  0  0  0  0  0  0  0  0
  1  2  2  0  0  0  0
  2  3  1  0  0  0  0
  2 10  1  0  0  0  0
  3  4  1  0  0  0  0
  3 19  1  0  0  0  0
  3 20  1  0  0  0  0
  4  5  1  0  0  0  0
  4 21  1  0  0  0  0
  4 22  1  0  0  0  0
  5  9  1  0  0  0  0
  5  6  1  0  0  0  0
  5 23  1  0  0  0  0
  6  7  1  0  0  0  0
  6 24  1  0  0  0  0
  6 25  1  0  0  0  0
  7  8  1  0  0  0  0
  7 26  1  0  0  0  0
  7 27  1  0  0  0  0
  8  9  1  0  0  0  0
  8 28  1  0  0  0  0
  8 29  1  0  0  0  0
 10 11  1  0  0  0  0
 10 30  1  0  0  0  0
 11 12  1  0  0  0  0
 11 31  1  0  0  0  0
 11 32  1  0  0  0  0
 12 13  1  0  0  0  0
 12 33  1  0  0  0  0
 12 34  1  0  0  0  0
 13 18  1  0  0  0  0
 13 14  2  0  0  0  0
 14 15  1  0  0  0  0
 14 35  1  0  0  0  0
 15 16  2  0  0  0  0
 15 36  1  0  0  0  0
 16 17  1  0  0  0  0
 16 37  1  0  0  0  0
 17 18  2  0  0  0  0
 17 38  1  0  0  0  0
M  END
> <s_m_source_file>
AV-unprocessed.smi

> <i_m_source_file_index>
3266

> <i_lp_mmshare_version>
43012

> <i_f3d_flags>
0

> <s_epik_input>
TzFbQ0gyXVtDSDJdW0NIMl1bQ0BIXTFbQ0gyXVtDSDJdQyg9TylbTkhdW0NIMl1bQ0gyXWMyW2NIXVtjSF1bY0hdW2NIXW4y

> <s_epik_cmdline>
J2VwaWtfcHl0aG9uJywgJy1waCcsICc3LjAnLCAnLXRuJywgJzgnLCAnLW1hJywgJzIwMCcsICctbWV0YWxfYmluZGluZycsICctaW1hZScsICc8aW5maWxlLm1hZT4nLCAnLW9tYWUnLCAnPG91dGZpbGUubWFlPic=

> <r_epik_Ionization_Penalty>
0.0267142

> <r_epik_Ionization_Penalty_Charging>
0

> <r_epik_Ionization_Penalty_Neutral>
0.0267142

> <r_epik_State_Penalty>
0.0218233

> <r_epik_Charging_Adjusted_Penalty>
0.0218233

> <i_epik_Tot_Q>
0

> <i_epik_Tot_abs_Q>
0

> <r_epik_Metal_State_Penalty>
0.0208786

> <b_epik_Metal_Only>
0

> <s_lp_Force_Field>
OPLS_2005

> <r_lp_Energy>
16.3587

> <b_lp_Chiralities_Consistent>
1

> <s_lp_Variant>
AV-unprocessed.smi:3266-1

> <Gold.Version>
5.8.1

> <Gold.Id.Protein>
6NUR|6NUR_protein|mol2

> <Gold.PLP.Fitness>
41.7470

> <Gold.PLP.PLP>
-38.4346

> <Gold.PLP.part.hbond>
-2.0428

> <Gold.PLP.part.metal>
0.0000

> <Gold.PLP.part.buried>
-4.2851

> <Gold.PLP.part.nonpolar>
-32.3411

> <Gold.PLP.part.repulsive>
0.1621

> <Gold.PLP.ligand.clash>
0.0000

> <Gold.PLP.ligand.torsion>
0.9394

> <Gold.PLP.Chemscore.Hbond>
1.7040

> <Gold.PLP.Chemscore.CHOScore>
0.0000

> <Gold.PLP.Chemscore.Metal>
0.0000

> <Gold.Chemscore.Hbonds>
donor molecule, donor type, donor heavy atom, donor atom, acceptor molecule, acceptor atom, score
      P1  H  6931  6943       L1     9  0.63
      P1  H  6934  6947       L1     9  0.72

> <Gold.PLP.Chemscore.Internal.Correction>
0.0792

> <Gold.Rescore>
     Score         DG    S(hbond)    S(metal)    S(lipo)     H(rot)  DE(clash)    DE(int)     intcor
     16.42     -17.30       1.18        0.00     104.71       1.71       0.07       0.80       ----

> <Gold.Chemscore.Fitness>
16.4239

> <Gold.Chemscore.DG>
-17.2955

> <Gold.Chemscore.ZeroCoef>
-5.4800

> <Gold.Chemscore.Hbond>
1.1825

> <Gold.Chemscore.Metal>
0.0000

> <Gold.Chemscore.Lipo>
104.7065

> <Gold.Chemscore.Internal_Hbond>
0.0000

> <Gold.Chemscore.DEClash>
0.0727

> <Gold.Chemscore.DEInternal>
0.7989

> <Gold.Chemscore.Rot>
1.7127

> <Gold.Chemscore.Internal.Correction>
   9.000000E+99

> <Gold.Chemscore.Hbonds>
donor molecule, donor type, donor heavy atom, donor atom, acceptor molecule, acceptor atom, score
      P1  H  6931  6943       L1     9  0.06
      P1  H  6934  6947       L1     9  0.64

> <Gold.Chemscore.Hbond.Weighted>
-3.9494

> <Gold.Chemscore.Metal.Weighted>
-0.0000

> <Gold.Chemscore.Lipo.Weighted>
-12.2507

> <Gold.Chemscore.Internal_Hbond.Weighted>
0.0000

> <Gold.Chemscore.DEClash.Weighted>
0.0727

> <Gold.Chemscore.DEInternal.Weighted>
0.7989

> <Gold.Chemscore.Rot.Weighted>
4.3846

> <Gold.Chemscore.Internal.Correction.Weighted>
   9.000000E+99

> <Gold.Protein.RotatedTorsions>
[ 6907 6896 6895 6894 ] final -164.60 input  -60.11 | X-H torsion
[ 7974 7965 7964 7962 ] final -163.52 input  175.53 | X-H torsion
[ 8008 7997 7996 7995 ] final   73.47 input   59.86 | X-H torsion
[ 10167 10162 10161 10158 ] final  146.11 input  -65.29 | X-H torsion
[ 10718 10713 10712 10709 ] final  -72.48 input   66.30 | X-H torsion
[ 10763 10752 10751 10750 ] final  -42.03 input  -60.55 | X-H torsion
[ 11005 11000 10999 10996 ] final  157.54 input  -57.11 | X-H torsion

> <Gold.Protein.ActiveResidues>
 VAL166  LYS551  ARG553  GLY616  TRP617  ASP618  TYR619  PRO620  LYS621  CYS622 
 ASP623  PHE694  ASN695  SER759  ASP760  ASP761  ALA762  ILE779  LEU786  VAL792 
 PHE793  MET794  SER795  GLU796  ALA797  LYS798  CYS799  TRP800  GLU811  SER814 

> <Gold.Protein.RotatedAtoms>
  151.4144  133.3717  159.2747 H   0  0  0  0  0  0  0  0  0  0  0  0  # atno 6907 bound_to 6896
  150.9339  134.8754  159.7580 H   0  0  0  0  0  0  0  0  0  0  0  0  # atno 6908 bound_to 6896
  152.5041  134.4091  159.9494 H   0  0  0  0  0  0  0  0  0  0  0  0  # atno 6909 bound_to 6896
  144.7323  140.3095  143.6190 H   0  0  0  0  0  0  0  0  0  0  0  0  # atno 7974 bound_to 7965
  155.7841  140.3481  155.5313 H   0  0  0  0  0  0  0  0  0  0  0  0  # atno 8008 bound_to 7997
  155.8699  140.0985  157.1578 H   0  0  0  0  0  0  0  0  0  0  0  0  # atno 8009 bound_to 7997
  154.4017  140.1342  156.4052 H   0  0  0  0  0  0  0  0  0  0  0  0  # atno 8010 bound_to 7997
  139.4913  144.5853  151.6790 H   0  0  0  0  0  0  0  0  0  0  0  0  # atno 10167 bound_to 10162
  156.0319  130.4373  150.2599 H   0  0  0  0  0  0  0  0  0  0  0  0  # atno 10718 bound_to 10713
  153.9724  135.6727  153.4747 H   0  0  0  0  0  0  0  0  0  0  0  0  # atno 10763 bound_to 10752
  153.0787  135.4935  154.8454 H   0  0  0  0  0  0  0  0  0  0  0  0  # atno 10764 bound_to 10752
  154.7212  135.3117  154.9006 H   0  0  0  0  0  0  0  0  0  0  0  0  # atno 10765 bound_to 10752
  140.1779  134.8496  157.2768 H   0  0  0  0  0  0  0  0  0  0  0  0  # atno 11005 bound_to 11000
  145.7679  139.1847  143.2229 LP  0  0  0  0  0  0  0  0  0  0  0  0  # atno 17320 bound_to 7965
  146.0934  140.7629  142.9584 LP  0  0  0  0  0  0  0  0  0  0  0  0  # atno 17321 bound_to 7965
  140.5468  144.0490  150.6110 LP  0  0  0  0  0  0  0  0  0  0  0  0  # atno 17342 bound_to 10162
  140.3531  143.2951  152.0465 LP  0  0  0  0  0  0  0  0  0  0  0  0  # atno 17343 bound_to 10162
  157.0701  131.0114  151.3193 LP  0  0  0  0  0  0  0  0  0  0  0  0  # atno 17370 bound_to 10713
  157.5006  130.7877  149.7601 LP  0  0  0  0  0  0  0  0  0  0  0  0  # atno 17371 bound_to 10713
  140.2301  134.3919  155.7526 LP  0  0  0  0  0  0  0  0  0  0  0  0  # atno 17394 bound_to 11000
  141.2221  133.7210  156.8627 LP  0  0  0  0  0  0  0  0  0  0  0  0  # atno 17395 bound_to 11000

$$$$
