AV-unprocessed.smi:1586|AV-procd|sdf|6385|dock9
  -GOLD-   22720 7 23D 1   1.00000     0.00000
 Structure written by MMmdl.
 45 46  0  0  0  0  0  0  0  0  2 V2000
  151.4566  145.5535  159.8333 C   0  0  0  0  0  0  0  0  0  0  0  0
  152.3690  144.3186  159.8334 C   0  0  0  0  0  0  0  0  0  0  0  0
  151.7594  143.1009  159.3017 N   0  0  0  0  0  0  0  0  0  0  0  0
  151.5454  143.2135  157.8607 C   0  0  0  0  0  0  0  0  0  0  0  0
  150.8909  141.9474  157.2790 C   0  0  0  0  0  0  0  0  0  0  0  0
  151.7027  140.7457  157.5150 N   0  0  0  0  0  0  0  0  0  0  0  0
  151.0887  139.5255  156.9478 C   0  0  2  0  0  0  0  0  0  0  0  0
  151.2525  139.4093  155.4153 C   0  0  0  0  0  0  0  0  0  0  0  0
  149.5849  139.3629  157.2838 C   0  0  0  0  0  0  0  0  0  0  0  0
  149.2956  138.0440  157.8372 N   0  0  0  0  0  0  0  0  0  0  0  0
  149.9356  137.4800  158.8695 C   0  0  0  0  0  0  0  0  0  0  0  0
  150.8497  138.0889  159.4306 O   0  0  0  0  0  0  0  0  0  0  0  0
  149.4788  136.2462  159.1857 N   0  5  0  0  0  0  0  0  0  0  0  0
  148.5685  136.0909  160.1592 C   0  0  0  0  0  0  0  0  0  0  0  0
  148.0358  134.8549  160.6175 C   0  0  0  0  0  0  0  0  0  0  0  0
  147.1549  135.2357  161.5895 C   0  0  0  0  0  0  0  0  0  0  0  0
  146.2511  134.4687  162.4935 C   0  0  0  0  0  0  0  0  0  0  0  0
  147.1401  136.5906  161.7084 O   0  0  0  0  0  0  0  0  0  0  0  0
  148.0436  137.1309  160.7856 N   0  0  0  0  0  0  0  0  0  0  0  0
  151.9292  140.6440  158.9628 C   0  0  0  0  0  0  0  0  0  0  0  0
  152.5804  141.9139  159.5417 C   0  0  0  0  0  0  0  0  0  0  0  0
  152.0122  146.4386  160.1433 H   0  0  0  0  0  0  0  0  0  0  0  0
  150.6187  145.4418  160.5210 H   0  0  0  0  0  0  0  0  0  0  0  0
  151.0553  145.7460  158.8378 H   0  0  0  0  0  0  0  0  0  0  0  0
  153.2470  144.5618  159.2335 H   0  0  0  0  0  0  0  0  0  0  0  0
  152.7377  144.1384  160.8443 H   0  0  0  0  0  0  0  0  0  0  0  0
  150.9072  144.0722  157.6495 H   0  0  0  0  0  0  0  0  0  0  0  0
  152.4939  143.3990  157.3536 H   0  0  0  0  0  0  0  0  0  0  0  0
  149.8947  141.8171  157.7046 H   0  0  0  0  0  0  0  0  0  0  0  0
  150.7581  142.1148  156.2115 H   0  0  0  0  0  0  0  0  0  0  0  0
  151.5963  138.6624  157.3812 H   0  0  0  0  0  0  0  0  0  0  0  0
  150.6958  138.5584  155.0219 H   0  0  0  0  0  0  0  0  0  0  0  0
  152.2904  139.2527  155.1236 H   0  0  0  0  0  0  0  0  0  0  0  0
  150.8894  140.3025  154.9059 H   0  0  0  0  0  0  0  0  0  0  0  0
  149.2834  140.1191  158.0102 H   0  0  0  0  0  0  0  0  0  0  0  0
  148.9614  139.5430  156.4080 H   0  0  0  0  0  0  0  0  0  0  0  0
  148.5471  137.5215  157.4063 H   0  0  0  0  0  0  0  0  0  0  0  0
  148.2674  133.8528  160.2891 H   0  0  0  0  0  0  0  0  0  0  0  0
  146.8158  133.7400  163.0751 H   0  0  0  0  0  0  0  0  0  0  0  0
  145.4965  133.9320  161.9184 H   0  0  0  0  0  0  0  0  0  0  0  0
  145.7366  135.1306  163.1906 H   0  0  0  0  0  0  0  0  0  0  0  0
  150.9875  140.4445  159.4765 H   0  0  0  0  0  0  0  0  0  0  0  0
  152.5930  139.8103  159.1862 H   0  0  0  0  0  0  0  0  0  0  0  0
  153.5714  142.0486  159.1051 H   0  0  0  0  0  0  0  0  0  0  0  0
  152.7269  141.7682  160.6116 H   0  0  0  0  0  0  0  0  0  0  0  0
  1  2  1  0  0  0  0
  1 22  1  0  0  0  0
  1 23  1  0  0  0  0
  1 24  1  0  0  0  0
  2  3  1  0  0  0  0
  2 25  1  0  0  0  0
  2 26  1  0  0  0  0
  3 21  1  0  0  0  0
  3  4  1  0  0  0  0
  4  5  1  0  0  0  0
  4 27  1  0  0  0  0
  4 28  1  0  0  0  0
  5  6  1  0  0  0  0
  5 29  1  0  0  0  0
  5 30  1  0  0  0  0
  6  7  1  0  0  0  0
  6 20  1  0  0  0  0
  7  8  1  0  0  0  0
  7  9  1  0  0  0  0
  7 31  1  0  0  0  0
  8 32  1  0  0  0  0
  8 33  1  0  0  0  0
  8 34  1  0  0  0  0
  9 10  1  0  0  0  0
  9 35  1  0  0  0  0
  9 36  1  0  0  0  0
 10 11  1  0  0  0  0
 10 37  1  0  0  0  0
 11 12  2  0  0  0  0
 11 13  1  0  0  0  0
 13 14  1  0  0  0  0
 14 19  2  0  0  0  0
 14 15  1  0  0  0  0
 15 16  2  0  0  0  0
 15 38  1  0  0  0  0
 16 17  1  0  0  0  0
 16 18  1  0  0  0  0
 17 39  1  0  0  0  0
 17 40  1  0  0  0  0
 17 41  1  0  0  0  0
 18 19  1  0  0  0  0
 20 21  1  0  0  0  0
 20 42  1  0  0  0  0
 20 43  1  0  0  0  0
 21 44  1  0  0  0  0
 21 45  1  0  0  0  0
M  CHG  1  13  -1
M  END
> <s_m_source_file>
AV-unprocessed.smi

> <i_m_source_file_index>
1586

> <i_lp_mmshare_version>
43012

> <i_f3d_flags>
0

> <s_epik_input>
W0NIM11bQ0gyXU4xW0NIMl1bQ0gyXU4oW0NIMl1bQ0gyXTEpW0NASF0oW0NIM10pW0NIMl1bTkhdQyg9TylbTkhdYzJbY0hdYyhbQ0gzXSlvbjI=

> <s_epik_cmdline>
J2VwaWtfcHl0aG9uJywgJy1waCcsICc3LjAnLCAnLXRuJywgJzgnLCAnLW1hJywgJzIwMCcsICctbWV0YWxfYmluZGluZycsICctaW1hZScsICc8aW5maWxlLm1hZT4nLCAnLW9tYWUnLCAnPG91dGZpbGUubWFlPic=

> <r_epik_Ionization_Penalty>
9.09031

> <r_epik_Ionization_Penalty_Charging>
6.65437

> <r_epik_Ionization_Penalty_Neutral>
2.43594

> <r_epik_State_Penalty>
8.41762

> <r_epik_Charging_Adjusted_Penalty>
15.072

> <i_epik_Tot_Q>
-1

> <i_epik_Tot_abs_Q>
1

> <r_epik_Metal_State_Penalty>
4.3436

> <b_epik_Metal_Only>
1

> <s_lp_Force_Field>
OPLS_2005

> <r_lp_Energy>
37.6489

> <b_lp_Chiralities_Consistent>
1

> <s_lp_Variant>
AV-unprocessed.smi:1586-13

> <Gold.Version>
5.8.1

> <Gold.Id.Protein>
6NUR|6NUR_protein|mol2

> <Gold.PLP.Fitness>
46.8632

> <Gold.PLP.PLP>
-40.1461

> <Gold.PLP.part.hbond>
-3.9072

> <Gold.PLP.part.metal>
0.0000

> <Gold.PLP.part.buried>
-6.2632

> <Gold.PLP.part.nonpolar>
-30.8127

> <Gold.PLP.part.repulsive>
0.0849

> <Gold.PLP.ligand.clash>
0.0000

> <Gold.PLP.ligand.torsion>
1.7333

> <Gold.PLP.Chemscore.Hbond>
3.3645

> <Gold.PLP.Chemscore.CHOScore>
0.0000

> <Gold.PLP.Chemscore.Metal>
0.0000

> <Gold.Chemscore.Hbonds>
donor molecule, donor type, donor heavy atom, donor atom, acceptor molecule, acceptor atom, score
      P1  H  6896  6909       L1    13  2.00
      P1  H  6931  6943       L1    19  0.90
      P1  H  6934  6947       L1    19  0.43

> <Gold.PLP.Chemscore.Internal.Correction>
0.0901

> <Gold.Rescore>
     Score         DG    S(hbond)    S(metal)    S(lipo)     H(rot)  DE(clash)    DE(int)     intcor
     12.85     -17.49       1.65        0.00      92.33       1.68       0.21       4.42       ----

> <Gold.Chemscore.Fitness>
12.8520

> <Gold.Chemscore.DG>
-17.4852

> <Gold.Chemscore.ZeroCoef>
-5.4800

> <Gold.Chemscore.Hbond>
1.6470

> <Gold.Chemscore.Metal>
0.0000

> <Gold.Chemscore.Lipo>
92.3252

> <Gold.Chemscore.Internal_Hbond>
0.0000

> <Gold.Chemscore.DEClash>
0.2144

> <Gold.Chemscore.DEInternal>
4.4188

> <Gold.Chemscore.Rot>
1.6788

> <Gold.Chemscore.Internal.Correction>
   9.000000E+99

> <Gold.Chemscore.Hbonds>
donor molecule, donor type, donor heavy atom, donor atom, acceptor molecule, acceptor atom, score
      P1  H  6896  6909       L1    13  0.28
      P1  H  6931  6943       L1    19  0.26
      P1  H  6934  6947       L1    19  0.04

> <Gold.Chemscore.Hbond.Weighted>
-5.5010

> <Gold.Chemscore.Metal.Weighted>
-0.0000

> <Gold.Chemscore.Lipo.Weighted>
-10.8020

> <Gold.Chemscore.Internal_Hbond.Weighted>
0.0000

> <Gold.Chemscore.DEClash.Weighted>
0.2144

> <Gold.Chemscore.DEInternal.Weighted>
4.4188

> <Gold.Chemscore.Rot.Weighted>
4.2978

> <Gold.Chemscore.Internal.Correction.Weighted>
   9.000000E+99

> <Gold.Protein.RotatedTorsions>
[ 6907 6896 6895 6894 ] final   65.44 input  -60.11 | X-H torsion
[ 7974 7965 7964 7962 ] final   78.15 input  175.53 | X-H torsion
[ 8008 7997 7996 7995 ] final   95.95 input   59.86 | X-H torsion
[ 10167 10162 10161 10158 ] final  134.16 input  -65.29 | X-H torsion
[ 10718 10713 10712 10709 ] final -127.15 input   66.30 | X-H torsion
[ 10763 10752 10751 10750 ] final   25.31 input  -60.55 | X-H torsion
[ 11005 11000 10999 10996 ] final -136.57 input  -57.11 | X-H torsion

> <Gold.Protein.ActiveResidues>
 VAL166  LYS551  ARG553  GLY616  TRP617  ASP618  TYR619  PRO620  LYS621  CYS622 
 ASP623  PHE694  ASN695  SER759  ASP760  ASP761  ALA762  ILE779  LEU786  VAL792 
 PHE793  MET794  SER795  GLU796  ALA797  LYS798  CYS799  TRP800  GLU811  SER814 

> <Gold.Protein.RotatedAtoms>
  152.4408  134.5595  159.9889 H   0  0  0  0  0  0  0  0  0  0  0  0  # atno 6907 bound_to 6896
  151.5693  133.3386  159.2994 H   0  0  0  0  0  0  0  0  0  0  0  0  # atno 6908 bound_to 6896
  150.8313  134.7602  159.6920 H   0  0  0  0  0  0  0  0  0  0  0  0  # atno 6909 bound_to 6896
  145.6809  139.2523  143.1814 H   0  0  0  0  0  0  0  0  0  0  0  0  # atno 7974 bound_to 7965
  156.0744  140.3279  155.7616 H   0  0  0  0  0  0  0  0  0  0  0  0  # atno 8008 bound_to 7997
  155.5253  140.0588  157.2916 H   0  0  0  0  0  0  0  0  0  0  0  0  # atno 8009 bound_to 7997
  154.4548  140.1937  156.0430 H   0  0  0  0  0  0  0  0  0  0  0  0  # atno 8010 bound_to 7997
  139.5267  144.6581  151.5099 H   0  0  0  0  0  0  0  0  0  0  0  0  # atno 10167 bound_to 10162
  156.1831  130.6745  151.0329 H   0  0  0  0  0  0  0  0  0  0  0  0  # atno 10718 bound_to 10713
  153.0701  135.6586  154.0267 H   0  0  0  0  0  0  0  0  0  0  0  0  # atno 10763 bound_to 10752
  153.9914  135.2945  155.3413 H   0  0  0  0  0  0  0  0  0  0  0  0  # atno 10764 bound_to 10752
  154.7072  135.5220  153.8683 H   0  0  0  0  0  0  0  0  0  0  0  0  # atno 10765 bound_to 10752
  140.8792  134.1953  157.4602 H   0  0  0  0  0  0  0  0  0  0  0  0  # atno 11005 bound_to 11000
  146.0965  140.7595  142.9570 LP  0  0  0  0  0  0  0  0  0  0  0  0  # atno 17320 bound_to 7965
  144.7026  140.3719  143.7143 LP  0  0  0  0  0  0  0  0  0  0  0  0  # atno 17321 bound_to 7965
  140.6416  143.8877  150.6697 LP  0  0  0  0  0  0  0  0  0  0  0  0  # atno 17342 bound_to 10162
  140.2214  143.3806  152.1640 LP  0  0  0  0  0  0  0  0  0  0  0  0  # atno 17343 bound_to 10162
  157.6881  131.0818  150.7186 LP  0  0  0  0  0  0  0  0  0  0  0  0  # atno 17370 bound_to 10713
  156.7243  130.4690  149.5515 LP  0  0  0  0  0  0  0  0  0  0  0  0  # atno 17371 bound_to 10713
  139.8718  134.9810  156.5097 LP  0  0  0  0  0  0  0  0  0  0  0  0  # atno 17394 bound_to 11000
  140.8481  133.8153  155.9141 LP  0  0  0  0  0  0  0  0  0  0  0  0  # atno 17395 bound_to 11000

$$$$
