AV-unprocessed.smi:37|AV-procd|sdf|312|dock6
  -GOLD-   2262016133D 1   1.00000     0.00000
 Structure written by MMmdl.
 44 45  0  0  0  0  0  0  0  0  1 V2000
  147.5008  144.4917  161.4080 C   0  0  0  0  0  0  0  0  0  0  0  0
  146.3071  143.6290  160.9765 C   0  0  0  0  0  0  0  0  0  0  0  0
  146.4257  143.1619  159.5274 C   0  0  0  0  0  0  0  0  0  0  0  0
  145.5850  143.4707  158.6829 O   0  0  0  0  0  0  0  0  0  0  0  0
  147.5202  142.4154  159.3123 O   0  0  0  0  0  0  0  0  0  0  0  0
  148.1434  142.4347  158.0392 C   0  0  0  0  0  0  0  0  0  0  0  0
  149.4783  141.6834  158.1170 C   0  0  1  0  0  0  0  0  0  0  0  0
  149.2488  140.3334  157.7174 O   0  0  0  0  0  0  0  0  0  0  0  0
  150.1327  139.9917  156.6987 C   0  0  1  0  0  0  0  0  0  0  0  0
  149.5293  138.9320  155.8005 N   0  0  0  0  0  0  0  0  0  0  0  0
  148.2346  138.4961  156.0443 C   0  0  0  0  0  0  0  0  0  0  0  0
  147.6086  137.5692  155.2815 C   0  0  0  0  0  0  0  0  0  0  0  0
  146.3553  137.1937  155.5886 F   0  0  0  0  0  0  0  0  0  0  0  0
  148.2813  136.9756  154.1304 C   0  0  0  0  0  0  0  0  0  0  0  0
  147.7997  136.1271  153.3825 O   0  0  0  0  0  0  0  0  0  0  0  0
  149.5756  137.4543  153.9098 N   0  0  0  0  0  0  0  0  0  0  0  0
  150.2314  138.4122  154.6854 C   0  0  0  0  0  0  0  0  0  0  0  0
  151.3679  138.7668  154.3763 O   0  0  0  0  0  0  0  0  0  0  0  0
  150.5711  141.2867  155.9999 C   0  0  1  0  0  0  0  0  0  0  0  0
  149.3305  141.9634  154.5896 Br  0  0  0  0  0  0  0  0  0  0  0  0
  150.5509  142.2567  157.1714 C   0  0  2  0  0  0  0  0  0  0  0  0
  151.8020  142.2502  157.8508 O   0  0  0  0  0  0  0  0  0  0  0  0
  152.0379  143.1174  158.8531 C   0  0  0  0  0  0  0  0  0  0  0  0
  151.3497  144.0980  159.1364 O   0  0  0  0  0  0  0  0  0  0  0  0
  153.3036  142.7806  159.6383 C   0  0  0  0  0  0  0  0  0  0  0  0
  153.1814  141.4499  160.3930 C   0  0  0  0  0  0  0  0  0  0  0  0
  150.0776  137.0792  153.1184 H   0  0  0  0  0  0  0  0  0  0  0  0
  147.4163  144.7649  162.4597 H   0  0  0  0  0  0  0  0  0  0  0  0
  147.5556  145.4157  160.8316 H   0  0  0  0  0  0  0  0  0  0  0  0
  148.4432  143.9580  161.2799 H   0  0  0  0  0  0  0  0  0  0  0  0
  146.2311  142.7540  161.6224 H   0  0  0  0  0  0  0  0  0  0  0  0
  145.3791  144.1894  161.0922 H   0  0  0  0  0  0  0  0  0  0  0  0
  147.4875  141.9516  157.3139 H   0  0  0  0  0  0  0  0  0  0  0  0
  148.2989  143.4610  157.7046 H   0  0  0  0  0  0  0  0  0  0  0  0
  149.8272  141.6836  159.1509 H   0  0  0  0  0  0  0  0  0  0  0  0
  150.9796  139.5072  157.1884 H   0  0  0  0  0  0  0  0  0  0  0  0
  147.6941  138.9024  156.8874 H   0  0  0  0  0  0  0  0  0  0  0  0
  151.5533  141.1654  155.5423 H   0  0  0  0  0  0  0  0  0  0  0  0
  150.3062  143.2726  156.8567 H   0  0  0  0  0  0  0  0  0  0  0  0
  154.1471  142.7444  158.9486 H   0  0  0  0  0  0  0  0  0  0  0  0
  153.5057  143.5875  160.3432 H   0  0  0  0  0  0  0  0  0  0  0  0
  154.0812  141.2566  160.9772 H   0  0  0  0  0  0  0  0  0  0  0  0
  153.0474  140.6117  159.7083 H   0  0  0  0  0  0  0  0  0  0  0  0
  152.3361  141.4608  161.0821 H   0  0  0  0  0  0  0  0  0  0  0  0
  1  2  1  0  0  0  0
  1 28  1  0  0  0  0
  1 29  1  0  0  0  0
  1 30  1  0  0  0  0
  2  3  1  0  0  0  0
  2 31  1  0  0  0  0
  2 32  1  0  0  0  0
  3  4  2  0  0  0  0
  3  5  1  0  0  0  0
  5  6  1  0  0  0  0
  6  7  1  0  0  0  0
  6 33  1  0  0  0  0
  6 34  1  0  0  0  0
  7 21  1  0  0  0  0
  7  8  1  0  0  0  0
  7 35  1  0  0  0  0
  8  9  1  0  0  0  0
  9 10  1  0  0  0  0
  9 19  1  0  0  0  0
  9 36  1  0  0  0  0
 10 17  1  0  0  0  0
 10 11  1  0  0  0  0
 11 12  2  0  0  0  0
 11 37  1  0  0  0  0
 12 13  1  0  0  0  0
 12 14  1  0  0  0  0
 14 15  2  0  0  0  0
 14 16  1  0  0  0  0
 16 27  1  0  0  0  0
 16 17  1  0  0  0  0
 17 18  2  0  0  0  0
 19 20  1  0  0  0  0
 19 21  1  0  0  0  0
 19 38  1  0  0  0  0
 21 22  1  0  0  0  0
 21 39  1  0  0  0  0
 22 23  1  0  0  0  0
 23 24  2  0  0  0  0
 23 25  1  0  0  0  0
 25 26  1  0  0  0  0
 25 40  1  0  0  0  0
 25 41  1  0  0  0  0
 26 42  1  0  0  0  0
 26 43  1  0  0  0  0
 26 44  1  0  0  0  0
M  END
> <s_m_source_file>
AV-unprocessed.smi

> <i_m_source_file_index>
37

> <i_lp_mmshare_version>
43012

> <i_f3d_flags>
0

> <s_epik_input>
W0NIM11bQ0gyXUMoPU8pT1tDSDJdW0NAQEhdMU9bQ0BASF0objJbY0hdYyhGKWMoPU8pW25IXWMyPU8pW0NAQEhdKEJyKVtDQEhdMU9DKD1PKVtDSDJdW0NIM10=

> <s_epik_cmdline>
J2VwaWtfcHl0aG9uJywgJy1waCcsICc3LjAnLCAnLXRuJywgJzgnLCAnLW1hJywgJzIwMCcsICctbWV0YWxfYmluZGluZycsICctaW1hZScsICc8aW5maWxlLm1hZT4nLCAnLW9tYWUnLCAnPG91dGZpbGUubWFlPic=

> <r_lp_tautomer_probability>
0.999537

> <r_epik_Ionization_Penalty>
0.104106

> <r_epik_Ionization_Penalty_Charging>
0.104106

> <r_epik_Ionization_Penalty_Neutral>
3.94675e-16

> <r_epik_State_Penalty>
0.0940182

> <r_epik_Charging_Adjusted_Penalty>
0.198124

> <i_epik_Tot_Q>
0

> <i_epik_Tot_abs_Q>
0

> <r_epik_Metal_State_Penalty>
3.05314

> <b_epik_Metal_Only>
0

> <s_epik_Chemistry_Notes>
This compound has an ester and may undergo hydrolysis at high or low pH. This compound contains an acetal/aminal-like group ( X-CH(R)-Y where X, Y are N, S, or O) that may be acid/base labile, releasing an aldehyde.

> <s_lp_Force_Field>
OPLS_2005

> <r_lp_Energy>
23.0288

> <b_lp_Chiralities_Consistent>
1

> <s_lp_Variant>
AV-unprocessed.smi:37-10

> <Gold.Version>
5.8.1

> <Gold.Id.Protein>
6NUR|6NUR_protein|mol2

> <Gold.PLP.Fitness>
35.7988

> <Gold.PLP.PLP>
-35.2094

> <Gold.PLP.part.hbond>
-2.4753

> <Gold.PLP.part.metal>
0.0000

> <Gold.PLP.part.buried>
-5.3998

> <Gold.PLP.part.nonpolar>
-27.4271

> <Gold.PLP.part.repulsive>
0.5392

> <Gold.PLP.ligand.clash>
0.0000

> <Gold.PLP.ligand.torsion>
1.0435

> <Gold.PLP.Chemscore.Hbond>
0.8320

> <Gold.PLP.Chemscore.CHOScore>
0.0000

> <Gold.PLP.Chemscore.Metal>
0.0000

> <Gold.Chemscore.Hbonds>
donor molecule, donor type, donor heavy atom, donor atom, acceptor molecule, acceptor atom, score
      L1  H    16    27       P1  7948  0.23
      P1  H  7989  7998       L1    18  0.37

> <Gold.PLP.Chemscore.Internal.Correction>
0.1804

> <Gold.Rescore>
     Score         DG    S(hbond)    S(metal)    S(lipo)     H(rot)  DE(clash)    DE(int)     intcor
      6.08      -6.96       0.92        0.00      59.23       3.33       0.21       0.67       ----

> <Gold.Chemscore.Fitness>
6.0789

> <Gold.Chemscore.DG>
-6.9617

> <Gold.Chemscore.ZeroCoef>
-5.4800

> <Gold.Chemscore.Hbond>
0.9213

> <Gold.Chemscore.Metal>
0.0000

> <Gold.Chemscore.Lipo>
59.2311

> <Gold.Chemscore.Internal_Hbond>
0.0000

> <Gold.Chemscore.DEClash>
0.2146

> <Gold.Chemscore.DEInternal>
0.6682

> <Gold.Chemscore.Rot>
3.3303

> <Gold.Chemscore.Internal.Correction>
   9.000000E+99

> <Gold.Chemscore.Hbonds>
donor molecule, donor type, donor heavy atom, donor atom, acceptor molecule, acceptor atom, score
      L1  H    16    27       P1  7948  0.03
      P1  H  7989  7998       L1    18  0.35

> <Gold.Chemscore.Hbond.Weighted>
-3.0772

> <Gold.Chemscore.Metal.Weighted>
-0.0000

> <Gold.Chemscore.Lipo.Weighted>
-6.9300

> <Gold.Chemscore.Internal_Hbond.Weighted>
0.0000

> <Gold.Chemscore.DEClash.Weighted>
0.2146

> <Gold.Chemscore.DEInternal.Weighted>
0.6682

> <Gold.Chemscore.Rot.Weighted>
8.5256

> <Gold.Chemscore.Internal.Correction.Weighted>
   9.000000E+99

> <Gold.Protein.RotatedTorsions>
[ 6907 6896 6895 6894 ] final -120.99 input  -60.11 | X-H torsion
[ 7974 7965 7964 7962 ] final -121.63 input  175.53 | X-H torsion
[ 8008 7997 7996 7995 ] final -102.95 input   59.86 | X-H torsion
[ 10167 10162 10161 10158 ] final  178.71 input  -65.29 | X-H torsion
[ 10718 10713 10712 10709 ] final   47.15 input   66.30 | X-H torsion
[ 10763 10752 10751 10750 ] final -130.06 input  -60.55 | X-H torsion
[ 11005 11000 10999 10996 ] final  113.15 input  -57.11 | X-H torsion

> <Gold.Protein.ActiveResidues>
 VAL166  LYS551  ARG553  GLY616  TRP617  ASP618  TYR619  PRO620  LYS621  CYS622 
 ASP623  PHE694  ASN695  SER759  ASP760  ASP761  ALA762  ILE779  LEU786  VAL792 
 PHE793  MET794  SER795  GLU796  ALA797  LYS798  CYS799  TRP800  GLU811  SER814 

> <Gold.Protein.RotatedAtoms>
  150.8443  133.7886  159.3048 H   0  0  0  0  0  0  0  0  0  0  0  0  # atno 6907 bound_to 6896
  151.5578  135.1064  159.9975 H   0  0  0  0  0  0  0  0  0  0  0  0  # atno 6908 bound_to 6896
  152.4500  133.7568  159.6781 H   0  0  0  0  0  0  0  0  0  0  0  0  # atno 6909 bound_to 6896
  145.0382  140.8123  143.4282 H   0  0  0  0  0  0  0  0  0  0  0  0  # atno 7974 bound_to 7965
  154.8640  140.0425  157.1683 H   0  0  0  0  0  0  0  0  0  0  0  0  # atno 8008 bound_to 7997
  154.8810  140.2972  155.5404 H   0  0  0  0  0  0  0  0  0  0  0  0  # atno 8009 bound_to 7997
  156.2999  140.2411  156.3813 H   0  0  0  0  0  0  0  0  0  0  0  0  # atno 8010 bound_to 7997
  139.5305  144.2647  152.0678 H   0  0  0  0  0  0  0  0  0  0  0  0  # atno 10167 bound_to 10162
  157.4555  130.8164  149.7832 H   0  0  0  0  0  0  0  0  0  0  0  0  # atno 10718 bound_to 10713
  154.8756  135.3875  154.4021 H   0  0  0  0  0  0  0  0  0  0  0  0  # atno 10763 bound_to 10752
  153.4744  135.7030  153.5979 H   0  0  0  0  0  0  0  0  0  0  0  0  # atno 10764 bound_to 10752
  153.4422  135.3853  155.2203 H   0  0  0  0  0  0  0  0  0  0  0  0  # atno 10765 bound_to 10752
  139.8945  134.9544  156.6694 H   0  0  0  0  0  0  0  0  0  0  0  0  # atno 11005 bound_to 11000
  145.1682  139.2419  143.5356 LP  0  0  0  0  0  0  0  0  0  0  0  0  # atno 17320 bound_to 7965
  146.3506  140.1426  142.8594 LP  0  0  0  0  0  0  0  0  0  0  0  0  # atno 17321 bound_to 7965
  140.2110  144.4563  150.6386 LP  0  0  0  0  0  0  0  0  0  0  0  0  # atno 17342 bound_to 10162
  140.6480  143.2218  151.6141 LP  0  0  0  0  0  0  0  0  0  0  0  0  # atno 17343 bound_to 10162
  156.0005  130.3883  150.2624 LP  0  0  0  0  0  0  0  0  0  0  0  0  # atno 17370 bound_to 10713
  157.0798  131.0140  151.3160 LP  0  0  0  0  0  0  0  0  0  0  0  0  # atno 17371 bound_to 10713
  140.7385  133.8998  155.8261 LP  0  0  0  0  0  0  0  0  0  0  0  0  # atno 17394 bound_to 11000
  141.0097  134.1038  157.4234 LP  0  0  0  0  0  0  0  0  0  0  0  0  # atno 17395 bound_to 11000

$$$$
