AV-unprocessed.smi:47|AV-procd|sdf|432|dock8
  -GOLD-   2262016303D 1   1.00000     0.00000
 Structure written by MMmdl.
 32 34  0  0  0  0  0  0  0  0  2 V2000
  146.0141  132.3799  150.3782 O   0  0  0  0  0  0  0  0  0  0  0  0
  145.9330  133.2632  151.4765 C   0  0  2  0  0  0  0  0  0  0  0  0
  145.6506  132.5275  152.7914 C   0  0  0  0  0  0  0  0  0  0  0  0
  144.8966  133.4743  153.6376 N   0  3  0  0  0  0  0  0  0  0  0  0
  144.5258  134.6416  152.8095 C   0  0  2  0  0  0  0  0  0  0  0  0
  143.1004  134.9452  153.1631 C   0  0  0  0  0  0  0  0  0  0  0  0
  142.2474  133.9832  153.5296 N   0  0  0  0  0  0  0  0  0  0  0  0
  141.0428  134.5283  153.8035 N   0  0  0  0  0  0  0  0  0  0  0  0
  141.2750  135.8204  153.5784 C   0  0  0  0  0  0  0  0  0  0  0  0
  140.2203  136.8458  153.7554 C   0  0  0  0  0  0  0  0  0  0  0  0
  138.9186  136.4876  154.1837 C   0  0  0  0  0  0  0  0  0  0  0  0
  137.9130  137.4590  154.3531 C   0  0  0  0  0  0  0  0  0  0  0  0
  138.1913  138.8130  154.0963 C   0  0  0  0  0  0  0  0  0  0  0  0
  139.4768  139.1901  153.6696 C   0  0  0  0  0  0  0  0  0  0  0  0
  140.4789  138.2151  153.5014 C   0  0  0  0  0  0  0  0  0  0  0  0
  142.5388  136.1532  153.1757 N   0  0  0  0  0  0  0  0  0  0  0  0
  144.7548  134.2246  151.3548 C   0  0  0  0  0  0  0  0  0  0  0  0
  146.8626  133.8285  151.5602 H   0  0  0  0  0  0  0  0  0  0  0  0
  145.1732  135.4786  153.0760 H   0  0  0  0  0  0  0  0  0  0  0  0
  146.9072  132.0813  150.2925 H   0  0  0  0  0  0  0  0  0  0  0  0
  145.0139  131.6585  152.6185 H   0  0  0  0  0  0  0  0  0  0  0  0
  146.5618  132.1844  153.2823 H   0  0  0  0  0  0  0  0  0  0  0  0
  144.0566  133.0201  153.9686 H   0  0  0  0  0  0  0  0  0  0  0  0
  138.6742  135.4555  154.3874 H   0  0  0  0  0  0  0  0  0  0  0  0
  136.9269  137.1633  154.6802 H   0  0  0  0  0  0  0  0  0  0  0  0
  137.4216  139.5597  154.2256 H   0  0  0  0  0  0  0  0  0  0  0  0
  139.6957  140.2290  153.4707 H   0  0  0  0  0  0  0  0  0  0  0  0
  141.4566  138.5352  153.1726 H   0  0  0  0  0  0  0  0  0  0  0  0
  144.9415  135.0685  150.6901 H   0  0  0  0  0  0  0  0  0  0  0  0
  143.8834  133.6854  150.9780 H   0  0  0  0  0  0  0  0  0  0  0  0
  145.4547  133.7751  154.4234 H   0  0  0  0  0  0  0  0  0  0  0  0
  142.4319  132.9929  153.6060 H   0  0  0  0  0  0  0  0  0  0  0  0
  1  2  1  0  0  0  0
  1 20  1  0  0  0  0
  2 18  1  0  0  0  0
  2 17  1  0  0  0  0
  2  3  1  0  0  0  0
  3  4  1  0  0  0  0
  3 21  1  0  0  0  0
  3 22  1  0  0  0  0
  4  5  1  0  0  0  0
  4 23  1  0  0  0  0
  4 31  1  0  0  0  0
  5 19  1  0  0  0  0
  5  6  1  0  0  0  0
  5 17  1  0  0  0  0
  6 16  2  0  0  0  0
  6  7  1  0  0  0  0
  7  8  1  0  0  0  0
  7 32  1  0  0  0  0
  8  9  2  0  0  0  0
  9 10  1  0  0  0  0
  9 16  1  0  0  0  0
 10 15  1  0  0  0  0
 10 11  2  0  0  0  0
 11 12  1  0  0  0  0
 11 24  1  0  0  0  0
 12 13  2  0  0  0  0
 12 25  1  0  0  0  0
 13 14  1  0  0  0  0
 13 26  1  0  0  0  0
 14 15  2  0  0  0  0
 14 27  1  0  0  0  0
 15 28  1  0  0  0  0
 17 29  1  0  0  0  0
 17 30  1  0  0  0  0
M  CHG  1   4   1
M  END
> <s_m_source_file>
AV-unprocessed.smi

> <i_m_source_file_index>
47

> <i_lp_mmshare_version>
43012

> <i_f3d_flags>
0

> <s_epik_input>
W09IXVtDQEhdMVtDSDJdW05IXVtDQEBIXShbQ0gyXTEpYzJuW25IXWMobjIpLWMzW2NIXVtjSF1bY0hdW2NIXVtjSF0z

> <s_epik_cmdline>
J2VwaWtfcHl0aG9uJywgJy1waCcsICc3LjAnLCAnLXRuJywgJzgnLCAnLW1hJywgJzIwMCcsICctbWV0YWxfYmluZGluZycsICctaW1hZScsICc8aW5maWxlLm1hZT4nLCAnLW9tYWUnLCAnPG91dGZpbGUubWFlPic=

> <r_epik_Ionization_Penalty>
1.14296

> <r_epik_Ionization_Penalty_Charging>
0.0688988

> <r_epik_Ionization_Penalty_Neutral>
1.07406

> <r_epik_State_Penalty>
1.72347

> <r_epik_Charging_Adjusted_Penalty>
1.79237

> <i_epik_Tot_Q>
1

> <i_epik_Tot_abs_Q>
1

> <r_epik_Metal_State_Penalty>
2.22085

> <b_epik_Metal_Only>
0

> <s_lp_Force_Field>
OPLS_2005

> <r_lp_Energy>
30.6831

> <b_lp_Chiralities_Consistent>
1

> <s_lp_Variant>
AV-unprocessed.smi:47-10

> <Gold.Version>
5.8.1

> <Gold.Id.Protein>
6NUR|6NUR_protein|mol2

> <Gold.PLP.Fitness>
42.4490

> <Gold.PLP.PLP>
-30.8812

> <Gold.PLP.part.hbond>
-3.9775

> <Gold.PLP.part.metal>
0.0000

> <Gold.PLP.part.buried>
-4.9709

> <Gold.PLP.part.nonpolar>
-22.9318

> <Gold.PLP.part.repulsive>
0.4166

> <Gold.PLP.ligand.clash>
0.0000

> <Gold.PLP.ligand.torsion>
0.7214

> <Gold.PLP.Chemscore.Hbond>
4.3325

> <Gold.PLP.Chemscore.CHOScore>
0.0000

> <Gold.PLP.Chemscore.Metal>
0.0000

> <Gold.Chemscore.Hbonds>
donor molecule, donor type, donor heavy atom, donor atom, acceptor molecule, acceptor atom, score
      L1  H     1    20       P1 10747  0.08
      L1  H     4    23       P1 10957  1.95
      L1  H     7    32       P1 10957  0.83
      P1  H 11000 11005       L1     8  1.00

> <Gold.PLP.Chemscore.Internal.Correction>
0.0131

> <Gold.Rescore>
     Score         DG    S(hbond)    S(metal)    S(lipo)     H(rot)  DE(clash)    DE(int)     intcor
     18.90     -19.63       3.15        0.00      63.78       1.50       0.07       0.67       ----

> <Gold.Chemscore.Fitness>
18.8973

> <Gold.Chemscore.DG>
-19.6302

> <Gold.Chemscore.ZeroCoef>
-5.4800

> <Gold.Chemscore.Hbond>
3.1494

> <Gold.Chemscore.Metal>
0.0000

> <Gold.Chemscore.Lipo>
63.7815

> <Gold.Chemscore.Internal_Hbond>
0.0000

> <Gold.Chemscore.DEClash>
0.0650

> <Gold.Chemscore.DEInternal>
0.6679

> <Gold.Chemscore.Rot>
1.4966

> <Gold.Chemscore.Internal.Correction>
   9.000000E+99

> <Gold.Chemscore.Hbonds>
donor molecule, donor type, donor heavy atom, donor atom, acceptor molecule, acceptor atom, score
      L1  H     1    20       P1 10747  0.13
      L1  H     4    23       P1 10957  0.89
      L1  H     7    32       P1 10957  0.77
      P1  H 11000 11005       L1     8  0.65

> <Gold.Chemscore.Hbond.Weighted>
-10.5190

> <Gold.Chemscore.Metal.Weighted>
-0.0000

> <Gold.Chemscore.Lipo.Weighted>
-7.4624

> <Gold.Chemscore.Internal_Hbond.Weighted>
0.0000

> <Gold.Chemscore.DEClash.Weighted>
0.0650

> <Gold.Chemscore.DEInternal.Weighted>
0.6679

> <Gold.Chemscore.Rot.Weighted>
3.8312

> <Gold.Chemscore.Internal.Correction.Weighted>
   9.000000E+99

> <Gold.Protein.RotatedTorsions>
[ 6907 6896 6895 6894 ] final   13.26 input  -60.11 | X-H torsion
[ 7974 7965 7964 7962 ] final  -38.70 input  175.53 | X-H torsion
[ 8008 7997 7996 7995 ] final  -77.74 input   59.86 | X-H torsion
[ 10167 10162 10161 10158 ] final  -83.27 input  -65.29 | X-H torsion
[ 10718 10713 10712 10709 ] final   90.62 input   66.30 | X-H torsion
[ 10763 10752 10751 10750 ] final -151.04 input  -60.55 | X-H torsion
[ 11005 11000 10999 10996 ] final   14.69 input  -57.11 | X-H torsion

> <Gold.Protein.ActiveResidues>
 VAL166  LYS551  ARG553  GLY616  TRP617  ASP618  TYR619  PRO620  LYS621  CYS622 
 ASP623  PHE694  ASN695  SER759  ASP760  ASP761  ALA762  ILE779  LEU786  VAL792 
 PHE793  MET794  SER795  GLU796  ALA797  LYS798  CYS799  TRP800  GLU811  SER814 

> <Gold.Protein.RotatedAtoms>
  151.7835  135.0755  160.0376 H   0  0  0  0  0  0  0  0  0  0  0  0  # atno 6907 bound_to 6896
  152.3207  133.5846  159.5751 H   0  0  0  0  0  0  0  0  0  0  0  0  # atno 6908 bound_to 6896
  150.7368  133.9932  159.3656 H   0  0  0  0  0  0  0  0  0  0  0  0  # atno 6909 bound_to 6896
  146.0463  140.6541  142.9063 H   0  0  0  0  0  0  0  0  0  0  0  0  # atno 7974 bound_to 7965
  154.5624  140.0705  156.8839 H   0  0  0  0  0  0  0  0  0  0  0  0  # atno 8008 bound_to 7997
  155.2787  140.3370  155.4241 H   0  0  0  0  0  0  0  0  0  0  0  0  # atno 8009 bound_to 7997
  156.2053  140.1737  156.7799 H   0  0  0  0  0  0  0  0  0  0  0  0  # atno 8010 bound_to 7997
  140.4242  143.2573  151.8848 H   0  0  0  0  0  0  0  0  0  0  0  0  # atno 10167 bound_to 10162
  157.6959  131.0377  150.3605 H   0  0  0  0  0  0  0  0  0  0  0  0  # atno 10718 bound_to 10713
  154.8082  135.3269  154.7375 H   0  0  0  0  0  0  0  0  0  0  0  0  # atno 10763 bound_to 10752
  153.8029  135.6902  153.4857 H   0  0  0  0  0  0  0  0  0  0  0  0  # atno 10764 bound_to 10752
  153.1842  135.4575  155.0013 H   0  0  0  0  0  0  0  0  0  0  0  0  # atno 10765 bound_to 10752
  140.4667  134.1073  155.7725 H   0  0  0  0  0  0  0  0  0  0  0  0  # atno 11005 bound_to 11000
  144.7099  140.4000  143.7088 LP  0  0  0  0  0  0  0  0  0  0  0  0  # atno 17320 bound_to 7965
  145.6800  139.1616  143.2706 LP  0  0  0  0  0  0  0  0  0  0  0  0  # atno 17321 bound_to 7965
  139.4783  144.5404  151.8536 LP  0  0  0  0  0  0  0  0  0  0  0  0  # atno 17342 bound_to 10162
  140.4499  144.1869  150.5897 LP  0  0  0  0  0  0  0  0  0  0  0  0  # atno 17343 bound_to 10162
  156.4042  130.3921  149.6938 LP  0  0  0  0  0  0  0  0  0  0  0  0  # atno 17370 bound_to 10713
  156.4244  130.7784  151.2803 LP  0  0  0  0  0  0  0  0  0  0  0  0  # atno 17371 bound_to 10713
  141.1596  133.8817  157.1884 LP  0  0  0  0  0  0  0  0  0  0  0  0  # atno 17394 bound_to 11000
  139.9911  135.0064  156.9977 LP  0  0  0  0  0  0  0  0  0  0  0  0  # atno 17395 bound_to 11000

$$$$
