AV-unprocessed.smi:37|AV-procd|sdf|333|dock6
  -GOLD-   2262016163D 1   1.00000     0.00000
 Structure written by MMmdl.
 43 44  0  0  0  0  0  0  0  0  2 V2000
  141.9291  130.8453  159.9844 C   0  0  0  0  0  0  0  0  0  0  0  0
  142.5557  129.8402  160.9631 C   0  0  0  0  0  0  0  0  0  0  0  0
  144.0516  129.6134  160.7337 C   0  0  0  0  0  0  0  0  0  0  0  0
  144.5085  128.5170  160.4063 O   0  0  0  0  0  0  0  0  0  0  0  0
  144.7659  130.7352  160.9374 O   0  0  0  0  0  0  0  0  0  0  0  0
  145.9753  130.9625  160.2258 C   0  0  0  0  0  0  0  0  0  0  0  0
  147.0136  131.6613  161.1254 C   0  0  2  0  0  0  0  0  0  0  0  0
  146.3986  132.8094  161.7143 O   0  0  0  0  0  0  0  0  0  0  0  0
  147.2830  133.8814  161.6611 C   0  0  2  0  0  0  0  0  0  0  0  0
  146.5296  135.1895  161.7330 N   0  0  0  0  0  0  0  0  0  0  0  0
  145.1725  135.2275  162.0084 C   0  0  0  0  0  0  0  0  0  0  0  0
  144.5045  136.3973  162.0669 C   0  0  0  0  0  0  0  0  0  0  0  0
  143.1863  136.4027  162.3304 F   0  0  0  0  0  0  0  0  0  0  0  0
  145.2205  137.6516  161.8399 C   0  0  0  0  0  0  0  0  0  0  0  0
  144.6065  138.7159  161.8969 O   0  0  0  0  0  0  0  0  0  0  0  0
  146.5569  137.5836  161.5714 N   0  5  0  0  0  0  0  0  0  0  0  0
  147.2365  136.4013  161.5087 C   0  0  0  0  0  0  0  0  0  0  0  0
  148.4412  136.3278  161.2644 O   0  0  0  0  0  0  0  0  0  0  0  0
  148.0427  133.7040  160.3502 C   0  0  2  0  0  0  0  0  0  0  0  0
  146.9185  134.2162  158.7766 Br  0  0  0  0  0  0  0  0  0  0  0  0
  148.2597  132.1976  160.3845 C   0  0  2  0  0  0  0  0  0  0  0  0
  148.4594  131.6348  159.0914 O   0  0  0  0  0  0  0  0  0  0  0  0
  149.4022  132.1300  158.2706 C   0  0  0  0  0  0  0  0  0  0  0  0
  149.7887  133.2997  158.2426 O   0  0  0  0  0  0  0  0  0  0  0  0
  149.9619  131.0576  157.3337 C   0  0  0  0  0  0  0  0  0  0  0  0
  151.0080  131.5909  156.3432 C   0  0  0  0  0  0  0  0  0  0  0  0
  140.8685  130.9779  160.1976 H   0  0  0  0  0  0  0  0  0  0  0  0
  142.0178  130.5057  158.9518 H   0  0  0  0  0  0  0  0  0  0  0  0
  142.4052  131.8237  160.0605 H   0  0  0  0  0  0  0  0  0  0  0  0
  142.4127  130.1890  161.9860 H   0  0  0  0  0  0  0  0  0  0  0  0
  142.0438  128.8810  160.8827 H   0  0  0  0  0  0  0  0  0  0  0  0
  146.3483  129.9808  159.9343 H   0  0  0  0  0  0  0  0  0  0  0  0
  145.8117  131.5182  159.3014 H   0  0  0  0  0  0  0  0  0  0  0  0
  147.3384  130.9779  161.9108 H   0  0  0  0  0  0  0  0  0  0  0  0
  147.9266  133.8506  162.5428 H   0  0  0  0  0  0  0  0  0  0  0  0
  144.6243  134.3129  162.1714 H   0  0  0  0  0  0  0  0  0  0  0  0
  148.9653  134.2846  160.3312 H   0  0  0  0  0  0  0  0  0  0  0  0
  149.1226  131.9869  161.0190 H   0  0  0  0  0  0  0  0  0  0  0  0
  150.4002  130.2638  157.9391 H   0  0  0  0  0  0  0  0  0  0  0  0
  149.1317  130.6130  156.7843 H   0  0  0  0  0  0  0  0  0  0  0  0
  151.3668  130.7903  155.6963 H   0  0  0  0  0  0  0  0  0  0  0  0
  151.8721  132.0070  156.8625 H   0  0  0  0  0  0  0  0  0  0  0  0
  150.5898  132.3685  155.7032 H   0  0  0  0  0  0  0  0  0  0  0  0
  1  2  1  0  0  0  0
  1 27  1  0  0  0  0
  1 28  1  0  0  0  0
  1 29  1  0  0  0  0
  2  3  1  0  0  0  0
  2 30  1  0  0  0  0
  2 31  1  0  0  0  0
  3  4  2  0  0  0  0
  3  5  1  0  0  0  0
  5  6  1  0  0  0  0
  6  7  1  0  0  0  0
  6 32  1  0  0  0  0
  6 33  1  0  0  0  0
  7 21  1  0  0  0  0
  7  8  1  0  0  0  0
  7 34  1  0  0  0  0
  8  9  1  0  0  0  0
  9 10  1  0  0  0  0
  9 19  1  0  0  0  0
  9 35  1  0  0  0  0
 10 17  1  0  0  0  0
 10 11  1  0  0  0  0
 11 12  2  0  0  0  0
 11 36  1  0  0  0  0
 12 13  1  0  0  0  0
 12 14  1  0  0  0  0
 14 15  2  0  0  0  0
 14 16  1  0  0  0  0
 16 17  1  0  0  0  0
 17 18  2  0  0  0  0
 19 20  1  0  0  0  0
 19 21  1  0  0  0  0
 19 37  1  0  0  0  0
 21 22  1  0  0  0  0
 21 38  1  0  0  0  0
 22 23  1  0  0  0  0
 23 24  2  0  0  0  0
 23 25  1  0  0  0  0
 25 26  1  0  0  0  0
 25 39  1  0  0  0  0
 25 40  1  0  0  0  0
 26 41  1  0  0  0  0
 26 42  1  0  0  0  0
 26 43  1  0  0  0  0
M  CHG  1  16  -1
M  END
> <s_m_source_file>
AV-unprocessed.smi

> <i_m_source_file_index>
37

> <i_lp_mmshare_version>
43012

> <i_f3d_flags>
0

> <s_epik_input>
W0NIM11bQ0gyXUMoPU8pT1tDSDJdW0NAQEhdMU9bQ0BASF0objJbY0hdYyhGKWMoPU8pW25IXWMyPU8pW0NAQEhdKEJyKVtDQEhdMU9DKD1PKVtDSDJdW0NIM10=

> <s_epik_cmdline>
J2VwaWtfcHl0aG9uJywgJy1waCcsICc3LjAnLCAnLXRuJywgJzgnLCAnLW1hJywgJzIwMCcsICctbWV0YWxfYmluZGluZycsICctaW1hZScsICc8aW5maWxlLm1hZT4nLCAnLW9tYWUnLCAnPG91dGZpbGUubWFlPic=

> <r_epik_Ionization_Penalty>
1.08158

> <r_epik_Ionization_Penalty_Charging>
9.05154e-09

> <r_epik_Ionization_Penalty_Neutral>
1.08158

> <r_epik_State_Penalty>
1.13706

> <r_epik_Charging_Adjusted_Penalty>
1.13706

> <i_epik_Tot_Q>
-1

> <i_epik_Tot_abs_Q>
1

> <r_epik_Metal_State_Penalty>
0.00343535

> <b_epik_Metal_Only>
0

> <s_epik_Chemistry_Notes>
This compound has an ester and may undergo hydrolysis at high or low pH. This compound contains an acetal/aminal-like group ( X-CH(R)-Y where X, Y are N, S, or O) that may be acid/base labile, releasing an aldehyde.

> <s_lp_Force_Field>
OPLS_2005

> <r_lp_Energy>
37.8596

> <b_lp_Chiralities_Consistent>
1

> <s_lp_Variant>
AV-unprocessed.smi:37-31

> <Gold.Version>
5.8.1

> <Gold.Id.Protein>
6NUR|6NUR_protein|mol2

> <Gold.PLP.Fitness>
41.1877

> <Gold.PLP.PLP>
-32.3828

> <Gold.PLP.part.hbond>
-4.9338

> <Gold.PLP.part.metal>
0.0000

> <Gold.PLP.part.buried>
-2.4808

> <Gold.PLP.part.nonpolar>
-25.1826

> <Gold.PLP.part.repulsive>
0.1972

> <Gold.PLP.ligand.clash>
0.0000

> <Gold.PLP.ligand.torsion>
1.2011

> <Gold.PLP.Chemscore.Hbond>
3.6868

> <Gold.PLP.Chemscore.CHOScore>
0.0000

> <Gold.PLP.Chemscore.Metal>
0.0000

> <Gold.Chemscore.Hbonds>
donor molecule, donor type, donor heavy atom, donor atom, acceptor molecule, acceptor atom, score
      P1  H  6896  6909       L1    24  0.94
      P1  H  6931  6943       L1    18  0.81
      P1  H  6934  6947       L1    16  2.00

> <Gold.PLP.Chemscore.Internal.Correction>
0.1467

> <Gold.Rescore>
     Score         DG    S(hbond)    S(metal)    S(lipo)     H(rot)  DE(clash)    DE(int)     intcor
      6.79     -10.76       2.42        0.00      47.52       3.27       0.33       3.65       ----

> <Gold.Chemscore.Fitness>
6.7873

> <Gold.Chemscore.DG>
-10.7648

> <Gold.Chemscore.ZeroCoef>
-5.4800

> <Gold.Chemscore.Hbond>
2.4217

> <Gold.Chemscore.Metal>
0.0000

> <Gold.Chemscore.Lipo>
47.5186

> <Gold.Chemscore.Internal_Hbond>
0.0000

> <Gold.Chemscore.DEClash>
0.3311

> <Gold.Chemscore.DEInternal>
3.6464

> <Gold.Chemscore.Rot>
3.2669

> <Gold.Chemscore.Internal.Correction>
   9.000000E+99

> <Gold.Chemscore.Hbonds>
donor molecule, donor type, donor heavy atom, donor atom, acceptor molecule, acceptor atom, score
      P1  H  6896  6909       L1    24  0.85
      P1  H  6931  6943       L1    18  0.21
      P1  H  6934  6947       L1    16  0.78

> <Gold.Chemscore.Hbond.Weighted>
-8.0885

> <Gold.Chemscore.Metal.Weighted>
-0.0000

> <Gold.Chemscore.Lipo.Weighted>
-5.5597

> <Gold.Chemscore.Internal_Hbond.Weighted>
0.0000

> <Gold.Chemscore.DEClash.Weighted>
0.3311

> <Gold.Chemscore.DEInternal.Weighted>
3.6464

> <Gold.Chemscore.Rot.Weighted>
8.3634

> <Gold.Chemscore.Internal.Correction.Weighted>
   9.000000E+99

> <Gold.Protein.RotatedTorsions>
[ 6907 6896 6895 6894 ] final   -6.23 input  -60.11 | X-H torsion
[ 7974 7965 7964 7962 ] final   32.33 input  175.53 | X-H torsion
[ 8008 7997 7996 7995 ] final  -17.52 input   59.86 | X-H torsion
[ 10167 10162 10161 10158 ] final -107.44 input  -65.29 | X-H torsion
[ 10718 10713 10712 10709 ] final    7.95 input   66.30 | X-H torsion
[ 10763 10752 10751 10750 ] final  -26.64 input  -60.55 | X-H torsion
[ 11005 11000 10999 10996 ] final -161.57 input  -57.11 | X-H torsion

> <Gold.Protein.ActiveResidues>
 VAL166  LYS551  ARG553  GLY616  TRP617  ASP618  TYR619  PRO620  LYS621  CYS622 
 ASP623  PHE694  ASN695  SER759  ASP760  ASP761  ALA762  ILE779  LEU786  VAL792 
 PHE793  MET794  SER795  GLU796  ALA797  LYS798  CYS799  TRP800  GLU811  SER814 

> <Gold.Protein.RotatedAtoms>
  151.4689  135.1044  159.9745 H   0  0  0  0  0  0  0  0  0  0  0  0  # atno 6907 bound_to 6896
  152.4824  133.8283  159.7100 H   0  0  0  0  0  0  0  0  0  0  0  0  # atno 6908 bound_to 6896
  150.8906  133.7188  159.2932 H   0  0  0  0  0  0  0  0  0  0  0  0  # atno 6909 bound_to 6896
  146.1493  139.6540  142.9109 H   0  0  0  0  0  0  0  0  0  0  0  0  # atno 7974 bound_to 7965
  154.4972  140.2140  155.9422 H   0  0  0  0  0  0  0  0  0  0  0  0  # atno 8008 bound_to 7997
  156.1386  140.3184  155.8427 H   0  0  0  0  0  0  0  0  0  0  0  0  # atno 8009 bound_to 7997
  155.4163  140.0494  157.3019 H   0  0  0  0  0  0  0  0  0  0  0  0  # atno 8010 bound_to 7997
  140.1770  143.3997  152.1311 H   0  0  0  0  0  0  0  0  0  0  0  0  # atno 10167 bound_to 10162
  156.9444  130.5873  149.5654 H   0  0  0  0  0  0  0  0  0  0  0  0  # atno 10718 bound_to 10713
  153.7191  135.6946  153.5017 H   0  0  0  0  0  0  0  0  0  0  0  0  # atno 10763 bound_to 10752
  153.2216  135.4368  155.0495 H   0  0  0  0  0  0  0  0  0  0  0  0  # atno 10764 bound_to 10752
  154.8290  135.3462  154.6726 H   0  0  0  0  0  0  0  0  0  0  0  0  # atno 10765 bound_to 10752
  140.6189  134.4771  157.5222 H   0  0  0  0  0  0  0  0  0  0  0  0  # atno 11005 bound_to 11000
  145.4861  141.0438  143.2619 LP  0  0  0  0  0  0  0  0  0  0  0  0  # atno 17320 bound_to 7965
  144.7884  139.6378  143.7124 LP  0  0  0  0  0  0  0  0  0  0  0  0  # atno 17321 bound_to 7965
  139.5313  144.7162  151.5047 LP  0  0  0  0  0  0  0  0  0  0  0  0  # atno 17342 bound_to 10162
  140.6545  143.8628  150.6820 LP  0  0  0  0  0  0  0  0  0  0  0  0  # atno 17343 bound_to 10162
  156.0390  130.5475  150.8725 LP  0  0  0  0  0  0  0  0  0  0  0  0  # atno 17370 bound_to 10713
  157.5763  131.0946  150.9340 LP  0  0  0  0  0  0  0  0  0  0  0  0  # atno 17371 bound_to 10713
  139.9161  134.8243  156.1361 LP  0  0  0  0  0  0  0  0  0  0  0  0  # atno 17394 bound_to 11000
  141.0756  133.6777  156.2229 LP  0  0  0  0  0  0  0  0  0  0  0  0  # atno 17395 bound_to 11000

$$$$
