AV-unprocessed.smi:2580|AV-procd|sdf|10130|dock3
  -GOLD-   2272014143D 1   1.00000     0.00000
 Structure written by MMmdl.
 29 30  0  0  0  0  0  0  0  0  1 V2000
  148.9520  141.1843  155.0241 C   0  0  0  0  0  0  0  0  0  0  0  0
  150.0978  140.4139  155.6995 C   0  0  1  0  0  0  0  0  0  0  0  0
  150.7350  139.3698  154.8052 C   0  0  0  0  0  0  0  0  0  0  0  0
  152.0670  139.1234  155.5043 C   0  0  0  0  0  0  0  0  0  0  0  0
  152.4228  140.3633  156.1074 O   0  0  0  0  0  0  0  0  0  0  0  0
  151.3185  141.2697  156.0763 C   0  0  2  0  0  0  0  0  0  0  0  0
  151.2094  142.0115  157.4179 C   0  0  0  0  0  0  0  0  0  0  0  0
  150.2533  142.7571  157.6326 O   0  0  0  0  0  0  0  0  0  0  0  0
  152.2138  141.7951  158.2881 N   0  0  0  0  0  0  0  0  0  0  0  0
  152.3926  142.3317  159.5926 C   0  0  0  0  0  0  0  0  0  0  0  0
  151.6453  143.3542  160.0804 N   0  0  0  0  0  0  0  0  0  0  0  0
  151.8770  143.8077  161.3297 C   0  0  0  0  0  0  0  0  0  0  0  0
  152.8678  143.2712  162.1709 C   0  0  0  0  0  0  0  0  0  0  0  0
  153.6507  142.2122  161.6790 C   0  0  0  0  0  0  0  0  0  0  0  0
  153.4135  141.7339  160.3751 C   0  0  0  0  0  0  0  0  0  0  0  0
  154.3756  140.4303  159.7677 Cl  0  0  0  0  0  0  0  0  0  0  0  0
  149.2936  141.6991  154.1257 H   0  0  0  0  0  0  0  0  0  0  0  0
  148.5260  141.9321  155.6927 H   0  0  0  0  0  0  0  0  0  0  0  0
  148.1480  140.5077  154.7340 H   0  0  0  0  0  0  0  0  0  0  0  0
  149.7129  139.9145  156.5908 H   0  0  0  0  0  0  0  0  0  0  0  0
  150.1342  138.4654  154.7055 H   0  0  0  0  0  0  0  0  0  0  0  0
  150.9085  139.7764  153.8076 H   0  0  0  0  0  0  0  0  0  0  0  0
  151.9509  138.3770  156.2910 H   0  0  0  0  0  0  0  0  0  0  0  0
  152.8403  138.7764  154.8188 H   0  0  0  0  0  0  0  0  0  0  0  0
  151.5163  141.9986  155.2891 H   0  0  0  0  0  0  0  0  0  0  0  0
  152.9332  141.1562  157.9811 H   0  0  0  0  0  0  0  0  0  0  0  0
  151.2542  144.6227  161.6676 H   0  0  0  0  0  0  0  0  0  0  0  0
  153.0229  143.6620  163.1656 H   0  0  0  0  0  0  0  0  0  0  0  0
  154.4225  141.7729  162.2938 H   0  0  0  0  0  0  0  0  0  0  0  0
  1  2  1  0  0  0  0
  1 17  1  0  0  0  0
  1 18  1  0  0  0  0
  1 19  1  0  0  0  0
  2  6  1  0  0  0  0
  2  3  1  0  0  0  0
  2 20  1  0  0  0  0
  3  4  1  0  0  0  0
  3 21  1  0  0  0  0
  3 22  1  0  0  0  0
  4  5  1  0  0  0  0
  4 23  1  0  0  0  0
  4 24  1  0  0  0  0
  5  6  1  0  0  0  0
  6  7  1  0  0  0  0
  6 25  1  0  0  0  0
  7  8  2  0  0  0  0
  7  9  1  0  0  0  0
  9 10  1  0  0  0  0
  9 26  1  0  0  0  0
 10 15  1  0  0  0  0
 10 11  2  0  0  0  0
 11 12  1  0  0  0  0
 12 13  2  0  0  0  0
 12 27  1  0  0  0  0
 13 14  1  0  0  0  0
 13 28  1  0  0  0  0
 14 15  2  0  0  0  0
 14 29  1  0  0  0  0
 15 16  1  0  0  0  0
M  END
> <s_m_source_file>
AV-unprocessed.smi

> <i_m_source_file_index>
2580

> <i_lp_mmshare_version>
43012

> <i_f3d_flags>
0

> <s_epik_input>
W0NIM11bQ0BASF0xW0NIMl1bQ0gyXU9bQ0BIXTFDKD1PKVtOSF1jMm5bY0hdW2NIXVtjSF1jMkNs

> <s_epik_cmdline>
J2VwaWtfcHl0aG9uJywgJy1waCcsICc3LjAnLCAnLXRuJywgJzgnLCAnLW1hJywgJzIwMCcsICctbWV0YWxfYmluZGluZycsICctaW1hZScsICc8aW5maWxlLm1hZT4nLCAnLW9tYWUnLCAnPG91dGZpbGUubWFlPic=

> <r_lp_tautomer_probability>
1

> <r_epik_Ionization_Penalty>
4.32497e-05

> <r_epik_Ionization_Penalty_Charging>
0

> <r_epik_Ionization_Penalty_Neutral>
4.32497e-05

> <r_epik_State_Penalty>
-0

> <r_epik_Charging_Adjusted_Penalty>
0

> <i_epik_Tot_Q>
0

> <i_epik_Tot_abs_Q>
0

> <r_epik_Metal_State_Penalty>
-0

> <b_epik_Metal_Only>
0

> <s_lp_Force_Field>
OPLS_2005

> <r_lp_Energy>
21.1194

> <b_lp_Chiralities_Consistent>
1

> <s_lp_Variant>
AV-unprocessed.smi:2580-4

> <Gold.Version>
5.8.1

> <Gold.Id.Protein>
6NUR|6NUR_protein|mol2

> <Gold.PLP.Fitness>
39.9946

> <Gold.PLP.PLP>
-37.1894

> <Gold.PLP.part.hbond>
-1.0000

> <Gold.PLP.part.metal>
0.0000

> <Gold.PLP.part.buried>
-4.8229

> <Gold.PLP.part.nonpolar>
-31.7326

> <Gold.PLP.part.repulsive>
0.5523

> <Gold.PLP.ligand.clash>
0.0000

> <Gold.PLP.ligand.torsion>
0.0982

> <Gold.PLP.Chemscore.Hbond>
1.0000

> <Gold.PLP.Chemscore.CHOScore>
0.0000

> <Gold.PLP.Chemscore.Metal>
0.0000

> <Gold.Chemscore.Hbonds>
donor molecule, donor type, donor heavy atom, donor atom, acceptor molecule, acceptor atom, score
      P1  H  7997  8009       L1     5  1.00

> <Gold.PLP.Chemscore.Internal.Correction>
0.0017

> <Gold.Rescore>
     Score         DG    S(hbond)    S(metal)    S(lipo)     H(rot)  DE(clash)    DE(int)     intcor
     14.82     -16.14       0.93        0.00      86.35       1.00       0.02       1.31       ----

> <Gold.Chemscore.Fitness>
14.8160

> <Gold.Chemscore.DG>
-16.1432

> <Gold.Chemscore.ZeroCoef>
-5.4800

> <Gold.Chemscore.Hbond>
0.9343

> <Gold.Chemscore.Metal>
0.0000

> <Gold.Chemscore.Lipo>
86.3460

> <Gold.Chemscore.Internal_Hbond>
0.0000

> <Gold.Chemscore.DEClash>
0.0158

> <Gold.Chemscore.DEInternal>
1.3113

> <Gold.Chemscore.Rot>
1.0000

> <Gold.Chemscore.Internal.Correction>
   9.000000E+99

> <Gold.Chemscore.Hbonds>
donor molecule, donor type, donor heavy atom, donor atom, acceptor molecule, acceptor atom, score
      P1  H  7997  8009       L1     5  0.29

> <Gold.Chemscore.Hbond.Weighted>
-3.1207

> <Gold.Chemscore.Metal.Weighted>
-0.0000

> <Gold.Chemscore.Lipo.Weighted>
-10.1025

> <Gold.Chemscore.Internal_Hbond.Weighted>
0.0000

> <Gold.Chemscore.DEClash.Weighted>
0.0158

> <Gold.Chemscore.DEInternal.Weighted>
1.3113

> <Gold.Chemscore.Rot.Weighted>
2.5600

> <Gold.Chemscore.Internal.Correction.Weighted>
   9.000000E+99

> <Gold.Protein.RotatedTorsions>
[ 6907 6896 6895 6894 ] final  117.94 input  -60.11 | X-H torsion
[ 7974 7965 7964 7962 ] final  149.96 input  175.53 | X-H torsion
[ 8008 7997 7996 7995 ] final -161.08 input   59.86 | X-H torsion
[ 10167 10162 10161 10158 ] final -123.32 input  -65.29 | X-H torsion
[ 10718 10713 10712 10709 ] final   -2.93 input   66.30 | X-H torsion
[ 10763 10752 10751 10750 ] final   94.91 input  -60.55 | X-H torsion
[ 11005 11000 10999 10996 ] final   -2.91 input  -57.11 | X-H torsion

> <Gold.Protein.ActiveResidues>
 VAL166  LYS551  ARG553  GLY616  TRP617  ASP618  TYR619  PRO620  LYS621  CYS622 
 ASP623  PHE694  ASN695  SER759  ASP760  ASP761  ALA762  ILE779  LEU786  VAL792 
 PHE793  MET794  SER795  GLU796  ALA797  LYS798  CYS799  TRP800  GLU811  SER814 

> <Gold.Protein.RotatedAtoms>
  152.4578  133.7758  159.6823 H   0  0  0  0  0  0  0  0  0  0  0  0  # atno 6907 bound_to 6896
  150.8510  133.7777  159.3032 H   0  0  0  0  0  0  0  0  0  0  0  0  # atno 6908 bound_to 6896
  151.5372  135.1071  159.9969 H   0  0  0  0  0  0  0  0  0  0  0  0  # atno 6909 bound_to 6896
  144.8399  139.6348  143.6021 H   0  0  0  0  0  0  0  0  0  0  0  0  # atno 7974 bound_to 7965
  155.7870  140.0873  157.2029 H   0  0  0  0  0  0  0  0  0  0  0  0  # atno 8008 bound_to 7997
  154.3987  140.1497  156.3176 H   0  0  0  0  0  0  0  0  0  0  0  0  # atno 8009 bound_to 7997
  155.8597  140.3431  155.5751 H   0  0  0  0  0  0  0  0  0  0  0  0  # atno 8010 bound_to 7997
  140.0047  143.5504  152.2288 H   0  0  0  0  0  0  0  0  0  0  0  0  # atno 10167 bound_to 10162
  156.7835  130.5338  149.5747 H   0  0  0  0  0  0  0  0  0  0  0  0  # atno 10718 bound_to 10713
  153.2471  135.4273  155.0758 H   0  0  0  0  0  0  0  0  0  0  0  0  # atno 10763 bound_to 10752
  154.8366  135.3416  154.6566 H   0  0  0  0  0  0  0  0  0  0  0  0  # atno 10764 bound_to 10752
  153.6989  135.7029  153.5125 H   0  0  0  0  0  0  0  0  0  0  0  0  # atno 10765 bound_to 10752
  140.6636  133.9299  155.8451 H   0  0  0  0  0  0  0  0  0  0  0  0  # atno 11005 bound_to 11000
  146.2693  139.6595  142.9307 LP  0  0  0  0  0  0  0  0  0  0  0  0  # atno 17320 bound_to 7965
  145.4716  141.0436  143.2695 LP  0  0  0  0  0  0  0  0  0  0  0  0  # atno 17321 bound_to 7965
  139.6247  144.7635  151.2665 LP  0  0  0  0  0  0  0  0  0  0  0  0  # atno 17342 bound_to 10162
  140.7405  143.6586  150.8184 LP  0  0  0  0  0  0  0  0  0  0  0  0  # atno 17343 bound_to 10162
  156.1203  130.6105  151.0183 LP  0  0  0  0  0  0  0  0  0  0  0  0  # atno 17370 bound_to 10713
  157.6635  131.0876  150.7784 LP  0  0  0  0  0  0  0  0  0  0  0  0  # atno 17371 bound_to 10713
  141.0446  134.0572  157.3859 LP  0  0  0  0  0  0  0  0  0  0  0  0  # atno 17394 bound_to 11000
  139.9005  135.0162  156.7244 LP  0  0  0  0  0  0  0  0  0  0  0  0  # atno 17395 bound_to 11000

$$$$
