AV-unprocessed.smi:2977|AV-procd|sdf|11367|dock7
  -GOLD-   2272016283D 1   1.00000     0.00000
 Structure written by MMmdl.
 38 39  0  0  0  0  0  0  0  0  1 V2000
  149.8186  137.4105  156.1773 O   0  0  0  0  0  0  0  0  0  0  0  0
  150.5234  137.2077  155.1885 C   0  0  0  0  0  0  0  0  0  0  0  0
  151.4955  138.2888  154.7009 C   0  0  0  0  0  0  0  0  0  0  0  0
  151.4194  139.5044  155.5223 N   0  0  0  0  0  0  0  0  0  0  0  0
  150.5659  140.4745  155.0265 N   0  0  0  0  0  0  0  0  0  0  0  0
  150.3984  141.5681  155.6868 C   0  0  0  0  0  0  0  0  0  0  0  0
  151.0801  141.8263  156.9364 C   0  0  0  0  0  0  0  0  0  0  0  0
  150.8136  143.3116  157.7787 Cl  0  0  0  0  0  0  0  0  0  0  0  0
  151.9243  140.8738  157.4064 C   0  0  0  0  0  0  0  0  0  0  0  0
  152.7807  141.1122  158.8909 Cl  0  0  0  0  0  0  0  0  0  0  0  0
  152.1420  139.6161  156.6789 C   0  0  0  0  0  0  0  0  0  0  0  0
  152.9062  138.7314  157.0661 O   0  0  0  0  0  0  0  0  0  0  0  0
  150.4858  136.0725  154.4749 N   0  0  0  0  0  0  0  0  0  0  0  0
  149.6386  134.9187  154.7637 C   0  0  0  0  0  0  0  0  0  0  0  0
  150.4286  133.6666  155.2013 C   0  0  0  0  0  0  0  0  0  0  0  0
  149.8231  132.3496  154.7373 C   0  0  0  0  0  0  0  0  0  0  0  0
  150.2494  131.1627  155.2122 C   0  0  0  0  0  0  0  0  0  0  0  0
  149.6907  129.8195  154.7776 C   0  0  0  0  0  0  0  0  0  0  0  0
  148.8460  129.9237  153.4969 C   0  0  0  0  0  0  0  0  0  0  0  0
  147.9145  131.1411  153.5462 C   0  0  0  0  0  0  0  0  0  0  0  0
  148.7080  132.4509  153.7034 C   0  0  0  0  0  0  0  0  0  0  0  0
  152.5171  137.9038  154.6798 H   0  0  0  0  0  0  0  0  0  0  0  0
  151.2516  138.5190  153.6623 H   0  0  0  0  0  0  0  0  0  0  0  0
  149.7329  142.3582  155.3388 H   0  0  0  0  0  0  0  0  0  0  0  0
  151.1005  135.9957  153.6774 H   0  0  0  0  0  0  0  0  0  0  0  0
  148.9031  135.1838  155.5244 H   0  0  0  0  0  0  0  0  0  0  0  0
  149.0732  134.6943  153.8591 H   0  0  0  0  0  0  0  0  0  0  0  0
  151.4509  133.7385  154.8282 H   0  0  0  0  0  0  0  0  0  0  0  0
  150.5112  133.6485  156.2883 H   0  0  0  0  0  0  0  0  0  0  0  0
  151.0320  131.1311  155.9560 H   0  0  0  0  0  0  0  0  0  0  0  0
  150.5129  129.1208  154.6247 H   0  0  0  0  0  0  0  0  0  0  0  0
  149.0880  129.4250  155.5959 H   0  0  0  0  0  0  0  0  0  0  0  0
  149.5032  130.0125  152.6310 H   0  0  0  0  0  0  0  0  0  0  0  0
  148.2709  129.0086  153.3544 H   0  0  0  0  0  0  0  0  0  0  0  0
  147.2992  131.1848  152.6472 H   0  0  0  0  0  0  0  0  0  0  0  0
  147.2264  131.0300  154.3854 H   0  0  0  0  0  0  0  0  0  0  0  0
  148.0278  133.2577  153.9783 H   0  0  0  0  0  0  0  0  0  0  0  0
  149.1562  132.7268  152.7485 H   0  0  0  0  0  0  0  0  0  0  0  0
  1  2  2  0  0  0  0
  2  3  1  0  0  0  0
  2 13  1  0  0  0  0
  3  4  1  0  0  0  0
  3 22  1  0  0  0  0
  3 23  1  0  0  0  0
  4 11  1  0  0  0  0
  4  5  1  0  0  0  0
  5  6  2  0  0  0  0
  6  7  1  0  0  0  0
  6 24  1  0  0  0  0
  7  8  1  0  0  0  0
  7  9  2  0  0  0  0
  9 10  1  0  0  0  0
  9 11  1  0  0  0  0
 11 12  2  0  0  0  0
 13 14  1  0  0  0  0
 13 25  1  0  0  0  0
 14 15  1  0  0  0  0
 14 26  1  0  0  0  0
 14 27  1  0  0  0  0
 15 16  1  0  0  0  0
 15 28  1  0  0  0  0
 15 29  1  0  0  0  0
 16 21  1  0  0  0  0
 16 17  2  0  0  0  0
 17 18  1  0  0  0  0
 17 30  1  0  0  0  0
 18 19  1  0  0  0  0
 18 31  1  0  0  0  0
 18 32  1  0  0  0  0
 19 20  1  0  0  0  0
 19 33  1  0  0  0  0
 19 34  1  0  0  0  0
 20 21  1  0  0  0  0
 20 35  1  0  0  0  0
 20 36  1  0  0  0  0
 21 37  1  0  0  0  0
 21 38  1  0  0  0  0
M  END
> <s_m_source_file>
AV-unprocessed.smi

> <i_m_source_file_index>
2977

> <i_lp_mmshare_version>
43012

> <i_f3d_flags>
0

> <s_epik_input>
Tz1jMWMoQ2wpYyhDbClbY0hdbm4xW0NIMl1DKD1PKVtOSF1bQ0gyXVtDSDJdQzI9W0NIXVtDSDJdW0NIMl1bQ0gyXVtDSDJdMg==

> <s_epik_cmdline>
J2VwaWtfcHl0aG9uJywgJy1waCcsICc3LjAnLCAnLXRuJywgJzgnLCAnLW1hJywgJzIwMCcsICctbWV0YWxfYmluZGluZycsICctaW1hZScsICc8aW5maWxlLm1hZT4nLCAnLW9tYWUnLCAnPG91dGZpbGUubWFlPic=

> <r_lp_tautomer_probability>
1

> <r_epik_Ionization_Penalty>
1.81325e-08

> <r_epik_Ionization_Penalty_Charging>
2.89782e-11

> <r_epik_Ionization_Penalty_Neutral>
1.81035e-08

> <r_epik_State_Penalty>
-0

> <r_epik_Charging_Adjusted_Penalty>
2.89782e-11

> <i_epik_Tot_Q>
0

> <i_epik_Tot_abs_Q>
0

> <r_epik_Metal_State_Penalty>
-0

> <b_epik_Metal_Only>
0

> <s_lp_Force_Field>
OPLS_2005

> <r_lp_Energy>
20.3958

> <b_lp_Chiralities_Consistent>
1

> <s_lp_Variant>
AV-unprocessed.smi:2977-1

> <Gold.Version>
5.8.1

> <Gold.Id.Protein>
6NUR|6NUR_protein|mol2

> <Gold.PLP.Fitness>
47.2595

> <Gold.PLP.PLP>
-39.4715

> <Gold.PLP.part.hbond>
-4.0000

> <Gold.PLP.part.metal>
0.0000

> <Gold.PLP.part.buried>
-1.7172

> <Gold.PLP.part.nonpolar>
-31.5523

> <Gold.PLP.part.repulsive>
0.1809

> <Gold.PLP.ligand.clash>
0.0000

> <Gold.PLP.ligand.torsion>
0.7284

> <Gold.PLP.Chemscore.Hbond>
2.0679

> <Gold.PLP.Chemscore.CHOScore>
1.0000

> <Gold.PLP.Chemscore.Metal>
0.0000

> <Gold.Chemscore.Hbonds>
donor molecule, donor type, donor heavy atom, donor atom, acceptor molecule, acceptor atom, score
      L1  H    13    25       P1  7949  0.56
      P1  H  7989  7998       L1     5  0.80
      P1  H  7997  8010       L1    12  0.46
      L1  C     6    24       P1  8028  1.00

> <Gold.PLP.Chemscore.Internal.Correction>
0.0409

> <Gold.Rescore>
     Score         DG    S(hbond)    S(metal)    S(lipo)     H(rot)  DE(clash)    DE(int)     intcor
     13.09     -13.90       0.97        0.00      85.58       1.89       0.02       0.78       ----

> <Gold.Chemscore.Fitness>
13.0921

> <Gold.Chemscore.DG>
-13.8986

> <Gold.Chemscore.ZeroCoef>
-5.4800

> <Gold.Chemscore.Hbond>
0.9725

> <Gold.Chemscore.Metal>
0.0000

> <Gold.Chemscore.Lipo>
85.5796

> <Gold.Chemscore.Internal_Hbond>
0.0000

> <Gold.Chemscore.DEClash>
0.0228

> <Gold.Chemscore.DEInternal>
0.7838

> <Gold.Chemscore.Rot>
1.8916

> <Gold.Chemscore.Internal.Correction>
   9.000000E+99

> <Gold.Chemscore.Hbonds>
donor molecule, donor type, donor heavy atom, donor atom, acceptor molecule, acceptor atom, score
      L1  H    13    25       P1  7949  0.16
      P1  H  7989  7998       L1     5  0.07
      P1  H  7997  8010       L1    12  0.02

> <Gold.Chemscore.Hbond.Weighted>
-3.2483

> <Gold.Chemscore.Metal.Weighted>
-0.0000

> <Gold.Chemscore.Lipo.Weighted>
-10.0128

> <Gold.Chemscore.Internal_Hbond.Weighted>
0.0000

> <Gold.Chemscore.DEClash.Weighted>
0.0228

> <Gold.Chemscore.DEInternal.Weighted>
0.7838

> <Gold.Chemscore.Rot.Weighted>
4.8425

> <Gold.Chemscore.Internal.Correction.Weighted>
   9.000000E+99

> <Gold.Protein.RotatedTorsions>
[ 6907 6896 6895 6894 ] final    2.27 input  -60.11 | X-H torsion
[ 7974 7965 7964 7962 ] final  -70.40 input  175.53 | X-H torsion
[ 8008 7997 7996 7995 ] final   42.61 input   59.86 | X-H torsion
[ 10167 10162 10161 10158 ] final  -35.99 input  -65.29 | X-H torsion
[ 10718 10713 10712 10709 ] final  -65.45 input   66.30 | X-H torsion
[ 10763 10752 10751 10750 ] final   92.15 input  -60.55 | X-H torsion
[ 11005 11000 10999 10996 ] final   20.32 input  -57.11 | X-H torsion

> <Gold.Protein.ActiveResidues>
 VAL166  LYS551  ARG553  GLY616  TRP617  ASP618  TYR619  PRO620  LYS621  CYS622 
 ASP623  PHE694  ASN695  SER759  ASP760  ASP761  ALA762  ILE779  LEU786  VAL792 
 PHE793  MET794  SER795  GLU796  ALA797  LYS798  CYS799  TRP800  GLU811  SER814 

> <Gold.Protein.RotatedAtoms>
  151.6061  135.1044  160.0070 H   0  0  0  0  0  0  0  0  0  0  0  0  # atno 6907 bound_to 6896
  152.4233  133.7148  159.6510 H   0  0  0  0  0  0  0  0  0  0  0  0  # atno 6908 bound_to 6896
  150.8121  133.8331  159.3199 H   0  0  0  0  0  0  0  0  0  0  0  0  # atno 6909 bound_to 6896
  145.6915  140.9151  143.0779 H   0  0  0  0  0  0  0  0  0  0  0  0  # atno 7974 bound_to 7965
  155.2889  140.3377  155.4253 H   0  0  0  0  0  0  0  0  0  0  0  0  # atno 8008 bound_to 7997
  156.2055  140.1749  156.7849 H   0  0  0  0  0  0  0  0  0  0  0  0  # atno 8009 bound_to 7997
  154.5615  140.0686  156.8810 H   0  0  0  0  0  0  0  0  0  0  0  0  # atno 8010 bound_to 7997
  140.7153  143.3439  151.2297 H   0  0  0  0  0  0  0  0  0  0  0  0  # atno 10167 bound_to 10162
  156.0669  130.4247  150.1565 H   0  0  0  0  0  0  0  0  0  0  0  0  # atno 10718 bound_to 10713
  153.2160  135.4372  155.0435 H   0  0  0  0  0  0  0  0  0  0  0  0  # atno 10763 bound_to 10752
  154.8225  135.3344  154.6998 H   0  0  0  0  0  0  0  0  0  0  0  0  # atno 10764 bound_to 10752
  153.7433  135.7003  153.5018 H   0  0  0  0  0  0  0  0  0  0  0  0  # atno 10765 bound_to 10752
  140.4039  134.1689  155.7664 H   0  0  0  0  0  0  0  0  0  0  0  0  # atno 11005 bound_to 11000
  144.6995  139.8828  143.7448 LP  0  0  0  0  0  0  0  0  0  0  0  0  # atno 17320 bound_to 7965
  146.0878  139.3866  143.0425 LP  0  0  0  0  0  0  0  0  0  0  0  0  # atno 17321 bound_to 7965
  139.6954  143.9622  152.2880 LP  0  0  0  0  0  0  0  0  0  0  0  0  # atno 17342 bound_to 10162
  139.9297  144.6749  150.8375 LP  0  0  0  0  0  0  0  0  0  0  0  0  # atno 17343 bound_to 10162
  156.9623  130.9809  151.3476 LP  0  0  0  0  0  0  0  0  0  0  0  0  # atno 17370 bound_to 10713
  157.5716  130.8314  149.8399 LP  0  0  0  0  0  0  0  0  0  0  0  0  # atno 17371 bound_to 10713
  141.1846  133.8340  157.1133 LP  0  0  0  0  0  0  0  0  0  0  0  0  # atno 17394 bound_to 11000
  140.0316  134.9898  157.0791 LP  0  0  0  0  0  0  0  0  0  0  0  0  # atno 17395 bound_to 11000

$$$$
