AV-unprocessed.smi:99|AV-procd|sdf|870|dock6
  -GOLD-   2262017333D 1   1.00000     0.00000
 Structure written by MMmdl.
 53 56  0  0  0  0  0  0  0  0  1 V2000
  147.6240  137.5527  160.7065 O   0  0  0  0  0  0  0  0  0  0  0  0
  147.7504  136.4593  160.1514 C   0  0  0  0  0  0  0  0  0  0  0  0
  148.3144  136.3001  158.9383 O   0  0  0  0  0  0  0  0  0  0  0  0
  149.2237  137.2711  158.4481 C   0  0  0  0  0  0  0  0  0  0  0  0
  149.2499  137.2144  156.9147 C   0  0  1  0  0  0  0  0  0  0  0  0
  148.0887  137.8134  156.3604 O   0  0  0  0  0  0  0  0  0  0  0  0
  148.3454  138.1250  155.0278 C   0  0  1  0  0  0  0  0  0  0  0  0
  147.6100  139.4081  154.7120 N   0  0  0  0  0  0  0  0  0  0  0  0
  147.8253  140.5444  155.4795 C   0  0  0  0  0  0  0  0  0  0  0  0
  147.1745  141.7134  155.2743 C   0  0  0  0  0  0  0  0  0  0  0  0
  146.1820  141.8293  154.2116 C   0  0  0  0  0  0  0  0  0  0  0  0
  145.5446  142.8456  153.9442 O   0  0  0  0  0  0  0  0  0  0  0  0
  145.9818  140.6578  153.4758 N   0  0  0  0  0  0  0  0  0  0  0  0
  146.6437  139.4458  153.6812 C   0  0  0  0  0  0  0  0  0  0  0  0
  146.3771  138.4784  152.9696 O   0  0  0  0  0  0  0  0  0  0  0  0
  149.8682  138.2850  154.8591 C   0  0  2  0  0  0  0  0  0  0  0  0
  150.4077  137.3584  153.9382 O   0  0  0  0  0  0  0  0  0  0  0  0
  150.4030  137.9829  156.2583 C   0  0  1  0  0  0  0  0  0  0  0  0
  150.6619  139.1889  156.9689 O   0  0  0  0  0  0  0  0  0  0  0  0
  151.8853  139.7570  156.9599 C   0  0  0  0  0  0  0  0  0  0  0  0
  152.8776  139.2362  156.4475 O   0  0  0  0  0  0  0  0  0  0  0  0
  151.9037  141.0899  157.6276 C   0  0  0  0  0  0  0  0  0  0  0  0
  151.0999  142.1340  157.1138 C   0  0  0  0  0  0  0  0  0  0  0  0
  151.0940  143.4022  157.7266 C   0  0  0  0  0  0  0  0  0  0  0  0
  151.8914  143.6414  158.8609 C   0  0  0  0  0  0  0  0  0  0  0  0
  152.6954  142.6109  159.3818 C   0  0  0  0  0  0  0  0  0  0  0  0
  152.7032  141.3422  158.7704 C   0  0  0  0  0  0  0  0  0  0  0  0
  147.2958  135.1730  160.7542 C   0  0  0  0  0  0  0  0  0  0  0  0
  146.5178  135.1981  161.9353 C   0  0  0  0  0  0  0  0  0  0  0  0
  146.0745  134.0000  162.5284 C   0  0  0  0  0  0  0  0  0  0  0  0
  146.4039  132.7617  161.9474 C   0  0  0  0  0  0  0  0  0  0  0  0
  147.1765  132.7231  160.7720 C   0  0  0  0  0  0  0  0  0  0  0  0
  147.6205  133.9204  160.1773 C   0  0  0  0  0  0  0  0  0  0  0  0
  145.2979  140.6906  152.7339 H   0  0  0  0  0  0  0  0  0  0  0  0
  148.9425  138.2683  158.7902 H   0  0  0  0  0  0  0  0  0  0  0  0
  150.2169  137.0539  158.8439 H   0  0  0  0  0  0  0  0  0  0  0  0
  149.2926  136.1755  156.5816 H   0  0  0  0  0  0  0  0  0  0  0  0
  147.9361  137.3271  154.4071 H   0  0  0  0  0  0  0  0  0  0  0  0
  148.5397  140.5049  156.2866 H   0  0  0  0  0  0  0  0  0  0  0  0
  147.3861  142.5659  155.9035 H   0  0  0  0  0  0  0  0  0  0  0  0
  150.1243  139.2906  154.5227 H   0  0  0  0  0  0  0  0  0  0  0  0
  149.7044  137.0122  153.4105 H   0  0  0  0  0  0  0  0  0  0  0  0
  151.3052  137.3689  156.2372 H   0  0  0  0  0  0  0  0  0  0  0  0
  150.4791  141.9739  156.2440 H   0  0  0  0  0  0  0  0  0  0  0  0
  150.4763  144.1920  157.3254 H   0  0  0  0  0  0  0  0  0  0  0  0
  151.8874  144.6144  159.3300 H   0  0  0  0  0  0  0  0  0  0  0  0
  153.3084  142.7935  160.2522 H   0  0  0  0  0  0  0  0  0  0  0  0
  153.3327  140.5746  159.1964 H   0  0  0  0  0  0  0  0  0  0  0  0
  146.2527  136.1369  162.4002 H   0  0  0  0  0  0  0  0  0  0  0  0
  145.4812  134.0321  163.4303 H   0  0  0  0  0  0  0  0  0  0  0  0
  146.0645  131.8429  162.4023 H   0  0  0  0  0  0  0  0  0  0  0  0
  147.4295  131.7733  160.3248 H   0  0  0  0  0  0  0  0  0  0  0  0
  148.2114  133.8546  159.2756 H   0  0  0  0  0  0  0  0  0  0  0  0
  1  2  2  0  0  0  0
  2  3  1  0  0  0  0
  2 28  1  0  0  0  0
  3  4  1  0  0  0  0
  4  5  1  0  0  0  0
  4 35  1  0  0  0  0
  4 36  1  0  0  0  0
  5 18  1  0  0  0  0
  5  6  1  0  0  0  0
  5 37  1  0  0  0  0
  6  7  1  0  0  0  0
  7  8  1  0  0  0  0
  7 16  1  0  0  0  0
  7 38  1  0  0  0  0
  8 14  1  0  0  0  0
  8  9  1  0  0  0  0
  9 10  2  0  0  0  0
  9 39  1  0  0  0  0
 10 11  1  0  0  0  0
 10 40  1  0  0  0  0
 11 12  2  0  0  0  0
 11 13  1  0  0  0  0
 13 34  1  0  0  0  0
 13 14  1  0  0  0  0
 14 15  2  0  0  0  0
 16 17  1  0  0  0  0
 16 18  1  0  0  0  0
 16 41  1  0  0  0  0
 17 42  1  0  0  0  0
 18 19  1  0  0  0  0
 18 43  1  0  0  0  0
 19 20  1  0  0  0  0
 20 21  2  0  0  0  0
 20 22  1  0  0  0  0
 22 27  1  0  0  0  0
 22 23  2  0  0  0  0
 23 24  1  0  0  0  0
 23 44  1  0  0  0  0
 24 25  2  0  0  0  0
 24 45  1  0  0  0  0
 25 26  1  0  0  0  0
 25 46  1  0  0  0  0
 26 27  2  0  0  0  0
 26 47  1  0  0  0  0
 27 48  1  0  0  0  0
 28 33  1  0  0  0  0
 28 29  2  0  0  0  0
 29 30  1  0  0  0  0
 29 49  1  0  0  0  0
 30 31  2  0  0  0  0
 30 50  1  0  0  0  0
 31 32  1  0  0  0  0
 31 51  1  0  0  0  0
 32 33  2  0  0  0  0
 32 52  1  0  0  0  0
 33 53  1  0  0  0  0
M  END
> <s_m_source_file>
AV-unprocessed.smi

> <i_m_source_file_index>
99

> <i_lp_mmshare_version>
43012

> <i_f3d_flags>
0

> <s_epik_input>
W2NIXTFbY0hdW2NIXVtjSF1bY0hdYzFDKD1PKU9bQ0gyXVtDQEBIXTJPW0NAQEhdKG4zW2NIXVtjSF1jKD1PKVtuSF1jMz1PKVtDQEBIXShbT0hdKVtDQEhdMk9DKD1PKWM0W2NIXVtjSF1bY0hdW2NIXVtjSF00

> <s_epik_cmdline>
J2VwaWtfcHl0aG9uJywgJy1waCcsICc3LjAnLCAnLXRuJywgJzgnLCAnLW1hJywgJzIwMCcsICctbWV0YWxfYmluZGluZycsICctaW1hZScsICc8aW5maWxlLm1hZT4nLCAnLW9tYWUnLCAnPG91dGZpbGUubWFlPic=

> <r_lp_tautomer_probability>
1

> <r_epik_Ionization_Penalty>
0.00454555

> <r_epik_Ionization_Penalty_Charging>
0.0045191

> <r_epik_Ionization_Penalty_Neutral>
2.64449e-05

> <r_epik_State_Penalty>
-0

> <r_epik_Charging_Adjusted_Penalty>
0.0045191

> <i_epik_Tot_Q>
0

> <i_epik_Tot_abs_Q>
0

> <r_epik_Metal_State_Penalty>
1.27877

> <b_epik_Metal_Only>
0

> <s_epik_Chemistry_Notes>
This compound has an ester and may undergo hydrolysis at high or low pH. This compound contains an acetal/aminal-like group ( X-CH(R)-Y where X, Y are N, S, or O) that may be acid/base labile, releasing an aldehyde.

> <s_lp_Force_Field>
OPLS_2005

> <r_lp_Energy>
31.5911

> <b_lp_Chiralities_Consistent>
1

> <s_lp_Variant>
AV-unprocessed.smi:99-6

> <Gold.Version>
5.8.1

> <Gold.Id.Protein>
6NUR|6NUR_protein|mol2

> <Gold.PLP.Fitness>
57.7918

> <Gold.PLP.PLP>
-47.5284

> <Gold.PLP.part.hbond>
-6.0000

> <Gold.PLP.part.metal>
0.0000

> <Gold.PLP.part.buried>
-8.3784

> <Gold.PLP.part.nonpolar>
-36.0833

> <Gold.PLP.part.repulsive>
0.4557

> <Gold.PLP.ligand.clash>
0.0000

> <Gold.PLP.ligand.torsion>
2.1923

> <Gold.PLP.Chemscore.Hbond>
4.6720

> <Gold.PLP.Chemscore.CHOScore>
0.0000

> <Gold.PLP.Chemscore.Metal>
0.0000

> <Gold.Chemscore.Hbonds>
donor molecule, donor type, donor heavy atom, donor atom, acceptor molecule, acceptor atom, score
      L1  H    13    34       P1 10175  0.83
      L1  H    17    42       P1  7948  1.00
      P1  H  6931  6943       L1     1  0.62
      P1  H  6934  6947       L1     1  0.91
      P1  H  7997  8009       L1    21  0.94

> <Gold.PLP.Chemscore.Internal.Correction>
0.6321

> <Gold.Rescore>
     Score         DG    S(hbond)    S(metal)    S(lipo)     H(rot)  DE(clash)    DE(int)     intcor
     22.81     -24.89       4.35        0.00     111.63       3.19       0.04       2.04       ----

> <Gold.Chemscore.Fitness>
22.8148

> <Gold.Chemscore.DG>
-24.8890

> <Gold.Chemscore.ZeroCoef>
-5.4800

> <Gold.Chemscore.Hbond>
4.3460

> <Gold.Chemscore.Metal>
0.0000

> <Gold.Chemscore.Lipo>
111.6285

> <Gold.Chemscore.Internal_Hbond>
0.0000

> <Gold.Chemscore.DEClash>
0.0382

> <Gold.Chemscore.DEInternal>
2.0360

> <Gold.Chemscore.Rot>
3.1903

> <Gold.Chemscore.Internal.Correction>
   9.000000E+99

> <Gold.Chemscore.Hbonds>
donor molecule, donor type, donor heavy atom, donor atom, acceptor molecule, acceptor atom, score
      L1  H    13    34       P1 10175  0.37
      L1  H    17    42       P1  7948  0.58
      P1  H  6931  6943       L1     1  0.60
      P1  H  6934  6947       L1     1  0.84
      P1  H  7997  8009       L1    21  0.84

> <Gold.Chemscore.Hbond.Weighted>
-14.5156

> <Gold.Chemscore.Metal.Weighted>
-0.0000

> <Gold.Chemscore.Lipo.Weighted>
-13.0605

> <Gold.Chemscore.Internal_Hbond.Weighted>
0.0000

> <Gold.Chemscore.DEClash.Weighted>
0.0382

> <Gold.Chemscore.DEInternal.Weighted>
2.0360

> <Gold.Chemscore.Rot.Weighted>
8.1671

> <Gold.Chemscore.Internal.Correction.Weighted>
   9.000000E+99

> <Gold.Protein.RotatedTorsions>
[ 6907 6896 6895 6894 ] final  139.28 input  -60.11 | X-H torsion
[ 7974 7965 7964 7962 ] final  -61.82 input  175.53 | X-H torsion
[ 8008 7997 7996 7995 ] final  168.74 input   59.86 | X-H torsion
[ 10167 10162 10161 10158 ] final  125.44 input  -65.29 | X-H torsion
[ 10718 10713 10712 10709 ] final    3.17 input   66.30 | X-H torsion
[ 10763 10752 10751 10750 ] final   96.64 input  -60.55 | X-H torsion
[ 11005 11000 10999 10996 ] final  -52.54 input  -57.11 | X-H torsion

> <Gold.Protein.ActiveResidues>
 VAL166  LYS551  ARG553  GLY616  TRP617  ASP618  TYR619  PRO620  LYS621  CYS622 
 ASP623  PHE694  ASN695  SER759  ASP760  ASP761  ALA762  ILE779  LEU786  VAL792 
 PHE793  MET794  SER795  GLU796  ALA797  LYS798  CYS799  TRP800  GLU811  SER814 

> <Gold.Protein.RotatedAtoms>
  152.2567  133.5262  159.5357 H   0  0  0  0  0  0  0  0  0  0  0  0  # atno 6907 bound_to 6896
  150.7111  134.0885  159.3932 H   0  0  0  0  0  0  0  0  0  0  0  0  # atno 6908 bound_to 6896
  151.8804  135.0456  160.0539 H   0  0  0  0  0  0  0  0  0  0  0  0  # atno 6909 bound_to 6896
  145.7988  140.8667  143.0242 H   0  0  0  0  0  0  0  0  0  0  0  0  # atno 7974 bound_to 7965
  156.1520  140.1582  156.8754 H   0  0  0  0  0  0  0  0  0  0  0  0  # atno 8008 bound_to 7997
  154.5080  140.0808  156.7969 H   0  0  0  0  0  0  0  0  0  0  0  0  # atno 8009 bound_to 7997
  155.3877  140.3408  155.4252 H   0  0  0  0  0  0  0  0  0  0  0  0  # atno 8010 bound_to 7997
  139.5686  144.6926  151.3842 H   0  0  0  0  0  0  0  0  0  0  0  0  # atno 10167 bound_to 10162
  156.8739  130.5629  149.5656 H   0  0  0  0  0  0  0  0  0  0  0  0  # atno 10718 bound_to 10713
  153.2673  135.4211  155.0953 H   0  0  0  0  0  0  0  0  0  0  0  0  # atno 10763 bound_to 10752
  154.8443  135.3463  154.6293 H   0  0  0  0  0  0  0  0  0  0  0  0  # atno 10764 bound_to 10752
  153.6713  135.7043  153.5203 H   0  0  0  0  0  0  0  0  0  0  0  0  # atno 10765 bound_to 10752
  141.0929  133.6629  156.4039 H   0  0  0  0  0  0  0  0  0  0  0  0  # atno 11005 bound_to 11000
  144.6771  140.0229  143.7483 LP  0  0  0  0  0  0  0  0  0  0  0  0  # atno 17320 bound_to 7965
  145.9899  139.3007  143.0991 LP  0  0  0  0  0  0  0  0  0  0  0  0  # atno 17321 bound_to 7965
  140.6970  143.7725  150.7342 LP  0  0  0  0  0  0  0  0  0  0  0  0  # atno 17342 bound_to 10162
  140.1225  143.4599  152.2304 LP  0  0  0  0  0  0  0  0  0  0  0  0  # atno 17343 bound_to 10162
  156.0712  130.5745  150.9387 LP  0  0  0  0  0  0  0  0  0  0  0  0  # atno 17370 bound_to 10713
  157.6180  131.0932  150.8675 LP  0  0  0  0  0  0  0  0  0  0  0  0  # atno 17371 bound_to 10713
  140.5209  134.6305  157.5317 LP  0  0  0  0  0  0  0  0  0  0  0  0  # atno 17394 bound_to 11000
  139.9759  134.7216  155.9951 LP  0  0  0  0  0  0  0  0  0  0  0  0  # atno 17395 bound_to 11000

$$$$
