AV-unprocessed.smi:3046|AV-procd|sdf|11618|dock1
  -GOLD-   2272017 03D 1   1.00000     0.00000
 Structure written by MMmdl.
 37 37  0  0  0  0  0  0  0  0  1 V2000
  150.7291  140.0479  155.4457 C   0  0  0  0  0  0  0  0  0  0  0  0
  150.2205  138.8706  155.0523 C   0  0  0  0  0  0  0  0  0  0  0  0
  151.0187  137.5905  154.9325 C   0  0  0  0  0  0  0  0  0  0  0  0
  150.1332  136.4627  154.6904 N   0  0  0  0  0  0  0  0  0  0  0  0
  150.1173  135.3353  155.4164 C   0  0  0  0  0  0  0  0  0  0  0  0
  150.8743  135.1360  156.3669 O   0  0  0  0  0  0  0  0  0  0  0  0
  149.0555  134.2889  155.0318 C   0  0  1  0  0  0  0  0  0  0  0  0
  148.3620  133.7276  156.2840 C   0  0  0  0  0  0  0  0  0  0  0  0
  148.0340  134.7886  154.0854 N   0  0  0  0  0  0  0  0  0  0  0  0
  147.1388  133.8052  153.4712 C   0  0  2  0  0  0  0  0  0  0  0  0
  147.9684  132.5365  153.2121 C   0  0  0  0  0  0  0  0  0  0  0  0
  146.4890  134.3566  152.1799 C   0  0  0  0  0  0  0  0  0  0  0  0
  145.4736  133.4644  151.6511 N   0  0  0  0  0  0  0  0  0  0  0  0
  145.6010  132.1311  151.3235 C   0  0  0  0  0  0  0  0  0  0  0  0
  144.3849  131.7059  150.8717 C   0  0  0  0  0  0  0  0  0  0  0  0
  143.5658  132.8656  150.9653 C   0  0  0  0  0  0  0  0  0  0  0  0
  144.2196  133.9164  151.4344 N   0  0  0  0  0  0  0  0  0  0  0  0
  151.7715  140.1492  155.7107 H   0  0  0  0  0  0  0  0  0  0  0  0
  150.1065  140.9280  155.5079 H   0  0  0  0  0  0  0  0  0  0  0  0
  149.1734  138.8096  154.7927 H   0  0  0  0  0  0  0  0  0  0  0  0
  151.7222  137.6869  154.1044 H   0  0  0  0  0  0  0  0  0  0  0  0
  151.5990  137.4231  155.8418 H   0  0  0  0  0  0  0  0  0  0  0  0
  149.4726  136.5508  153.9321 H   0  0  0  0  0  0  0  0  0  0  0  0
  149.5715  133.4505  154.5624 H   0  0  0  0  0  0  0  0  0  0  0  0
  149.0875  133.3364  156.9984 H   0  0  0  0  0  0  0  0  0  0  0  0
  147.6902  132.9091  156.0232 H   0  0  0  0  0  0  0  0  0  0  0  0
  147.7698  134.4892  156.7932 H   0  0  0  0  0  0  0  0  0  0  0  0
  148.4636  135.3349  153.3522 H   0  0  0  0  0  0  0  0  0  0  0  0
  146.3584  133.5270  154.1798 H   0  0  0  0  0  0  0  0  0  0  0  0
  147.3487  131.7275  152.8248 H   0  0  0  0  0  0  0  0  0  0  0  0
  148.4329  132.1730  154.1295 H   0  0  0  0  0  0  0  0  0  0  0  0
  148.7621  132.7213  152.4872 H   0  0  0  0  0  0  0  0  0  0  0  0
  146.0040  135.3155  152.3564 H   0  0  0  0  0  0  0  0  0  0  0  0
  147.2482  134.5308  151.4154 H   0  0  0  0  0  0  0  0  0  0  0  0
  146.5374  131.6046  151.4360 H   0  0  0  0  0  0  0  0  0  0  0  0
  144.1206  130.7173  150.5271 H   0  0  0  0  0  0  0  0  0  0  0  0
  142.5222  132.9742  150.7088 H   0  0  0  0  0  0  0  0  0  0  0  0
  1  2  2  0  0  0  0
  1 18  1  0  0  0  0
  1 19  1  0  0  0  0
  2  3  1  0  0  0  0
  2 20  1  0  0  0  0
  3  4  1  0  0  0  0
  3 21  1  0  0  0  0
  3 22  1  0  0  0  0
  4  5  1  0  0  0  0
  4 23  1  0  0  0  0
  5  6  2  0  0  0  0
  5  7  1  0  0  0  0
  7  8  1  0  0  0  0
  7  9  1  0  0  0  0
  7 24  1  0  0  0  0
  8 25  1  0  0  0  0
  8 26  1  0  0  0  0
  8 27  1  0  0  0  0
  9 10  1  0  0  0  0
  9 28  1  0  0  0  0
 10 11  1  0  0  0  0
 10 12  1  0  0  0  0
 10 29  1  0  0  0  0
 11 30  1  0  0  0  0
 11 31  1  0  0  0  0
 11 32  1  0  0  0  0
 12 13  1  0  0  0  0
 12 33  1  0  0  0  0
 12 34  1  0  0  0  0
 13 17  1  0  0  0  0
 13 14  1  0  0  0  0
 14 15  2  0  0  0  0
 14 35  1  0  0  0  0
 15 16  1  0  0  0  0
 15 36  1  0  0  0  0
 16 17  2  0  0  0  0
 16 37  1  0  0  0  0
M  END
> <s_m_source_file>
AV-unprocessed.smi

> <i_m_source_file_index>
3046

> <i_lp_mmshare_version>
43012

> <i_f3d_flags>
0

> <s_epik_input>
W0NIMl09W0NIXVtDSDJdW05IXUMoPU8pW0NASF0oW0NIM10pW05IXVtDQEhdKFtDSDNdKVtDSDJdbjFbY0hdW2NIXVtjSF1uMQ==

> <s_epik_cmdline>
J2VwaWtfcHl0aG9uJywgJy1waCcsICc3LjAnLCAnLXRuJywgJzgnLCAnLW1hJywgJzIwMCcsICctbWV0YWxfYmluZGluZycsICctaW1hZScsICc8aW5maWxlLm1hZT4nLCAnLW9tYWUnLCAnPG91dGZpbGUubWFlPic=

> <r_lp_tautomer_probability>
1

> <r_epik_Ionization_Penalty>
0.950627

> <r_epik_Ionization_Penalty_Charging>
0

> <r_epik_Ionization_Penalty_Neutral>
0.950627

> <r_epik_State_Penalty>
0.994814

> <r_epik_Charging_Adjusted_Penalty>
0.994814

> <i_epik_Tot_Q>
0

> <i_epik_Tot_abs_Q>
0

> <r_epik_Metal_State_Penalty>
0.994788

> <b_epik_Metal_Only>
0

> <s_lp_Force_Field>
OPLS_2005

> <r_lp_Energy>
3.97817

> <b_lp_Chiralities_Consistent>
1

> <s_lp_Variant>
AV-unprocessed.smi:3046-6

> <Gold.Version>
5.8.1

> <Gold.Id.Protein>
6NUR|6NUR_protein|mol2

> <Gold.PLP.Fitness>
45.0892

> <Gold.PLP.PLP>
-31.5529

> <Gold.PLP.part.hbond>
-4.0000

> <Gold.PLP.part.metal>
0.0000

> <Gold.PLP.part.buried>
1.0051

> <Gold.PLP.part.nonpolar>
-27.6564

> <Gold.PLP.part.repulsive>
0.2371

> <Gold.PLP.ligand.clash>
0.0000

> <Gold.PLP.ligand.torsion>
0.7119

> <Gold.PLP.Chemscore.Hbond>
2.9680

> <Gold.PLP.Chemscore.CHOScore>
1.9966

> <Gold.PLP.Chemscore.Metal>
0.0000

> <Gold.Chemscore.Hbonds>
donor molecule, donor type, donor heavy atom, donor atom, acceptor molecule, acceptor atom, score
      L1  H     4    23       P1  7948  0.73
      L1  H     9    28       P1  7948  1.00
      L1  C    14    35       P1 10747  0.32
      L1  C    16    37       P1 10186  1.00

> <Gold.PLP.Chemscore.Internal.Correction>
0.0661

> <Gold.Rescore>
     Score         DG    S(hbond)    S(metal)    S(lipo)     H(rot)  DE(clash)    DE(int)     intcor
     15.62     -16.98       2.57        0.00      72.61       2.17       0.33       1.04       ----

> <Gold.Chemscore.Fitness>
15.6199

> <Gold.Chemscore.DG>
-16.9848

> <Gold.Chemscore.ZeroCoef>
-5.4800

> <Gold.Chemscore.Hbond>
2.5672

> <Gold.Chemscore.Metal>
0.0000

> <Gold.Chemscore.Lipo>
72.6121

> <Gold.Chemscore.Internal_Hbond>
0.0000

> <Gold.Chemscore.DEClash>
0.3297

> <Gold.Chemscore.DEInternal>
1.0352

> <Gold.Chemscore.Rot>
2.1739

> <Gold.Chemscore.Internal.Correction>
   9.000000E+99

> <Gold.Chemscore.Hbonds>
donor molecule, donor type, donor heavy atom, donor atom, acceptor molecule, acceptor atom, score
      L1  H     4    23       P1  7948  0.60
      L1  H     9    28       P1  7948  0.97

> <Gold.Chemscore.Hbond.Weighted>
-8.5743

> <Gold.Chemscore.Metal.Weighted>
-0.0000

> <Gold.Chemscore.Lipo.Weighted>
-8.4956

> <Gold.Chemscore.Internal_Hbond.Weighted>
0.0000

> <Gold.Chemscore.DEClash.Weighted>
0.3297

> <Gold.Chemscore.DEInternal.Weighted>
1.0352

> <Gold.Chemscore.Rot.Weighted>
5.5652

> <Gold.Chemscore.Internal.Correction.Weighted>
   9.000000E+99

> <Gold.Protein.RotatedTorsions>
[ 6907 6896 6895 6894 ] final -123.11 input  -60.11 | X-H torsion
[ 7974 7965 7964 7962 ] final  -72.25 input  175.53 | X-H torsion
[ 8008 7997 7996 7995 ] final  -11.26 input   59.86 | X-H torsion
[ 10167 10162 10161 10158 ] final -122.39 input  -65.29 | X-H torsion
[ 10718 10713 10712 10709 ] final   92.39 input   66.30 | X-H torsion
[ 10763 10752 10751 10750 ] final  -37.38 input  -60.55 | X-H torsion
[ 11005 11000 10999 10996 ] final -105.96 input  -57.11 | X-H torsion

> <Gold.Protein.ActiveResidues>
 VAL166  LYS551  ARG553  GLY616  TRP617  ASP618  TYR619  PRO620  LYS621  CYS622 
 ASP623  PHE694  ASN695  SER759  ASP760  ASP761  ALA762  ILE779  LEU786  VAL792 
 PHE793  MET794  SER795  GLU796  ALA797  LYS798  CYS799  TRP800  GLU811  SER814 

> <Gold.Protein.RotatedAtoms>
  150.8640  133.7602  159.2982 H   0  0  0  0  0  0  0  0  0  0  0  0  # atno 6907 bound_to 6896
  151.5235  135.1066  159.9894 H   0  0  0  0  0  0  0  0  0  0  0  0  # atno 6908 bound_to 6896
  152.4647  133.7853  159.6928 H   0  0  0  0  0  0  0  0  0  0  0  0  # atno 6909 bound_to 6896
  145.6676  140.9232  143.0900 H   0  0  0  0  0  0  0  0  0  0  0  0  # atno 7974 bound_to 7965
  154.5480  140.2307  155.8531 H   0  0  0  0  0  0  0  0  0  0  0  0  # atno 8008 bound_to 7997
  156.1921  140.3074  155.9314 H   0  0  0  0  0  0  0  0  0  0  0  0  # atno 8009 bound_to 7997
  155.3126  140.0436  157.3026 H   0  0  0  0  0  0  0  0  0  0  0  0  # atno 8010 bound_to 7997
  140.0147  143.5405  152.2247 H   0  0  0  0  0  0  0  0  0  0  0  0  # atno 10167 bound_to 10162
  157.6958  131.0441  150.3875 H   0  0  0  0  0  0  0  0  0  0  0  0  # atno 10718 bound_to 10713
  153.8953  135.6808  153.4758 H   0  0  0  0  0  0  0  0  0  0  0  0  # atno 10763 bound_to 10752
  153.1159  135.4762  154.9112 H   0  0  0  0  0  0  0  0  0  0  0  0  # atno 10764 bound_to 10752
  154.7602  135.3208  154.8346 H   0  0  0  0  0  0  0  0  0  0  0  0  # atno 10765 bound_to 10752
  141.1028  133.8853  157.1798 H   0  0  0  0  0  0  0  0  0  0  0  0  # atno 11005 bound_to 11000
  144.7068  139.8530  143.7427 LP  0  0  0  0  0  0  0  0  0  0  0  0  # atno 17320 bound_to 7965
  146.1072  139.4073  143.0310 LP  0  0  0  0  0  0  0  0  0  0  0  0  # atno 17321 bound_to 7965
  139.6181  144.7623  151.2802 LP  0  0  0  0  0  0  0  0  0  0  0  0  # atno 17342 bound_to 10162
  140.7367  143.6700  150.8090 LP  0  0  0  0  0  0  0  0  0  0  0  0  # atno 17343 bound_to 10162
  156.4282  130.3966  149.6778 LP  0  0  0  0  0  0  0  0  0  0  0  0  # atno 17370 bound_to 10713
  156.4005  130.7672  151.2680 LP  0  0  0  0  0  0  0  0  0  0  0  0  # atno 17371 bound_to 10713
  139.9886  135.0073  156.9921 LP  0  0  0  0  0  0  0  0  0  0  0  0  # atno 17394 bound_to 11000
  140.4979  134.1127  155.7245 LP  0  0  0  0  0  0  0  0  0  0  0  0  # atno 17395 bound_to 11000

$$$$
