AV-unprocessed.smi:2448|AV-procd|sdf|9658|dock6
  -GOLD-   2272013293D 1   1.00000     0.00000
 Structure written by MMmdl.
 38 39  0  0  0  0  0  0  0  0  2 V2000
  150.8422  140.3633  155.3371 O   0  0  0  0  0  0  0  0  0  0  0  0
  150.4101  139.8471  156.5846 C   0  0  2  0  0  0  0  0  0  0  0  0
  150.3740  141.0092  157.5960 C   0  0  0  0  0  0  0  0  0  0  0  0
  151.6826  141.6942  157.6942 N   0  3  0  0  0  0  0  0  0  0  0  0
  151.7439  142.7977  158.6816 C   0  0  1  0  0  0  0  0  0  0  0  0
  153.1205  142.8348  159.3829 C   0  0  0  0  0  0  0  0  0  0  0  0
  153.2468  141.8400  160.5226 C   0  0  0  0  0  0  0  0  0  0  0  0
  153.7713  142.2370  161.7698 C   0  0  0  0  0  0  0  0  0  0  0  0
  153.8431  141.2810  162.8031 C   0  0  0  0  0  0  0  0  0  0  0  0
  153.4319  140.0028  162.6596 N   0  0  0  0  0  0  0  0  0  0  0  0
  152.9368  139.6277  161.4608 C   0  0  0  0  0  0  0  0  0  0  0  0
  152.8213  140.5046  160.3638 C   0  0  0  0  0  0  0  0  0  0  0  0
  151.4232  144.1351  157.9869 C   0  0  0  0  0  0  0  0  0  0  0  0
  152.2204  144.2928  156.9300 F   0  0  0  0  0  0  0  0  0  0  0  0
  150.1594  144.1437  157.5641 F   0  0  0  0  0  0  0  0  0  0  0  0
  151.6102  145.1568  158.8229 F   0  0  0  0  0  0  0  0  0  0  0  0
  151.3965  138.7450  157.0051 C   0  0  0  0  0  0  0  0  0  0  0  0
  151.1287  137.5169  156.1292 C   0  0  0  0  0  0  0  0  0  0  0  0
  149.3518  137.4682  155.7873 S   0  0  0  0  0  0  0  0  0  0  0  0
  149.0521  139.1433  156.4115 C   0  0  0  0  0  0  0  0  0  0  0  0
  150.3139  141.1168  155.1205 H   0  0  0  0  0  0  0  0  0  0  0  0
  149.6218  141.7421  157.3006 H   0  0  0  0  0  0  0  0  0  0  0  0
  150.0749  140.6328  158.5743 H   0  0  0  0  0  0  0  0  0  0  0  0
  152.3927  141.0142  157.9263 H   0  0  0  0  0  0  0  0  0  0  0  0
  150.9726  142.6367  159.4372 H   0  0  0  0  0  0  0  0  0  0  0  0
  153.9160  142.6524  158.6592 H   0  0  0  0  0  0  0  0  0  0  0  0
  153.3048  143.8311  159.7864 H   0  0  0  0  0  0  0  0  0  0  0  0
  154.1078  143.2499  161.9366 H   0  0  0  0  0  0  0  0  0  0  0  0
  154.2362  141.5519  163.7716 H   0  0  0  0  0  0  0  0  0  0  0  0
  152.6173  138.5998  161.3741 H   0  0  0  0  0  0  0  0  0  0  0  0
  152.4112  140.1558  159.4272 H   0  0  0  0  0  0  0  0  0  0  0  0
  152.4363  139.0683  156.9401 H   0  0  0  0  0  0  0  0  0  0  0  0
  151.2152  138.4756  158.0466 H   0  0  0  0  0  0  0  0  0  0  0  0
  151.6547  137.6112  155.1787 H   0  0  0  0  0  0  0  0  0  0  0  0
  151.4622  136.5932  156.6023 H   0  0  0  0  0  0  0  0  0  0  0  0
  148.5576  139.0429  157.3781 H   0  0  0  0  0  0  0  0  0  0  0  0
  148.3739  139.6893  155.7546 H   0  0  0  0  0  0  0  0  0  0  0  0
  151.8948  142.0763  156.7834 H   0  0  0  0  0  0  0  0  0  0  0  0
  1  2  1  0  0  0  0
  1 21  1  0  0  0  0
  2 20  1  0  0  0  0
  2  3  1  0  0  0  0
  2 17  1  0  0  0  0
  3  4  1  0  0  0  0
  3 22  1  0  0  0  0
  3 23  1  0  0  0  0
  4  5  1  0  0  0  0
  4 24  1  0  0  0  0
  4 38  1  0  0  0  0
  5  6  1  0  0  0  0
  5 13  1  0  0  0  0
  5 25  1  0  0  0  0
  6  7  1  0  0  0  0
  6 26  1  0  0  0  0
  6 27  1  0  0  0  0
  7 12  1  0  0  0  0
  7  8  2  0  0  0  0
  8  9  1  0  0  0  0
  8 28  1  0  0  0  0
  9 10  2  0  0  0  0
  9 29  1  0  0  0  0
 10 11  1  0  0  0  0
 11 12  2  0  0  0  0
 11 30  1  0  0  0  0
 12 31  1  0  0  0  0
 13 14  1  0  0  0  0
 13 15  1  0  0  0  0
 13 16  1  0  0  0  0
 17 18  1  0  0  0  0
 17 32  1  0  0  0  0
 17 33  1  0  0  0  0
 18 19  1  0  0  0  0
 18 34  1  0  0  0  0
 18 35  1  0  0  0  0
 19 20  1  0  0  0  0
 20 36  1  0  0  0  0
 20 37  1  0  0  0  0
M  CHG  1   4   1
M  END
> <s_m_source_file>
AV-unprocessed.smi

> <i_m_source_file_index>
2448

> <i_lp_mmshare_version>
43012

> <i_f3d_flags>
0

> <s_epik_input>
W0NIMl0xU1tDSDJdW0NIMl1bQ0BAXTEoW09IXSlbQ0gyXVtOSF1bQ0BASF0oQyhGKShGKUYpW0NIMl1jMltjSF1bY0hdbltjSF1bY0hdMg==

> <s_epik_cmdline>
J2VwaWtfcHl0aG9uJywgJy1waCcsICc3LjAnLCAnLXRuJywgJzgnLCAnLW1hJywgJzIwMCcsICctbWV0YWxfYmluZGluZycsICctaW1hZScsICc8aW5maWxlLm1hZT4nLCAnLW9tYWUnLCAnPG91dGZpbGUubWFlPic=

> <r_epik_Ionization_Penalty>
1.19945

> <r_epik_Ionization_Penalty_Charging>
1.19892

> <r_epik_Ionization_Penalty_Neutral>
0.000532129

> <r_epik_State_Penalty>
0.752927

> <r_epik_Charging_Adjusted_Penalty>
1.95185

> <i_epik_Tot_Q>
1

> <i_epik_Tot_abs_Q>
1

> <r_epik_Metal_State_Penalty>
0.804507

> <b_epik_Metal_Only>
0

> <s_lp_Force_Field>
OPLS_2005

> <r_lp_Energy>
23.5245

> <b_lp_Chiralities_Consistent>
1

> <s_lp_Variant>
AV-unprocessed.smi:2448-8

> <Gold.Version>
5.8.1

> <Gold.Id.Protein>
6NUR|6NUR_protein|mol2

> <Gold.PLP.Fitness>
45.8008

> <Gold.PLP.PLP>
-44.0457

> <Gold.PLP.part.hbond>
-1.6826

> <Gold.PLP.part.metal>
0.0000

> <Gold.PLP.part.buried>
-1.8515

> <Gold.PLP.part.nonpolar>
-40.7758

> <Gold.PLP.part.repulsive>
0.0556

> <Gold.PLP.ligand.clash>
0.0000

> <Gold.PLP.ligand.torsion>
0.9752

> <Gold.PLP.Chemscore.Hbond>
1.0000

> <Gold.PLP.Chemscore.CHOScore>
0.0000

> <Gold.PLP.Chemscore.Metal>
0.0000

> <Gold.PLP.Chemscore.Internal.Correction>
0.7055

> <Gold.Rescore>
     Score         DG    S(hbond)    S(metal)    S(lipo)     H(rot)  DE(clash)    DE(int)     intcor
     12.84     -14.03       0.94        0.00      98.42       2.39       0.09       1.09       ----

> <Gold.Chemscore.Fitness>
12.8417

> <Gold.Chemscore.DG>
-14.0276

> <Gold.Chemscore.ZeroCoef>
-5.4800

> <Gold.Chemscore.Hbond>
0.9407

> <Gold.Chemscore.Metal>
0.0000

> <Gold.Chemscore.Lipo>
98.4220

> <Gold.Chemscore.Internal_Hbond>
0.0000

> <Gold.Chemscore.DEClash>
0.0944

> <Gold.Chemscore.DEInternal>
1.0916

> <Gold.Chemscore.Rot>
2.3866

> <Gold.Chemscore.Internal.Correction>
   9.000000E+99

> <Gold.Chemscore.Hbond.Weighted>
-3.1419

> <Gold.Chemscore.Metal.Weighted>
-0.0000

> <Gold.Chemscore.Lipo.Weighted>
-11.5154

> <Gold.Chemscore.Internal_Hbond.Weighted>
0.0000

> <Gold.Chemscore.DEClash.Weighted>
0.0944

> <Gold.Chemscore.DEInternal.Weighted>
1.0916

> <Gold.Chemscore.Rot.Weighted>
6.1096

> <Gold.Chemscore.Internal.Correction.Weighted>
   9.000000E+99

> <Gold.Protein.RotatedTorsions>
[ 6907 6896 6895 6894 ] final  -13.77 input  -60.11 | X-H torsion
[ 7974 7965 7964 7962 ] final    3.48 input  175.53 | X-H torsion
[ 8008 7997 7996 7995 ] final   44.39 input   59.86 | X-H torsion
[ 10167 10162 10161 10158 ] final  -38.54 input  -65.29 | X-H torsion
[ 10718 10713 10712 10709 ] final  134.17 input   66.30 | X-H torsion
[ 10763 10752 10751 10750 ] final   57.34 input  -60.55 | X-H torsion
[ 11005 11000 10999 10996 ] final -132.05 input  -57.11 | X-H torsion

> <Gold.Protein.ActiveResidues>
 VAL166  LYS551  ARG553  GLY616  TRP617  ASP618  TYR619  PRO620  LYS621  CYS622 
 ASP623  PHE694  ASN695  SER759  ASP760  ASP761  ALA762  ILE779  LEU786  VAL792 
 PHE793  MET794  SER795  GLU796  ALA797  LYS798  CYS799  TRP800  GLU811  SER814 

> <Gold.Protein.RotatedAtoms>
  151.3498  135.0882  159.9398 H   0  0  0  0  0  0  0  0  0  0  0  0  # atno 6907 bound_to 6896
  152.5190  133.9364  159.7616 H   0  0  0  0  0  0  0  0  0  0  0  0  # atno 6908 bound_to 6896
  150.9737  133.6263  159.2763 H   0  0  0  0  0  0  0  0  0  0  0  0  # atno 6909 bound_to 6896
  146.2445  140.0679  142.8364 H   0  0  0  0  0  0  0  0  0  0  0  0  # atno 7974 bound_to 7965
  155.3185  140.3395  155.4242 H   0  0  0  0  0  0  0  0  0  0  0  0  # atno 8008 bound_to 7997
  156.1920  140.1701  156.8110 H   0  0  0  0  0  0  0  0  0  0  0  0  # atno 8009 bound_to 7997
  154.5454  140.0716  156.8563 H   0  0  0  0  0  0  0  0  0  0  0  0  # atno 8010 bound_to 7997
  140.7089  143.3270  151.2656 H   0  0  0  0  0  0  0  0  0  0  0  0  # atno 10167 bound_to 10162
  157.4699  131.1079  150.9815 H   0  0  0  0  0  0  0  0  0  0  0  0  # atno 10718 bound_to 10713
  152.9848  135.5645  154.5375 H   0  0  0  0  0  0  0  0  0  0  0  0  # atno 10763 bound_to 10752
  154.4836  135.2789  155.1554 H   0  0  0  0  0  0  0  0  0  0  0  0  # atno 10764 bound_to 10752
  154.3052  135.6299  153.5495 H   0  0  0  0  0  0  0  0  0  0  0  0  # atno 10765 bound_to 10752
  140.9205  134.1451  157.4318 H   0  0  0  0  0  0  0  0  0  0  0  0  # atno 11005 bound_to 11000
  145.0842  140.9241  143.4807 LP  0  0  0  0  0  0  0  0  0  0  0  0  # atno 17320 bound_to 7965
  145.0838  139.2940  143.5770 LP  0  0  0  0  0  0  0  0  0  0  0  0  # atno 17321 bound_to 7965
  139.6741  143.9968  152.2771 LP  0  0  0  0  0  0  0  0  0  0  0  0  # atno 17342 bound_to 10162
  139.9576  144.6579  150.8111 LP  0  0  0  0  0  0  0  0  0  0  0  0  # atno 17343 bound_to 10162
  157.0583  130.5815  149.5381 LP  0  0  0  0  0  0  0  0  0  0  0  0  # atno 17370 bound_to 10713
  156.0068  130.5156  150.7858 LP  0  0  0  0  0  0  0  0  0  0  0  0  # atno 17371 bound_to 10713
  139.8774  134.9969  156.5820 LP  0  0  0  0  0  0  0  0  0  0  0  0  # atno 17394 bound_to 11000
  140.7994  133.8517  155.8714 LP  0  0  0  0  0  0  0  0  0  0  0  0  # atno 17395 bound_to 11000

$$$$
