AV-unprocessed.smi:2916|AV-procd|sdf|11189|dock3
  -GOLD-   2272016 83D 1   1.00000     0.00000
 Structure written by MMmdl.
 37 38  0  0  0  0  0  0  0  0  1 V2000
  149.6641  138.9160  154.6197 N   0  0  0  0  0  0  0  0  0  0  0  0
  150.2522  140.0485  155.0184 C   0  0  0  0  0  0  0  0  0  0  0  0
  151.4754  140.1724  154.9946 O   0  0  0  0  0  0  0  0  0  0  0  0
  149.3265  141.2078  155.4826 C   0  0  0  0  0  0  0  0  0  0  0  0
  150.0983  142.3845  155.9075 N   0  0  0  0  0  0  0  0  0  0  0  0
  150.9421  142.2441  157.0944 C   0  0  0  0  0  0  0  0  0  0  0  0
  151.6079  143.5903  157.4220 C   0  0  0  0  0  0  0  0  0  0  0  0
  151.9430  143.7032  158.8309 N   0  0  0  0  0  0  0  0  0  0  0  0
  151.6120  144.7128  159.7098 C   0  0  0  0  0  0  0  0  0  0  0  0
  152.1587  144.3942  160.9196 C   0  0  0  0  0  0  0  0  0  0  0  0
  152.8131  143.1539  160.6785 C   0  0  0  0  0  0  0  0  0  0  0  0
  152.6826  142.7430  159.4274 N   0  0  0  0  0  0  0  0  0  0  0  0
  148.4316  141.7060  154.3127 C   0  0  0  0  0  0  0  0  0  0  0  0
  147.3346  140.7034  153.9127 C   0  0  0  0  0  0  0  0  0  0  0  0
  146.4363  140.3716  155.1110 C   0  0  0  0  0  0  0  0  0  0  0  0
  147.2653  139.8346  156.2847 C   0  0  0  0  0  0  0  0  0  0  0  0
  148.4004  140.8049  156.6726 C   0  0  0  0  0  0  0  0  0  0  0  0
  150.2279  138.1404  154.3040 H   0  0  0  0  0  0  0  0  0  0  0  0
  148.6570  138.8460  154.6307 H   0  0  0  0  0  0  0  0  0  0  0  0
  149.4612  143.1563  156.0467 H   0  0  0  0  0  0  0  0  0  0  0  0
  150.3644  141.9101  157.9559 H   0  0  0  0  0  0  0  0  0  0  0  0
  151.7135  141.4949  156.9153 H   0  0  0  0  0  0  0  0  0  0  0  0
  152.5299  143.6936  156.8488 H   0  0  0  0  0  0  0  0  0  0  0  0
  150.9664  144.4242  157.1314 H   0  0  0  0  0  0  0  0  0  0  0  0
  151.0256  145.5664  159.4027 H   0  0  0  0  0  0  0  0  0  0  0  0
  152.1010  144.9610  161.8368 H   0  0  0  0  0  0  0  0  0  0  0  0
  153.3760  142.5448  161.3703 H   0  0  0  0  0  0  0  0  0  0  0  0
  147.9455  142.6414  154.5967 H   0  0  0  0  0  0  0  0  0  0  0  0
  149.0341  141.9508  153.4368 H   0  0  0  0  0  0  0  0  0  0  0  0
  146.7318  141.1202  153.1053 H   0  0  0  0  0  0  0  0  0  0  0  0
  147.7824  139.7898  153.5201 H   0  0  0  0  0  0  0  0  0  0  0  0
  145.8964  141.2664  155.4232 H   0  0  0  0  0  0  0  0  0  0  0  0
  145.6818  139.6393  154.8219 H   0  0  0  0  0  0  0  0  0  0  0  0
  146.6169  139.6678  157.1451 H   0  0  0  0  0  0  0  0  0  0  0  0
  147.6728  138.8582  156.0235 H   0  0  0  0  0  0  0  0  0  0  0  0
  148.9761  140.3605  157.4851 H   0  0  0  0  0  0  0  0  0  0  0  0
  147.9456  141.7025  157.0958 H   0  0  0  0  0  0  0  0  0  0  0  0
  1  2  1  0  0  0  0
  1 18  1  0  0  0  0
  1 19  1  0  0  0  0
  2  3  2  0  0  0  0
  2  4  1  0  0  0  0
  4 17  1  0  0  0  0
  4  5  1  0  0  0  0
  4 13  1  0  0  0  0
  5  6  1  0  0  0  0
  5 20  1  0  0  0  0
  6  7  1  0  0  0  0
  6 21  1  0  0  0  0
  6 22  1  0  0  0  0
  7  8  1  0  0  0  0
  7 23  1  0  0  0  0
  7 24  1  0  0  0  0
  8 12  1  0  0  0  0
  8  9  1  0  0  0  0
  9 10  2  0  0  0  0
  9 25  1  0  0  0  0
 10 11  1  0  0  0  0
 10 26  1  0  0  0  0
 11 12  2  0  0  0  0
 11 27  1  0  0  0  0
 13 14  1  0  0  0  0
 13 28  1  0  0  0  0
 13 29  1  0  0  0  0
 14 15  1  0  0  0  0
 14 30  1  0  0  0  0
 14 31  1  0  0  0  0
 15 16  1  0  0  0  0
 15 32  1  0  0  0  0
 15 33  1  0  0  0  0
 16 17  1  0  0  0  0
 16 34  1  0  0  0  0
 16 35  1  0  0  0  0
 17 36  1  0  0  0  0
 17 37  1  0  0  0  0
M  END
> <s_m_source_file>
AV-unprocessed.smi

> <i_m_source_file_index>
2916

> <i_lp_mmshare_version>
43012

> <i_f3d_flags>
0

> <s_epik_input>
W0NIMl0xW0NIMl1bQ0gyXVtDSDJdW0NIMl1DMShDKD1PKVtOSDJdKVtOSF1bQ0gyXVtDSDJdbjJbY0hdW2NIXVtjSF1uMg==

> <s_epik_cmdline>
J2VwaWtfcHl0aG9uJywgJy1waCcsICc3LjAnLCAnLXRuJywgJzgnLCAnLW1hJywgJzIwMCcsICctbWV0YWxfYmluZGluZycsICctaW1hZScsICc8aW5maWxlLm1hZT4nLCAnLW9tYWUnLCAnPG91dGZpbGUubWFlPic=

> <r_lp_tautomer_probability>
1

> <r_epik_Ionization_Penalty>
0.895772

> <r_epik_Ionization_Penalty_Charging>
0

> <r_epik_Ionization_Penalty_Neutral>
0.895772

> <r_epik_State_Penalty>
0.934109

> <r_epik_Charging_Adjusted_Penalty>
0.934109

> <i_epik_Tot_Q>
0

> <i_epik_Tot_abs_Q>
0

> <r_epik_Metal_State_Penalty>
0.933276

> <b_epik_Metal_Only>
0

> <s_lp_Force_Field>
OPLS_2005

> <r_lp_Energy>
12.2075

> <b_lp_Chiralities_Consistent>
1

> <s_lp_Variant>
AV-unprocessed.smi:2916-2

> <Gold.Version>
5.8.1

> <Gold.Id.Protein>
6NUR|6NUR_protein|mol2

> <Gold.PLP.Fitness>
42.1385

> <Gold.PLP.PLP>
-36.5930

> <Gold.PLP.part.hbond>
-2.0000

> <Gold.PLP.part.metal>
0.0000

> <Gold.PLP.part.buried>
-5.5713

> <Gold.PLP.part.nonpolar>
-28.6205

> <Gold.PLP.part.repulsive>
0.1035

> <Gold.PLP.ligand.clash>
0.0000

> <Gold.PLP.ligand.torsion>
0.2387

> <Gold.PLP.Chemscore.Hbond>
2.0000

> <Gold.PLP.Chemscore.CHOScore>
0.0000

> <Gold.PLP.Chemscore.Metal>
0.0000

> <Gold.Chemscore.Hbonds>
donor molecule, donor type, donor heavy atom, donor atom, acceptor molecule, acceptor atom, score
      L1  H     5    20       P1  8028  1.00
      P1  H  7989  7998       L1     3  1.00

> <Gold.PLP.Chemscore.Internal.Correction>
0.0228

> <Gold.Rescore>
     Score         DG    S(hbond)    S(metal)    S(lipo)     H(rot)  DE(clash)    DE(int)     intcor
     14.31     -15.96       1.97        0.00      81.52       2.20       0.04       1.61       ----

> <Gold.Chemscore.Fitness>
14.3130

> <Gold.Chemscore.DG>
-15.9568

> <Gold.Chemscore.ZeroCoef>
-5.4800

> <Gold.Chemscore.Hbond>
1.9682

> <Gold.Chemscore.Metal>
0.0000

> <Gold.Chemscore.Lipo>
81.5207

> <Gold.Chemscore.Internal_Hbond>
0.0000

> <Gold.Chemscore.DEClash>
0.0362

> <Gold.Chemscore.DEInternal>
1.6076

> <Gold.Chemscore.Rot>
2.2011

> <Gold.Chemscore.Internal.Correction>
   9.000000E+99

> <Gold.Chemscore.Hbonds>
donor molecule, donor type, donor heavy atom, donor atom, acceptor molecule, acceptor atom, score
      L1  H     5    20       P1  8028  0.96
      P1  H  7989  7998       L1     3  0.25

> <Gold.Chemscore.Hbond.Weighted>
-6.5737

> <Gold.Chemscore.Metal.Weighted>
-0.0000

> <Gold.Chemscore.Lipo.Weighted>
-9.5379

> <Gold.Chemscore.Internal_Hbond.Weighted>
0.0000

> <Gold.Chemscore.DEClash.Weighted>
0.0362

> <Gold.Chemscore.DEInternal.Weighted>
1.6076

> <Gold.Chemscore.Rot.Weighted>
5.6348

> <Gold.Chemscore.Internal.Correction.Weighted>
   9.000000E+99

> <Gold.Protein.RotatedTorsions>
[ 6907 6896 6895 6894 ] final  164.51 input  -60.11 | X-H torsion
[ 7974 7965 7964 7962 ] final   85.10 input  175.53 | X-H torsion
[ 8008 7997 7996 7995 ] final   39.41 input   59.86 | X-H torsion
[ 10167 10162 10161 10158 ] final  -19.69 input  -65.29 | X-H torsion
[ 10718 10713 10712 10709 ] final   34.53 input   66.30 | X-H torsion
[ 10763 10752 10751 10750 ] final   21.14 input  -60.55 | X-H torsion
[ 11005 11000 10999 10996 ] final -106.69 input  -57.11 | X-H torsion

> <Gold.Protein.ActiveResidues>
 VAL166  LYS551  ARG553  GLY616  TRP617  ASP618  TYR619  PRO620  LYS621  CYS622 
 ASP623  PHE694  ASN695  SER759  ASP760  ASP761  ALA762  ILE779  LEU786  VAL792 
 PHE793  MET794  SER795  GLU796  ALA797  LYS798  CYS799  TRP800  GLU811  SER814 

> <Gold.Protein.RotatedAtoms>
  151.9088  133.3556  159.3856 H   0  0  0  0  0  0  0  0  0  0  0  0  # atno 6907 bound_to 6896
  150.7063  134.4753  159.5454 H   0  0  0  0  0  0  0  0  0  0  0  0  # atno 6908 bound_to 6896
  152.2355  134.8280  160.0518 H   0  0  0  0  0  0  0  0  0  0  0  0  # atno 6909 bound_to 6896
  145.5900  139.2336  143.2305 H   0  0  0  0  0  0  0  0  0  0  0  0  # atno 7974 bound_to 7965
  155.2363  140.3342  155.4297 H   0  0  0  0  0  0  0  0  0  0  0  0  # atno 8008 bound_to 7997
  156.2274  140.1835  156.7373 H   0  0  0  0  0  0  0  0  0  0  0  0  # atno 8009 bound_to 7997
  154.5922  140.0636  156.9239 H   0  0  0  0  0  0  0  0  0  0  0  0  # atno 8010 bound_to 7997
  140.7270  143.4795  151.0137 H   0  0  0  0  0  0  0  0  0  0  0  0  # atno 10167 bound_to 10162
  157.3115  130.7401  149.6727 H   0  0  0  0  0  0  0  0  0  0  0  0  # atno 10718 bound_to 10713
  153.1019  135.6675  153.9657 H   0  0  0  0  0  0  0  0  0  0  0  0  # atno 10763 bound_to 10752
  153.9225  135.3013  155.3449 H   0  0  0  0  0  0  0  0  0  0  0  0  # atno 10764 bound_to 10752
  154.7440  135.5066  153.9247 H   0  0  0  0  0  0  0  0  0  0  0  0  # atno 10765 bound_to 10752
  141.0992  133.8916  157.1886 H   0  0  0  0  0  0  0  0  0  0  0  0  # atno 11005 bound_to 11000
  146.1654  140.6726  142.9258 LP  0  0  0  0  0  0  0  0  0  0  0  0  # atno 17320 bound_to 7965
  144.7355  140.4797  143.6906 LP  0  0  0  0  0  0  0  0  0  0  0  0  # atno 17321 bound_to 7965
  139.8492  143.7461  152.3178 LP  0  0  0  0  0  0  0  0  0  0  0  0  # atno 17342 bound_to 10162
  139.7637  144.7498  151.0326 LP  0  0  0  0  0  0  0  0  0  0  0  0  # atno 17343 bound_to 10162
  155.9678  130.4250  150.4634 LP  0  0  0  0  0  0  0  0  0  0  0  0  # atno 17370 bound_to 10713
  157.2633  131.0571  151.2306 LP  0  0  0  0  0  0  0  0  0  0  0  0  # atno 17371 bound_to 10713
  139.9838  135.0089  156.9812 LP  0  0  0  0  0  0  0  0  0  0  0  0  # atno 17394 bound_to 11000
  140.5065  134.1045  155.7261 LP  0  0  0  0  0  0  0  0  0  0  0  0  # atno 17395 bound_to 11000

$$$$
