AV-unprocessed.smi:2451|AV-procd|sdf|9676|dock1
  -GOLD-   2272013313D 1   1.00000     0.00000
 Structure written by MMmdl.
 38 39  0  0  0  0  0  0  0  0  1 V2000
  153.0543  142.7295  162.9023 C   0  0  0  0  0  0  0  0  0  0  0  0
  152.4425  142.9773  161.5122 C   0  0  1  0  0  0  0  0  0  0  0  0
  152.1443  144.4796  161.3332 C   0  0  0  0  0  0  0  0  0  0  0  0
  151.5078  144.7815  159.9709 C   0  0  0  0  0  0  0  0  0  0  0  0
  152.3937  144.2826  158.8208 C   0  0  0  0  0  0  0  0  0  0  0  0
  152.7381  142.7865  158.9638 C   0  0  2  0  0  0  0  0  0  0  0  0
  151.5622  141.9494  158.6843 N   0  0  0  0  0  0  0  0  0  0  0  0
  151.7327  140.5204  157.7299 S   0  0  0  0  0  0  0  0  0  0  0  0
  153.0962  140.0092  157.9369 O   0  0  0  0  0  0  0  0  0  0  0  0
  150.5725  139.6546  157.9919 O   0  0  0  0  0  0  0  0  0  0  0  0
  151.5932  141.1761  156.0144 C   0  0  0  0  0  0  0  0  0  0  0  0
  151.5095  140.0323  155.0447 C   0  0  0  0  0  0  0  0  0  0  0  0
  152.5649  139.3987  154.3316 C   0  0  0  0  0  0  0  0  0  0  0  0
  151.9254  138.4365  153.6045 C   0  0  0  0  0  0  0  0  0  0  0  0
  150.5908  138.4656  153.8480 O   0  0  0  0  0  0  0  0  0  0  0  0
  150.3353  139.4861  154.7708 N   0  0  0  0  0  0  0  0  0  0  0  0
  153.3372  142.4546  160.3549 C   0  0  2  0  0  0  0  0  0  0  0  0
  153.6966  140.9596  160.4727 C   0  0  0  0  0  0  0  0  0  0  0  0
  154.0450  143.1772  162.9860 H   0  0  0  0  0  0  0  0  0  0  0  0
  153.1462  141.6657  163.1199 H   0  0  0  0  0  0  0  0  0  0  0  0
  152.4301  143.1588  163.6863 H   0  0  0  0  0  0  0  0  0  0  0  0
  151.4919  142.4431  161.4769 H   0  0  0  0  0  0  0  0  0  0  0  0
  151.4781  144.8246  162.1249 H   0  0  0  0  0  0  0  0  0  0  0  0
  153.0663  145.0537  161.4370 H   0  0  0  0  0  0  0  0  0  0  0  0
  150.5256  144.3112  159.9112 H   0  0  0  0  0  0  0  0  0  0  0  0
  151.3406  145.8542  159.8695 H   0  0  0  0  0  0  0  0  0  0  0  0
  151.9172  144.4858  157.8616 H   0  0  0  0  0  0  0  0  0  0  0  0
  153.3204  144.8578  158.8179 H   0  0  0  0  0  0  0  0  0  0  0  0
  153.4945  142.5464  158.2158 H   0  0  0  0  0  0  0  0  0  0  0  0
  150.7814  142.5167  158.3552 H   0  0  0  0  0  0  0  0  0  0  0  0
  150.7038  141.8032  155.9574 H   0  0  0  0  0  0  0  0  0  0  0  0
  152.4595  141.8076  155.8155 H   0  0  0  0  0  0  0  0  0  0  0  0
  153.6219  139.6194  154.3474 H   0  0  0  0  0  0  0  0  0  0  0  0
  152.2641  137.6882  152.9033 H   0  0  0  0  0  0  0  0  0  0  0  0
  154.2811  142.9985  160.4170 H   0  0  0  0  0  0  0  0  0  0  0  0
  152.8052  140.3366  160.5495 H   0  0  0  0  0  0  0  0  0  0  0  0
  154.3159  140.7624  161.3473 H   0  0  0  0  0  0  0  0  0  0  0  0
  154.2621  140.6236  159.6030 H   0  0  0  0  0  0  0  0  0  0  0  0
  1  2  1  0  0  0  0
  1 19  1  0  0  0  0
  1 20  1  0  0  0  0
  1 21  1  0  0  0  0
  2 17  1  0  0  0  0
  2  3  1  0  0  0  0
  2 22  1  0  0  0  0
  3  4  1  0  0  0  0
  3 23  1  0  0  0  0
  3 24  1  0  0  0  0
  4  5  1  0  0  0  0
  4 25  1  0  0  0  0
  4 26  1  0  0  0  0
  5  6  1  0  0  0  0
  5 27  1  0  0  0  0
  5 28  1  0  0  0  0
  6  7  1  0  0  0  0
  6 17  1  0  0  0  0
  6 29  1  0  0  0  0
  7  8  1  0  0  0  0
  7 30  1  0  0  0  0
  8  9  2  0  0  0  0
  8 10  2  0  0  0  0
  8 11  1  0  0  0  0
 11 12  1  0  0  0  0
 11 31  1  0  0  0  0
 11 32  1  0  0  0  0
 12 16  2  0  0  0  0
 12 13  1  0  0  0  0
 13 14  2  0  0  0  0
 13 33  1  0  0  0  0
 14 15  1  0  0  0  0
 14 34  1  0  0  0  0
 15 16  1  0  0  0  0
 17 18  1  0  0  0  0
 17 35  1  0  0  0  0
 18 36  1  0  0  0  0
 18 37  1  0  0  0  0
 18 38  1  0  0  0  0
M  END
> <s_m_source_file>
AV-unprocessed.smi

> <i_m_source_file_index>
2451

> <i_lp_mmshare_version>
43012

> <i_f3d_flags>
0

> <s_epik_input>
W0NIM11bQ0BASF0xW0NIMl1bQ0gyXVtDSDJdW0NASF0oW0NASF0xW0NIM10pW05IXVMoPU8pKD1PKVtDSDJdYzJbY0hdW2NIXW9uMg==

> <s_epik_cmdline>
J2VwaWtfcHl0aG9uJywgJy1waCcsICc3LjAnLCAnLXRuJywgJzgnLCAnLW1hJywgJzIwMCcsICctbWV0YWxfYmluZGluZycsICctaW1hZScsICc8aW5maWxlLm1hZT4nLCAnLW9tYWUnLCAnPG91dGZpbGUubWFlPic=

> <r_lp_tautomer_probability>
1

> <r_epik_Ionization_Penalty>
8.73668e-05

> <r_epik_Ionization_Penalty_Charging>
0

> <r_epik_Ionization_Penalty_Neutral>
8.73668e-05

> <r_epik_State_Penalty>
-0

> <r_epik_Charging_Adjusted_Penalty>
0

> <i_epik_Tot_Q>
0

> <i_epik_Tot_abs_Q>
0

> <r_epik_Metal_State_Penalty>
0.0716439

> <b_epik_Metal_Only>
0

> <s_lp_Force_Field>
OPLS_2005

> <r_lp_Energy>
8.50206

> <b_lp_Chiralities_Consistent>
1

> <s_lp_Variant>
AV-unprocessed.smi:2451-8

> <Gold.Version>
5.8.1

> <Gold.Id.Protein>
6NUR|6NUR_protein|mol2

> <Gold.PLP.Fitness>
49.9727

> <Gold.PLP.PLP>
-46.9146

> <Gold.PLP.part.hbond>
-1.0000

> <Gold.PLP.part.metal>
0.0000

> <Gold.PLP.part.buried>
-5.4385

> <Gold.PLP.part.nonpolar>
-40.4714

> <Gold.PLP.part.repulsive>
0.2915

> <Gold.PLP.ligand.clash>
0.0000

> <Gold.PLP.ligand.torsion>
1.5537

> <Gold.PLP.Chemscore.Hbond>
1.0000

> <Gold.PLP.Chemscore.CHOScore>
1.0000

> <Gold.PLP.Chemscore.Metal>
0.0000

> <Gold.Chemscore.Hbonds>
donor molecule, donor type, donor heavy atom, donor atom, acceptor molecule, acceptor atom, score
      P1  H  7997  8010       L1     9  1.00
      L1  C    14    34       P1  7949  1.00

> <Gold.PLP.Chemscore.Internal.Correction>
0.1654

> <Gold.Rescore>
     Score         DG    S(hbond)    S(metal)    S(lipo)     H(rot)  DE(clash)    DE(int)     intcor
     15.89     -19.13       0.98        0.00     124.91       1.66       0.38       2.86       ----

> <Gold.Chemscore.Fitness>
15.8876

> <Gold.Chemscore.DG>
-19.1305

> <Gold.Chemscore.ZeroCoef>
-5.4800

> <Gold.Chemscore.Hbond>
0.9830

> <Gold.Chemscore.Metal>
0.0000

> <Gold.Chemscore.Lipo>
124.9050

> <Gold.Chemscore.Internal_Hbond>
0.0000

> <Gold.Chemscore.DEClash>
0.3820

> <Gold.Chemscore.DEInternal>
2.8609

> <Gold.Chemscore.Rot>
1.6588

> <Gold.Chemscore.Internal.Correction>
   9.000000E+99

> <Gold.Chemscore.Hbonds>
donor molecule, donor type, donor heavy atom, donor atom, acceptor molecule, acceptor atom, score
      P1  H  7997  8010       L1     9  0.95

> <Gold.Chemscore.Hbond.Weighted>
-3.2832

> <Gold.Chemscore.Metal.Weighted>
-0.0000

> <Gold.Chemscore.Lipo.Weighted>
-14.6139

> <Gold.Chemscore.Internal_Hbond.Weighted>
0.0000

> <Gold.Chemscore.DEClash.Weighted>
0.3820

> <Gold.Chemscore.DEInternal.Weighted>
2.8609

> <Gold.Chemscore.Rot.Weighted>
4.2466

> <Gold.Chemscore.Internal.Correction.Weighted>
   9.000000E+99

> <Gold.Protein.RotatedTorsions>
[ 6907 6896 6895 6894 ] final   36.97 input  -60.11 | X-H torsion
[ 7974 7965 7964 7962 ] final  -85.30 input  175.53 | X-H torsion
[ 8008 7997 7996 7995 ] final   32.14 input   59.86 | X-H torsion
[ 10167 10162 10161 10158 ] final   60.74 input  -65.29 | X-H torsion
[ 10718 10713 10712 10709 ] final  -71.46 input   66.30 | X-H torsion
[ 10763 10752 10751 10750 ] final  -95.87 input  -60.55 | X-H torsion
[ 11005 11000 10999 10996 ] final  -98.52 input  -57.11 | X-H torsion

> <Gold.Protein.ActiveResidues>
 VAL166  LYS551  ARG553  GLY616  TRP617  ASP618  TYR619  PRO620  LYS621  CYS622 
 ASP623  PHE694  ASN695  SER759  ASP760  ASP761  ALA762  ILE779  LEU786  VAL792 
 PHE793  MET794  SER795  GLU796  ALA797  LYS798  CYS799  TRP800  GLU811  SER814 

> <Gold.Protein.RotatedAtoms>
  152.1369  134.9092  160.0555 H   0  0  0  0  0  0  0  0  0  0  0  0  # atno 6907 bound_to 6896
  152.0175  133.3880  159.4253 H   0  0  0  0  0  0  0  0  0  0  0  0  # atno 6908 bound_to 6896
  150.6861  134.3584  159.4983 H   0  0  0  0  0  0  0  0  0  0  0  0  # atno 6909 bound_to 6896
  145.4951  140.9550  143.1790 H   0  0  0  0  0  0  0  0  0  0  0  0  # atno 7974 bound_to 7965
  155.1177  140.3245  155.4505 H   0  0  0  0  0  0  0  0  0  0  0  0  # atno 8008 bound_to 7997
  156.2672  140.2033  156.6248 H   0  0  0  0  0  0  0  0  0  0  0  0  # atno 8009 bound_to 7997
  154.6707  140.0537  157.0149 H   0  0  0  0  0  0  0  0  0  0  0  0  # atno 8010 bound_to 7997
  140.1623  144.4358  150.6703 H   0  0  0  0  0  0  0  0  0  0  0  0  # atno 10167 bound_to 10162
  156.0362  130.4352  150.2448 H   0  0  0  0  0  0  0  0  0  0  0  0  # atno 10718 bound_to 10713
  154.7188  135.5104  153.8779 H   0  0  0  0  0  0  0  0  0  0  0  0  # atno 10763 bound_to 10752
  153.0844  135.6641  153.9988 H   0  0  0  0  0  0  0  0  0  0  0  0  # atno 10764 bound_to 10752
  153.9815  135.3028  155.3399 H   0  0  0  0  0  0  0  0  0  0  0  0  # atno 10765 bound_to 10752
  141.1341  133.8252  157.0851 H   0  0  0  0  0  0  0  0  0  0  0  0  # atno 11005 bound_to 11000
  144.7811  139.6523  143.7154 LP  0  0  0  0  0  0  0  0  0  0  0  0  # atno 17320 bound_to 7965
  146.2260  139.5724  142.9587 LP  0  0  0  0  0  0  0  0  0  0  0  0  # atno 17321 bound_to 7965
  140.6635  143.2260  151.5799 LP  0  0  0  0  0  0  0  0  0  0  0  0  # atno 17342 bound_to 10162
  139.5375  144.2739  152.1283 LP  0  0  0  0  0  0  0  0  0  0  0  0  # atno 17343 bound_to 10162
  157.0547  131.0073  151.3242 LP  0  0  0  0  0  0  0  0  0  0  0  0  # atno 17370 bound_to 10713
  157.5115  130.7941  149.7710 LP  0  0  0  0  0  0  0  0  0  0  0  0  # atno 17371 bound_to 10713
  140.0427  134.9846  157.0992 LP  0  0  0  0  0  0  0  0  0  0  0  0  # atno 17394 bound_to 11000
  140.4110  134.1981  155.7163 LP  0  0  0  0  0  0  0  0  0  0  0  0  # atno 17395 bound_to 11000

$$$$
