AV-unprocessed.smi:1809|AV-procd|sdf|7331|dock5
  -GOLD-   22720 8583D 1   1.00000     0.00000
 Structure written by MMmdl.
 38 40  0  0  0  0  0  0  0  0  2 V2000
  145.5730  133.1250  162.1759 C   0  0  0  0  0  0  0  0  0  0  0  0
  146.5310  133.5752  161.1267 C   0  0  0  0  0  0  0  0  0  0  0  0
  146.8678  132.8156  160.0814 N   0  0  0  0  0  0  0  0  0  0  0  0
  147.7723  133.4514  159.2434 N   0  0  0  0  0  0  0  0  0  0  0  0
  148.0963  134.6847  159.6577 C   0  0  0  0  0  0  0  0  0  0  0  0
  148.9596  135.4660  158.9878 N   0  5  0  0  0  0  0  0  0  0  0  0
  149.0308  136.7880  159.2649 C   0  0  0  0  0  0  0  0  0  0  0  0
  148.2188  137.4420  159.9234 O   0  0  0  0  0  0  0  0  0  0  0  0
  150.1098  137.3910  158.7494 N   0  0  0  0  0  0  0  0  0  0  0  0
  150.4276  138.8056  158.8922 C   0  0  0  0  0  0  0  0  0  0  0  0
  151.5920  139.2010  157.9638 C   0  0  2  0  0  0  0  0  0  0  0  0
  152.6876  140.0167  158.6910 C   0  0  0  0  0  0  0  0  0  0  0  0
  152.2454  141.3795  158.9217 N   0  0  0  0  0  0  0  0  0  0  0  0
  153.2050  142.2845  159.5100 C   0  0  0  0  0  0  0  0  0  0  0  0
  152.6178  143.6826  159.2495 C   0  0  0  0  0  0  0  0  0  0  0  0
  151.6294  143.4735  158.0810 C   0  0  0  0  0  0  0  0  0  0  0  0
  151.8712  142.0149  157.6878 C   0  0  2  0  0  0  0  0  0  0  0  0
  150.7143  141.2623  157.0172 C   0  0  0  0  0  0  0  0  0  0  0  0
  151.1248  139.9083  156.8031 O   0  0  0  0  0  0  0  0  0  0  0  0
  147.3034  135.1512  161.1624 S   0  0  0  0  0  0  0  0  0  0  0  0
  144.5494  133.3011  161.8449 H   0  0  0  0  0  0  0  0  0  0  0  0
  145.7416  133.6746  163.1020 H   0  0  0  0  0  0  0  0  0  0  0  0
  145.7008  132.0605  162.3749 H   0  0  0  0  0  0  0  0  0  0  0  0
  150.7516  136.8273  158.2117 H   0  0  0  0  0  0  0  0  0  0  0  0
  149.5386  139.4024  158.6854 H   0  0  0  0  0  0  0  0  0  0  0  0
  150.7040  139.0022  159.9289 H   0  0  0  0  0  0  0  0  0  0  0  0
  152.0492  138.2783  157.6049 H   0  0  0  0  0  0  0  0  0  0  0  0
  152.9545  139.5415  159.6354 H   0  0  0  0  0  0  0  0  0  0  0  0
  153.5913  140.0253  158.0800 H   0  0  0  0  0  0  0  0  0  0  0  0
  153.3530  142.0809  160.5708 H   0  0  0  0  0  0  0  0  0  0  0  0
  154.1694  142.1888  159.0084 H   0  0  0  0  0  0  0  0  0  0  0  0
  152.0912  144.0550  160.1290 H   0  0  0  0  0  0  0  0  0  0  0  0
  153.4023  144.3976  158.9997 H   0  0  0  0  0  0  0  0  0  0  0  0
  150.6043  143.6158  158.4259 H   0  0  0  0  0  0  0  0  0  0  0  0
  151.8068  144.1577  157.2510 H   0  0  0  0  0  0  0  0  0  0  0  0
  152.7258  141.9933  157.0080 H   0  0  0  0  0  0  0  0  0  0  0  0
  149.8125  141.2948  157.6294 H   0  0  0  0  0  0  0  0  0  0  0  0
  150.4659  141.7164  156.0579 H   0  0  0  0  0  0  0  0  0  0  0  0
  1  2  1  0  0  0  0
  1 21  1  0  0  0  0
  1 22  1  0  0  0  0
  1 23  1  0  0  0  0
  2 20  1  0  0  0  0
  2  3  2  0  0  0  0
  3  4  1  0  0  0  0
  4  5  2  0  0  0  0
  5  6  1  0  0  0  0
  5 20  1  0  0  0  0
  6  7  1  0  0  0  0
  7  8  2  0  0  0  0
  7  9  1  0  0  0  0
  9 10  1  0  0  0  0
  9 24  1  0  0  0  0
 10 11  1  0  0  0  0
 10 25  1  0  0  0  0
 10 26  1  0  0  0  0
 11 19  1  0  0  0  0
 11 12  1  0  0  0  0
 11 27  1  0  0  0  0
 12 13  1  0  0  0  0
 12 28  1  0  0  0  0
 12 29  1  0  0  0  0
 13 17  1  0  0  0  0
 13 14  1  0  0  0  0
 14 15  1  0  0  0  0
 14 30  1  0  0  0  0
 14 31  1  0  0  0  0
 15 16  1  0  0  0  0
 15 32  1  0  0  0  0
 15 33  1  0  0  0  0
 16 17  1  0  0  0  0
 16 34  1  0  0  0  0
 16 35  1  0  0  0  0
 17 18  1  0  0  0  0
 17 36  1  0  0  0  0
 18 19  1  0  0  0  0
 18 37  1  0  0  0  0
 18 38  1  0  0  0  0
M  CHG  1   6  -1
M  END
> <s_m_source_file>
AV-unprocessed.smi

> <i_m_source_file_index>
1809

> <i_lp_mmshare_version>
43012

> <i_f3d_flags>
0

> <s_epik_input>
W0NIM11jMW5uYyhzMSlbTkhdQyg9TylbTkhdW0NIMl1bQ0BIXShbQ0gyXTIpT1tDSDJdW0NAQEhdKE4yMylbQ0gyXVtDSDJdW0NIMl0z

> <s_epik_cmdline>
J2VwaWtfcHl0aG9uJywgJy1waCcsICc3LjAnLCAnLXRuJywgJzgnLCAnLW1hJywgJzIwMCcsICctbWV0YWxfYmluZGluZycsICctaW1hZScsICc8aW5maWxlLm1hZT4nLCAnLW9tYWUnLCAnPG91dGZpbGUubWFlPic=

> <r_lp_tautomer_probability>
1

> <r_epik_Ionization_Penalty>
4.48809

> <r_epik_Ionization_Penalty_Charging>
3.27284

> <r_epik_Ionization_Penalty_Neutral>
1.21525

> <r_epik_State_Penalty>
4.69427

> <r_epik_Charging_Adjusted_Penalty>
7.96711

> <i_epik_Tot_Q>
-1

> <i_epik_Tot_abs_Q>
1

> <r_epik_Metal_State_Penalty>
1.91976

> <b_epik_Metal_Only>
1

> <s_lp_Force_Field>
OPLS_2005

> <r_lp_Energy>
48.824

> <b_lp_Chiralities_Consistent>
1

> <s_lp_Variant>
AV-unprocessed.smi:1809-23

> <Gold.Version>
5.8.1

> <Gold.Id.Protein>
6NUR|6NUR_protein|mol2

> <Gold.PLP.Fitness>
36.5291

> <Gold.PLP.PLP>
-29.3104

> <Gold.PLP.part.hbond>
-3.0000

> <Gold.PLP.part.metal>
0.0000

> <Gold.PLP.part.buried>
-3.0756

> <Gold.PLP.part.nonpolar>
-24.1520

> <Gold.PLP.part.repulsive>
0.1794

> <Gold.PLP.ligand.clash>
0.0000

> <Gold.PLP.ligand.torsion>
0.7913

> <Gold.PLP.Chemscore.Hbond>
2.9282

> <Gold.PLP.Chemscore.CHOScore>
0.0000

> <Gold.PLP.Chemscore.Metal>
0.0000

> <Gold.Chemscore.Hbonds>
donor molecule, donor type, donor heavy atom, donor atom, acceptor molecule, acceptor atom, score
      P1  H  6896  6909       L1     6  2.00
      P1  H  6931  6943       L1     8  0.19
      P1  H  6934  6947       L1     8  0.43

> <Gold.PLP.Chemscore.Internal.Correction>
0.0167

> <Gold.Rescore>
     Score         DG    S(hbond)    S(metal)    S(lipo)     H(rot)  DE(clash)    DE(int)     intcor
     13.61     -15.92       1.04        0.00      88.00       1.31       0.11       2.20       ----

> <Gold.Chemscore.Fitness>
13.6124

> <Gold.Chemscore.DG>
-15.9233

> <Gold.Chemscore.ZeroCoef>
-5.4800

> <Gold.Chemscore.Hbond>
1.0444

> <Gold.Chemscore.Metal>
0.0000

> <Gold.Chemscore.Lipo>
88.0004

> <Gold.Chemscore.Internal_Hbond>
0.0000

> <Gold.Chemscore.DEClash>
0.1133

> <Gold.Chemscore.DEInternal>
2.1976

> <Gold.Chemscore.Rot>
1.3051

> <Gold.Chemscore.Internal.Correction>
   9.000000E+99

> <Gold.Chemscore.Hbonds>
donor molecule, donor type, donor heavy atom, donor atom, acceptor molecule, acceptor atom, score
      P1  H  6896  6909       L1     6  0.13
      P1  H  6931  6943       L1     8  0.17
      P1  H  6934  6947       L1     8  0.42

> <Gold.Chemscore.Hbond.Weighted>
-3.4885

> <Gold.Chemscore.Metal.Weighted>
-0.0000

> <Gold.Chemscore.Lipo.Weighted>
-10.2960

> <Gold.Chemscore.Internal_Hbond.Weighted>
0.0000

> <Gold.Chemscore.DEClash.Weighted>
0.1133

> <Gold.Chemscore.DEInternal.Weighted>
2.1976

> <Gold.Chemscore.Rot.Weighted>
3.3412

> <Gold.Chemscore.Internal.Correction.Weighted>
   9.000000E+99

> <Gold.Protein.RotatedTorsions>
[ 6907 6896 6895 6894 ] final   57.70 input  -60.11 | X-H torsion
[ 7974 7965 7964 7962 ] final  145.60 input  175.53 | X-H torsion
[ 8008 7997 7996 7995 ] final -105.85 input   59.86 | X-H torsion
[ 10167 10162 10161 10158 ] final -169.31 input  -65.29 | X-H torsion
[ 10718 10713 10712 10709 ] final    4.69 input   66.30 | X-H torsion
[ 10763 10752 10751 10750 ] final   72.01 input  -60.55 | X-H torsion
[ 11005 11000 10999 10996 ] final    1.58 input  -57.11 | X-H torsion

> <Gold.Protein.ActiveResidues>
 VAL166  LYS551  ARG553  GLY616  TRP617  ASP618  TYR619  PRO620  LYS621  CYS622 
 ASP623  PHE694  ASN695  SER759  ASP760  ASP761  ALA762  ILE779  LEU786  VAL792 
 PHE793  MET794  SER795  GLU796  ALA797  LYS798  CYS799  TRP800  GLU811  SER814 

> <Gold.Protein.RotatedAtoms>
  152.3756  134.6668  160.0160 H   0  0  0  0  0  0  0  0  0  0  0  0  # atno 6907 bound_to 6896
  151.6948  133.3305  159.3260 H   0  0  0  0  0  0  0  0  0  0  0  0  # atno 6908 bound_to 6896
  150.7707  134.6603  159.6380 H   0  0  0  0  0  0  0  0  0  0  0  0  # atno 6909 bound_to 6896
  144.8739  139.5803  143.5874 H   0  0  0  0  0  0  0  0  0  0  0  0  # atno 7974 bound_to 7965
  154.9060  140.0411  157.1919 H   0  0  0  0  0  0  0  0  0  0  0  0  # atno 8008 bound_to 7997
  154.8396  140.2912  155.5647 H   0  0  0  0  0  0  0  0  0  0  0  0  # atno 8009 bound_to 7997
  156.2991  140.2485  156.3336 H   0  0  0  0  0  0  0  0  0  0  0  0  # atno 8010 bound_to 7997
  139.5930  144.1171  152.1657 H   0  0  0  0  0  0  0  0  0  0  0  0  # atno 10167 bound_to 10162
  156.8963  130.5705  149.5649 H   0  0  0  0  0  0  0  0  0  0  0  0  # atno 10718 bound_to 10713
  153.0433  135.5116  154.7679 H   0  0  0  0  0  0  0  0  0  0  0  0  # atno 10763 bound_to 10752
  154.6599  135.2937  154.9882 H   0  0  0  0  0  0  0  0  0  0  0  0  # atno 10764 bound_to 10752
  154.0736  135.6674  153.4880 H   0  0  0  0  0  0  0  0  0  0  0  0  # atno 10765 bound_to 10752
  140.6139  133.9723  155.8190 H   0  0  0  0  0  0  0  0  0  0  0  0  # atno 11005 bound_to 11000
  146.2949  139.7249  142.9134 LP  0  0  0  0  0  0  0  0  0  0  0  0  # atno 17320 bound_to 7965
  145.4079  141.0393  143.3034 LP  0  0  0  0  0  0  0  0  0  0  0  0  # atno 17321 bound_to 7965
  140.0750  144.5748  150.7164 LP  0  0  0  0  0  0  0  0  0  0  0  0  # atno 17342 bound_to 10162
  140.7189  143.2570  151.4343 LP  0  0  0  0  0  0  0  0  0  0  0  0  # atno 17343 bound_to 10162
  156.0604  130.5658  150.9180 LP  0  0  0  0  0  0  0  0  0  0  0  0  # atno 17370 bound_to 10713
  157.6053  131.0939  150.8889 LP  0  0  0  0  0  0  0  0  0  0  0  0  # atno 17371 bound_to 10713
  141.0789  134.0092  157.3415 LP  0  0  0  0  0  0  0  0  0  0  0  0  # atno 17394 bound_to 11000
  139.9181  135.0198  156.7959 LP  0  0  0  0  0  0  0  0  0  0  0  0  # atno 17395 bound_to 11000

$$$$
