AV-unprocessed.smi:1107|AV-procd|sdf|4785|dock5
  -GOLD-   22720 3333D 1   1.00000     0.00000
 Structure written by MMmdl.
 48 49  0  0  0  0  0  0  0  0  3 V2000
  146.7498  136.7088  163.1786 C   0  0  0  0  0  0  0  0  0  0  0  0
  147.3406  136.4203  161.8150 C   0  0  0  0  0  0  0  0  0  0  0  0
  147.5494  135.2070  161.4708 N   0  0  0  0  0  0  0  0  0  0  0  0
  148.1076  134.9305  160.2113 C   0  0  0  0  0  0  0  0  0  0  0  0
  148.3603  133.4646  159.9063 C   0  0  0  0  0  0  0  0  0  0  0  0
  148.4123  135.9351  159.3404 C   0  0  0  0  0  0  0  0  0  0  0  0
  149.0844  135.7097  157.9850 C   0  0  0  0  0  0  0  0  0  0  0  0
  148.1271  135.3378  156.8504 C   0  0  0  0  0  0  0  0  0  0  0  0
  147.3446  134.3983  156.9863 O   0  0  0  0  0  0  0  0  0  0  0  0
  148.1721  136.1158  155.7570 N   0  0  0  0  0  0  0  0  0  0  0  0
  147.2229  136.1084  154.6485 C   0  0  2  0  0  0  0  0  0  0  0  0
  145.8491  136.5719  155.1505 C   0  0  0  0  0  0  0  0  0  0  0  0
  147.1562  134.6975  154.0204 C   0  0  0  0  0  0  0  0  0  0  0  0
  146.6031  134.6835  152.6390 N   0  3  0  0  0  0  0  0  0  0  0  0
  146.7513  133.3535  151.9911 C   0  0  0  0  0  0  0  0  0  0  0  0
  146.2668  133.3746  150.5310 C   0  0  0  0  0  0  0  0  0  0  0  0
  144.8249  133.8860  150.4302 C   0  0  0  0  0  0  0  0  0  0  0  0
  144.7068  135.2521  151.1165 C   0  0  0  0  0  0  0  0  0  0  0  0
  145.2027  135.1798  152.5693 C   0  0  0  0  0  0  0  0  0  0  0  0
  148.1487  137.3184  159.7720 C   0  0  0  0  0  0  0  0  0  0  0  0
  148.4146  138.2597  159.0262 O   0  0  0  0  0  0  0  0  0  0  0  0
  147.6295  137.5049  161.0178 N   0  5  0  0  0  0  0  0  0  0  0  0
  146.1746  135.8561  163.5417 H   0  0  0  0  0  0  0  0  0  0  0  0
  146.0851  137.5726  163.1381 H   0  0  0  0  0  0  0  0  0  0  0  0
  147.5453  136.9176  163.8943 H   0  0  0  0  0  0  0  0  0  0  0  0
  149.4075  133.2964  159.6543 H   0  0  0  0  0  0  0  0  0  0  0  0
  147.7443  133.1399  159.0675 H   0  0  0  0  0  0  0  0  0  0  0  0
  148.1181  132.8350  160.7633 H   0  0  0  0  0  0  0  0  0  0  0  0
  149.6310  136.6017  157.6816 H   0  0  0  0  0  0  0  0  0  0  0  0
  149.8451  134.9335  158.0832 H   0  0  0  0  0  0  0  0  0  0  0  0
  148.8707  136.8455  155.7428 H   0  0  0  0  0  0  0  0  0  0  0  0
  147.5364  136.8200  153.8839 H   0  0  0  0  0  0  0  0  0  0  0  0
  145.1206  136.5886  154.3392 H   0  0  0  0  0  0  0  0  0  0  0  0
  145.9025  137.5793  155.5647 H   0  0  0  0  0  0  0  0  0  0  0  0
  145.4651  135.9120  155.9291 H   0  0  0  0  0  0  0  0  0  0  0  0
  148.1710  134.2973  153.9899 H   0  0  0  0  0  0  0  0  0  0  0  0
  146.5825  134.0203  154.6548 H   0  0  0  0  0  0  0  0  0  0  0  0
  147.7990  133.0511  152.0120 H   0  0  0  0  0  0  0  0  0  0  0  0
  146.1929  132.6087  152.5601 H   0  0  0  0  0  0  0  0  0  0  0  0
  146.9204  134.0103  149.9350 H   0  0  0  0  0  0  0  0  0  0  0  0
  146.3389  132.3753  150.1008 H   0  0  0  0  0  0  0  0  0  0  0  0
  144.5244  133.9613  149.3849 H   0  0  0  0  0  0  0  0  0  0  0  0
  144.1458  133.1747  150.9020 H   0  0  0  0  0  0  0  0  0  0  0  0
  145.2883  135.9931  150.5667 H   0  0  0  0  0  0  0  0  0  0  0  0
  143.6714  135.5926  151.0926 H   0  0  0  0  0  0  0  0  0  0  0  0
  144.5540  134.5256  153.1537 H   0  0  0  0  0  0  0  0  0  0  0  0
  145.1307  136.1723  153.0122 H   0  0  0  0  0  0  0  0  0  0  0  0
  147.1676  135.3226  152.0963 H   0  0  0  0  0  0  0  0  0  0  0  0
  1  2  1  0  0  0  0
  1 23  1  0  0  0  0
  1 24  1  0  0  0  0
  1 25  1  0  0  0  0
  2 22  1  0  0  0  0
  2  3  2  0  0  0  0
  3  4  1  0  0  0  0
  4  5  1  0  0  0  0
  4  6  2  0  0  0  0
  5 26  1  0  0  0  0
  5 27  1  0  0  0  0
  5 28  1  0  0  0  0
  6  7  1  0  0  0  0
  6 20  1  0  0  0  0
  7  8  1  0  0  0  0
  7 29  1  0  0  0  0
  7 30  1  0  0  0  0
  8  9  2  0  0  0  0
  8 10  1  0  0  0  0
 10 11  1  0  0  0  0
 10 31  1  0  0  0  0
 11 12  1  0  0  0  0
 11 13  1  0  0  0  0
 11 32  1  0  0  0  0
 12 33  1  0  0  0  0
 12 34  1  0  0  0  0
 12 35  1  0  0  0  0
 13 14  1  0  0  0  0
 13 36  1  0  0  0  0
 13 37  1  0  0  0  0
 14 19  1  0  0  0  0
 14 15  1  0  0  0  0
 14 48  1  0  0  0  0
 15 16  1  0  0  0  0
 15 38  1  0  0  0  0
 15 39  1  0  0  0  0
 16 17  1  0  0  0  0
 16 40  1  0  0  0  0
 16 41  1  0  0  0  0
 17 18  1  0  0  0  0
 17 42  1  0  0  0  0
 17 43  1  0  0  0  0
 18 19  1  0  0  0  0
 18 44  1  0  0  0  0
 18 45  1  0  0  0  0
 19 46  1  0  0  0  0
 19 47  1  0  0  0  0
 20 21  2  0  0  0  0
 20 22  1  0  0  0  0
M  CHG  1  14   1
M  CHG  1  22  -1
M  END
> <s_m_source_file>
AV-unprocessed.smi

> <i_m_source_file_index>
1107

> <i_lp_mmshare_version>
43012

> <i_f3d_flags>
0

> <s_epik_input>
W0NIM11jMW5jKFtDSDNdKWMoYyg9TylbbkhdMSlbQ0gyXUMoPU8pW05IXVtDQEhdKFtDSDNdKVtDSDJdTjJbQ0gyXVtDSDJdW0NIMl1bQ0gyXVtDSDJdMg==

> <s_epik_cmdline>
J2VwaWtfcHl0aG9uJywgJy1waCcsICc3LjAnLCAnLXRuJywgJzgnLCAnLW1hJywgJzIwMCcsICctbWV0YWxfYmluZGluZycsICctaW1hZScsICc8aW5maWxlLm1hZT4nLCAnLW9tYWUnLCAnPG91dGZpbGUubWFlPic=

> <r_lp_tautomer_probability>
0.839158

> <r_epik_Ionization_Penalty>
6.34615

> <r_epik_Ionization_Penalty_Charging>
0.00266072

> <r_epik_Ionization_Penalty_Neutral>
6.34348

> <r_epik_State_Penalty>
4.30851

> <r_epik_Charging_Adjusted_Penalty>
4.31117

> <i_epik_Tot_Q>
0

> <i_epik_Tot_abs_Q>
2

> <r_epik_Metal_State_Penalty>
0.75957

> <b_epik_Metal_Only>
1

> <s_lp_Force_Field>
OPLS_2005

> <r_lp_Energy>
18.3813

> <b_lp_Chiralities_Consistent>
1

> <s_lp_Variant>
AV-unprocessed.smi:1107-5

> <Gold.Version>
5.8.1

> <Gold.Id.Protein>
6NUR|6NUR_protein|mol2

> <Gold.PLP.Fitness>
42.4885

> <Gold.PLP.PLP>
-26.5322

> <Gold.PLP.part.hbond>
-4.0487

> <Gold.PLP.part.metal>
0.0000

> <Gold.PLP.part.buried>
-2.9186

> <Gold.PLP.part.nonpolar>
-19.8802

> <Gold.PLP.part.repulsive>
0.0000

> <Gold.PLP.ligand.clash>
0.0000

> <Gold.PLP.ligand.torsion>
0.5590

> <Gold.PLP.Chemscore.Hbond>
5.6800

> <Gold.PLP.Chemscore.CHOScore>
0.0000

> <Gold.PLP.Chemscore.Metal>
0.0000

> <Gold.Chemscore.Hbonds>
donor molecule, donor type, donor heavy atom, donor atom, acceptor molecule, acceptor atom, score
      L1  H    14    48       P1  7948  1.92
      P1  H  6931  6943       L1    22  1.44
      P1  H  6934  6947       L1    22  1.76

> <Gold.PLP.Chemscore.Internal.Correction>
0.0343

> <Gold.Rescore>
     Score         DG    S(hbond)    S(metal)    S(lipo)     H(rot)  DE(clash)    DE(int)     intcor
     11.92     -14.79       2.21        0.00      58.67       1.92       1.11       1.76       ----

> <Gold.Chemscore.Fitness>
11.9210

> <Gold.Chemscore.DG>
-14.7916

> <Gold.Chemscore.ZeroCoef>
-5.4800

> <Gold.Chemscore.Hbond>
2.2069

> <Gold.Chemscore.Metal>
0.0000

> <Gold.Chemscore.Lipo>
58.6701

> <Gold.Chemscore.Internal_Hbond>
0.0000

> <Gold.Chemscore.DEClash>
1.1131

> <Gold.Chemscore.DEInternal>
1.7576

> <Gold.Chemscore.Rot>
1.9233

> <Gold.Chemscore.Internal.Correction>
   9.000000E+99

> <Gold.Chemscore.Hbonds>
donor molecule, donor type, donor heavy atom, donor atom, acceptor molecule, acceptor atom, score
      L1  H    14    48       P1  7948  0.90
      P1  H  6931  6943       L1    22  0.09
      P1  H  6934  6947       L1    22  0.25

> <Gold.Chemscore.Hbond.Weighted>
-7.3709

> <Gold.Chemscore.Metal.Weighted>
-0.0000

> <Gold.Chemscore.Lipo.Weighted>
-6.8644

> <Gold.Chemscore.Internal_Hbond.Weighted>
0.0000

> <Gold.Chemscore.DEClash.Weighted>
1.1131

> <Gold.Chemscore.DEInternal.Weighted>
1.7576

> <Gold.Chemscore.Rot.Weighted>
4.9237

> <Gold.Chemscore.Internal.Correction.Weighted>
   9.000000E+99

> <Gold.Protein.RotatedTorsions>
[ 6907 6896 6895 6894 ] final  -51.23 input  -60.11 | X-H torsion
[ 7974 7965 7964 7962 ] final   57.93 input  175.53 | X-H torsion
[ 8008 7997 7996 7995 ] final -101.73 input   59.86 | X-H torsion
[ 10167 10162 10161 10158 ] final  155.47 input  -65.29 | X-H torsion
[ 10718 10713 10712 10709 ] final  -84.86 input   66.30 | X-H torsion
[ 10763 10752 10751 10750 ] final  -23.96 input  -60.55 | X-H torsion
[ 11005 11000 10999 10996 ] final  171.02 input  -57.11 | X-H torsion

> <Gold.Protein.ActiveResidues>
 VAL166  LYS551  ARG553  GLY616  TRP617  ASP618  TYR619  PRO620  LYS621  CYS622 
 ASP623  PHE694  ASN695  SER759  ASP760  ASP761  ALA762  ILE779  LEU786  VAL792 
 PHE793  MET794  SER795  GLU796  ALA797  LYS798  CYS799  TRP800  GLU811  SER814 

> <Gold.Protein.RotatedAtoms>
  150.8631  134.7987  159.7097 H   0  0  0  0  0  0  0  0  0  0  0  0  # atno 6907 bound_to 6896
  152.4661  134.5068  159.9751 H   0  0  0  0  0  0  0  0  0  0  0  0  # atno 6908 bound_to 6896
  151.5169  133.3435  159.2930 H   0  0  0  0  0  0  0  0  0  0  0  0  # atno 6909 bound_to 6896
  145.9237  139.3750  143.0463 H   0  0  0  0  0  0  0  0  0  0  0  0  # atno 7974 bound_to 7965
  154.8466  140.0432  157.1577 H   0  0  0  0  0  0  0  0  0  0  0  0  # atno 8008 bound_to 7997
  154.8988  140.2997  155.5309 H   0  0  0  0  0  0  0  0  0  0  0  0  # atno 8009 bound_to 7997
  156.2994  140.2380  156.4013 H   0  0  0  0  0  0  0  0  0  0  0  0  # atno 8010 bound_to 7997
  139.4821  144.5095  151.8046 H   0  0  0  0  0  0  0  0  0  0  0  0  # atno 10167 bound_to 10162
  156.0002  130.4712  150.4474 H   0  0  0  0  0  0  0  0  0  0  0  0  # atno 10718 bound_to 10713
  153.6762  135.6969  153.5132 H   0  0  0  0  0  0  0  0  0  0  0  0  # atno 10763 bound_to 10752
  153.2519  135.4272  155.0806 H   0  0  0  0  0  0  0  0  0  0  0  0  # atno 10764 bound_to 10752
  154.8413  135.3533  154.6306 H   0  0  0  0  0  0  0  0  0  0  0  0  # atno 10765 bound_to 10752
  140.3145  134.7489  157.4017 H   0  0  0  0  0  0  0  0  0  0  0  0  # atno 11005 bound_to 11000
  145.8517  140.9525  143.0746 LP  0  0  0  0  0  0  0  0  0  0  0  0  # atno 17320 bound_to 7965
  144.6756  140.0416  143.7481 LP  0  0  0  0  0  0  0  0  0  0  0  0  # atno 17321 bound_to 7965
  140.4597  144.1740  150.5905 LP  0  0  0  0  0  0  0  0  0  0  0  0  # atno 17342 bound_to 10162
  140.4498  143.2491  151.9363 LP  0  0  0  0  0  0  0  0  0  0  0  0  # atno 17343 bound_to 10162
  157.2510  131.0546  151.2379 LP  0  0  0  0  0  0  0  0  0  0  0  0  # atno 17370 bound_to 10713
  157.3528  130.7091  149.6451 LP  0  0  0  0  0  0  0  0  0  0  0  0  # atno 17371 bound_to 10713
  140.0996  134.5491  155.8366 LP  0  0  0  0  0  0  0  0  0  0  0  0  # atno 17394 bound_to 11000
  141.2101  133.6691  156.6483 LP  0  0  0  0  0  0  0  0  0  0  0  0  # atno 17395 bound_to 11000

$$$$
