AV-unprocessed.smi:2163|AV-procd|sdf|8804|dock2
  -GOLD-   2272011583D 1   1.00000     0.00000
 Structure written by MMmdl.
 43 45  0  0  0  0  0  0  0  0  1 V2000
  150.9169  145.2612  159.9812 C   0  0  0  0  0  0  0  0  0  0  0  0
  151.7622  144.0704  160.3051 C   0  0  0  0  0  0  0  0  0  0  0  0
  152.3844  143.9385  161.4769 N   0  0  0  0  0  0  0  0  0  0  0  0
  153.0253  142.7216  161.3447 C   0  0  0  0  0  0  0  0  0  0  0  0
  153.8524  142.0154  162.2471 C   0  0  0  0  0  0  0  0  0  0  0  0
  154.4014  140.7676  161.8851 C   0  0  0  0  0  0  0  0  0  0  0  0
  154.1320  140.2089  160.6187 C   0  0  0  0  0  0  0  0  0  0  0  0
  153.3114  140.8966  159.7040 C   0  0  0  0  0  0  0  0  0  0  0  0
  152.7668  142.1419  160.0703 C   0  0  0  0  0  0  0  0  0  0  0  0
  151.9439  143.0572  159.4223 N   0  0  0  0  0  0  0  0  0  0  0  0
  151.4029  142.9200  158.0772 C   0  0  0  0  0  0  0  0  0  0  0  0
  150.3767  141.7748  157.9681 C   0  0  2  0  0  0  0  0  0  0  0  0
  150.6013  141.0372  156.7832 O   0  0  0  0  0  0  0  0  0  0  0  0
  148.9288  142.2861  157.9608 C   0  0  0  0  0  0  0  0  0  0  0  0
  148.6118  142.7729  159.2581 O   0  0  0  0  0  0  0  0  0  0  0  0
  147.4187  143.4393  159.4344 C   0  0  0  0  0  0  0  0  0  0  0  0
  146.3664  143.4581  158.4842 C   0  0  0  0  0  0  0  0  0  0  0  0
  145.1782  144.1663  158.7506 C   0  0  0  0  0  0  0  0  0  0  0  0
  145.0239  144.8633  159.9649 C   0  0  0  0  0  0  0  0  0  0  0  0
  143.7443  145.6200  160.2532 C   0  0  0  0  0  0  0  0  0  0  0  0
  143.0400  145.0827  161.4272 C   0  0  0  0  0  0  0  0  0  0  0  0
  142.4860  144.6598  162.3507 N   0  0  0  0  0  0  0  0  0  0  0  0
  146.0651  144.8483  160.9132 C   0  0  0  0  0  0  0  0  0  0  0  0
  147.2525  144.1405  160.6464 C   0  0  0  0  0  0  0  0  0  0  0  0
  150.9361  145.9793  160.8017 H   0  0  0  0  0  0  0  0  0  0  0  0
  149.8832  144.9560  159.8169 H   0  0  0  0  0  0  0  0  0  0  0  0
  151.2869  145.7567  159.0835 H   0  0  0  0  0  0  0  0  0  0  0  0
  154.0642  142.4344  163.2195 H   0  0  0  0  0  0  0  0  0  0  0  0
  155.0321  140.2364  162.5827 H   0  0  0  0  0  0  0  0  0  0  0  0
  154.5558  139.2524  160.3497 H   0  0  0  0  0  0  0  0  0  0  0  0
  153.1028  140.4728  158.7329 H   0  0  0  0  0  0  0  0  0  0  0  0
  150.9345  143.8677  157.8091 H   0  0  0  0  0  0  0  0  0  0  0  0
  152.2155  142.7745  157.3655 H   0  0  0  0  0  0  0  0  0  0  0  0
  150.5028  141.0889  158.8067 H   0  0  0  0  0  0  0  0  0  0  0  0
  151.4250  140.5814  156.8671 H   0  0  0  0  0  0  0  0  0  0  0  0
  148.8118  143.0716  157.2121 H   0  0  0  0  0  0  0  0  0  0  0  0
  148.2517  141.4693  157.7043 H   0  0  0  0  0  0  0  0  0  0  0  0
  146.4451  142.9354  157.5433 H   0  0  0  0  0  0  0  0  0  0  0  0
  144.3831  144.1709  158.0195 H   0  0  0  0  0  0  0  0  0  0  0  0
  143.9656  146.6721  160.4345 H   0  0  0  0  0  0  0  0  0  0  0  0
  143.0743  145.5690  159.3945 H   0  0  0  0  0  0  0  0  0  0  0  0
  145.9546  145.3781  161.8481 H   0  0  0  0  0  0  0  0  0  0  0  0
  148.0450  144.1358  161.3804 H   0  0  0  0  0  0  0  0  0  0  0  0
  1  2  1  0  0  0  0
  1 25  1  0  0  0  0
  1 26  1  0  0  0  0
  1 27  1  0  0  0  0
  2 10  1  0  0  0  0
  2  3  2  0  0  0  0
  3  4  1  0  0  0  0
  4  9  2  0  0  0  0
  4  5  1  0  0  0  0
  5  6  2  0  0  0  0
  5 28  1  0  0  0  0
  6  7  1  0  0  0  0
  6 29  1  0  0  0  0
  7  8  2  0  0  0  0
  7 30  1  0  0  0  0
  8  9  1  0  0  0  0
  8 31  1  0  0  0  0
  9 10  1  0  0  0  0
 10 11  1  0  0  0  0
 11 12  1  0  0  0  0
 11 32  1  0  0  0  0
 11 33  1  0  0  0  0
 12 13  1  0  0  0  0
 12 14  1  0  0  0  0
 12 34  1  0  0  0  0
 13 35  1  0  0  0  0
 14 15  1  0  0  0  0
 14 36  1  0  0  0  0
 14 37  1  0  0  0  0
 15 16  1  0  0  0  0
 16 24  1  0  0  0  0
 16 17  2  0  0  0  0
 17 18  1  0  0  0  0
 17 38  1  0  0  0  0
 18 19  2  0  0  0  0
 18 39  1  0  0  0  0
 19 20  1  0  0  0  0
 19 23  1  0  0  0  0
 20 21  1  0  0  0  0
 20 40  1  0  0  0  0
 20 41  1  0  0  0  0
 21 22  3  0  0  0  0
 23 24  2  0  0  0  0
 23 42  1  0  0  0  0
 24 43  1  0  0  0  0
M  END
> <s_m_source_file>
AV-unprocessed.smi

> <i_m_source_file_index>
2163

> <i_lp_mmshare_version>
43012

> <i_f3d_flags>
0

> <s_epik_input>
W2NIXTFbY0hdW2NIXVtjSF1jKGMxMiluKGMobjIpW0NIM10pW0NIMl1bQ0BIXShbT0hdKVtDSDJdT2MzW2NIXVtjSF1jKFtDSDJdQyNOKVtjSF1bY0hdMw==

> <s_epik_cmdline>
J2VwaWtfcHl0aG9uJywgJy1waCcsICc3LjAnLCAnLXRuJywgJzgnLCAnLW1hJywgJzIwMCcsICctbWV0YWxfYmluZGluZycsICctaW1hZScsICc8aW5maWxlLm1hZT4nLCAnLW9tYWUnLCAnPG91dGZpbGUubWFlPic=

> <r_lp_tautomer_probability>
1

> <r_epik_Ionization_Penalty>
0.114213

> <r_epik_Ionization_Penalty_Charging>
0

> <r_epik_Ionization_Penalty_Neutral>
0.114213

> <r_epik_State_Penalty>
0.103875

> <r_epik_Charging_Adjusted_Penalty>
0.103875

> <i_epik_Tot_Q>
0

> <i_epik_Tot_abs_Q>
0

> <r_epik_Metal_State_Penalty>
0.000113526

> <b_epik_Metal_Only>
0

> <s_lp_Force_Field>
OPLS_2005

> <r_lp_Energy>
15.1167

> <b_lp_Chiralities_Consistent>
1

> <s_lp_Variant>
AV-unprocessed.smi:2163-1

> <Gold.Version>
5.8.1

> <Gold.Id.Protein>
6NUR|6NUR_protein|mol2

> <Gold.PLP.Fitness>
46.4753

> <Gold.PLP.PLP>
-47.9930

> <Gold.PLP.part.hbond>
-1.8977

> <Gold.PLP.part.metal>
0.0000

> <Gold.PLP.part.buried>
-6.9475

> <Gold.PLP.part.nonpolar>
-38.5724

> <Gold.PLP.part.repulsive>
0.3504

> <Gold.PLP.ligand.clash>
0.0000

> <Gold.PLP.ligand.torsion>
0.8897

> <Gold.PLP.Chemscore.Hbond>
0.0568

> <Gold.PLP.Chemscore.CHOScore>
0.0000

> <Gold.PLP.Chemscore.Metal>
0.0000

> <Gold.Chemscore.Hbonds>
donor molecule, donor type, donor heavy atom, donor atom, acceptor molecule, acceptor atom, score
      P1  H  6933  6944       L1    15  0.07

> <Gold.PLP.Chemscore.Internal.Correction>
0.0912

> <Gold.Rescore>
     Score         DG    S(hbond)    S(metal)    S(lipo)     H(rot)  DE(clash)    DE(int)     intcor
     11.15     -11.88       0.01        0.00     109.39       2.51       0.00       0.73       ----

> <Gold.Chemscore.Fitness>
11.1477

> <Gold.Chemscore.DG>
-11.8795

> <Gold.Chemscore.ZeroCoef>
-5.4800

> <Gold.Chemscore.Hbond>
0.0092

> <Gold.Chemscore.Metal>
0.0000

> <Gold.Chemscore.Lipo>
109.3872

> <Gold.Chemscore.Internal_Hbond>
0.0000

> <Gold.Chemscore.DEClash>
0.0024

> <Gold.Chemscore.DEInternal>
0.7295

> <Gold.Chemscore.Rot>
2.5115

> <Gold.Chemscore.Internal.Correction>
   9.000000E+99

> <Gold.Chemscore.Hbond.Weighted>
-0.0308

> <Gold.Chemscore.Metal.Weighted>
-0.0000

> <Gold.Chemscore.Lipo.Weighted>
-12.7983

> <Gold.Chemscore.Internal_Hbond.Weighted>
0.0000

> <Gold.Chemscore.DEClash.Weighted>
0.0024

> <Gold.Chemscore.DEInternal.Weighted>
0.7295

> <Gold.Chemscore.Rot.Weighted>
6.4296

> <Gold.Chemscore.Internal.Correction.Weighted>
   9.000000E+99

> <Gold.Protein.RotatedTorsions>
[ 6907 6896 6895 6894 ] final -120.94 input  -60.11 | X-H torsion
[ 7974 7965 7964 7962 ] final   12.71 input  175.53 | X-H torsion
[ 8008 7997 7996 7995 ] final  -87.23 input   59.86 | X-H torsion
[ 10167 10162 10161 10158 ] final  155.69 input  -65.29 | X-H torsion
[ 10718 10713 10712 10709 ] final -156.27 input   66.30 | X-H torsion
[ 10763 10752 10751 10750 ] final  139.20 input  -60.55 | X-H torsion
[ 11005 11000 10999 10996 ] final -105.54 input  -57.11 | X-H torsion

> <Gold.Protein.ActiveResidues>
 VAL166  LYS551  ARG553  GLY616  TRP617  ASP618  TYR619  PRO620  LYS621  CYS622 
 ASP623  PHE694  ASN695  SER759  ASP760  ASP761  ALA762  ILE779  LEU786  VAL792 
 PHE793  MET794  SER795  GLU796  ALA797  LYS798  CYS799  TRP800  GLU811  SER814 

> <Gold.Protein.RotatedAtoms>
  150.8438  133.7894  159.3050 H   0  0  0  0  0  0  0  0  0  0  0  0  # atno 6907 bound_to 6896
  151.5587  135.1064  159.9977 H   0  0  0  0  0  0  0  0  0  0  0  0  # atno 6908 bound_to 6896
  152.4496  133.7561  159.6777 H   0  0  0  0  0  0  0  0  0  0  0  0  # atno 6909 bound_to 6896
  146.2345  139.9296  142.8498 H   0  0  0  0  0  0  0  0  0  0  0  0  # atno 7974 bound_to 7965
  154.6609  140.0568  157.0061 H   0  0  0  0  0  0  0  0  0  0  0  0  # atno 8008 bound_to 7997
  155.1230  140.3249  155.4474 H   0  0  0  0  0  0  0  0  0  0  0  0  # atno 8009 bound_to 7997
  156.2617  140.1994  156.6352 H   0  0  0  0  0  0  0  0  0  0  0  0  # atno 8010 bound_to 7997
  139.4821  144.5076  151.8074 H   0  0  0  0  0  0  0  0  0  0  0  0  # atno 10167 bound_to 10162
  156.5242  130.8492  151.2693 H   0  0  0  0  0  0  0  0  0  0  0  0  # atno 10718 bound_to 10713
  153.9022  135.3020  155.3448 H   0  0  0  0  0  0  0  0  0  0  0  0  # atno 10763 bound_to 10752
  154.7664  135.4908  153.9567 H   0  0  0  0  0  0  0  0  0  0  0  0  # atno 10764 bound_to 10752
  153.1238  135.6788  153.9391 H   0  0  0  0  0  0  0  0  0  0  0  0  # atno 10765 bound_to 10752
  141.1048  133.8817  157.1747 H   0  0  0  0  0  0  0  0  0  0  0  0  # atno 11005 bound_to 11000
  145.2057  140.9874  143.4130 LP  0  0  0  0  0  0  0  0  0  0  0  0  # atno 17320 bound_to 7965
  144.9735  139.3856  143.6297 LP  0  0  0  0  0  0  0  0  0  0  0  0  # atno 17321 bound_to 7965
  140.4575  144.1769  150.5903 LP  0  0  0  0  0  0  0  0  0  0  0  0  # atno 17342 bound_to 10162
  140.4520  143.2483  151.9335 LP  0  0  0  0  0  0  0  0  0  0  0  0  # atno 17343 bound_to 10162
  157.7432  130.9907  150.2574 LP  0  0  0  0  0  0  0  0  0  0  0  0  # atno 17370 bound_to 10713
  156.3120  130.3773  149.7652 LP  0  0  0  0  0  0  0  0  0  0  0  0  # atno 17371 bound_to 10713
  139.9914  135.0063  156.9983 LP  0  0  0  0  0  0  0  0  0  0  0  0  # atno 17394 bound_to 11000
  140.4930  134.1174  155.7236 LP  0  0  0  0  0  0  0  0  0  0  0  0  # atno 17395 bound_to 11000

$$$$
