AV-unprocessed.smi:2744|AV-procd|sdf|10569|dock4
  -GOLD-   2272015 23D 1   1.00000     0.00000
 Structure written by MMmdl.
 40 41  0  0  0  0  0  0  0  0  1 V2000
  152.1460  145.5333  159.0359 C   0  0  0  0  0  0  0  0  0  0  0  0
  152.3586  144.1299  158.4447 C   0  0  0  0  0  0  0  0  0  0  0  0
  152.1815  142.9507  159.4366 C   0  0  2  0  0  0  0  0  0  0  0  0
  150.8137  142.9827  160.1444 C   0  0  0  0  0  0  0  0  0  0  0  0
  153.1756  143.0729  160.4364 O   0  0  0  0  0  0  0  0  0  0  0  0
  152.3621  141.5757  158.7421 C   0  0  0  0  0  0  0  0  0  0  0  0
  151.4751  141.3509  157.6107 N   0  0  0  0  0  0  0  0  0  0  0  0
  150.2709  141.9748  157.3698 C   0  0  0  0  0  0  0  0  0  0  0  0
  149.6562  141.6010  156.2806 N   0  0  0  0  0  0  0  0  0  0  0  0
  150.4956  140.6378  155.7361 C   0  0  0  0  0  0  0  0  0  0  0  0
  150.4393  139.8291  154.5715 C   0  0  0  0  0  0  0  0  0  0  0  0
  149.3961  139.9140  153.7159 N   0  0  0  0  0  0  0  0  0  0  0  0
  148.0687  140.3190  154.1701 C   0  0  0  0  0  0  0  0  0  0  0  0
  146.9650  139.6242  153.3554 C   0  0  0  0  0  0  0  0  0  0  0  0
  147.9321  141.8450  154.0898 C   0  0  0  0  0  0  0  0  0  0  0  0
  151.4654  138.9651  154.3522 N   0  0  0  0  0  0  0  0  0  0  0  0
  152.4831  138.8998  155.2163 C   0  0  0  0  0  0  0  0  0  0  0  0
  152.6694  139.5941  156.3414 N   0  0  0  0  0  0  0  0  0  0  0  0
  151.6409  140.4625  156.5624 C   0  0  0  0  0  0  0  0  0  0  0  0
  152.3565  146.2980  158.2879 H   0  0  0  0  0  0  0  0  0  0  0  0
  152.8062  145.7150  159.8844 H   0  0  0  0  0  0  0  0  0  0  0  0
  151.1185  145.6817  159.3669 H   0  0  0  0  0  0  0  0  0  0  0  0
  151.6722  144.0004  157.6072 H   0  0  0  0  0  0  0  0  0  0  0  0
  153.3607  144.1014  158.0158 H   0  0  0  0  0  0  0  0  0  0  0  0
  149.9972  142.9600  159.4220 H   0  0  0  0  0  0  0  0  0  0  0  0
  150.6900  143.8757  160.7574 H   0  0  0  0  0  0  0  0  0  0  0  0
  150.6903  142.1243  160.8057 H   0  0  0  0  0  0  0  0  0  0  0  0
  154.0238  143.0789  160.0196 H   0  0  0  0  0  0  0  0  0  0  0  0
  153.3896  141.4563  158.3952 H   0  0  0  0  0  0  0  0  0  0  0  0
  152.1942  140.7741  159.4626 H   0  0  0  0  0  0  0  0  0  0  0  0
  149.8643  142.7280  158.0290 H   0  0  0  0  0  0  0  0  0  0  0  0
  149.4604  139.6331  152.7479 H   0  0  0  0  0  0  0  0  0  0  0  0
  147.9541  140.0414  155.2187 H   0  0  0  0  0  0  0  0  0  0  0  0
  145.9761  139.9201  153.7064 H   0  0  0  0  0  0  0  0  0  0  0  0
  147.0270  138.5390  153.4381 H   0  0  0  0  0  0  0  0  0  0  0  0
  147.0329  139.8807  152.2976 H   0  0  0  0  0  0  0  0  0  0  0  0
  146.9573  142.1713  154.4536 H   0  0  0  0  0  0  0  0  0  0  0  0
  148.0413  142.2013  153.0646 H   0  0  0  0  0  0  0  0  0  0  0  0
  148.6911  142.3391  154.6971 H   0  0  0  0  0  0  0  0  0  0  0  0
  153.2589  138.1897  154.9713 H   0  0  0  0  0  0  0  0  0  0  0  0
  1  2  1  0  0  0  0
  1 20  1  0  0  0  0
  1 21  1  0  0  0  0
  1 22  1  0  0  0  0
  2  3  1  0  0  0  0
  2 23  1  0  0  0  0
  2 24  1  0  0  0  0
  3  4  1  0  0  0  0
  3  5  1  0  0  0  0
  3  6  1  0  0  0  0
  4 25  1  0  0  0  0
  4 26  1  0  0  0  0
  4 27  1  0  0  0  0
  5 28  1  0  0  0  0
  6  7  1  0  0  0  0
  6 29  1  0  0  0  0
  6 30  1  0  0  0  0
  7 19  1  0  0  0  0
  7  8  1  0  0  0  0
  8  9  2  0  0  0  0
  8 31  1  0  0  0  0
  9 10  1  0  0  0  0
 10 19  2  0  0  0  0
 10 11  1  0  0  0  0
 11 12  1  0  0  0  0
 11 16  2  0  0  0  0
 12 13  1  0  0  0  0
 12 32  1  0  0  0  0
 13 14  1  0  0  0  0
 13 15  1  0  0  0  0
 13 33  1  0  0  0  0
 14 34  1  0  0  0  0
 14 35  1  0  0  0  0
 14 36  1  0  0  0  0
 15 37  1  0  0  0  0
 15 38  1  0  0  0  0
 15 39  1  0  0  0  0
 16 17  1  0  0  0  0
 17 18  2  0  0  0  0
 17 40  1  0  0  0  0
 18 19  1  0  0  0  0
M  END
> <s_m_source_file>
AV-unprocessed.smi

> <i_m_source_file_index>
2744

> <i_lp_mmshare_version>
43012

> <i_f3d_flags>
0

> <s_epik_input>
W0NIM11bQ0gyXVtDQEBdKFtDSDNdKShbT0hdKVtDSDJdbihbY0hdbjEpYyhjMTIpbltjSF1uYzJbTkhdW0NIXShbQ0gzXSlbQ0gzXQ==

> <s_epik_cmdline>
J2VwaWtfcHl0aG9uJywgJy1waCcsICc3LjAnLCAnLXRuJywgJzgnLCAnLW1hJywgJzIwMCcsICctbWV0YWxfYmluZGluZycsICctaW1hZScsICc8aW5maWxlLm1hZT4nLCAnLW9tYWUnLCAnPG91dGZpbGUubWFlPic=

> <r_lp_tautomer_probability>
1

> <r_epik_Ionization_Penalty>
0.00217876

> <r_epik_Ionization_Penalty_Charging>
0

> <r_epik_Ionization_Penalty_Neutral>
0.00217876

> <r_epik_State_Penalty>
-0

> <r_epik_Charging_Adjusted_Penalty>
0

> <i_epik_Tot_Q>
0

> <i_epik_Tot_abs_Q>
0

> <r_epik_Metal_State_Penalty>
-0

> <b_epik_Metal_Only>
0

> <s_lp_Force_Field>
OPLS_2005

> <r_lp_Energy>
9.28896

> <b_lp_Chiralities_Consistent>
1

> <s_lp_Variant>
AV-unprocessed.smi:2744-2

> <Gold.Version>
5.8.1

> <Gold.Id.Protein>
6NUR|6NUR_protein|mol2

> <Gold.PLP.Fitness>
40.4864

> <Gold.PLP.PLP>
-36.2142

> <Gold.PLP.part.hbond>
-3.0000

> <Gold.PLP.part.metal>
0.0000

> <Gold.PLP.part.buried>
0.8757

> <Gold.PLP.part.nonpolar>
-34.2468

> <Gold.PLP.part.repulsive>
0.4046

> <Gold.PLP.ligand.clash>
0.0000

> <Gold.PLP.ligand.torsion>
0.8898

> <Gold.PLP.Chemscore.Hbond>
2.0000

> <Gold.PLP.Chemscore.CHOScore>
0.0000

> <Gold.PLP.Chemscore.Metal>
0.0000

> <Gold.Chemscore.Hbonds>
donor molecule, donor type, donor heavy atom, donor atom, acceptor molecule, acceptor atom, score
      L1  H    12    32       P1  7957  1.00
      P1  H  7997  8008       L1    18  1.00

> <Gold.PLP.Chemscore.Internal.Correction>
0.0518

> <Gold.Rescore>
     Score         DG    S(hbond)    S(metal)    S(lipo)     H(rot)  DE(clash)    DE(int)     intcor
     10.73     -14.76       1.82        0.00      79.52       2.38       1.45       2.57       ----

> <Gold.Chemscore.Fitness>
10.7345

> <Gold.Chemscore.DG>
-14.7625

> <Gold.Chemscore.ZeroCoef>
-5.4800

> <Gold.Chemscore.Hbond>
1.8179

> <Gold.Chemscore.Metal>
0.0000

> <Gold.Chemscore.Lipo>
79.5219

> <Gold.Chemscore.Internal_Hbond>
0.0000

> <Gold.Chemscore.DEClash>
1.4536

> <Gold.Chemscore.DEInternal>
2.5743

> <Gold.Chemscore.Rot>
2.3802

> <Gold.Chemscore.Internal.Correction>
   9.000000E+99

> <Gold.Chemscore.Hbonds>
donor molecule, donor type, donor heavy atom, donor atom, acceptor molecule, acceptor atom, score
      L1  H    12    32       P1  7957  0.94
      P1  H  7997  8008       L1    18  0.73

> <Gold.Chemscore.Hbond.Weighted>
-6.0717

> <Gold.Chemscore.Metal.Weighted>
-0.0000

> <Gold.Chemscore.Lipo.Weighted>
-9.3041

> <Gold.Chemscore.Internal_Hbond.Weighted>
0.0000

> <Gold.Chemscore.DEClash.Weighted>
1.4536

> <Gold.Chemscore.DEInternal.Weighted>
2.5743

> <Gold.Chemscore.Rot.Weighted>
6.0933

> <Gold.Chemscore.Internal.Correction.Weighted>
   9.000000E+99

> <Gold.Protein.RotatedTorsions>
[ 6907 6896 6895 6894 ] final  -94.85 input  -60.11 | X-H torsion
[ 7974 7965 7964 7962 ] final -120.08 input  175.53 | X-H torsion
[ 8008 7997 7996 7995 ] final  -51.05 input   59.86 | X-H torsion
[ 10167 10162 10161 10158 ] final  124.51 input  -65.29 | X-H torsion
[ 10718 10713 10712 10709 ] final   59.47 input   66.30 | X-H torsion
[ 10763 10752 10751 10750 ] final  -75.15 input  -60.55 | X-H torsion
[ 11005 11000 10999 10996 ] final -146.63 input  -57.11 | X-H torsion

> <Gold.Protein.ActiveResidues>
 VAL166  LYS551  ARG553  GLY616  TRP617  ASP618  TYR619  PRO620  LYS621  CYS622 
 ASP623  PHE694  ASN695  SER759  ASP760  ASP761  ALA762  ILE779  LEU786  VAL792 
 PHE793  MET794  SER795  GLU796  ALA797  LYS798  CYS799  TRP800  GLU811  SER814 

> <Gold.Protein.RotatedAtoms>
  150.6950  134.1749  159.4226 H   0  0  0  0  0  0  0  0  0  0  0  0  # atno 6907 bound_to 6896
  151.9726  135.0067  160.0563 H   0  0  0  0  0  0  0  0  0  0  0  0  # atno 6908 bound_to 6896
  152.1828  133.4684  159.5004 H   0  0  0  0  0  0  0  0  0  0  0  0  # atno 6909 bound_to 6896
  145.0553  140.8250  143.4184 H   0  0  0  0  0  0  0  0  0  0  0  0  # atno 7974 bound_to 7965
  154.4074  140.1257  156.4766 H   0  0  0  0  0  0  0  0  0  0  0  0  # atno 8008 bound_to 7997
  155.7127  140.3493  155.4961 H   0  0  0  0  0  0  0  0  0  0  0  0  # atno 8009 bound_to 7997
  155.9286  140.1065  157.1140 H   0  0  0  0  0  0  0  0  0  0  0  0  # atno 8010 bound_to 7997
  139.5738  144.6953  151.3708 H   0  0  0  0  0  0  0  0  0  0  0  0  # atno 10167 bound_to 10162
  157.5678  130.8884  149.9216 H   0  0  0  0  0  0  0  0  0  0  0  0  # atno 10718 bound_to 10713
  154.4826  135.5841  153.6401 H   0  0  0  0  0  0  0  0  0  0  0  0  # atno 10763 bound_to 10752
  152.9850  135.6093  154.3226 H   0  0  0  0  0  0  0  0  0  0  0  0  # atno 10764 bound_to 10752
  154.3119  135.2845  155.2541 H   0  0  0  0  0  0  0  0  0  0  0  0  # atno 10765 bound_to 10752
  140.7799  134.3091  157.5048 H   0  0  0  0  0  0  0  0  0  0  0  0  # atno 11005 bound_to 11000
  145.1476  139.2534  143.5458 LP  0  0  0  0  0  0  0  0  0  0  0  0  # atno 17320 bound_to 7965
  146.3521  140.1169  142.8601 LP  0  0  0  0  0  0  0  0  0  0  0  0  # atno 17321 bound_to 7965
  140.7021  143.7605  150.7421 LP  0  0  0  0  0  0  0  0  0  0  0  0  # atno 17342 bound_to 10162
  140.1119  143.4692  152.2365 LP  0  0  0  0  0  0  0  0  0  0  0  0  # atno 17343 bound_to 10162
  156.0725  130.3683  150.0747 LP  0  0  0  0  0  0  0  0  0  0  0  0  # atno 17370 bound_to 10713
  156.8903  130.9586  151.3589 LP  0  0  0  0  0  0  0  0  0  0  0  0  # atno 17371 bound_to 10713
  139.8744  134.9312  156.3522 LP  0  0  0  0  0  0  0  0  0  0  0  0  # atno 17394 bound_to 11000
  140.9492  133.7462  156.0249 LP  0  0  0  0  0  0  0  0  0  0  0  0  # atno 17395 bound_to 11000

$$$$
