AV-unprocessed.smi:418|AV-procd|sdf|2528|dock2
  -GOLD-   2262022483D 1   1.00000     0.00000
 Structure written by MMmdl.
 40 42  0  0  0  0  0  0  0  0  1 V2000
  154.1534  140.1594  160.5641 C   0  0  0  0  0  0  0  0  0  0  0  0
  153.1943  140.9519  159.8040 N   0  0  0  0  0  0  0  0  0  0  0  0
  152.7025  140.6778  158.5731 C   0  0  0  0  0  0  0  0  0  0  0  0
  152.9878  139.7023  157.8788 O   0  0  0  0  0  0  0  0  0  0  0  0
  151.8444  141.6696  158.2343 N   0  0  0  0  0  0  0  0  0  0  0  0
  151.0885  141.7767  156.9881 C   0  0  0  0  0  0  0  0  0  0  0  0
  149.6826  141.1563  157.1183 C   0  0  2  0  0  0  0  0  0  0  0  0
  149.8189  139.7600  157.2897 O   0  0  0  0  0  0  0  0  0  0  0  0
  148.8329  141.3804  155.8583 C   0  0  0  0  0  0  0  0  0  0  0  0
  147.4599  141.3750  156.2267 O   0  0  0  0  0  0  0  0  0  0  0  0
  146.5926  142.1956  155.5377 C   0  0  0  0  0  0  0  0  0  0  0  0
  146.7611  142.5698  154.1800 C   0  0  0  0  0  0  0  0  0  0  0  0
  145.8279  143.4184  153.5529 C   0  0  0  0  0  0  0  0  0  0  0  0
  144.7178  143.9010  154.2699 C   0  0  0  0  0  0  0  0  0  0  0  0
  144.5406  143.5326  155.6160 C   0  0  0  0  0  0  0  0  0  0  0  0
  145.4729  142.6842  156.2444 C   0  0  0  0  0  0  0  0  0  0  0  0
  145.2908  142.3378  157.5413 F   0  0  0  0  0  0  0  0  0  0  0  0
  151.7923  142.6077  159.2752 C   0  0  0  0  0  0  0  0  0  0  0  0
  151.0714  143.8076  159.4079 C   0  0  0  0  0  0  0  0  0  0  0  0
  151.2472  144.5380  160.6065 C   0  0  0  0  0  0  0  0  0  0  0  0
  152.1176  144.0677  161.6241 C   0  0  0  0  0  0  0  0  0  0  0  0
  152.8330  142.8577  161.4638 C   0  0  0  0  0  0  0  0  0  0  0  0
  152.6408  142.1537  160.2630 C   0  0  0  0  0  0  0  0  0  0  0  0
  154.4774  139.2722  160.0185 H   0  0  0  0  0  0  0  0  0  0  0  0
  153.7096  139.8334  161.5050 H   0  0  0  0  0  0  0  0  0  0  0  0
  155.0377  140.7551  160.7914 H   0  0  0  0  0  0  0  0  0  0  0  0
  151.0017  142.8377  156.7484 H   0  0  0  0  0  0  0  0  0  0  0  0
  151.6387  141.3374  156.1551 H   0  0  0  0  0  0  0  0  0  0  0  0
  149.1525  141.5641  157.9802 H   0  0  0  0  0  0  0  0  0  0  0  0
  149.6194  139.5482  158.1888 H   0  0  0  0  0  0  0  0  0  0  0  0
  149.1067  142.3262  155.3870 H   0  0  0  0  0  0  0  0  0  0  0  0
  149.0151  140.5777  155.1412 H   0  0  0  0  0  0  0  0  0  0  0  0
  147.5983  142.2186  153.5965 H   0  0  0  0  0  0  0  0  0  0  0  0
  145.9654  143.6992  152.5191 H   0  0  0  0  0  0  0  0  0  0  0  0
  144.0034  144.5523  153.7884 H   0  0  0  0  0  0  0  0  0  0  0  0
  143.6892  143.9017  156.1688 H   0  0  0  0  0  0  0  0  0  0  0  0
  150.4112  144.1627  158.6305 H   0  0  0  0  0  0  0  0  0  0  0  0
  150.7122  145.4654  160.7488 H   0  0  0  0  0  0  0  0  0  0  0  0
  152.2363  144.6409  162.5317 H   0  0  0  0  0  0  0  0  0  0  0  0
  153.4986  142.4936  162.2326 H   0  0  0  0  0  0  0  0  0  0  0  0
  1  2  1  0  0  0  0
  1 24  1  0  0  0  0
  1 25  1  0  0  0  0
  1 26  1  0  0  0  0
  2 23  1  0  0  0  0
  2  3  1  0  0  0  0
  3  4  2  0  0  0  0
  3  5  1  0  0  0  0
  5  6  1  0  0  0  0
  5 18  1  0  0  0  0
  6  7  1  0  0  0  0
  6 27  1  0  0  0  0
  6 28  1  0  0  0  0
  7  8  1  0  0  0  0
  7  9  1  0  0  0  0
  7 29  1  0  0  0  0
  8 30  1  0  0  0  0
  9 10  1  0  0  0  0
  9 31  1  0  0  0  0
  9 32  1  0  0  0  0
 10 11  1  0  0  0  0
 11 16  1  0  0  0  0
 11 12  2  0  0  0  0
 12 13  1  0  0  0  0
 12 33  1  0  0  0  0
 13 14  2  0  0  0  0
 13 34  1  0  0  0  0
 14 15  1  0  0  0  0
 14 35  1  0  0  0  0
 15 16  2  0  0  0  0
 15 36  1  0  0  0  0
 16 17  1  0  0  0  0
 18 23  2  0  0  0  0
 18 19  1  0  0  0  0
 19 20  2  0  0  0  0
 19 37  1  0  0  0  0
 20 21  1  0  0  0  0
 20 38  1  0  0  0  0
 21 22  2  0  0  0  0
 21 39  1  0  0  0  0
 22 23  1  0  0  0  0
 22 40  1  0  0  0  0
M  END
> <s_m_source_file>
AV-unprocessed.smi

> <i_m_source_file_index>
418

> <i_lp_mmshare_version>
43012

> <i_f3d_flags>
0

> <s_epik_input>
W2NIXTFbY0hdW2NIXVtjSF1jKGMxMiluKFtDSDNdKWMoPU8pbjJbQ0gyXVtDQEhdKFtPSF0pW0NIMl1PYzNbY0hdW2NIXVtjSF1bY0hdYzNG

> <s_epik_cmdline>
J2VwaWtfcHl0aG9uJywgJy1waCcsICc3LjAnLCAnLXRuJywgJzgnLCAnLW1hJywgJzIwMCcsICctbWV0YWxfYmluZGluZycsICctaW1hZScsICc8aW5maWxlLm1hZT4nLCAnLW9tYWUnLCAnPG91dGZpbGUubWFlPic=

> <r_lp_tautomer_probability>
1

> <r_epik_Ionization_Penalty>
2.40171e-06

> <r_epik_Ionization_Penalty_Charging>
2.41238e-09

> <r_epik_Ionization_Penalty_Neutral>
2.3993e-06

> <r_epik_State_Penalty>
-0

> <r_epik_Charging_Adjusted_Penalty>
2.41238e-09

> <i_epik_Tot_Q>
0

> <i_epik_Tot_abs_Q>
0

> <r_epik_Metal_State_Penalty>
-0

> <b_epik_Metal_Only>
0

> <s_lp_Force_Field>
OPLS_2005

> <r_lp_Energy>
46.4637

> <b_lp_Chiralities_Consistent>
1

> <s_lp_Variant>
AV-unprocessed.smi:418-1

> <Gold.Version>
5.8.1

> <Gold.Id.Protein>
6NUR|6NUR_protein|mol2

> <Gold.PLP.Fitness>
50.8917

> <Gold.PLP.PLP>
-50.3919

> <Gold.PLP.part.hbond>
-1.0000

> <Gold.PLP.part.metal>
0.0000

> <Gold.PLP.part.buried>
-7.3734

> <Gold.PLP.part.nonpolar>
-42.3066

> <Gold.PLP.part.repulsive>
0.0929

> <Gold.PLP.ligand.clash>
0.0000

> <Gold.PLP.ligand.torsion>
1.3059

> <Gold.PLP.Chemscore.Hbond>
1.0000

> <Gold.PLP.Chemscore.CHOScore>
0.0000

> <Gold.PLP.Chemscore.Metal>
0.0000

> <Gold.Chemscore.Hbonds>
donor molecule, donor type, donor heavy atom, donor atom, acceptor molecule, acceptor atom, score
      P1  H  7997  8010       L1     4  0.98

> <Gold.PLP.Chemscore.Internal.Correction>
0.1116

> <Gold.Rescore>
     Score         DG    S(hbond)    S(metal)    S(lipo)     H(rot)  DE(clash)    DE(int)     intcor
     15.14     -16.64       0.72        0.00     124.53       2.27       0.09       1.42       ----

> <Gold.Chemscore.Fitness>
15.1413

> <Gold.Chemscore.DG>
-16.6446

> <Gold.Chemscore.ZeroCoef>
-5.4800

> <Gold.Chemscore.Hbond>
0.7209

> <Gold.Chemscore.Metal>
0.0000

> <Gold.Chemscore.Lipo>
124.5270

> <Gold.Chemscore.Internal_Hbond>
0.0000

> <Gold.Chemscore.DEClash>
0.0877

> <Gold.Chemscore.DEInternal>
1.4156

> <Gold.Chemscore.Rot>
2.2706

> <Gold.Chemscore.Internal.Correction>
   9.000000E+99

> <Gold.Chemscore.Hbonds>
donor molecule, donor type, donor heavy atom, donor atom, acceptor molecule, acceptor atom, score
      P1  H  7997  8010       L1     4  0.56

> <Gold.Chemscore.Hbond.Weighted>
-2.4077

> <Gold.Chemscore.Metal.Weighted>
-0.0000

> <Gold.Chemscore.Lipo.Weighted>
-14.5697

> <Gold.Chemscore.Internal_Hbond.Weighted>
0.0000

> <Gold.Chemscore.DEClash.Weighted>
0.0877

> <Gold.Chemscore.DEInternal.Weighted>
1.4156

> <Gold.Chemscore.Rot.Weighted>
5.8128

> <Gold.Chemscore.Internal.Correction.Weighted>
   9.000000E+99

> <Gold.Protein.RotatedTorsions>
[ 6907 6896 6895 6894 ] final  108.30 input  -60.11 | X-H torsion
[ 7974 7965 7964 7962 ] final  179.96 input  175.53 | X-H torsion
[ 8008 7997 7996 7995 ] final   24.25 input   59.86 | X-H torsion
[ 10167 10162 10161 10158 ] final   35.15 input  -65.29 | X-H torsion
[ 10718 10713 10712 10709 ] final -105.94 input   66.30 | X-H torsion
[ 10763 10752 10751 10750 ] final  104.36 input  -60.55 | X-H torsion
[ 11005 11000 10999 10996 ] final  -69.75 input  -57.11 | X-H torsion

> <Gold.Protein.ActiveResidues>
 VAL166  LYS551  ARG553  GLY616  TRP617  ASP618  TYR619  PRO620  LYS621  CYS622 
 ASP623  PHE694  ASN695  SER759  ASP760  ASP761  ALA762  ILE779  LEU786  VAL792 
 PHE793  MET794  SER795  GLU796  ALA797  LYS798  CYS799  TRP800  GLU811  SER814 

> <Gold.Protein.RotatedAtoms>
  152.5118  133.9109  159.7487 H   0  0  0  0  0  0  0  0  0  0  0  0  # atno 6907 bound_to 6896
  150.9503  133.6549  159.2780 H   0  0  0  0  0  0  0  0  0  0  0  0  # atno 6908 bound_to 6896
  151.3829  135.0948  159.9554 H   0  0  0  0  0  0  0  0  0  0  0  0  # atno 6909 bound_to 6896
  144.7141  140.0627  143.6432 H   0  0  0  0  0  0  0  0  0  0  0  0  # atno 7974 bound_to 7965
  154.9934  140.3116  155.4896 H   0  0  0  0  0  0  0  0  0  0  0  0  # atno 8008 bound_to 7997
  156.2936  140.2245  156.4981 H   0  0  0  0  0  0  0  0  0  0  0  0  # atno 8009 bound_to 7997
  154.7682  140.0454  157.1018 H   0  0  0  0  0  0  0  0  0  0  0  0  # atno 8010 bound_to 7997
  140.4249  144.1407  150.6152 H   0  0  0  0  0  0  0  0  0  0  0  0  # atno 10167 bound_to 10162
  156.0368  130.5588  150.7610 H   0  0  0  0  0  0  0  0  0  0  0  0  # atno 10718 bound_to 10713
  153.3649  135.3945  155.1746 H   0  0  0  0  0  0  0  0  0  0  0  0  # atno 10763 bound_to 10752
  154.8685  135.3688  154.5051 H   0  0  0  0  0  0  0  0  0  0  0  0  # atno 10764 bound_to 10752
  153.5514  135.7083  153.5650 H   0  0  0  0  0  0  0  0  0  0  0  0  # atno 10765 bound_to 10752
  141.1560  133.6772  156.6647 H   0  0  0  0  0  0  0  0  0  0  0  0  # atno 11005 bound_to 11000
  145.9850  139.2970  143.1019 LP  0  0  0  0  0  0  0  0  0  0  0  0  # atno 17320 bound_to 7965
  145.8968  140.9269  143.0524 LP  0  0  0  0  0  0  0  0  0  0  0  0  # atno 17321 bound_to 7965
  140.4492  143.2493  151.9370 LP  0  0  0  0  0  0  0  0  0  0  0  0  # atno 17342 bound_to 10162
  139.4783  144.5578  151.8286 LP  0  0  0  0  0  0  0  0  0  0  0  0  # atno 17343 bound_to 10162
  157.5129  131.0926  151.0175 LP  0  0  0  0  0  0  0  0  0  0  0  0  # atno 17370 bound_to 10713
  157.0526  130.5793  149.5373 LP  0  0  0  0  0  0  0  0  0  0  0  0  # atno 17371 bound_to 10713
  140.3220  134.8000  157.4260 LP  0  0  0  0  0  0  0  0  0  0  0  0  # atno 17394 bound_to 11000
  140.1089  134.5373  155.8284 LP  0  0  0  0  0  0  0  0  0  0  0  0  # atno 17395 bound_to 11000

$$$$
