AV-unprocessed.smi:1645|AV-procd|sdf|6622|dock1
  -GOLD-   22720 7323D 1   1.00000     0.00000
 Structure written by MMmdl.
 55 58  0  0  0  0  0  0  0  0  4 V2000
  151.8743  136.1949  156.0350 O   0  0  0  0  0  0  0  0  0  0  0  0
  150.8577  136.4729  155.3897 C   0  0  0  0  0  0  0  0  0  0  0  0
  150.3950  137.7351  155.3562 N   0  0  0  0  0  0  0  0  0  0  0  0
  150.8664  138.8845  156.0462 C   0  0  0  0  0  0  0  0  0  0  0  0
  150.3139  140.1338  155.6923 C   0  0  0  0  0  0  0  0  0  0  0  0
  150.7298  141.2995  156.3671 C   0  0  0  0  0  0  0  0  0  0  0  0
  151.6891  141.1953  157.4002 C   0  0  0  0  0  0  0  0  0  0  0  0
  152.1573  142.2949  158.1312 N   0  0  0  0  0  0  0  0  0  0  0  0
  151.4797  143.5408  157.7821 C   0  0  0  0  0  0  0  0  0  0  0  0
  152.1520  144.7411  158.4710 C   0  0  0  0  0  0  0  0  0  0  0  0
  152.2354  144.5255  159.9908 C   0  0  0  0  0  0  0  0  0  0  0  0
  152.9288  143.1890  160.3011 C   0  0  0  0  0  0  0  0  0  0  0  0
  152.2387  142.0275  159.5649 C   0  0  0  0  0  0  0  0  0  0  0  0
  152.1848  139.9804  157.7204 N   0  3  0  0  0  0  0  0  0  0  0  0
  151.8148  138.8406  157.0972 C   0  0  0  0  0  0  0  0  0  0  0  0
  150.0926  135.6289  154.6460 N   0  5  0  0  0  0  0  0  0  0  0  0
  149.2375  134.5661  155.1943 C   0  0  2  0  0  0  0  0  0  0  0  0
  149.5920  133.2303  154.5133 C   0  0  0  0  0  0  0  0  0  0  0  0
  148.6509  133.1070  153.2962 C   0  0  0  0  0  0  0  0  0  0  0  0
  147.7595  134.2827  153.3584 N   0  3  1  0  0  0  0  0  0  0  0  0
  146.3938  134.1230  152.8106 C   0  0  0  0  0  0  0  0  0  0  0  0
  145.6383  135.4641  152.9054 C   0  0  0  0  0  0  0  0  0  0  0  0
  145.6489  136.0279  154.3409 C   0  0  0  0  0  0  0  0  0  0  0  0
  147.0864  136.1213  154.8865 C   0  0  0  0  0  0  0  0  0  0  0  0
  147.7715  134.7424  154.7571 C   0  0  2  0  0  0  0  0  0  0  0  0
  149.6255  137.8940  154.7225 H   0  0  0  0  0  0  0  0  0  0  0  0
  149.5770  140.2013  154.9052 H   0  0  0  0  0  0  0  0  0  0  0  0
  150.3120  142.2572  156.0940 H   0  0  0  0  0  0  0  0  0  0  0  0
  151.4966  143.6774  156.6998 H   0  0  0  0  0  0  0  0  0  0  0  0
  150.4322  143.4837  158.0815 H   0  0  0  0  0  0  0  0  0  0  0  0
  153.1553  144.8803  158.0661 H   0  0  0  0  0  0  0  0  0  0  0  0
  151.6000  145.6554  158.2513 H   0  0  0  0  0  0  0  0  0  0  0  0
  152.7750  145.3487  160.4601 H   0  0  0  0  0  0  0  0  0  0  0  0
  151.2315  144.5261  160.4172 H   0  0  0  0  0  0  0  0  0  0  0  0
  153.9759  143.2420  159.9997 H   0  0  0  0  0  0  0  0  0  0  0  0
  152.9250  143.0054  161.3759 H   0  0  0  0  0  0  0  0  0  0  0  0
  151.2351  141.8802  159.9663 H   0  0  0  0  0  0  0  0  0  0  0  0
  152.7902  141.1019  159.7354 H   0  0  0  0  0  0  0  0  0  0  0  0
  152.2810  137.9437  157.4765 H   0  0  0  0  0  0  0  0  0  0  0  0
  149.3146  134.4776  156.2788 H   0  0  0  0  0  0  0  0  0  0  0  0
  150.6441  133.1601  154.2328 H   0  0  0  0  0  0  0  0  0  0  0  0
  149.3940  132.4091  155.2032 H   0  0  0  0  0  0  0  0  0  0  0  0
  149.1974  133.1062  152.3523 H   0  0  0  0  0  0  0  0  0  0  0  0
  148.0773  132.1802  153.3538 H   0  0  0  0  0  0  0  0  0  0  0  0
  146.4529  133.7964  151.7719 H   0  0  0  0  0  0  0  0  0  0  0  0
  145.8622  133.3474  153.3641 H   0  0  0  0  0  0  0  0  0  0  0  0
  146.1014  136.1875  152.2329 H   0  0  0  0  0  0  0  0  0  0  0  0
  144.6113  135.3382  152.5619 H   0  0  0  0  0  0  0  0  0  0  0  0
  145.1755  137.0098  154.3623 H   0  0  0  0  0  0  0  0  0  0  0  0
  145.0547  135.3829  154.9894 H   0  0  0  0  0  0  0  0  0  0  0  0
  147.6267  136.8855  154.3246 H   0  0  0  0  0  0  0  0  0  0  0  0
  147.0680  136.4503  155.9267 H   0  0  0  0  0  0  0  0  0  0  0  0
  147.1828  134.0300  155.3393 H   0  0  0  0  0  0  0  0  0  0  0  0
  148.2199  135.0121  152.8324 H   0  0  0  0  0  0  0  0  0  0  0  0
  152.8704  139.9186  158.4733 H   0  0  0  0  0  0  0  0  0  0  0  0
  1  2  2  0  0  0  0
  2  3  1  0  0  0  0
  2 16  1  0  0  0  0
  3  4  1  0  0  0  0
  3 26  1  0  0  0  0
  4 15  1  0  0  0  0
  4  5  2  0  0  0  0
  5  6  1  0  0  0  0
  5 27  1  0  0  0  0
  6  7  2  0  0  0  0
  6 28  1  0  0  0  0
  7  8  1  0  0  0  0
  7 14  1  0  0  0  0
  8 13  1  0  0  0  0
  8  9  1  0  0  0  0
  9 10  1  0  0  0  0
  9 29  1  0  0  0  0
  9 30  1  0  0  0  0
 10 11  1  0  0  0  0
 10 31  1  0  0  0  0
 10 32  1  0  0  0  0
 11 12  1  0  0  0  0
 11 33  1  0  0  0  0
 11 34  1  0  0  0  0
 12 13  1  0  0  0  0
 12 35  1  0  0  0  0
 12 36  1  0  0  0  0
 13 37  1  0  0  0  0
 13 38  1  0  0  0  0
 14 15  2  0  0  0  0
 14 55  1  0  0  0  0
 15 39  1  0  0  0  0
 16 17  1  0  0  0  0
 17 25  1  0  0  0  0
 17 18  1  0  0  0  0
 17 40  1  0  0  0  0
 18 19  1  0  0  0  0
 18 41  1  0  0  0  0
 18 42  1  0  0  0  0
 19 20  1  0  0  0  0
 19 43  1  0  0  0  0
 19 44  1  0  0  0  0
 20 25  1  0  0  0  0
 20 21  1  0  0  0  0
 20 54  1  0  0  0  0
 21 22  1  0  0  0  0
 21 45  1  0  0  0  0
 21 46  1  0  0  0  0
 22 23  1  0  0  0  0
 22 47  1  0  0  0  0
 22 48  1  0  0  0  0
 23 24  1  0  0  0  0
 23 49  1  0  0  0  0
 23 50  1  0  0  0  0
 24 25  1  0  0  0  0
 24 51  1  0  0  0  0
 24 52  1  0  0  0  0
 25 53  1  0  0  0  0
M  CHG  1  14   1
M  CHG  1  16  -1
M  CHG  1  20   1
M  END
> <s_m_source_file>
AV-unprocessed.smi

> <i_m_source_file_index>
1645

> <i_lp_mmshare_version>
43012

> <i_f3d_flags>
0

> <s_epik_input>
W0NIMl0xW0NIMl1bQ0gyXVtDSDJdW0NASF0oTjEyKVtDQEBIXShbQ0gyXVtDSDJdMilbTkhdQyg9TylbTkhdYzNbY0hdW2NIXWMobltjSF0zKU40W0NIMl1bQ0gyXVtDSDJdW0NIMl1bQ0gyXTQ=

> <s_epik_cmdline>
J2VwaWtfcHl0aG9uJywgJy1waCcsICc3LjAnLCAnLXRuJywgJzgnLCAnLW1hJywgJzIwMCcsICctbWV0YWxfYmluZGluZycsICctaW1hZScsICc8aW5maWxlLm1hZT4nLCAnLW9tYWUnLCAnPG91dGZpbGUubWFlPic=

> <r_lp_tautomer_probability>
0.999994

> <r_epik_Ionization_Penalty>
8.55589

> <r_epik_Ionization_Penalty_Charging>
8.55589

> <r_epik_Ionization_Penalty_Neutral>
3.8092e-06

> <r_epik_State_Penalty>
8.15703

> <r_epik_Charging_Adjusted_Penalty>
16.7129

> <i_epik_Tot_Q>
1

> <i_epik_Tot_abs_Q>
3

> <r_epik_Metal_State_Penalty>
4.13781

> <b_epik_Metal_Only>
1

> <s_lp_Force_Field>
OPLS_2005

> <r_lp_Energy>
55.4093

> <b_lp_Chiralities_Consistent>
1

> <s_lp_Variant>
AV-unprocessed.smi:1645-23

> <Gold.Version>
5.8.1

> <Gold.Id.Protein>
6NUR|6NUR_protein|mol2

> <Gold.PLP.Fitness>
49.5572

> <Gold.PLP.PLP>
-42.2114

> <Gold.PLP.part.hbond>
-2.0000

> <Gold.PLP.part.metal>
0.0000

> <Gold.PLP.part.buried>
-3.7901

> <Gold.PLP.part.nonpolar>
-36.7403

> <Gold.PLP.part.repulsive>
0.6427

> <Gold.PLP.ligand.clash>
0.0000

> <Gold.PLP.ligand.torsion>
0.9374

> <Gold.PLP.Chemscore.Hbond>
3.0000

> <Gold.PLP.Chemscore.CHOScore>
0.0000

> <Gold.PLP.Chemscore.Metal>
0.0000

> <Gold.Chemscore.Hbonds>
donor molecule, donor type, donor heavy atom, donor atom, acceptor molecule, acceptor atom, score
      L1  H    20    54       P1  7948  2.00
      P1  H 10752 10764       L1     1  1.00

> <Gold.PLP.Chemscore.Internal.Correction>
0.2206

> <Gold.Rescore>
     Score         DG    S(hbond)    S(metal)    S(lipo)     H(rot)  DE(clash)    DE(int)     intcor
     17.85     -20.94       1.85        0.00     104.98       1.17       0.66       2.42       ----

> <Gold.Chemscore.Fitness>
17.8521

> <Gold.Chemscore.DG>
-20.9379

> <Gold.Chemscore.ZeroCoef>
-5.4800

> <Gold.Chemscore.Hbond>
1.8499

> <Gold.Chemscore.Metal>
0.0000

> <Gold.Chemscore.Lipo>
104.9796

> <Gold.Chemscore.Internal_Hbond>
0.0000

> <Gold.Chemscore.DEClash>
0.6639

> <Gold.Chemscore.DEInternal>
2.4220

> <Gold.Chemscore.Rot>
1.1731

> <Gold.Chemscore.Internal.Correction>
   9.000000E+99

> <Gold.Chemscore.Hbonds>
donor molecule, donor type, donor heavy atom, donor atom, acceptor molecule, acceptor atom, score
      L1  H    20    54       P1  7948  0.85
      P1  H 10752 10764       L1     1  0.55

> <Gold.Chemscore.Hbond.Weighted>
-6.1786

> <Gold.Chemscore.Metal.Weighted>
-0.0000

> <Gold.Chemscore.Lipo.Weighted>
-12.2826

> <Gold.Chemscore.Internal_Hbond.Weighted>
0.0000

> <Gold.Chemscore.DEClash.Weighted>
0.6639

> <Gold.Chemscore.DEInternal.Weighted>
2.4220

> <Gold.Chemscore.Rot.Weighted>
3.0032

> <Gold.Chemscore.Internal.Correction.Weighted>
   9.000000E+99

> <Gold.Protein.RotatedTorsions>
[ 6907 6896 6895 6894 ] final  -42.02 input  -60.11 | X-H torsion
[ 7974 7965 7964 7962 ] final  -31.81 input  175.53 | X-H torsion
[ 8008 7997 7996 7995 ] final   -6.33 input   59.86 | X-H torsion
[ 10167 10162 10161 10158 ] final   59.84 input  -65.29 | X-H torsion
[ 10718 10713 10712 10709 ] final  -17.06 input   66.30 | X-H torsion
[ 10763 10752 10751 10750 ] final  -43.91 input  -60.55 | X-H torsion
[ 11005 11000 10999 10996 ] final -100.38 input  -57.11 | X-H torsion

> <Gold.Protein.ActiveResidues>
 VAL166  LYS551  ARG553  GLY616  TRP617  ASP618  TYR619  PRO620  LYS621  CYS622 
 ASP623  PHE694  ASN695  SER759  ASP760  ASP761  ALA762  ILE779  LEU786  VAL792 
 PHE793  MET794  SER795  GLU796  ALA797  LYS798  CYS799  TRP800  GLU811  SER814 

> <Gold.Protein.RotatedAtoms>
  150.9600  134.8989  159.7724 H   0  0  0  0  0  0  0  0  0  0  0  0  # atno 6907 bound_to 6896
  152.5152  134.3686  159.9320 H   0  0  0  0  0  0  0  0  0  0  0  0  # atno 6908 bound_to 6896
  151.3698  133.3818  159.2733 H   0  0  0  0  0  0  0  0  0  0  0  0  # atno 6909 bound_to 6896
  146.1038  140.5714  142.8809 H   0  0  0  0  0  0  0  0  0  0  0  0  # atno 7974 bound_to 7965
  154.5948  140.2435  155.7871 H   0  0  0  0  0  0  0  0  0  0  0  0  # atno 8008 bound_to 7997
  156.2272  140.2978  156.0050 H   0  0  0  0  0  0  0  0  0  0  0  0  # atno 8009 bound_to 7997
  155.2311  140.0403  157.2952 H   0  0  0  0  0  0  0  0  0  0  0  0  # atno 8010 bound_to 7997
  140.1721  144.4266  150.6656 H   0  0  0  0  0  0  0  0  0  0  0  0  # atno 10167 bound_to 10162
  156.5788  130.4768  149.6330 H   0  0  0  0  0  0  0  0  0  0  0  0  # atno 10718 bound_to 10713
  154.0034  135.6690  153.4760 H   0  0  0  0  0  0  0  0  0  0  0  0  # atno 10763 bound_to 10752
  153.0652  135.5005  154.8180 H   0  0  0  0  0  0  0  0  0  0  0  0  # atno 10764 bound_to 10752
  154.7039  135.3084  154.9263 H   0  0  0  0  0  0  0  0  0  0  0  0  # atno 10765 bound_to 10752
  141.1273  133.8394  157.1095 H   0  0  0  0  0  0  0  0  0  0  0  0  # atno 11005 bound_to 11000
  144.7454  140.5055  143.6839 LP  0  0  0  0  0  0  0  0  0  0  0  0  # atno 17320 bound_to 7965
  145.5801  139.1488  143.3240 LP  0  0  0  0  0  0  0  0  0  0  0  0  # atno 17321 bound_to 7965
  140.6575  143.2242  151.5934 LP  0  0  0  0  0  0  0  0  0  0  0  0  # atno 17342 bound_to 10162
  139.5333  144.2852  152.1197 LP  0  0  0  0  0  0  0  0  0  0  0  0  # atno 17343 bound_to 10162
  156.2650  130.6984  151.1764 LP  0  0  0  0  0  0  0  0  0  0  0  0  # atno 17370 bound_to 10713
  157.7331  131.0593  150.5592 LP  0  0  0  0  0  0  0  0  0  0  0  0  # atno 17371 bound_to 10713
  140.0284  134.9913  157.0732 LP  0  0  0  0  0  0  0  0  0  0  0  0  # atno 17394 bound_to 11000
  140.4325  134.1765  155.7169 LP  0  0  0  0  0  0  0  0  0  0  0  0  # atno 17395 bound_to 11000

$$$$
