AV-unprocessed.smi:944|AV-procd|sdf|4232|dock1
  -GOLD-   22720 2143D 1   1.00000     0.00000
 Structure written by MMmdl.
 28 28  0  0  0  0  0  0  0  0  1 V2000
  146.4484  134.3185  152.7206 C   0  0  0  0  0  0  0  0  0  0  0  0
  147.6075  134.7107  153.5073 N   0  0  0  0  0  0  0  0  0  0  0  0
  147.9454  134.1573  154.6805 C   0  0  0  0  0  0  0  0  0  0  0  0
  147.2921  133.2584  155.2131 O   0  0  0  0  0  0  0  0  0  0  0  0
  149.2045  134.7213  155.3602 C   0  0  1  0  0  0  0  0  0  0  0  0
  150.2917  133.6345  155.3233 C   0  0  0  0  0  0  0  0  0  0  0  0
  149.7066  135.8862  154.6326 N   0  0  0  0  0  0  0  0  0  0  0  0
  150.1962  137.0016  155.1965 C   0  0  0  0  0  0  0  0  0  0  0  0
  150.2967  137.1512  156.4151 O   0  0  0  0  0  0  0  0  0  0  0  0
  150.6374  138.1038  154.2268 C   0  0  0  0  0  0  0  0  0  0  0  0
  149.8374  139.3105  154.3544 N   0  0  0  0  0  0  0  0  0  0  0  0
  148.5248  139.5023  154.2071 C   0  0  0  0  0  0  0  0  0  0  0  0
  148.1418  140.7570  154.3997 N   0  0  0  0  0  0  0  0  0  0  0  0
  149.3527  141.3241  154.6810 C   0  0  0  0  0  0  0  0  0  0  0  0
  150.4021  140.5019  154.6629 N   0  0  0  0  0  0  0  0  0  0  0  0
  146.4010  134.9112  151.8073 H   0  0  0  0  0  0  0  0  0  0  0  0
  145.5261  134.4802  153.2803 H   0  0  0  0  0  0  0  0  0  0  0  0
  146.5070  133.2654  152.4413 H   0  0  0  0  0  0  0  0  0  0  0  0
  148.1920  135.4457  153.1358 H   0  0  0  0  0  0  0  0  0  0  0  0
  148.9882  134.9894  156.3964 H   0  0  0  0  0  0  0  0  0  0  0  0
  149.9715  132.7340  155.8493 H   0  0  0  0  0  0  0  0  0  0  0  0
  151.2048  133.9832  155.8066 H   0  0  0  0  0  0  0  0  0  0  0  0
  150.5481  133.3496  154.3014 H   0  0  0  0  0  0  0  0  0  0  0  0
  149.6550  135.8477  153.6251 H   0  0  0  0  0  0  0  0  0  0  0  0
  151.6868  138.3426  154.4062 H   0  0  0  0  0  0  0  0  0  0  0  0
  150.5577  137.7492  153.1981 H   0  0  0  0  0  0  0  0  0  0  0  0
  147.8365  138.7083  153.9563 H   0  0  0  0  0  0  0  0  0  0  0  0
  149.4648  142.3754  154.9025 H   0  0  0  0  0  0  0  0  0  0  0  0
  1  2  1  0  0  0  0
  1 16  1  0  0  0  0
  1 17  1  0  0  0  0
  1 18  1  0  0  0  0
  2  3  1  0  0  0  0
  2 19  1  0  0  0  0
  3  4  2  0  0  0  0
  3  5  1  0  0  0  0
  5  6  1  0  0  0  0
  5  7  1  0  0  0  0
  5 20  1  0  0  0  0
  6 21  1  0  0  0  0
  6 22  1  0  0  0  0
  6 23  1  0  0  0  0
  7  8  1  0  0  0  0
  7 24  1  0  0  0  0
  8  9  2  0  0  0  0
  8 10  1  0  0  0  0
 10 11  1  0  0  0  0
 10 25  1  0  0  0  0
 10 26  1  0  0  0  0
 11 15  1  0  0  0  0
 11 12  1  0  0  0  0
 12 13  2  0  0  0  0
 12 27  1  0  0  0  0
 13 14  1  0  0  0  0
 14 15  2  0  0  0  0
 14 28  1  0  0  0  0
M  END
> <s_m_source_file>
AV-unprocessed.smi

> <i_m_source_file_index>
944

> <i_lp_mmshare_version>
43012

> <i_f3d_flags>
0

> <s_epik_input>
W0NIM11bTkhdQyg9TylbQ0BIXShbQ0gzXSlbTkhdQyg9TylbQ0gyXW4xW2NIXW5bY0hdbjE=

> <s_epik_cmdline>
J2VwaWtfcHl0aG9uJywgJy1waCcsICc3LjAnLCAnLXRuJywgJzgnLCAnLW1hJywgJzIwMCcsICctbWV0YWxfYmluZGluZycsICctaW1hZScsICc8aW5maWxlLm1hZT4nLCAnLW9tYWUnLCAnPG91dGZpbGUubWFlPic=

> <r_lp_tautomer_probability>
1

> <r_epik_Ionization_Penalty>
7.54354e-06

> <r_epik_Ionization_Penalty_Charging>
0

> <r_epik_Ionization_Penalty_Neutral>
7.54354e-06

> <r_epik_State_Penalty>
-0

> <r_epik_Charging_Adjusted_Penalty>
0

> <i_epik_Tot_Q>
0

> <i_epik_Tot_abs_Q>
0

> <r_epik_Metal_State_Penalty>
-0

> <b_epik_Metal_Only>
0

> <s_lp_Force_Field>
OPLS_2005

> <r_lp_Energy>
4.79019

> <b_lp_Chiralities_Consistent>
1

> <s_lp_Variant>
AV-unprocessed.smi:944-2

> <Gold.Version>
5.8.1

> <Gold.Id.Protein>
6NUR|6NUR_protein|mol2

> <Gold.PLP.Fitness>
32.6763

> <Gold.PLP.PLP>
-21.6565

> <Gold.PLP.part.hbond>
-3.0000

> <Gold.PLP.part.metal>
0.0000

> <Gold.PLP.part.buried>
-2.3831

> <Gold.PLP.part.nonpolar>
-16.2163

> <Gold.PLP.part.repulsive>
0.2710

> <Gold.PLP.ligand.clash>
0.0000

> <Gold.PLP.ligand.torsion>
0.4111

> <Gold.PLP.Chemscore.Hbond>
2.9420

> <Gold.PLP.Chemscore.CHOScore>
1.0000

> <Gold.PLP.Chemscore.Metal>
0.0000

> <Gold.Chemscore.Hbonds>
donor molecule, donor type, donor heavy atom, donor atom, acceptor molecule, acceptor atom, score
      L1  H     2    19       P1  7948  1.00
      L1  H     7    24       P1  7948  0.95
      P1  H  7989  7998       L1    15  0.99
      L1  C    14    28       P1  8028  1.00

> <Gold.PLP.Chemscore.Internal.Correction>
0.0160

> <Gold.Rescore>
     Score         DG    S(hbond)    S(metal)    S(lipo)     H(rot)  DE(clash)    DE(int)     intcor
      8.64      -9.25       2.49        0.00      21.20       2.74       0.07       0.55       ----

> <Gold.Chemscore.Fitness>
8.6356

> <Gold.Chemscore.DG>
-9.2512

> <Gold.Chemscore.ZeroCoef>
-5.4800

> <Gold.Chemscore.Hbond>
2.4886

> <Gold.Chemscore.Metal>
0.0000

> <Gold.Chemscore.Lipo>
21.1988

> <Gold.Chemscore.Internal_Hbond>
0.0000

> <Gold.Chemscore.DEClash>
0.0694

> <Gold.Chemscore.DEInternal>
0.5462

> <Gold.Chemscore.Rot>
2.7426

> <Gold.Chemscore.Internal.Correction>
   9.000000E+99

> <Gold.Chemscore.Hbonds>
donor molecule, donor type, donor heavy atom, donor atom, acceptor molecule, acceptor atom, score
      L1  H     2    19       P1  7948  0.95
      L1  H     7    24       P1  7948  0.21
      P1  H  7989  7998       L1    15  0.63

> <Gold.Chemscore.Hbond.Weighted>
-8.3119

> <Gold.Chemscore.Metal.Weighted>
-0.0000

> <Gold.Chemscore.Lipo.Weighted>
-2.4803

> <Gold.Chemscore.Internal_Hbond.Weighted>
0.0000

> <Gold.Chemscore.DEClash.Weighted>
0.0694

> <Gold.Chemscore.DEInternal.Weighted>
0.5462

> <Gold.Chemscore.Rot.Weighted>
7.0210

> <Gold.Chemscore.Internal.Correction.Weighted>
   9.000000E+99

> <Gold.Protein.RotatedTorsions>
[ 6907 6896 6895 6894 ] final -176.14 input  -60.11 | X-H torsion
[ 7974 7965 7964 7962 ] final  -35.66 input  175.53 | X-H torsion
[ 8008 7997 7996 7995 ] final   79.99 input   59.86 | X-H torsion
[ 10167 10162 10161 10158 ] final   31.63 input  -65.29 | X-H torsion
[ 10718 10713 10712 10709 ] final    6.20 input   66.30 | X-H torsion
[ 10763 10752 10751 10750 ] final   39.19 input  -60.55 | X-H torsion
[ 11005 11000 10999 10996 ] final   72.46 input  -57.11 | X-H torsion

> <Gold.Protein.ActiveResidues>
 VAL166  LYS551  ARG553  GLY616  TRP617  ASP618  TYR619  PRO620  LYS621  CYS622 
 ASP623  PHE694  ASN695  SER759  ASP760  ASP761  ALA762  ILE779  LEU786  VAL792 
 PHE793  MET794  SER795  GLU796  ALA797  LYS798  CYS799  TRP800  GLU811  SER814 

> <Gold.Protein.RotatedAtoms>
  151.5999  133.3357  159.3045 H   0  0  0  0  0  0  0  0  0  0  0  0  # atno 6907 bound_to 6896
  150.8213  134.7426  159.6786 H   0  0  0  0  0  0  0  0  0  0  0  0  # atno 6908 bound_to 6896
  152.4306  134.5790  159.9994 H   0  0  0  0  0  0  0  0  0  0  0  0  # atno 6909 bound_to 6896
  146.0728  140.6186  142.8945 H   0  0  0  0  0  0  0  0  0  0  0  0  # atno 7974 bound_to 7965
  155.8773  140.3446  155.5863 H   0  0  0  0  0  0  0  0  0  0  0  0  # atno 8008 bound_to 7997
  155.7760  140.0852  157.2103 H   0  0  0  0  0  0  0  0  0  0  0  0  # atno 8009 bound_to 7997
  154.4022  140.1509  156.2984 H   0  0  0  0  0  0  0  0  0  0  0  0  # atno 8010 bound_to 7997
  140.4571  144.0961  150.6204 H   0  0  0  0  0  0  0  0  0  0  0  0  # atno 10167 bound_to 10162
  156.9186  130.5782  149.5647 H   0  0  0  0  0  0  0  0  0  0  0  0  # atno 10718 bound_to 10713
  152.9975  135.6228  154.2425 H   0  0  0  0  0  0  0  0  0  0  0  0  # atno 10763 bound_to 10752
  154.2166  135.2797  155.2941 H   0  0  0  0  0  0  0  0  0  0  0  0  # atno 10764 bound_to 10752
  154.5563  135.5718  153.7025 H   0  0  0  0  0  0  0  0  0  0  0  0  # atno 10765 bound_to 10752
  139.9490  134.7261  156.0909 H   0  0  0  0  0  0  0  0  0  0  0  0  # atno 11005 bound_to 11000
  144.7242  140.4472  143.6985 LP  0  0  0  0  0  0  0  0  0  0  0  0  # atno 17320 bound_to 7965
  145.6361  139.1543  143.2942 LP  0  0  0  0  0  0  0  0  0  0  0  0  # atno 17321 bound_to 7965
  140.4138  143.2644  151.9801 LP  0  0  0  0  0  0  0  0  0  0  0  0  # atno 17342 bound_to 10162
  139.4802  144.5892  151.7801 LP  0  0  0  0  0  0  0  0  0  0  0  0  # atno 17343 bound_to 10162
  156.0501  130.5572  150.8971 LP  0  0  0  0  0  0  0  0  0  0  0  0  # atno 17370 bound_to 10713
  157.5922  131.0944  150.9100 LP  0  0  0  0  0  0  0  0  0  0  0  0  # atno 17371 bound_to 10713
  141.1148  133.6631  156.3066 LP  0  0  0  0  0  0  0  0  0  0  0  0  # atno 17394 bound_to 11000
  140.5765  134.5788  157.5470 LP  0  0  0  0  0  0  0  0  0  0  0  0  # atno 17395 bound_to 11000

$$$$
