AV-unprocessed.smi:2278|AV-procd|sdf|9182|dock4
  -GOLD-   2272012403D 1   1.00000     0.00000
 Structure written by MMmdl.
 46 47  0  0  0  0  0  0  0  0  2 V2000
  152.3871  138.9720  155.5132 C   0  0  0  0  0  0  0  0  0  0  0  0
  150.9113  138.9432  155.1578 C   0  0  0  0  0  0  0  0  0  0  0  0
  150.4805  139.9465  154.2846 N   0  0  0  0  0  0  0  0  0  0  0  0
  149.2395  140.0012  153.9264 C   0  0  0  0  0  0  0  0  0  0  0  0
  148.2959  139.0721  154.3941 N   0  0  0  0  0  0  0  0  0  0  0  0
  146.9119  139.2506  153.9243 C   0  0  0  0  0  0  0  0  0  0  0  0
  146.5411  138.2416  152.8136 C   0  0  1  0  0  0  0  0  0  0  0  0
  147.6279  138.1509  151.9133 O   0  0  0  0  0  0  0  0  0  0  0  0
  146.2993  136.8297  153.3855 C   0  0  0  0  0  0  0  0  0  0  0  0
  146.2338  135.7929  152.3238 N   0  3  2  0  0  0  0  0  0  0  0  0
  145.1236  136.0096  151.3585 C   0  0  0  0  0  0  0  0  0  0  0  0
  145.1878  134.9950  150.2029 C   0  0  0  0  0  0  0  0  0  0  0  0
  145.1897  133.5396  150.7049 C   0  0  2  0  0  0  0  0  0  0  0  0
  143.8102  133.0830  151.2113 C   0  0  0  0  0  0  0  0  0  0  0  0
  146.2991  133.3630  151.7577 C   0  0  0  0  0  0  0  0  0  0  0  0
  146.2139  134.4153  152.8781 C   0  0  0  0  0  0  0  0  0  0  0  0
  148.6307  138.0643  155.2512 C   0  0  0  0  0  0  0  0  0  0  0  0
  147.7893  137.2638  155.6651 O   0  0  0  0  0  0  0  0  0  0  0  0
  150.0470  138.0127  155.6471 C   0  0  0  0  0  0  0  0  0  0  0  0
  150.4574  136.8986  156.6018 C   0  0  0  0  0  0  0  0  0  0  0  0
  152.8704  138.0404  155.2179 H   0  0  0  0  0  0  0  0  0  0  0  0
  152.5184  139.1086  156.5871 H   0  0  0  0  0  0  0  0  0  0  0  0
  152.9020  139.7899  155.0072 H   0  0  0  0  0  0  0  0  0  0  0  0
  148.8528  140.7657  153.2504 H   0  0  0  0  0  0  0  0  0  0  0  0
  146.1864  139.2121  154.7399 H   0  0  0  0  0  0  0  0  0  0  0  0
  146.8197  140.2678  153.5390 H   0  0  0  0  0  0  0  0  0  0  0  0
  145.6605  138.5842  152.2717 H   0  0  0  0  0  0  0  0  0  0  0  0
  148.2373  138.8484  152.1030 H   0  0  0  0  0  0  0  0  0  0  0  0
  147.1011  136.5981  154.0889 H   0  0  0  0  0  0  0  0  0  0  0  0
  145.3745  136.8011  153.9639 H   0  0  0  0  0  0  0  0  0  0  0  0
  144.1666  135.9365  151.8769 H   0  0  0  0  0  0  0  0  0  0  0  0
  145.1722  137.0153  150.9429 H   0  0  0  0  0  0  0  0  0  0  0  0
  144.3568  135.1568  149.5155 H   0  0  0  0  0  0  0  0  0  0  0  0
  146.0960  135.1752  149.6260 H   0  0  0  0  0  0  0  0  0  0  0  0
  145.4347  132.8988  149.8569 H   0  0  0  0  0  0  0  0  0  0  0  0
  143.4705  133.6668  152.0664 H   0  0  0  0  0  0  0  0  0  0  0  0
  143.8335  132.0364  151.5160 H   0  0  0  0  0  0  0  0  0  0  0  0
  143.0571  133.1773  150.4285 H   0  0  0  0  0  0  0  0  0  0  0  0
  146.2613  132.3593  152.1824 H   0  0  0  0  0  0  0  0  0  0  0  0
  147.2707  133.4466  151.2687 H   0  0  0  0  0  0  0  0  0  0  0  0
  147.0604  134.2801  153.5527 H   0  0  0  0  0  0  0  0  0  0  0  0
  145.3117  134.2713  153.4742 H   0  0  0  0  0  0  0  0  0  0  0  0
  149.8959  136.9763  157.5334 H   0  0  0  0  0  0  0  0  0  0  0  0
  151.5160  136.9181  156.8555 H   0  0  0  0  0  0  0  0  0  0  0  0
  150.2441  135.9256  156.1582 H   0  0  0  0  0  0  0  0  0  0  0  0
  147.0972  135.8722  151.8052 H   0  0  0  0  0  0  0  0  0  0  0  0
  1  2  1  0  0  0  0
  1 21  1  0  0  0  0
  1 22  1  0  0  0  0
  1 23  1  0  0  0  0
  2 19  2  0  0  0  0
  2  3  1  0  0  0  0
  3  4  2  0  0  0  0
  4  5  1  0  0  0  0
  4 24  1  0  0  0  0
  5  6  1  0  0  0  0
  5 17  1  0  0  0  0
  6  7  1  0  0  0  0
  6 25  1  0  0  0  0
  6 26  1  0  0  0  0
  7  8  1  0  0  0  0
  7  9  1  0  0  0  0
  7 27  1  0  0  0  0
  8 28  1  0  0  0  0
  9 10  1  0  0  0  0
  9 29  1  0  0  0  0
  9 30  1  0  0  0  0
 10 16  1  0  0  0  0
 10 11  1  0  0  0  0
 10 46  1  0  0  0  0
 11 12  1  0  0  0  0
 11 31  1  0  0  0  0
 11 32  1  0  0  0  0
 12 13  1  0  0  0  0
 12 33  1  0  0  0  0
 12 34  1  0  0  0  0
 13 14  1  0  0  0  0
 13 15  1  0  0  0  0
 13 35  1  0  0  0  0
 14 36  1  0  0  0  0
 14 37  1  0  0  0  0
 14 38  1  0  0  0  0
 15 16  1  0  0  0  0
 15 39  1  0  0  0  0
 15 40  1  0  0  0  0
 16 41  1  0  0  0  0
 16 42  1  0  0  0  0
 17 18  2  0  0  0  0
 17 19  1  0  0  0  0
 19 20  1  0  0  0  0
 20 43  1  0  0  0  0
 20 44  1  0  0  0  0
 20 45  1  0  0  0  0
M  CHG  1  10   1
M  END
> <s_m_source_file>
AV-unprocessed.smi

> <i_m_source_file_index>
2278

> <i_lp_mmshare_version>
43012

> <i_f3d_flags>
0

> <s_epik_input>
W0NIM11jMW5bY0hdbihjKD1PKWMxW0NIM10pW0NIMl1bQ0BIXShbT0hdKVtDSDJdTjJbQ0gyXVtDSDJdW0NIXShbQ0gzXSlbQ0gyXVtDSDJdMg==

> <s_epik_cmdline>
J2VwaWtfcHl0aG9uJywgJy1waCcsICc3LjAnLCAnLXRuJywgJzgnLCAnLW1hJywgJzIwMCcsICctbWV0YWxfYmluZGluZycsICctaW1hZScsICc8aW5maWxlLm1hZT4nLCAnLW9tYWUnLCAnPG91dGZpbGUubWFlPic=

> <r_lp_tautomer_probability>
1

> <r_epik_Ionization_Penalty>
0.00139489

> <r_epik_Ionization_Penalty_Charging>
0.00136819

> <r_epik_Ionization_Penalty_Neutral>
2.66975e-05

> <r_epik_State_Penalty>
0.000910892

> <r_epik_Charging_Adjusted_Penalty>
0.00227908

> <i_epik_Tot_Q>
1

> <i_epik_Tot_abs_Q>
1

> <r_epik_Metal_State_Penalty>
-0

> <b_epik_Metal_Only>
0

> <s_lp_Force_Field>
OPLS_2005

> <r_lp_Energy>
31.1112

> <b_lp_Chiralities_Consistent>
1

> <s_lp_Variant>
AV-unprocessed.smi:2278-4

> <Gold.Version>
5.8.1

> <Gold.Id.Protein>
6NUR|6NUR_protein|mol2

> <Gold.PLP.Fitness>
43.1024

> <Gold.PLP.PLP>
-30.0283

> <Gold.PLP.part.hbond>
-4.3856

> <Gold.PLP.part.metal>
0.0000

> <Gold.PLP.part.buried>
1.2144

> <Gold.PLP.part.nonpolar>
-27.3472

> <Gold.PLP.part.repulsive>
0.6690

> <Gold.PLP.ligand.clash>
0.0000

> <Gold.PLP.ligand.torsion>
0.4498

> <Gold.PLP.Chemscore.Hbond>
4.2543

> <Gold.PLP.Chemscore.CHOScore>
0.3814

> <Gold.PLP.Chemscore.Metal>
0.0000

> <Gold.Chemscore.Hbonds>
donor molecule, donor type, donor heavy atom, donor atom, acceptor molecule, acceptor atom, score
      L1  H     8    28       P1  7957  0.77
      L1  H    10    46       P1  7948  1.95
      P1  H  7954  7966       L1     8  0.70
      P1  H  7989  7998       L1     3  1.00
      L1  C     4    24       P1  7957  0.47

> <Gold.PLP.Chemscore.Internal.Correction>
0.0667

> <Gold.Rescore>
     Score         DG    S(hbond)    S(metal)    S(lipo)     H(rot)  DE(clash)    DE(int)     intcor
     12.80     -17.94       2.83        0.00      73.75       2.20       3.23       1.91       ----

> <Gold.Chemscore.Fitness>
12.7989

> <Gold.Chemscore.DG>
-17.9416

> <Gold.Chemscore.ZeroCoef>
-5.4800

> <Gold.Chemscore.Hbond>
2.8327

> <Gold.Chemscore.Metal>
0.0000

> <Gold.Chemscore.Lipo>
73.7497

> <Gold.Chemscore.Internal_Hbond>
0.0000

> <Gold.Chemscore.DEClash>
3.2309

> <Gold.Chemscore.DEInternal>
1.9118

> <Gold.Chemscore.Rot>
2.1986

> <Gold.Chemscore.Internal.Correction>
   9.000000E+99

> <Gold.Chemscore.Hbonds>
donor molecule, donor type, donor heavy atom, donor atom, acceptor molecule, acceptor atom, score
      L1  H     8    28       P1  7957  0.71
      L1  H    10    46       P1  7948  0.93
      P1  H  7954  7966       L1     8  0.12
      P1  H  7989  7998       L1     3  0.94

> <Gold.Chemscore.Hbond.Weighted>
-9.4614

> <Gold.Chemscore.Metal.Weighted>
-0.0000

> <Gold.Chemscore.Lipo.Weighted>
-8.6287

> <Gold.Chemscore.Internal_Hbond.Weighted>
0.0000

> <Gold.Chemscore.DEClash.Weighted>
3.2309

> <Gold.Chemscore.DEInternal.Weighted>
1.9118

> <Gold.Chemscore.Rot.Weighted>
5.6285

> <Gold.Chemscore.Internal.Correction.Weighted>
   9.000000E+99

> <Gold.Protein.RotatedTorsions>
[ 6907 6896 6895 6894 ] final  142.16 input  -60.11 | X-H torsion
[ 7974 7965 7964 7962 ] final  109.31 input  175.53 | X-H torsion
[ 8008 7997 7996 7995 ] final  -35.45 input   59.86 | X-H torsion
[ 10167 10162 10161 10158 ] final  171.95 input  -65.29 | X-H torsion
[ 10718 10713 10712 10709 ] final  -25.55 input   66.30 | X-H torsion
[ 10763 10752 10751 10750 ] final  101.15 input  -60.55 | X-H torsion
[ 11005 11000 10999 10996 ] final  -83.87 input  -57.11 | X-H torsion

> <Gold.Protein.ActiveResidues>
 VAL166  LYS551  ARG553  GLY616  TRP617  ASP618  TYR619  PRO620  LYS621  CYS622 
 ASP623  PHE694  ASN695  SER759  ASP760  ASP761  ALA762  ILE779  LEU786  VAL792 
 PHE793  MET794  SER795  GLU796  ALA797  LYS798  CYS799  TRP800  GLU811  SER814 

> <Gold.Protein.RotatedAtoms>
  152.2221  133.4992  159.5168 H   0  0  0  0  0  0  0  0  0  0  0  0  # atno 6907 bound_to 6896
  150.7015  134.1328  159.4085 H   0  0  0  0  0  0  0  0  0  0  0  0  # atno 6908 bound_to 6896
  151.9249  135.0282  160.0575 H   0  0  0  0  0  0  0  0  0  0  0  0  # atno 6909 bound_to 6896
  145.2694  139.2672  143.3974 H   0  0  0  0  0  0  0  0  0  0  0  0  # atno 7974 bound_to 7965
  154.4095  140.1657  156.2214 H   0  0  0  0  0  0  0  0  0  0  0  0  # atno 8008 bound_to 7997
  155.9361  140.3411  155.6265 H   0  0  0  0  0  0  0  0  0  0  0  0  # atno 8009 bound_to 7997
  155.7047  140.0749  157.2386 H   0  0  0  0  0  0  0  0  0  0  0  0  # atno 8010 bound_to 7997
  139.5062  144.3428  152.0001 H   0  0  0  0  0  0  0  0  0  0  0  0  # atno 10167 bound_to 10162
  156.4630  130.4508  149.6917 H   0  0  0  0  0  0  0  0  0  0  0  0  # atno 10718 bound_to 10713
  153.3230  135.4054  155.1432 H   0  0  0  0  0  0  0  0  0  0  0  0  # atno 10763 bound_to 10752
  154.8605  135.3592  154.5571 H   0  0  0  0  0  0  0  0  0  0  0  0  # atno 10764 bound_to 10752
  153.6005  135.7071  153.5445 H   0  0  0  0  0  0  0  0  0  0  0  0  # atno 10765 bound_to 10752
  141.1655  133.7317  156.8784 H   0  0  0  0  0  0  0  0  0  0  0  0  # atno 11005 bound_to 11000
  146.3251  140.3132  142.8628 LP  0  0  0  0  0  0  0  0  0  0  0  0  # atno 17320 bound_to 7965
  144.9348  140.8015  143.5667 LP  0  0  0  0  0  0  0  0  0  0  0  0  # atno 17321 bound_to 7965
  140.2866  144.3801  150.6102 LP  0  0  0  0  0  0  0  0  0  0  0  0  # atno 17342 bound_to 10162
  140.5978  143.2167  151.7130 LP  0  0  0  0  0  0  0  0  0  0  0  0  # atno 17343 bound_to 10162
  156.3697  130.7524  151.2506 LP  0  0  0  0  0  0  0  0  0  0  0  0  # atno 17370 bound_to 10713
  157.7496  131.0326  150.4236 LP  0  0  0  0  0  0  0  0  0  0  0  0  # atno 17371 bound_to 10713
  140.1732  134.9085  157.2859 LP  0  0  0  0  0  0  0  0  0  0  0  0  # atno 17394 bound_to 11000
  140.2478  134.3718  155.7454 LP  0  0  0  0  0  0  0  0  0  0  0  0  # atno 17395 bound_to 11000

$$$$
