AV-unprocessed.smi:685|AV-procd|sdf|3336|dock5
  -GOLD-   22720 0303D 1   1.00000     0.00000
 Structure written by MMmdl.
 51 52  0  0  0  0  0  0  0  0  2 V2000
  148.6617  141.3054  154.2005 C   0  0  0  0  0  0  0  0  0  0  0  0
  149.6092  141.3974  155.3494 C   0  0  0  0  0  0  0  0  0  0  0  0
  150.0568  142.5647  155.8848 N   0  3  0  0  0  0  0  0  0  0  0  0
  150.8916  142.3167  156.9044 N   0  0  0  0  0  0  0  0  0  0  0  0
  151.4857  143.4428  157.6252 C   0  0  0  0  0  0  0  0  0  0  0  0
  151.0353  140.9723  157.0798 C   0  0  0  0  0  0  0  0  0  0  0  0
  151.8953  140.3394  158.1251 C   0  0  0  0  0  0  0  0  0  0  0  0
  150.2232  140.3876  156.0996 C   0  0  0  0  0  0  0  0  0  0  0  0
  150.0271  138.9142  155.8785 C   0  0  0  0  0  0  0  0  0  0  0  0
  150.5919  138.4247  154.5270 C   0  0  1  0  0  0  0  0  0  0  0  0
  152.1197  138.5615  154.4368 C   0  0  0  0  0  0  0  0  0  0  0  0
  150.2237  137.0301  154.2985 N   0  0  0  0  0  0  0  0  0  0  0  0
  150.7433  135.9775  154.9501 C   0  0  0  0  0  0  0  0  0  0  0  0
  151.6088  136.0852  155.8196 O   0  0  0  0  0  0  0  0  0  0  0  0
  150.1979  134.6002  154.5614 C   0  0  0  0  0  0  0  0  0  0  0  0
  149.6799  133.7979  155.7705 C   0  0  0  0  0  0  0  0  0  0  0  0
  149.6010  132.2842  155.5038 C   0  0  0  0  0  0  0  0  0  0  0  0
  150.9658  131.5925  155.5203 C   0  0  0  0  0  0  0  0  0  0  0  0
  150.7427  130.2626  154.7938 C   0  0  0  0  0  0  0  0  0  0  0  0
  149.5350  130.4776  153.8691 C   0  0  0  0  0  0  0  0  0  0  0  0
  149.0400  131.9056  154.1292 C   0  0  0  0  0  0  0  0  0  0  0  0
  147.8878  140.5655  154.4055 H   0  0  0  0  0  0  0  0  0  0  0  0
  149.1944  141.0087  153.2970 H   0  0  0  0  0  0  0  0  0  0  0  0
  148.1807  142.2671  154.0204 H   0  0  0  0  0  0  0  0  0  0  0  0
  151.5286  143.2062  158.6888 H   0  0  0  0  0  0  0  0  0  0  0  0
  150.8820  144.3400  157.4817 H   0  0  0  0  0  0  0  0  0  0  0  0
  152.4942  143.6140  157.2480 H   0  0  0  0  0  0  0  0  0  0  0  0
  152.2272  139.3522  157.8049 H   0  0  0  0  0  0  0  0  0  0  0  0
  151.3373  140.2346  159.0554 H   0  0  0  0  0  0  0  0  0  0  0  0
  152.7794  140.9485  158.3146 H   0  0  0  0  0  0  0  0  0  0  0  0
  150.4744  138.3412  156.6912 H   0  0  0  0  0  0  0  0  0  0  0  0
  148.9605  138.6928  155.9309 H   0  0  0  0  0  0  0  0  0  0  0  0
  150.1591  139.0229  153.7232 H   0  0  0  0  0  0  0  0  0  0  0  0
  152.4335  139.6002  154.5415 H   0  0  0  0  0  0  0  0  0  0  0  0
  152.4884  138.2077  153.4735 H   0  0  0  0  0  0  0  0  0  0  0  0
  152.6175  137.9826  155.2155 H   0  0  0  0  0  0  0  0  0  0  0  0
  149.5156  136.8522  153.6009 H   0  0  0  0  0  0  0  0  0  0  0  0
  149.3937  134.7448  153.8394 H   0  0  0  0  0  0  0  0  0  0  0  0
  150.9787  134.0357  154.0505 H   0  0  0  0  0  0  0  0  0  0  0  0
  150.3129  133.9865  156.6390 H   0  0  0  0  0  0  0  0  0  0  0  0
  148.6831  134.1518  156.0387 H   0  0  0  0  0  0  0  0  0  0  0  0
  148.9795  131.8194  156.2711 H   0  0  0  0  0  0  0  0  0  0  0  0
  151.6926  132.1898  154.9676 H   0  0  0  0  0  0  0  0  0  0  0  0
  151.3523  131.4551  156.5307 H   0  0  0  0  0  0  0  0  0  0  0  0
  151.6312  129.9524  154.2430 H   0  0  0  0  0  0  0  0  0  0  0  0
  150.5163  129.4774  155.5161 H   0  0  0  0  0  0  0  0  0  0  0  0
  149.7976  130.3373  152.8201 H   0  0  0  0  0  0  0  0  0  0  0  0
  148.7534  129.7553  154.1080 H   0  0  0  0  0  0  0  0  0  0  0  0
  147.9527  131.9783  154.0869 H   0  0  0  0  0  0  0  0  0  0  0  0
  149.4443  132.5725  153.3663 H   0  0  0  0  0  0  0  0  0  0  0  0
  149.8334  143.5129  155.6096 H   0  0  0  0  0  0  0  0  0  0  0  0
  1  2  1  0  0  0  0
  1 22  1  0  0  0  0
  1 23  1  0  0  0  0
  1 24  1  0  0  0  0
  2  8  1  0  0  0  0
  2  3  2  0  0  0  0
  3  4  1  0  0  0  0
  3 51  1  0  0  0  0
  4  5  1  0  0  0  0
  4  6  1  0  0  0  0
  5 25  1  0  0  0  0
  5 26  1  0  0  0  0
  5 27  1  0  0  0  0
  6  7  1  0  0  0  0
  6  8  2  0  0  0  0
  7 28  1  0  0  0  0
  7 29  1  0  0  0  0
  7 30  1  0  0  0  0
  8  9  1  0  0  0  0
  9 10  1  0  0  0  0
  9 31  1  0  0  0  0
  9 32  1  0  0  0  0
 10 11  1  0  0  0  0
 10 12  1  0  0  0  0
 10 33  1  0  0  0  0
 11 34  1  0  0  0  0
 11 35  1  0  0  0  0
 11 36  1  0  0  0  0
 12 13  1  0  0  0  0
 12 37  1  0  0  0  0
 13 14  2  0  0  0  0
 13 15  1  0  0  0  0
 15 16  1  0  0  0  0
 15 38  1  0  0  0  0
 15 39  1  0  0  0  0
 16 17  1  0  0  0  0
 16 40  1  0  0  0  0
 16 41  1  0  0  0  0
 17 21  1  0  0  0  0
 17 18  1  0  0  0  0
 17 42  1  0  0  0  0
 18 19  1  0  0  0  0
 18 43  1  0  0  0  0
 18 44  1  0  0  0  0
 19 20  1  0  0  0  0
 19 45  1  0  0  0  0
 19 46  1  0  0  0  0
 20 21  1  0  0  0  0
 20 47  1  0  0  0  0
 20 48  1  0  0  0  0
 21 49  1  0  0  0  0
 21 50  1  0  0  0  0
M  CHG  1   3   1
M  END
> <s_m_source_file>
AV-unprocessed.smi

> <i_m_source_file_index>
685

> <i_lp_mmshare_version>
43012

> <i_f3d_flags>
0

> <s_epik_input>
W0NIM11jMW5uKFtDSDNdKWMoW0NIM10pYzFbQ0gyXVtDQEhdKFtDSDNdKVtOSF1DKD1PKVtDSDJdW0NIMl1bQ0hdMltDSDJdW0NIMl1bQ0gyXVtDSDJdMg==

> <s_epik_cmdline>
J2VwaWtfcHl0aG9uJywgJy1waCcsICc3LjAnLCAnLXRuJywgJzgnLCAnLW1hJywgJzIwMCcsICctbWV0YWxfYmluZGluZycsICctaW1hZScsICc8aW5maWxlLm1hZT4nLCAnLW9tYWUnLCAnPG91dGZpbGUubWFlPic=

> <r_lp_tautomer_probability>
1

> <r_epik_Ionization_Penalty>
2.26429

> <r_epik_Ionization_Penalty_Charging>
2.26429

> <r_epik_Ionization_Penalty_Neutral>
2.3289e-07

> <r_epik_State_Penalty>
2.41237

> <r_epik_Charging_Adjusted_Penalty>
4.67666

> <i_epik_Tot_Q>
1

> <i_epik_Tot_abs_Q>
1

> <r_epik_Metal_State_Penalty>
2.42525

> <b_epik_Metal_Only>
0

> <s_lp_Force_Field>
OPLS_2005

> <r_lp_Energy>
28.4866

> <b_lp_Chiralities_Consistent>
1

> <s_lp_Variant>
AV-unprocessed.smi:685-4

> <Gold.Version>
5.8.1

> <Gold.Id.Protein>
6NUR|6NUR_protein|mol2

> <Gold.PLP.Fitness>
53.7117

> <Gold.PLP.PLP>
-42.5354

> <Gold.PLP.part.hbond>
-3.5325

> <Gold.PLP.part.metal>
0.0000

> <Gold.PLP.part.buried>
-5.1414

> <Gold.PLP.part.nonpolar>
-34.2386

> <Gold.PLP.part.repulsive>
0.2442

> <Gold.PLP.ligand.clash>
0.0000

> <Gold.PLP.ligand.torsion>
0.4209

> <Gold.PLP.Chemscore.Hbond>
3.9760

> <Gold.PLP.Chemscore.CHOScore>
0.0000

> <Gold.PLP.Chemscore.Metal>
0.0000

> <Gold.Chemscore.Hbonds>
donor molecule, donor type, donor heavy atom, donor atom, acceptor molecule, acceptor atom, score
      L1  H     3    51       P1  8028  1.98
      L1  H    12    37       P1  7948  1.00
      P1  H 10752 10764       L1    14  1.00

> <Gold.PLP.Chemscore.Internal.Correction>
0.0901

> <Gold.Rescore>
     Score         DG    S(hbond)    S(metal)    S(lipo)     H(rot)  DE(clash)    DE(int)     intcor
     19.30     -21.07       2.64        0.00      93.12       1.61       0.42       1.35       ----

> <Gold.Chemscore.Fitness>
19.2990

> <Gold.Chemscore.DG>
-21.0749

> <Gold.Chemscore.ZeroCoef>
-5.4800

> <Gold.Chemscore.Hbond>
2.6408

> <Gold.Chemscore.Metal>
0.0000

> <Gold.Chemscore.Lipo>
93.1182

> <Gold.Chemscore.Internal_Hbond>
0.0000

> <Gold.Chemscore.DEClash>
0.4244

> <Gold.Chemscore.DEInternal>
1.3515

> <Gold.Chemscore.Rot>
1.6095

> <Gold.Chemscore.Internal.Correction>
   9.000000E+99

> <Gold.Chemscore.Hbonds>
donor molecule, donor type, donor heavy atom, donor atom, acceptor molecule, acceptor atom, score
      L1  H     3    51       P1  8028  0.89
      L1  H    12    37       P1  7948  0.80
      P1  H 10752 10764       L1    14  0.50

> <Gold.Chemscore.Hbond.Weighted>
-8.8203

> <Gold.Chemscore.Metal.Weighted>
-0.0000

> <Gold.Chemscore.Lipo.Weighted>
-10.8948

> <Gold.Chemscore.Internal_Hbond.Weighted>
0.0000

> <Gold.Chemscore.DEClash.Weighted>
0.4244

> <Gold.Chemscore.DEInternal.Weighted>
1.3515

> <Gold.Chemscore.Rot.Weighted>
4.1202

> <Gold.Chemscore.Internal.Correction.Weighted>
   9.000000E+99

> <Gold.Protein.RotatedTorsions>
[ 6907 6896 6895 6894 ] final -149.05 input  -60.11 | X-H torsion
[ 7974 7965 7964 7962 ] final  -27.37 input  175.53 | X-H torsion
[ 8008 7997 7996 7995 ] final -136.42 input   59.86 | X-H torsion
[ 10167 10162 10161 10158 ] final   34.06 input  -65.29 | X-H torsion
[ 10718 10713 10712 10709 ] final   96.95 input   66.30 | X-H torsion
[ 10763 10752 10751 10750 ] final  -30.28 input  -60.55 | X-H torsion
[ 11005 11000 10999 10996 ] final  147.76 input  -57.11 | X-H torsion

> <Gold.Protein.ActiveResidues>
 VAL166  LYS551  ARG553  GLY616  TRP617  ASP618  TYR619  PRO620  LYS621  CYS622 
 ASP623  PHE694  ASN695  SER759  ASP760  ASP761  ALA762  ILE779  LEU786  VAL792 
 PHE793  MET794  SER795  GLU796  ALA797  LYS798  CYS799  TRP800  GLU811  SER814 

> <Gold.Protein.RotatedAtoms>
  151.1785  133.4739  159.2593 H   0  0  0  0  0  0  0  0  0  0  0  0  # atno 6907 bound_to 6896
  151.1283  135.0116  159.8580 H   0  0  0  0  0  0  0  0  0  0  0  0  # atno 6908 bound_to 6896
  152.5459  134.1690  159.8642 H   0  0  0  0  0  0  0  0  0  0  0  0  # atno 6909 bound_to 6896
  146.1362  140.5143  142.8672 H   0  0  0  0  0  0  0  0  0  0  0  0  # atno 7974 bound_to 7965
  155.3949  140.0502  157.3039 H   0  0  0  0  0  0  0  0  0  0  0  0  # atno 8008 bound_to 7997
  154.5018  140.2159  155.9292 H   0  0  0  0  0  0  0  0  0  0  0  0  # atno 8009 bound_to 7997
  156.1477  140.3142  155.8602 H   0  0  0  0  0  0  0  0  0  0  0  0  # atno 8010 bound_to 7997
  140.4350  144.1270  150.6165 H   0  0  0  0  0  0  0  0  0  0  0  0  # atno 10167 bound_to 10162
  157.6920  131.0594  150.4569 H   0  0  0  0  0  0  0  0  0  0  0  0  # atno 10718 bound_to 10713
  153.7784  135.6907  153.4893 H   0  0  0  0  0  0  0  0  0  0  0  0  # atno 10763 bound_to 10752
  153.1828  135.4500  155.0048 H   0  0  0  0  0  0  0  0  0  0  0  0  # atno 10764 bound_to 10752
  154.8091  135.3369  154.7289 H   0  0  0  0  0  0  0  0  0  0  0  0  # atno 10765 bound_to 10752
  140.0903  134.9045  157.1640 H   0  0  0  0  0  0  0  0  0  0  0  0  # atno 11005 bound_to 11000
  144.7742  140.5704  143.6649 LP  0  0  0  0  0  0  0  0  0  0  0  0  # atno 17320 bound_to 7965
  145.5150  139.1478  143.3584 LP  0  0  0  0  0  0  0  0  0  0  0  0  # atno 17321 bound_to 7965
  140.4384  143.2537  151.9505 LP  0  0  0  0  0  0  0  0  0  0  0  0  # atno 17342 bound_to 10162
  139.4786  144.5678  151.8137 LP  0  0  0  0  0  0  0  0  0  0  0  0  # atno 17343 bound_to 10162
  156.4916  130.4096  149.6403 LP  0  0  0  0  0  0  0  0  0  0  0  0  # atno 17370 bound_to 10713
  156.3412  130.7383  151.2328 LP  0  0  0  0  0  0  0  0  0  0  0  0  # atno 17371 bound_to 10713
  140.3362  134.2755  155.7219 LP  0  0  0  0  0  0  0  0  0  0  0  0  # atno 17394 bound_to 11000
  141.2075  133.7802  157.0111 LP  0  0  0  0  0  0  0  0  0  0  0  0  # atno 17395 bound_to 11000

$$$$
