AV-unprocessed.smi:1552|AV-procd|sdf|6236|dock9
  -GOLD-   22720 6413D 1   1.00000     0.00000
 Structure written by MMmdl.
 49 50  0  0  0  0  0  0  0  0  3 V2000
  150.2186  144.1229  159.0723 C   0  0  0  0  0  0  0  0  0  0  0  0
  150.8838  143.8023  157.7877 N   0  3  0  0  0  0  0  0  0  0  0  0
  152.0278  144.7055  157.5161 C   0  0  0  0  0  0  0  0  0  0  0  0
  151.1376  142.3404  157.5852 C   0  0  2  0  0  0  0  0  0  0  0  0
  149.9000  141.5814  157.0309 C   0  0  0  0  0  0  0  0  0  0  0  0
  148.6562  142.3307  157.1943 N   0  0  0  0  0  0  0  0  0  0  0  0
  147.5341  141.9541  157.8296 C   0  0  0  0  0  0  0  0  0  0  0  0
  147.4571  140.8400  158.3434 O   0  0  0  0  0  0  0  0  0  0  0  0
  146.3150  142.8919  157.8955 C   0  0  0  0  0  0  0  0  0  0  0  0
  145.8883  143.1285  159.2836 N   0  0  0  0  0  0  0  0  0  0  0  0
  146.5032  144.1778  159.9901 C   0  0  0  0  0  0  0  0  0  0  0  0
  146.1660  144.4732  161.2600 C   0  0  0  0  0  0  0  0  0  0  0  0
  145.1318  143.6727  161.9037 C   0  0  0  0  0  0  0  0  0  0  0  0
  144.8110  143.9271  163.0629 O   0  0  0  0  0  0  0  0  0  0  0  0
  144.5632  142.6671  161.1761 N   0  5  0  0  0  0  0  0  0  0  0  0
  144.9164  142.3783  159.8858 C   0  0  0  0  0  0  0  0  0  0  0  0
  144.3876  141.4662  159.2495 O   0  0  0  0  0  0  0  0  0  0  0  0
  151.7978  141.6875  158.8374 C   0  0  0  0  0  0  0  0  0  0  0  0
  152.9496  142.5573  159.4004 C   0  0  0  0  0  0  0  0  0  0  0  0
  153.6130  141.9187  160.6313 C   0  0  0  0  0  0  0  0  0  0  0  0
  154.1296  140.5090  160.3167 C   0  0  0  0  0  0  0  0  0  0  0  0
  153.0003  139.6265  159.7695 C   0  0  0  0  0  0  0  0  0  0  0  0
  152.3370  140.2666  158.5394 C   0  0  0  0  0  0  0  0  0  0  0  0
  150.8785  143.9567  159.9233 H   0  0  0  0  0  0  0  0  0  0  0  0
  149.3206  143.5205  159.2111 H   0  0  0  0  0  0  0  0  0  0  0  0
  149.9139  145.1698  159.0885 H   0  0  0  0  0  0  0  0  0  0  0  0
  152.7977  144.6203  158.2820 H   0  0  0  0  0  0  0  0  0  0  0  0
  151.6916  145.7426  157.5045 H   0  0  0  0  0  0  0  0  0  0  0  0
  152.4801  144.5019  156.5465 H   0  0  0  0  0  0  0  0  0  0  0  0
  151.8938  142.2844  156.8005 H   0  0  0  0  0  0  0  0  0  0  0  0
  150.0763  141.3204  155.9904 H   0  0  0  0  0  0  0  0  0  0  0  0
  149.7834  140.6329  157.5556 H   0  0  0  0  0  0  0  0  0  0  0  0
  148.6279  143.2329  156.7418 H   0  0  0  0  0  0  0  0  0  0  0  0
  146.4673  143.8378  157.3788 H   0  0  0  0  0  0  0  0  0  0  0  0
  145.5097  142.4139  157.3363 H   0  0  0  0  0  0  0  0  0  0  0  0
  147.2534  144.7268  159.4401 H   0  0  0  0  0  0  0  0  0  0  0  0
  146.6460  145.2843  161.7874 H   0  0  0  0  0  0  0  0  0  0  0  0
  151.0470  141.5905  159.6222 H   0  0  0  0  0  0  0  0  0  0  0  0
  153.7020  142.7182  158.6269 H   0  0  0  0  0  0  0  0  0  0  0  0
  152.5845  143.5448  159.6828 H   0  0  0  0  0  0  0  0  0  0  0  0
  154.4353  142.5458  160.9772 H   0  0  0  0  0  0  0  0  0  0  0  0
  152.8950  141.8708  161.4510 H   0  0  0  0  0  0  0  0  0  0  0  0
  154.9372  140.5678  159.5857 H   0  0  0  0  0  0  0  0  0  0  0  0
  154.5549  140.0581  161.2138 H   0  0  0  0  0  0  0  0  0  0  0  0
  153.3917  138.6424  159.5102 H   0  0  0  0  0  0  0  0  0  0  0  0
  152.2517  139.4659  160.5464 H   0  0  0  0  0  0  0  0  0  0  0  0
  151.5335  139.6097  158.2079 H   0  0  0  0  0  0  0  0  0  0  0  0
  153.0562  140.3097  157.7204 H   0  0  0  0  0  0  0  0  0  0  0  0
  150.1962  144.0335  157.0852 H   0  0  0  0  0  0  0  0  0  0  0  0
  1  2  1  0  0  0  0
  1 24  1  0  0  0  0
  1 25  1  0  0  0  0
  1 26  1  0  0  0  0
  2  3  1  0  0  0  0
  2  4  1  0  0  0  0
  2 49  1  0  0  0  0
  3 27  1  0  0  0  0
  3 28  1  0  0  0  0
  3 29  1  0  0  0  0
  4  5  1  0  0  0  0
  4 18  1  0  0  0  0
  4 30  1  0  0  0  0
  5  6  1  0  0  0  0
  5 31  1  0  0  0  0
  5 32  1  0  0  0  0
  6  7  1  0  0  0  0
  6 33  1  0  0  0  0
  7  8  2  0  0  0  0
  7  9  1  0  0  0  0
  9 10  1  0  0  0  0
  9 34  1  0  0  0  0
  9 35  1  0  0  0  0
 10 16  1  0  0  0  0
 10 11  1  0  0  0  0
 11 12  2  0  0  0  0
 11 36  1  0  0  0  0
 12 13  1  0  0  0  0
 12 37  1  0  0  0  0
 13 14  2  0  0  0  0
 13 15  1  0  0  0  0
 15 16  1  0  0  0  0
 16 17  2  0  0  0  0
 18 23  1  0  0  0  0
 18 19  1  0  0  0  0
 18 38  1  0  0  0  0
 19 20  1  0  0  0  0
 19 39  1  0  0  0  0
 19 40  1  0  0  0  0
 20 21  1  0  0  0  0
 20 41  1  0  0  0  0
 20 42  1  0  0  0  0
 21 22  1  0  0  0  0
 21 43  1  0  0  0  0
 21 44  1  0  0  0  0
 22 23  1  0  0  0  0
 22 45  1  0  0  0  0
 22 46  1  0  0  0  0
 23 47  1  0  0  0  0
 23 48  1  0  0  0  0
M  CHG  1   2   1
M  CHG  1  15  -1
M  END
> <s_m_source_file>
AV-unprocessed.smi

> <i_m_source_file_index>
1552

> <i_lp_mmshare_version>
43012

> <i_f3d_flags>
0

> <s_epik_input>
W0NIMl0xW0NIMl1bQ0gyXVtDSDJdW0NIMl1bQ0hdMVtDQEhdKE4oW0NIM10pW0NIM10pW0NIMl1bTkhdQyg9TylbQ0gyXW4yW2NIXVtjSF1jKD1PKVtuSF1jMj1P

> <s_epik_cmdline>
J2VwaWtfcHl0aG9uJywgJy1waCcsICc3LjAnLCAnLXRuJywgJzgnLCAnLW1hJywgJzIwMCcsICctbWV0YWxfYmluZGluZycsICctaW1hZScsICc8aW5maWxlLm1hZT4nLCAnLW9tYWUnLCAnPG91dGZpbGUubWFlPic=

> <r_lp_tautomer_probability>
1

> <r_epik_Ionization_Penalty>
2.93575

> <r_epik_Ionization_Penalty_Charging>
0.00331645

> <r_epik_Ionization_Penalty_Neutral>
2.93244

> <r_epik_State_Penalty>
2.92822

> <r_epik_Charging_Adjusted_Penalty>
2.93154

> <i_epik_Tot_Q>
0

> <i_epik_Tot_abs_Q>
2

> <r_epik_Metal_State_Penalty>
0.448509

> <b_epik_Metal_Only>
1

> <s_lp_Force_Field>
OPLS_2005

> <r_lp_Energy>
39.5493

> <b_lp_Chiralities_Consistent>
1

> <s_lp_Variant>
AV-unprocessed.smi:1552-3

> <Gold.Version>
5.8.1

> <Gold.Id.Protein>
6NUR|6NUR_protein|mol2

> <Gold.PLP.Fitness>
50.6983

> <Gold.PLP.PLP>
-41.7178

> <Gold.PLP.part.hbond>
-3.1475

> <Gold.PLP.part.metal>
0.0000

> <Gold.PLP.part.buried>
-8.5091

> <Gold.PLP.part.nonpolar>
-30.5068

> <Gold.PLP.part.repulsive>
0.1115

> <Gold.PLP.ligand.clash>
0.0000

> <Gold.PLP.ligand.torsion>
1.6733

> <Gold.PLP.Chemscore.Hbond>
3.0000

> <Gold.PLP.Chemscore.CHOScore>
1.0000

> <Gold.PLP.Chemscore.Metal>
0.0000

> <Gold.Chemscore.Hbonds>
donor molecule, donor type, donor heavy atom, donor atom, acceptor molecule, acceptor atom, score
      L1  H     2    49       P1  8028  1.98
      L1  H     6    33       P1  8028  1.00
      L1  C    11    36       P1  8029  0.94

> <Gold.PLP.Chemscore.Internal.Correction>
0.3272

> <Gold.Rescore>
     Score         DG    S(hbond)    S(metal)    S(lipo)     H(rot)  DE(clash)    DE(int)     intcor
     14.42     -16.47       1.87        0.00      93.66       2.43       0.26       1.79       ----

> <Gold.Chemscore.Fitness>
14.4197

> <Gold.Chemscore.DG>
-16.4703

> <Gold.Chemscore.ZeroCoef>
-5.4800

> <Gold.Chemscore.Hbond>
1.8724

> <Gold.Chemscore.Metal>
0.0000

> <Gold.Chemscore.Lipo>
93.6624

> <Gold.Chemscore.Internal_Hbond>
0.0000

> <Gold.Chemscore.DEClash>
0.2570

> <Gold.Chemscore.DEInternal>
1.7936

> <Gold.Chemscore.Rot>
2.4305

> <Gold.Chemscore.Internal.Correction>
   9.000000E+99

> <Gold.Chemscore.Hbonds>
donor molecule, donor type, donor heavy atom, donor atom, acceptor molecule, acceptor atom, score
      L1  H     2    49       P1  8028  0.86
      L1  H     6    33       P1  8028  0.65
      P1  H  6934  6946       L1     8  0.01

> <Gold.Chemscore.Hbond.Weighted>
-6.2538

> <Gold.Chemscore.Metal.Weighted>
-0.0000

> <Gold.Chemscore.Lipo.Weighted>
-10.9585

> <Gold.Chemscore.Internal_Hbond.Weighted>
0.0000

> <Gold.Chemscore.DEClash.Weighted>
0.2570

> <Gold.Chemscore.DEInternal.Weighted>
1.7936

> <Gold.Chemscore.Rot.Weighted>
6.2220

> <Gold.Chemscore.Internal.Correction.Weighted>
   9.000000E+99

> <Gold.Protein.RotatedTorsions>
[ 6907 6896 6895 6894 ] final   29.30 input  -60.11 | X-H torsion
[ 7974 7965 7964 7962 ] final    3.99 input  175.53 | X-H torsion
[ 8008 7997 7996 7995 ] final  134.11 input   59.86 | X-H torsion
[ 10167 10162 10161 10158 ] final  126.34 input  -65.29 | X-H torsion
[ 10718 10713 10712 10709 ] final  104.90 input   66.30 | X-H torsion
[ 10763 10752 10751 10750 ] final  -72.71 input  -60.55 | X-H torsion
[ 11005 11000 10999 10996 ] final -100.13 input  -57.11 | X-H torsion

> <Gold.Protein.ActiveResidues>
 VAL166  LYS551  ARG553  GLY616  TRP617  ASP618  TYR619  PRO620  LYS621  CYS622 
 ASP623  PHE694  ASN695  SER759  ASP760  ASP761  ALA762  ILE779  LEU786  VAL792 
 PHE793  MET794  SER795  GLU796  ALA797  LYS798  CYS799  TRP800  GLU811  SER814 

> <Gold.Protein.RotatedAtoms>
  152.0296  134.9776  160.0572 H   0  0  0  0  0  0  0  0  0  0  0  0  # atno 6907 bound_to 6896
  152.1258  133.4374  159.4705 H   0  0  0  0  0  0  0  0  0  0  0  0  # atno 6908 bound_to 6896
  150.6852  134.2399  159.4511 H   0  0  0  0  0  0  0  0  0  0  0  0  # atno 6909 bound_to 6896
  146.2444  140.0602  142.8369 H   0  0  0  0  0  0  0  0  0  0  0  0  # atno 7974 bound_to 7965
  156.2997  140.2504  156.3363 H   0  0  0  0  0  0  0  0  0  0  0  0  # atno 8008 bound_to 7997
  154.9098  140.0403  157.1959 H   0  0  0  0  0  0  0  0  0  0  0  0  # atno 8009 bound_to 7997
  154.8417  140.2892  155.5659 H   0  0  0  0  0  0  0  0  0  0  0  0  # atno 8010 bound_to 7997
  139.5636  144.6898  151.3972 H   0  0  0  0  0  0  0  0  0  0  0  0  # atno 10167 bound_to 10162
  157.6724  131.0815  150.5776 H   0  0  0  0  0  0  0  0  0  0  0  0  # atno 10718 bound_to 10713
  154.4495  135.5921  153.6182 H   0  0  0  0  0  0  0  0  0  0  0  0  # atno 10763 bound_to 10752
  152.9812  135.6017  154.3622 H   0  0  0  0  0  0  0  0  0  0  0  0  # atno 10764 bound_to 10752
  154.3482  135.2841  155.2365 H   0  0  0  0  0  0  0  0  0  0  0  0  # atno 10765 bound_to 10752
  141.1282  133.8375  157.1062 H   0  0  0  0  0  0  0  0  0  0  0  0  # atno 11005 bound_to 11000
  145.0906  140.9282  143.4771 LP  0  0  0  0  0  0  0  0  0  0  0  0  # atno 17320 bound_to 7965
  145.0774  139.2985  143.5801 LP  0  0  0  0  0  0  0  0  0  0  0  0  # atno 17321 bound_to 7965
  140.6918  143.7842  150.7267 LP  0  0  0  0  0  0  0  0  0  0  0  0  # atno 17342 bound_to 10162
  140.1327  143.4511  152.2244 LP  0  0  0  0  0  0  0  0  0  0  0  0  # atno 17343 bound_to 10162
  156.6077  130.4371  149.5871 LP  0  0  0  0  0  0  0  0  0  0  0  0  # atno 17370 bound_to 10713
  156.2455  130.6876  151.1596 LP  0  0  0  0  0  0  0  0  0  0  0  0  # atno 17371 bound_to 10713
  140.0303  134.9904  157.0767 LP  0  0  0  0  0  0  0  0  0  0  0  0  # atno 17394 bound_to 11000
  140.4296  134.1795  155.7167 LP  0  0  0  0  0  0  0  0  0  0  0  0  # atno 17395 bound_to 11000

$$$$
