AV-unprocessed.smi:694|AV-procd|sdf|3376|dock3
  -GOLD-   22720 0353D 1   1.00000     0.00000
 Structure written by MMmdl.
 43 44  0  0  0  0  0  0  0  0  2 V2000
  152.5383  142.4606  158.8118 C   0  0  0  0  0  0  0  0  0  0  0  0
  151.7666  142.9576  157.6781 N   0  0  0  0  0  0  0  0  0  0  0  0
  151.5242  144.3864  157.5265 C   0  0  0  0  0  0  0  0  0  0  0  0
  151.1222  142.0429  156.8169 C   0  0  0  0  0  0  0  0  0  0  0  0
  151.5471  140.7024  156.6498 C   0  0  0  0  0  0  0  0  0  0  0  0
  150.8526  139.8518  155.7654 C   0  0  0  0  0  0  0  0  0  0  0  0
  149.7363  140.3355  155.0514 C   0  0  0  0  0  0  0  0  0  0  0  0
  149.0858  139.4339  154.1631 N   0  0  0  0  0  0  0  0  0  0  0  0
  147.8979  139.5548  153.5438 C   0  0  0  0  0  0  0  0  0  0  0  0
  147.1018  140.4801  153.6971 O   0  0  0  0  0  0  0  0  0  0  0  0
  147.6738  138.5193  152.7225 N   0  0  0  0  0  0  0  0  0  0  0  0
  146.4870  138.3528  151.8894 C   0  0  0  0  0  0  0  0  0  0  0  0
  145.7978  136.9935  152.1229 C   0  0  2  0  0  0  0  0  0  0  0  0
  146.0062  135.9825  150.9827 C   0  0  0  0  0  0  0  0  0  0  0  0
  144.7429  135.1073  150.9353 C   0  0  0  0  0  0  0  0  0  0  0  0
  143.7925  135.6618  152.0016 C   0  0  0  0  0  0  0  0  0  0  0  0
  144.2736  137.0912  152.2502 C   0  0  1  0  0  0  0  0  0  0  0  0
  143.8704  137.5545  153.5225 O   0  0  0  0  0  0  0  0  0  0  0  0
  149.3495  141.6822  155.2549 C   0  0  0  0  0  0  0  0  0  0  0  0
  150.0437  142.4624  156.1114 N   0  3  0  0  0  0  0  0  0  0  0  0
  153.3551  141.8243  158.4696 H   0  0  0  0  0  0  0  0  0  0  0  0
  151.9036  141.8813  159.4830 H   0  0  0  0  0  0  0  0  0  0  0  0
  152.9733  143.2790  159.3861 H   0  0  0  0  0  0  0  0  0  0  0  0
  150.4610  144.6078  157.6243 H   0  0  0  0  0  0  0  0  0  0  0  0
  151.8655  144.7314  156.5499 H   0  0  0  0  0  0  0  0  0  0  0  0
  152.0552  144.9615  158.2853 H   0  0  0  0  0  0  0  0  0  0  0  0
  152.3982  140.3095  157.1858 H   0  0  0  0  0  0  0  0  0  0  0  0
  151.1822  138.8309  155.6377 H   0  0  0  0  0  0  0  0  0  0  0  0
  149.6016  138.5912  153.9557 H   0  0  0  0  0  0  0  0  0  0  0  0
  148.3775  137.7982  152.6587 H   0  0  0  0  0  0  0  0  0  0  0  0
  145.7865  139.1694  152.0725 H   0  0  0  0  0  0  0  0  0  0  0  0
  146.7926  138.4425  150.8466 H   0  0  0  0  0  0  0  0  0  0  0  0
  146.1866  136.5453  153.0395 H   0  0  0  0  0  0  0  0  0  0  0  0
  146.1202  136.5002  150.0294 H   0  0  0  0  0  0  0  0  0  0  0  0
  146.9077  135.3884  151.1371 H   0  0  0  0  0  0  0  0  0  0  0  0
  144.2837  135.1741  149.9483 H   0  0  0  0  0  0  0  0  0  0  0  0
  144.9694  134.0563  151.1179 H   0  0  0  0  0  0  0  0  0  0  0  0
  142.7464  135.6187  151.6960 H   0  0  0  0  0  0  0  0  0  0  0  0
  143.8939  135.0699  152.9128 H   0  0  0  0  0  0  0  0  0  0  0  0
  143.8725  137.7513  151.4796 H   0  0  0  0  0  0  0  0  0  0  0  0
  143.9281  138.4977  153.5320 H   0  0  0  0  0  0  0  0  0  0  0  0
  148.5236  142.1796  154.7707 H   0  0  0  0  0  0  0  0  0  0  0  0
  149.7382  143.4282  156.2314 H   0  0  0  0  0  0  0  0  0  0  0  0
  1  2  1  0  0  0  0
  1 21  1  0  0  0  0
  1 22  1  0  0  0  0
  1 23  1  0  0  0  0
  2  3  1  0  0  0  0
  2  4  1  0  0  0  0
  3 24  1  0  0  0  0
  3 25  1  0  0  0  0
  3 26  1  0  0  0  0
  4 20  1  0  0  0  0
  4  5  2  0  0  0  0
  5  6  1  0  0  0  0
  5 27  1  0  0  0  0
  6  7  2  0  0  0  0
  6 28  1  0  0  0  0
  7  8  1  0  0  0  0
  7 19  1  0  0  0  0
  8  9  1  0  0  0  0
  8 29  1  0  0  0  0
  9 10  2  0  0  0  0
  9 11  1  0  0  0  0
 11 12  1  0  0  0  0
 11 30  1  0  0  0  0
 12 13  1  0  0  0  0
 12 31  1  0  0  0  0
 12 32  1  0  0  0  0
 13 17  1  0  0  0  0
 13 14  1  0  0  0  0
 13 33  1  0  0  0  0
 14 15  1  0  0  0  0
 14 34  1  0  0  0  0
 14 35  1  0  0  0  0
 15 16  1  0  0  0  0
 15 36  1  0  0  0  0
 15 37  1  0  0  0  0
 16 17  1  0  0  0  0
 16 38  1  0  0  0  0
 16 39  1  0  0  0  0
 17 18  1  0  0  0  0
 17 40  1  0  0  0  0
 18 41  1  0  0  0  0
 19 20  2  0  0  0  0
 19 42  1  0  0  0  0
 20 43  1  0  0  0  0
M  CHG  1  20   1
M  END
> <s_m_source_file>
AV-unprocessed.smi

> <i_m_source_file_index>
694

> <i_lp_mmshare_version>
43012

> <i_f3d_flags>
0

> <s_epik_input>
W0NIM11OKFtDSDNdKWMxW2NIXVtjSF1jKFtjSF1uMSlbTkhdQyg9TylbTkhdW0NIMl1bQ0BASF0yW0NIMl1bQ0gyXVtDSDJdW0NASF0yW09IXQ==

> <s_epik_cmdline>
J2VwaWtfcHl0aG9uJywgJy1waCcsICc3LjAnLCAnLXRuJywgJzgnLCAnLW1hJywgJzIwMCcsICctbWV0YWxfYmluZGluZycsICctaW1hZScsICc8aW5maWxlLm1hZT4nLCAnLW9tYWUnLCAnPG91dGZpbGUubWFlPic=

> <r_lp_tautomer_probability>
0.999994

> <r_epik_Ionization_Penalty>
0.266135

> <r_epik_Ionization_Penalty_Charging>
0.266113

> <r_epik_Ionization_Penalty_Neutral>
2.14137e-05

> <r_epik_State_Penalty>
0.258052

> <r_epik_Charging_Adjusted_Penalty>
0.524165

> <i_epik_Tot_Q>
1

> <i_epik_Tot_abs_Q>
1

> <r_epik_Metal_State_Penalty>
0.544313

> <b_epik_Metal_Only>
0

> <s_lp_Force_Field>
OPLS_2005

> <r_lp_Energy>
32.5934

> <b_lp_Chiralities_Consistent>
1

> <s_lp_Variant>
AV-unprocessed.smi:694-1

> <Gold.Version>
5.8.1

> <Gold.Id.Protein>
6NUR|6NUR_protein|mol2

> <Gold.PLP.Fitness>
47.7942

> <Gold.PLP.PLP>
-37.6547

> <Gold.PLP.part.hbond>
-4.6732

> <Gold.PLP.part.metal>
0.0000

> <Gold.PLP.part.buried>
1.5133

> <Gold.PLP.part.nonpolar>
-35.0371

> <Gold.PLP.part.repulsive>
0.4155

> <Gold.PLP.ligand.clash>
0.0000

> <Gold.PLP.ligand.torsion>
0.8946

> <Gold.PLP.Chemscore.Hbond>
3.9680

> <Gold.PLP.Chemscore.CHOScore>
0.0000

> <Gold.PLP.Chemscore.Metal>
0.0000

> <Gold.Chemscore.Hbonds>
donor molecule, donor type, donor heavy atom, donor atom, acceptor molecule, acceptor atom, score
      L1  H    11    30       P1  7948  0.96
      L1  H    18    41       P1 10175  0.49
      L1  H    20    43       P1  8028  1.98

> <Gold.PLP.Chemscore.Internal.Correction>
0.0247

> <Gold.Rescore>
     Score         DG    S(hbond)    S(metal)    S(lipo)     H(rot)  DE(clash)    DE(int)     intcor
     17.13     -20.81       2.89        0.00      86.91       1.75       1.93       1.76       ----

> <Gold.Chemscore.Fitness>
17.1257

> <Gold.Chemscore.DG>
-20.8128

> <Gold.Chemscore.ZeroCoef>
-5.4800

> <Gold.Chemscore.Hbond>
2.8862

> <Gold.Chemscore.Metal>
0.0000

> <Gold.Chemscore.Lipo>
86.9139

> <Gold.Chemscore.Internal_Hbond>
0.0000

> <Gold.Chemscore.DEClash>
1.9284

> <Gold.Chemscore.DEInternal>
1.7587

> <Gold.Chemscore.Rot>
1.7485

> <Gold.Chemscore.Internal.Correction>
   9.000000E+99

> <Gold.Chemscore.Hbonds>
donor molecule, donor type, donor heavy atom, donor atom, acceptor molecule, acceptor atom, score
      L1  H    11    30       P1  7948  0.92
      L1  H    18    41       P1 10175  0.47
      L1  H    20    43       P1  8028  0.93

> <Gold.Chemscore.Hbond.Weighted>
-9.6401

> <Gold.Chemscore.Metal.Weighted>
-0.0000

> <Gold.Chemscore.Lipo.Weighted>
-10.1689

> <Gold.Chemscore.Internal_Hbond.Weighted>
0.0000

> <Gold.Chemscore.DEClash.Weighted>
1.9284

> <Gold.Chemscore.DEInternal.Weighted>
1.7587

> <Gold.Chemscore.Rot.Weighted>
4.4762

> <Gold.Chemscore.Internal.Correction.Weighted>
   9.000000E+99

> <Gold.Protein.RotatedTorsions>
[ 6907 6896 6895 6894 ] final -114.39 input  -60.11 | X-H torsion
[ 7974 7965 7964 7962 ] final  -37.19 input  175.53 | X-H torsion
[ 8008 7997 7996 7995 ] final -115.48 input   59.86 | X-H torsion
[ 10167 10162 10161 10158 ] final   15.60 input  -65.29 | X-H torsion
[ 10718 10713 10712 10709 ] final   20.86 input   66.30 | X-H torsion
[ 10763 10752 10751 10750 ] final -136.10 input  -60.55 | X-H torsion
[ 11005 11000 10999 10996 ] final   -4.53 input  -57.11 | X-H torsion

> <Gold.Protein.ActiveResidues>
 VAL166  LYS551  ARG553  GLY616  TRP617  ASP618  TYR619  PRO620  LYS621  CYS622 
 ASP623  PHE694  ASN695  SER759  ASP760  ASP761  ALA762  ILE779  LEU786  VAL792 
 PHE793  MET794  SER795  GLU796  ALA797  LYS798  CYS799  TRP800  GLU811  SER814 

> <Gold.Protein.RotatedAtoms>
  150.7899  133.8808  159.3284 H   0  0  0  0  0  0  0  0  0  0  0  0  # atno 6907 bound_to 6896
  151.6648  135.0982  160.0196 H   0  0  0  0  0  0  0  0  0  0  0  0  # atno 6908 bound_to 6896
  152.3971  133.6723  159.6320 H   0  0  0  0  0  0  0  0  0  0  0  0  # atno 6909 bound_to 6896
  146.0596  140.6367  142.9003 H   0  0  0  0  0  0  0  0  0  0  0  0  # atno 7974 bound_to 7965
  155.0526  140.0393  157.2549 H   0  0  0  0  0  0  0  0  0  0  0  0  # atno 8008 bound_to 7997
  154.7125  140.2695  155.6592 H   0  0  0  0  0  0  0  0  0  0  0  0  # atno 8009 bound_to 7997
  156.2793  140.2719  156.1771 H   0  0  0  0  0  0  0  0  0  0  0  0  # atno 8010 bound_to 7997
  140.5855  143.8897  150.6827 H   0  0  0  0  0  0  0  0  0  0  0  0  # atno 10167 bound_to 10162
  157.1304  130.6588  149.5950 H   0  0  0  0  0  0  0  0  0  0  0  0  # atno 10718 bound_to 10713
  154.8690  135.3683  154.5006 H   0  0  0  0  0  0  0  0  0  0  0  0  # atno 10763 bound_to 10752
  153.5647  135.7022  153.5536 H   0  0  0  0  0  0  0  0  0  0  0  0  # atno 10764 bound_to 10752
  153.3596  135.4050  155.1672 H   0  0  0  0  0  0  0  0  0  0  0  0  # atno 10765 bound_to 10752
  140.6813  133.9151  155.8557 H   0  0  0  0  0  0  0  0  0  0  0  0  # atno 11005 bound_to 11000
  144.7167  140.4235  143.7039 LP  0  0  0  0  0  0  0  0  0  0  0  0  # atno 17320 bound_to 7965
  145.6583  139.1577  143.2823 LP  0  0  0  0  0  0  0  0  0  0  0  0  # atno 17321 bound_to 7965
  140.2407  143.3666  152.1489 LP  0  0  0  0  0  0  0  0  0  0  0  0  # atno 17342 bound_to 10162
  139.5195  144.7021  151.5464 LP  0  0  0  0  0  0  0  0  0  0  0  0  # atno 17343 bound_to 10162
  155.9809  130.4813  150.6799 LP  0  0  0  0  0  0  0  0  0  0  0  0  # atno 17370 bound_to 10713
  157.4397  131.0859  151.0956 LP  0  0  0  0  0  0  0  0  0  0  0  0  # atno 17371 bound_to 10713
  141.0315  134.0749  157.4008 LP  0  0  0  0  0  0  0  0  0  0  0  0  # atno 17394 bound_to 11000
  139.8951  135.0139  156.6984 LP  0  0  0  0  0  0  0  0  0  0  0  0  # atno 17395 bound_to 11000

$$$$
