AV-unprocessed.smi:1695|AV-procd|sdf|6793|dock3
  -GOLD-   22720 7553D 1   1.00000     0.00000
 Structure written by MMmdl.
 52 54  0  0  0  0  0  0  0  0  3 V2000
  152.1344  144.8666  160.6353 C   0  0  0  0  0  0  0  0  0  0  0  0
  151.8969  143.7057  159.6842 C   0  0  0  0  0  0  0  0  0  0  0  0
  151.1794  143.9472  158.4913 C   0  0  0  0  0  0  0  0  0  0  0  0
  150.9777  142.8659  157.6419 C   0  0  0  0  0  0  0  0  0  0  0  0
  150.3215  142.7809  156.4125 N   0  3  0  0  0  0  0  0  0  0  0  0
  150.3839  141.5015  155.9513 C   0  0  0  0  0  0  0  0  0  0  0  0
  151.0743  140.7675  156.8663 N   0  0  0  0  0  0  0  0  0  0  0  0
  151.4147  139.3377  156.8492 C   0  0  0  0  0  0  0  0  0  0  0  0
  151.7524  138.8177  155.4377 C   0  0  2  0  0  0  0  0  0  0  0  0
  152.6627  139.7266  154.8530 O   0  0  0  0  0  0  0  0  0  0  0  0
  150.5229  138.6801  154.5136 C   0  0  0  0  0  0  0  0  0  0  0  0
  149.8739  137.3475  154.6160 N   0  3  1  0  0  0  0  0  0  0  0  0
  150.8292  136.2535  154.9356 C   0  0  0  0  0  0  0  0  0  0  0  0
  150.1349  134.8780  154.9177 C   0  0  0  0  0  0  0  0  0  0  0  0
  148.8961  134.8062  155.8354 C   0  0  1  0  0  0  0  0  0  0  0  0
  149.2627  134.6815  157.3262 C   0  0  0  0  0  0  0  0  0  0  0  0
  148.7874  135.6212  158.1476 N   0  0  0  0  0  0  0  0  0  0  0  0
  149.9610  133.7573  157.7371 O   0  0  0  0  0  0  0  0  0  0  0  0
  147.9759  136.0102  155.5449 C   0  0  0  0  0  0  0  0  0  0  0  0
  148.7189  137.3600  155.5500 C   0  0  0  0  0  0  0  0  0  0  0  0
  151.4608  141.5769  157.9426 C   0  0  0  0  0  0  0  0  0  0  0  0
  152.1694  141.3224  159.1152 C   0  0  0  0  0  0  0  0  0  0  0  0
  152.3847  142.4094  159.9923 C   0  0  0  0  0  0  0  0  0  0  0  0
  153.1543  142.1606  161.2785 C   0  0  0  0  0  0  0  0  0  0  0  0
  151.7483  145.8015  160.2283 H   0  0  0  0  0  0  0  0  0  0  0  0
  153.2003  145.0012  160.8208 H   0  0  0  0  0  0  0  0  0  0  0  0
  151.6365  144.6869  161.5886 H   0  0  0  0  0  0  0  0  0  0  0  0
  150.8039  144.9313  158.2506 H   0  0  0  0  0  0  0  0  0  0  0  0
  149.9602  141.1354  155.0267 H   0  0  0  0  0  0  0  0  0  0  0  0
  152.2290  139.1482  157.5486 H   0  0  0  0  0  0  0  0  0  0  0  0
  150.5482  138.8040  157.2424 H   0  0  0  0  0  0  0  0  0  0  0  0
  152.2601  137.8593  155.5406 H   0  0  0  0  0  0  0  0  0  0  0  0
  152.8937  140.3826  155.4932 H   0  0  0  0  0  0  0  0  0  0  0  0
  149.7782  139.4454  154.7337 H   0  0  0  0  0  0  0  0  0  0  0  0
  150.8450  138.8584  153.4863 H   0  0  0  0  0  0  0  0  0  0  0  0
  151.6399  136.2383  154.2087 H   0  0  0  0  0  0  0  0  0  0  0  0
  151.2938  136.4411  155.9037 H   0  0  0  0  0  0  0  0  0  0  0  0
  149.8280  134.6520  153.8956 H   0  0  0  0  0  0  0  0  0  0  0  0
  150.8516  134.1018  155.1893 H   0  0  0  0  0  0  0  0  0  0  0  0
  148.3447  133.9024  155.5697 H   0  0  0  0  0  0  0  0  0  0  0  0
  148.9979  135.5863  159.1346 H   0  0  0  0  0  0  0  0  0  0  0  0
  148.2160  136.3673  157.7774 H   0  0  0  0  0  0  0  0  0  0  0  0
  147.5097  135.8689  154.5688 H   0  0  0  0  0  0  0  0  0  0  0  0
  147.1555  136.0406  156.2630 H   0  0  0  0  0  0  0  0  0  0  0  0
  149.0593  137.6164  156.5534 H   0  0  0  0  0  0  0  0  0  0  0  0
  148.0202  138.1428  155.2526 H   0  0  0  0  0  0  0  0  0  0  0  0
  152.5452  140.3390  159.3535 H   0  0  0  0  0  0  0  0  0  0  0  0
  153.4179  141.1083  161.3896 H   0  0  0  0  0  0  0  0  0  0  0  0
  152.5574  142.4459  162.1450 H   0  0  0  0  0  0  0  0  0  0  0  0
  154.0787  142.7385  161.2885 H   0  0  0  0  0  0  0  0  0  0  0  0
  149.4923  137.1488  153.7018 H   0  0  0  0  0  0  0  0  0  0  0  0
  149.8605  143.5381  155.9239 H   0  0  0  0  0  0  0  0  0  0  0  0
  1  2  1  0  0  0  0
  1 25  1  0  0  0  0
  1 26  1  0  0  0  0
  1 27  1  0  0  0  0
  2 23  1  0  0  0  0
  2  3  2  0  0  0  0
  3  4  1  0  0  0  0
  3 28  1  0  0  0  0
  4 21  2  0  0  0  0
  4  5  1  0  0  0  0
  5  6  2  0  0  0  0
  5 52  1  0  0  0  0
  6  7  1  0  0  0  0
  6 29  1  0  0  0  0
  7  8  1  0  0  0  0
  7 21  1  0  0  0  0
  8  9  1  0  0  0  0
  8 30  1  0  0  0  0
  8 31  1  0  0  0  0
  9 10  1  0  0  0  0
  9 11  1  0  0  0  0
  9 32  1  0  0  0  0
 10 33  1  0  0  0  0
 11 12  1  0  0  0  0
 11 34  1  0  0  0  0
 11 35  1  0  0  0  0
 12 20  1  0  0  0  0
 12 13  1  0  0  0  0
 12 51  1  0  0  0  0
 13 14  1  0  0  0  0
 13 36  1  0  0  0  0
 13 37  1  0  0  0  0
 14 15  1  0  0  0  0
 14 38  1  0  0  0  0
 14 39  1  0  0  0  0
 15 16  1  0  0  0  0
 15 19  1  0  0  0  0
 15 40  1  0  0  0  0
 16 17  1  0  0  0  0
 16 18  2  0  0  0  0
 17 41  1  0  0  0  0
 17 42  1  0  0  0  0
 19 20  1  0  0  0  0
 19 43  1  0  0  0  0
 19 44  1  0  0  0  0
 20 45  1  0  0  0  0
 20 46  1  0  0  0  0
 21 22  1  0  0  0  0
 22 23  2  0  0  0  0
 22 47  1  0  0  0  0
 23 24  1  0  0  0  0
 24 48  1  0  0  0  0
 24 49  1  0  0  0  0
 24 50  1  0  0  0  0
M  CHG  1   5   1
M  CHG  1  12   1
M  END
> <s_m_source_file>
AV-unprocessed.smi

> <i_m_source_file_index>
1695

> <i_lp_mmshare_version>
43012

> <i_f3d_flags>
0

> <s_epik_input>
W0NIM11jKFtjSF0xKWMoW0NIM10pW2NIXWMoYzEyKW4oW2NIXW4yKVtDSDJdW0NASF0oW09IXSlbQ0gyXU4zW0NIMl1bQ0gyXVtDSF0oQyg9TylbTkgyXSlbQ0gyXVtDSDJdMw==

> <s_epik_cmdline>
J2VwaWtfcHl0aG9uJywgJy1waCcsICc3LjAnLCAnLXRuJywgJzgnLCAnLW1hJywgJzIwMCcsICctbWV0YWxfYmluZGluZycsICctaW1hZScsICc8aW5maWxlLm1hZT4nLCAnLW9tYWUnLCAnPG91dGZpbGUubWFlPic=

> <r_epik_Ionization_Penalty>
1.20173

> <r_epik_Ionization_Penalty_Charging>
1.20172

> <r_epik_Ionization_Penalty_Neutral>
1.7852e-06

> <r_epik_State_Penalty>
1.28089

> <r_epik_Charging_Adjusted_Penalty>
2.48261

> <i_epik_Tot_Q>
2

> <i_epik_Tot_abs_Q>
2

> <r_epik_Metal_State_Penalty>
1.35652

> <b_epik_Metal_Only>
0

> <s_lp_Force_Field>
OPLS_2005

> <r_lp_Energy>
28.6872

> <b_lp_Chiralities_Consistent>
1

> <s_lp_Variant>
AV-unprocessed.smi:1695-5

> <Gold.Version>
5.8.1

> <Gold.Id.Protein>
6NUR|6NUR_protein|mol2

> <Gold.PLP.Fitness>
61.4553

> <Gold.PLP.PLP>
-47.3602

> <Gold.PLP.part.hbond>
-4.6337

> <Gold.PLP.part.metal>
0.0000

> <Gold.PLP.part.buried>
-5.6340

> <Gold.PLP.part.nonpolar>
-38.0220

> <Gold.PLP.part.repulsive>
0.1950

> <Gold.PLP.ligand.clash>
0.0000

> <Gold.PLP.ligand.torsion>
1.2080

> <Gold.PLP.Chemscore.Hbond>
5.4800

> <Gold.PLP.Chemscore.CHOScore>
0.0000

> <Gold.PLP.Chemscore.Metal>
0.0000

> <Gold.Chemscore.Hbonds>
donor molecule, donor type, donor heavy atom, donor atom, acceptor molecule, acceptor atom, score
      L1  H     5    52       P1  8028  2.00
      L1  H    12    51       P1  7948  1.66
      P1  H  6896  6908       L1    18  1.00
      P1  H  7989  7998       L1    10  0.54

> <Gold.PLP.Chemscore.Internal.Correction>
0.0711

> <Gold.Rescore>
     Score         DG    S(hbond)    S(metal)    S(lipo)     H(rot)  DE(clash)    DE(int)     intcor
     21.31     -22.61       3.25        0.00     117.21       2.91       0.06       1.24       ----

> <Gold.Chemscore.Fitness>
21.3122

> <Gold.Chemscore.DG>
-22.6074

> <Gold.Chemscore.ZeroCoef>
-5.4800

> <Gold.Chemscore.Hbond>
3.2547

> <Gold.Chemscore.Metal>
0.0000

> <Gold.Chemscore.Lipo>
117.2064

> <Gold.Chemscore.Internal_Hbond>
0.0000

> <Gold.Chemscore.DEClash>
0.0580

> <Gold.Chemscore.DEInternal>
1.2372

> <Gold.Chemscore.Rot>
2.9127

> <Gold.Chemscore.Internal.Correction>
   9.000000E+99

> <Gold.Chemscore.Hbonds>
donor molecule, donor type, donor heavy atom, donor atom, acceptor molecule, acceptor atom, score
      L1  H     5    52       P1  8028  0.95
      L1  H    12    51       P1  7948  0.76
      P1  H  6896  6908       L1    18  0.98
      P1  H  7989  7998       L1    10  0.09

> <Gold.Chemscore.Hbond.Weighted>
-10.8708

> <Gold.Chemscore.Metal.Weighted>
-0.0000

> <Gold.Chemscore.Lipo.Weighted>
-13.7131

> <Gold.Chemscore.Internal_Hbond.Weighted>
0.0000

> <Gold.Chemscore.DEClash.Weighted>
0.0580

> <Gold.Chemscore.DEInternal.Weighted>
1.2372

> <Gold.Chemscore.Rot.Weighted>
7.4565

> <Gold.Chemscore.Internal.Correction.Weighted>
   9.000000E+99

> <Gold.Protein.RotatedTorsions>
[ 6907 6896 6895 6894 ] final  115.29 input  -60.11 | X-H torsion
[ 7974 7965 7964 7962 ] final  115.92 input  175.53 | X-H torsion
[ 8008 7997 7996 7995 ] final -150.32 input   59.86 | X-H torsion
[ 10167 10162 10161 10158 ] final -140.45 input  -65.29 | X-H torsion
[ 10718 10713 10712 10709 ] final  -20.83 input   66.30 | X-H torsion
[ 10763 10752 10751 10750 ] final   46.63 input  -60.55 | X-H torsion
[ 11005 11000 10999 10996 ] final   47.71 input  -57.11 | X-H torsion

> <Gold.Protein.ActiveResidues>
 VAL166  LYS551  ARG553  GLY616  TRP617  ASP618  TYR619  PRO620  LYS621  CYS622 
 ASP623  PHE694  ASN695  SER759  ASP760  ASP761  ALA762  ILE779  LEU786  VAL792 
 PHE793  MET794  SER795  GLU796  ALA797  LYS798  CYS799  TRP800  GLU811  SER814 

> <Gold.Protein.RotatedAtoms>
  152.4751  133.8119  159.7007 H   0  0  0  0  0  0  0  0  0  0  0  0  # atno 6907 bound_to 6896
  150.8763  133.7425  159.2952 H   0  0  0  0  0  0  0  0  0  0  0  0  # atno 6908 bound_to 6896
  151.4944  135.1062  159.9864 H   0  0  0  0  0  0  0  0  0  0  0  0  # atno 6909 bound_to 6896
  145.1861  139.3024  143.4393 H   0  0  0  0  0  0  0  0  0  0  0  0  # atno 7974 bound_to 7965
  155.6216  140.0682  157.2676 H   0  0  0  0  0  0  0  0  0  0  0  0  # atno 8008 bound_to 7997
  154.4228  140.1783  156.1426 H   0  0  0  0  0  0  0  0  0  0  0  0  # atno 8009 bound_to 7997
  156.0005  140.3336  155.6844 H   0  0  0  0  0  0  0  0  0  0  0  0  # atno 8010 bound_to 7997
  139.8280  143.7484  152.2666 H   0  0  0  0  0  0  0  0  0  0  0  0  # atno 10167 bound_to 10162
  156.5265  130.4645  149.6569 H   0  0  0  0  0  0  0  0  0  0  0  0  # atno 10718 bound_to 10713
  152.9808  135.6002  154.3630 H   0  0  0  0  0  0  0  0  0  0  0  0  # atno 10763 bound_to 10752
  154.3310  135.2768  155.2473 H   0  0  0  0  0  0  0  0  0  0  0  0  # atno 10764 bound_to 10752
  154.4597  135.5969  153.6303 H   0  0  0  0  0  0  0  0  0  0  0  0  # atno 10765 bound_to 10752
  140.1255  134.4773  155.8563 H   0  0  0  0  0  0  0  0  0  0  0  0  # atno 11005 bound_to 11000
  146.3445  140.2057  142.8589 LP  0  0  0  0  0  0  0  0  0  0  0  0  # atno 17320 bound_to 7965
  145.0088  140.8696  143.5237 LP  0  0  0  0  0  0  0  0  0  0  0  0  # atno 17321 bound_to 7965
  139.7683  144.7485  151.0261 LP  0  0  0  0  0  0  0  0  0  0  0  0  # atno 17342 bound_to 10162
  140.7809  143.4673  151.0194 LP  0  0  0  0  0  0  0  0  0  0  0  0  # atno 17343 bound_to 10162
  156.3100  130.7223  151.2114 LP  0  0  0  0  0  0  0  0  0  0  0  0  # atno 17370 bound_to 10713
  157.7428  131.0484  150.4992 LP  0  0  0  0  0  0  0  0  0  0  0  0  # atno 17371 bound_to 10713
  141.2160  133.6776  156.6970 LP  0  0  0  0  0  0  0  0  0  0  0  0  # atno 17394 bound_to 11000
  140.2909  134.8241  157.4016 LP  0  0  0  0  0  0  0  0  0  0  0  0  # atno 17395 bound_to 11000

$$$$
