AV-unprocessed.smi:1492|AV-procd|sdf|6037|dock5
  -GOLD-   22720 6143D 1   1.00000     0.00000
 Structure written by MMmdl.
 52 53  0  0  0  0  0  0  0  0  1 V2000
  149.3910  139.7881  157.9079 C   0  0  0  0  0  0  0  0  0  0  0  0
  149.1846  140.5819  156.6040 C   0  0  0  0  0  0  0  0  0  0  0  0
  148.5736  139.8263  155.3749 C   0  0  2  0  0  0  0  0  0  0  0  0
  148.3813  140.8472  154.2250 C   0  0  0  0  0  0  0  0  0  0  0  0
  147.1584  139.2991  155.7707 C   0  0  0  0  0  0  0  0  0  0  0  0
  146.4082  138.8696  154.5943 N   0  0  0  0  0  0  0  0  0  0  0  0
  146.0107  137.6175  154.3287 C   0  0  0  0  0  0  0  0  0  0  0  0
  146.4075  136.6258  154.9393 O   0  0  0  0  0  0  0  0  0  0  0  0
  144.9530  137.4787  153.2354 C   0  0  0  0  0  0  0  0  0  0  0  0
  144.8168  136.0620  152.6787 C   0  0  0  0  0  0  0  0  0  0  0  0
  145.2702  135.7020  151.4421 C   0  0  0  0  0  0  0  0  0  0  0  0
  145.9357  136.6806  150.4903 C   0  0  0  0  0  0  0  0  0  0  0  0
  145.1636  134.3847  150.9749 N   0  0  0  0  0  0  0  0  0  0  0  0
  144.6323  133.4932  151.7447 C   0  0  0  0  0  0  0  0  0  0  0  0
  144.4732  132.0366  151.3646 C   0  0  0  0  0  0  0  0  0  0  0  0
  144.1538  133.7929  153.0186 N   0  0  0  0  0  0  0  0  0  0  0  0
  144.2057  135.0361  153.5463 C   0  0  0  0  0  0  0  0  0  0  0  0
  143.7737  135.2489  154.6782 O   0  0  0  0  0  0  0  0  0  0  0  0
  149.4673  138.6933  154.9798 N   0  0  0  0  0  0  0  0  0  0  0  0
  150.8570  139.0638  154.6786 C   0  0  0  0  0  0  0  0  0  0  0  0
  151.6707  137.8759  154.1403 C   0  0  0  0  0  0  0  0  0  0  0  0
  151.6407  136.8111  155.0816 O   0  0  0  0  0  0  0  0  0  0  0  0
  150.3167  136.3774  155.3629 C   0  0  0  0  0  0  0  0  0  0  0  0
  149.4841  137.5524  155.9041 C   0  0  0  0  0  0  0  0  0  0  0  0
  143.7491  133.0550  153.5760 H   0  0  0  0  0  0  0  0  0  0  0  0
  149.7167  140.4556  158.7056 H   0  0  0  0  0  0  0  0  0  0  0  0
  150.1621  139.0251  157.8052 H   0  0  0  0  0  0  0  0  0  0  0  0
  148.4742  139.3069  158.2463 H   0  0  0  0  0  0  0  0  0  0  0  0
  148.5455  141.4248  156.8659 H   0  0  0  0  0  0  0  0  0  0  0  0
  150.1446  141.0174  156.3231 H   0  0  0  0  0  0  0  0  0  0  0  0
  147.7040  141.6510  154.5112 H   0  0  0  0  0  0  0  0  0  0  0  0
  147.9473  140.3884  153.3372 H   0  0  0  0  0  0  0  0  0  0  0  0
  149.3202  141.3146  153.9294 H   0  0  0  0  0  0  0  0  0  0  0  0
  147.2277  138.4540  156.4542 H   0  0  0  0  0  0  0  0  0  0  0  0
  146.6076  140.0441  156.3447 H   0  0  0  0  0  0  0  0  0  0  0  0
  146.0337  139.6063  154.0139 H   0  0  0  0  0  0  0  0  0  0  0  0
  143.9953  137.8329  153.6189 H   0  0  0  0  0  0  0  0  0  0  0  0
  145.1984  138.1654  152.4252 H   0  0  0  0  0  0  0  0  0  0  0  0
  146.8195  137.1228  150.9499 H   0  0  0  0  0  0  0  0  0  0  0  0
  145.2466  137.4799  150.2171 H   0  0  0  0  0  0  0  0  0  0  0  0
  146.2531  136.1855  149.5716 H   0  0  0  0  0  0  0  0  0  0  0  0
  143.8690  131.9480  150.4616 H   0  0  0  0  0  0  0  0  0  0  0  0
  143.9897  131.4637  152.1567 H   0  0  0  0  0  0  0  0  0  0  0  0
  145.4495  131.5922  151.1693 H   0  0  0  0  0  0  0  0  0  0  0  0
  150.9042  139.8530  153.9326 H   0  0  0  0  0  0  0  0  0  0  0  0
  151.3486  139.4452  155.5735 H   0  0  0  0  0  0  0  0  0  0  0  0
  151.2737  137.5375  153.1829 H   0  0  0  0  0  0  0  0  0  0  0  0
  152.7057  138.1722  153.9703 H   0  0  0  0  0  0  0  0  0  0  0  0
  149.8616  135.9677  154.4606 H   0  0  0  0  0  0  0  0  0  0  0  0
  150.3548  135.5710  156.0950 H   0  0  0  0  0  0  0  0  0  0  0  0
  149.8860  137.8564  156.8707 H   0  0  0  0  0  0  0  0  0  0  0  0
  148.4793  137.1748  156.0812 H   0  0  0  0  0  0  0  0  0  0  0  0
  1  2  1  0  0  0  0
  1 26  1  0  0  0  0
  1 27  1  0  0  0  0
  1 28  1  0  0  0  0
  2  3  1  0  0  0  0
  2 29  1  0  0  0  0
  2 30  1  0  0  0  0
  3  4  1  0  0  0  0
  3  5  1  0  0  0  0
  3 19  1  0  0  0  0
  4 31  1  0  0  0  0
  4 32  1  0  0  0  0
  4 33  1  0  0  0  0
  5  6  1  0  0  0  0
  5 34  1  0  0  0  0
  5 35  1  0  0  0  0
  6  7  1  0  0  0  0
  6 36  1  0  0  0  0
  7  8  2  0  0  0  0
  7  9  1  0  0  0  0
  9 10  1  0  0  0  0
  9 37  1  0  0  0  0
  9 38  1  0  0  0  0
 10 17  1  0  0  0  0
 10 11  2  0  0  0  0
 11 12  1  0  0  0  0
 11 13  1  0  0  0  0
 12 39  1  0  0  0  0
 12 40  1  0  0  0  0
 12 41  1  0  0  0  0
 13 14  2  0  0  0  0
 14 15  1  0  0  0  0
 14 16  1  0  0  0  0
 15 42  1  0  0  0  0
 15 43  1  0  0  0  0
 15 44  1  0  0  0  0
 16 25  1  0  0  0  0
 16 17  1  0  0  0  0
 17 18  2  0  0  0  0
 19 24  1  0  0  0  0
 19 20  1  0  0  0  0
 20 21  1  0  0  0  0
 20 45  1  0  0  0  0
 20 46  1  0  0  0  0
 21 22  1  0  0  0  0
 21 47  1  0  0  0  0
 21 48  1  0  0  0  0
 22 23  1  0  0  0  0
 23 24  1  0  0  0  0
 23 49  1  0  0  0  0
 23 50  1  0  0  0  0
 24 51  1  0  0  0  0
 24 52  1  0  0  0  0
M  END
> <s_m_source_file>
AV-unprocessed.smi

> <i_m_source_file_index>
1492

> <i_lp_mmshare_version>
43012

> <i_f3d_flags>
0

> <s_epik_input>
W0NIMl0xW0NIMl1PW0NIMl1bQ0gyXU4xW0NAQF0oW0NIM10pKFtDSDJdW0NIM10pW0NIMl1bTkhdQyg9TylbQ0gyXWMyYyhbQ0gzXSluYyhbQ0gzXSlbbkhdYzI9Tw==

> <s_epik_cmdline>
J2VwaWtfcHl0aG9uJywgJy1waCcsICc3LjAnLCAnLXRuJywgJzgnLCAnLW1hJywgJzIwMCcsICctbWV0YWxfYmluZGluZycsICctaW1hZScsICc8aW5maWxlLm1hZT4nLCAnLW9tYWUnLCAnPG91dGZpbGUubWFlPic=

> <r_lp_tautomer_probability>
0.839158

> <r_epik_Ionization_Penalty>
0.328652

> <r_epik_Ionization_Penalty_Charging>
0.000364731

> <r_epik_Ionization_Penalty_Neutral>
0.328288

> <r_epik_State_Penalty>
0.414451

> <r_epik_Charging_Adjusted_Penalty>
0.414816

> <i_epik_Tot_Q>
0

> <i_epik_Tot_abs_Q>
0

> <r_epik_Metal_State_Penalty>
0.592978

> <b_epik_Metal_Only>
0

> <s_lp_Force_Field>
OPLS_2005

> <r_lp_Energy>
44.0338

> <b_lp_Chiralities_Consistent>
1

> <s_lp_Variant>
AV-unprocessed.smi:1492-2

> <Gold.Version>
5.8.1

> <Gold.Id.Protein>
6NUR|6NUR_protein|mol2

> <Gold.PLP.Fitness>
31.8756

> <Gold.PLP.PLP>
-26.9842

> <Gold.PLP.part.hbond>
-1.9595

> <Gold.PLP.part.metal>
0.0000

> <Gold.PLP.part.buried>
-3.6315

> <Gold.PLP.part.nonpolar>
-22.5234

> <Gold.PLP.part.repulsive>
0.5186

> <Gold.PLP.ligand.clash>
0.0000

> <Gold.PLP.ligand.torsion>
0.6234

> <Gold.PLP.Chemscore.Hbond>
1.9913

> <Gold.PLP.Chemscore.CHOScore>
0.0000

> <Gold.PLP.Chemscore.Metal>
0.0000

> <Gold.Chemscore.Hbonds>
donor molecule, donor type, donor heavy atom, donor atom, acceptor molecule, acceptor atom, score
      L1  H    16    25       P1 10957  0.91
      P1  H 10752 10763       L1    22  1.00

> <Gold.PLP.Chemscore.Internal.Correction>
0.1645

> <Gold.Rescore>
     Score         DG    S(hbond)    S(metal)    S(lipo)     H(rot)  DE(clash)    DE(int)     intcor
     13.17     -14.46       1.87        0.00      69.71       2.12       0.53       0.76       ----

> <Gold.Chemscore.Fitness>
13.1708

> <Gold.Chemscore.DG>
-14.4589

> <Gold.Chemscore.ZeroCoef>
-5.4800

> <Gold.Chemscore.Hbond>
1.8678

> <Gold.Chemscore.Metal>
0.0000

> <Gold.Chemscore.Lipo>
69.7121

> <Gold.Chemscore.Internal_Hbond>
0.0000

> <Gold.Chemscore.DEClash>
0.5306

> <Gold.Chemscore.DEInternal>
0.7575

> <Gold.Chemscore.Rot>
2.1155

> <Gold.Chemscore.Internal.Correction>
   9.000000E+99

> <Gold.Chemscore.Hbonds>
donor molecule, donor type, donor heavy atom, donor atom, acceptor molecule, acceptor atom, score
      L1  H    16    25       P1 10957  0.79
      P1  H 10752 10763       L1    22  0.44

> <Gold.Chemscore.Hbond.Weighted>
-6.2383

> <Gold.Chemscore.Metal.Weighted>
-0.0000

> <Gold.Chemscore.Lipo.Weighted>
-8.1563

> <Gold.Chemscore.Internal_Hbond.Weighted>
0.0000

> <Gold.Chemscore.DEClash.Weighted>
0.5306

> <Gold.Chemscore.DEInternal.Weighted>
0.7575

> <Gold.Chemscore.Rot.Weighted>
5.4157

> <Gold.Chemscore.Internal.Correction.Weighted>
   9.000000E+99

> <Gold.Protein.RotatedTorsions>
[ 6907 6896 6895 6894 ] final  122.15 input  -60.11 | X-H torsion
[ 7974 7965 7964 7962 ] final  -49.40 input  175.53 | X-H torsion
[ 8008 7997 7996 7995 ] final  145.94 input   59.86 | X-H torsion
[ 10167 10162 10161 10158 ] final  -29.26 input  -65.29 | X-H torsion
[ 10718 10713 10712 10709 ] final  -87.37 input   66.30 | X-H torsion
[ 10763 10752 10751 10750 ] final   52.04 input  -60.55 | X-H torsion
[ 11005 11000 10999 10996 ] final  -18.49 input  -57.11 | X-H torsion

> <Gold.Protein.ActiveResidues>
 VAL166  LYS551  ARG553  GLY616  TRP617  ASP618  TYR619  PRO620  LYS621  CYS622 
 ASP623  PHE694  ASN695  SER759  ASP760  ASP761  ALA762  ILE779  LEU786  VAL792 
 PHE793  MET794  SER795  GLU796  ALA797  LYS798  CYS799  TRP800  GLU811  SER814 

> <Gold.Protein.RotatedAtoms>
  152.4266  133.7205  159.6530 H   0  0  0  0  0  0  0  0  0  0  0  0  # atno 6907 bound_to 6896
  150.8142  133.8355  159.3174 H   0  0  0  0  0  0  0  0  0  0  0  0  # atno 6908 bound_to 6896
  151.6057  135.1046  160.0121 H   0  0  0  0  0  0  0  0  0  0  0  0  # atno 6909 bound_to 6896
  145.9409  140.7663  142.9552 H   0  0  0  0  0  0  0  0  0  0  0  0  # atno 7974 bound_to 7965
  156.2869  140.2196  156.5296 H   0  0  0  0  0  0  0  0  0  0  0  0  # atno 8008 bound_to 7997
  154.7460  140.0484  157.0875 H   0  0  0  0  0  0  0  0  0  0  0  0  # atno 8009 bound_to 7997
  155.0170  140.3119  155.4811 H   0  0  0  0  0  0  0  0  0  0  0  0  # atno 8010 bound_to 7997
  140.7262  143.3943  151.1376 H   0  0  0  0  0  0  0  0  0  0  0  0  # atno 10167 bound_to 10162
  155.9986  130.4797  150.4857 H   0  0  0  0  0  0  0  0  0  0  0  0  # atno 10718 bound_to 10713
  152.9787  135.5825  154.4514 H   0  0  0  0  0  0  0  0  0  0  0  0  # atno 10763 bound_to 10752
  154.4103  135.2770  155.2043 H   0  0  0  0  0  0  0  0  0  0  0  0  # atno 10764 bound_to 10752
  154.3836  135.6141  153.5858 H   0  0  0  0  0  0  0  0  0  0  0  0  # atno 10765 bound_to 10752
  140.8273  133.8023  155.9722 H   0  0  0  0  0  0  0  0  0  0  0  0  # atno 11005 bound_to 11000
  144.6779  140.2279  143.7359 LP  0  0  0  0  0  0  0  0  0  0  0  0  # atno 17320 bound_to 7965
  145.8301  139.2082  143.1888 LP  0  0  0  0  0  0  0  0  0  0  0  0  # atno 17321 bound_to 7965
  139.7553  143.8717  152.3087 LP  0  0  0  0  0  0  0  0  0  0  0  0  # atno 17342 bound_to 10162
  139.8585  144.7129  150.9128 LP  0  0  0  0  0  0  0  0  0  0  0  0  # atno 17343 bound_to 10162
  157.2857  131.0616  151.2168 LP  0  0  0  0  0  0  0  0  0  0  0  0  # atno 17370 bound_to 10713
  157.3198  130.6931  149.6263 LP  0  0  0  0  0  0  0  0  0  0  0  0  # atno 17371 bound_to 10713
  140.9035  134.2348  157.5028 LP  0  0  0  0  0  0  0  0  0  0  0  0  # atno 17394 bound_to 11000
  139.8706  134.9717  156.4748 LP  0  0  0  0  0  0  0  0  0  0  0  0  # atno 17395 bound_to 11000

$$$$
