AV-unprocessed.smi:744|AV-procd|sdf|3570|dock8
  -GOLD-   22720 0563D 1   1.00000     0.00000
 Structure written by MMmdl.
 34 35  0  0  0  0  0  0  0  0  1 V2000
  144.6094  137.0838  151.8976 O   0  0  0  0  0  0  0  0  0  0  0  0
  145.8038  136.7876  151.8595 C   0  0  0  0  0  0  0  0  0  0  0  0
  146.7929  137.6844  151.9860 N   0  0  0  0  0  0  0  0  0  0  0  0
  146.6167  139.1209  152.1803 C   0  0  0  0  0  0  0  0  0  0  0  0
  147.1726  139.5899  153.5410 C   0  0  2  0  0  0  0  0  0  0  0  0
  147.6200  141.0560  153.5648 C   0  0  0  0  0  0  0  0  0  0  0  0
  148.5742  141.1794  154.7624 C   0  0  0  0  0  0  0  0  0  0  0  0
  148.9094  139.7456  155.2044 C   0  0  0  0  0  0  0  0  0  0  0  0
  148.3885  138.8276  154.0933 C   0  0  2  0  0  0  0  0  0  0  0  0
  149.3991  138.6821  153.1128 O   0  0  0  0  0  0  0  0  0  0  0  0
  146.2915  135.5467  151.6839 N   0  0  0  0  0  0  0  0  0  0  0  0
  145.5680  134.3372  151.5052 C   0  0  0  0  0  0  0  0  0  0  0  0
  146.3515  133.1611  151.5292 C   0  0  0  0  0  0  0  0  0  0  0  0
  145.7279  131.9096  151.3608 C   0  0  0  0  0  0  0  0  0  0  0  0
  144.3348  131.8659  151.1734 C   0  0  0  0  0  0  0  0  0  0  0  0
  143.6288  133.0829  151.1623 C   0  0  0  0  0  0  0  0  0  0  0  0
  144.2246  134.2834  151.3227 N   0  0  0  0  0  0  0  0  0  0  0  0
  147.7440  137.3489  151.9438 H   0  0  0  0  0  0  0  0  0  0  0  0
  147.0594  139.6888  151.3603 H   0  0  0  0  0  0  0  0  0  0  0  0
  145.5466  139.3262  152.1402 H   0  0  0  0  0  0  0  0  0  0  0  0
  146.3719  139.4909  154.2764 H   0  0  0  0  0  0  0  0  0  0  0  0
  148.1593  141.2953  152.6471 H   0  0  0  0  0  0  0  0  0  0  0  0
  146.7760  141.7428  153.6352 H   0  0  0  0  0  0  0  0  0  0  0  0
  149.4754  141.7218  154.4744 H   0  0  0  0  0  0  0  0  0  0  0  0
  148.1099  141.7308  155.5807 H   0  0  0  0  0  0  0  0  0  0  0  0
  149.9716  139.6059  155.4103 H   0  0  0  0  0  0  0  0  0  0  0  0
  148.3733  139.5255  156.1284 H   0  0  0  0  0  0  0  0  0  0  0  0
  148.1203  137.8413  154.4738 H   0  0  0  0  0  0  0  0  0  0  0  0
  149.4433  137.7714  152.8600 H   0  0  0  0  0  0  0  0  0  0  0  0
  147.2966  135.4565  151.6738 H   0  0  0  0  0  0  0  0  0  0  0  0
  147.4210  133.2122  151.6750 H   0  0  0  0  0  0  0  0  0  0  0  0
  146.3094  130.9995  151.3751 H   0  0  0  0  0  0  0  0  0  0  0  0
  143.8206  130.9255  151.0418 H   0  0  0  0  0  0  0  0  0  0  0  0
  142.5582  133.0935  151.0215 H   0  0  0  0  0  0  0  0  0  0  0  0
  1  2  2  0  0  0  0
  2  3  1  0  0  0  0
  2 11  1  0  0  0  0
  3  4  1  0  0  0  0
  3 18  1  0  0  0  0
  4  5  1  0  0  0  0
  4 19  1  0  0  0  0
  4 20  1  0  0  0  0
  5  9  1  0  0  0  0
  5  6  1  0  0  0  0
  5 21  1  0  0  0  0
  6  7  1  0  0  0  0
  6 22  1  0  0  0  0
  6 23  1  0  0  0  0
  7  8  1  0  0  0  0
  7 24  1  0  0  0  0
  7 25  1  0  0  0  0
  8  9  1  0  0  0  0
  8 26  1  0  0  0  0
  8 27  1  0  0  0  0
  9 10  1  0  0  0  0
  9 28  1  0  0  0  0
 10 29  1  0  0  0  0
 11 12  1  0  0  0  0
 11 30  1  0  0  0  0
 12 17  1  0  0  0  0
 12 13  2  0  0  0  0
 13 14  1  0  0  0  0
 13 31  1  0  0  0  0
 14 15  2  0  0  0  0
 14 32  1  0  0  0  0
 15 16  1  0  0  0  0
 15 33  1  0  0  0  0
 16 17  2  0  0  0  0
 16 34  1  0  0  0  0
M  END
> <s_m_source_file>
AV-unprocessed.smi

> <i_m_source_file_index>
744

> <i_lp_mmshare_version>
43012

> <i_f3d_flags>
0

> <s_epik_input>
bjFbY0hdW2NIXVtjSF1bY0hdYzFbTkhdQyg9TylbTkhdW0NIMl1bQ0BASF0yW0NIMl1bQ0gyXVtDSDJdW0NASF0yW09IXQ==

> <s_epik_cmdline>
J2VwaWtfcHl0aG9uJywgJy1waCcsICc3LjAnLCAnLXRuJywgJzgnLCAnLW1hJywgJzIwMCcsICctbWV0YWxfYmluZGluZycsICctaW1hZScsICc8aW5maWxlLm1hZT4nLCAnLW9tYWUnLCAnPG91dGZpbGUubWFlPic=

> <r_lp_tautomer_probability>
1

> <r_epik_Ionization_Penalty>
5.04769e-05

> <r_epik_Ionization_Penalty_Charging>
0

> <r_epik_Ionization_Penalty_Neutral>
5.04769e-05

> <r_epik_State_Penalty>
-0

> <r_epik_Charging_Adjusted_Penalty>
0

> <i_epik_Tot_Q>
0

> <i_epik_Tot_abs_Q>
0

> <r_epik_Metal_State_Penalty>
-0

> <b_epik_Metal_Only>
0

> <s_lp_Force_Field>
OPLS_2005

> <r_lp_Energy>
26.8719

> <b_lp_Chiralities_Consistent>
1

> <s_lp_Variant>
AV-unprocessed.smi:744-3

> <Gold.Version>
5.8.1

> <Gold.Id.Protein>
6NUR|6NUR_protein|mol2

> <Gold.PLP.Fitness>
40.9370

> <Gold.PLP.PLP>
-29.6849

> <Gold.PLP.part.hbond>
-3.4427

> <Gold.PLP.part.metal>
0.0000

> <Gold.PLP.part.buried>
-5.1122

> <Gold.PLP.part.nonpolar>
-24.9265

> <Gold.PLP.part.repulsive>
3.2615

> <Gold.PLP.ligand.clash>
0.0000

> <Gold.PLP.ligand.torsion>
0.3500

> <Gold.PLP.Chemscore.Hbond>
3.0000

> <Gold.PLP.Chemscore.CHOScore>
0.9835

> <Gold.PLP.Chemscore.Metal>
0.0000

> <Gold.Chemscore.Hbonds>
donor molecule, donor type, donor heavy atom, donor atom, acceptor molecule, acceptor atom, score
      L1  H     3    18       P1  7948  1.00
      L1  H    10    29       P1  7948  1.00
      L1  H    11    30       P1  7948  1.00
      L1  C    16    34       P1 10186  1.00

> <Gold.PLP.Chemscore.Internal.Correction>
0.0013

> <Gold.Rescore>
     Score         DG    S(hbond)    S(metal)    S(lipo)     H(rot)  DE(clash)    DE(int)     intcor
     14.97     -18.07       2.80        0.00      67.26       1.81       0.43       2.66       ----

> <Gold.Chemscore.Fitness>
14.9730

> <Gold.Chemscore.DG>
-18.0666

> <Gold.Chemscore.ZeroCoef>
-5.4800

> <Gold.Chemscore.Hbond>
2.7960

> <Gold.Chemscore.Metal>
0.0000

> <Gold.Chemscore.Lipo>
67.2584

> <Gold.Chemscore.Internal_Hbond>
0.0000

> <Gold.Chemscore.DEClash>
0.4301

> <Gold.Chemscore.DEInternal>
2.6635

> <Gold.Chemscore.Rot>
1.8052

> <Gold.Chemscore.Internal.Correction>
   9.000000E+99

> <Gold.Chemscore.Hbonds>
donor molecule, donor type, donor heavy atom, donor atom, acceptor molecule, acceptor atom, score
      L1  H     3    18       P1  7948  0.98
      L1  H    10    29       P1  7948  0.84
      L1  H    11    30       P1  7948  0.93

> <Gold.Chemscore.Hbond.Weighted>
-9.3386

> <Gold.Chemscore.Metal.Weighted>
-0.0000

> <Gold.Chemscore.Lipo.Weighted>
-7.8692

> <Gold.Chemscore.Internal_Hbond.Weighted>
0.0000

> <Gold.Chemscore.DEClash.Weighted>
0.4301

> <Gold.Chemscore.DEInternal.Weighted>
2.6635

> <Gold.Chemscore.Rot.Weighted>
4.6212

> <Gold.Chemscore.Internal.Correction.Weighted>
   9.000000E+99

> <Gold.Protein.RotatedTorsions>
[ 6907 6896 6895 6894 ] final   93.02 input  -60.11 | X-H torsion
[ 7974 7965 7964 7962 ] final   41.81 input  175.53 | X-H torsion
[ 8008 7997 7996 7995 ] final  -66.78 input   59.86 | X-H torsion
[ 10167 10162 10161 10158 ] final  168.85 input  -65.29 | X-H torsion
[ 10718 10713 10712 10709 ] final   18.62 input   66.30 | X-H torsion
[ 10763 10752 10751 10750 ] final  161.40 input  -60.55 | X-H torsion
[ 11005 11000 10999 10996 ] final  177.31 input  -57.11 | X-H torsion

> <Gold.Protein.ActiveResidues>
 VAL166  LYS551  ARG553  GLY616  TRP617  ASP618  TYR619  PRO620  LYS621  CYS622 
 ASP623  PHE694  ASN695  SER759  ASP760  ASP761  ALA762  ILE779  LEU786  VAL792 
 PHE793  MET794  SER795  GLU796  ALA797  LYS798  CYS799  TRP800  GLU811  SER814 

> <Gold.Protein.RotatedAtoms>
  152.5453  134.1412  159.8479 H   0  0  0  0  0  0  0  0  0  0  0  0  # atno 6907 bound_to 6896
  151.1448  133.4940  159.2603 H   0  0  0  0  0  0  0  0  0  0  0  0  # atno 6908 bound_to 6896
  151.1535  135.0249  159.8733 H   0  0  0  0  0  0  0  0  0  0  0  0  # atno 6909 bound_to 6896
  146.0793  139.5373  142.9547 H   0  0  0  0  0  0  0  0  0  0  0  0  # atno 7974 bound_to 7965
  154.4756  140.0906  156.7254 H   0  0  0  0  0  0  0  0  0  0  0  0  # atno 8008 bound_to 7997
  155.4605  140.3461  155.4294 H   0  0  0  0  0  0  0  0  0  0  0  0  # atno 8009 bound_to 7997
  156.1111  140.1448  156.9325 H   0  0  0  0  0  0  0  0  0  0  0  0  # atno 8010 bound_to 7997
  139.4978  144.3769  151.9664 H   0  0  0  0  0  0  0  0  0  0  0  0  # atno 10167 bound_to 10162
  157.0989  130.6459  149.5867 H   0  0  0  0  0  0  0  0  0  0  0  0  # atno 10718 bound_to 10713
  154.2623  135.2768  155.2773 H   0  0  0  0  0  0  0  0  0  0  0  0  # atno 10763 bound_to 10752
  154.5373  135.5713  153.6812 H   0  0  0  0  0  0  0  0  0  0  0  0  # atno 10764 bound_to 10752
  152.9960  135.6242  154.2774 H   0  0  0  0  0  0  0  0  0  0  0  0  # atno 10765 bound_to 10752
  140.3827  134.6932  157.4460 H   0  0  0  0  0  0  0  0  0  0  0  0  # atno 11005 bound_to 11000
  145.6248  141.0315  143.1895 LP  0  0  0  0  0  0  0  0  0  0  0  0  # atno 17320 bound_to 7965
  144.7282  139.7808  143.7357 LP  0  0  0  0  0  0  0  0  0  0  0  0  # atno 17321 bound_to 7965
  140.3206  144.3433  150.6010 LP  0  0  0  0  0  0  0  0  0  0  0  0  # atno 17342 bound_to 10162
  140.5726  143.2179  151.7572 LP  0  0  0  0  0  0  0  0  0  0  0  0  # atno 17343 bound_to 10162
  155.9878  130.4919  150.7144 LP  0  0  0  0  0  0  0  0  0  0  0  0  # atno 17370 bound_to 10713
  157.4657  131.0888  151.0697 LP  0  0  0  0  0  0  0  0  0  0  0  0  # atno 17371 bound_to 10713
  140.0466  134.6190  155.8913 LP  0  0  0  0  0  0  0  0  0  0  0  0  # atno 17394 bound_to 11000
  141.1918  133.6573  156.5473 LP  0  0  0  0  0  0  0  0  0  0  0  0  # atno 17395 bound_to 11000

$$$$
