AV-unprocessed.smi:2718|AV-procd|sdf|10490|dock9
  -GOLD-   2272014533D 1   1.00000     0.00000
 Structure written by MMmdl.
 47 48  0  0  0  0  0  0  0  0  1 V2000
  150.7649  142.6715  157.6646 C   0  0  0  0  0  0  0  0  0  0  0  0
  151.0398  141.2039  157.4036 C   0  0  0  0  0  0  0  0  0  0  0  0
  150.6056  140.7098  156.0348 C   0  0  0  0  0  0  0  0  0  0  0  0
  151.6260  140.4188  158.3274 C   0  0  0  0  0  0  0  0  0  0  0  0
  151.9499  138.9751  158.1853 C   0  0  2  0  0  0  0  0  0  0  0  0
  151.3953  137.9570  159.1643 C   0  0  1  0  0  0  0  0  0  0  0  0
  150.9290  136.6363  158.6349 C   0  0  0  0  0  0  0  0  0  0  0  0
  151.6829  135.7843  158.1634 O   0  0  0  0  0  0  0  0  0  0  0  0
  149.5992  136.4731  158.6964 N   0  0  0  0  0  0  0  0  0  0  0  0
  148.8706  135.3069  158.2052 C   0  0  0  0  0  0  0  0  0  0  0  0
  147.6292  134.9704  159.0616 C   0  0  1  0  0  0  0  0  0  0  0  0
  147.0737  133.5761  158.7359 C   0  0  0  0  0  0  0  0  0  0  0  0
  147.8811  135.1372  160.5369 C   0  0  0  0  0  0  0  0  0  0  0  0
  147.5000  136.2172  161.2328 N   0  0  0  0  0  0  0  0  0  0  0  0
  147.8913  135.9816  162.5350 N   0  0  0  0  0  0  0  0  0  0  0  0
  148.4688  134.7818  162.4988 C   0  0  0  0  0  0  0  0  0  0  0  0
  148.4956  134.1998  161.2906 N   0  0  0  0  0  0  0  0  0  0  0  0
  149.0438  132.9075  160.9286 C   0  0  0  0  0  0  0  0  0  0  0  0
  152.8857  138.2812  159.1624 C   0  0  0  0  0  0  0  0  0  0  0  0
  153.9474  137.3363  158.6115 C   0  0  0  0  0  0  0  0  0  0  0  0
  153.4443  139.0111  160.3750 C   0  0  0  0  0  0  0  0  0  0  0  0
  151.2781  143.2885  156.9266 H   0  0  0  0  0  0  0  0  0  0  0  0
  151.1061  142.9743  158.6551 H   0  0  0  0  0  0  0  0  0  0  0  0
  149.6958  142.8738  157.5975 H   0  0  0  0  0  0  0  0  0  0  0  0
  151.1357  141.2554  155.2540 H   0  0  0  0  0  0  0  0  0  0  0  0
  149.5363  140.8740  155.8995 H   0  0  0  0  0  0  0  0  0  0  0  0
  150.8009  139.6474  155.8916 H   0  0  0  0  0  0  0  0  0  0  0  0
  151.8968  140.8569  159.2773 H   0  0  0  0  0  0  0  0  0  0  0  0
  152.0097  138.6806  157.1385 H   0  0  0  0  0  0  0  0  0  0  0  0
  150.8255  138.3467  160.0073 H   0  0  0  0  0  0  0  0  0  0  0  0
  149.0474  137.2207  159.0921 H   0  0  0  0  0  0  0  0  0  0  0  0
  148.5884  135.4550  157.1615 H   0  0  0  0  0  0  0  0  0  0  0  0
  149.5634  134.4649  158.2186 H   0  0  0  0  0  0  0  0  0  0  0  0
  146.8500  135.6751  158.7726 H   0  0  0  0  0  0  0  0  0  0  0  0
  146.1552  133.3811  159.2905 H   0  0  0  0  0  0  0  0  0  0  0  0
  147.7890  132.7931  158.9895 H   0  0  0  0  0  0  0  0  0  0  0  0
  146.8437  133.4840  157.6742 H   0  0  0  0  0  0  0  0  0  0  0  0
  148.8827  134.3140  163.3802 H   0  0  0  0  0  0  0  0  0  0  0  0
  149.5100  132.4407  161.7968 H   0  0  0  0  0  0  0  0  0  0  0  0
  149.7955  133.0301  160.1486 H   0  0  0  0  0  0  0  0  0  0  0  0
  148.2482  132.2573  160.5641 H   0  0  0  0  0  0  0  0  0  0  0  0
  154.0773  136.4836  159.2784 H   0  0  0  0  0  0  0  0  0  0  0  0
  154.9037  137.8518  158.5199 H   0  0  0  0  0  0  0  0  0  0  0  0
  153.6840  136.9672  157.6210 H   0  0  0  0  0  0  0  0  0  0  0  0
  153.7680  138.2959  161.1316 H   0  0  0  0  0  0  0  0  0  0  0  0
  152.6927  139.6612  160.8238 H   0  0  0  0  0  0  0  0  0  0  0  0
  154.2979  139.6261  160.0887 H   0  0  0  0  0  0  0  0  0  0  0  0
  1  2  1  0  0  0  0
  1 22  1  0  0  0  0
  1 23  1  0  0  0  0
  1 24  1  0  0  0  0
  2  3  1  0  0  0  0
  2  4  2  0  0  0  0
  3 25  1  0  0  0  0
  3 26  1  0  0  0  0
  3 27  1  0  0  0  0
  4  5  1  0  0  0  0
  4 28  1  0  0  0  0
  5 19  1  0  0  0  0
  5  6  1  0  0  0  0
  5 29  1  0  0  0  0
  6  7  1  0  0  0  0
  6 19  1  0  0  0  0
  6 30  1  0  0  0  0
  7  8  2  0  0  0  0
  7  9  1  0  0  0  0
  9 10  1  0  0  0  0
  9 31  1  0  0  0  0
 10 11  1  0  0  0  0
 10 32  1  0  0  0  0
 10 33  1  0  0  0  0
 11 12  1  0  0  0  0
 11 13  1  0  0  0  0
 11 34  1  0  0  0  0
 12 35  1  0  0  0  0
 12 36  1  0  0  0  0
 12 37  1  0  0  0  0
 13 17  1  0  0  0  0
 13 14  2  0  0  0  0
 14 15  1  0  0  0  0
 15 16  2  0  0  0  0
 16 17  1  0  0  0  0
 16 38  1  0  0  0  0
 17 18  1  0  0  0  0
 18 39  1  0  0  0  0
 18 40  1  0  0  0  0
 18 41  1  0  0  0  0
 19 20  1  0  0  0  0
 19 21  1  0  0  0  0
 20 42  1  0  0  0  0
 20 43  1  0  0  0  0
 20 44  1  0  0  0  0
 21 45  1  0  0  0  0
 21 46  1  0  0  0  0
 21 47  1  0  0  0  0
M  END
> <s_m_source_file>
AV-unprocessed.smi

> <i_m_source_file_index>
2718

> <i_lp_mmshare_version>
43012

> <i_f3d_flags>
0

> <s_epik_input>
W0NIM11DKFtDSDNdKT1bQ0hdW0NAQEhdKEMxKFtDSDNdKVtDSDNdKVtDQEhdMUMoPU8pW05IXVtDSDJdW0NASF0oW0NIM10pYzJubltjSF1uMltDSDNd

> <s_epik_cmdline>
J2VwaWtfcHl0aG9uJywgJy1waCcsICc3LjAnLCAnLXRuJywgJzgnLCAnLW1hJywgJzIwMCcsICctbWV0YWxfYmluZGluZycsICctaW1hZScsICc8aW5maWxlLm1hZT4nLCAnLW9tYWUnLCAnPG91dGZpbGUubWFlPic=

> <r_lp_tautomer_probability>
1

> <r_epik_Ionization_Penalty>
0.000449586

> <r_epik_Ionization_Penalty_Charging>
0

> <r_epik_Ionization_Penalty_Neutral>
0.000449586

> <r_epik_State_Penalty>
0.000243372

> <r_epik_Charging_Adjusted_Penalty>
0.000243372

> <i_epik_Tot_Q>
0

> <i_epik_Tot_abs_Q>
0

> <r_epik_Metal_State_Penalty>
-0

> <b_epik_Metal_Only>
0

> <s_lp_Force_Field>
OPLS_2005

> <r_lp_Energy>
15.9496

> <b_lp_Chiralities_Consistent>
1

> <s_lp_Variant>
AV-unprocessed.smi:2718-5

> <Gold.Version>
5.8.1

> <Gold.Id.Protein>
6NUR|6NUR_protein|mol2

> <Gold.PLP.Fitness>
38.1025

> <Gold.PLP.PLP>
-34.6846

> <Gold.PLP.part.hbond>
-4.5784

> <Gold.PLP.part.metal>
0.0000

> <Gold.PLP.part.buried>
-4.6642

> <Gold.PLP.part.nonpolar>
-25.7370

> <Gold.PLP.part.repulsive>
0.1681

> <Gold.PLP.ligand.clash>
0.0000

> <Gold.PLP.ligand.torsion>
0.9471

> <Gold.PLP.Chemscore.Hbond>
1.6960

> <Gold.PLP.Chemscore.CHOScore>
0.0000

> <Gold.PLP.Chemscore.Metal>
0.0000

> <Gold.PLP.Chemscore.Internal.Correction>
0.2241

> <Gold.Rescore>
     Score         DG    S(hbond)    S(metal)    S(lipo)     H(rot)  DE(clash)    DE(int)     intcor
     10.20     -12.85       1.40        0.00      65.72       1.95       0.03       2.62       ----

> <Gold.Chemscore.Fitness>
10.2018

> <Gold.Chemscore.DG>
-12.8502

> <Gold.Chemscore.ZeroCoef>
-5.4800

> <Gold.Chemscore.Hbond>
1.4015

> <Gold.Chemscore.Metal>
0.0000

> <Gold.Chemscore.Lipo>
65.7249

> <Gold.Chemscore.Internal_Hbond>
0.0000

> <Gold.Chemscore.DEClash>
0.0299

> <Gold.Chemscore.DEInternal>
2.6185

> <Gold.Chemscore.Rot>
1.9533

> <Gold.Chemscore.Internal.Correction>
   9.000000E+99

> <Gold.Chemscore.Hbond.Weighted>
-4.6810

> <Gold.Chemscore.Metal.Weighted>
-0.0000

> <Gold.Chemscore.Lipo.Weighted>
-7.6898

> <Gold.Chemscore.Internal_Hbond.Weighted>
0.0000

> <Gold.Chemscore.DEClash.Weighted>
0.0299

> <Gold.Chemscore.DEInternal.Weighted>
2.6185

> <Gold.Chemscore.Rot.Weighted>
5.0005

> <Gold.Chemscore.Internal.Correction.Weighted>
   9.000000E+99

> <Gold.Protein.RotatedTorsions>
[ 6907 6896 6895 6894 ] final   73.54 input  -60.11 | X-H torsion
[ 7974 7965 7964 7962 ] final   15.16 input  175.53 | X-H torsion
[ 8008 7997 7996 7995 ] final   -7.79 input   59.86 | X-H torsion
[ 10167 10162 10161 10158 ] final    7.86 input  -65.29 | X-H torsion
[ 10718 10713 10712 10709 ] final -105.37 input   66.30 | X-H torsion
[ 10763 10752 10751 10750 ] final  149.81 input  -60.55 | X-H torsion
[ 11005 11000 10999 10996 ] final  152.55 input  -57.11 | X-H torsion

> <Gold.Protein.ActiveResidues>
 VAL166  LYS551  ARG553  GLY616  TRP617  ASP618  TYR619  PRO620  LYS621  CYS622 
 ASP623  PHE694  ASN695  SER759  ASP760  ASP761  ALA762  ILE779  LEU786  VAL792 
 PHE793  MET794  SER795  GLU796  ALA797  LYS798  CYS799  TRP800  GLU811  SER814 

> <Gold.Protein.RotatedAtoms>
  152.4929  134.4406  159.9541 H   0  0  0  0  0  0  0  0  0  0  0  0  # atno 6907 bound_to 6896
  151.4390  133.3642  159.2787 H   0  0  0  0  0  0  0  0  0  0  0  0  # atno 6908 bound_to 6896
  150.9101  134.8541  159.7479 H   0  0  0  0  0  0  0  0  0  0  0  0  # atno 6909 bound_to 6896
  146.2286  139.8935  142.8551 H   0  0  0  0  0  0  0  0  0  0  0  0  # atno 7974 bound_to 7965
  154.5804  140.2398  155.8062 H   0  0  0  0  0  0  0  0  0  0  0  0  # atno 8008 bound_to 7997
  156.2175  140.3008  155.9829 H   0  0  0  0  0  0  0  0  0  0  0  0  # atno 8009 bound_to 7997
  155.2551  140.0412  157.2981 H   0  0  0  0  0  0  0  0  0  0  0  0  # atno 8010 bound_to 7997
  140.6347  143.7912  150.7344 H   0  0  0  0  0  0  0  0  0  0  0  0  # atno 10167 bound_to 10162
  156.0343  130.5560  150.7529 H   0  0  0  0  0  0  0  0  0  0  0  0  # atno 10718 bound_to 10713
  154.0772  135.2862  155.3297 H   0  0  0  0  0  0  0  0  0  0  0  0  # atno 10763 bound_to 10752
  154.6708  135.5300  153.8139 H   0  0  0  0  0  0  0  0  0  0  0  0  # atno 10764 bound_to 10752
  153.0462  135.6557  154.0949 H   0  0  0  0  0  0  0  0  0  0  0  0  # atno 10765 bound_to 10752
  140.1317  134.8797  157.2213 H   0  0  0  0  0  0  0  0  0  0  0  0  # atno 11005 bound_to 11000
  145.2393  141.0003  143.3945 LP  0  0  0  0  0  0  0  0  0  0  0  0  # atno 17320 bound_to 7965
  144.9465  139.4130  143.6423 LP  0  0  0  0  0  0  0  0  0  0  0  0  # atno 17321 bound_to 7965
  140.1531  143.4340  152.2118 LP  0  0  0  0  0  0  0  0  0  0  0  0  # atno 17342 bound_to 10162
  139.5559  144.7372  151.4297 LP  0  0  0  0  0  0  0  0  0  0  0  0  # atno 17343 bound_to 10162
  157.5068  131.0922  151.0247 LP  0  0  0  0  0  0  0  0  0  0  0  0  # atno 17370 bound_to 10713
  157.0613  130.5826  149.5386 LP  0  0  0  0  0  0  0  0  0  0  0  0  # atno 17371 bound_to 10713
  140.2833  134.3324  155.7336 LP  0  0  0  0  0  0  0  0  0  0  0  0  # atno 17394 bound_to 11000
  141.2171  133.7491  156.9396 LP  0  0  0  0  0  0  0  0  0  0  0  0  # atno 17395 bound_to 11000

$$$$
