AV-unprocessed.smi:139|AV-procd|sdf|1183|dock3
  -GOLD-   2262018333D 1   1.00000     0.00000
 Structure written by MMmdl.
 50 53  0  0  0  0  0  0  0  0  1 V2000
  149.8404  138.7072  155.1048 O   0  0  0  0  0  0  0  0  0  0  0  0
  150.1506  138.0590  156.1051 C   0  0  0  0  0  0  0  0  0  0  0  0
  149.7288  136.5897  156.2469 C   0  0  0  0  0  0  0  0  0  0  0  0
  148.6127  136.4051  157.1996 N   0  0  0  0  0  0  0  0  0  0  0  0
  147.2892  136.3184  156.7013 C   0  0  0  0  0  0  0  0  0  0  0  0
  147.0547  136.3793  155.4937 O   0  0  0  0  0  0  0  0  0  0  0  0
  146.2465  136.1634  157.7093 C   0  0  0  0  0  0  0  0  0  0  0  0
  144.9609  136.0750  157.3282 F   0  0  0  0  0  0  0  0  0  0  0  0
  146.5503  136.1097  159.0225 C   0  0  0  0  0  0  0  0  0  0  0  0
  147.8480  136.1927  159.4955 N   0  0  0  0  0  0  0  0  0  0  0  0
  148.1717  136.1499  160.9748 C   0  0  2  0  0  0  0  0  0  0  0  0
  147.6843  134.8285  161.6005 C   0  0  0  0  0  0  0  0  0  0  0  0
  146.8534  135.2987  162.7782 C   0  0  0  0  0  0  0  0  0  0  0  0
  146.3606  136.6546  162.2965 C   0  0  0  0  0  0  0  0  0  0  0  0
  147.5033  137.1846  161.6388 O   0  0  0  0  0  0  0  0  0  0  0  0
  148.9120  136.3573  158.5824 C   0  0  0  0  0  0  0  0  0  0  0  0
  150.0738  136.4598  158.9842 O   0  0  0  0  0  0  0  0  0  0  0  0
  150.8592  138.5672  157.1274 N   0  0  0  0  0  0  0  0  0  0  0  0
  151.3258  139.9487  157.2675 C   0  0  1  0  0  0  0  0  0  0  0  0
  150.1687  140.9547  157.0963 C   0  0  0  0  0  0  0  0  0  0  0  0
  150.6210  142.3841  157.4009 C   0  0  0  0  0  0  0  0  0  0  0  0
  151.1206  142.5052  158.8448 C   0  0  0  0  0  0  0  0  0  0  0  0
  152.1005  141.4103  159.2394 C   0  0  0  0  0  0  0  0  0  0  0  0
  152.9190  141.6128  160.3707 C   0  0  0  0  0  0  0  0  0  0  0  0
  153.8312  140.6227  160.7791 C   0  0  0  0  0  0  0  0  0  0  0  0
  153.9314  139.4215  160.0552 C   0  0  0  0  0  0  0  0  0  0  0  0
  153.1186  139.2121  158.9258 C   0  0  0  0  0  0  0  0  0  0  0  0
  152.1896  140.1950  158.5111 C   0  0  0  0  0  0  0  0  0  0  0  0
  149.4860  136.2094  155.2541 H   0  0  0  0  0  0  0  0  0  0  0  0
  150.5883  135.9926  156.5580 H   0  0  0  0  0  0  0  0  0  0  0  0
  145.7299  135.9997  159.7150 H   0  0  0  0  0  0  0  0  0  0  0  0
  149.2492  136.3078  161.0441 H   0  0  0  0  0  0  0  0  0  0  0  0
  147.0629  134.2793  160.8915 H   0  0  0  0  0  0  0  0  0  0  0  0
  148.5264  134.2012  161.8936 H   0  0  0  0  0  0  0  0  0  0  0  0
  146.0436  134.6139  163.0304 H   0  0  0  0  0  0  0  0  0  0  0  0
  147.4854  135.4226  163.6586 H   0  0  0  0  0  0  0  0  0  0  0  0
  145.5371  136.5406  161.5902 H   0  0  0  0  0  0  0  0  0  0  0  0
  146.0307  137.2990  163.1115 H   0  0  0  0  0  0  0  0  0  0  0  0
  151.0660  137.9486  157.8980 H   0  0  0  0  0  0  0  0  0  0  0  0
  152.0039  140.1059  156.4279 H   0  0  0  0  0  0  0  0  0  0  0  0
  149.7618  140.8903  156.0867 H   0  0  0  0  0  0  0  0  0  0  0  0
  149.3484  140.7111  157.7724 H   0  0  0  0  0  0  0  0  0  0  0  0
  151.4221  142.6590  156.7135 H   0  0  0  0  0  0  0  0  0  0  0  0
  149.8072  143.0887  157.2267 H   0  0  0  0  0  0  0  0  0  0  0  0
  151.5826  143.4820  158.9932 H   0  0  0  0  0  0  0  0  0  0  0  0
  150.2731  142.4535  159.5290 H   0  0  0  0  0  0  0  0  0  0  0  0
  152.8469  142.5327  160.9323 H   0  0  0  0  0  0  0  0  0  0  0  0
  154.4540  140.7852  161.6463 H   0  0  0  0  0  0  0  0  0  0  0  0
  154.6326  138.6607  160.3648 H   0  0  0  0  0  0  0  0  0  0  0  0
  153.2134  138.2856  158.3789 H   0  0  0  0  0  0  0  0  0  0  0  0
  1  2  2  0  0  0  0
  2  3  1  0  0  0  0
  2 18  1  0  0  0  0
  3  4  1  0  0  0  0
  3 29  1  0  0  0  0
  3 30  1  0  0  0  0
  4 16  1  0  0  0  0
  4  5  1  0  0  0  0
  5  6  2  0  0  0  0
  5  7  1  0  0  0  0
  7  8  1  0  0  0  0
  7  9  2  0  0  0  0
  9 10  1  0  0  0  0
  9 31  1  0  0  0  0
 10 11  1  0  0  0  0
 10 16  1  0  0  0  0
 11 15  1  0  0  0  0
 11 12  1  0  0  0  0
 11 32  1  0  0  0  0
 12 13  1  0  0  0  0
 12 33  1  0  0  0  0
 12 34  1  0  0  0  0
 13 14  1  0  0  0  0
 13 35  1  0  0  0  0
 13 36  1  0  0  0  0
 14 15  1  0  0  0  0
 14 37  1  0  0  0  0
 14 38  1  0  0  0  0
 16 17  2  0  0  0  0
 18 19  1  0  0  0  0
 18 39  1  0  0  0  0
 19 28  1  0  0  0  0
 19 20  1  0  0  0  0
 19 40  1  0  0  0  0
 20 21  1  0  0  0  0
 20 41  1  0  0  0  0
 20 42  1  0  0  0  0
 21 22  1  0  0  0  0
 21 43  1  0  0  0  0
 21 44  1  0  0  0  0
 22 23  1  0  0  0  0
 22 45  1  0  0  0  0
 22 46  1  0  0  0  0
 23 28  2  0  0  0  0
 23 24  1  0  0  0  0
 24 25  2  0  0  0  0
 24 47  1  0  0  0  0
 25 26  1  0  0  0  0
 25 48  1  0  0  0  0
 26 27  2  0  0  0  0
 26 49  1  0  0  0  0
 27 28  1  0  0  0  0
 27 50  1  0  0  0  0
M  END
> <s_m_source_file>
AV-unprocessed.smi

> <i_m_source_file_index>
139

> <i_lp_mmshare_version>
43012

> <i_f3d_flags>
0

> <s_epik_input>
W2NIXTFbY0hdW2NIXVtjSF1jKGMxMilbQ0BASF0oW0NIMl1bQ0gyXVtDSDJdMilbTkhdQyg9TylbQ0gyXW4zYyg9TyljKEYpW2NIXW4oYzM9TylbQ0BASF00W0NIMl1bQ0gyXVtDSDJdTzQ=

> <s_epik_cmdline>
J2VwaWtfcHl0aG9uJywgJy1waCcsICc3LjAnLCAnLXRuJywgJzgnLCAnLW1hJywgJzIwMCcsICctbWV0YWxfYmluZGluZycsICctaW1hZScsICc8aW5maWxlLm1hZT4nLCAnLW9tYWUnLCAnPG91dGZpbGUubWFlPic=

> <r_lp_tautomer_probability>
1

> <r_epik_Ionization_Penalty>
3.261e-08

> <r_epik_Ionization_Penalty_Charging>
3.6725e-09

> <r_epik_Ionization_Penalty_Neutral>
2.89375e-08

> <r_epik_State_Penalty>
-0

> <r_epik_Charging_Adjusted_Penalty>
3.6725e-09

> <i_epik_Tot_Q>
0

> <i_epik_Tot_abs_Q>
0

> <r_epik_Metal_State_Penalty>
-0

> <b_epik_Metal_Only>
0

> <s_epik_Chemistry_Notes>
This compound contains an acetal/aminal-like group ( X-CH(R)-Y where X, Y are N, S, or O) that may be acid/base labile, releasing an aldehyde.

> <s_lp_Force_Field>
OPLS_2005

> <r_lp_Energy>
30.9596

> <b_lp_Chiralities_Consistent>
1

> <s_lp_Variant>
AV-unprocessed.smi:139-3

> <Gold.Version>
5.8.1

> <Gold.Id.Protein>
6NUR|6NUR_protein|mol2

> <Gold.PLP.Fitness>
46.2406

> <Gold.PLP.PLP>
-39.3165

> <Gold.PLP.part.hbond>
-3.0000

> <Gold.PLP.part.metal>
0.0000

> <Gold.PLP.part.buried>
-6.3634

> <Gold.PLP.part.nonpolar>
-30.8138

> <Gold.PLP.part.repulsive>
0.1367

> <Gold.PLP.ligand.clash>
0.0000

> <Gold.PLP.ligand.torsion>
0.5484

> <Gold.PLP.Chemscore.Hbond>
2.6464

> <Gold.PLP.Chemscore.CHOScore>
0.0000

> <Gold.PLP.Chemscore.Metal>
0.0000

> <Gold.Chemscore.Hbonds>
donor molecule, donor type, donor heavy atom, donor atom, acceptor molecule, acceptor atom, score
      P1  H  6896  6908       L1    17  1.00
      P1  H  6931  6943       L1    15  0.77
      P1  H  6934  6947       L1    15  0.82

> <Gold.PLP.Chemscore.Internal.Correction>
0.0816

> <Gold.Rescore>
     Score         DG    S(hbond)    S(metal)    S(lipo)     H(rot)  DE(clash)    DE(int)     intcor
     17.45     -17.99       1.84        0.00      94.11       1.82       0.00       0.54       ----

> <Gold.Chemscore.Fitness>
17.4545

> <Gold.Chemscore.DG>
-17.9921

> <Gold.Chemscore.ZeroCoef>
-5.4800

> <Gold.Chemscore.Hbond>
1.8424

> <Gold.Chemscore.Metal>
0.0000

> <Gold.Chemscore.Lipo>
94.1092

> <Gold.Chemscore.Internal_Hbond>
0.0000

> <Gold.Chemscore.DEClash>
0.0000

> <Gold.Chemscore.DEInternal>
0.5375

> <Gold.Chemscore.Rot>
1.8174

> <Gold.Chemscore.Internal.Correction>
   9.000000E+99

> <Gold.Chemscore.Hbonds>
donor molecule, donor type, donor heavy atom, donor atom, acceptor molecule, acceptor atom, score
      P1  H  6896  6908       L1    17  0.74
      P1  H  6931  6943       L1    15  0.11
      P1  H  6934  6947       L1    15  0.64

> <Gold.Chemscore.Hbond.Weighted>
-6.1538

> <Gold.Chemscore.Metal.Weighted>
-0.0000

> <Gold.Chemscore.Lipo.Weighted>
-11.0108

> <Gold.Chemscore.Internal_Hbond.Weighted>
0.0000

> <Gold.Chemscore.DEClash.Weighted>
0.0000

> <Gold.Chemscore.DEInternal.Weighted>
0.5375

> <Gold.Chemscore.Rot.Weighted>
4.6524

> <Gold.Chemscore.Internal.Correction.Weighted>
   9.000000E+99

> <Gold.Protein.RotatedTorsions>
[ 6907 6896 6895 6894 ] final  178.75 input  -60.11 | X-H torsion
[ 7974 7965 7964 7962 ] final  148.35 input  175.53 | X-H torsion
[ 8008 7997 7996 7995 ] final  -76.88 input   59.86 | X-H torsion
[ 10167 10162 10161 10158 ] final   -4.30 input  -65.29 | X-H torsion
[ 10718 10713 10712 10709 ] final  126.69 input   66.30 | X-H torsion
[ 10763 10752 10751 10750 ] final  107.33 input  -60.55 | X-H torsion
[ 11005 11000 10999 10996 ] final   -5.92 input  -57.11 | X-H torsion

> <Gold.Protein.ActiveResidues>
 VAL166  LYS551  ARG553  GLY616  TRP617  ASP618  TYR619  PRO620  LYS621  CYS622 
 ASP623  PHE694  ASN695  SER759  ASP760  ASP761  ALA762  ILE779  LEU786  VAL792 
 PHE793  MET794  SER795  GLU796  ALA797  LYS798  CYS799  TRP800  GLU811  SER814 

> <Gold.Protein.RotatedAtoms>
  151.6828  133.3312  159.3223 H   0  0  0  0  0  0  0  0  0  0  0  0  # atno 6907 bound_to 6896
  150.7815  134.6766  159.6430 H   0  0  0  0  0  0  0  0  0  0  0  0  # atno 6908 bound_to 6896
  152.3873  134.6500  160.0173 H   0  0  0  0  0  0  0  0  0  0  0  0  # atno 6909 bound_to 6896
  144.8520  139.6143  143.5969 H   0  0  0  0  0  0  0  0  0  0  0  0  # atno 7974 bound_to 7965
  154.5545  140.0719  156.8722 H   0  0  0  0  0  0  0  0  0  0  0  0  # atno 8008 bound_to 7997
  155.2928  140.3379  155.4233 H   0  0  0  0  0  0  0  0  0  0  0  0  # atno 8009 bound_to 7997
  156.1990  140.1714  156.7924 H   0  0  0  0  0  0  0  0  0  0  0  0  # atno 8010 bound_to 7997
  140.6922  143.6440  150.8410 H   0  0  0  0  0  0  0  0  0  0  0  0  # atno 10167 bound_to 10162
  157.5397  131.1097  150.8879 H   0  0  0  0  0  0  0  0  0  0  0  0  # atno 10718 bound_to 10713
  153.4053  135.3848  155.2015 H   0  0  0  0  0  0  0  0  0  0  0  0  # atno 10763 bound_to 10752
  154.8733  135.3781  154.4568 H   0  0  0  0  0  0  0  0  0  0  0  0  # atno 10764 bound_to 10752
  153.5070  135.7087  153.5863 H   0  0  0  0  0  0  0  0  0  0  0  0  # atno 10765 bound_to 10752
  140.6964  133.9027  155.8653 H   0  0  0  0  0  0  0  0  0  0  0  0  # atno 11005 bound_to 11000
  146.2793  139.6834  142.9241 LP  0  0  0  0  0  0  0  0  0  0  0  0  # atno 17320 bound_to 7965
  145.4480  141.0426  143.2820 LP  0  0  0  0  0  0  0  0  0  0  0  0  # atno 17321 bound_to 7965
  140.0154  143.5598  152.2822 LP  0  0  0  0  0  0  0  0  0  0  0  0  # atno 17342 bound_to 10162
  139.6337  144.7647  151.2482 LP  0  0  0  0  0  0  0  0  0  0  0  0  # atno 17343 bound_to 10162
  156.9435  130.5393  149.5280 LP  0  0  0  0  0  0  0  0  0  0  0  0  # atno 17370 bound_to 10713
  156.0487  130.5559  150.8939 LP  0  0  0  0  0  0  0  0  0  0  0  0  # atno 17371 bound_to 10713
  141.0200  134.0903  157.4131 LP  0  0  0  0  0  0  0  0  0  0  0  0  # atno 17394 bound_to 11000
  139.8909  135.0115  156.6761 LP  0  0  0  0  0  0  0  0  0  0  0  0  # atno 17395 bound_to 11000

$$$$
