AV-unprocessed.smi:38|AV-procd|sdf|341|dock6
  -GOLD-   2262016183D 1   1.00000     0.00000
 Structure written by MMmdl.
 28 29  0  0  0  0  0  0  0  0  1 V2000
  152.7069  140.0833  155.7414 O   0  0  0  0  0  0  0  0  0  0  0  0
  151.5669  139.9920  155.2902 C   0  0  0  0  0  0  0  0  0  0  0  0
  150.5495  140.8170  155.7792 N   0  0  0  0  0  0  0  0  0  0  0  0
  149.2210  140.8094  155.3499 C   0  0  0  0  0  0  0  0  0  0  0  0
  148.4140  141.5964  155.8426 O   0  0  0  0  0  0  0  0  0  0  0  0
  148.8751  139.8812  154.3426 N   0  0  0  0  0  0  0  0  0  0  0  0
  147.4514  139.8218  153.8382 C   0  0  1  0  0  0  0  0  0  0  0  0
  147.4162  139.5626  152.3316 C   0  0  0  0  0  0  0  0  0  0  0  0
  146.2302  138.6280  152.2184 C   0  0  1  0  0  0  0  0  0  0  0  0
  146.3256  137.8300  151.0562 O   0  0  0  0  0  0  0  0  0  0  0  0
  146.3500  137.8059  153.5044 C   0  0  2  0  0  0  0  0  0  0  0  0
  145.0211  137.1834  153.9591 C   0  0  0  0  0  0  0  0  0  0  0  0
  144.1353  138.1939  154.3907 O   0  0  0  0  0  0  0  0  0  0  0  0
  146.7896  138.7638  154.4675 O   0  0  0  0  0  0  0  0  0  0  0  0
  149.8559  139.0490  153.8196 C   0  0  0  0  0  0  0  0  0  0  0  0
  151.1423  139.0692  154.2417 C   0  0  0  0  0  0  0  0  0  0  0  0
  152.0370  138.2344  153.6861 F   0  0  0  0  0  0  0  0  0  0  0  0
  150.7980  141.4766  156.5021 H   0  0  0  0  0  0  0  0  0  0  0  0
  146.9463  140.7432  154.1318 H   0  0  0  0  0  0  0  0  0  0  0  0
  145.3012  139.2004  152.2099 H   0  0  0  0  0  0  0  0  0  0  0  0
  147.1190  137.0417  153.3772 H   0  0  0  0  0  0  0  0  0  0  0  0
  147.3064  140.4910  151.7703 H   0  0  0  0  0  0  0  0  0  0  0  0
  148.3359  139.0633  152.0202 H   0  0  0  0  0  0  0  0  0  0  0  0
  145.4827  137.8173  150.6288 H   0  0  0  0  0  0  0  0  0  0  0  0
  144.5664  136.5921  153.1636 H   0  0  0  0  0  0  0  0  0  0  0  0
  145.1901  136.5155  154.8042 H   0  0  0  0  0  0  0  0  0  0  0  0
  144.1376  138.8892  153.7508 H   0  0  0  0  0  0  0  0  0  0  0  0
  149.5966  138.3524  153.0368 H   0  0  0  0  0  0  0  0  0  0  0  0
  1  2  2  0  0  0  0
  2 16  1  0  0  0  0
  2  3  1  0  0  0  0
  3 18  1  0  0  0  0
  3  4  1  0  0  0  0
  4  5  2  0  0  0  0
  4  6  1  0  0  0  0
  6  7  1  0  0  0  0
  6 15  1  0  0  0  0
  7 19  1  0  0  0  0
  7 14  1  0  0  0  0
  7  8  1  0  0  0  0
  8  9  1  0  0  0  0
  8 22  1  0  0  0  0
  8 23  1  0  0  0  0
  9 20  1  0  0  0  0
  9 10  1  0  0  0  0
  9 11  1  0  0  0  0
 10 24  1  0  0  0  0
 11 21  1  0  0  0  0
 11 12  1  0  0  0  0
 11 14  1  0  0  0  0
 12 13  1  0  0  0  0
 12 25  1  0  0  0  0
 12 26  1  0  0  0  0
 13 27  1  0  0  0  0
 15 16  2  0  0  0  0
 15 28  1  0  0  0  0
 16 17  1  0  0  0  0
M  END
> <s_m_source_file>
AV-unprocessed.smi

> <i_m_source_file_index>
38

> <i_lp_mmshare_version>
43012

> <i_f3d_flags>
0

> <s_epik_input>
Tz1jMVtuSF1jKD1PKW4oW2NIXWMxRilbQ0BIXTJbQ0gyXVtDQEhdKFtPSF0pW0NASF0oTzIpW0NIMl1bT0hd

> <s_epik_cmdline>
J2VwaWtfcHl0aG9uJywgJy1waCcsICc3LjAnLCAnLXRuJywgJzgnLCAnLW1hJywgJzIwMCcsICctbWV0YWxfYmluZGluZycsICctaW1hZScsICc8aW5maWxlLm1hZT4nLCAnLW9tYWUnLCAnPG91dGZpbGUubWFlPic=

> <r_lp_tautomer_probability>
0.999537

> <r_epik_Ionization_Penalty>
0.0357432

> <r_epik_Ionization_Penalty_Charging>
0.0357431

> <r_epik_Ionization_Penalty_Neutral>
1.19946e-07

> <r_epik_State_Penalty>
0.0298169

> <r_epik_Charging_Adjusted_Penalty>
0.06556

> <i_epik_Tot_Q>
0

> <i_epik_Tot_abs_Q>
0

> <r_epik_Metal_State_Penalty>
2.348

> <b_epik_Metal_Only>
0

> <s_epik_Chemistry_Notes>
This compound contains an acetal/aminal-like group ( X-CH(R)-Y where X, Y are N, S, or O) that may be acid/base labile, releasing an aldehyde.

> <s_lp_Force_Field>
OPLS_2005

> <r_lp_Energy>
27.15

> <b_lp_Chiralities_Consistent>
1

> <s_lp_Variant>
AV-unprocessed.smi:38-7

> <Gold.Version>
5.8.1

> <Gold.Id.Protein>
6NUR|6NUR_protein|mol2

> <Gold.PLP.Fitness>
40.7254

> <Gold.PLP.PLP>
-26.3753

> <Gold.PLP.part.hbond>
-4.4308

> <Gold.PLP.part.metal>
0.0000

> <Gold.PLP.part.buried>
2.9689

> <Gold.PLP.part.nonpolar>
-24.8644

> <Gold.PLP.part.repulsive>
0.7461

> <Gold.PLP.ligand.clash>
0.0000

> <Gold.PLP.ligand.torsion>
0.6904

> <Gold.PLP.Chemscore.Hbond>
3.9750

> <Gold.PLP.Chemscore.CHOScore>
1.2654

> <Gold.PLP.Chemscore.Metal>
0.0000

> <Gold.Chemscore.Hbonds>
donor molecule, donor type, donor heavy atom, donor atom, acceptor molecule, acceptor atom, score
      L1  H    10    24       P1 10171  1.00
      L1  H    13    27       P1 10175  0.91
      P1  H  7954  7966       L1    10  0.65
      P1  H  7997  8010       L1     1  1.00
      L1  C    15    28       P1  7948  1.00
      L1  C    15    28       P1  7957  0.34

> <Gold.PLP.Chemscore.Internal.Correction>
0.0097

> <Gold.Rescore>
     Score         DG    S(hbond)    S(metal)    S(lipo)     H(rot)  DE(clash)    DE(int)     intcor
     13.53     -16.34       3.93        0.00      44.50       2.91       2.05       0.76       ----

> <Gold.Chemscore.Fitness>
13.5256

> <Gold.Chemscore.DG>
-16.3400

> <Gold.Chemscore.ZeroCoef>
-5.4800

> <Gold.Chemscore.Hbond>
3.9263

> <Gold.Chemscore.Metal>
0.0000

> <Gold.Chemscore.Lipo>
44.4989

> <Gold.Chemscore.Internal_Hbond>
0.0000

> <Gold.Chemscore.DEClash>
2.0528

> <Gold.Chemscore.DEInternal>
0.7616

> <Gold.Chemscore.Rot>
2.9141

> <Gold.Chemscore.Internal.Correction>
   9.000000E+99

> <Gold.Chemscore.Hbonds>
donor molecule, donor type, donor heavy atom, donor atom, acceptor molecule, acceptor atom, score
      L1  H    10    24       P1 10171  0.97
      L1  H    13    27       P1 10175  0.87
      P1  H  7954  7966       L1    10  0.61
      P1  H  7997  8010       L1     1  1.00

> <Gold.Chemscore.Hbond.Weighted>
-13.1138

> <Gold.Chemscore.Metal.Weighted>
-0.0000

> <Gold.Chemscore.Lipo.Weighted>
-5.2064

> <Gold.Chemscore.Internal_Hbond.Weighted>
0.0000

> <Gold.Chemscore.DEClash.Weighted>
2.0528

> <Gold.Chemscore.DEInternal.Weighted>
0.7616

> <Gold.Chemscore.Rot.Weighted>
7.4601

> <Gold.Chemscore.Internal.Correction.Weighted>
   9.000000E+99

> <Gold.Protein.RotatedTorsions>
[ 6907 6896 6895 6894 ] final  101.42 input  -60.11 | X-H torsion
[ 7974 7965 7964 7962 ] final  139.73 input  175.53 | X-H torsion
[ 8008 7997 7996 7995 ] final   88.18 input   59.86 | X-H torsion
[ 10167 10162 10161 10158 ] final   66.26 input  -65.29 | X-H torsion
[ 10718 10713 10712 10709 ] final -141.67 input   66.30 | X-H torsion
[ 10763 10752 10751 10750 ] final   49.59 input  -60.55 | X-H torsion
[ 11005 11000 10999 10996 ] final  107.06 input  -57.11 | X-H torsion

> <Gold.Protein.ActiveResidues>
 VAL166  LYS551  ARG553  GLY616  TRP617  ASP618  TYR619  PRO620  LYS621  CYS622 
 ASP623  PHE694  ASN695  SER759  ASP760  ASP761  ALA762  ILE779  LEU786  VAL792 
 PHE793  MET794  SER795  GLU796  ALA797  LYS798  CYS799  TRP800  GLU811  SER814 

> <Gold.Protein.RotatedAtoms>
  152.5349  134.0128  159.7945 H   0  0  0  0  0  0  0  0  0  0  0  0  # atno 6907 bound_to 6896
  151.0327  133.5768  159.2666 H   0  0  0  0  0  0  0  0  0  0  0  0  # atno 6908 bound_to 6896
  151.2766  135.0708  159.9207 H   0  0  0  0  0  0  0  0  0  0  0  0  # atno 6909 bound_to 6896
  144.9251  139.5118  143.5644 H   0  0  0  0  0  0  0  0  0  0  0  0  # atno 7974 bound_to 7965
  155.9846  140.3374  155.6695 H   0  0  0  0  0  0  0  0  0  0  0  0  # atno 8008 bound_to 7997
  155.6502  140.0705  157.2607 H   0  0  0  0  0  0  0  0  0  0  0  0  # atno 8009 bound_to 7997
  154.4201  140.1727  156.1654 H   0  0  0  0  0  0  0  0  0  0  0  0  # atno 8010 bound_to 7997
  140.1023  144.4892  150.7029 H   0  0  0  0  0  0  0  0  0  0  0  0  # atno 10167 bound_to 10162
  156.3368  130.7616  151.1744 H   0  0  0  0  0  0  0  0  0  0  0  0  # atno 10718 bound_to 10713
  152.9786  135.5906  154.4114 H   0  0  0  0  0  0  0  0  0  0  0  0  # atno 10763 bound_to 10752
  154.3749  135.2767  155.2247 H   0  0  0  0  0  0  0  0  0  0  0  0  # atno 10764 bound_to 10752
  154.4186  135.6064  153.6051 H   0  0  0  0  0  0  0  0  0  0  0  0  # atno 10765 bound_to 10752
  139.8823  134.9389  156.5762 H   0  0  0  0  0  0  0  0  0  0  0  0  # atno 11005 bound_to 11000
  146.3222  139.8160  142.8936 LP  0  0  0  0  0  0  0  0  0  0  0  0  # atno 17320 bound_to 7965
  145.3232  141.0249  143.3488 LP  0  0  0  0  0  0  0  0  0  0  0  0  # atno 17321 bound_to 7965
  140.6971  143.2410  151.4970 LP  0  0  0  0  0  0  0  0  0  0  0  0  # atno 17342 bound_to 10162
  139.5664  144.2032  152.1771 LP  0  0  0  0  0  0  0  0  0  0  0  0  # atno 17343 bound_to 10162
  157.7440  131.0466  150.4900 LP  0  0  0  0  0  0  0  0  0  0  0  0  # atno 17370 bound_to 10713
  156.5075  130.4131  149.6319 LP  0  0  0  0  0  0  0  0  0  0  0  0  # atno 17371 bound_to 10713
  140.8061  133.8466  155.8769 LP  0  0  0  0  0  0  0  0  0  0  0  0  # atno 17394 bound_to 11000
  140.9548  134.1732  157.4700 LP  0  0  0  0  0  0  0  0  0  0  0  0  # atno 17395 bound_to 11000

$$$$
