AV-unprocessed.smi:157|AV-procd|sdf|1312|dock1
  -GOLD-   2262019 03D 1   1.00000     0.00000
 Structure written by MMmdl.
 36 38  0  0  0  0  0  0  0  0  2 V2000
  155.4865  138.6440  154.7475 O   0  0  0  0  0  0  0  0  0  0  0  0
  154.4069  137.7674  154.9902 C   0  0  0  0  0  0  0  0  0  0  0  0
  153.0881  138.5562  155.0723 C   0  0  2  0  0  0  0  0  0  0  0  0
  152.9604  139.2124  156.3314 O   0  0  0  0  0  0  0  0  0  0  0  0
  151.6178  139.2695  156.7157 C   0  0  1  0  0  0  0  0  0  0  0  0
  151.2445  140.7011  156.9249 N   0  0  0  0  0  0  0  0  0  0  0  0
  150.3867  141.4208  156.1712 C   0  0  0  0  0  0  0  0  0  0  0  0
  150.2253  142.6703  156.5723 N   0  3  0  0  0  0  0  0  0  0  0  0
  151.0262  142.8307  157.6832 C   0  0  0  0  0  0  0  0  0  0  0  0
  151.6414  141.5938  157.8940 C   0  0  0  0  0  0  0  0  0  0  0  0
  152.5417  141.1958  158.8943 N   0  0  0  0  0  0  0  0  0  0  0  0
  152.7370  141.8750  159.9776 C   0  0  0  0  0  0  0  0  0  0  0  0
  152.2200  143.1071  160.3420 N   0  0  0  0  0  0  0  0  0  0  0  0
  152.1844  144.2499  159.4470 C   0  0  0  0  0  0  0  0  0  0  0  0
  151.0919  144.1572  158.3738 C   0  0  2  0  0  0  0  0  0  0  0  0
  149.8578  144.5302  158.9518 O   0  0  0  0  0  0  0  0  0  0  0  0
  150.7837  138.6632  155.5841 C   0  0  0  0  0  0  0  0  0  0  0  0
  151.7884  137.7542  154.9080 C   0  0  2  0  0  0  0  0  0  0  0  0
  151.8414  136.4972  155.5557 O   0  0  0  0  0  0  0  0  0  0  0  0
  153.0996  139.3456  154.3183 H   0  0  0  0  0  0  0  0  0  0  0  0
  151.4818  138.7755  157.6783 H   0  0  0  0  0  0  0  0  0  0  0  0
  151.3084  144.9123  157.6173 H   0  0  0  0  0  0  0  0  0  0  0  0
  151.5449  137.5907  153.8577 H   0  0  0  0  0  0  0  0  0  0  0  0
  155.3699  139.0352  153.8950 H   0  0  0  0  0  0  0  0  0  0  0  0
  154.3700  137.0025  154.2144 H   0  0  0  0  0  0  0  0  0  0  0  0
  154.5902  137.2523  155.9335 H   0  0  0  0  0  0  0  0  0  0  0  0
  149.8813  141.0077  155.3167 H   0  0  0  0  0  0  0  0  0  0  0  0
  153.3997  141.4682  160.7427 H   0  0  0  0  0  0  0  0  0  0  0  0
  152.2943  143.3957  161.3073 H   0  0  0  0  0  0  0  0  0  0  0  0
  152.0802  145.1671  160.0280 H   0  0  0  0  0  0  0  0  0  0  0  0
  153.1573  144.3111  158.9568 H   0  0  0  0  0  0  0  0  0  0  0  0
  149.3448  144.9883  158.3042 H   0  0  0  0  0  0  0  0  0  0  0  0
  149.8976  138.1559  155.9679 H   0  0  0  0  0  0  0  0  0  0  0  0
  150.4695  139.4476  154.8934 H   0  0  0  0  0  0  0  0  0  0  0  0
  151.3111  136.5406  156.3371 H   0  0  0  0  0  0  0  0  0  0  0  0
  149.6338  143.3687  156.1399 H   0  0  0  0  0  0  0  0  0  0  0  0
  1  2  1  0  0  0  0
  1 24  1  0  0  0  0
  2  3  1  0  0  0  0
  2 25  1  0  0  0  0
  2 26  1  0  0  0  0
  3 20  1  0  0  0  0
  3 18  1  0  0  0  0
  3  4  1  0  0  0  0
  4  5  1  0  0  0  0
  5 21  1  0  0  0  0
  5  6  1  0  0  0  0
  5 17  1  0  0  0  0
  6 10  1  0  0  0  0
  6  7  1  0  0  0  0
  7  8  2  0  0  0  0
  7 27  1  0  0  0  0
  8  9  1  0  0  0  0
  8 36  1  0  0  0  0
  9 15  1  0  0  0  0
  9 10  2  0  0  0  0
 10 11  1  0  0  0  0
 11 12  2  0  0  0  0
 12 13  1  0  0  0  0
 12 28  1  0  0  0  0
 13 14  1  0  0  0  0
 13 29  1  0  0  0  0
 14 15  1  0  0  0  0
 14 30  1  0  0  0  0
 14 31  1  0  0  0  0
 15 22  1  0  0  0  0
 15 16  1  0  0  0  0
 16 32  1  0  0  0  0
 17 18  1  0  0  0  0
 17 33  1  0  0  0  0
 17 34  1  0  0  0  0
 18 23  1  0  0  0  0
 18 19  1  0  0  0  0
 19 35  1  0  0  0  0
M  CHG  1   8   1
M  END
> <s_m_source_file>
AV-unprocessed.smi

> <i_m_source_file_index>
157

> <i_lp_mmshare_version>
43012

> <i_f3d_flags>
0

> <s_epik_input>
W09IXVtDSDJdW0NASF0xT1tDQEhdKFtDSDJdW0NAQEhdMVtPSF0pbihbY0hdbjIpYyhjMjMpTj1bQ0hdW05IXVtDSDJdW0NASF0zW09IXQ==

> <s_epik_cmdline>
J2VwaWtfcHl0aG9uJywgJy1waCcsICc3LjAnLCAnLXRuJywgJzgnLCAnLW1hJywgJzIwMCcsICctbWV0YWxfYmluZGluZycsICctaW1hZScsICc8aW5maWxlLm1hZT4nLCAnLW9tYWUnLCAnPG91dGZpbGUubWFlPic=

> <r_epik_Ionization_Penalty>
1.68594

> <r_epik_Ionization_Penalty_Charging>
0

> <r_epik_Ionization_Penalty_Neutral>
1.68594

> <r_epik_State_Penalty>
1.79006

> <r_epik_Charging_Adjusted_Penalty>
1.79006

> <i_epik_Tot_Q>
1

> <i_epik_Tot_abs_Q>
1

> <r_epik_Metal_State_Penalty>
5.85324

> <b_epik_Metal_Only>
0

> <s_epik_Chemistry_Notes>
This compound has an imine and may undergo hydrolysis. This compound contains an acetal/aminal-like group ( X-CH(R)-Y where X, Y are N, S, or O) that may be acid/base labile, releasing an aldehyde.

> <s_lp_Force_Field>
OPLS_2005

> <r_lp_Energy>
55.0153

> <b_lp_Chiralities_Consistent>
1

> <s_lp_Variant>
AV-unprocessed.smi:157-22

> <Gold.Version>
5.8.1

> <Gold.Id.Protein>
6NUR|6NUR_protein|mol2

> <Gold.PLP.Fitness>
54.2405

> <Gold.PLP.PLP>
-37.8141

> <Gold.PLP.part.hbond>
-4.7953

> <Gold.PLP.part.metal>
0.0000

> <Gold.PLP.part.buried>
-4.5262

> <Gold.PLP.part.nonpolar>
-31.2263

> <Gold.PLP.part.repulsive>
0.1487

> <Gold.PLP.ligand.clash>
0.0000

> <Gold.PLP.ligand.torsion>
0.2477

> <Gold.PLP.Chemscore.Hbond>
5.6385

> <Gold.PLP.Chemscore.CHOScore>
0.0000

> <Gold.PLP.Chemscore.Metal>
0.0000

> <Gold.Chemscore.Hbonds>
donor molecule, donor type, donor heavy atom, donor atom, acceptor molecule, acceptor atom, score
      L1  H     8    36       P1  8028  2.00
      L1  H    16    32       P1  8029  1.00
      P1  H  7997  8009       L1     4  1.00
      P1  H  7997  8010       L1     1  0.18
      P1  H 10752 10764       L1    19  1.00

> <Gold.PLP.Chemscore.Internal.Correction>
0.0063

> <Gold.Rescore>
     Score         DG    S(hbond)    S(metal)    S(lipo)     H(rot)  DE(clash)    DE(int)     intcor
     16.66     -17.60       4.08        0.00      67.31       3.67       0.68       0.27       ----

> <Gold.Chemscore.Fitness>
16.6551

> <Gold.Chemscore.DG>
-17.5988

> <Gold.Chemscore.ZeroCoef>
-5.4800

> <Gold.Chemscore.Hbond>
4.0803

> <Gold.Chemscore.Metal>
0.0000

> <Gold.Chemscore.Lipo>
67.3120

> <Gold.Chemscore.Internal_Hbond>
0.0000

> <Gold.Chemscore.DEClash>
0.6761

> <Gold.Chemscore.DEInternal>
0.2676

> <Gold.Chemscore.Rot>
3.6659

> <Gold.Chemscore.Internal.Correction>
   9.000000E+99

> <Gold.Chemscore.Hbonds>
donor molecule, donor type, donor heavy atom, donor atom, acceptor molecule, acceptor atom, score
      L1  H     8    36       P1  8028  0.99
      L1  H    16    32       P1  8029  0.48
      P1  H  7997  8009       L1     4  0.45
      P1  H  7997  8010       L1     1  0.01
      P1  H 10752 10764       L1    19  0.70

> <Gold.Chemscore.Hbond.Weighted>
-13.6281

> <Gold.Chemscore.Metal.Weighted>
-0.0000

> <Gold.Chemscore.Lipo.Weighted>
-7.8755

> <Gold.Chemscore.Internal_Hbond.Weighted>
0.0000

> <Gold.Chemscore.DEClash.Weighted>
0.6761

> <Gold.Chemscore.DEInternal.Weighted>
0.2676

> <Gold.Chemscore.Rot.Weighted>
9.3848

> <Gold.Chemscore.Internal.Correction.Weighted>
   9.000000E+99

> <Gold.Protein.RotatedTorsions>
[ 6907 6896 6895 6894 ] final  -65.50 input  -60.11 | X-H torsion
[ 7974 7965 7964 7962 ] final -146.68 input  175.53 | X-H torsion
[ 8008 7997 7996 7995 ] final -170.17 input   59.86 | X-H torsion
[ 10167 10162 10161 10158 ] final   32.01 input  -65.29 | X-H torsion
[ 10718 10713 10712 10709 ] final  175.30 input   66.30 | X-H torsion
[ 10763 10752 10751 10750 ] final  -46.05 input  -60.55 | X-H torsion
[ 11005 11000 10999 10996 ] final   44.60 input  -57.11 | X-H torsion

> <Gold.Protein.ActiveResidues>
 VAL166  LYS551  ARG553  GLY616  TRP617  ASP618  TYR619  PRO620  LYS621  CYS622 
 ASP623  PHE694  ASN695  SER759  ASP760  ASP761  ALA762  ILE779  LEU786  VAL792 
 PHE793  MET794  SER795  GLU796  ALA797  LYS798  CYS799  TRP800  GLU811  SER814 

> <Gold.Protein.RotatedAtoms>
  150.7520  134.6151  159.6106 H   0  0  0  0  0  0  0  0  0  0  0  0  # atno 6907 bound_to 6896
  152.3474  134.7050  160.0255 H   0  0  0  0  0  0  0  0  0  0  0  0  # atno 6908 bound_to 6896
  151.7482  133.3290  159.3421 H   0  0  0  0  0  0  0  0  0  0  0  0  # atno 6909 bound_to 6896
  144.8143  140.5425  143.5621 H   0  0  0  0  0  0  0  0  0  0  0  0  # atno 7974 bound_to 7965
  155.9148  140.1064  157.1252 H   0  0  0  0  0  0  0  0  0  0  0  0  # atno 8008 bound_to 7997
  154.4045  140.1267  156.4668 H   0  0  0  0  0  0  0  0  0  0  0  0  # atno 8009 bound_to 7997
  155.7267  140.3469  155.5043 H   0  0  0  0  0  0  0  0  0  0  0  0  # atno 8010 bound_to 7997
  140.4537  144.1009  150.6197 H   0  0  0  0  0  0  0  0  0  0  0  0  # atno 10167 bound_to 10162
  156.9369  130.9989  151.2976 H   0  0  0  0  0  0  0  0  0  0  0  0  # atno 10718 bound_to 10713
  154.0386  135.6647  153.4787 H   0  0  0  0  0  0  0  0  0  0  0  0  # atno 10763 bound_to 10752
  153.0511  135.5084  154.7864 H   0  0  0  0  0  0  0  0  0  0  0  0  # atno 10764 bound_to 10752
  154.6833  135.3048  154.9548 H   0  0  0  0  0  0  0  0  0  0  0  0  # atno 10765 bound_to 10752
  140.1537  134.4429  155.8364 H   0  0  0  0  0  0  0  0  0  0  0  0  # atno 11005 bound_to 11000
  145.5250  139.1476  143.3531 LP  0  0  0  0  0  0  0  0  0  0  0  0  # atno 17320 bound_to 7965
  146.2445  140.5391  142.8920 LP  0  0  0  0  0  0  0  0  0  0  0  0  # atno 17321 bound_to 7965
  140.4176  143.2627  151.9755 LP  0  0  0  0  0  0  0  0  0  0  0  0  # atno 17342 bound_to 10162
  139.4799  144.5860  151.7853 LP  0  0  0  0  0  0  0  0  0  0  0  0  # atno 17343 bound_to 10162
  157.5810  130.8377  149.8523 LP  0  0  0  0  0  0  0  0  0  0  0  0  # atno 17370 bound_to 10713
  156.0422  130.3736  150.1407 LP  0  0  0  0  0  0  0  0  0  0  0  0  # atno 17371 bound_to 10713
  141.2202  133.6883  156.7468 LP  0  0  0  0  0  0  0  0  0  0  0  0  # atno 17394 bound_to 11000
  140.2573  134.8494  157.3725 LP  0  0  0  0  0  0  0  0  0  0  0  0  # atno 17395 bound_to 11000

$$$$
