AV-unprocessed.smi:1535|AV-procd|sdf|6172|dock7
  -GOLD-   22720 6323D 1   1.00000     0.00000
 Structure written by MMmdl.
 46 47  0  0  0  0  0  0  0  0  1 V2000
  153.1701  142.2706  161.8004 C   0  0  0  0  0  0  0  0  0  0  0  0
  152.5830  142.0339  160.4201 C   0  0  0  0  0  0  0  0  0  0  0  0
  153.0147  140.9149  159.6728 C   0  0  0  0  0  0  0  0  0  0  0  0
  152.4929  140.6580  158.3860 C   0  0  0  0  0  0  0  0  0  0  0  0
  152.7673  139.6369  157.4931 N   0  0  0  0  0  0  0  0  0  0  0  0
  151.9681  139.9482  156.4768 C   0  0  0  0  0  0  0  0  0  0  0  0
  151.2095  141.0541  156.6042 N   0  0  0  0  0  0  0  0  0  0  0  0
  150.2712  141.5902  155.6310 C   0  0  0  0  0  0  0  0  0  0  0  0
  149.4178  140.5093  154.9329 C   0  0  2  0  0  0  0  0  0  0  0  0
  150.2272  139.8176  154.0024 O   0  0  0  0  0  0  0  0  0  0  0  0
  148.2002  141.0878  154.1770 C   0  0  0  0  0  0  0  0  0  0  0  0
  147.1797  141.7278  155.0119 N   0  0  0  0  0  0  0  0  0  0  0  0
  146.2963  142.5821  154.2198 C   0  0  0  0  0  0  0  0  0  0  0  0
  146.4142  140.7149  155.7422 C   0  0  0  0  0  0  0  0  0  0  0  0
  145.3554  141.2618  156.7187 C   0  0  1  0  0  0  0  0  0  0  0  0
  144.1295  140.3424  156.7782 C   0  0  0  0  0  0  0  0  0  0  0  0
  145.9176  141.4643  158.0646 C   0  0  0  0  0  0  0  0  0  0  0  0
  146.3595  141.6233  159.1221 N   0  0  0  0  0  0  0  0  0  0  0  0
  151.5205  141.5594  157.8624 C   0  0  0  0  0  0  0  0  0  0  0  0
  151.0836  142.6766  158.5963 C   0  0  0  0  0  0  0  0  0  0  0  0
  151.6151  142.9183  159.8803 C   0  0  0  0  0  0  0  0  0  0  0  0
  151.1352  144.1263  160.6650 C   0  0  0  0  0  0  0  0  0  0  0  0
  153.8471  141.4659  162.0877 H   0  0  0  0  0  0  0  0  0  0  0  0
  152.3803  142.3249  162.5496 H   0  0  0  0  0  0  0  0  0  0  0  0
  153.7317  143.2049  161.8195 H   0  0  0  0  0  0  0  0  0  0  0  0
  153.7524  140.2414  160.0833 H   0  0  0  0  0  0  0  0  0  0  0  0
  151.9345  139.3406  155.5841 H   0  0  0  0  0  0  0  0  0  0  0  0
  149.6281  142.3148  156.1328 H   0  0  0  0  0  0  0  0  0  0  0  0
  150.8356  142.1509  154.8854 H   0  0  0  0  0  0  0  0  0  0  0  0
  149.1038  139.7985  155.6952 H   0  0  0  0  0  0  0  0  0  0  0  0
  149.7840  139.8159  153.1673 H   0  0  0  0  0  0  0  0  0  0  0  0
  148.5474  141.8044  153.4314 H   0  0  0  0  0  0  0  0  0  0  0  0
  147.7432  140.2746  153.6111 H   0  0  0  0  0  0  0  0  0  0  0  0
  145.5700  143.0930  154.8498 H   0  0  0  0  0  0  0  0  0  0  0  0
  145.7502  142.0015  153.4748 H   0  0  0  0  0  0  0  0  0  0  0  0
  146.8499  143.3625  153.7008 H   0  0  0  0  0  0  0  0  0  0  0  0
  145.9398  140.0357  155.0319 H   0  0  0  0  0  0  0  0  0  0  0  0
  147.1021  140.1006  156.3254 H   0  0  0  0  0  0  0  0  0  0  0  0
  145.0105  142.2385  156.3817 H   0  0  0  0  0  0  0  0  0  0  0  0
  143.3775  140.7385  157.4611 H   0  0  0  0  0  0  0  0  0  0  0  0
  144.4000  139.3441  157.1237 H   0  0  0  0  0  0  0  0  0  0  0  0
  143.6654  140.2433  155.7967 H   0  0  0  0  0  0  0  0  0  0  0  0
  150.3458  143.3424  158.1744 H   0  0  0  0  0  0  0  0  0  0  0  0
  150.4431  144.7320  160.0792 H   0  0  0  0  0  0  0  0  0  0  0  0
  151.9761  144.7599  160.9474 H   0  0  0  0  0  0  0  0  0  0  0  0
  150.6192  143.8096  161.5717 H   0  0  0  0  0  0  0  0  0  0  0  0
  1  2  1  0  0  0  0
  1 23  1  0  0  0  0
  1 24  1  0  0  0  0
  1 25  1  0  0  0  0
  2 21  1  0  0  0  0
  2  3  2  0  0  0  0
  3  4  1  0  0  0  0
  3 26  1  0  0  0  0
  4 19  2  0  0  0  0
  4  5  1  0  0  0  0
  5  6  2  0  0  0  0
  6  7  1  0  0  0  0
  6 27  1  0  0  0  0
  7  8  1  0  0  0  0
  7 19  1  0  0  0  0
  8  9  1  0  0  0  0
  8 28  1  0  0  0  0
  8 29  1  0  0  0  0
  9 10  1  0  0  0  0
  9 11  1  0  0  0  0
  9 30  1  0  0  0  0
 10 31  1  0  0  0  0
 11 12  1  0  0  0  0
 11 32  1  0  0  0  0
 11 33  1  0  0  0  0
 12 13  1  0  0  0  0
 12 14  1  0  0  0  0
 13 34  1  0  0  0  0
 13 35  1  0  0  0  0
 13 36  1  0  0  0  0
 14 15  1  0  0  0  0
 14 37  1  0  0  0  0
 14 38  1  0  0  0  0
 15 16  1  0  0  0  0
 15 17  1  0  0  0  0
 15 39  1  0  0  0  0
 16 40  1  0  0  0  0
 16 41  1  0  0  0  0
 16 42  1  0  0  0  0
 17 18  3  0  0  0  0
 19 20  1  0  0  0  0
 20 21  2  0  0  0  0
 20 43  1  0  0  0  0
 21 22  1  0  0  0  0
 22 44  1  0  0  0  0
 22 45  1  0  0  0  0
 22 46  1  0  0  0  0
M  END
> <s_m_source_file>
AV-unprocessed.smi

> <i_m_source_file_index>
1535

> <i_lp_mmshare_version>
43012

> <i_f3d_flags>
0

> <s_epik_input>
W0NIM11jKFtjSF0xKWMoW0NIM10pW2NIXWMoYzEyKW4oW2NIXW4yKVtDSDJdW0NASF0oW09IXSlbQ0gyXU4oW0NIM10pW0NIMl1bQ0BIXShbQ0gzXSlDI04=

> <s_epik_cmdline>
J2VwaWtfcHl0aG9uJywgJy1waCcsICc3LjAnLCAnLXRuJywgJzgnLCAnLW1hJywgJzIwMCcsICctbWV0YWxfYmluZGluZycsICctaW1hZScsICc8aW5maWxlLm1hZT4nLCAnLW9tYWUnLCAnPG91dGZpbGUubWFlPic=

> <r_epik_Ionization_Penalty>
0.098511

> <r_epik_Ionization_Penalty_Charging>
0

> <r_epik_Ionization_Penalty_Neutral>
0.098511

> <r_epik_State_Penalty>
0.0881608

> <r_epik_Charging_Adjusted_Penalty>
0.0881608

> <i_epik_Tot_Q>
0

> <i_epik_Tot_abs_Q>
0

> <r_epik_Metal_State_Penalty>
0.0128087

> <b_epik_Metal_Only>
0

> <s_lp_Force_Field>
OPLS_2005

> <r_lp_Energy>
20.9194

> <b_lp_Chiralities_Consistent>
1

> <s_lp_Variant>
AV-unprocessed.smi:1535-3

> <Gold.Version>
5.8.1

> <Gold.Id.Protein>
6NUR|6NUR_protein|mol2

> <Gold.PLP.Fitness>
55.0226

> <Gold.PLP.PLP>
-45.0292

> <Gold.PLP.part.hbond>
-4.0000

> <Gold.PLP.part.metal>
0.0000

> <Gold.PLP.part.buried>
-6.8246

> <Gold.PLP.part.nonpolar>
-34.9329

> <Gold.PLP.part.repulsive>
0.1610

> <Gold.PLP.ligand.clash>
0.0000

> <Gold.PLP.ligand.torsion>
0.9059

> <Gold.PLP.Chemscore.Hbond>
3.8720

> <Gold.PLP.Chemscore.CHOScore>
0.0000

> <Gold.PLP.Chemscore.Metal>
0.0000

> <Gold.Chemscore.Hbonds>
donor molecule, donor type, donor heavy atom, donor atom, acceptor molecule, acceptor atom, score
      L1  H    10    31       P1  7957  1.00
      P1  H  6934  6946       L1    18  0.82
      P1  H  7989  7998       L1    10  0.80
      P1  H  7997  8009       L1     5  0.85

> <Gold.PLP.Chemscore.Internal.Correction>
0.1891

> <Gold.Rescore>
     Score         DG    S(hbond)    S(metal)    S(lipo)     H(rot)  DE(clash)    DE(int)     intcor
     20.50     -21.63       3.08        0.00     105.13       2.51       0.32       0.81       ----

> <Gold.Chemscore.Fitness>
20.4999

> <Gold.Chemscore.DG>
-21.6308

> <Gold.Chemscore.ZeroCoef>
-5.4800

> <Gold.Chemscore.Hbond>
3.0775

> <Gold.Chemscore.Metal>
0.0000

> <Gold.Chemscore.Lipo>
105.1343

> <Gold.Chemscore.Internal_Hbond>
0.0000

> <Gold.Chemscore.DEClash>
0.3244

> <Gold.Chemscore.DEInternal>
0.8065

> <Gold.Chemscore.Rot>
2.5113

> <Gold.Chemscore.Internal.Correction>
   9.000000E+99

> <Gold.Chemscore.Hbonds>
donor molecule, donor type, donor heavy atom, donor atom, acceptor molecule, acceptor atom, score
      L1  H    10    31       P1  7957  0.92
      P1  H  6934  6946       L1    18  0.81
      P1  H  7989  7998       L1    10  0.08
      P1  H  7997  8009       L1     5  0.08

> <Gold.Chemscore.Hbond.Weighted>
-10.2790

> <Gold.Chemscore.Metal.Weighted>
-0.0000

> <Gold.Chemscore.Lipo.Weighted>
-12.3007

> <Gold.Chemscore.Internal_Hbond.Weighted>
0.0000

> <Gold.Chemscore.DEClash.Weighted>
0.3244

> <Gold.Chemscore.DEInternal.Weighted>
0.8065

> <Gold.Chemscore.Rot.Weighted>
6.4289

> <Gold.Chemscore.Internal.Correction.Weighted>
   9.000000E+99

> <Gold.Protein.RotatedTorsions>
[ 6907 6896 6895 6894 ] final  143.98 input  -60.11 | X-H torsion
[ 7974 7965 7964 7962 ] final  -96.63 input  175.53 | X-H torsion
[ 8008 7997 7996 7995 ] final -179.41 input   59.86 | X-H torsion
[ 10167 10162 10161 10158 ] final -178.63 input  -65.29 | X-H torsion
[ 10718 10713 10712 10709 ] final  -49.35 input   66.30 | X-H torsion
[ 10763 10752 10751 10750 ] final  -35.91 input  -60.55 | X-H torsion
[ 11005 11000 10999 10996 ] final  144.56 input  -57.11 | X-H torsion

> <Gold.Protein.ActiveResidues>
 VAL166  LYS551  ARG553  GLY616  TRP617  ASP618  TYR619  PRO620  LYS621  CYS622 
 ASP623  PHE694  ASN695  SER759  ASP760  ASP761  ALA762  ILE779  LEU786  VAL792 
 PHE793  MET794  SER795  GLU796  ALA797  LYS798  CYS799  TRP800  GLU811  SER814 

> <Gold.Protein.RotatedAtoms>
  152.1995  133.4831  159.5050 H   0  0  0  0  0  0  0  0  0  0  0  0  # atno 6907 bound_to 6896
  150.6967  134.1609  159.4185 H   0  0  0  0  0  0  0  0  0  0  0  0  # atno 6908 bound_to 6896
  151.9526  135.0162  160.0593 H   0  0  0  0  0  0  0  0  0  0  0  0  # atno 6909 bound_to 6896
  145.3444  140.9465  143.2590 H   0  0  0  0  0  0  0  0  0  0  0  0  # atno 7974 bound_to 7965
  156.0302  140.1280  157.0266 H   0  0  0  0  0  0  0  0  0  0  0  0  # atno 8008 bound_to 7997
  154.4346  140.1051  156.6158 H   0  0  0  0  0  0  0  0  0  0  0  0  # atno 8009 bound_to 7997
  155.5818  140.3468  155.4544 H   0  0  0  0  0  0  0  0  0  0  0  0  # atno 8010 bound_to 7997
  139.5423  144.2328  152.0920 H   0  0  0  0  0  0  0  0  0  0  0  0  # atno 10167 bound_to 10162
  156.1901  130.4152  149.9383 H   0  0  0  0  0  0  0  0  0  0  0  0  # atno 10718 bound_to 10713
  153.8710  135.6831  153.4774 H   0  0  0  0  0  0  0  0  0  0  0  0  # atno 10763 bound_to 10752
  153.1287  135.4707  154.9312 H   0  0  0  0  0  0  0  0  0  0  0  0  # atno 10764 bound_to 10752
  154.7714  135.3240  154.8132 H   0  0  0  0  0  0  0  0  0  0  0  0  # atno 10765 bound_to 10752
  140.0642  134.9188  157.1235 H   0  0  0  0  0  0  0  0  0  0  0  0  # atno 11005 bound_to 11000
  144.8766  139.4963  143.6743 LP  0  0  0  0  0  0  0  0  0  0  0  0  # atno 17320 bound_to 7965
  146.2994  139.7379  142.9102 LP  0  0  0  0  0  0  0  0  0  0  0  0  # atno 17321 bound_to 7965
  140.1809  144.4845  150.6529 LP  0  0  0  0  0  0  0  0  0  0  0  0  # atno 17342 bound_to 10162
  140.6658  143.2267  151.5745 LP  0  0  0  0  0  0  0  0  0  0  0  0  # atno 17343 bound_to 10162
  156.7126  130.8976  151.3611 LP  0  0  0  0  0  0  0  0  0  0  0  0  # atno 17370 bound_to 10713
  157.6924  130.9247  150.0549 LP  0  0  0  0  0  0  0  0  0  0  0  0  # atno 17371 bound_to 10713
  140.3724  134.2375  155.7177 LP  0  0  0  0  0  0  0  0  0  0  0  0  # atno 17394 bound_to 11000
  141.1986  133.8032  157.0576 LP  0  0  0  0  0  0  0  0  0  0  0  0  # atno 17395 bound_to 11000

$$$$
