AV-unprocessed.smi:3172|AV-procd|sdf|12116|dock5
  -GOLD-   2272017553D 1   1.00000     0.00000
 Structure written by MMmdl.
 43 44  0  0  0  0  0  0  0  0  2 V2000
  144.2083  143.6730  155.8018 C   0  0  0  0  0  0  0  0  0  0  0  0
  145.5239  142.9780  155.9695 C   0  0  0  0  0  0  0  0  0  0  0  0
  146.0016  142.6271  157.2296 N   0  0  0  0  0  0  0  0  0  0  0  0
  147.1641  142.0435  156.9760 C   0  0  0  0  0  0  0  0  0  0  0  0
  147.4887  141.9900  155.6765 N   0  0  0  0  0  0  0  0  0  0  0  0
  148.6985  141.4159  155.1108 C   0  0  0  0  0  0  0  0  0  0  0  0
  149.8463  141.2950  156.1341 C   0  0  1  0  0  0  0  0  0  0  0  0
  150.9096  140.2613  155.7248 C   0  0  0  0  0  0  0  0  0  0  0  0
  150.4778  142.6204  156.3237 N   0  3  0  0  0  0  0  0  0  0  0  0
  150.8569  142.9663  157.7124 C   0  0  0  0  0  0  0  0  0  0  0  0
  151.6251  144.3017  157.7231 C   0  0  0  0  0  0  0  0  0  0  0  0
  152.0614  144.6927  159.1441 C   0  0  0  0  0  0  0  0  0  0  0  0
  152.8996  143.5808  159.7930 C   0  0  0  0  0  0  0  0  0  0  0  0
  152.1424  142.2437  159.7892 C   0  0  0  0  0  0  0  0  0  0  0  0
  151.7039  141.8538  158.3681 C   0  0  0  0  0  0  0  0  0  0  0  0
  146.4250  142.5868  155.0017 C   0  0  0  0  0  0  0  0  0  0  0  0
  146.3604  142.7325  153.5150 C   0  0  0  0  0  0  0  0  0  0  0  0
  143.5079  143.0553  155.2394 H   0  0  0  0  0  0  0  0  0  0  0  0
  144.3274  144.6137  155.2635 H   0  0  0  0  0  0  0  0  0  0  0  0
  143.7476  143.9003  156.7640 H   0  0  0  0  0  0  0  0  0  0  0  0
  147.7990  141.6507  157.7569 H   0  0  0  0  0  0  0  0  0  0  0  0
  148.4542  140.4335  154.7030 H   0  0  0  0  0  0  0  0  0  0  0  0
  149.0072  142.0300  154.2640 H   0  0  0  0  0  0  0  0  0  0  0  0
  149.4140  140.9684  157.0802 H   0  0  0  0  0  0  0  0  0  0  0  0
  150.4887  139.2575  155.6622 H   0  0  0  0  0  0  0  0  0  0  0  0
  151.7234  140.2220  156.4494 H   0  0  0  0  0  0  0  0  0  0  0  0
  151.3429  140.5018  154.7535 H   0  0  0  0  0  0  0  0  0  0  0  0
  151.2941  142.6853  155.7323 H   0  0  0  0  0  0  0  0  0  0  0  0
  149.9402  143.1044  158.2886 H   0  0  0  0  0  0  0  0  0  0  0  0
  152.5057  144.2282  157.0829 H   0  0  0  0  0  0  0  0  0  0  0  0
  151.0036  145.0934  157.3029 H   0  0  0  0  0  0  0  0  0  0  0  0
  152.6333  145.6205  159.1156 H   0  0  0  0  0  0  0  0  0  0  0  0
  151.1807  144.8915  159.7563 H   0  0  0  0  0  0  0  0  0  0  0  0
  153.8412  143.4698  159.2537 H   0  0  0  0  0  0  0  0  0  0  0  0
  153.1590  143.8588  160.8149 H   0  0  0  0  0  0  0  0  0  0  0  0
  152.7710  141.4599  160.2129 H   0  0  0  0  0  0  0  0  0  0  0  0
  151.2660  142.3188  160.4342 H   0  0  0  0  0  0  0  0  0  0  0  0
  151.1426  140.9203  158.4145 H   0  0  0  0  0  0  0  0  0  0  0  0
  152.5867  141.6531  157.7591 H   0  0  0  0  0  0  0  0  0  0  0  0
  145.3691  143.0550  153.1965 H   0  0  0  0  0  0  0  0  0  0  0  0
  146.5747  141.7867  153.0173 H   0  0  0  0  0  0  0  0  0  0  0  0
  147.0783  143.4739  153.1646 H   0  0  0  0  0  0  0  0  0  0  0  0
  149.8106  143.3134  156.0162 H   0  0  0  0  0  0  0  0  0  0  0  0
  1  2  1  0  0  0  0
  1 18  1  0  0  0  0
  1 19  1  0  0  0  0
  1 20  1  0  0  0  0
  2 16  2  0  0  0  0
  2  3  1  0  0  0  0
  3  4  2  0  0  0  0
  4  5  1  0  0  0  0
  4 21  1  0  0  0  0
  5  6  1  0  0  0  0
  5 16  1  0  0  0  0
  6  7  1  0  0  0  0
  6 22  1  0  0  0  0
  6 23  1  0  0  0  0
  7  8  1  0  0  0  0
  7  9  1  0  0  0  0
  7 24  1  0  0  0  0
  8 25  1  0  0  0  0
  8 26  1  0  0  0  0
  8 27  1  0  0  0  0
  9 10  1  0  0  0  0
  9 28  1  0  0  0  0
  9 43  1  0  0  0  0
 10 15  1  0  0  0  0
 10 11  1  0  0  0  0
 10 29  1  0  0  0  0
 11 12  1  0  0  0  0
 11 30  1  0  0  0  0
 11 31  1  0  0  0  0
 12 13  1  0  0  0  0
 12 32  1  0  0  0  0
 12 33  1  0  0  0  0
 13 14  1  0  0  0  0
 13 34  1  0  0  0  0
 13 35  1  0  0  0  0
 14 15  1  0  0  0  0
 14 36  1  0  0  0  0
 14 37  1  0  0  0  0
 15 38  1  0  0  0  0
 15 39  1  0  0  0  0
 16 17  1  0  0  0  0
 17 40  1  0  0  0  0
 17 41  1  0  0  0  0
 17 42  1  0  0  0  0
M  CHG  1   9   1
M  END
> <s_m_source_file>
AV-unprocessed.smi

> <i_m_source_file_index>
3172

> <i_lp_mmshare_version>
43012

> <i_f3d_flags>
0

> <s_epik_input>
W0NIM11jMW5bY0hdbihjMVtDSDNdKVtDSDJdW0NASF0oW0NIM10pW05IXVtDSF0yW0NIMl1bQ0gyXVtDSDJdW0NIMl1bQ0gyXTI=

> <s_epik_cmdline>
J2VwaWtfcHl0aG9uJywgJy1waCcsICc3LjAnLCAnLXRuJywgJzgnLCAnLW1hJywgJzIwMCcsICctbWV0YWxfYmluZGluZycsICctaW1hZScsICc8aW5maWxlLm1hZT4nLCAnLW9tYWUnLCAnPG91dGZpbGUubWFlPic=

> <r_lp_tautomer_probability>
1

> <r_epik_Ionization_Penalty>
0.328572

> <r_epik_Ionization_Penalty_Charging>
0.328572

> <r_epik_Ionization_Penalty_Neutral>
3.58496e-13

> <r_epik_State_Penalty>
0.596179

> <r_epik_Charging_Adjusted_Penalty>
0.924751

> <i_epik_Tot_Q>
1

> <i_epik_Tot_abs_Q>
1

> <r_epik_Metal_State_Penalty>
0.00102252

> <b_epik_Metal_Only>
0

> <s_lp_Force_Field>
OPLS_2005

> <r_lp_Energy>
17.121

> <b_lp_Chiralities_Consistent>
1

> <s_lp_Variant>
AV-unprocessed.smi:3172-4

> <Gold.Version>
5.8.1

> <Gold.Id.Protein>
6NUR|6NUR_protein|mol2

> <Gold.PLP.Fitness>
43.0431

> <Gold.PLP.PLP>
-39.0348

> <Gold.PLP.part.hbond>
-1.0000

> <Gold.PLP.part.metal>
0.0000

> <Gold.PLP.part.buried>
-3.6075

> <Gold.PLP.part.nonpolar>
-34.9923

> <Gold.PLP.part.repulsive>
0.2098

> <Gold.PLP.ligand.clash>
0.0000

> <Gold.PLP.ligand.torsion>
1.0126

> <Gold.PLP.Chemscore.Hbond>
2.0000

> <Gold.PLP.Chemscore.CHOScore>
0.0000

> <Gold.PLP.Chemscore.Metal>
0.0000

> <Gold.Chemscore.Hbonds>
donor molecule, donor type, donor heavy atom, donor atom, acceptor molecule, acceptor atom, score
      L1  H     9    43       P1  8028  2.00

> <Gold.PLP.Chemscore.Internal.Correction>
0.0335

> <Gold.Rescore>
     Score         DG    S(hbond)    S(metal)    S(lipo)     H(rot)  DE(clash)    DE(int)     intcor
     16.40     -17.47       1.00        0.00     106.76       1.50       0.04       1.03       ----

> <Gold.Chemscore.Fitness>
16.4025

> <Gold.Chemscore.DG>
-17.4691

> <Gold.Chemscore.ZeroCoef>
-5.4800

> <Gold.Chemscore.Hbond>
0.9994

> <Gold.Chemscore.Metal>
0.0000

> <Gold.Chemscore.Lipo>
106.7571

> <Gold.Chemscore.Internal_Hbond>
0.0000

> <Gold.Chemscore.DEClash>
0.0369

> <Gold.Chemscore.DEInternal>
1.0296

> <Gold.Chemscore.Rot>
1.4999

> <Gold.Chemscore.Internal.Correction>
   9.000000E+99

> <Gold.Chemscore.Hbonds>
donor molecule, donor type, donor heavy atom, donor atom, acceptor molecule, acceptor atom, score
      L1  H     9    43       P1  8028  1.00

> <Gold.Chemscore.Hbond.Weighted>
-3.3381

> <Gold.Chemscore.Metal.Weighted>
-0.0000

> <Gold.Chemscore.Lipo.Weighted>
-12.4906

> <Gold.Chemscore.Internal_Hbond.Weighted>
0.0000

> <Gold.Chemscore.DEClash.Weighted>
0.0369

> <Gold.Chemscore.DEInternal.Weighted>
1.0296

> <Gold.Chemscore.Rot.Weighted>
3.8397

> <Gold.Chemscore.Internal.Correction.Weighted>
   9.000000E+99

> <Gold.Protein.RotatedTorsions>
[ 6907 6896 6895 6894 ] final -132.90 input  -60.11 | X-H torsion
[ 7974 7965 7964 7962 ] final  148.82 input  175.53 | X-H torsion
[ 8008 7997 7996 7995 ] final   91.24 input   59.86 | X-H torsion
[ 10167 10162 10161 10158 ] final   15.43 input  -65.29 | X-H torsion
[ 10718 10713 10712 10709 ] final -147.22 input   66.30 | X-H torsion
[ 10763 10752 10751 10750 ] final  -91.71 input  -60.55 | X-H torsion
[ 11005 11000 10999 10996 ] final  -42.22 input  -57.11 | X-H torsion

> <Gold.Protein.ActiveResidues>
 VAL166  LYS551  ARG553  GLY616  TRP617  ASP618  TYR619  PRO620  LYS621  CYS622 
 ASP623  PHE694  ASN695  SER759  ASP760  ASP761  ALA762  ILE779  LEU786  VAL792 
 PHE793  MET794  SER795  GLU796  ALA797  LYS798  CYS799  TRP800  GLU811  SER814 

> <Gold.Protein.RotatedAtoms>
  150.9678  133.6376  159.2742 H   0  0  0  0  0  0  0  0  0  0  0  0  # atno 6907 bound_to 6896
  151.3676  135.0915  159.9465 H   0  0  0  0  0  0  0  0  0  0  0  0  # atno 6908 bound_to 6896
  152.5172  133.9238  159.7602 H   0  0  0  0  0  0  0  0  0  0  0  0  # atno 6909 bound_to 6896
  144.8484  139.6203  143.5985 H   0  0  0  0  0  0  0  0  0  0  0  0  # atno 7974 bound_to 7965
  156.0214  140.3340  155.7042 H   0  0  0  0  0  0  0  0  0  0  0  0  # atno 8008 bound_to 7997
  155.6017  140.0656  157.2749 H   0  0  0  0  0  0  0  0  0  0  0  0  # atno 8009 bound_to 7997
  154.4317  140.1809  156.1168 H   0  0  0  0  0  0  0  0  0  0  0  0  # atno 8010 bound_to 7997
  140.5868  143.8874  150.6837 H   0  0  0  0  0  0  0  0  0  0  0  0  # atno 10167 bound_to 10162
  156.4048  130.7952  151.2165 H   0  0  0  0  0  0  0  0  0  0  0  0  # atno 10718 bound_to 10713
  154.6788  135.5258  153.8235 H   0  0  0  0  0  0  0  0  0  0  0  0  # atno 10763 bound_to 10752
  153.0550  135.6547  154.0609 H   0  0  0  0  0  0  0  0  0  0  0  0  # atno 10764 bound_to 10752
  154.0499  135.2970  155.3322 H   0  0  0  0  0  0  0  0  0  0  0  0  # atno 10765 bound_to 10752
  141.0301  133.6824  156.2565 H   0  0  0  0  0  0  0  0  0  0  0  0  # atno 11005 bound_to 11000
  146.2764  139.6764  142.9260 LP  0  0  0  0  0  0  0  0  0  0  0  0  # atno 17320 bound_to 7965
  145.4549  141.0430  143.2784 LP  0  0  0  0  0  0  0  0  0  0  0  0  # atno 17321 bound_to 7965
  140.2387  143.3680  152.1505 LP  0  0  0  0  0  0  0  0  0  0  0  0  # atno 17342 bound_to 10162
  139.5202  144.7030  151.5437 LP  0  0  0  0  0  0  0  0  0  0  0  0  # atno 17343 bound_to 10162
  157.7505  131.0275  150.4010 LP  0  0  0  0  0  0  0  0  0  0  0  0  # atno 17370 bound_to 10713
  156.4297  130.3969  149.6768 LP  0  0  0  0  0  0  0  0  0  0  0  0  # atno 17371 bound_to 10713
  140.6422  134.5154  157.5570 LP  0  0  0  0  0  0  0  0  0  0  0  0  # atno 17394 bound_to 11000
  139.9202  134.8165  156.1237 LP  0  0  0  0  0  0  0  0  0  0  0  0  # atno 17395 bound_to 11000

$$$$
