AV-unprocessed.smi:3185|AV-procd|sdf|12168|dock1
  -GOLD-   2272018 03D 1   1.00000     0.00000
 Structure written by MMmdl.
 38 39  0  0  0  0  0  0  0  0  2 V2000
  148.8118  141.4095  153.8045 N   0  0  0  0  0  0  0  0  0  0  0  0
  149.3922  140.5651  154.3410 C   0  0  0  0  0  0  0  0  0  0  0  0
  150.1332  139.4941  155.0260 C   0  0  0  0  0  0  0  0  0  0  0  0
  151.2872  140.0181  155.8922 C   0  0  0  0  0  0  0  0  0  0  0  0
  150.8158  140.9533  157.0143 C   0  0  0  0  0  0  0  0  0  0  0  0
  151.9593  141.6430  157.6475 N   0  3  0  0  0  0  0  0  0  0  0  0
  152.2781  141.2143  159.0302 C   0  0  1  0  0  0  0  0  0  0  0  0
  153.1862  139.9699  158.9633 C   0  0  0  0  0  0  0  0  0  0  0  0
  153.6087  139.4878  160.3586 C   0  0  0  0  0  0  0  0  0  0  0  0
  154.3117  140.6084  161.1357 C   0  0  0  0  0  0  0  0  0  0  0  0
  153.4144  141.8499  161.2331 C   0  0  0  0  0  0  0  0  0  0  0  0
  152.9717  142.3471  159.8389 C   0  0  2  0  0  0  0  0  0  0  0  0
  152.1388  143.5375  159.9617 N   0  0  0  0  0  0  0  0  0  0  0  0
  152.3700  144.7960  159.4452 C   0  0  0  0  0  0  0  0  0  0  0  0
  151.3103  145.5827  159.7948 C   0  0  0  0  0  0  0  0  0  0  0  0
  150.4699  144.7085  160.5382 C   0  0  0  0  0  0  0  0  0  0  0  0
  150.9667  143.4862  160.6352 N   0  0  0  0  0  0  0  0  0  0  0  0
  149.4236  138.9343  155.6356 H   0  0  0  0  0  0  0  0  0  0  0  0
  150.5119  138.8117  154.2648 H   0  0  0  0  0  0  0  0  0  0  0  0
  151.8283  139.1736  156.3207 H   0  0  0  0  0  0  0  0  0  0  0  0
  151.9959  140.5458  155.2527 H   0  0  0  0  0  0  0  0  0  0  0  0
  150.1216  141.6866  156.6100 H   0  0  0  0  0  0  0  0  0  0  0  0
  150.2737  140.3840  157.7704 H   0  0  0  0  0  0  0  0  0  0  0  0
  152.7706  141.4564  157.0756 H   0  0  0  0  0  0  0  0  0  0  0  0
  151.3557  140.9197  159.5344 H   0  0  0  0  0  0  0  0  0  0  0  0
  152.6715  139.1618  158.4419 H   0  0  0  0  0  0  0  0  0  0  0  0
  154.0788  140.1940  158.3770 H   0  0  0  0  0  0  0  0  0  0  0  0
  152.7320  139.1497  160.9127 H   0  0  0  0  0  0  0  0  0  0  0  0
  154.2706  138.6258  160.2699 H   0  0  0  0  0  0  0  0  0  0  0  0
  154.5744  140.2601  162.1352 H   0  0  0  0  0  0  0  0  0  0  0  0
  155.2488  140.8685  160.6417 H   0  0  0  0  0  0  0  0  0  0  0  0
  152.5420  141.6071  161.8417 H   0  0  0  0  0  0  0  0  0  0  0  0
  153.9454  142.6433  161.7605 H   0  0  0  0  0  0  0  0  0  0  0  0
  153.8715  142.6442  159.2971 H   0  0  0  0  0  0  0  0  0  0  0  0
  153.2580  145.0255  158.8748 H   0  0  0  0  0  0  0  0  0  0  0  0
  151.1581  146.6251  159.5568 H   0  0  0  0  0  0  0  0  0  0  0  0
  149.5194  144.9231  161.0040 H   0  0  0  0  0  0  0  0  0  0  0  0
  151.7928  142.6391  157.6482 H   0  0  0  0  0  0  0  0  0  0  0  0
  1  2  3  0  0  0  0
  2  3  1  0  0  0  0
  3  4  1  0  0  0  0
  3 18  1  0  0  0  0
  3 19  1  0  0  0  0
  4  5  1  0  0  0  0
  4 20  1  0  0  0  0
  4 21  1  0  0  0  0
  5  6  1  0  0  0  0
  5 22  1  0  0  0  0
  5 23  1  0  0  0  0
  6  7  1  0  0  0  0
  6 24  1  0  0  0  0
  6 38  1  0  0  0  0
  7 12  1  0  0  0  0
  7  8  1  0  0  0  0
  7 25  1  0  0  0  0
  8  9  1  0  0  0  0
  8 26  1  0  0  0  0
  8 27  1  0  0  0  0
  9 10  1  0  0  0  0
  9 28  1  0  0  0  0
  9 29  1  0  0  0  0
 10 11  1  0  0  0  0
 10 30  1  0  0  0  0
 10 31  1  0  0  0  0
 11 12  1  0  0  0  0
 11 32  1  0  0  0  0
 11 33  1  0  0  0  0
 12 13  1  0  0  0  0
 12 34  1  0  0  0  0
 13 17  1  0  0  0  0
 13 14  1  0  0  0  0
 14 15  2  0  0  0  0
 14 35  1  0  0  0  0
 15 16  1  0  0  0  0
 15 36  1  0  0  0  0
 16 17  2  0  0  0  0
 16 37  1  0  0  0  0
M  CHG  1   6   1
M  END
> <s_m_source_file>
AV-unprocessed.smi

> <i_m_source_file_index>
3185

> <i_lp_mmshare_version>
43012

> <i_f3d_flags>
0

> <s_epik_input>
TiNDW0NIMl1bQ0gyXVtDSDJdW05IXVtDQEBIXTFbQ0gyXVtDSDJdW0NIMl1bQ0gyXVtDQEhdMW4yW2NIXVtjSF1bY0hdbjI=

> <s_epik_cmdline>
J2VwaWtfcHl0aG9uJywgJy1waCcsICc3LjAnLCAnLXRuJywgJzgnLCAnLW1hJywgJzIwMCcsICctbWV0YWxfYmluZGluZycsICctaW1hZScsICc8aW5maWxlLm1hZT4nLCAnLW9tYWUnLCAnPG91dGZpbGUubWFlPic=

> <r_lp_tautomer_probability>
1

> <r_epik_Ionization_Penalty>
0.0143465

> <r_epik_Ionization_Penalty_Charging>
0.0143338

> <r_epik_Ionization_Penalty_Neutral>
1.27047e-05

> <r_epik_State_Penalty>
0.0112058

> <r_epik_Charging_Adjusted_Penalty>
0.0255397

> <i_epik_Tot_Q>
1

> <i_epik_Tot_abs_Q>
1

> <r_epik_Metal_State_Penalty>
0.0112253

> <b_epik_Metal_Only>
0

> <s_lp_Force_Field>
OPLS_2005

> <r_lp_Energy>
15.0666

> <b_lp_Chiralities_Consistent>
1

> <s_lp_Variant>
AV-unprocessed.smi:3185-4

> <Gold.Version>
5.8.1

> <Gold.Id.Protein>
6NUR|6NUR_protein|mol2

> <Gold.PLP.Fitness>
41.9218

> <Gold.PLP.PLP>
-40.8622

> <Gold.PLP.part.hbond>
-2.0000

> <Gold.PLP.part.metal>
0.0000

> <Gold.PLP.part.buried>
-2.2893

> <Gold.PLP.part.nonpolar>
-36.5067

> <Gold.PLP.part.repulsive>
0.7712

> <Gold.PLP.ligand.clash>
0.0000

> <Gold.PLP.ligand.torsion>
0.6964

> <Gold.PLP.Chemscore.Hbond>
0.7680

> <Gold.PLP.Chemscore.CHOScore>
0.0000

> <Gold.PLP.Chemscore.Metal>
0.0000

> <Gold.Chemscore.Hbonds>
donor molecule, donor type, donor heavy atom, donor atom, acceptor molecule, acceptor atom, score
      P1  H  8011  8017       L1     1  0.76

> <Gold.PLP.Chemscore.Internal.Correction>
0.1485

> <Gold.Rescore>
     Score         DG    S(hbond)    S(metal)    S(lipo)     H(rot)  DE(clash)    DE(int)     intcor
     14.22     -15.10       0.69        0.00     103.58       1.88       0.18       0.70       ----

> <Gold.Chemscore.Fitness>
14.2190

> <Gold.Chemscore.DG>
-15.0981

> <Gold.Chemscore.ZeroCoef>
-5.4800

> <Gold.Chemscore.Hbond>
0.6898

> <Gold.Chemscore.Metal>
0.0000

> <Gold.Chemscore.Lipo>
103.5813

> <Gold.Chemscore.Internal_Hbond>
0.0000

> <Gold.Chemscore.DEClash>
0.1806

> <Gold.Chemscore.DEInternal>
0.6985

> <Gold.Chemscore.Rot>
1.8769

> <Gold.Chemscore.Internal.Correction>
   9.000000E+99

> <Gold.Chemscore.Hbonds>
donor molecule, donor type, donor heavy atom, donor atom, acceptor molecule, acceptor atom, score
      P1  H  8011  8017       L1     1  0.66

> <Gold.Chemscore.Hbond.Weighted>
-2.3040

> <Gold.Chemscore.Metal.Weighted>
-0.0000

> <Gold.Chemscore.Lipo.Weighted>
-12.1190

> <Gold.Chemscore.Internal_Hbond.Weighted>
0.0000

> <Gold.Chemscore.DEClash.Weighted>
0.1806

> <Gold.Chemscore.DEInternal.Weighted>
0.6985

> <Gold.Chemscore.Rot.Weighted>
4.8049

> <Gold.Chemscore.Internal.Correction.Weighted>
   9.000000E+99

> <Gold.Protein.RotatedTorsions>
[ 6907 6896 6895 6894 ] final  -91.65 input  -60.11 | X-H torsion
[ 7974 7965 7964 7962 ] final  131.13 input  175.53 | X-H torsion
[ 8008 7997 7996 7995 ] final  157.66 input   59.86 | X-H torsion
[ 10167 10162 10161 10158 ] final  -40.83 input  -65.29 | X-H torsion
[ 10718 10713 10712 10709 ] final -168.31 input   66.30 | X-H torsion
[ 10763 10752 10751 10750 ] final -130.73 input  -60.55 | X-H torsion
[ 11005 11000 10999 10996 ] final -124.12 input  -57.11 | X-H torsion

> <Gold.Protein.ActiveResidues>
 VAL166  LYS551  ARG553  GLY616  TRP617  ASP618  TYR619  PRO620  LYS621  CYS622 
 ASP623  PHE694  ASN695  SER759  ASP760  ASP761  ALA762  ILE779  LEU786  VAL792 
 PHE793  MET794  SER795  GLU796  ALA797  LYS798  CYS799  TRP800  GLU811  SER814 

> <Gold.Protein.RotatedAtoms>
  150.6895  134.2245  159.4409 H   0  0  0  0  0  0  0  0  0  0  0  0  # atno 6907 bound_to 6896
  152.0199  134.9826  160.0579 H   0  0  0  0  0  0  0  0  0  0  0  0  # atno 6908 bound_to 6896
  152.1407  133.4427  159.4802 H   0  0  0  0  0  0  0  0  0  0  0  0  # atno 6909 bound_to 6896
  145.0106  139.4224  143.5247 H   0  0  0  0  0  0  0  0  0  0  0  0  # atno 7974 bound_to 7965
  156.2350  140.1879  156.7142 H   0  0  0  0  0  0  0  0  0  0  0  0  # atno 8008 bound_to 7997
  154.6091  140.0624  156.9497 H   0  0  0  0  0  0  0  0  0  0  0  0  # atno 8009 bound_to 7997
  155.2046  140.3295  155.4340 H   0  0  0  0  0  0  0  0  0  0  0  0  # atno 8010 bound_to 7997
  140.7022  143.3130  151.2980 H   0  0  0  0  0  0  0  0  0  0  0  0  # atno 10167 bound_to 10162
  156.6950  130.9174  151.3073 H   0  0  0  0  0  0  0  0  0  0  0  0  # atno 10718 bound_to 10713
  154.8754  135.3853  154.4130 H   0  0  0  0  0  0  0  0  0  0  0  0  # atno 10763 bound_to 10752
  153.4842  135.7030  153.5926 H   0  0  0  0  0  0  0  0  0  0  0  0  # atno 10764 bound_to 10752
  153.4328  135.3874  155.2148 H   0  0  0  0  0  0  0  0  0  0  0  0  # atno 10765 bound_to 10752
  140.9866  134.0598  157.3704 H   0  0  0  0  0  0  0  0  0  0  0  0  # atno 11005 bound_to 11000
  146.3469  139.9547  142.8724 LP  0  0  0  0  0  0  0  0  0  0  0  0  # atno 17320 bound_to 7965
  145.2028  140.9862  143.4145 LP  0  0  0  0  0  0  0  0  0  0  0  0  # atno 17321 bound_to 7965
  139.6559  144.0276  152.2659 LP  0  0  0  0  0  0  0  0  0  0  0  0  # atno 17342 bound_to 10162
  139.9828  144.6416  150.7885 LP  0  0  0  0  0  0  0  0  0  0  0  0  # atno 17343 bound_to 10162
  157.6994  130.9317  150.0741 LP  0  0  0  0  0  0  0  0  0  0  0  0  # atno 17370 bound_to 10713
  156.1770  130.3648  149.9087 LP  0  0  0  0  0  0  0  0  0  0  0  0  # atno 17371 bound_to 10713
  139.8973  135.0150  156.7095 LP  0  0  0  0  0  0  0  0  0  0  0  0  # atno 17394 bound_to 11000
  140.7105  133.9227  155.8081 LP  0  0  0  0  0  0  0  0  0  0  0  0  # atno 17395 bound_to 11000

$$$$
