AV-unprocessed.smi:1597|AV-procd|sdf|6420|dock6
  -GOLD-   22720 7 53D 1   1.00000     0.00000
 Structure written by MMmdl.
 53 54  0  0  0  0  0  0  0  0  2 V2000
  148.0435  135.3054  154.8381 C   0  0  0  0  0  0  0  0  0  0  0  0
  147.5740  136.4239  153.9769 N   0  3  0  0  0  0  0  0  0  0  0  0
  146.1774  136.1638  153.5278 C   0  0  0  0  0  0  0  0  0  0  0  0
  147.8606  137.8185  154.4922 C   0  0  0  0  0  0  0  0  0  0  0  0
  147.1261  137.9884  155.8644 C   0  0  0  0  0  0  0  0  0  0  0  0
  147.8884  137.4596  156.9934 N   0  0  0  0  0  0  0  0  0  0  0  0
  148.1960  138.0949  158.1358 C   0  0  0  0  0  0  0  0  0  0  0  0
  147.8395  139.2465  158.3767 O   0  0  0  0  0  0  0  0  0  0  0  0
  149.0571  137.3422  159.1650 C   0  0  0  0  0  0  0  0  0  0  0  0
  148.4442  136.1091  159.6849 N   0  0  0  0  0  0  0  0  0  0  0  0
  148.4059  134.9801  158.8865 C   0  0  0  0  0  0  0  0  0  0  0  0
  147.8389  133.8155  159.2691 C   0  0  0  0  0  0  0  0  0  0  0  0
  147.2182  133.6835  160.5809 C   0  0  0  0  0  0  0  0  0  0  0  0
  146.6914  132.6441  160.9799 O   0  0  0  0  0  0  0  0  0  0  0  0
  147.2664  134.8512  161.3758 N   0  0  0  0  0  0  0  0  0  0  0  0
  146.6633  134.7613  162.6893 C   0  0  0  0  0  0  0  0  0  0  0  0
  147.8684  136.0665  160.9741 C   0  0  0  0  0  0  0  0  0  0  0  0
  147.8928  137.0643  161.6975 O   0  0  0  0  0  0  0  0  0  0  0  0
  149.4029  137.9802  154.7157 C   0  0  0  0  0  0  0  0  0  0  0  0
  150.0824  139.3269  154.4005 C   0  0  0  0  0  0  0  0  0  0  0  0
  149.4318  140.5819  154.9949 C   0  0  0  0  0  0  0  0  0  0  0  0
  148.3594  141.1734  154.0726 C   0  0  0  0  0  0  0  0  0  0  0  0
  147.0858  140.3299  153.9503 C   0  0  0  0  0  0  0  0  0  0  0  0
  147.2928  138.8722  153.4728 C   0  0  0  0  0  0  0  0  0  0  0  0
  147.6159  135.3611  155.8393 H   0  0  0  0  0  0  0  0  0  0  0  0
  149.1287  135.2774  154.9265 H   0  0  0  0  0  0  0  0  0  0  0  0
  147.7557  134.3447  154.4100 H   0  0  0  0  0  0  0  0  0  0  0  0
  145.4866  136.0780  154.3662 H   0  0  0  0  0  0  0  0  0  0  0  0
  146.1377  135.2201  152.9829 H   0  0  0  0  0  0  0  0  0  0  0  0
  145.7882  136.9189  152.8499 H   0  0  0  0  0  0  0  0  0  0  0  0
  146.8348  139.0187  156.0613 H   0  0  0  0  0  0  0  0  0  0  0  0
  146.1745  137.4617  155.8562 H   0  0  0  0  0  0  0  0  0  0  0  0
  148.2224  136.5113  156.8950 H   0  0  0  0  0  0  0  0  0  0  0  0
  150.0117  137.1000  158.6955 H   0  0  0  0  0  0  0  0  0  0  0  0
  149.3033  138.0225  159.9817 H   0  0  0  0  0  0  0  0  0  0  0  0
  148.8488  135.0306  157.9023 H   0  0  0  0  0  0  0  0  0  0  0  0
  147.8434  132.9708  158.5959 H   0  0  0  0  0  0  0  0  0  0  0  0
  146.6329  135.7335  163.1798 H   0  0  0  0  0  0  0  0  0  0  0  0
  147.2667  134.0616  163.2698 H   0  0  0  0  0  0  0  0  0  0  0  0
  145.6433  134.3949  162.5593 H   0  0  0  0  0  0  0  0  0  0  0  0
  149.6476  137.7012  155.7414 H   0  0  0  0  0  0  0  0  0  0  0  0
  149.9454  137.2602  154.1045 H   0  0  0  0  0  0  0  0  0  0  0  0
  151.1047  139.2664  154.7755 H   0  0  0  0  0  0  0  0  0  0  0  0
  150.1885  139.4430  153.3212 H   0  0  0  0  0  0  0  0  0  0  0  0
  149.0482  140.3987  155.9978 H   0  0  0  0  0  0  0  0  0  0  0  0
  150.2093  141.3373  155.1146 H   0  0  0  0  0  0  0  0  0  0  0  0
  148.0836  142.1611  154.4435 H   0  0  0  0  0  0  0  0  0  0  0  0
  148.7822  141.3401  153.0812 H   0  0  0  0  0  0  0  0  0  0  0  0
  146.5174  140.3797  154.8770 H   0  0  0  0  0  0  0  0  0  0  0  0
  146.4459  140.8260  153.2197 H   0  0  0  0  0  0  0  0  0  0  0  0
  147.9019  138.8930  152.5684 H   0  0  0  0  0  0  0  0  0  0  0  0
  146.3086  138.5308  153.1478 H   0  0  0  0  0  0  0  0  0  0  0  0
  148.1297  136.3499  153.1364 H   0  0  0  0  0  0  0  0  0  0  0  0
  1  2  1  0  0  0  0
  1 25  1  0  0  0  0
  1 26  1  0  0  0  0
  1 27  1  0  0  0  0
  2  3  1  0  0  0  0
  2  4  1  0  0  0  0
  2 53  1  0  0  0  0
  3 28  1  0  0  0  0
  3 29  1  0  0  0  0
  3 30  1  0  0  0  0
  4 24  1  0  0  0  0
  4  5  1  0  0  0  0
  4 19  1  0  0  0  0
  5  6  1  0  0  0  0
  5 31  1  0  0  0  0
  5 32  1  0  0  0  0
  6  7  1  0  0  0  0
  6 33  1  0  0  0  0
  7  8  2  0  0  0  0
  7  9  1  0  0  0  0
  9 10  1  0  0  0  0
  9 34  1  0  0  0  0
  9 35  1  0  0  0  0
 10 17  1  0  0  0  0
 10 11  1  0  0  0  0
 11 12  2  0  0  0  0
 11 36  1  0  0  0  0
 12 13  1  0  0  0  0
 12 37  1  0  0  0  0
 13 14  2  0  0  0  0
 13 15  1  0  0  0  0
 15 16  1  0  0  0  0
 15 17  1  0  0  0  0
 16 38  1  0  0  0  0
 16 39  1  0  0  0  0
 16 40  1  0  0  0  0
 17 18  2  0  0  0  0
 19 20  1  0  0  0  0
 19 41  1  0  0  0  0
 19 42  1  0  0  0  0
 20 21  1  0  0  0  0
 20 43  1  0  0  0  0
 20 44  1  0  0  0  0
 21 22  1  0  0  0  0
 21 45  1  0  0  0  0
 21 46  1  0  0  0  0
 22 23  1  0  0  0  0
 22 47  1  0  0  0  0
 22 48  1  0  0  0  0
 23 24  1  0  0  0  0
 23 49  1  0  0  0  0
 23 50  1  0  0  0  0
 24 51  1  0  0  0  0
 24 52  1  0  0  0  0
M  CHG  1   2   1
M  END
> <s_m_source_file>
AV-unprocessed.smi

> <i_m_source_file_index>
1597

> <i_lp_mmshare_version>
43012

> <i_f3d_flags>
0

> <s_epik_input>
W0NIMl0xW0NIMl1bQ0gyXVtDSDJdW0NIMl1bQ0gyXUMxKE4oW0NIM10pW0NIM10pW0NIMl1bTkhdQyg9TylbQ0gyXW4yW2NIXVtjSF1jKD1PKW4oW0NIM10pYzI9Tw==

> <s_epik_cmdline>
J2VwaWtfcHl0aG9uJywgJy1waCcsICc3LjAnLCAnLXRuJywgJzgnLCAnLW1hJywgJzIwMCcsICctbWV0YWxfYmluZGluZycsICctaW1hZScsICc8aW5maWxlLm1hZT4nLCAnLW9tYWUnLCAnPG91dGZpbGUubWFlPic=

> <r_lp_tautomer_probability>
1

> <r_epik_Ionization_Penalty>
0.00225783

> <r_epik_Ionization_Penalty_Charging>
0.00225776

> <r_epik_Ionization_Penalty_Neutral>
7.38919e-08

> <r_epik_State_Penalty>
0.00155497

> <r_epik_Charging_Adjusted_Penalty>
0.00381272

> <i_epik_Tot_Q>
1

> <i_epik_Tot_abs_Q>
1

> <r_epik_Metal_State_Penalty>
-0

> <b_epik_Metal_Only>
0

> <s_lp_Force_Field>
OPLS_2005

> <r_lp_Energy>
50.4542

> <b_lp_Chiralities_Consistent>
1

> <s_lp_Variant>
AV-unprocessed.smi:1597-1

> <Gold.Version>
5.8.1

> <Gold.Id.Protein>
6NUR|6NUR_protein|mol2

> <Gold.PLP.Fitness>
43.9504

> <Gold.PLP.PLP>
-34.1648

> <Gold.PLP.part.hbond>
-4.0000

> <Gold.PLP.part.metal>
0.0000

> <Gold.PLP.part.buried>
-3.0278

> <Gold.PLP.part.nonpolar>
-28.0202

> <Gold.PLP.part.repulsive>
0.0109

> <Gold.PLP.ligand.clash>
0.0000

> <Gold.PLP.ligand.torsion>
0.6957

> <Gold.PLP.Chemscore.Hbond>
3.6803

> <Gold.PLP.Chemscore.CHOScore>
0.0000

> <Gold.PLP.Chemscore.Metal>
0.0000

> <Gold.Chemscore.Hbonds>
donor molecule, donor type, donor heavy atom, donor atom, acceptor molecule, acceptor atom, score
      L1  H     2    53       P1  7948  1.95
      P1  H  6931  6943       L1    18  1.00
      P1  H  6934  6947       L1    18  0.37

> <Gold.PLP.Chemscore.Internal.Correction>
0.1360

> <Gold.Rescore>
     Score         DG    S(hbond)    S(metal)    S(lipo)     H(rot)  DE(clash)    DE(int)     intcor
     15.89     -16.81       2.59        0.00      67.28       2.02       0.15       0.77       ----

> <Gold.Chemscore.Fitness>
15.8903

> <Gold.Chemscore.DG>
-16.8107

> <Gold.Chemscore.ZeroCoef>
-5.4800

> <Gold.Chemscore.Hbond>
2.5865

> <Gold.Chemscore.Metal>
0.0000

> <Gold.Chemscore.Lipo>
67.2825

> <Gold.Chemscore.Internal_Hbond>
0.0000

> <Gold.Chemscore.DEClash>
0.1521

> <Gold.Chemscore.DEInternal>
0.7683

> <Gold.Chemscore.Rot>
2.0236

> <Gold.Chemscore.Internal.Correction>
   9.000000E+99

> <Gold.Chemscore.Hbonds>
donor molecule, donor type, donor heavy atom, donor atom, acceptor molecule, acceptor atom, score
      L1  H     2    53       P1  7948  0.91
      P1  H  6931  6943       L1    18  0.99
      P1  H  6934  6947       L1    18  0.35

> <Gold.Chemscore.Hbond.Weighted>
-8.6390

> <Gold.Chemscore.Metal.Weighted>
-0.0000

> <Gold.Chemscore.Lipo.Weighted>
-7.8721

> <Gold.Chemscore.Internal_Hbond.Weighted>
0.0000

> <Gold.Chemscore.DEClash.Weighted>
0.1521

> <Gold.Chemscore.DEInternal.Weighted>
0.7683

> <Gold.Chemscore.Rot.Weighted>
5.1803

> <Gold.Chemscore.Internal.Correction.Weighted>
   9.000000E+99

> <Gold.Protein.RotatedTorsions>
[ 6907 6896 6895 6894 ] final  119.88 input  -60.11 | X-H torsion
[ 7974 7965 7964 7962 ] final  -81.84 input  175.53 | X-H torsion
[ 8008 7997 7996 7995 ] final  175.41 input   59.86 | X-H torsion
[ 10167 10162 10161 10158 ] final -166.24 input  -65.29 | X-H torsion
[ 10718 10713 10712 10709 ] final  174.53 input   66.30 | X-H torsion
[ 10763 10752 10751 10750 ] final -157.96 input  -60.55 | X-H torsion
[ 11005 11000 10999 10996 ] final  -63.29 input  -57.11 | X-H torsion

> <Gold.Protein.ActiveResidues>
 VAL166  LYS551  ARG553  GLY616  TRP617  ASP618  TYR619  PRO620  LYS621  CYS622 
 ASP623  PHE694  ASN695  SER759  ASP760  ASP761  ALA762  ILE779  LEU786  VAL792 
 PHE793  MET794  SER795  GLU796  ALA797  LYS798  CYS799  TRP800  GLU811  SER814 

> <Gold.Protein.RotatedAtoms>
  152.4439  133.7499  159.6688 H   0  0  0  0  0  0  0  0  0  0  0  0  # atno 6907 bound_to 6896
  150.8335  133.8041  159.3095 H   0  0  0  0  0  0  0  0  0  0  0  0  # atno 6908 bound_to 6896
  151.5688  135.1065  160.0042 H   0  0  0  0  0  0  0  0  0  0  0  0  # atno 6909 bound_to 6896
  145.5413  140.9509  143.1550 H   0  0  0  0  0  0  0  0  0  0  0  0  # atno 7974 bound_to 7965
  156.0873  140.1409  156.9637 H   0  0  0  0  0  0  0  0  0  0  0  0  # atno 8008 bound_to 7997
  154.4620  140.0939  156.6967 H   0  0  0  0  0  0  0  0  0  0  0  0  # atno 8009 bound_to 7997
  155.4978  140.3450  155.4368 H   0  0  0  0  0  0  0  0  0  0  0  0  # atno 8010 bound_to 7997
  139.6128  144.0781  152.1858 H   0  0  0  0  0  0  0  0  0  0  0  0  # atno 10167 bound_to 10162
  156.9483  131.0023  151.2954 H   0  0  0  0  0  0  0  0  0  0  0  0  # atno 10718 bound_to 10713
  154.7595  135.3114  154.8406 H   0  0  0  0  0  0  0  0  0  0  0  0  # atno 10763 bound_to 10752
  153.9171  135.6799  153.4753 H   0  0  0  0  0  0  0  0  0  0  0  0  # atno 10764 bound_to 10752
  153.1194  135.4829  154.9101 H   0  0  0  0  0  0  0  0  0  0  0  0  # atno 10765 bound_to 10752
  141.1388  133.6650  156.5657 H   0  0  0  0  0  0  0  0  0  0  0  0  # atno 11005 bound_to 11000
  144.7576  139.7036  143.7248 LP  0  0  0  0  0  0  0  0  0  0  0  0  # atno 17320 bound_to 7965
  146.1979  139.5257  142.9762 LP  0  0  0  0  0  0  0  0  0  0  0  0  # atno 17321 bound_to 7965
  140.0403  144.6012  150.7416 LP  0  0  0  0  0  0  0  0  0  0  0  0  # atno 17342 bound_to 10162
  140.7330  143.2712  151.3881 LP  0  0  0  0  0  0  0  0  0  0  0  0  # atno 17343 bound_to 10162
  157.5739  130.8329  149.8429 LP  0  0  0  0  0  0  0  0  0  0  0  0  # atno 17370 bound_to 10713
  156.0374  130.3748  150.1525 LP  0  0  0  0  0  0  0  0  0  0  0  0  # atno 17371 bound_to 10713
  140.3952  134.7405  157.4746 LP  0  0  0  0  0  0  0  0  0  0  0  0  # atno 17394 bound_to 11000
  140.0536  134.6095  155.8832 LP  0  0  0  0  0  0  0  0  0  0  0  0  # atno 17395 bound_to 11000

$$$$
