AV-unprocessed.smi:2554|AV-procd|sdf|10019|dock2
  -GOLD-   2272014 63D 1   1.00000     0.00000
 Structure written by MMmdl.
 21 21  0  0  0  0  0  0  0  0  2 V2000
  146.9790  132.7660  151.7642 C   0  0  0  0  0  0  0  0  0  0  0  0
  146.0903  133.8410  151.2323 C   0  0  0  0  0  0  0  0  0  0  0  0
  146.3629  135.1886  151.3980 N   0  0  0  0  0  0  0  0  0  0  0  0
  145.3792  135.8702  150.8061 C   0  0  0  0  0  0  0  0  0  0  0  0
  144.4620  135.0880  150.2506 N   0  0  0  0  0  0  0  0  0  0  0  0
  144.9075  133.7915  150.5221 C   0  0  0  0  0  0  0  0  0  0  0  0
  144.1337  132.5976  150.0493 C   0  0  0  0  0  0  0  0  0  0  0  0
  143.8129  132.6766  148.5507 C   0  0  0  0  0  0  0  0  0  0  0  0
  142.3682  132.5401  148.3022 N   0  3  0  0  0  0  0  0  0  0  0  0
  147.1585  135.5852  151.8777 H   0  0  0  0  0  0  0  0  0  0  0  0
  146.6368  131.7782  151.4564 H   0  0  0  0  0  0  0  0  0  0  0  0
  147.0021  132.7889  152.8540 H   0  0  0  0  0  0  0  0  0  0  0  0
  147.9995  132.8932  151.4021 H   0  0  0  0  0  0  0  0  0  0  0  0
  145.3349  136.9492  150.7807 H   0  0  0  0  0  0  0  0  0  0  0  0
  144.6894  131.6830  150.2578 H   0  0  0  0  0  0  0  0  0  0  0  0
  143.2050  132.5159  150.6154 H   0  0  0  0  0  0  0  0  0  0  0  0
  144.1483  133.6296  148.1401 H   0  0  0  0  0  0  0  0  0  0  0  0
  144.3376  131.8889  148.0088 H   0  0  0  0  0  0  0  0  0  0  0  0
  142.0211  131.7192  148.7774 H   0  0  0  0  0  0  0  0  0  0  0  0
  142.2051  132.4477  147.3097 H   0  0  0  0  0  0  0  0  0  0  0  0
  141.8865  133.3576  148.6481 H   0  0  0  0  0  0  0  0  0  0  0  0
  1  2  1  0  0  0  0
  1 11  1  0  0  0  0
  1 12  1  0  0  0  0
  1 13  1  0  0  0  0
  2  6  2  0  0  0  0
  2  3  1  0  0  0  0
  3 10  1  0  0  0  0
  3  4  1  0  0  0  0
  4  5  2  0  0  0  0
  4 14  1  0  0  0  0
  5  6  1  0  0  0  0
  6  7  1  0  0  0  0
  7  8  1  0  0  0  0
  7 15  1  0  0  0  0
  7 16  1  0  0  0  0
  8  9  1  0  0  0  0
  8 17  1  0  0  0  0
  8 18  1  0  0  0  0
  9 19  1  0  0  0  0
  9 20  1  0  0  0  0
  9 21  1  0  0  0  0
M  CHG  1   9   1
M  END
> <s_m_source_file>
AV-unprocessed.smi

> <i_m_source_file_index>
2554

> <i_lp_mmshare_version>
43012

> <i_f3d_flags>
0

> <s_epik_input>
W0NIM11jMVtuSF1bY0hdbmMxW0NIMl1bQ0gyXVtOSDJd

> <s_epik_cmdline>
J2VwaWtfcHl0aG9uJywgJy1waCcsICc3LjAnLCAnLXRuJywgJzgnLCAnLW1hJywgJzIwMCcsICctbWV0YWxfYmluZGluZycsICctaW1hZScsICc8aW5maWxlLm1hZT4nLCAnLW9tYWUnLCAnPG91dGZpbGUubWFlPic=

> <r_lp_tautomer_probability>
0.5

> <r_epik_Ionization_Penalty>
0.151655

> <r_epik_Ionization_Penalty_Charging>
0.151655

> <r_epik_Ionization_Penalty_Neutral>
1.31637e-07

> <r_epik_State_Penalty>
0.545826

> <r_epik_Charging_Adjusted_Penalty>
0.697481

> <i_epik_Tot_Q>
1

> <i_epik_Tot_abs_Q>
1

> <r_epik_Metal_State_Penalty>
0.436539

> <b_epik_Metal_Only>
0

> <s_lp_Force_Field>
OPLS_2005

> <r_lp_Energy>
1.06437

> <b_lp_Chiralities_Consistent>
1

> <s_lp_Variant>
AV-unprocessed.smi:2554-1

> <Gold.Version>
5.8.1

> <Gold.Id.Protein>
6NUR|6NUR_protein|mol2

> <Gold.PLP.Fitness>
40.2113

> <Gold.PLP.PLP>
-23.1538

> <Gold.PLP.part.hbond>
-4.0000

> <Gold.PLP.part.metal>
0.0000

> <Gold.PLP.part.buried>
-2.7524

> <Gold.PLP.part.nonpolar>
-16.1986

> <Gold.PLP.part.repulsive>
0.5412

> <Gold.PLP.ligand.clash>
0.0000

> <Gold.PLP.ligand.torsion>
0.4355

> <Gold.PLP.Chemscore.Hbond>
4.9760

> <Gold.PLP.Chemscore.CHOScore>
1.0000

> <Gold.PLP.Chemscore.Metal>
0.0000

> <Gold.Chemscore.Hbonds>
donor molecule, donor type, donor heavy atom, donor atom, acceptor molecule, acceptor atom, score
      L1  H     3    10       P1  7948  0.98
      L1  H     9    19       P1 10952  1.00
      L1  H     9    20       P1 10195  1.00
      L1  H     9    21       P1 10186  2.00
      L1  C     4    14       P1 10171  1.00

> <Gold.PLP.Chemscore.Internal.Correction>
0.0004

> <Gold.Rescore>
     Score         DG    S(hbond)    S(metal)    S(lipo)     H(rot)  DE(clash)    DE(int)     intcor
     19.37     -19.80       3.90        0.00      42.80       1.45       0.03       0.41       ----

> <Gold.Chemscore.Fitness>
19.3659

> <Gold.Chemscore.DG>
-19.8010

> <Gold.Chemscore.ZeroCoef>
-5.4800

> <Gold.Chemscore.Hbond>
3.8966

> <Gold.Chemscore.Metal>
0.0000

> <Gold.Chemscore.Lipo>
42.8007

> <Gold.Chemscore.Internal_Hbond>
0.0000

> <Gold.Chemscore.DEClash>
0.0270

> <Gold.Chemscore.DEInternal>
0.4080

> <Gold.Chemscore.Rot>
1.4458

> <Gold.Chemscore.Internal.Correction>
   9.000000E+99

> <Gold.Chemscore.Hbonds>
donor molecule, donor type, donor heavy atom, donor atom, acceptor molecule, acceptor atom, score
      L1  H     3    10       P1  7948  0.93
      L1  H     9    19       P1 10952  0.98
      L1  H     9    20       P1 10195  0.95
      L1  H     9    21       P1 10186  0.99

> <Gold.Chemscore.Hbond.Weighted>
-13.0145

> <Gold.Chemscore.Metal.Weighted>
-0.0000

> <Gold.Chemscore.Lipo.Weighted>
-5.0077

> <Gold.Chemscore.Internal_Hbond.Weighted>
0.0000

> <Gold.Chemscore.DEClash.Weighted>
0.0270

> <Gold.Chemscore.DEInternal.Weighted>
0.4080

> <Gold.Chemscore.Rot.Weighted>
3.7012

> <Gold.Chemscore.Internal.Correction.Weighted>
   9.000000E+99

> <Gold.Protein.RotatedTorsions>
[ 6907 6896 6895 6894 ] final -160.68 input  -60.11 | X-H torsion
[ 7974 7965 7964 7962 ] final   43.65 input  175.53 | X-H torsion
[ 8008 7997 7996 7995 ] final  165.72 input   59.86 | X-H torsion
[ 10167 10162 10161 10158 ] final  176.06 input  -65.29 | X-H torsion
[ 10718 10713 10712 10709 ] final   90.10 input   66.30 | X-H torsion
[ 10763 10752 10751 10750 ] final   -1.42 input  -60.55 | X-H torsion
[ 11005 11000 10999 10996 ] final  -57.11 input  -57.11 | X-H torsion

> <Gold.Protein.ActiveResidues>
 VAL166  LYS551  ARG553  GLY616  TRP617  ASP618  TYR619  PRO620  LYS621  CYS622 
 ASP623  PHE694  ASN695  SER759  ASP760  ASP761  ALA762  ILE779  LEU786  VAL792 
 PHE793  MET794  SER795  GLU796  ALA797  LYS798  CYS799  TRP800  GLU811  SER814 

> <Gold.Protein.RotatedAtoms>
  151.3528  133.3919  159.2681 H   0  0  0  0  0  0  0  0  0  0  0  0  # atno 6907 bound_to 6896
  150.9787  134.9148  159.7842 H   0  0  0  0  0  0  0  0  0  0  0  0  # atno 6908 bound_to 6896
  152.5210  134.3491  159.9297 H   0  0  0  0  0  0  0  0  0  0  0  0  # atno 6909 bound_to 6896
  146.0637  139.5163  142.9642 H   0  0  0  0  0  0  0  0  0  0  0  0  # atno 7974 bound_to 7965
  156.1777  140.1662  156.8332 H   0  0  0  0  0  0  0  0  0  0  0  0  # atno 8008 bound_to 7997
  154.5325  140.0753  156.8404 H   0  0  0  0  0  0  0  0  0  0  0  0  # atno 8009 bound_to 7997
  155.3377  140.3383  155.4241 H   0  0  0  0  0  0  0  0  0  0  0  0  # atno 8010 bound_to 7997
  139.5200  144.2959  152.0422 H   0  0  0  0  0  0  0  0  0  0  0  0  # atno 10167 bound_to 10162
  157.6958  131.0358  150.3526 H   0  0  0  0  0  0  0  0  0  0  0  0  # atno 10718 bound_to 10713
  153.3446  135.6982  153.6839 H   0  0  0  0  0  0  0  0  0  0  0  0  # atno 10763 bound_to 10752
  153.5590  135.3538  155.2792 H   0  0  0  0  0  0  0  0  0  0  0  0  # atno 10764 bound_to 10752
  154.8643  135.4245  154.2667 H   0  0  0  0  0  0  0  0  0  0  0  0  # atno 10765 bound_to 10752
  141.1150  133.6610  156.4719 H   0  0  0  0  0  0  0  0  0  0  0  0  # atno 11005 bound_to 11000
  145.6515  141.0262  143.1758 LP  0  0  0  0  0  0  0  0  0  0  0  0  # atno 17320 bound_to 7965
  144.7190  139.8096  143.7388 LP  0  0  0  0  0  0  0  0  0  0  0  0  # atno 17321 bound_to 7965
  140.2408  144.4271  150.6261 LP  0  0  0  0  0  0  0  0  0  0  0  0  # atno 17342 bound_to 10162
  140.6292  143.2185  151.6532 LP  0  0  0  0  0  0  0  0  0  0  0  0  # atno 17343 bound_to 10162
  156.3973  130.3909  149.6986 LP  0  0  0  0  0  0  0  0  0  0  0  0  # atno 17370 bound_to 10713
  156.4315  130.7817  151.2837 LP  0  0  0  0  0  0  0  0  0  0  0  0  # atno 17371 bound_to 10713
  140.4671  134.6787  157.5112 LP  0  0  0  0  0  0  0  0  0  0  0  0  # atno 17394 bound_to 11000
  140.0066  134.6754  155.9445 LP  0  0  0  0  0  0  0  0  0  0  0  0  # atno 17395 bound_to 11000

$$$$
