AV-unprocessed.smi:3054|AV-procd|sdf|11639|dock8
  -GOLD-   2272017 33D 1   1.00000     0.00000
 Structure written by MMmdl.
 40 41  0  0  0  0  0  0  0  0  2 V2000
  147.7528  141.9993  154.3074 C   0  0  0  0  0  0  0  0  0  0  0  0
  148.4286  140.6861  154.7322 C   0  0  0  0  0  0  0  0  0  0  0  0
  148.4456  139.5827  153.6392 C   0  0  2  0  0  0  0  0  0  0  0  0
  147.0185  139.1703  153.1962 C   0  0  0  0  0  0  0  0  0  0  0  0
  147.0025  137.8582  152.5571 N   0  0  0  0  0  0  0  0  0  0  0  0
  145.8988  137.1466  152.2917 C   0  0  0  0  0  0  0  0  0  0  0  0
  144.7613  137.5265  152.5689 O   0  0  0  0  0  0  0  0  0  0  0  0
  146.2010  135.9842  151.6915 N   0  0  0  0  0  0  0  0  0  0  0  0
  145.2976  134.9790  151.2649 C   0  0  0  0  0  0  0  0  0  0  0  0
  145.4328  133.5605  151.3208 C   0  0  0  0  0  0  0  0  0  0  0  0
  144.3650  132.9569  150.8184 N   0  0  0  0  0  0  0  0  0  0  0  0
  143.5532  133.9711  150.4440 N   0  0  0  0  0  0  0  0  0  0  0  0
  144.0816  135.2176  150.6974 C   0  0  0  0  0  0  0  0  0  0  0  0
  149.2536  138.4040  154.0717 N   0  3  0  0  0  0  0  0  0  0  0  0
  150.6706  138.6755  154.3983 C   0  0  0  0  0  0  0  0  0  0  0  0
  151.1174  137.4846  155.2379 C   0  0  0  0  0  0  0  0  0  0  0  0
  149.8814  137.1696  156.0724 C   0  0  0  0  0  0  0  0  0  0  0  0
  148.6969  137.6349  155.2141 C   0  0  0  0  0  0  0  0  0  0  0  0
  142.6522  133.7978  150.0216 H   0  0  0  0  0  0  0  0  0  0  0  0
  147.7476  142.7115  155.1328 H   0  0  0  0  0  0  0  0  0  0  0  0
  146.7175  141.8386  154.0065 H   0  0  0  0  0  0  0  0  0  0  0  0
  148.2771  142.4712  153.4765 H   0  0  0  0  0  0  0  0  0  0  0  0
  149.4487  140.9076  155.0472 H   0  0  0  0  0  0  0  0  0  0  0  0
  147.9402  140.3176  155.6340 H   0  0  0  0  0  0  0  0  0  0  0  0
  148.9442  140.0021  152.7635 H   0  0  0  0  0  0  0  0  0  0  0  0
  146.3475  139.1076  154.0529 H   0  0  0  0  0  0  0  0  0  0  0  0
  146.6029  139.9314  152.5336 H   0  0  0  0  0  0  0  0  0  0  0  0
  147.8950  137.4649  152.2962 H   0  0  0  0  0  0  0  0  0  0  0  0
  147.1785  135.7973  151.5226 H   0  0  0  0  0  0  0  0  0  0  0  0
  146.2441  132.9553  151.6966 H   0  0  0  0  0  0  0  0  0  0  0  0
  143.5615  136.1335  150.4585 H   0  0  0  0  0  0  0  0  0  0  0  0
  151.2820  138.7938  153.5030 H   0  0  0  0  0  0  0  0  0  0  0  0
  150.7451  139.5905  154.9888 H   0  0  0  0  0  0  0  0  0  0  0  0
  151.3526  136.6400  154.5889 H   0  0  0  0  0  0  0  0  0  0  0  0
  151.9971  137.6992  155.8455 H   0  0  0  0  0  0  0  0  0  0  0  0
  149.8182  136.1137  156.3377 H   0  0  0  0  0  0  0  0  0  0  0  0
  149.9096  137.7429  157.0001 H   0  0  0  0  0  0  0  0  0  0  0  0
  148.0245  138.2426  155.8213 H   0  0  0  0  0  0  0  0  0  0  0  0
  148.1260  136.7881  154.8319 H   0  0  0  0  0  0  0  0  0  0  0  0
  149.2746  137.7622  153.2917 H   0  0  0  0  0  0  0  0  0  0  0  0
  1  2  1  0  0  0  0
  1 20  1  0  0  0  0
  1 21  1  0  0  0  0
  1 22  1  0  0  0  0
  2  3  1  0  0  0  0
  2 23  1  0  0  0  0
  2 24  1  0  0  0  0
  3  4  1  0  0  0  0
  3 14  1  0  0  0  0
  3 25  1  0  0  0  0
  4  5  1  0  0  0  0
  4 26  1  0  0  0  0
  4 27  1  0  0  0  0
  5  6  1  0  0  0  0
  5 28  1  0  0  0  0
  6  7  2  0  0  0  0
  6  8  1  0  0  0  0
  8  9  1  0  0  0  0
  8 29  1  0  0  0  0
  9 13  2  0  0  0  0
  9 10  1  0  0  0  0
 10 11  2  0  0  0  0
 10 30  1  0  0  0  0
 11 12  1  0  0  0  0
 12 19  1  0  0  0  0
 12 13  1  0  0  0  0
 13 31  1  0  0  0  0
 14 18  1  0  0  0  0
 14 15  1  0  0  0  0
 14 40  1  0  0  0  0
 15 16  1  0  0  0  0
 15 32  1  0  0  0  0
 15 33  1  0  0  0  0
 16 17  1  0  0  0  0
 16 34  1  0  0  0  0
 16 35  1  0  0  0  0
 17 18  1  0  0  0  0
 17 36  1  0  0  0  0
 17 37  1  0  0  0  0
 18 38  1  0  0  0  0
 18 39  1  0  0  0  0
M  CHG  1  14   1
M  END
> <s_m_source_file>
AV-unprocessed.smi

> <i_m_source_file_index>
3054

> <i_lp_mmshare_version>
43012

> <i_f3d_flags>
0

> <s_epik_input>
W0NIMl0xW0NIMl1bQ0gyXVtDSDJdTjFbQ0BIXShbQ0gyXVtDSDNdKVtDSDJdW05IXUMoPU8pW05IXWMyW2NIXW5bbkhdW2NIXTI=

> <s_epik_cmdline>
J2VwaWtfcHl0aG9uJywgJy1waCcsICc3LjAnLCAnLXRuJywgJzgnLCAnLW1hJywgJzIwMCcsICctbWV0YWxfYmluZGluZycsICctaW1hZScsICc8aW5maWxlLm1hZT4nLCAnLW9tYWUnLCAnPG91dGZpbGUubWFlPic=

> <r_lp_tautomer_probability>
0.5

> <r_epik_Ionization_Penalty>
0.00108132

> <r_epik_Ionization_Penalty_Charging>
0.00104139

> <r_epik_Ionization_Penalty_Neutral>
3.99244e-05

> <r_epik_State_Penalty>
0.00068071

> <r_epik_Charging_Adjusted_Penalty>
0.0017221

> <i_epik_Tot_Q>
1

> <i_epik_Tot_abs_Q>
1

> <r_epik_Metal_State_Penalty>
-0

> <b_epik_Metal_Only>
0

> <s_lp_Force_Field>
OPLS_2005

> <r_lp_Energy>
36.476

> <b_lp_Chiralities_Consistent>
1

> <s_lp_Variant>
AV-unprocessed.smi:3054-1

> <Gold.Version>
5.8.1

> <Gold.Id.Protein>
6NUR|6NUR_protein|mol2

> <Gold.PLP.Fitness>
45.6134

> <Gold.PLP.PLP>
-29.1623

> <Gold.PLP.part.hbond>
-4.6718

> <Gold.PLP.part.metal>
0.0000

> <Gold.PLP.part.buried>
-2.7525

> <Gold.PLP.part.nonpolar>
-23.9571

> <Gold.PLP.part.repulsive>
0.9812

> <Gold.PLP.ligand.clash>
0.0000

> <Gold.PLP.ligand.torsion>
0.6371

> <Gold.PLP.Chemscore.Hbond>
4.8800

> <Gold.PLP.Chemscore.CHOScore>
1.0000

> <Gold.PLP.Chemscore.Metal>
0.0000

> <Gold.Chemscore.Hbonds>
donor molecule, donor type, donor heavy atom, donor atom, acceptor molecule, acceptor atom, score
      L1  H     5    28       P1  7948  1.00
      L1  H     8    29       P1  7948  1.00
      L1  H    12    19       P1 10186  0.98
      L1  H    14    40       P1  7948  1.69
      L1  C    13    31       P1 10171  1.00

> <Gold.PLP.Chemscore.Internal.Correction>
0.0852

> <Gold.Rescore>
     Score         DG    S(hbond)    S(metal)    S(lipo)     H(rot)  DE(clash)    DE(int)     intcor
     19.84     -20.84       3.87        0.00      60.56       1.81       0.08       0.92       ----

> <Gold.Chemscore.Fitness>
19.8398

> <Gold.Chemscore.DG>
-20.8435

> <Gold.Chemscore.ZeroCoef>
-5.4800

> <Gold.Chemscore.Hbond>
3.8651

> <Gold.Chemscore.Metal>
0.0000

> <Gold.Chemscore.Lipo>
60.5648

> <Gold.Chemscore.Internal_Hbond>
0.0000

> <Gold.Chemscore.DEClash>
0.0799

> <Gold.Chemscore.DEInternal>
0.9238

> <Gold.Chemscore.Rot>
1.8094

> <Gold.Chemscore.Internal.Correction>
   9.000000E+99

> <Gold.Chemscore.Hbonds>
donor molecule, donor type, donor heavy atom, donor atom, acceptor molecule, acceptor atom, score
      L1  H     5    28       P1  7948  0.98
      L1  H     8    29       P1  7948  0.94
      L1  H    12    19       P1 10186  0.93
      L1  H    14    40       P1  7948  0.81

> <Gold.Chemscore.Hbond.Weighted>
-12.9096

> <Gold.Chemscore.Metal.Weighted>
-0.0000

> <Gold.Chemscore.Lipo.Weighted>
-7.0861

> <Gold.Chemscore.Internal_Hbond.Weighted>
0.0000

> <Gold.Chemscore.DEClash.Weighted>
0.0799

> <Gold.Chemscore.DEInternal.Weighted>
0.9238

> <Gold.Chemscore.Rot.Weighted>
4.6322

> <Gold.Chemscore.Internal.Correction.Weighted>
   9.000000E+99

> <Gold.Protein.RotatedTorsions>
[ 6907 6896 6895 6894 ] final   90.66 input  -60.11 | X-H torsion
[ 7974 7965 7964 7962 ] final  113.00 input  175.53 | X-H torsion
[ 8008 7997 7996 7995 ] final  172.47 input   59.86 | X-H torsion
[ 10167 10162 10161 10158 ] final   73.58 input  -65.29 | X-H torsion
[ 10718 10713 10712 10709 ] final  -83.79 input   66.30 | X-H torsion
[ 10763 10752 10751 10750 ] final  165.30 input  -60.55 | X-H torsion
[ 11005 11000 10999 10996 ] final  100.60 input  -57.11 | X-H torsion

> <Gold.Protein.ActiveResidues>
 VAL166  LYS551  ARG553  GLY616  TRP617  ASP618  TYR619  PRO620  LYS621  CYS622 
 ASP623  PHE694  ASN695  SER759  ASP760  ASP761  ALA762  ILE779  LEU786  VAL792 
 PHE793  MET794  SER795  GLU796  ALA797  LYS798  CYS799  TRP800  GLU811  SER814 

> <Gold.Protein.RotatedAtoms>
  152.5446  134.1777  159.8622 H   0  0  0  0  0  0  0  0  0  0  0  0  # atno 6907 bound_to 6896
  151.1782  133.4734  159.2601 H   0  0  0  0  0  0  0  0  0  0  0  0  # atno 6908 bound_to 6896
  151.1205  135.0088  159.8591 H   0  0  0  0  0  0  0  0  0  0  0  0  # atno 6909 bound_to 6896
  145.2224  139.2856  143.4211 H   0  0  0  0  0  0  0  0  0  0  0  0  # atno 7974 bound_to 7965
  156.1171  140.1485  156.9257 H   0  0  0  0  0  0  0  0  0  0  0  0  # atno 8008 bound_to 7997
  154.4808  140.0880  156.7416 H   0  0  0  0  0  0  0  0  0  0  0  0  # atno 8009 bound_to 7997
  155.4494  140.3434  155.4301 H   0  0  0  0  0  0  0  0  0  0  0  0  # atno 8010 bound_to 7997
  140.0230  144.5526  150.7567 H   0  0  0  0  0  0  0  0  0  0  0  0  # atno 10167 bound_to 10162
  156.0014  130.4677  150.4312 H   0  0  0  0  0  0  0  0  0  0  0  0  # atno 10718 bound_to 10713
  154.3219  135.2756  155.2515 H   0  0  0  0  0  0  0  0  0  0  0  0  # atno 10763 bound_to 10752
  154.4865  135.5845  153.6431 H   0  0  0  0  0  0  0  0  0  0  0  0  # atno 10764 bound_to 10752
  152.9875  135.6124  154.3405 H   0  0  0  0  0  0  0  0  0  0  0  0  # atno 10765 bound_to 10752
  139.8771  134.9147  156.4780 H   0  0  0  0  0  0  0  0  0  0  0  0  # atno 11005 bound_to 11000
  146.3373  140.2534  142.8599 LP  0  0  0  0  0  0  0  0  0  0  0  0  # atno 17320 bound_to 7965
  144.9752  140.8407  143.5430 LP  0  0  0  0  0  0  0  0  0  0  0  0  # atno 17321 bound_to 7965
  140.7334  143.2717  151.3867 LP  0  0  0  0  0  0  0  0  0  0  0  0  # atno 17342 bound_to 10162
  139.6127  144.1066  152.2315 LP  0  0  0  0  0  0  0  0  0  0  0  0  # atno 17343 bound_to 10162
  157.2360  131.0515  151.2464 LP  0  0  0  0  0  0  0  0  0  0  0  0  # atno 17370 bound_to 10713
  157.3665  130.7159  149.6536 LP  0  0  0  0  0  0  0  0  0  0  0  0  # atno 17371 bound_to 10713
  140.8748  133.7962  155.9402 LP  0  0  0  0  0  0  0  0  0  0  0  0  # atno 17394 bound_to 11000
  140.8916  134.2489  157.5091 LP  0  0  0  0  0  0  0  0  0  0  0  0  # atno 17395 bound_to 11000

$$$$
