AV-unprocessed.smi:1834|AV-procd|sdf|7470|dock1
  -GOLD-   22720 9163D 1   1.00000     0.00000
 Structure written by MMmdl.
 46 47  0  0  0  0  0  0  0  0  2 V2000
  146.1550  136.7451  153.4351 C   0  0  0  0  0  0  0  0  0  0  0  0
  146.2463  138.0936  152.7061 C   0  0  0  0  0  0  0  0  0  0  0  0
  146.7288  139.1912  153.5828 N   0  3  2  0  0  0  0  0  0  0  0  0
  145.7784  139.4738  154.6903 C   0  0  0  0  0  0  0  0  0  0  0  0
  146.3370  140.5297  155.6578 C   0  0  0  0  0  0  0  0  0  0  0  0
  146.7292  141.8139  154.9120 C   0  0  0  0  0  0  0  0  0  0  0  0
  147.6899  141.5108  153.7470 C   0  0  1  0  0  0  0  0  0  0  0  0
  149.1183  141.1833  154.2451 C   0  0  0  0  0  0  0  0  0  0  0  0
  149.5641  142.0864  155.3025 N   0  0  0  0  0  0  0  0  0  0  0  0
  150.4044  141.7589  156.2948 C   0  0  0  0  0  0  0  0  0  0  0  0
  150.8835  140.6329  156.4296 O   0  0  0  0  0  0  0  0  0  0  0  0
  150.6547  142.8138  157.0889 N   0  0  0  0  0  0  0  0  0  0  0  0
  151.5125  142.9000  158.1403 C   0  0  0  0  0  0  0  0  0  0  0  0
  151.7290  142.0002  159.1483 C   0  0  0  0  0  0  0  0  0  0  0  0
  152.7276  142.6446  159.9351 C   0  0  0  0  0  0  0  0  0  0  0  0
  153.3793  142.1462  161.1912 C   0  0  0  0  0  0  0  0  0  0  0  0
  153.0810  143.8274  159.4454 N   0  0  0  0  0  0  0  0  0  0  0  0
  152.3332  143.9900  158.3331 N   0  0  0  0  0  0  0  0  0  0  0  0
  152.4733  145.2006  157.5470 C   0  0  0  0  0  0  0  0  0  0  0  0
  147.0681  140.4299  152.8311 C   0  0  0  0  0  0  0  0  0  0  0  0
  145.7572  135.9786  152.7698 H   0  0  0  0  0  0  0  0  0  0  0  0
  145.4887  136.8075  154.2955 H   0  0  0  0  0  0  0  0  0  0  0  0
  147.1261  136.3957  153.7850 H   0  0  0  0  0  0  0  0  0  0  0  0
  146.8846  138.0121  151.8251 H   0  0  0  0  0  0  0  0  0  0  0  0
  145.2478  138.3367  152.3402 H   0  0  0  0  0  0  0  0  0  0  0  0
  144.8279  139.8125  154.2749 H   0  0  0  0  0  0  0  0  0  0  0  0
  145.5726  138.5574  155.2448 H   0  0  0  0  0  0  0  0  0  0  0  0
  145.5936  140.7597  156.4218 H   0  0  0  0  0  0  0  0  0  0  0  0
  147.1992  140.1241  156.1875 H   0  0  0  0  0  0  0  0  0  0  0  0
  145.8278  142.2876  154.5207 H   0  0  0  0  0  0  0  0  0  0  0  0
  147.1746  142.5320  155.6015 H   0  0  0  0  0  0  0  0  0  0  0  0
  147.7722  142.4236  153.1550 H   0  0  0  0  0  0  0  0  0  0  0  0
  149.1360  140.1733  154.6557 H   0  0  0  0  0  0  0  0  0  0  0  0
  149.8295  141.1791  153.4182 H   0  0  0  0  0  0  0  0  0  0  0  0
  149.2117  143.0325  155.2699 H   0  0  0  0  0  0  0  0  0  0  0  0
  150.1758  143.6710  156.8552 H   0  0  0  0  0  0  0  0  0  0  0  0
  151.2637  141.0407  159.3162 H   0  0  0  0  0  0  0  0  0  0  0  0
  153.0725  141.1247  161.4164 H   0  0  0  0  0  0  0  0  0  0  0  0
  153.1118  142.7688  162.0452 H   0  0  0  0  0  0  0  0  0  0  0  0
  154.4659  142.1530  161.1005 H   0  0  0  0  0  0  0  0  0  0  0  0
  152.1787  145.0180  156.5135 H   0  0  0  0  0  0  0  0  0  0  0  0
  153.5106  145.5370  157.5584 H   0  0  0  0  0  0  0  0  0  0  0  0
  151.8399  145.9828  157.9658 H   0  0  0  0  0  0  0  0  0  0  0  0
  147.7376  140.2091  152.0017 H   0  0  0  0  0  0  0  0  0  0  0  0
  146.1568  140.8225  152.3767 H   0  0  0  0  0  0  0  0  0  0  0  0
  147.5813  138.8616  154.0138 H   0  0  0  0  0  0  0  0  0  0  0  0
  1  2  1  0  0  0  0
  1 21  1  0  0  0  0
  1 22  1  0  0  0  0
  1 23  1  0  0  0  0
  2  3  1  0  0  0  0
  2 24  1  0  0  0  0
  2 25  1  0  0  0  0
  3 20  1  0  0  0  0
  3  4  1  0  0  0  0
  3 46  1  0  0  0  0
  4  5  1  0  0  0  0
  4 26  1  0  0  0  0
  4 27  1  0  0  0  0
  5  6  1  0  0  0  0
  5 28  1  0  0  0  0
  5 29  1  0  0  0  0
  6  7  1  0  0  0  0
  6 30  1  0  0  0  0
  6 31  1  0  0  0  0
  7  8  1  0  0  0  0
  7 20  1  0  0  0  0
  7 32  1  0  0  0  0
  8  9  1  0  0  0  0
  8 33  1  0  0  0  0
  8 34  1  0  0  0  0
  9 10  1  0  0  0  0
  9 35  1  0  0  0  0
 10 11  2  0  0  0  0
 10 12  1  0  0  0  0
 12 13  1  0  0  0  0
 12 36  1  0  0  0  0
 13 18  1  0  0  0  0
 13 14  2  0  0  0  0
 14 15  1  0  0  0  0
 14 37  1  0  0  0  0
 15 16  1  0  0  0  0
 15 17  2  0  0  0  0
 16 38  1  0  0  0  0
 16 39  1  0  0  0  0
 16 40  1  0  0  0  0
 17 18  1  0  0  0  0
 18 19  1  0  0  0  0
 19 41  1  0  0  0  0
 19 42  1  0  0  0  0
 19 43  1  0  0  0  0
 20 44  1  0  0  0  0
 20 45  1  0  0  0  0
M  CHG  1   3   1
M  END
> <s_m_source_file>
AV-unprocessed.smi

> <i_m_source_file_index>
1834

> <i_lp_mmshare_version>
43012

> <i_f3d_flags>
0

> <s_epik_input>
W0NIM11bQ0gyXU4xW0NIMl1bQ0gyXVtDSDJdW0NASF0oW0NIMl0xKVtDSDJdW05IXUMoPU8pW05IXWMyW2NIXWMoW0NIM10pbm4yW0NIM10=

> <s_epik_cmdline>
J2VwaWtfcHl0aG9uJywgJy1waCcsICc3LjAnLCAnLXRuJywgJzgnLCAnLW1hJywgJzIwMCcsICctbWV0YWxfYmluZGluZycsICctaW1hZScsICc8aW5maWxlLm1hZT4nLCAnLW9tYWUnLCAnPG91dGZpbGUubWFlPic=

> <r_lp_tautomer_probability>
1

> <r_epik_Ionization_Penalty>
0.000466842

> <r_epik_Ionization_Penalty_Charging>
0.000378984

> <r_epik_Ionization_Penalty_Neutral>
8.78572e-05

> <r_epik_State_Penalty>
0.000231434

> <r_epik_Charging_Adjusted_Penalty>
0.000610418

> <i_epik_Tot_Q>
1

> <i_epik_Tot_abs_Q>
1

> <r_epik_Metal_State_Penalty>
-0

> <b_epik_Metal_Only>
0

> <s_lp_Force_Field>
OPLS_2005

> <r_lp_Energy>
21.1664

> <b_lp_Chiralities_Consistent>
1

> <s_lp_Variant>
AV-unprocessed.smi:1834-2

> <Gold.Version>
5.8.1

> <Gold.Id.Protein>
6NUR|6NUR_protein|mol2

> <Gold.PLP.Fitness>
43.6087

> <Gold.PLP.PLP>
-39.0382

> <Gold.PLP.part.hbond>
-2.0000

> <Gold.PLP.part.metal>
0.0000

> <Gold.PLP.part.buried>
-3.9381

> <Gold.PLP.part.nonpolar>
-33.2072

> <Gold.PLP.part.repulsive>
0.2260

> <Gold.PLP.ligand.clash>
0.0000

> <Gold.PLP.ligand.torsion>
0.6728

> <Gold.PLP.Chemscore.Hbond>
1.9588

> <Gold.PLP.Chemscore.CHOScore>
0.0000

> <Gold.PLP.Chemscore.Metal>
0.0000

> <Gold.Chemscore.Hbonds>
donor molecule, donor type, donor heavy atom, donor atom, acceptor molecule, acceptor atom, score
      L1  H     9    35       P1  8028  1.00
      L1  H    12    36       P1  8028  0.99

> <Gold.PLP.Chemscore.Internal.Correction>
0.0400

> <Gold.Rescore>
     Score         DG    S(hbond)    S(metal)    S(lipo)     H(rot)  DE(clash)    DE(int)     intcor
     16.44     -18.55       1.96        0.00      87.03       1.43       1.41       0.70       ----

> <Gold.Chemscore.Fitness>
16.4395

> <Gold.Chemscore.DG>
-18.5474

> <Gold.Chemscore.ZeroCoef>
-5.4800

> <Gold.Chemscore.Hbond>
1.9589

> <Gold.Chemscore.Metal>
0.0000

> <Gold.Chemscore.Lipo>
87.0343

> <Gold.Chemscore.Internal_Hbond>
0.0000

> <Gold.Chemscore.DEClash>
1.4074

> <Gold.Chemscore.DEInternal>
0.7005

> <Gold.Chemscore.Rot>
1.4291

> <Gold.Chemscore.Internal.Correction>
   9.000000E+99

> <Gold.Chemscore.Hbonds>
donor molecule, donor type, donor heavy atom, donor atom, acceptor molecule, acceptor atom, score
      L1  H     9    35       P1  8028  1.00
      L1  H    12    36       P1  8028  0.88

> <Gold.Chemscore.Hbond.Weighted>
-6.5428

> <Gold.Chemscore.Metal.Weighted>
-0.0000

> <Gold.Chemscore.Lipo.Weighted>
-10.1830

> <Gold.Chemscore.Internal_Hbond.Weighted>
0.0000

> <Gold.Chemscore.DEClash.Weighted>
1.4074

> <Gold.Chemscore.DEInternal.Weighted>
0.7005

> <Gold.Chemscore.Rot.Weighted>
3.6584

> <Gold.Chemscore.Internal.Correction.Weighted>
   9.000000E+99

> <Gold.Protein.RotatedTorsions>
[ 6907 6896 6895 6894 ] final -122.36 input  -60.11 | X-H torsion
[ 7974 7965 7964 7962 ] final -164.29 input  175.53 | X-H torsion
[ 8008 7997 7996 7995 ] final -135.38 input   59.86 | X-H torsion
[ 10167 10162 10161 10158 ] final   -2.29 input  -65.29 | X-H torsion
[ 10718 10713 10712 10709 ] final -109.99 input   66.30 | X-H torsion
[ 10763 10752 10751 10750 ] final  -40.21 input  -60.55 | X-H torsion
[ 11005 11000 10999 10996 ] final  142.53 input  -57.11 | X-H torsion

> <Gold.Protein.ActiveResidues>
 VAL166  LYS551  ARG553  GLY616  TRP617  ASP618  TYR619  PRO620  LYS621  CYS622 
 ASP623  PHE694  ASN695  SER759  ASP760  ASP761  ALA762  ILE779  LEU786  VAL792 
 PHE793  MET794  SER795  GLU796  ALA797  LYS798  CYS799  TRP800  GLU811  SER814 

> <Gold.Protein.RotatedAtoms>
  150.8569  133.7702  159.3005 H   0  0  0  0  0  0  0  0  0  0  0  0  # atno 6907 bound_to 6896
  151.5356  135.1067  159.9923 H   0  0  0  0  0  0  0  0  0  0  0  0  # atno 6908 bound_to 6896
  152.4596  133.7752  159.6876 H   0  0  0  0  0  0  0  0  0  0  0  0  # atno 6909 bound_to 6896
  144.7301  140.2982  143.6209 H   0  0  0  0  0  0  0  0  0  0  0  0  # atno 7974 bound_to 7965
  155.3777  140.0492  157.3044 H   0  0  0  0  0  0  0  0  0  0  0  0  # atno 8008 bound_to 7997
  154.5098  140.2187  155.9141 H   0  0  0  0  0  0  0  0  0  0  0  0  # atno 8009 bound_to 7997
  156.1569  140.3124  155.8746 H   0  0  0  0  0  0  0  0  0  0  0  0  # atno 8010 bound_to 7997
  140.6845  143.6675  150.8214 H   0  0  0  0  0  0  0  0  0  0  0  0  # atno 10167 bound_to 10162
  156.0567  130.5792  150.8176 H   0  0  0  0  0  0  0  0  0  0  0  0  # atno 10718 bound_to 10713
  153.9422  135.6760  153.4744 H   0  0  0  0  0  0  0  0  0  0  0  0  # atno 10763 bound_to 10752
  153.0926  135.4867  154.8715 H   0  0  0  0  0  0  0  0  0  0  0  0  # atno 10764 bound_to 10752
  154.7371  135.3152  154.8751 H   0  0  0  0  0  0  0  0  0  0  0  0  # atno 10765 bound_to 10752
  140.0484  134.9268  157.0972 H   0  0  0  0  0  0  0  0  0  0  0  0  # atno 11005 bound_to 11000
  145.7787  139.1883  143.2170 LP  0  0  0  0  0  0  0  0  0  0  0  0  # atno 17320 bound_to 7965
  146.0852  140.7719  142.9622 LP  0  0  0  0  0  0  0  0  0  0  0  0  # atno 17321 bound_to 7965
  140.0379  143.5376  152.2731 LP  0  0  0  0  0  0  0  0  0  0  0  0  # atno 17342 bound_to 10162
  139.6192  144.7626  151.2777 LP  0  0  0  0  0  0  0  0  0  0  0  0  # atno 17343 bound_to 10162
  157.5542  131.0944  150.9652 LP  0  0  0  0  0  0  0  0  0  0  0  0  # atno 17370 bound_to 10713
  156.9905  130.5561  149.5303 LP  0  0  0  0  0  0  0  0  0  0  0  0  # atno 17371 bound_to 10713
  140.3956  134.2137  155.7165 LP  0  0  0  0  0  0  0  0  0  0  0  0  # atno 17394 bound_to 11000
  141.1918  133.8186  157.0864 LP  0  0  0  0  0  0  0  0  0  0  0  0  # atno 17395 bound_to 11000

$$$$
