AV-unprocessed.smi:287|AV-procd|sdf|2187|dock10
  -GOLD-   2262021573D 1   1.00000     0.00000
 Structure written by MMmdl.
 55 58  0  0  0  0  0  0  0  0  1 V2000
  152.0963  142.0147  158.8899 C   0  0  0  0  0  0  0  0  0  0  0  0
  151.5986  141.0400  157.8783 C   0  0  0  0  0  0  0  0  0  0  0  0
  150.3569  140.6925  157.4326 C   0  0  0  0  0  0  0  0  0  0  0  0
  150.5272  139.6778  156.4435 C   0  0  0  0  0  0  0  0  0  0  0  0
  149.4161  138.9908  155.6612 C   0  0  1  0  0  0  0  0  0  0  0  0
  149.6688  139.1530  154.1534 C   0  0  0  0  0  0  0  0  0  0  0  0
  149.3678  137.5952  155.8888 O   0  0  0  0  0  0  0  0  0  0  0  0
  148.0149  139.5326  156.0241 C   0  0  0  0  0  0  0  0  0  0  0  0
  146.9386  138.6313  155.6325 N   0  0  0  0  0  0  0  0  0  0  0  0
  146.7433  138.3004  154.3390 C   0  0  0  0  0  0  0  0  0  0  0  0
  146.9934  139.2840  153.4417 N   0  0  0  0  0  0  0  0  0  0  0  0
  146.8349  139.0587  152.1344 C   0  0  0  0  0  0  0  0  0  0  0  0
  146.4422  137.9401  151.5223 N   0  0  0  0  0  0  0  0  0  0  0  0
  146.1886  136.9449  152.4202 C   0  0  0  0  0  0  0  0  0  0  0  0
  146.3096  137.0376  153.8360 C   0  0  0  0  0  0  0  0  0  0  0  0
  145.9599  135.8165  154.4032 N   0  0  0  0  0  0  0  0  0  0  0  0
  145.6575  135.0574  153.3853 C   0  0  0  0  0  0  0  0  0  0  0  0
  145.7604  135.6636  152.1520 N   0  0  0  0  0  0  0  0  0  0  0  0
  145.4990  135.1012  150.7863 C   0  0  1  0  0  0  0  0  0  0  0  0
  146.2079  133.9056  150.6584 O   0  0  0  0  0  0  0  0  0  0  0  0
  145.3283  132.8052  150.8595 C   0  0  2  0  0  0  0  0  0  0  0  0
  145.9244  131.5008  150.3039 C   0  0  0  0  0  0  0  0  0  0  0  0
  146.7612  130.9045  151.2719 O   0  0  0  0  0  0  0  0  0  0  0  0
  144.0433  133.2924  150.1797 C   0  0  2  0  0  0  0  0  0  0  0  0
  144.1238  133.1330  148.7748 O   0  0  0  0  0  0  0  0  0  0  0  0
  144.0031  134.7709  150.5511 C   0  0  1  0  0  0  0  0  0  0  0  0
  143.1820  134.9536  151.6923 O   0  0  0  0  0  0  0  0  0  0  0  0
  151.8869  139.4988  156.3563 C   0  0  0  0  0  0  0  0  0  0  0  0
  152.7662  138.6234  155.5256 C   0  0  0  0  0  0  0  0  0  0  0  0
  152.5429  140.3162  157.2265 O   0  0  0  0  0  0  0  0  0  0  0  0
  145.8968  135.8509  150.1012 H   0  0  0  0  0  0  0  0  0  0  0  0
  145.1251  132.6958  151.9266 H   0  0  0  0  0  0  0  0  0  0  0  0
  143.1664  132.7460  150.5301 H   0  0  0  0  0  0  0  0  0  0  0  0
  143.6134  135.3901  149.7419 H   0  0  0  0  0  0  0  0  0  0  0  0
  151.2686  142.4569  159.4449 H   0  0  0  0  0  0  0  0  0  0  0  0
  152.6502  142.8210  158.4090 H   0  0  0  0  0  0  0  0  0  0  0  0
  152.7591  141.5265  159.6045 H   0  0  0  0  0  0  0  0  0  0  0  0
  149.4261  141.1157  157.7809 H   0  0  0  0  0  0  0  0  0  0  0  0
  149.6880  140.2053  153.8676 H   0  0  0  0  0  0  0  0  0  0  0  0
  148.8906  138.6683  153.5622 H   0  0  0  0  0  0  0  0  0  0  0  0
  150.6254  138.7168  153.8625 H   0  0  0  0  0  0  0  0  0  0  0  0
  149.8367  137.4052  156.6869 H   0  0  0  0  0  0  0  0  0  0  0  0
  147.9646  139.6491  157.1072 H   0  0  0  0  0  0  0  0  0  0  0  0
  147.8559  140.5209  155.5899 H   0  0  0  0  0  0  0  0  0  0  0  0
  146.3564  138.2935  156.3856 H   0  0  0  0  0  0  0  0  0  0  0  0
  147.0539  139.8946  151.4864 H   0  0  0  0  0  0  0  0  0  0  0  0
  145.3524  134.0294  153.5156 H   0  0  0  0  0  0  0  0  0  0  0  0
  145.1279  130.7911  150.0781 H   0  0  0  0  0  0  0  0  0  0  0  0
  146.4783  131.6751  149.3809 H   0  0  0  0  0  0  0  0  0  0  0  0
  147.5701  130.6503  150.8546 H   0  0  0  0  0  0  0  0  0  0  0  0
  144.8196  133.6841  148.4506 H   0  0  0  0  0  0  0  0  0  0  0  0
  142.7796  134.1250  151.9048 H   0  0  0  0  0  0  0  0  0  0  0  0
  152.5094  138.7077  154.4696 H   0  0  0  0  0  0  0  0  0  0  0  0
  152.6582  137.5792  155.8193 H   0  0  0  0  0  0  0  0  0  0  0  0
  153.8155  138.8977  155.6369 H   0  0  0  0  0  0  0  0  0  0  0  0
  1  2  1  0  0  0  0
  1 35  1  0  0  0  0
  1 36  1  0  0  0  0
  1 37  1  0  0  0  0
  2 30  1  0  0  0  0
  2  3  2  0  0  0  0
  3  4  1  0  0  0  0
  3 38  1  0  0  0  0
  4  5  1  0  0  0  0
  4 28  2  0  0  0  0
  5  6  1  0  0  0  0
  5  7  1  0  0  0  0
  5  8  1  0  0  0  0
  6 39  1  0  0  0  0
  6 40  1  0  0  0  0
  6 41  1  0  0  0  0
  7 42  1  0  0  0  0
  8  9  1  0  0  0  0
  8 43  1  0  0  0  0
  8 44  1  0  0  0  0
  9 10  1  0  0  0  0
  9 45  1  0  0  0  0
 10 15  1  0  0  0  0
 10 11  2  0  0  0  0
 11 12  1  0  0  0  0
 12 13  2  0  0  0  0
 12 46  1  0  0  0  0
 13 14  1  0  0  0  0
 14 18  1  0  0  0  0
 14 15  2  0  0  0  0
 15 16  1  0  0  0  0
 16 17  2  0  0  0  0
 17 18  1  0  0  0  0
 17 47  1  0  0  0  0
 18 19  1  0  0  0  0
 19 31  1  0  0  0  0
 19 26  1  0  0  0  0
 19 20  1  0  0  0  0
 20 21  1  0  0  0  0
 21 32  1  0  0  0  0
 21 22  1  0  0  0  0
 21 24  1  0  0  0  0
 22 23  1  0  0  0  0
 22 48  1  0  0  0  0
 22 49  1  0  0  0  0
 23 50  1  0  0  0  0
 24 33  1  0  0  0  0
 24 25  1  0  0  0  0
 24 26  1  0  0  0  0
 25 51  1  0  0  0  0
 26 34  1  0  0  0  0
 26 27  1  0  0  0  0
 27 52  1  0  0  0  0
 28 29  1  0  0  0  0
 28 30  1  0  0  0  0
 29 53  1  0  0  0  0
 29 54  1  0  0  0  0
 29 55  1  0  0  0  0
M  END
> <s_m_source_file>
AV-unprocessed.smi

> <i_m_source_file_index>
287

> <i_lp_mmshare_version>
43012

> <i_f3d_flags>
0

> <s_epik_input>
W0NIM11jMVtjSF1jKGMobzEpW0NIM10pW0NAQF0oW0NIM10pKFtPSF0pW0NIMl1bTkhdYyhuW2NIXW4yKWMoYzIzKW5bY0hdbjNbQ0BASF00T1tDQEhdKFtDSDJdW09IXSlbQ0BASF0oW09IXSlbQ0BIXTRbT0hd

> <s_epik_cmdline>
J2VwaWtfcHl0aG9uJywgJy1waCcsICc3LjAnLCAnLXRuJywgJzgnLCAnLW1hJywgJzIwMCcsICctbWV0YWxfYmluZGluZycsICctaW1hZScsICc8aW5maWxlLm1hZT4nLCAnLW9tYWUnLCAnPG91dGZpbGUubWFlPic=

> <r_lp_tautomer_probability>
1

> <r_epik_Ionization_Penalty>
0.000992612

> <r_epik_Ionization_Penalty_Charging>
0

> <r_epik_Ionization_Penalty_Neutral>
0.000992612

> <r_epik_State_Penalty>
-0

> <r_epik_Charging_Adjusted_Penalty>
0

> <i_epik_Tot_Q>
0

> <i_epik_Tot_abs_Q>
0

> <r_epik_Metal_State_Penalty>
-0

> <b_epik_Metal_Only>
0

> <s_epik_Chemistry_Notes>
This compound contains an acetal/aminal-like group ( X-CH(R)-Y where X, Y are N, S, or O) that may be acid/base labile, releasing an aldehyde.

> <s_lp_Force_Field>
OPLS_2005

> <r_lp_Energy>
42.7121

> <b_lp_Chiralities_Consistent>
1

> <s_lp_Variant>
AV-unprocessed.smi:287-11

> <Gold.Version>
5.8.1

> <Gold.Id.Protein>
6NUR|6NUR_protein|mol2

> <Gold.PLP.Fitness>
44.6190

> <Gold.PLP.PLP>
-34.8746

> <Gold.PLP.part.hbond>
-3.4957

> <Gold.PLP.part.metal>
0.0000

> <Gold.PLP.part.buried>
0.5785

> <Gold.PLP.part.nonpolar>
-32.4107

> <Gold.PLP.part.repulsive>
1.7966

> <Gold.PLP.ligand.clash>
0.0000

> <Gold.PLP.ligand.torsion>
0.9031

> <Gold.PLP.Chemscore.Hbond>
3.1657

> <Gold.PLP.Chemscore.CHOScore>
0.6277

> <Gold.PLP.Chemscore.Metal>
0.0000

> <Gold.Chemscore.Hbonds>
donor molecule, donor type, donor heavy atom, donor atom, acceptor molecule, acceptor atom, score
      L1  H    23    50       P1 10747  0.99
      L1  H    25    51       P1  7921  1.00
      P1  H  7954  7966       L1    13  0.12
      P1  H  7997  8010       L1    30  0.94
      L1  C    12    46       P1  7957  0.59

> <Gold.PLP.Chemscore.Internal.Correction>
0.1703

> <Gold.Rescore>
     Score         DG    S(hbond)    S(metal)    S(lipo)     H(rot)  DE(clash)    DE(int)     intcor
      6.14     -10.98       2.82        0.00      81.73       5.27       1.57       3.27       ----

> <Gold.Chemscore.Fitness>
6.1370

> <Gold.Chemscore.DG>
-10.9751

> <Gold.Chemscore.ZeroCoef>
-5.4800

> <Gold.Chemscore.Hbond>
2.8195

> <Gold.Chemscore.Metal>
0.0000

> <Gold.Chemscore.Lipo>
81.7263

> <Gold.Chemscore.Internal_Hbond>
0.0000

> <Gold.Chemscore.DEClash>
1.5661

> <Gold.Chemscore.DEInternal>
3.2719

> <Gold.Chemscore.Rot>
5.2672

> <Gold.Chemscore.Internal.Correction>
   9.000000E+99

> <Gold.Chemscore.Hbonds>
donor molecule, donor type, donor heavy atom, donor atom, acceptor molecule, acceptor atom, score
      L1  H    23    50       P1 10747  0.91
      L1  H    25    51       P1  7921  0.96
      P1  H  7954  7966       L1    13  0.03
      P1  H  7997  8010       L1    30  0.40

> <Gold.Chemscore.Hbond.Weighted>
-9.4171

> <Gold.Chemscore.Metal.Weighted>
-0.0000

> <Gold.Chemscore.Lipo.Weighted>
-9.5620

> <Gold.Chemscore.Internal_Hbond.Weighted>
0.0000

> <Gold.Chemscore.DEClash.Weighted>
1.5661

> <Gold.Chemscore.DEInternal.Weighted>
3.2719

> <Gold.Chemscore.Rot.Weighted>
13.4839

> <Gold.Chemscore.Internal.Correction.Weighted>
   9.000000E+99

> <Gold.Protein.RotatedTorsions>
[ 6907 6896 6895 6894 ] final   50.30 input  -60.11 | X-H torsion
[ 7974 7965 7964 7962 ] final   24.95 input  175.53 | X-H torsion
[ 8008 7997 7996 7995 ] final   53.47 input   59.86 | X-H torsion
[ 10167 10162 10161 10158 ] final -126.54 input  -65.29 | X-H torsion
[ 10718 10713 10712 10709 ] final  130.36 input   66.30 | X-H torsion
[ 10763 10752 10751 10750 ] final -102.84 input  -60.55 | X-H torsion
[ 11005 11000 10999 10996 ] final  113.73 input  -57.11 | X-H torsion

> <Gold.Protein.ActiveResidues>
 VAL166  LYS551  ARG553  GLY616  TRP617  ASP618  TYR619  PRO620  LYS621  CYS622 
 ASP623  PHE694  ASN695  SER759  ASP760  ASP761  ALA762  ILE779  LEU786  VAL792 
 PHE793  MET794  SER795  GLU796  ALA797  LYS798  CYS799  TRP800  GLU811  SER814 

> <Gold.Protein.RotatedAtoms>
  152.3003  134.7619  160.0358 H   0  0  0  0  0  0  0  0  0  0  0  0  # atno 6907 bound_to 6896
  151.8135  133.3379  159.3570 H   0  0  0  0  0  0  0  0  0  0  0  0  # atno 6908 bound_to 6896
  150.7270  134.5571  159.5868 H   0  0  0  0  0  0  0  0  0  0  0  0  # atno 6909 bound_to 6896
  146.1912  139.7533  142.8830 H   0  0  0  0  0  0  0  0  0  0  0  0  # atno 7974 bound_to 7965
  155.4688  140.3464  155.4323 H   0  0  0  0  0  0  0  0  0  0  0  0  # atno 8008 bound_to 7997
  156.1114  140.1462  156.9362 H   0  0  0  0  0  0  0  0  0  0  0  0  # atno 8009 bound_to 7997
  154.4759  140.0885  156.7239 H   0  0  0  0  0  0  0  0  0  0  0  0  # atno 8010 bound_to 7997
  139.9704  143.5852  152.2414 H   0  0  0  0  0  0  0  0  0  0  0  0  # atno 10167 bound_to 10162
  157.5069  131.1096  150.9348 H   0  0  0  0  0  0  0  0  0  0  0  0  # atno 10718 bound_to 10713
  154.7763  135.4846  153.9752 H   0  0  0  0  0  0  0  0  0  0  0  0  # atno 10763 bound_to 10752
  153.1434  135.6777  153.9000 H   0  0  0  0  0  0  0  0  0  0  0  0  # atno 10764 bound_to 10752
  153.8667  135.3148  155.3418 H   0  0  0  0  0  0  0  0  0  0  0  0  # atno 10765 bound_to 10752
  139.8961  134.9555  156.6784 H   0  0  0  0  0  0  0  0  0  0  0  0  # atno 11005 bound_to 11000
  145.3785  141.0354  143.3191 LP  0  0  0  0  0  0  0  0  0  0  0  0  # atno 17320 bound_to 7965
  144.8491  139.5349  143.6864 LP  0  0  0  0  0  0  0  0  0  0  0  0  # atno 17321 bound_to 7965
  139.6485  144.7659  151.2195 LP  0  0  0  0  0  0  0  0  0  0  0  0  # atno 17342 bound_to 10162
  140.7524  143.6199  150.8523 LP  0  0  0  0  0  0  0  0  0  0  0  0  # atno 17343 bound_to 10162
  157.0000  130.5596  149.5310 LP  0  0  0  0  0  0  0  0  0  0  0  0  # atno 17370 bound_to 10713
  156.0264  130.5358  150.8418 LP  0  0  0  0  0  0  0  0  0  0  0  0  # atno 17371 bound_to 10713
  140.7319  133.9052  155.8217 LP  0  0  0  0  0  0  0  0  0  0  0  0  # atno 17394 bound_to 11000
  141.0147  134.0972  157.4185 LP  0  0  0  0  0  0  0  0  0  0  0  0  # atno 17395 bound_to 11000

$$$$
