AV-unprocessed.smi:1229|AV-procd|sdf|5150|dock5
  -GOLD-   22720 4223D 1   1.00000     0.00000
 Structure written by MMmdl.
 46 47  0  0  0  0  0  0  0  0  2 V2000
  151.2689  137.6897  154.6591 C   0  0  0  0  0  0  0  0  0  0  0  0
  150.6197  139.0236  154.9908 C   0  0  0  0  0  0  0  0  0  0  0  0
  151.3942  140.0364  155.5954 C   0  0  0  0  0  0  0  0  0  0  0  0
  150.7928  141.2691  155.9014 C   0  0  0  0  0  0  0  0  0  0  0  0
  149.4330  141.4373  155.5890 C   0  0  0  0  0  0  0  0  0  0  0  0
  148.6851  140.4748  155.0118 N   0  0  0  0  0  0  0  0  0  0  0  0
  149.2508  139.2791  154.7087 C   0  0  0  0  0  0  0  0  0  0  0  0
  148.5230  138.2175  154.1002 N   0  0  0  0  0  0  0  0  0  0  0  0
  147.2336  137.8788  154.2756 C   0  0  0  0  0  0  0  0  0  0  0  0
  146.4358  138.4570  155.0144 O   0  0  0  0  0  0  0  0  0  0  0  0
  146.9078  136.8057  153.5394 N   0  0  0  0  0  0  0  0  0  0  0  0
  145.5858  136.1873  153.5026 C   0  0  0  0  0  0  0  0  0  0  0  0
  144.8801  136.4121  152.1491 C   0  0  2  0  0  0  0  0  0  0  0  0
  144.6167  137.7951  152.0151 O   0  0  0  0  0  0  0  0  0  0  0  0
  143.5295  135.6709  152.0824 C   0  0  0  0  0  0  0  0  0  0  0  0
  143.5753  134.4897  151.1827 N   0  3  0  0  0  0  0  0  0  0  0  0
  143.9746  133.2489  151.8964 C   0  0  0  0  0  0  0  0  0  0  0  0
  143.8670  132.0202  150.9770 C   0  0  0  0  0  0  0  0  0  0  0  0
  144.6990  132.2099  149.7021 C   0  0  0  0  0  0  0  0  0  0  0  0
  144.2966  133.5146  149.0026 C   0  0  0  0  0  0  0  0  0  0  0  0
  144.4022  134.7092  149.9652 C   0  0  0  0  0  0  0  0  0  0  0  0
  152.3255  137.6845  154.9281 H   0  0  0  0  0  0  0  0  0  0  0  0
  151.1945  137.4830  153.5910 H   0  0  0  0  0  0  0  0  0  0  0  0
  150.7802  136.8818  155.2045 H   0  0  0  0  0  0  0  0  0  0  0  0
  152.4377  139.8743  155.8231 H   0  0  0  0  0  0  0  0  0  0  0  0
  151.3589  142.0644  156.3638 H   0  0  0  0  0  0  0  0  0  0  0  0
  148.9318  142.3687  155.8075 H   0  0  0  0  0  0  0  0  0  0  0  0
  149.0516  137.6471  153.4571 H   0  0  0  0  0  0  0  0  0  0  0  0
  147.6214  136.3913  152.9576 H   0  0  0  0  0  0  0  0  0  0  0  0
  145.7058  135.1187  153.6897 H   0  0  0  0  0  0  0  0  0  0  0  0
  144.9824  136.5694  154.3272 H   0  0  0  0  0  0  0  0  0  0  0  0
  145.5269  136.0916  151.3332 H   0  0  0  0  0  0  0  0  0  0  0  0
  144.5211  137.9944  151.0955 H   0  0  0  0  0  0  0  0  0  0  0  0
  143.2178  135.3467  153.0766 H   0  0  0  0  0  0  0  0  0  0  0  0
  142.7662  136.3726  151.7414 H   0  0  0  0  0  0  0  0  0  0  0  0
  144.9943  133.3539  152.2705 H   0  0  0  0  0  0  0  0  0  0  0  0
  143.3312  133.0994  152.7644 H   0  0  0  0  0  0  0  0  0  0  0  0
  144.1969  131.1267  151.5079 H   0  0  0  0  0  0  0  0  0  0  0  0
  142.8222  131.8538  150.7110 H   0  0  0  0  0  0  0  0  0  0  0  0
  145.7600  132.2378  149.9539 H   0  0  0  0  0  0  0  0  0  0  0  0
  144.5594  131.3625  149.0302 H   0  0  0  0  0  0  0  0  0  0  0  0
  144.9305  133.6807  148.1311 H   0  0  0  0  0  0  0  0  0  0  0  0
  143.2743  133.4331  148.6307 H   0  0  0  0  0  0  0  0  0  0  0  0
  144.0847  135.6110  149.4433 H   0  0  0  0  0  0  0  0  0  0  0  0
  145.4429  134.8647  150.2544 H   0  0  0  0  0  0  0  0  0  0  0  0
  142.6255  134.3398  150.8729 H   0  0  0  0  0  0  0  0  0  0  0  0
  1  2  1  0  0  0  0
  1 22  1  0  0  0  0
  1 23  1  0  0  0  0
  1 24  1  0  0  0  0
  2  7  1  0  0  0  0
  2  3  2  0  0  0  0
  3  4  1  0  0  0  0
  3 25  1  0  0  0  0
  4  5  2  0  0  0  0
  4 26  1  0  0  0  0
  5  6  1  0  0  0  0
  5 27  1  0  0  0  0
  6  7  2  0  0  0  0
  7  8  1  0  0  0  0
  8  9  1  0  0  0  0
  8 28  1  0  0  0  0
  9 10  2  0  0  0  0
  9 11  1  0  0  0  0
 11 12  1  0  0  0  0
 11 29  1  0  0  0  0
 12 13  1  0  0  0  0
 12 30  1  0  0  0  0
 12 31  1  0  0  0  0
 13 14  1  0  0  0  0
 13 15  1  0  0  0  0
 13 32  1  0  0  0  0
 14 33  1  0  0  0  0
 15 16  1  0  0  0  0
 15 34  1  0  0  0  0
 15 35  1  0  0  0  0
 16 21  1  0  0  0  0
 16 17  1  0  0  0  0
 16 46  1  0  0  0  0
 17 18  1  0  0  0  0
 17 36  1  0  0  0  0
 17 37  1  0  0  0  0
 18 19  1  0  0  0  0
 18 38  1  0  0  0  0
 18 39  1  0  0  0  0
 19 20  1  0  0  0  0
 19 40  1  0  0  0  0
 19 41  1  0  0  0  0
 20 21  1  0  0  0  0
 20 42  1  0  0  0  0
 20 43  1  0  0  0  0
 21 44  1  0  0  0  0
 21 45  1  0  0  0  0
M  CHG  1  16   1
M  END
> <s_m_source_file>
AV-unprocessed.smi

> <i_m_source_file_index>
1229

> <i_lp_mmshare_version>
43012

> <i_f3d_flags>
0

> <s_epik_input>
W0NIM11jMVtjSF1bY0hdW2NIXW5jMVtOSF1DKD1PKVtOSF1bQ0gyXVtDQEhdKFtPSF0pW0NIMl1OMltDSDJdW0NIMl1bQ0gyXVtDSDJdW0NIMl0y

> <s_epik_cmdline>
J2VwaWtfcHl0aG9uJywgJy1waCcsICc3LjAnLCAnLXRuJywgJzgnLCAnLW1hJywgJzIwMCcsICctbWV0YWxfYmluZGluZycsICctaW1hZScsICc8aW5maWxlLm1hZT4nLCAnLW9tYWUnLCAnPG91dGZpbGUubWFlPic=

> <r_epik_Ionization_Penalty>
0.00511007

> <r_epik_Ionization_Penalty_Charging>
0.00506051

> <r_epik_Ionization_Penalty_Neutral>
4.95577e-05

> <r_epik_State_Penalty>
0.00368188

> <r_epik_Charging_Adjusted_Penalty>
0.0087424

> <i_epik_Tot_Q>
1

> <i_epik_Tot_abs_Q>
1

> <r_epik_Metal_State_Penalty>
-0

> <b_epik_Metal_Only>
0

> <s_lp_Force_Field>
OPLS_2005

> <r_lp_Energy>
20.9384

> <b_lp_Chiralities_Consistent>
1

> <s_lp_Variant>
AV-unprocessed.smi:1229-1

> <Gold.Version>
5.8.1

> <Gold.Id.Protein>
6NUR|6NUR_protein|mol2

> <Gold.PLP.Fitness>
51.4762

> <Gold.PLP.PLP>
-36.1644

> <Gold.PLP.part.hbond>
-4.7205

> <Gold.PLP.part.metal>
0.0000

> <Gold.PLP.part.buried>
0.0466

> <Gold.PLP.part.nonpolar>
-32.2237

> <Gold.PLP.part.repulsive>
0.1429

> <Gold.PLP.ligand.clash>
0.0000

> <Gold.PLP.ligand.torsion>
1.2666

> <Gold.PLP.Chemscore.Hbond>
4.9280

> <Gold.PLP.Chemscore.CHOScore>
1.0000

> <Gold.PLP.Chemscore.Metal>
0.0000

> <Gold.Chemscore.Hbonds>
donor molecule, donor type, donor heavy atom, donor atom, acceptor molecule, acceptor atom, score
      L1  H     8    28       P1  7948  0.75
      L1  H    11    29       P1  7948  1.00
      L1  H    14    33       P1 10171  1.00
      L1  H    16    46       P1 10186  1.76
      L1  C     5    27       P1  8028  1.00

> <Gold.PLP.Chemscore.Internal.Correction>
0.0609

> <Gold.Rescore>
     Score         DG    S(hbond)    S(metal)    S(lipo)     H(rot)  DE(clash)    DE(int)     intcor
     18.14     -19.95       3.00        0.00      88.49       2.31       0.05       1.77       ----

> <Gold.Chemscore.Fitness>
18.1398

> <Gold.Chemscore.DG>
-19.9541

> <Gold.Chemscore.ZeroCoef>
-5.4800

> <Gold.Chemscore.Hbond>
3.0041

> <Gold.Chemscore.Metal>
0.0000

> <Gold.Chemscore.Lipo>
88.4856

> <Gold.Chemscore.Internal_Hbond>
0.0000

> <Gold.Chemscore.DEClash>
0.0463

> <Gold.Chemscore.DEInternal>
1.7679

> <Gold.Chemscore.Rot>
2.3095

> <Gold.Chemscore.Internal.Correction>
   9.000000E+99

> <Gold.Chemscore.Hbonds>
donor molecule, donor type, donor heavy atom, donor atom, acceptor molecule, acceptor atom, score
      L1  H     8    28       P1  7948  0.71
      L1  H    11    29       P1  7948  1.00
      L1  H    14    33       P1 10171  0.95
      L1  H    16    46       P1 10186  0.22

> <Gold.Chemscore.Hbond.Weighted>
-10.0337

> <Gold.Chemscore.Metal.Weighted>
-0.0000

> <Gold.Chemscore.Lipo.Weighted>
-10.3528

> <Gold.Chemscore.Internal_Hbond.Weighted>
0.0000

> <Gold.Chemscore.DEClash.Weighted>
0.0463

> <Gold.Chemscore.DEInternal.Weighted>
1.7679

> <Gold.Chemscore.Rot.Weighted>
5.9124

> <Gold.Chemscore.Internal.Correction.Weighted>
   9.000000E+99

> <Gold.Protein.RotatedTorsions>
[ 6907 6896 6895 6894 ] final -141.78 input  -60.11 | X-H torsion
[ 7974 7965 7964 7962 ] final   -4.53 input  175.53 | X-H torsion
[ 8008 7997 7996 7995 ] final -109.95 input   59.86 | X-H torsion
[ 10167 10162 10161 10158 ] final   11.41 input  -65.29 | X-H torsion
[ 10718 10713 10712 10709 ] final  107.99 input   66.30 | X-H torsion
[ 10763 10752 10751 10750 ] final   -4.85 input  -60.55 | X-H torsion
[ 11005 11000 10999 10996 ] final   23.93 input  -57.11 | X-H torsion

> <Gold.Protein.ActiveResidues>
 VAL166  LYS551  ARG553  GLY616  TRP617  ASP618  TYR619  PRO620  LYS621  CYS622 
 ASP623  PHE694  ASN695  SER759  ASP760  ASP761  ALA762  ILE779  LEU786  VAL792 
 PHE793  MET794  SER795  GLU796  ALA797  LYS798  CYS799  TRP800  GLU811  SER814 

> <Gold.Protein.RotatedAtoms>
  151.0783  133.5410  159.2622 H   0  0  0  0  0  0  0  0  0  0  0  0  # atno 6907 bound_to 6896
  151.2324  135.0558  159.9002 H   0  0  0  0  0  0  0  0  0  0  0  0  # atno 6908 bound_to 6896
  152.5420  134.0570  159.8189 H   0  0  0  0  0  0  0  0  0  0  0  0  # atno 6909 bound_to 6896
  146.2370  140.1885  142.8332 H   0  0  0  0  0  0  0  0  0  0  0  0  # atno 7974 bound_to 7965
  154.9670  140.0398  157.2217 H   0  0  0  0  0  0  0  0  0  0  0  0  # atno 8008 bound_to 7997
  154.7836  140.2823  155.6023 H   0  0  0  0  0  0  0  0  0  0  0  0  # atno 8009 bound_to 7997
  156.2940  140.2587  156.2667 H   0  0  0  0  0  0  0  0  0  0  0  0  # atno 8010 bound_to 7997
  140.6134  143.8360  150.7090 H   0  0  0  0  0  0  0  0  0  0  0  0  # atno 10167 bound_to 10162
  157.6605  131.0884  150.6239 H   0  0  0  0  0  0  0  0  0  0  0  0  # atno 10718 bound_to 10713
  153.3905  135.7001  153.6498 H   0  0  0  0  0  0  0  0  0  0  0  0  # atno 10763 bound_to 10752
  153.5073  135.3639  155.2570 H   0  0  0  0  0  0  0  0  0  0  0  0  # atno 10764 bound_to 10752
  154.8702  135.4126  154.3221 H   0  0  0  0  0  0  0  0  0  0  0  0  # atno 10765 bound_to 10752
  140.3643  134.2092  155.7670 H   0  0  0  0  0  0  0  0  0  0  0  0  # atno 11005 bound_to 11000
  144.9877  140.8518  143.5358 LP  0  0  0  0  0  0  0  0  0  0  0  0  # atno 17320 bound_to 7965
  145.1886  139.2313  143.5254 LP  0  0  0  0  0  0  0  0  0  0  0  0  # atno 17321 bound_to 7965
  140.1934  143.4018  152.1846 LP  0  0  0  0  0  0  0  0  0  0  0  0  # atno 17342 bound_to 10162
  139.5379  144.7228  151.4832 LP  0  0  0  0  0  0  0  0  0  0  0  0  # atno 17343 bound_to 10162
  156.6542  130.4493  149.5709 LP  0  0  0  0  0  0  0  0  0  0  0  0  # atno 17370 bound_to 10713
  156.2115  130.6682  151.1274 LP  0  0  0  0  0  0  0  0  0  0  0  0  # atno 17371 bound_to 10713
  141.1974  133.8059  157.0627 LP  0  0  0  0  0  0  0  0  0  0  0  0  # atno 17394 bound_to 11000
  140.0602  134.9759  157.1291 LP  0  0  0  0  0  0  0  0  0  0  0  0  # atno 17395 bound_to 11000

$$$$
