AV-unprocessed.smi:264|AV-procd|sdf|2010|dock2
  -GOLD-   2262021203D 1   1.00000     0.00000
 Structure written by MMmdl.
 52 56  0  0  0  0  0  0  0  0  1 V2000
  147.1892  132.4626  153.1084 C   0  0  0  0  0  0  0  0  0  0  0  0
  146.5246  133.2157  151.9458 C   0  0  1  0  0  0  0  0  0  0  0  0
  145.6941  132.2925  151.2465 O   0  0  0  0  0  0  0  0  0  0  0  0
  144.6149  133.0006  150.6636 C   0  0  0  0  0  0  0  0  0  0  0  0
  144.2456  133.9885  151.7594 C   0  0  0  0  0  0  0  0  0  0  0  0
  145.6027  134.4118  152.3172 C   0  0  2  0  0  0  0  0  0  0  0  0
  146.0413  135.5389  151.5773 O   0  0  0  0  0  0  0  0  0  0  0  0
  145.5573  134.8074  153.8170 C   0  0  0  0  0  0  0  0  0  0  0  0
  146.7250  135.5592  154.2509 N   0  0  0  0  0  0  0  0  0  0  0  0
  147.8960  135.0451  154.7604 C   0  0  0  0  0  0  0  0  0  0  0  0
  148.7966  135.9308  155.0879 N   0  0  0  0  0  0  0  0  0  0  0  0
  148.2041  137.1491  154.7761 C   0  0  0  0  0  0  0  0  0  0  0  0
  148.6191  138.5073  154.8757 C   0  0  0  0  0  0  0  0  0  0  0  0
  149.8221  138.8676  155.3893 N   0  0  0  0  0  0  0  0  0  0  0  0
  151.0258  138.5021  154.6511 C   0  0  0  0  0  0  0  0  0  0  0  0
  152.2617  138.6914  155.5421 C   0  0  0  0  0  0  0  0  0  0  0  0
  152.2981  140.0183  156.0666 O   0  0  0  0  0  0  0  0  0  0  0  0
  151.1325  140.4172  156.7996 C   0  0  1  0  0  0  0  0  0  0  0  0
  151.0470  139.7412  158.1649 C   0  0  0  0  0  0  0  0  0  0  0  0
  152.0205  140.5670  158.9914 C   0  0  0  0  0  0  0  0  0  0  0  0
  151.7831  141.8972  158.5586 O   0  0  0  0  0  0  0  0  0  0  0  0
  151.3435  141.8866  157.2020 C   0  0  0  0  0  0  0  0  0  0  0  0
  149.8783  140.2244  155.9213 C   0  0  0  0  0  0  0  0  0  0  0  0
  147.7538  139.4593  154.4338 N   0  0  0  0  0  0  0  0  0  0  0  0
  146.5616  139.1116  153.9404 C   0  0  0  0  0  0  0  0  0  0  0  0
  146.0413  137.8914  153.7985 N   0  0  0  0  0  0  0  0  0  0  0  0
  146.9063  136.9311  154.2334 C   0  0  0  0  0  0  0  0  0  0  0  0
  147.8510  133.1139  153.6793 H   0  0  0  0  0  0  0  0  0  0  0  0
  147.7921  131.6353  152.7337 H   0  0  0  0  0  0  0  0  0  0  0  0
  146.4491  132.0428  153.7899 H   0  0  0  0  0  0  0  0  0  0  0  0
  147.3065  133.5391  151.2557 H   0  0  0  0  0  0  0  0  0  0  0  0
  144.9518  133.5162  149.7629 H   0  0  0  0  0  0  0  0  0  0  0  0
  143.7924  132.3360  150.3984 H   0  0  0  0  0  0  0  0  0  0  0  0
  143.6349  134.8191  151.4020 H   0  0  0  0  0  0  0  0  0  0  0  0
  143.6736  133.4614  152.5240 H   0  0  0  0  0  0  0  0  0  0  0  0
  146.9831  135.5872  151.6335 H   0  0  0  0  0  0  0  0  0  0  0  0
  144.6780  135.4177  154.0251 H   0  0  0  0  0  0  0  0  0  0  0  0
  145.4726  133.9188  154.4438 H   0  0  0  0  0  0  0  0  0  0  0  0
  148.0613  133.9851  154.8876 H   0  0  0  0  0  0  0  0  0  0  0  0
  150.9685  137.4645  154.3194 H   0  0  0  0  0  0  0  0  0  0  0  0
  151.1094  139.1265  153.7603 H   0  0  0  0  0  0  0  0  0  0  0  0
  152.2732  137.9558  156.3454 H   0  0  0  0  0  0  0  0  0  0  0  0
  153.1677  138.5225  154.9601 H   0  0  0  0  0  0  0  0  0  0  0  0
  150.0423  139.8526  158.5757 H   0  0  0  0  0  0  0  0  0  0  0  0
  151.2818  138.6781  158.1671 H   0  0  0  0  0  0  0  0  0  0  0  0
  151.8627  140.4595  160.0645 H   0  0  0  0  0  0  0  0  0  0  0  0
  153.0515  140.2911  158.7645 H   0  0  0  0  0  0  0  0  0  0  0  0
  152.0631  142.3904  156.5558 H   0  0  0  0  0  0  0  0  0  0  0  0
  150.4106  142.4493  157.1528 H   0  0  0  0  0  0  0  0  0  0  0  0
  149.9099  140.9177  155.0797 H   0  0  0  0  0  0  0  0  0  0  0  0
  148.9842  140.4740  156.4918 H   0  0  0  0  0  0  0  0  0  0  0  0
  145.9344  139.9278  153.6138 H   0  0  0  0  0  0  0  0  0  0  0  0
  1  2  1  0  0  0  0
  1 28  1  0  0  0  0
  1 29  1  0  0  0  0
  1 30  1  0  0  0  0
  2  6  1  0  0  0  0
  2  3  1  0  0  0  0
  2 31  1  0  0  0  0
  3  4  1  0  0  0  0
  4  5  1  0  0  0  0
  4 32  1  0  0  0  0
  4 33  1  0  0  0  0
  5  6  1  0  0  0  0
  5 34  1  0  0  0  0
  5 35  1  0  0  0  0
  6  7  1  0  0  0  0
  6  8  1  0  0  0  0
  7 36  1  0  0  0  0
  8  9  1  0  0  0  0
  8 37  1  0  0  0  0
  8 38  1  0  0  0  0
  9 27  1  0  0  0  0
  9 10  1  0  0  0  0
 10 11  2  0  0  0  0
 10 39  1  0  0  0  0
 11 12  1  0  0  0  0
 12 27  2  0  0  0  0
 12 13  1  0  0  0  0
 13 14  1  0  0  0  0
 13 24  2  0  0  0  0
 14 23  1  0  0  0  0
 14 15  1  0  0  0  0
 15 16  1  0  0  0  0
 15 40  1  0  0  0  0
 15 41  1  0  0  0  0
 16 17  1  0  0  0  0
 16 42  1  0  0  0  0
 16 43  1  0  0  0  0
 17 18  1  0  0  0  0
 18 22  1  0  0  0  0
 18 19  1  0  0  0  0
 18 23  1  0  0  0  0
 19 20  1  0  0  0  0
 19 44  1  0  0  0  0
 19 45  1  0  0  0  0
 20 21  1  0  0  0  0
 20 46  1  0  0  0  0
 20 47  1  0  0  0  0
 21 22  1  0  0  0  0
 22 48  1  0  0  0  0
 22 49  1  0  0  0  0
 23 50  1  0  0  0  0
 23 51  1  0  0  0  0
 24 25  1  0  0  0  0
 25 26  2  0  0  0  0
 25 52  1  0  0  0  0
 26 27  1  0  0  0  0
M  END
> <s_m_source_file>
AV-unprocessed.smi

> <i_m_source_file_index>
264

> <i_lp_mmshare_version>
43012

> <i_f3d_flags>
0

> <s_epik_input>
W0NIMl0xW0NIMl1PW0NAQEhdKFtDSDNdKVtDQEBdMShbT0hdKVtDSDJdbihbY0hdbjIpYyhjMjMpbltjSF1uYzNOKFtDSDJdNClbQ0gyXVtDSDJdT1tDQF00NVtDSDJdW0NIMl1PW0NIMl01

> <s_epik_cmdline>
J2VwaWtfcHl0aG9uJywgJy1waCcsICc3LjAnLCAnLXRuJywgJzgnLCAnLW1hJywgJzIwMCcsICctbWV0YWxfYmluZGluZycsICctaW1hZScsICc8aW5maWxlLm1hZT4nLCAnLW9tYWUnLCAnPG91dGZpbGUubWFlPic=

> <r_lp_tautomer_probability>
1

> <r_epik_Ionization_Penalty>
0.00539389

> <r_epik_Ionization_Penalty_Charging>
0

> <r_epik_Ionization_Penalty_Neutral>
0.00539389

> <r_epik_State_Penalty>
0.00375441

> <r_epik_Charging_Adjusted_Penalty>
0.00375441

> <i_epik_Tot_Q>
0

> <i_epik_Tot_abs_Q>
0

> <r_epik_Metal_State_Penalty>
-0

> <b_epik_Metal_Only>
0

> <s_lp_Force_Field>
OPLS_2005

> <r_lp_Energy>
53.4902

> <b_lp_Chiralities_Consistent>
1

> <s_lp_Variant>
AV-unprocessed.smi:264-4

> <Gold.Version>
5.8.1

> <Gold.Id.Protein>
6NUR|6NUR_protein|mol2

> <Gold.PLP.Fitness>
36.3650

> <Gold.PLP.PLP>
-29.2862

> <Gold.PLP.part.hbond>
-2.0000

> <Gold.PLP.part.metal>
0.0000

> <Gold.PLP.part.buried>
-4.0698

> <Gold.PLP.part.nonpolar>
-23.5847

> <Gold.PLP.part.repulsive>
0.6176

> <Gold.PLP.ligand.clash>
0.0000

> <Gold.PLP.ligand.torsion>
0.9596

> <Gold.PLP.Chemscore.Hbond>
1.9329

> <Gold.PLP.Chemscore.CHOScore>
0.9701

> <Gold.PLP.Chemscore.Metal>
0.0000

> <Gold.Chemscore.Hbonds>
donor molecule, donor type, donor heavy atom, donor atom, acceptor molecule, acceptor atom, score
      L1  H     7    36       P1  7948  0.96
      P1  H  7997  8008       L1    17  0.80
      L1  C    25    52       P1 10175  0.87

> <Gold.PLP.Chemscore.Internal.Correction>
0.2891

> <Gold.Rescore>
     Score         DG    S(hbond)    S(metal)    S(lipo)     H(rot)  DE(clash)    DE(int)     intcor
     13.64     -14.73       1.90        0.00      71.06       2.11       0.06       1.03       ----

> <Gold.Chemscore.Fitness>
13.6360

> <Gold.Chemscore.DG>
-14.7333

> <Gold.Chemscore.ZeroCoef>
-5.4800

> <Gold.Chemscore.Hbond>
1.8956

> <Gold.Chemscore.Metal>
0.0000

> <Gold.Chemscore.Lipo>
71.0608

> <Gold.Chemscore.Internal_Hbond>
0.0000

> <Gold.Chemscore.DEClash>
0.0639

> <Gold.Chemscore.DEInternal>
1.0333

> <Gold.Chemscore.Rot>
2.1063

> <Gold.Chemscore.Internal.Correction>
   9.000000E+99

> <Gold.Chemscore.Hbonds>
donor molecule, donor type, donor heavy atom, donor atom, acceptor molecule, acceptor atom, score
      L1  H     7    36       P1  7948  0.91
      P1  H  7997  8008       L1    17  0.13

> <Gold.Chemscore.Hbond.Weighted>
-6.3313

> <Gold.Chemscore.Metal.Weighted>
-0.0000

> <Gold.Chemscore.Lipo.Weighted>
-8.3141

> <Gold.Chemscore.Internal_Hbond.Weighted>
0.0000

> <Gold.Chemscore.DEClash.Weighted>
0.0639

> <Gold.Chemscore.DEInternal.Weighted>
1.0333

> <Gold.Chemscore.Rot.Weighted>
5.3921

> <Gold.Chemscore.Internal.Correction.Weighted>
   9.000000E+99

> <Gold.Protein.RotatedTorsions>
[ 6907 6896 6895 6894 ] final -155.73 input  -60.11 | X-H torsion
[ 7974 7965 7964 7962 ] final  -26.81 input  175.53 | X-H torsion
[ 8008 7997 7996 7995 ] final  -39.37 input   59.86 | X-H torsion
[ 10167 10162 10161 10158 ] final  -49.47 input  -65.29 | X-H torsion
[ 10718 10713 10712 10709 ] final   72.13 input   66.30 | X-H torsion
[ 10763 10752 10751 10750 ] final -115.32 input  -60.55 | X-H torsion
[ 11005 11000 10999 10996 ] final  -74.04 input  -57.11 | X-H torsion

> <Gold.Protein.ActiveResidues>
 VAL166  LYS551  ARG553  GLY616  TRP617  ASP618  TYR619  PRO620  LYS621  CYS622 
 ASP623  PHE694  ASN695  SER759  ASP760  ASP761  ALA762  ILE779  LEU786  VAL792 
 PHE793  MET794  SER795  GLU796  ALA797  LYS798  CYS799  TRP800  GLU811  SER814 

> <Gold.Protein.RotatedAtoms>
  151.2769  133.4228  159.2624 H   0  0  0  0  0  0  0  0  0  0  0  0  # atno 6907 bound_to 6896
  151.0395  134.9597  159.8164 H   0  0  0  0  0  0  0  0  0  0  0  0  # atno 6908 bound_to 6896
  152.5362  134.2727  159.9030 H   0  0  0  0  0  0  0  0  0  0  0  0  # atno 6909 bound_to 6896
  146.1400  140.5069  142.8656 H   0  0  0  0  0  0  0  0  0  0  0  0  # atno 7974 bound_to 7965
  154.4024  140.1553  156.2853 H   0  0  0  0  0  0  0  0  0  0  0  0  # atno 8008 bound_to 7997
  155.8834  140.3442  155.5882 H   0  0  0  0  0  0  0  0  0  0  0  0  # atno 8009 bound_to 7997
  155.7642  140.0821  157.2131 H   0  0  0  0  0  0  0  0  0  0  0  0  # atno 8010 bound_to 7997
  140.6683  143.2696  151.4220 H   0  0  0  0  0  0  0  0  0  0  0  0  # atno 10167 bound_to 10162
  157.6486  130.9563  150.0886 H   0  0  0  0  0  0  0  0  0  0  0  0  # atno 10718 bound_to 10713
  154.8476  135.4386  154.1645 H   0  0  0  0  0  0  0  0  0  0  0  0  # atno 10763 bound_to 10752
  153.2773  135.6950  153.7426 H   0  0  0  0  0  0  0  0  0  0  0  0  # atno 10764 bound_to 10752
  153.6643  135.3429  155.3111 H   0  0  0  0  0  0  0  0  0  0  0  0  # atno 10765 bound_to 10752
  141.1630  133.6898  156.7304 H   0  0  0  0  0  0  0  0  0  0  0  0  # atno 11005 bound_to 11000
  144.7782  140.5785  143.6623 LP  0  0  0  0  0  0  0  0  0  0  0  0  # atno 17320 bound_to 7965
  145.5067  139.1481  143.3627 LP  0  0  0  0  0  0  0  0  0  0  0  0  # atno 17321 bound_to 7965
  139.5941  144.1436  152.2123 LP  0  0  0  0  0  0  0  0  0  0  0  0  # atno 17342 bound_to 10162
  140.0799  144.5709  150.7130 LP  0  0  0  0  0  0  0  0  0  0  0  0  # atno 17343 bound_to 10162
  156.1841  130.3651  149.8996 LP  0  0  0  0  0  0  0  0  0  0  0  0  # atno 17370 bound_to 10713
  156.6940  130.8907  151.3591 LP  0  0  0  0  0  0  0  0  0  0  0  0  # atno 17371 bound_to 10713
  140.2749  134.8363  157.3881 LP  0  0  0  0  0  0  0  0  0  0  0  0  # atno 17394 bound_to 11000
  140.1487  134.4878  155.7977 LP  0  0  0  0  0  0  0  0  0  0  0  0  # atno 17395 bound_to 11000

$$$$
