AV-unprocessed.smi:1359|AV-procd|sdf|5550|dock6
  -GOLD-   22720 5143D 1   1.00000     0.00000
 Structure written by MMmdl.
 34 35  0  0  0  0  0  0  0  0  1 V2000
  149.1481  132.2701  154.3473 C   0  0  0  0  0  0  0  0  0  0  0  0
  149.0440  133.7630  154.0177 C   0  0  0  0  0  0  0  0  0  0  0  0
  149.8571  134.6367  154.9867 C   0  0  0  0  0  0  0  0  0  0  0  0
  150.2770  135.8847  154.3605 N   0  0  0  0  0  0  0  0  0  0  0  0
  151.1823  136.7361  154.8688 C   0  0  0  0  0  0  0  0  0  0  0  0
  151.7524  136.5559  155.9447 O   0  0  0  0  0  0  0  0  0  0  0  0
  151.4910  137.9853  154.0411 C   0  0  0  0  0  0  0  0  0  0  0  0
  151.0549  139.2245  154.7696 C   0  0  0  0  0  0  0  0  0  0  0  0
  150.1394  140.1554  154.3422 C   0  0  0  0  0  0  0  0  0  0  0  0
  149.9270  141.4424  155.4970 S   0  0  0  0  0  0  0  0  0  0  0  0
  151.1219  140.6608  156.5366 C   0  0  0  0  0  0  0  0  0  0  0  0
  151.5778  141.1311  157.8040 N   0  0  0  0  0  0  0  0  0  0  0  0
  151.2055  142.4476  158.3129 C   0  0  0  0  0  0  0  0  0  0  0  0
  151.8854  142.5189  159.6765 C   0  0  0  0  0  0  0  0  0  0  0  0
  152.5530  141.2408  159.7500 N   0  0  0  0  0  0  0  0  0  0  0  0
  152.3641  140.4699  158.6767 C   0  0  0  0  0  0  0  0  0  0  0  0
  152.8478  139.3474  158.5432 O   0  0  0  0  0  0  0  0  0  0  0  0
  151.6073  139.5271  156.0188 N   0  0  0  0  0  0  0  0  0  0  0  0
  148.5648  131.6757  153.6438 H   0  0  0  0  0  0  0  0  0  0  0  0
  148.7748  132.0606  155.3501 H   0  0  0  0  0  0  0  0  0  0  0  0
  150.1818  131.9274  154.2950 H   0  0  0  0  0  0  0  0  0  0  0  0
  149.3865  133.9247  152.9950 H   0  0  0  0  0  0  0  0  0  0  0  0
  147.9963  134.0649  154.0425 H   0  0  0  0  0  0  0  0  0  0  0  0
  149.2525  134.8835  155.8600 H   0  0  0  0  0  0  0  0  0  0  0  0
  150.7277  134.0921  155.3560 H   0  0  0  0  0  0  0  0  0  0  0  0
  149.8592  136.1128  153.4697 H   0  0  0  0  0  0  0  0  0  0  0  0
  152.5600  138.0113  153.8245 H   0  0  0  0  0  0  0  0  0  0  0  0
  150.9844  137.9147  153.0776 H   0  0  0  0  0  0  0  0  0  0  0  0
  149.5753  140.1584  153.4212 H   0  0  0  0  0  0  0  0  0  0  0  0
  151.5643  143.2343  157.6476 H   0  0  0  0  0  0  0  0  0  0  0  0
  150.1218  142.5343  158.4031 H   0  0  0  0  0  0  0  0  0  0  0  0
  152.6077  143.3340  159.7334 H   0  0  0  0  0  0  0  0  0  0  0  0
  151.1657  142.6230  160.4891 H   0  0  0  0  0  0  0  0  0  0  0  0
  153.1107  140.9670  160.5463 H   0  0  0  0  0  0  0  0  0  0  0  0
  1  2  1  0  0  0  0
  1 19  1  0  0  0  0
  1 20  1  0  0  0  0
  1 21  1  0  0  0  0
  2  3  1  0  0  0  0
  2 22  1  0  0  0  0
  2 23  1  0  0  0  0
  3  4  1  0  0  0  0
  3 24  1  0  0  0  0
  3 25  1  0  0  0  0
  4  5  1  0  0  0  0
  4 26  1  0  0  0  0
  5  6  2  0  0  0  0
  5  7  1  0  0  0  0
  7  8  1  0  0  0  0
  7 27  1  0  0  0  0
  7 28  1  0  0  0  0
  8 18  1  0  0  0  0
  8  9  2  0  0  0  0
  9 10  1  0  0  0  0
  9 29  1  0  0  0  0
 10 11  1  0  0  0  0
 11 12  1  0  0  0  0
 11 18  2  0  0  0  0
 12 16  1  0  0  0  0
 12 13  1  0  0  0  0
 13 14  1  0  0  0  0
 13 30  1  0  0  0  0
 13 31  1  0  0  0  0
 14 15  1  0  0  0  0
 14 32  1  0  0  0  0
 14 33  1  0  0  0  0
 15 16  1  0  0  0  0
 15 34  1  0  0  0  0
 16 17  2  0  0  0  0
M  END
> <s_m_source_file>
AV-unprocessed.smi

> <i_m_source_file_index>
1359

> <i_lp_mmshare_version>
43012

> <i_f3d_flags>
0

> <s_epik_input>
W0NIM11bQ0gyXVtDSDJdW05IXUMoPU8pW0NIMl1jMVtjSF1zYyhuMSlOMltDSDJdW0NIMl1bTkhdQzI9Tw==

> <s_epik_cmdline>
J2VwaWtfcHl0aG9uJywgJy1waCcsICc3LjAnLCAnLXRuJywgJzgnLCAnLW1hJywgJzIwMCcsICctbWV0YWxfYmluZGluZycsICctaW1hZScsICc8aW5maWxlLm1hZT4nLCAnLW9tYWUnLCAnPG91dGZpbGUubWFlPic=

> <r_lp_tautomer_probability>
1

> <r_epik_Ionization_Penalty>
0.000119828

> <r_epik_Ionization_Penalty_Charging>
0

> <r_epik_Ionization_Penalty_Neutral>
0.000119828

> <r_epik_State_Penalty>
-0

> <r_epik_Charging_Adjusted_Penalty>
0

> <i_epik_Tot_Q>
0

> <i_epik_Tot_abs_Q>
0

> <r_epik_Metal_State_Penalty>
-0

> <b_epik_Metal_Only>
0

> <s_lp_Force_Field>
OPLS_2005

> <r_lp_Energy>
29.9012

> <b_lp_Chiralities_Consistent>
1

> <s_lp_Variant>
AV-unprocessed.smi:1359-1

> <Gold.Version>
5.8.1

> <Gold.Id.Protein>
6NUR|6NUR_protein|mol2

> <Gold.PLP.Fitness>
45.3513

> <Gold.PLP.PLP>
-33.9032

> <Gold.PLP.part.hbond>
-3.9633

> <Gold.PLP.part.metal>
0.0000

> <Gold.PLP.part.buried>
-1.2465

> <Gold.PLP.part.nonpolar>
-28.8123

> <Gold.PLP.part.repulsive>
0.2039

> <Gold.PLP.ligand.clash>
0.0000

> <Gold.PLP.ligand.torsion>
0.2807

> <Gold.PLP.Chemscore.Hbond>
3.0000

> <Gold.PLP.Chemscore.CHOScore>
1.0000

> <Gold.PLP.Chemscore.Metal>
0.0000

> <Gold.Chemscore.Hbonds>
donor molecule, donor type, donor heavy atom, donor atom, acceptor molecule, acceptor atom, score
      L1  H     4    26       P1  7948  0.75
      P1  H 10752 10765       L1     6  0.60
      L1  C     9    29       P1  7957  1.00

> <Gold.PLP.Chemscore.Internal.Correction>
0.0095

> <Gold.Rescore>
     Score         DG    S(hbond)    S(metal)    S(lipo)     H(rot)  DE(clash)    DE(int)     intcor
     14.37     -16.28       2.58        0.00      58.09       1.81       0.02       1.90       ----

> <Gold.Chemscore.Fitness>
14.3672

> <Gold.Chemscore.DG>
-16.2823

> <Gold.Chemscore.ZeroCoef>
-5.4800

> <Gold.Chemscore.Hbond>
2.5833

> <Gold.Chemscore.Metal>
0.0000

> <Gold.Chemscore.Lipo>
58.0919

> <Gold.Chemscore.Internal_Hbond>
0.0000

> <Gold.Chemscore.DEClash>
0.0170

> <Gold.Chemscore.DEInternal>
1.8982

> <Gold.Chemscore.Rot>
1.8057

> <Gold.Chemscore.Internal.Correction>
   9.000000E+99

> <Gold.Chemscore.Hbonds>
donor molecule, donor type, donor heavy atom, donor atom, acceptor molecule, acceptor atom, score
      L1  H     4    26       P1  7948  0.09
      P1  H  7997  8008       L1    17  0.01
      P1  H 10752 10765       L1     6  0.04

> <Gold.Chemscore.Hbond.Weighted>
-8.6282

> <Gold.Chemscore.Metal.Weighted>
-0.0000

> <Gold.Chemscore.Lipo.Weighted>
-6.7968

> <Gold.Chemscore.Internal_Hbond.Weighted>
0.0000

> <Gold.Chemscore.DEClash.Weighted>
0.0170

> <Gold.Chemscore.DEInternal.Weighted>
1.8982

> <Gold.Chemscore.Rot.Weighted>
4.6226

> <Gold.Chemscore.Internal.Correction.Weighted>
   9.000000E+99

> <Gold.Protein.RotatedTorsions>
[ 6907 6896 6895 6894 ] final -134.82 input  -60.11 | X-H torsion
[ 7974 7965 7964 7962 ] final   87.11 input  175.53 | X-H torsion
[ 8008 7997 7996 7995 ] final -100.52 input   59.86 | X-H torsion
[ 10167 10162 10161 10158 ] final   29.02 input  -65.29 | X-H torsion
[ 10718 10713 10712 10709 ] final  -47.41 input   66.30 | X-H torsion
[ 10763 10752 10751 10750 ] final -146.97 input  -60.55 | X-H torsion
[ 11005 11000 10999 10996 ] final  -72.63 input  -57.11 | X-H torsion

> <Gold.Protein.ActiveResidues>
 VAL166  LYS551  ARG553  GLY616  TRP617  ASP618  TYR619  PRO620  LYS621  CYS622 
 ASP623  PHE694  ASN695  SER759  ASP760  ASP761  ALA762  ILE779  LEU786  VAL792 
 PHE793  MET794  SER795  GLU796  ALA797  LYS798  CYS799  TRP800  GLU811  SER814 

> <Gold.Protein.RotatedAtoms>
  150.9904  133.6155  159.2708 H   0  0  0  0  0  0  0  0  0  0  0  0  # atno 6907 bound_to 6896
  151.3378  135.0855  159.9370 H   0  0  0  0  0  0  0  0  0  0  0  0  # atno 6908 bound_to 6896
  152.5244  133.9521  159.7731 H   0  0  0  0  0  0  0  0  0  0  0  0  # atno 6909 bound_to 6896
  145.5633  139.2306  143.2447 H   0  0  0  0  0  0  0  0  0  0  0  0  # atno 7974 bound_to 7965
  154.8297  140.0440  157.1468 H   0  0  0  0  0  0  0  0  0  0  0  0  # atno 8008 bound_to 7997
  154.9166  140.3021  155.5218 H   0  0  0  0  0  0  0  0  0  0  0  0  # atno 8009 bound_to 7997
  156.2986  140.2348  156.4212 H   0  0  0  0  0  0  0  0  0  0  0  0  # atno 8010 bound_to 7997
  140.4802  144.0627  150.6263 H   0  0  0  0  0  0  0  0  0  0  0  0  # atno 10167 bound_to 10162
  156.2087  130.4159  149.9143 H   0  0  0  0  0  0  0  0  0  0  0  0  # atno 10718 bound_to 10713
  154.8309  135.3372  154.6745 H   0  0  0  0  0  0  0  0  0  0  0  0  # atno 10763 bound_to 10752
  153.7365  135.6948  153.4981 H   0  0  0  0  0  0  0  0  0  0  0  0  # atno 10764 bound_to 10752
  153.2274  135.4428  155.0509 H   0  0  0  0  0  0  0  0  0  0  0  0  # atno 10765 bound_to 10752
  141.1611  133.6853  156.7089 H   0  0  0  0  0  0  0  0  0  0  0  0  # atno 11005 bound_to 11000
  146.1835  140.6459  142.9178 LP  0  0  0  0  0  0  0  0  0  0  0  0  # atno 17320 bound_to 7965
  144.7472  140.5099  143.6827 LP  0  0  0  0  0  0  0  0  0  0  0  0  # atno 17321 bound_to 7965
  140.3867  143.2774  152.0108 LP  0  0  0  0  0  0  0  0  0  0  0  0  # atno 17342 bound_to 10162
  139.4832  144.6111  151.7432 LP  0  0  0  0  0  0  0  0  0  0  0  0  # atno 17343 bound_to 10162
  156.6828  130.8865  151.3578 LP  0  0  0  0  0  0  0  0  0  0  0  0  # atno 17370 bound_to 10713
  157.7027  130.9350  150.0834 LP  0  0  0  0  0  0  0  0  0  0  0  0  # atno 17371 bound_to 10713
  140.2902  134.8246  157.4010 LP  0  0  0  0  0  0  0  0  0  0  0  0  # atno 17394 bound_to 11000
  140.1353  134.5042  155.8073 LP  0  0  0  0  0  0  0  0  0  0  0  0  # atno 17395 bound_to 11000

$$$$
