AV-unprocessed.smi:669|AV-procd|sdf|3263|dock8
  -GOLD-   22720 0213D 1   1.00000     0.00000
 Structure written by MMmdl.
 37 38  0  0  0  0  0  0  0  0  1 V2000
  147.9244  140.4937  154.0268 C   0  0  0  0  0  0  0  0  0  0  0  0
  149.2680  140.2099  154.6296 C   0  0  0  0  0  0  0  0  0  0  0  0
  149.9305  138.9258  154.5125 C   0  0  0  0  0  0  0  0  0  0  0  0
  151.1519  138.7603  155.0630 C   0  0  0  0  0  0  0  0  0  0  0  0
  151.8239  139.8399  155.7833 C   0  0  0  0  0  0  0  0  0  0  0  0
  152.9541  139.7278  156.2564 O   0  0  0  0  0  0  0  0  0  0  0  0
  151.0840  140.9850  155.8740 N   0  0  0  0  0  0  0  0  0  0  0  0
  151.5901  142.1693  156.5879 C   0  0  0  0  0  0  0  0  0  0  0  0
  150.9472  142.4158  157.9873 C   0  0  1  0  0  0  0  0  0  0  0  0
  149.5588  142.5974  157.7857 O   0  0  0  0  0  0  0  0  0  0  0  0
  151.0580  141.1583  158.8829 C   0  0  0  0  0  0  0  0  0  0  0  0
  152.4742  140.9429  159.4479 C   0  0  0  0  0  0  0  0  0  0  0  0
  152.9800  142.1858  160.2029 C   0  0  1  0  0  0  0  0  0  0  0  0
  154.3971  141.9709  160.7523 C   0  0  0  0  0  0  0  0  0  0  0  0
  152.9069  143.4293  159.2981 C   0  0  0  0  0  0  0  0  0  0  0  0
  151.4824  143.6483  158.7582 C   0  0  0  0  0  0  0  0  0  0  0  0
  149.8454  141.1662  155.2790 N   0  0  0  0  0  0  0  0  0  0  0  0
  147.5792  139.6561  153.4203 H   0  0  0  0  0  0  0  0  0  0  0  0
  147.9635  141.3752  153.3861 H   0  0  0  0  0  0  0  0  0  0  0  0
  147.1816  140.6733  154.8044 H   0  0  0  0  0  0  0  0  0  0  0  0
  149.4475  138.1171  153.9841 H   0  0  0  0  0  0  0  0  0  0  0  0
  151.6466  137.8045  154.9719 H   0  0  0  0  0  0  0  0  0  0  0  0
  152.6776  142.1273  156.6737 H   0  0  0  0  0  0  0  0  0  0  0  0
  151.4085  143.0360  155.9515 H   0  0  0  0  0  0  0  0  0  0  0  0
  149.4320  143.3380  157.2129 H   0  0  0  0  0  0  0  0  0  0  0  0
  150.3711  141.2487  159.7261 H   0  0  0  0  0  0  0  0  0  0  0  0
  150.7411  140.2715  158.3322 H   0  0  0  0  0  0  0  0  0  0  0  0
  152.4660  140.0830  160.1188 H   0  0  0  0  0  0  0  0  0  0  0  0
  153.1660  140.6895  158.6448 H   0  0  0  0  0  0  0  0  0  0  0  0
  152.3202  142.3522  161.0557 H   0  0  0  0  0  0  0  0  0  0  0  0
  155.1122  141.7951  159.9481 H   0  0  0  0  0  0  0  0  0  0  0  0
  154.4311  141.1115  161.4226 H   0  0  0  0  0  0  0  0  0  0  0  0
  154.7359  142.8405  161.3161 H   0  0  0  0  0  0  0  0  0  0  0  0
  153.2217  144.3123  159.8554 H   0  0  0  0  0  0  0  0  0  0  0  0
  153.6094  143.3245  158.4717 H   0  0  0  0  0  0  0  0  0  0  0  0
  151.4453  144.5478  158.1434 H   0  0  0  0  0  0  0  0  0  0  0  0
  150.8283  143.8527  159.6073 H   0  0  0  0  0  0  0  0  0  0  0  0
  1  2  1  0  0  0  0
  1 18  1  0  0  0  0
  1 19  1  0  0  0  0
  1 20  1  0  0  0  0
  2 17  2  0  0  0  0
  2  3  1  0  0  0  0
  3  4  2  0  0  0  0
  3 21  1  0  0  0  0
  4  5  1  0  0  0  0
  4 22  1  0  0  0  0
  5  6  2  0  0  0  0
  5  7  1  0  0  0  0
  7  8  1  0  0  0  0
  7 17  1  0  0  0  0
  8  9  1  0  0  0  0
  8 23  1  0  0  0  0
  8 24  1  0  0  0  0
  9 16  1  0  0  0  0
  9 10  1  0  0  0  0
  9 11  1  0  0  0  0
 10 25  1  0  0  0  0
 11 12  1  0  0  0  0
 11 26  1  0  0  0  0
 11 27  1  0  0  0  0
 12 13  1  0  0  0  0
 12 28  1  0  0  0  0
 12 29  1  0  0  0  0
 13 14  1  0  0  0  0
 13 15  1  0  0  0  0
 13 30  1  0  0  0  0
 14 31  1  0  0  0  0
 14 32  1  0  0  0  0
 14 33  1  0  0  0  0
 15 16  1  0  0  0  0
 15 34  1  0  0  0  0
 15 35  1  0  0  0  0
 16 36  1  0  0  0  0
 16 37  1  0  0  0  0
M  END
> <s_m_source_file>
AV-unprocessed.smi

> <i_m_source_file_index>
669

> <i_lp_mmshare_version>
43012

> <i_f3d_flags>
0

> <s_epik_input>
W0NIM11jMVtjSF1bY0hdYyg9TyluKG4xKVtDSDJdW0NAQF0yKFtPSF0pW0NIMl1bQ0gyXVtDQEBIXShbQ0gzXSlbQ0gyXVtDSDJdMg==

> <s_epik_cmdline>
J2VwaWtfcHl0aG9uJywgJy1waCcsICc3LjAnLCAnLXRuJywgJzgnLCAnLW1hJywgJzIwMCcsICctbWV0YWxfYmluZGluZycsICctaW1hZScsICc8aW5maWxlLm1hZT4nLCAnLW9tYWUnLCAnPG91dGZpbGUubWFlPic=

> <r_lp_tautomer_probability>
1

> <r_epik_Ionization_Penalty>
1.6993e-05

> <r_epik_Ionization_Penalty_Charging>
1.61671e-05

> <r_epik_Ionization_Penalty_Neutral>
8.25878e-07

> <r_epik_State_Penalty>
-0

> <r_epik_Charging_Adjusted_Penalty>
1.61671e-05

> <i_epik_Tot_Q>
0

> <i_epik_Tot_abs_Q>
0

> <r_epik_Metal_State_Penalty>
-0

> <b_epik_Metal_Only>
0

> <s_lp_Force_Field>
OPLS_2005

> <r_lp_Energy>
31.4403

> <b_lp_Chiralities_Consistent>
1

> <s_lp_Variant>
AV-unprocessed.smi:669-1

> <Gold.Version>
5.8.1

> <Gold.Id.Protein>
6NUR|6NUR_protein|mol2

> <Gold.PLP.Fitness>
43.9421

> <Gold.PLP.PLP>
-38.3840

> <Gold.PLP.part.hbond>
-2.4887

> <Gold.PLP.part.metal>
0.0000

> <Gold.PLP.part.buried>
-3.1073

> <Gold.PLP.part.nonpolar>
-32.3038

> <Gold.PLP.part.repulsive>
0.1307

> <Gold.PLP.ligand.clash>
0.0000

> <Gold.PLP.ligand.torsion>
0.2281

> <Gold.PLP.Chemscore.Hbond>
2.0000

> <Gold.PLP.Chemscore.CHOScore>
0.0000

> <Gold.PLP.Chemscore.Metal>
0.0000

> <Gold.Chemscore.Hbonds>
donor molecule, donor type, donor heavy atom, donor atom, acceptor molecule, acceptor atom, score
      L1  H    10    25       P1  8028  0.73
      P1  H  7997  8009       L1     6  0.80

> <Gold.PLP.Chemscore.Internal.Correction>
0.0143

> <Gold.Rescore>
     Score         DG    S(hbond)    S(metal)    S(lipo)     H(rot)  DE(clash)    DE(int)     intcor
     16.90     -19.80       1.97        0.00     101.54       1.62       1.46       1.44       ----

> <Gold.Chemscore.Fitness>
16.9020

> <Gold.Chemscore.DG>
-19.8007

> <Gold.Chemscore.ZeroCoef>
-5.4800

> <Gold.Chemscore.Hbond>
1.9698

> <Gold.Chemscore.Metal>
0.0000

> <Gold.Chemscore.Lipo>
101.5446

> <Gold.Chemscore.Internal_Hbond>
0.0000

> <Gold.Chemscore.DEClash>
1.4592

> <Gold.Chemscore.DEInternal>
1.4395

> <Gold.Chemscore.Rot>
1.6168

> <Gold.Chemscore.Internal.Correction>
   9.000000E+99

> <Gold.Chemscore.Hbonds>
donor molecule, donor type, donor heavy atom, donor atom, acceptor molecule, acceptor atom, score
      L1  H    10    25       P1  8028  0.64
      P1  H  7997  8009       L1     6  0.79

> <Gold.Chemscore.Hbond.Weighted>
-6.5791

> <Gold.Chemscore.Metal.Weighted>
-0.0000

> <Gold.Chemscore.Lipo.Weighted>
-11.8807

> <Gold.Chemscore.Internal_Hbond.Weighted>
0.0000

> <Gold.Chemscore.DEClash.Weighted>
1.4592

> <Gold.Chemscore.DEInternal.Weighted>
1.4395

> <Gold.Chemscore.Rot.Weighted>
4.1391

> <Gold.Chemscore.Internal.Correction.Weighted>
   9.000000E+99

> <Gold.Protein.RotatedTorsions>
[ 6907 6896 6895 6894 ] final -107.33 input  -60.11 | X-H torsion
[ 7974 7965 7964 7962 ] final   94.83 input  175.53 | X-H torsion
[ 8008 7997 7996 7995 ] final -155.70 input   59.86 | X-H torsion
[ 10167 10162 10161 10158 ] final  -15.75 input  -65.29 | X-H torsion
[ 10718 10713 10712 10709 ] final   50.30 input   66.30 | X-H torsion
[ 10763 10752 10751 10750 ] final   73.64 input  -60.55 | X-H torsion
[ 11005 11000 10999 10996 ] final    1.00 input  -57.11 | X-H torsion

> <Gold.Protein.ActiveResidues>
 VAL166  LYS551  ARG553  GLY616  TRP617  ASP618  TYR619  PRO620  LYS621  CYS622 
 ASP623  PHE694  ASN695  SER759  ASP760  ASP761  ALA762  ILE779  LEU786  VAL792 
 PHE793  MET794  SER795  GLU796  ALA797  LYS798  CYS799  TRP800  GLU811  SER814 

> <Gold.Protein.RotatedAtoms>
  150.7438  133.9843  159.3585 H   0  0  0  0  0  0  0  0  0  0  0  0  # atno 6907 bound_to 6896
  151.7786  135.0765  160.0380 H   0  0  0  0  0  0  0  0  0  0  0  0  # atno 6908 bound_to 6896
  152.3290  133.5900  159.5832 H   0  0  0  0  0  0  0  0  0  0  0  0  # atno 6909 bound_to 6896
  145.4603  139.2287  143.2991 H   0  0  0  0  0  0  0  0  0  0  0  0  # atno 7974 bound_to 7965
  155.7059  140.0772  157.2391 H   0  0  0  0  0  0  0  0  0  0  0  0  # atno 8008 bound_to 7997
  154.4066  140.1639  156.2296 H   0  0  0  0  0  0  0  0  0  0  0  0  # atno 8009 bound_to 7997
  155.9326  140.3390  155.6264 H   0  0  0  0  0  0  0  0  0  0  0  0  # atno 8010 bound_to 7997
  140.7223  143.5186  150.9661 H   0  0  0  0  0  0  0  0  0  0  0  0  # atno 10167 bound_to 10162
  157.4871  130.8352  149.8159 H   0  0  0  0  0  0  0  0  0  0  0  0  # atno 10718 bound_to 10713
  153.0534  135.5055  154.7924 H   0  0  0  0  0  0  0  0  0  0  0  0  # atno 10763 bound_to 10752
  154.6768  135.2962  154.9670 H   0  0  0  0  0  0  0  0  0  0  0  0  # atno 10764 bound_to 10752
  154.0470  135.6709  153.4849 H   0  0  0  0  0  0  0  0  0  0  0  0  # atno 10765 bound_to 10752
  140.6203  133.9667  155.8221 H   0  0  0  0  0  0  0  0  0  0  0  0  # atno 11005 bound_to 11000
  146.2455  140.5371  142.8916 LP  0  0  0  0  0  0  0  0  0  0  0  0  # atno 17320 bound_to 7965
  144.8007  140.6208  143.6480 LP  0  0  0  0  0  0  0  0  0  0  0  0  # atno 17321 bound_to 7965
  139.8902  143.6962  152.3146 LP  0  0  0  0  0  0  0  0  0  0  0  0  # atno 17342 bound_to 10162
  139.7276  144.7589  151.0854 LP  0  0  0  0  0  0  0  0  0  0  0  0  # atno 17343 bound_to 10162
  156.0153  130.3816  150.2132 LP  0  0  0  0  0  0  0  0  0  0  0  0  # atno 17370 bound_to 10713
  157.0319  131.0010  151.3309 LP  0  0  0  0  0  0  0  0  0  0  0  0  # atno 17371 bound_to 10713
  141.0747  134.0153  157.3475 LP  0  0  0  0  0  0  0  0  0  0  0  0  # atno 17394 bound_to 11000
  139.9156  135.0196  156.7867 LP  0  0  0  0  0  0  0  0  0  0  0  0  # atno 17395 bound_to 11000

$$$$
