AV-unprocessed.smi:2988|AV-procd|sdf|11389|dock4
  -GOLD-   2272016313D 1   1.00000     0.00000
 Structure written by MMmdl.
 37 38  0  0  0  0  0  0  0  0  1 V2000
  149.7764  139.2601  154.7066 C   0  0  0  0  0  0  0  0  0  0  0  0
  149.6643  140.4898  155.6246 C   0  0  2  0  0  0  0  0  0  0  0  0
  151.0548  141.0406  156.0030 C   0  0  0  0  0  0  0  0  0  0  0  0
  150.9451  142.3137  156.8571 C   0  0  0  0  0  0  0  0  0  0  0  0
  150.0909  142.0755  158.1113 C   0  0  0  0  0  0  0  0  0  0  0  0
  148.7026  141.5218  157.7441 C   0  0  0  0  0  0  0  0  0  0  0  0
  148.7930  140.2441  156.8853 C   0  0  2  0  0  0  0  0  0  0  0  0
  149.3031  139.1404  157.7007 N   0  0  0  0  0  0  0  0  0  0  0  0
  148.5830  138.1269  158.2053 C   0  0  0  0  0  0  0  0  0  0  0  0
  147.3654  138.0166  158.0580 O   0  0  0  0  0  0  0  0  0  0  0  0
  149.3637  137.0791  159.0088 C   0  0  0  0  0  0  0  0  0  0  0  0
  148.4852  136.2437  159.8395 N   0  0  0  0  0  0  0  0  0  0  0  0
  147.7912  136.9420  160.8120 N   0  0  0  0  0  0  0  0  0  0  0  0
  146.9748  136.3114  161.5841 C   0  0  0  0  0  0  0  0  0  0  0  0
  146.7574  134.8856  161.4760 C   0  0  0  0  0  0  0  0  0  0  0  0
  145.6476  134.0943  162.5387 Cl  0  0  0  0  0  0  0  0  0  0  0  0
  147.4501  134.2091  160.5256 C   0  0  0  0  0  0  0  0  0  0  0  0
  147.2460  132.5012  160.3368 Cl  0  0  0  0  0  0  0  0  0  0  0  0
  148.3905  134.8944  159.6284 C   0  0  0  0  0  0  0  0  0  0  0  0
  149.0415  134.3155  158.7574 O   0  0  0  0  0  0  0  0  0  0  0  0
  150.3450  138.4559  155.1740 H   0  0  0  0  0  0  0  0  0  0  0  0
  150.2795  139.5151  153.7737 H   0  0  0  0  0  0  0  0  0  0  0  0
  148.7910  138.8688  154.4521 H   0  0  0  0  0  0  0  0  0  0  0  0
  149.1620  141.2632  155.0414 H   0  0  0  0  0  0  0  0  0  0  0  0
  151.6211  140.2826  156.5459 H   0  0  0  0  0  0  0  0  0  0  0  0
  151.6261  141.2597  155.1003 H   0  0  0  0  0  0  0  0  0  0  0  0
  151.9399  142.6549  157.1449 H   0  0  0  0  0  0  0  0  0  0  0  0
  150.5039  143.1149  156.2626 H   0  0  0  0  0  0  0  0  0  0  0  0
  150.6039  141.3793  158.7758 H   0  0  0  0  0  0  0  0  0  0  0  0
  149.9831  143.0065  158.6684 H   0  0  0  0  0  0  0  0  0  0  0  0
  148.1266  141.3280  158.6498 H   0  0  0  0  0  0  0  0  0  0  0  0
  148.1506  142.2845  157.1934 H   0  0  0  0  0  0  0  0  0  0  0  0
  147.7796  140.0035  156.5592 H   0  0  0  0  0  0  0  0  0  0  0  0
  150.2969  139.1399  157.8790 H   0  0  0  0  0  0  0  0  0  0  0  0
  149.9531  136.4493  158.3393 H   0  0  0  0  0  0  0  0  0  0  0  0
  150.0909  137.6042  159.6307 H   0  0  0  0  0  0  0  0  0  0  0  0
  146.4037  136.8197  162.3612 H   0  0  0  0  0  0  0  0  0  0  0  0
  1  2  1  0  0  0  0
  1 21  1  0  0  0  0
  1 22  1  0  0  0  0
  1 23  1  0  0  0  0
  2  7  1  0  0  0  0
  2  3  1  0  0  0  0
  2 24  1  0  0  0  0
  3  4  1  0  0  0  0
  3 25  1  0  0  0  0
  3 26  1  0  0  0  0
  4  5  1  0  0  0  0
  4 27  1  0  0  0  0
  4 28  1  0  0  0  0
  5  6  1  0  0  0  0
  5 29  1  0  0  0  0
  5 30  1  0  0  0  0
  6  7  1  0  0  0  0
  6 31  1  0  0  0  0
  6 32  1  0  0  0  0
  7  8  1  0  0  0  0
  7 33  1  0  0  0  0
  8  9  1  0  0  0  0
  8 34  1  0  0  0  0
  9 10  2  0  0  0  0
  9 11  1  0  0  0  0
 11 12  1  0  0  0  0
 11 35  1  0  0  0  0
 11 36  1  0  0  0  0
 12 19  1  0  0  0  0
 12 13  1  0  0  0  0
 13 14  2  0  0  0  0
 14 15  1  0  0  0  0
 14 37  1  0  0  0  0
 15 16  1  0  0  0  0
 15 17  2  0  0  0  0
 17 18  1  0  0  0  0
 17 19  1  0  0  0  0
 19 20  2  0  0  0  0
M  END
> <s_m_source_file>
AV-unprocessed.smi

> <i_m_source_file_index>
2988

> <i_lp_mmshare_version>
43012

> <i_f3d_flags>
0

> <s_epik_input>
W0NIM11bQ0BASF0xW0NIMl1bQ0gyXVtDSDJdW0NIMl1bQ0BIXTFbTkhdQyg9TylbQ0gyXW4ybltjSF1jKENsKWMoQ2wpYzI9Tw==

> <s_epik_cmdline>
J2VwaWtfcHl0aG9uJywgJy1waCcsICc3LjAnLCAnLXRuJywgJzgnLCAnLW1hJywgJzIwMCcsICctbWV0YWxfYmluZGluZycsICctaW1hZScsICc8aW5maWxlLm1hZT4nLCAnLW9tYWUnLCAnPG91dGZpbGUubWFlPic=

> <r_lp_tautomer_probability>
1

> <r_epik_Ionization_Penalty>
1.90782e-08

> <r_epik_Ionization_Penalty_Charging>
3.13143e-11

> <r_epik_Ionization_Penalty_Neutral>
1.90469e-08

> <r_epik_State_Penalty>
-0

> <r_epik_Charging_Adjusted_Penalty>
3.13143e-11

> <i_epik_Tot_Q>
0

> <i_epik_Tot_abs_Q>
0

> <r_epik_Metal_State_Penalty>
-0

> <b_epik_Metal_Only>
0

> <s_lp_Force_Field>
OPLS_2005

> <r_lp_Energy>
23.4163

> <b_lp_Chiralities_Consistent>
1

> <s_lp_Variant>
AV-unprocessed.smi:2988-3

> <Gold.Version>
5.8.1

> <Gold.Id.Protein>
6NUR|6NUR_protein|mol2

> <Gold.PLP.Fitness>
40.0243

> <Gold.PLP.PLP>
-32.5730

> <Gold.PLP.part.hbond>
-3.0000

> <Gold.PLP.part.metal>
0.0000

> <Gold.PLP.part.buried>
-3.9836

> <Gold.PLP.part.nonpolar>
-25.6198

> <Gold.PLP.part.repulsive>
0.1174

> <Gold.PLP.ligand.clash>
0.0000

> <Gold.PLP.ligand.torsion>
0.3937

> <Gold.PLP.Chemscore.Hbond>
2.7440

> <Gold.PLP.Chemscore.CHOScore>
0.0000

> <Gold.PLP.Chemscore.Metal>
0.0000

> <Gold.Chemscore.Hbonds>
donor molecule, donor type, donor heavy atom, donor atom, acceptor molecule, acceptor atom, score
      P1  H  6896  6909       L1    20  1.00
      P1  H  6931  6943       L1    13  0.78
      P1  H  6934  6947       L1    13  0.58

> <Gold.PLP.Chemscore.Internal.Correction>
0.0067

> <Gold.Rescore>
     Score         DG    S(hbond)    S(metal)    S(lipo)     H(rot)  DE(clash)    DE(int)     intcor
     15.28     -16.94       1.99        0.00      74.01       1.50       0.05       1.62       ----

> <Gold.Chemscore.Fitness>
15.2754

> <Gold.Chemscore.DG>
-16.9426

> <Gold.Chemscore.ZeroCoef>
-5.4800

> <Gold.Chemscore.Hbond>
1.9875

> <Gold.Chemscore.Metal>
0.0000

> <Gold.Chemscore.Lipo>
74.0053

> <Gold.Chemscore.Internal_Hbond>
0.0000

> <Gold.Chemscore.DEClash>
0.0476

> <Gold.Chemscore.DEInternal>
1.6196

> <Gold.Chemscore.Rot>
1.4977

> <Gold.Chemscore.Internal.Correction>
   9.000000E+99

> <Gold.Chemscore.Hbonds>
donor molecule, donor type, donor heavy atom, donor atom, acceptor molecule, acceptor atom, score
      P1  H  6896  6909       L1    20  0.70
      P1  H  6931  6943       L1    13  0.50
      P1  H  6934  6947       L1    13  0.28

> <Gold.Chemscore.Hbond.Weighted>
-6.6381

> <Gold.Chemscore.Metal.Weighted>
-0.0000

> <Gold.Chemscore.Lipo.Weighted>
-8.6586

> <Gold.Chemscore.Internal_Hbond.Weighted>
0.0000

> <Gold.Chemscore.DEClash.Weighted>
0.0476

> <Gold.Chemscore.DEInternal.Weighted>
1.6196

> <Gold.Chemscore.Rot.Weighted>
3.8341

> <Gold.Chemscore.Internal.Correction.Weighted>
   9.000000E+99

> <Gold.Protein.RotatedTorsions>
[ 6907 6896 6895 6894 ] final   15.41 input  -60.11 | X-H torsion
[ 7974 7965 7964 7962 ] final  136.12 input  175.53 | X-H torsion
[ 8008 7997 7996 7995 ] final  -44.64 input   59.86 | X-H torsion
[ 10167 10162 10161 10158 ] final -122.70 input  -65.29 | X-H torsion
[ 10718 10713 10712 10709 ] final  -69.57 input   66.30 | X-H torsion
[ 10763 10752 10751 10750 ] final  -67.06 input  -60.55 | X-H torsion
[ 11005 11000 10999 10996 ] final  -90.79 input  -57.11 | X-H torsion

> <Gold.Protein.ActiveResidues>
 VAL166  LYS551  ARG553  GLY616  TRP617  ASP618  TYR619  PRO620  LYS621  CYS622 
 ASP623  PHE694  ASN695  SER759  ASP760  ASP761  ALA762  ILE779  LEU786  VAL792 
 PHE793  MET794  SER795  GLU796  ALA797  LYS798  CYS799  TRP800  GLU811  SER814 

> <Gold.Protein.RotatedAtoms>
  151.8176  135.0661  160.0420 H   0  0  0  0  0  0  0  0  0  0  0  0  # atno 6907 bound_to 6896
  152.2974  133.5617  159.5605 H   0  0  0  0  0  0  0  0  0  0  0  0  # atno 6908 bound_to 6896
  150.7258  134.0256  159.3758 H   0  0  0  0  0  0  0  0  0  0  0  0  # atno 6909 bound_to 6896
  144.9596  139.4725  143.5486 H   0  0  0  0  0  0  0  0  0  0  0  0  # atno 7974 bound_to 7965
  154.3998  140.1417  156.3716 H   0  0  0  0  0  0  0  0  0  0  0  0  # atno 8008 bound_to 7997
  155.8087  140.3473  155.5424 H   0  0  0  0  0  0  0  0  0  0  0  0  # atno 8009 bound_to 7997
  155.8409  140.0926  157.1725 H   0  0  0  0  0  0  0  0  0  0  0  0  # atno 8010 bound_to 7997
  140.0115  143.5437  152.2261 H   0  0  0  0  0  0  0  0  0  0  0  0  # atno 10167 bound_to 10162
  156.0449  130.4315  150.2167 H   0  0  0  0  0  0  0  0  0  0  0  0  # atno 10718 bound_to 10713
  154.3690  135.6099  153.5730 H   0  0  0  0  0  0  0  0  0  0  0  0  # atno 10763 bound_to 10752
  152.9791  135.5833  154.4544 H   0  0  0  0  0  0  0  0  0  0  0  0  # atno 10764 bound_to 10752
  154.4295  135.2847  155.1899 H   0  0  0  0  0  0  0  0  0  0  0  0  # atno 10765 bound_to 10752
  141.1558  133.7714  156.9788 H   0  0  0  0  0  0  0  0  0  0  0  0  # atno 11005 bound_to 11000
  146.3349  139.8737  142.8836 LP  0  0  0  0  0  0  0  0  0  0  0  0  # atno 17320 bound_to 7965
  145.2720  141.0111  143.3766 LP  0  0  0  0  0  0  0  0  0  0  0  0  # atno 17321 bound_to 7965
  139.6202  144.7627  151.2757 LP  0  0  0  0  0  0  0  0  0  0  0  0  # atno 17342 bound_to 10162
  140.7379  143.6663  150.8121 LP  0  0  0  0  0  0  0  0  0  0  0  0  # atno 17343 bound_to 10162
  157.0258  130.9993  151.3326 LP  0  0  0  0  0  0  0  0  0  0  0  0  # atno 17370 bound_to 10713
  157.5312  130.8060  149.7919 LP  0  0  0  0  0  0  0  0  0  0  0  0  # atno 17371 bound_to 10713
  140.1080  134.9495  157.2022 LP  0  0  0  0  0  0  0  0  0  0  0  0  # atno 17394 bound_to 11000
  140.3231  134.2894  155.7242 LP  0  0  0  0  0  0  0  0  0  0  0  0  # atno 17395 bound_to 11000

$$$$
