AV-unprocessed.smi:1507|AV-procd|sdf|6080|dock2
  -GOLD-   22720 6203D 1   1.00000     0.00000
 Structure written by MMmdl.
 34 35  0  0  0  0  0  0  0  0  1 V2000
  148.8352  135.8783  154.6213 N   0  0  0  0  0  0  0  0  0  0  0  0
  150.3119  136.2924  155.3977 S   0  0  0  0  0  0  0  0  0  0  0  0
  150.0264  137.2553  156.4718 O   0  0  0  0  0  0  0  0  0  0  0  0
  151.0684  135.0594  155.6623 O   0  0  0  0  0  0  0  0  0  0  0  0
  151.0733  137.1311  154.1005 N   0  0  0  0  0  0  0  0  0  0  0  0
  150.6629  138.4958  153.7794 C   0  0  0  0  0  0  0  0  0  0  0  0
  150.9600  139.4694  154.9021 C   0  0  0  0  0  0  0  0  0  0  0  0
  150.0803  140.5285  155.1976 C   0  0  0  0  0  0  0  0  0  0  0  0
  150.4013  141.4066  156.2506 C   0  0  0  0  0  0  0  0  0  0  0  0
  151.5967  141.2027  156.9813 C   0  0  0  0  0  0  0  0  0  0  0  0
  151.9408  142.0740  158.0379 N   0  0  0  0  0  0  0  0  0  0  0  0
  152.2146  141.4327  159.3218 C   0  0  0  0  0  0  0  0  0  0  0  0
  152.8627  142.4329  160.2951 C   0  0  0  0  0  0  0  0  0  0  0  0
  152.0407  143.5884  160.4181 O   0  0  0  0  0  0  0  0  0  0  0  0
  151.8839  144.2603  159.1729 C   0  0  0  0  0  0  0  0  0  0  0  0
  151.1960  143.3258  158.1638 C   0  0  0  0  0  0  0  0  0  0  0  0
  152.4348  140.1745  156.6967 N   0  0  0  0  0  0  0  0  0  0  0  0
  152.1239  139.3372  155.6850 C   0  0  0  0  0  0  0  0  0  0  0  0
  148.4317  135.0287  155.0145 H   0  0  0  0  0  0  0  0  0  0  0  0
  148.9576  135.7984  153.6119 H   0  0  0  0  0  0  0  0  0  0  0  0
  151.3129  136.5502  153.2976 H   0  0  0  0  0  0  0  0  0  0  0  0
  151.1925  138.8270  152.8851 H   0  0  0  0  0  0  0  0  0  0  0  0
  149.5998  138.5009  153.5369 H   0  0  0  0  0  0  0  0  0  0  0  0
  149.1715  140.6676  154.6307 H   0  0  0  0  0  0  0  0  0  0  0  0
  149.7242  142.2119  156.4924 H   0  0  0  0  0  0  0  0  0  0  0  0
  151.2756  141.0640  159.7368 H   0  0  0  0  0  0  0  0  0  0  0  0
  152.8715  140.5712  159.2118 H   0  0  0  0  0  0  0  0  0  0  0  0
  152.9813  141.9761  161.2778 H   0  0  0  0  0  0  0  0  0  0  0  0
  153.8594  142.7171  159.9541 H   0  0  0  0  0  0  0  0  0  0  0  0
  151.2815  145.1558  159.3257 H   0  0  0  0  0  0  0  0  0  0  0  0
  152.8548  144.5901  158.7997 H   0  0  0  0  0  0  0  0  0  0  0  0
  151.1304  143.8256  157.1965 H   0  0  0  0  0  0  0  0  0  0  0  0
  150.1777  143.1096  158.4902 H   0  0  0  0  0  0  0  0  0  0  0  0
  152.8245  138.5367  155.4971 H   0  0  0  0  0  0  0  0  0  0  0  0
  1  2  1  0  0  0  0
  1 19  1  0  0  0  0
  1 20  1  0  0  0  0
  2  3  2  0  0  0  0
  2  4  2  0  0  0  0
  2  5  1  0  0  0  0
  5  6  1  0  0  0  0
  5 21  1  0  0  0  0
  6  7  1  0  0  0  0
  6 22  1  0  0  0  0
  6 23  1  0  0  0  0
  7 18  1  0  0  0  0
  7  8  2  0  0  0  0
  8  9  1  0  0  0  0
  8 24  1  0  0  0  0
  9 10  2  0  0  0  0
  9 25  1  0  0  0  0
 10 11  1  0  0  0  0
 10 17  1  0  0  0  0
 11 16  1  0  0  0  0
 11 12  1  0  0  0  0
 12 13  1  0  0  0  0
 12 26  1  0  0  0  0
 12 27  1  0  0  0  0
 13 14  1  0  0  0  0
 13 28  1  0  0  0  0
 13 29  1  0  0  0  0
 14 15  1  0  0  0  0
 15 16  1  0  0  0  0
 15 30  1  0  0  0  0
 15 31  1  0  0  0  0
 16 32  1  0  0  0  0
 16 33  1  0  0  0  0
 17 18  2  0  0  0  0
 18 34  1  0  0  0  0
M  END
> <s_m_source_file>
AV-unprocessed.smi

> <i_m_source_file_index>
1507

> <i_lp_mmshare_version>
43012

> <i_f3d_flags>
0

> <s_epik_input>
W05IMl1TKD1PKSg9TylbTkhdW0NIMl1jMVtjSF1bY0hdYyhuW2NIXTEpTjJbQ0gyXVtDSDJdT1tDSDJdW0NIMl0y

> <s_epik_cmdline>
J2VwaWtfcHl0aG9uJywgJy1waCcsICc3LjAnLCAnLXRuJywgJzgnLCAnLW1hJywgJzIwMCcsICctbWV0YWxfYmluZGluZycsICctaW1hZScsICc8aW5maWxlLm1hZT4nLCAnLW9tYWUnLCAnPG91dGZpbGUubWFlPic=

> <r_lp_tautomer_probability>
1

> <r_epik_Ionization_Penalty>
0.193648

> <r_epik_Ionization_Penalty_Charging>
0

> <r_epik_Ionization_Penalty_Neutral>
0.193648

> <r_epik_State_Penalty>
0.187016

> <r_epik_Charging_Adjusted_Penalty>
0.187016

> <i_epik_Tot_Q>
0

> <i_epik_Tot_abs_Q>
0

> <r_epik_Metal_State_Penalty>
0.77957

> <b_epik_Metal_Only>
0

> <s_lp_Force_Field>
OPLS_2005

> <r_lp_Energy>
21.8842

> <b_lp_Chiralities_Consistent>
1

> <s_lp_Variant>
AV-unprocessed.smi:1507-1

> <Gold.Version>
5.8.1

> <Gold.Id.Protein>
6NUR|6NUR_protein|mol2

> <Gold.PLP.Fitness>
44.6805

> <Gold.PLP.PLP>
-34.1621

> <Gold.PLP.part.hbond>
-4.6414

> <Gold.PLP.part.metal>
0.0000

> <Gold.PLP.part.buried>
-1.2665

> <Gold.PLP.part.nonpolar>
-25.7534

> <Gold.PLP.part.repulsive>
0.1295

> <Gold.PLP.ligand.clash>
0.0000

> <Gold.PLP.ligand.torsion>
0.8458

> <Gold.PLP.Chemscore.Hbond>
3.9280

> <Gold.PLP.Chemscore.CHOScore>
0.0000

> <Gold.PLP.Chemscore.Metal>
0.0000

> <Gold.Chemscore.Hbonds>
donor molecule, donor type, donor heavy atom, donor atom, acceptor molecule, acceptor atom, score
      L1  H     1    20       P1  7948  1.00
      L1  H     5    21       P1  7949  1.00
      P1  H  7997  8009       L1    17  1.00
      P1  H 10752 10763       L1     4  0.70

> <Gold.PLP.Chemscore.Internal.Correction>
0.4261

> <Gold.Rescore>
     Score         DG    S(hbond)    S(metal)    S(lipo)     H(rot)  DE(clash)    DE(int)     intcor
     14.52     -16.96       2.52        0.00      80.11       2.47       0.52       1.93       ----

> <Gold.Chemscore.Fitness>
14.5154

> <Gold.Chemscore.DG>
-16.9571

> <Gold.Chemscore.ZeroCoef>
-5.4800

> <Gold.Chemscore.Hbond>
2.5210

> <Gold.Chemscore.Metal>
0.0000

> <Gold.Chemscore.Lipo>
80.1064

> <Gold.Chemscore.Internal_Hbond>
0.0000

> <Gold.Chemscore.DEClash>
0.5159

> <Gold.Chemscore.DEInternal>
1.9258

> <Gold.Chemscore.Rot>
2.4671

> <Gold.Chemscore.Internal.Correction>
   9.000000E+99

> <Gold.Chemscore.Hbonds>
donor molecule, donor type, donor heavy atom, donor atom, acceptor molecule, acceptor atom, score
      L1  H     1    20       P1  7948  0.92
      L1  H     5    21       P1  7949  0.69
      P1  H  7997  8009       L1    17  0.24
      P1  H 10752 10763       L1     4  0.26

> <Gold.Chemscore.Hbond.Weighted>
-8.4203

> <Gold.Chemscore.Metal.Weighted>
-0.0000

> <Gold.Chemscore.Lipo.Weighted>
-9.3725

> <Gold.Chemscore.Internal_Hbond.Weighted>
0.0000

> <Gold.Chemscore.DEClash.Weighted>
0.5159

> <Gold.Chemscore.DEInternal.Weighted>
1.9258

> <Gold.Chemscore.Rot.Weighted>
6.3157

> <Gold.Chemscore.Internal.Correction.Weighted>
   9.000000E+99

> <Gold.Protein.RotatedTorsions>
[ 6907 6896 6895 6894 ] final  -50.02 input  -60.11 | X-H torsion
[ 7974 7965 7964 7962 ] final  100.64 input  175.53 | X-H torsion
[ 8008 7997 7996 7995 ] final -179.06 input   59.86 | X-H torsion
[ 10167 10162 10161 10158 ] final -138.37 input  -65.29 | X-H torsion
[ 10718 10713 10712 10709 ] final   51.97 input   66.30 | X-H torsion
[ 10763 10752 10751 10750 ] final   76.18 input  -60.55 | X-H torsion
[ 11005 11000 10999 10996 ] final   52.68 input  -57.11 | X-H torsion

> <Gold.Protein.ActiveResidues>
 VAL166  LYS551  ARG553  GLY616  TRP617  ASP618  TYR619  PRO620  LYS621  CYS622 
 ASP623  PHE694  ASN695  SER759  ASP760  ASP761  ALA762  ILE779  LEU786  VAL792 
 PHE793  MET794  SER795  GLU796  ALA797  LYS798  CYS799  TRP800  GLU811  SER814 

> <Gold.Protein.RotatedAtoms>
  150.8748  134.8129  159.7181 H   0  0  0  0  0  0  0  0  0  0  0  0  # atno 6907 bound_to 6896
  152.4739  134.4889  159.9699 H   0  0  0  0  0  0  0  0  0  0  0  0  # atno 6908 bound_to 6896
  151.4972  133.3473  159.2898 H   0  0  0  0  0  0  0  0  0  0  0  0  # atno 6909 bound_to 6896
  145.3828  139.2376  143.3394 H   0  0  0  0  0  0  0  0  0  0  0  0  # atno 7974 bound_to 7965
  156.0261  140.1271  157.0307 H   0  0  0  0  0  0  0  0  0  0  0  0  # atno 8008 bound_to 7997
  154.4331  140.1059  156.6103 H   0  0  0  0  0  0  0  0  0  0  0  0  # atno 8009 bound_to 7997
  155.5875  140.3469  155.4559 H   0  0  0  0  0  0  0  0  0  0  0  0  # atno 8010 bound_to 7997
  139.8485  143.7229  152.2659 H   0  0  0  0  0  0  0  0  0  0  0  0  # atno 10167 bound_to 10162
  157.5031  130.8451  149.8341 H   0  0  0  0  0  0  0  0  0  0  0  0  # atno 10718 bound_to 10713
  153.0707  135.4961  154.8298 H   0  0  0  0  0  0  0  0  0  0  0  0  # atno 10763 bound_to 10752
  154.7018  135.3003  154.9332 H   0  0  0  0  0  0  0  0  0  0  0  0  # atno 10764 bound_to 10752
  154.0053  135.6761  153.4814 H   0  0  0  0  0  0  0  0  0  0  0  0  # atno 10765 bound_to 10752
  140.0829  134.5313  155.8928 H   0  0  0  0  0  0  0  0  0  0  0  0  # atno 11005 bound_to 11000
  146.2834  140.4499  142.8767 LP  0  0  0  0  0  0  0  0  0  0  0  0  # atno 17320 bound_to 7965
  144.8495  140.6980  143.6177 LP  0  0  0  0  0  0  0  0  0  0  0  0  # atno 17321 bound_to 7965
  139.7488  144.7540  151.0538 LP  0  0  0  0  0  0  0  0  0  0  0  0  # atno 17342 bound_to 10162
  140.7790  143.4884  150.9925 LP  0  0  0  0  0  0  0  0  0  0  0  0  # atno 17343 bound_to 10162
  156.0241  130.3785  150.1873 LP  0  0  0  0  0  0  0  0  0  0  0  0  # atno 17370 bound_to 10713
  157.0063  130.9937  151.3378 LP  0  0  0  0  0  0  0  0  0  0  0  0  # atno 17371 bound_to 10713
  141.2053  133.6646  156.6172 LP  0  0  0  0  0  0  0  0  0  0  0  0  # atno 17394 bound_to 11000
  140.3461  134.7808  157.4433 LP  0  0  0  0  0  0  0  0  0  0  0  0  # atno 17395 bound_to 11000

$$$$
