AV-unprocessed.smi:1762|AV-procd|sdf|7105|dock2
  -GOLD-   22720 8323D 1   1.00000     0.00000
 Structure written by MMmdl.
 53 54  0  0  0  0  0  0  0  0  2 V2000
  149.7830  131.1200  154.7142 C   0  0  0  0  0  0  0  0  0  0  0  0
  148.6224  131.0813  153.7136 C   0  0  2  0  0  0  0  0  0  0  0  0
  148.1615  132.4913  153.3002 C   0  0  0  0  0  0  0  0  0  0  0  0
  146.9973  132.4687  152.4078 N   0  0  0  0  0  0  0  0  0  0  0  0
  146.5901  133.8256  151.9454 C   0  0  2  0  0  0  0  0  0  0  0  0
  146.1973  134.7701  153.1061 C   0  0  0  0  0  0  0  0  0  0  0  0
  145.3896  134.4054  153.9615 O   0  0  0  0  0  0  0  0  0  0  0  0
  146.7988  135.9702  153.1374 N   0  0  0  0  0  0  0  0  0  0  0  0
  146.5812  136.9844  154.1615 C   0  0  0  0  0  0  0  0  0  0  0  0
  146.9779  138.3840  153.6620 C   0  0  0  0  0  0  0  0  0  0  0  0
  148.3670  138.7843  154.1188 C   0  0  0  0  0  0  0  0  0  0  0  0
  148.6074  139.9859  154.8197 C   0  0  0  0  0  0  0  0  0  0  0  0
  149.9247  140.3027  155.2124 C   0  0  0  0  0  0  0  0  0  0  0  0
  150.9720  139.4127  154.8954 C   0  0  0  0  0  0  0  0  0  0  0  0
  150.6755  138.2275  154.1917 C   0  0  0  0  0  0  0  0  0  0  0  0
  149.4006  137.9595  153.8326 N   0  3  0  0  0  0  0  0  0  0  0  0
  145.4969  133.8443  150.8241 C   0  0  0  0  0  0  0  0  0  0  0  0
  144.0581  133.9584  151.3681 C   0  0  0  0  0  0  0  0  0  0  0  0
  145.6018  132.6705  149.8305 C   0  0  0  0  0  0  0  0  0  0  0  0
  145.9222  131.7028  153.0643 C   0  0  0  0  0  0  0  0  0  0  0  0
  146.3617  130.2992  153.5268 C   0  0  1  0  0  0  0  0  0  0  0  0
  146.5213  129.2983  152.3689 C   0  0  0  0  0  0  0  0  0  0  0  0
  147.5411  130.3849  154.3229 O   0  0  0  0  0  0  0  0  0  0  0  0
  150.6511  131.6246  154.2893 H   0  0  0  0  0  0  0  0  0  0  0  0
  150.0896  130.1117  154.9934 H   0  0  0  0  0  0  0  0  0  0  0  0
  149.5015  131.6471  155.6262 H   0  0  0  0  0  0  0  0  0  0  0  0
  148.9549  130.5346  152.8306 H   0  0  0  0  0  0  0  0  0  0  0  0
  147.9357  133.0819  154.1899 H   0  0  0  0  0  0  0  0  0  0  0  0
  149.0117  132.9668  152.8161 H   0  0  0  0  0  0  0  0  0  0  0  0
  147.4768  134.2755  151.4932 H   0  0  0  0  0  0  0  0  0  0  0  0
  147.4526  136.1924  152.4004 H   0  0  0  0  0  0  0  0  0  0  0  0
  145.5258  136.9696  154.4348 H   0  0  0  0  0  0  0  0  0  0  0  0
  147.1396  136.7265  155.0633 H   0  0  0  0  0  0  0  0  0  0  0  0
  146.9435  138.4214  152.5722 H   0  0  0  0  0  0  0  0  0  0  0  0
  146.2601  139.1255  154.0156 H   0  0  0  0  0  0  0  0  0  0  0  0
  147.7939  140.6579  155.0537 H   0  0  0  0  0  0  0  0  0  0  0  0
  150.1292  141.2169  155.7505 H   0  0  0  0  0  0  0  0  0  0  0  0
  151.9877  139.6364  155.1883 H   0  0  0  0  0  0  0  0  0  0  0  0
  151.4136  137.4913  153.9083 H   0  0  0  0  0  0  0  0  0  0  0  0
  145.6293  134.7586  150.2480 H   0  0  0  0  0  0  0  0  0  0  0  0
  143.7386  133.0499  151.8793 H   0  0  0  0  0  0  0  0  0  0  0  0
  143.3504  134.1365  150.5579 H   0  0  0  0  0  0  0  0  0  0  0  0
  143.9663  134.7885  152.0691 H   0  0  0  0  0  0  0  0  0  0  0  0
  145.3890  131.7134  150.3057 H   0  0  0  0  0  0  0  0  0  0  0  0
  146.5952  132.6082  149.3860 H   0  0  0  0  0  0  0  0  0  0  0  0
  144.8907  132.7908  149.0129 H   0  0  0  0  0  0  0  0  0  0  0  0
  145.5605  132.2608  153.9297 H   0  0  0  0  0  0  0  0  0  0  0  0
  145.0625  131.5662  152.4092 H   0  0  0  0  0  0  0  0  0  0  0  0
  145.5839  129.9037  154.1809 H   0  0  0  0  0  0  0  0  0  0  0  0
  145.5705  129.1408  151.8591 H   0  0  0  0  0  0  0  0  0  0  0  0
  146.8632  128.3306  152.7361 H   0  0  0  0  0  0  0  0  0  0  0  0
  147.2352  129.6448  151.6220 H   0  0  0  0  0  0  0  0  0  0  0  0
  149.2091  137.0959  153.3241 H   0  0  0  0  0  0  0  0  0  0  0  0
  1  2  1  0  0  0  0
  1 24  1  0  0  0  0
  1 25  1  0  0  0  0
  1 26  1  0  0  0  0
  2 23  1  0  0  0  0
  2  3  1  0  0  0  0
  2 27  1  0  0  0  0
  3  4  1  0  0  0  0
  3 28  1  0  0  0  0
  3 29  1  0  0  0  0
  4  5  1  0  0  0  0
  4 20  1  0  0  0  0
  5  6  1  0  0  0  0
  5 17  1  0  0  0  0
  5 30  1  0  0  0  0
  6  7  2  0  0  0  0
  6  8  1  0  0  0  0
  8  9  1  0  0  0  0
  8 31  1  0  0  0  0
  9 10  1  0  0  0  0
  9 32  1  0  0  0  0
  9 33  1  0  0  0  0
 10 11  1  0  0  0  0
 10 34  1  0  0  0  0
 10 35  1  0  0  0  0
 11 16  1  0  0  0  0
 11 12  2  0  0  0  0
 12 13  1  0  0  0  0
 12 36  1  0  0  0  0
 13 14  2  0  0  0  0
 13 37  1  0  0  0  0
 14 15  1  0  0  0  0
 14 38  1  0  0  0  0
 15 16  2  0  0  0  0
 15 39  1  0  0  0  0
 16 53  1  0  0  0  0
 17 18  1  0  0  0  0
 17 19  1  0  0  0  0
 17 40  1  0  0  0  0
 18 41  1  0  0  0  0
 18 42  1  0  0  0  0
 18 43  1  0  0  0  0
 19 44  1  0  0  0  0
 19 45  1  0  0  0  0
 19 46  1  0  0  0  0
 20 21  1  0  0  0  0
 20 47  1  0  0  0  0
 20 48  1  0  0  0  0
 21 22  1  0  0  0  0
 21 23  1  0  0  0  0
 21 49  1  0  0  0  0
 22 50  1  0  0  0  0
 22 51  1  0  0  0  0
 22 52  1  0  0  0  0
M  CHG  1  16   1
M  END
> <s_m_source_file>
AV-unprocessed.smi

> <i_m_source_file_index>
1762

> <i_lp_mmshare_version>
43012

> <i_f3d_flags>
0

> <s_epik_input>
W0NIM11bQ0BASF0xW0NIMl1OKFtDSDJdW0NASF0oTzEpW0NIM10pW0NAQEhdKFtDSF0oW0NIM10pW0NIM10pQyg9TylbTkhdW0NIMl1bQ0gyXWMyW2NIXVtjSF1bY0hdW2NIXW4y

> <s_epik_cmdline>
J2VwaWtfcHl0aG9uJywgJy1waCcsICc3LjAnLCAnLXRuJywgJzgnLCAnLW1hJywgJzIwMCcsICctbWV0YWxfYmluZGluZycsICctaW1hZScsICc8aW5maWxlLm1hZT4nLCAnLW9tYWUnLCAnPG91dGZpbGUubWFlPic=

> <r_epik_Ionization_Penalty>
1.86475

> <r_epik_Ionization_Penalty_Charging>
1.85347

> <r_epik_Ionization_Penalty_Neutral>
0.0112771

> <r_epik_State_Penalty>
1.99714

> <r_epik_Charging_Adjusted_Penalty>
3.85061

> <i_epik_Tot_Q>
1

> <i_epik_Tot_abs_Q>
1

> <r_epik_Metal_State_Penalty>
2.02271

> <b_epik_Metal_Only>
0

> <s_lp_Force_Field>
OPLS_2005

> <r_lp_Energy>
35.8241

> <b_lp_Chiralities_Consistent>
1

> <s_lp_Variant>
AV-unprocessed.smi:1762-7

> <Gold.Version>
5.8.1

> <Gold.Id.Protein>
6NUR|6NUR_protein|mol2

> <Gold.PLP.Fitness>
44.0465

> <Gold.PLP.PLP>
-37.4701

> <Gold.PLP.part.hbond>
-1.7785

> <Gold.PLP.part.metal>
0.0000

> <Gold.PLP.part.buried>
-4.3953

> <Gold.PLP.part.nonpolar>
-31.7504

> <Gold.PLP.part.repulsive>
0.3110

> <Gold.PLP.ligand.clash>
0.0000

> <Gold.PLP.ligand.torsion>
1.3646

> <Gold.PLP.Chemscore.Hbond>
3.0000

> <Gold.PLP.Chemscore.CHOScore>
0.0000

> <Gold.PLP.Chemscore.Metal>
0.0000

> <Gold.Chemscore.Hbonds>
donor molecule, donor type, donor heavy atom, donor atom, acceptor molecule, acceptor atom, score
      L1  H     8    31       P1  7948  1.00
      L1  H    16    53       P1  7948  2.00

> <Gold.PLP.Chemscore.Internal.Correction>
0.3056

> <Gold.Rescore>
     Score         DG    S(hbond)    S(metal)    S(lipo)     H(rot)  DE(clash)    DE(int)     intcor
     16.46     -18.81       1.96        0.00      95.57       1.72       0.11       2.24       ----

> <Gold.Chemscore.Fitness>
16.4569

> <Gold.Chemscore.DG>
-18.8050

> <Gold.Chemscore.ZeroCoef>
-5.4800

> <Gold.Chemscore.Hbond>
1.9579

> <Gold.Chemscore.Metal>
0.0000

> <Gold.Chemscore.Lipo>
95.5738

> <Gold.Chemscore.Internal_Hbond>
0.0000

> <Gold.Chemscore.DEClash>
0.1074

> <Gold.Chemscore.DEInternal>
2.2407

> <Gold.Chemscore.Rot>
1.7174

> <Gold.Chemscore.Internal.Correction>
   9.000000E+99

> <Gold.Chemscore.Hbonds>
donor molecule, donor type, donor heavy atom, donor atom, acceptor molecule, acceptor atom, score
      L1  H     8    31       P1  7948  0.92
      L1  H    16    53       P1  7948  0.94

> <Gold.Chemscore.Hbond.Weighted>
-6.5394

> <Gold.Chemscore.Metal.Weighted>
-0.0000

> <Gold.Chemscore.Lipo.Weighted>
-11.1821

> <Gold.Chemscore.Internal_Hbond.Weighted>
0.0000

> <Gold.Chemscore.DEClash.Weighted>
0.1074

> <Gold.Chemscore.DEInternal.Weighted>
2.2407

> <Gold.Chemscore.Rot.Weighted>
4.3966

> <Gold.Chemscore.Internal.Correction.Weighted>
   9.000000E+99

> <Gold.Protein.RotatedTorsions>
[ 6907 6896 6895 6894 ] final  -75.08 input  -60.11 | X-H torsion
[ 7974 7965 7964 7962 ] final -135.52 input  175.53 | X-H torsion
[ 8008 7997 7996 7995 ] final   45.34 input   59.86 | X-H torsion
[ 10167 10162 10161 10158 ] final  126.48 input  -65.29 | X-H torsion
[ 10718 10713 10712 10709 ] final   -2.95 input   66.30 | X-H torsion
[ 10763 10752 10751 10750 ] final   -7.06 input  -60.55 | X-H torsion
[ 11005 11000 10999 10996 ] final  126.68 input  -57.11 | X-H torsion

> <Gold.Protein.ActiveResidues>
 VAL166  LYS551  ARG553  GLY616  TRP617  ASP618  TYR619  PRO620  LYS621  CYS622 
 ASP623  PHE694  ASN695  SER759  ASP760  ASP761  ALA762  ILE779  LEU786  VAL792 
 PHE793  MET794  SER795  GLU796  ALA797  LYS798  CYS799  TRP800  GLU811  SER814 

> <Gold.Protein.RotatedAtoms>
  150.7071  134.4773  159.5453 H   0  0  0  0  0  0  0  0  0  0  0  0  # atno 6907 bound_to 6896
  152.2417  134.8218  160.0468 H   0  0  0  0  0  0  0  0  0  0  0  0  # atno 6908 bound_to 6896
  151.8998  133.3500  159.3863 H   0  0  0  0  0  0  0  0  0  0  0  0  # atno 6909 bound_to 6896
  144.9007  140.6767  143.5087 H   0  0  0  0  0  0  0  0  0  0  0  0  # atno 7974 bound_to 7965
  155.3342  140.3404  155.4239 H   0  0  0  0  0  0  0  0  0  0  0  0  # atno 8008 bound_to 7997
  156.1846  140.1676  156.8246 H   0  0  0  0  0  0  0  0  0  0  0  0  # atno 8009 bound_to 7997
  154.5372  140.0732  156.8430 H   0  0  0  0  0  0  0  0  0  0  0  0  # atno 8010 bound_to 7997
  139.5629  144.6893  151.3992 H   0  0  0  0  0  0  0  0  0  0  0  0  # atno 10167 bound_to 10162
  156.7832  130.5337  149.5747 H   0  0  0  0  0  0  0  0  0  0  0  0  # atno 10718 bound_to 10713
  153.4210  135.7010  153.6294 H   0  0  0  0  0  0  0  0  0  0  0  0  # atno 10763 bound_to 10752
  153.4748  135.3706  155.2411 H   0  0  0  0  0  0  0  0  0  0  0  0  # atno 10764 bound_to 10752
  154.8722  135.4052  154.3578 H   0  0  0  0  0  0  0  0  0  0  0  0  # atno 10765 bound_to 10752
  139.9468  134.9628  156.8743 H   0  0  0  0  0  0  0  0  0  0  0  0  # atno 11005 bound_to 11000
  145.3622  139.1679  143.4377 LP  0  0  0  0  0  0  0  0  0  0  0  0  # atno 17320 bound_to 7965
  146.3106  140.3685  142.8672 LP  0  0  0  0  0  0  0  0  0  0  0  0  # atno 17321 bound_to 7965
  140.6910  143.7861  150.7255 LP  0  0  0  0  0  0  0  0  0  0  0  0  # atno 17342 bound_to 10162
  140.1343  143.4497  152.2234 LP  0  0  0  0  0  0  0  0  0  0  0  0  # atno 17343 bound_to 10162
  156.1205  130.6106  151.0186 LP  0  0  0  0  0  0  0  0  0  0  0  0  # atno 17370 bound_to 10713
  157.6636  131.0876  150.7781 LP  0  0  0  0  0  0  0  0  0  0  0  0  # atno 17371 bound_to 10713
  140.5814  134.0348  155.7465 LP  0  0  0  0  0  0  0  0  0  0  0  0  # atno 17394 bound_to 11000
  141.1121  133.9599  157.2891 LP  0  0  0  0  0  0  0  0  0  0  0  0  # atno 17395 bound_to 11000

$$$$
