AV-unprocessed.smi:2516|AV-procd|sdf|9899|dock2
  -GOLD-   2272013533D 1   1.00000     0.00000
 Structure written by MMmdl.
 47 48  0  0  0  0  0  0  0  0  1 V2000
  150.5990  141.8071  157.3603 C   0  0  0  0  0  0  0  0  0  0  0  0
  151.0096  141.2569  155.9897 C   0  0  0  0  0  0  0  0  0  0  0  0
  149.8649  140.7553  155.2496 N   0  0  0  0  0  0  0  0  0  0  0  0
  148.8019  141.5725  155.0569 N   0  0  0  0  0  0  0  0  0  0  0  0
  147.9269  140.8635  154.3591 C   0  0  0  0  0  0  0  0  0  0  0  0
  146.6509  141.5227  153.9139 C   0  0  0  0  0  0  0  0  0  0  0  0
  148.4242  139.5452  154.1333 C   0  0  0  0  0  0  0  0  0  0  0  0
  147.8333  138.4773  153.4122 N   0  0  0  0  0  0  0  0  0  0  0  0
  146.6293  137.9276  153.6324 C   0  0  0  0  0  0  0  0  0  0  0  0
  145.8443  138.2809  154.5117 O   0  0  0  0  0  0  0  0  0  0  0  0
  146.3916  136.9179  152.7827 N   0  0  0  0  0  0  0  0  0  0  0  0
  145.1913  136.0819  152.7682 C   0  0  1  0  0  0  0  0  0  0  0  0
  143.9522  136.9963  152.7376 C   0  0  0  0  0  0  0  0  0  0  0  0
  145.2490  135.0856  151.5804 C   0  0  0  0  0  0  0  0  0  0  0  0
  143.9997  134.1843  151.4978 C   0  0  0  0  0  0  0  0  0  0  0  0
  144.1249  133.1553  150.3624 C   0  0  0  0  0  0  0  0  0  0  0  0
  145.2986  132.3722  150.5387 O   0  0  0  0  0  0  0  0  0  0  0  0
  146.4878  133.1504  150.4884 C   0  0  0  0  0  0  0  0  0  0  0  0
  146.4938  134.1735  151.6354 C   0  0  0  0  0  0  0  0  0  0  0  0
  149.6737  139.5078  154.6813 C   0  0  0  0  0  0  0  0  0  0  0  0
  150.6987  138.4208  154.7344 C   0  0  0  0  0  0  0  0  0  0  0  0
  151.4672  142.1767  157.9060 H   0  0  0  0  0  0  0  0  0  0  0  0
  150.1261  141.0364  157.9695 H   0  0  0  0  0  0  0  0  0  0  0  0
  149.8939  142.6325  157.2579 H   0  0  0  0  0  0  0  0  0  0  0  0
  151.4962  142.0366  155.4020 H   0  0  0  0  0  0  0  0  0  0  0  0
  151.7387  140.4547  156.1054 H   0  0  0  0  0  0  0  0  0  0  0  0
  146.3266  141.1416  152.9458 H   0  0  0  0  0  0  0  0  0  0  0  0
  146.7735  142.6014  153.8122 H   0  0  0  0  0  0  0  0  0  0  0  0
  145.8489  141.3484  154.6309 H   0  0  0  0  0  0  0  0  0  0  0  0
  148.4268  138.0154  152.7394 H   0  0  0  0  0  0  0  0  0  0  0  0
  147.0998  136.7015  152.0967 H   0  0  0  0  0  0  0  0  0  0  0  0
  145.1581  135.4975  153.6898 H   0  0  0  0  0  0  0  0  0  0  0  0
  143.0285  136.4304  152.8519 H   0  0  0  0  0  0  0  0  0  0  0  0
  143.8923  137.5531  151.8017 H   0  0  0  0  0  0  0  0  0  0  0  0
  143.9782  137.7207  153.5525 H   0  0  0  0  0  0  0  0  0  0  0  0
  145.3037  135.6646  150.6569 H   0  0  0  0  0  0  0  0  0  0  0  0
  143.8570  133.6617  152.4446 H   0  0  0  0  0  0  0  0  0  0  0  0
  143.1027  134.7799  151.3311 H   0  0  0  0  0  0  0  0  0  0  0  0
  143.2589  132.4929  150.3613 H   0  0  0  0  0  0  0  0  0  0  0  0
  144.1469  133.6497  149.3900 H   0  0  0  0  0  0  0  0  0  0  0  0
  147.3467  132.4847  150.5763 H   0  0  0  0  0  0  0  0  0  0  0  0
  146.5698  133.6491  149.5214 H   0  0  0  0  0  0  0  0  0  0  0  0
  147.4106  134.7609  151.5790 H   0  0  0  0  0  0  0  0  0  0  0  0
  146.5221  133.6459  152.5897 H   0  0  0  0  0  0  0  0  0  0  0  0
  150.2976  137.4810  154.3555 H   0  0  0  0  0  0  0  0  0  0  0  0
  151.0331  138.2505  155.7578 H   0  0  0  0  0  0  0  0  0  0  0  0
  151.5687  138.6812  154.1317 H   0  0  0  0  0  0  0  0  0  0  0  0
  1  2  1  0  0  0  0
  1 22  1  0  0  0  0
  1 23  1  0  0  0  0
  1 24  1  0  0  0  0
  2  3  1  0  0  0  0
  2 25  1  0  0  0  0
  2 26  1  0  0  0  0
  3 20  1  0  0  0  0
  3  4  1  0  0  0  0
  4  5  2  0  0  0  0
  5  6  1  0  0  0  0
  5  7  1  0  0  0  0
  6 27  1  0  0  0  0
  6 28  1  0  0  0  0
  6 29  1  0  0  0  0
  7  8  1  0  0  0  0
  7 20  2  0  0  0  0
  8  9  1  0  0  0  0
  8 30  1  0  0  0  0
  9 10  2  0  0  0  0
  9 11  1  0  0  0  0
 11 12  1  0  0  0  0
 11 31  1  0  0  0  0
 12 13  1  0  0  0  0
 12 14  1  0  0  0  0
 12 32  1  0  0  0  0
 13 33  1  0  0  0  0
 13 34  1  0  0  0  0
 13 35  1  0  0  0  0
 14 19  1  0  0  0  0
 14 15  1  0  0  0  0
 14 36  1  0  0  0  0
 15 16  1  0  0  0  0
 15 37  1  0  0  0  0
 15 38  1  0  0  0  0
 16 17  1  0  0  0  0
 16 39  1  0  0  0  0
 16 40  1  0  0  0  0
 17 18  1  0  0  0  0
 18 19  1  0  0  0  0
 18 41  1  0  0  0  0
 18 42  1  0  0  0  0
 19 43  1  0  0  0  0
 19 44  1  0  0  0  0
 20 21  1  0  0  0  0
 21 45  1  0  0  0  0
 21 46  1  0  0  0  0
 21 47  1  0  0  0  0
M  END
> <s_m_source_file>
AV-unprocessed.smi

> <i_m_source_file_index>
2516

> <i_lp_mmshare_version>
43012

> <i_f3d_flags>
0

> <s_epik_input>
W0NIM11bQ0gyXW4xbmMoW0NIM10pYyhjMVtDSDNdKVtOSF1DKD1PKVtOSF1bQ0BIXShbQ0gzXSlbQ0hdMltDSDJdW0NIMl1PW0NIMl1bQ0gyXTI=

> <s_epik_cmdline>
J2VwaWtfcHl0aG9uJywgJy1waCcsICc3LjAnLCAnLXRuJywgJzgnLCAnLW1hJywgJzIwMCcsICctbWV0YWxfYmluZGluZycsICctaW1hZScsICc8aW5maWxlLm1hZT4nLCAnLW9tYWUnLCAnPG91dGZpbGUubWFlPic=

> <r_lp_tautomer_probability>
1

> <r_epik_Ionization_Penalty>
0.00383358

> <r_epik_Ionization_Penalty_Charging>
0

> <r_epik_Ionization_Penalty_Neutral>
0.00383358

> <r_epik_State_Penalty>
0.00270714

> <r_epik_Charging_Adjusted_Penalty>
0.00270714

> <i_epik_Tot_Q>
0

> <i_epik_Tot_abs_Q>
0

> <r_epik_Metal_State_Penalty>
-0

> <b_epik_Metal_Only>
0

> <s_lp_Force_Field>
OPLS_2005

> <r_lp_Energy>
15.2282

> <b_lp_Chiralities_Consistent>
1

> <s_lp_Variant>
AV-unprocessed.smi:2516-2

> <Gold.Version>
5.8.1

> <Gold.Id.Protein>
6NUR|6NUR_protein|mol2

> <Gold.PLP.Fitness>
43.1208

> <Gold.PLP.PLP>
-38.1267

> <Gold.PLP.part.hbond>
-2.6117

> <Gold.PLP.part.metal>
0.0000

> <Gold.PLP.part.buried>
-3.6898

> <Gold.PLP.part.nonpolar>
-31.7974

> <Gold.PLP.part.repulsive>
0.4171

> <Gold.PLP.ligand.clash>
0.0000

> <Gold.PLP.ligand.torsion>
0.5749

> <Gold.PLP.Chemscore.Hbond>
1.9200

> <Gold.PLP.Chemscore.CHOScore>
0.0000

> <Gold.PLP.Chemscore.Metal>
0.0000

> <Gold.Chemscore.Hbonds>
donor molecule, donor type, donor heavy atom, donor atom, acceptor molecule, acceptor atom, score
      L1  H     8    30       P1  7948  0.95
      L1  H    11    31       P1  7948  0.91

> <Gold.PLP.Chemscore.Internal.Correction>
0.3840

> <Gold.Rescore>
     Score         DG    S(hbond)    S(metal)    S(lipo)     H(rot)  DE(clash)    DE(int)     intcor
     16.79     -18.69       1.92        0.00      86.51       1.30       0.17       1.73       ----

> <Gold.Chemscore.Fitness>
16.7922

> <Gold.Chemscore.DG>
-18.6883

> <Gold.Chemscore.ZeroCoef>
-5.4800

> <Gold.Chemscore.Hbond>
1.9196

> <Gold.Chemscore.Metal>
0.0000

> <Gold.Chemscore.Lipo>
86.5146

> <Gold.Chemscore.Internal_Hbond>
0.0000

> <Gold.Chemscore.DEClash>
0.1680

> <Gold.Chemscore.DEInternal>
1.7282

> <Gold.Chemscore.Rot>
1.2990

> <Gold.Chemscore.Internal.Correction>
   9.000000E+99

> <Gold.Chemscore.Hbonds>
donor molecule, donor type, donor heavy atom, donor atom, acceptor molecule, acceptor atom, score
      L1  H     8    30       P1  7948  0.85
      L1  H    11    31       P1  7948  0.88

> <Gold.Chemscore.Hbond.Weighted>
-6.4116

> <Gold.Chemscore.Metal.Weighted>
-0.0000

> <Gold.Chemscore.Lipo.Weighted>
-10.1222

> <Gold.Chemscore.Internal_Hbond.Weighted>
0.0000

> <Gold.Chemscore.DEClash.Weighted>
0.1680

> <Gold.Chemscore.DEInternal.Weighted>
1.7282

> <Gold.Chemscore.Rot.Weighted>
3.3254

> <Gold.Chemscore.Internal.Correction.Weighted>
   9.000000E+99

> <Gold.Protein.RotatedTorsions>
[ 6907 6896 6895 6894 ] final  -76.04 input  -60.11 | X-H torsion
[ 7974 7965 7964 7962 ] final  -89.47 input  175.53 | X-H torsion
[ 8008 7997 7996 7995 ] final  155.91 input   59.86 | X-H torsion
[ 10167 10162 10161 10158 ] final   10.85 input  -65.29 | X-H torsion
[ 10718 10713 10712 10709 ] final -151.66 input   66.30 | X-H torsion
[ 10763 10752 10751 10750 ] final -138.54 input  -60.55 | X-H torsion
[ 11005 11000 10999 10996 ] final  -23.32 input  -57.11 | X-H torsion

> <Gold.Protein.ActiveResidues>
 VAL166  LYS551  ARG553  GLY616  TRP617  ASP618  TYR619  PRO620  LYS621  CYS622 
 ASP623  PHE694  ASN695  SER759  ASP760  ASP761  ALA762  ILE779  LEU786  VAL792 
 PHE793  MET794  SER795  GLU796  ALA797  LYS798  CYS799  TRP800  GLU811  SER814 

> <Gold.Protein.RotatedAtoms>
  150.7039  134.4631  159.5389 H   0  0  0  0  0  0  0  0  0  0  0  0  # atno 6907 bound_to 6896
  152.2302  134.8327  160.0484 H   0  0  0  0  0  0  0  0  0  0  0  0  # atno 6908 bound_to 6896
  151.9146  133.3534  159.3912 H   0  0  0  0  0  0  0  0  0  0  0  0  # atno 6909 bound_to 6896
  145.4394  140.9558  143.2084 H   0  0  0  0  0  0  0  0  0  0  0  0  # atno 7974 bound_to 7965
  156.2452  140.1926  156.6874 H   0  0  0  0  0  0  0  0  0  0  0  0  # atno 8008 bound_to 7997
  154.6277  140.0600  156.9719 H   0  0  0  0  0  0  0  0  0  0  0  0  # atno 8009 bound_to 7997
  155.1761  140.3272  155.4386 H   0  0  0  0  0  0  0  0  0  0  0  0  # atno 8010 bound_to 7997
  140.6169  143.8289  150.7128 H   0  0  0  0  0  0  0  0  0  0  0  0  # atno 10167 bound_to 10162
  156.4622  130.8219  151.2449 H   0  0  0  0  0  0  0  0  0  0  0  0  # atno 10718 bound_to 10713
  154.8634  135.3609  154.5401 H   0  0  0  0  0  0  0  0  0  0  0  0  # atno 10763 bound_to 10752
  153.6023  135.7012  153.5384 H   0  0  0  0  0  0  0  0  0  0  0  0  # atno 10764 bound_to 10752
  153.3280  135.4132  155.1433 H   0  0  0  0  0  0  0  0  0  0  0  0  # atno 10765 bound_to 10752
  140.8740  133.7700  156.0221 H   0  0  0  0  0  0  0  0  0  0  0  0  # atno 11005 bound_to 11000
  144.8131  139.5925  143.7020 LP  0  0  0  0  0  0  0  0  0  0  0  0  # atno 17320 bound_to 7965
  146.2565  139.6313  142.9392 LP  0  0  0  0  0  0  0  0  0  0  0  0  # atno 17321 bound_to 7965
  140.1871  143.4067  152.1891 LP  0  0  0  0  0  0  0  0  0  0  0  0  # atno 17342 bound_to 10162
  139.5406  144.7252  151.4748 LP  0  0  0  0  0  0  0  0  0  0  0  0  # atno 17343 bound_to 10162
  157.7497  131.0103  150.3302 LP  0  0  0  0  0  0  0  0  0  0  0  0  # atno 17370 bound_to 10713
  156.3704  130.3862  149.7180 LP  0  0  0  0  0  0  0  0  0  0  0  0  # atno 17371 bound_to 10713
  140.8540  134.2920  157.5263 LP  0  0  0  0  0  0  0  0  0  0  0  0  # atno 17394 bound_to 11000
  139.8714  134.9483  156.3991 LP  0  0  0  0  0  0  0  0  0  0  0  0  # atno 17395 bound_to 11000

$$$$
