AV-unprocessed.smi:285|AV-procd|sdf|2169|dock9
  -GOLD-   2262021533D 1   1.00000     0.00000
 Structure written by MMmdl.
 31 33  0  0  0  0  0  0  0  0  1 V2000
  154.4384  141.1362  159.9150 N   0  0  0  0  0  0  0  0  0  0  0  0
  153.4274  141.7252  159.2619 C   0  0  0  0  0  0  0  0  0  0  0  0
  152.9508  142.8992  159.7383 N   0  0  0  0  0  0  0  0  0  0  0  0
  151.9435  143.5080  159.1039 C   0  0  0  0  0  0  0  0  0  0  0  0
  151.2907  143.1189  158.0056 N   0  0  0  0  0  0  0  0  0  0  0  0
  151.7709  141.9331  157.5266 C   0  0  0  0  0  0  0  0  0  0  0  0
  152.8363  141.1761  158.0963 C   0  0  0  0  0  0  0  0  0  0  0  0
  153.0629  140.0273  157.3484 N   0  0  0  0  0  0  0  0  0  0  0  0
  152.1733  140.1222  156.3999 C   0  0  0  0  0  0  0  0  0  0  0  0
  152.0544  138.7820  155.0519 Br  0  0  0  0  0  0  0  0  0  0  0  0
  151.3503  141.2255  156.4180 N   0  0  0  0  0  0  0  0  0  0  0  0
  150.2515  141.5986  155.4774 C   0  0  2  0  0  0  0  0  0  0  0  0
  148.9174  141.6988  156.1985 C   0  0  0  0  0  0  0  0  0  0  0  0
  147.9508  141.4535  155.0537 C   0  0  1  0  0  0  0  0  0  0  0  0
  147.5552  142.6838  154.4780 O   0  0  0  0  0  0  0  0  0  0  0  0
  148.7629  140.6192  154.0361 C   0  0  2  0  0  0  0  0  0  0  0  0
  148.2627  139.1703  153.9139 C   0  0  0  0  0  0  0  0  0  0  0  0
  149.1402  138.4200  153.1016 O   0  0  0  0  0  0  0  0  0  0  0  0
  150.0963  140.5834  154.5460 O   0  0  0  0  0  0  0  0  0  0  0  0
  154.8123  140.2602  159.5790 H   0  0  0  0  0  0  0  0  0  0  0  0
  154.8241  141.5686  160.7419 H   0  0  0  0  0  0  0  0  0  0  0  0
  151.6131  144.4401  159.5378 H   0  0  0  0  0  0  0  0  0  0  0  0
  150.5569  142.5235  154.9883 H   0  0  0  0  0  0  0  0  0  0  0  0
  148.8367  140.8989  156.9355 H   0  0  0  0  0  0  0  0  0  0  0  0
  148.8020  142.6605  156.7003 H   0  0  0  0  0  0  0  0  0  0  0  0
  147.0558  140.9377  155.4029 H   0  0  0  0  0  0  0  0  0  0  0  0
  148.1236  143.3660  154.8017 H   0  0  0  0  0  0  0  0  0  0  0  0
  148.7586  141.1059  153.0587 H   0  0  0  0  0  0  0  0  0  0  0  0
  148.1562  138.7029  154.8936 H   0  0  0  0  0  0  0  0  0  0  0  0
  147.2833  139.1464  153.4352 H   0  0  0  0  0  0  0  0  0  0  0  0
  149.5217  138.9977  152.4584 H   0  0  0  0  0  0  0  0  0  0  0  0
  1  2  1  0  0  0  0
  1 20  1  0  0  0  0
  1 21  1  0  0  0  0
  2  7  1  0  0  0  0
  2  3  2  0  0  0  0
  3  4  1  0  0  0  0
  4  5  2  0  0  0  0
  4 22  1  0  0  0  0
  5  6  1  0  0  0  0
  6 11  1  0  0  0  0
  6  7  2  0  0  0  0
  7  8  1  0  0  0  0
  8  9  2  0  0  0  0
  9 10  1  0  0  0  0
  9 11  1  0  0  0  0
 11 12  1  0  0  0  0
 12 19  1  0  0  0  0
 12 13  1  0  0  0  0
 12 23  1  0  0  0  0
 13 14  1  0  0  0  0
 13 24  1  0  0  0  0
 13 25  1  0  0  0  0
 14 15  1  0  0  0  0
 14 16  1  0  0  0  0
 14 26  1  0  0  0  0
 15 27  1  0  0  0  0
 16 17  1  0  0  0  0
 16 19  1  0  0  0  0
 16 28  1  0  0  0  0
 17 18  1  0  0  0  0
 17 29  1  0  0  0  0
 17 30  1  0  0  0  0
 18 31  1  0  0  0  0
M  END
> <s_m_source_file>
AV-unprocessed.smi

> <i_m_source_file_index>
285

> <i_lp_mmshare_version>
43012

> <i_f3d_flags>
0

> <s_epik_input>
bjFbY0hdbmMoW05IMl0pYyhjMTIpbmMoQnIpbjJbQ0BASF0zW0NIMl1bQ0BASF0oW09IXSlbQ0BIXShPMylbQ0gyXVtPSF0=

> <s_epik_cmdline>
J2VwaWtfcHl0aG9uJywgJy1waCcsICc3LjAnLCAnLXRuJywgJzgnLCAnLW1hJywgJzIwMCcsICctbWV0YWxfYmluZGluZycsICctaW1hZScsICc8aW5maWxlLm1hZT4nLCAnLW9tYWUnLCAnPG91dGZpbGUubWFlPic=

> <r_lp_tautomer_probability>
1

> <r_epik_Ionization_Penalty>
0.000103242

> <r_epik_Ionization_Penalty_Charging>
0

> <r_epik_Ionization_Penalty_Neutral>
0.000103242

> <r_epik_State_Penalty>
-0

> <r_epik_Charging_Adjusted_Penalty>
0

> <i_epik_Tot_Q>
0

> <i_epik_Tot_abs_Q>
0

> <r_epik_Metal_State_Penalty>
-0

> <b_epik_Metal_Only>
0

> <s_epik_Chemistry_Notes>
This compound contains an acetal/aminal-like group ( X-CH(R)-Y where X, Y are N, S, or O) that may be acid/base labile, releasing an aldehyde.

> <s_lp_Force_Field>
OPLS_2005

> <r_lp_Energy>
31.1056

> <b_lp_Chiralities_Consistent>
1

> <s_lp_Variant>
AV-unprocessed.smi:285-5

> <Gold.Version>
5.8.1

> <Gold.Id.Protein>
6NUR|6NUR_protein|mol2

> <Gold.PLP.Fitness>
45.8267

> <Gold.PLP.PLP>
-34.1767

> <Gold.PLP.part.hbond>
-5.1661

> <Gold.PLP.part.metal>
0.0000

> <Gold.PLP.part.buried>
-4.6017

> <Gold.PLP.part.nonpolar>
-24.8335

> <Gold.PLP.part.repulsive>
0.2437

> <Gold.PLP.ligand.clash>
0.0000

> <Gold.PLP.ligand.torsion>
0.0291

> <Gold.PLP.Chemscore.Hbond>
3.8960

> <Gold.PLP.Chemscore.CHOScore>
0.0000

> <Gold.PLP.Chemscore.Metal>
0.0000

> <Gold.Chemscore.Hbonds>
donor molecule, donor type, donor heavy atom, donor atom, acceptor molecule, acceptor atom, score
      L1  H    15    27       P1  8028  1.00
      L1  H    18    31       P1  7957  1.00
      P1  H  7989  7998       L1    19  0.85
      P1  H  7997  8008       L1     8  0.94

> <Gold.PLP.Chemscore.Internal.Correction>
0.0201

> <Gold.Rescore>
     Score         DG    S(hbond)    S(metal)    S(lipo)     H(rot)  DE(clash)    DE(int)     intcor
      9.78     -11.55       2.81        0.00      38.68       3.06       0.14       1.63       ----

> <Gold.Chemscore.Fitness>
9.7781

> <Gold.Chemscore.DG>
-11.5504

> <Gold.Chemscore.ZeroCoef>
-5.4800

> <Gold.Chemscore.Hbond>
2.8086

> <Gold.Chemscore.Metal>
0.0000

> <Gold.Chemscore.Lipo>
38.6757

> <Gold.Chemscore.Internal_Hbond>
0.0000

> <Gold.Chemscore.DEClash>
0.1374

> <Gold.Chemscore.DEInternal>
1.6349

> <Gold.Chemscore.Rot>
3.0607

> <Gold.Chemscore.Internal.Correction>
   9.000000E+99

> <Gold.Chemscore.Hbonds>
donor molecule, donor type, donor heavy atom, donor atom, acceptor molecule, acceptor atom, score
      L1  H    15    27       P1  8028  0.93
      L1  H    18    31       P1  7957  0.87
      P1  H  7989  7998       L1    19  0.22
      P1  H  7997  8008       L1     8  0.44

> <Gold.Chemscore.Hbond.Weighted>
-9.3807

> <Gold.Chemscore.Metal.Weighted>
-0.0000

> <Gold.Chemscore.Lipo.Weighted>
-4.5251

> <Gold.Chemscore.Internal_Hbond.Weighted>
0.0000

> <Gold.Chemscore.DEClash.Weighted>
0.1374

> <Gold.Chemscore.DEInternal.Weighted>
1.6349

> <Gold.Chemscore.Rot.Weighted>
7.8354

> <Gold.Chemscore.Internal.Correction.Weighted>
   9.000000E+99

> <Gold.Protein.RotatedTorsions>
[ 6907 6896 6895 6894 ] final  -51.13 input  -60.11 | X-H torsion
[ 7974 7965 7964 7962 ] final -134.07 input  175.53 | X-H torsion
[ 8008 7997 7996 7995 ] final  -82.28 input   59.86 | X-H torsion
[ 10167 10162 10161 10158 ] final   15.79 input  -65.29 | X-H torsion
[ 10718 10713 10712 10709 ] final  149.06 input   66.30 | X-H torsion
[ 10763 10752 10751 10750 ] final  -41.56 input  -60.55 | X-H torsion
[ 11005 11000 10999 10996 ] final   70.28 input  -57.11 | X-H torsion

> <Gold.Protein.ActiveResidues>
 VAL166  LYS551  ARG553  GLY616  TRP617  ASP618  TYR619  PRO620  LYS621  CYS622 
 ASP623  PHE694  ASN695  SER759  ASP760  ASP761  ALA762  ILE779  LEU786  VAL792 
 PHE793  MET794  SER795  GLU796  ALA797  LYS798  CYS799  TRP800  GLU811  SER814 

> <Gold.Protein.RotatedAtoms>
  150.8641  134.8000  159.7104 H   0  0  0  0  0  0  0  0  0  0  0  0  # atno 6907 bound_to 6896
  152.4668  134.5053  159.9747 H   0  0  0  0  0  0  0  0  0  0  0  0  # atno 6908 bound_to 6896
  151.5152  133.3439  159.2927 H   0  0  0  0  0  0  0  0  0  0  0  0  # atno 6909 bound_to 6896
  144.9136  140.6926  143.5009 H   0  0  0  0  0  0  0  0  0  0  0  0  # atno 7974 bound_to 7965
  154.6069  140.0635  156.9443 H   0  0  0  0  0  0  0  0  0  0  0  0  # atno 8008 bound_to 7997
  155.2037  140.3317  155.4321 H   0  0  0  0  0  0  0  0  0  0  0  0  # atno 8009 bound_to 7997
  156.2353  140.1860  156.7119 H   0  0  0  0  0  0  0  0  0  0  0  0  # atno 8010 bound_to 7997
  140.5843  143.8921  150.6816 H   0  0  0  0  0  0  0  0  0  0  0  0  # atno 10167 bound_to 10162
  157.3008  131.0870  151.1391 H   0  0  0  0  0  0  0  0  0  0  0  0  # atno 10718 bound_to 10713
  153.9646  135.6735  153.4746 H   0  0  0  0  0  0  0  0  0  0  0  0  # atno 10763 bound_to 10752
  153.0822  135.4917  154.8522 H   0  0  0  0  0  0  0  0  0  0  0  0  # atno 10764 bound_to 10752
  154.7253  135.3126  154.8941 H   0  0  0  0  0  0  0  0  0  0  0  0  # atno 10765 bound_to 10752
  139.9606  134.7067  156.0654 H   0  0  0  0  0  0  0  0  0  0  0  0  # atno 11005 bound_to 11000
  145.3413  139.1731  143.4484 LP  0  0  0  0  0  0  0  0  0  0  0  0  # atno 17320 bound_to 7965
  146.3171  140.3455  142.8651 LP  0  0  0  0  0  0  0  0  0  0  0  0  # atno 17321 bound_to 7965
  140.2428  143.3651  152.1472 LP  0  0  0  0  0  0  0  0  0  0  0  0  # atno 17342 bound_to 10162
  139.5188  144.7011  151.5492 LP  0  0  0  0  0  0  0  0  0  0  0  0  # atno 17343 bound_to 10162
  157.2751  130.6723  149.6038 LP  0  0  0  0  0  0  0  0  0  0  0  0  # atno 17370 bound_to 10713
  155.9671  130.4467  150.5551 LP  0  0  0  0  0  0  0  0  0  0  0  0  # atno 17371 bound_to 10713
  141.1283  133.6593  156.3396 LP  0  0  0  0  0  0  0  0  0  0  0  0  # atno 17394 bound_to 11000
  140.5508  134.6029  157.5407 LP  0  0  0  0  0  0  0  0  0  0  0  0  # atno 17395 bound_to 11000

$$$$
