AV-unprocessed.smi:2761|AV-procd|sdf|10633|dock8
  -GOLD-   2272015 83D 1   1.00000     0.00000
 Structure written by MMmdl.
 27 28  0  0  0  0  0  0  0  0  1 V2000
  149.2962  135.3313  158.5885 O   0  0  0  0  0  0  0  0  0  0  0  0
  148.8175  136.3018  159.1796 C   0  0  0  0  0  0  0  0  0  0  0  0
  149.1038  137.5936  158.9071 N   0  0  0  0  0  0  0  0  0  0  0  0
  149.9857  138.1039  157.9480 C   0  0  0  0  0  0  0  0  0  0  0  0
  150.1988  139.5206  158.1227 C   0  0  0  0  0  0  0  0  0  0  0  0
  151.0332  140.1403  157.2602 C   0  0  0  0  0  0  0  0  0  0  0  0
  151.6987  139.3990  156.1894 C   0  0  0  0  0  0  0  0  0  0  0  0
  152.4698  139.8948  155.3716 O   0  0  0  0  0  0  0  0  0  0  0  0
  151.3836  138.0768  156.1748 N   0  0  0  0  0  0  0  0  0  0  0  0
  150.5373  137.3727  157.0233 N   0  0  0  0  0  0  0  0  0  0  0  0
  147.7955  136.0842  160.3056 C   0  0  1  0  0  0  0  0  0  0  0  0
  147.5736  134.5920  160.6468 C   0  0  0  0  0  0  0  0  0  0  0  0
  146.6487  134.4885  161.7216 O   0  0  0  0  0  0  0  0  0  0  0  0
  147.1269  135.1551  162.8814 C   0  0  0  0  0  0  0  0  0  0  0  0
  147.3358  136.6416  162.5507 C   0  0  0  0  0  0  0  0  0  0  0  0
  148.2603  136.7515  161.4768 O   0  0  0  0  0  0  0  0  0  0  0  0
  148.6157  138.2683  159.4781 H   0  0  0  0  0  0  0  0  0  0  0  0
  149.7253  140.0996  158.9025 H   0  0  0  0  0  0  0  0  0  0  0  0
  151.2142  141.2004  157.3610 H   0  0  0  0  0  0  0  0  0  0  0  0
  151.8054  137.4978  155.4628 H   0  0  0  0  0  0  0  0  0  0  0  0
  146.8526  136.5319  159.9864 H   0  0  0  0  0  0  0  0  0  0  0  0
  147.1630  134.0568  159.7900 H   0  0  0  0  0  0  0  0  0  0  0  0
  148.5117  134.1020  160.9140 H   0  0  0  0  0  0  0  0  0  0  0  0
  146.3969  135.0437  163.6832 H   0  0  0  0  0  0  0  0  0  0  0  0
  148.0558  134.6971  163.2250 H   0  0  0  0  0  0  0  0  0  0  0  0
  146.3912  137.1190  162.2862 H   0  0  0  0  0  0  0  0  0  0  0  0
  147.7325  137.1706  163.4173 H   0  0  0  0  0  0  0  0  0  0  0  0
  1  2  2  0  0  0  0
  2  3  1  0  0  0  0
  2 11  1  0  0  0  0
  3 17  1  0  0  0  0
  3  4  1  0  0  0  0
  4  5  1  0  0  0  0
  4 10  2  0  0  0  0
  5  6  2  0  0  0  0
  5 18  1  0  0  0  0
  6  7  1  0  0  0  0
  6 19  1  0  0  0  0
  7  8  2  0  0  0  0
  7  9  1  0  0  0  0
  9 10  1  0  0  0  0
  9 20  1  0  0  0  0
 11 16  1  0  0  0  0
 11 12  1  0  0  0  0
 11 21  1  0  0  0  0
 12 13  1  0  0  0  0
 12 22  1  0  0  0  0
 12 23  1  0  0  0  0
 13 14  1  0  0  0  0
 14 15  1  0  0  0  0
 14 24  1  0  0  0  0
 14 25  1  0  0  0  0
 15 16  1  0  0  0  0
 15 26  1  0  0  0  0
 15 27  1  0  0  0  0
M  END
> <s_m_source_file>
AV-unprocessed.smi

> <i_m_source_file_index>
2761

> <i_lp_mmshare_version>
43012

> <i_f3d_flags>
0

> <s_epik_input>
TzFbQ0gyXVtDSDJdT1tDSDJdW0NASF0xQyg9TylbTkhdYzJbY0hdW2NIXWMoW09IXSlubjI=

> <s_epik_cmdline>
J2VwaWtfcHl0aG9uJywgJy1waCcsICc3LjAnLCAnLXRuJywgJzgnLCAnLW1hJywgJzIwMCcsICctbWV0YWxfYmluZGluZycsICctaW1hZScsICc8aW5maWxlLm1hZT4nLCAnLW9tYWUnLCAnPG91dGZpbGUubWFlPic=

> <r_lp_tautomer_probability>
1

> <r_epik_Ionization_Penalty>
0.000593199

> <r_epik_Ionization_Penalty_Charging>
0.000590119

> <r_epik_Ionization_Penalty_Neutral>
3.08036e-06

> <r_epik_State_Penalty>
-0

> <r_epik_Charging_Adjusted_Penalty>
0.000590119

> <i_epik_Tot_Q>
0

> <i_epik_Tot_abs_Q>
0

> <r_epik_Metal_State_Penalty>
0.240077

> <b_epik_Metal_Only>
0

> <s_lp_Force_Field>
OPLS_2005

> <r_lp_Energy>
26.3126

> <b_lp_Chiralities_Consistent>
1

> <s_lp_Variant>
AV-unprocessed.smi:2761-2

> <Gold.Version>
5.8.1

> <Gold.Id.Protein>
6NUR|6NUR_protein|mol2

> <Gold.PLP.Fitness>
35.0346

> <Gold.PLP.PLP>
-25.2517

> <Gold.PLP.part.hbond>
-4.1736

> <Gold.PLP.part.metal>
0.0000

> <Gold.PLP.part.buried>
-3.8867

> <Gold.PLP.part.nonpolar>
-17.4716

> <Gold.PLP.part.repulsive>
0.2697

> <Gold.PLP.ligand.clash>
0.0000

> <Gold.PLP.ligand.torsion>
0.0686

> <Gold.PLP.Chemscore.Hbond>
3.3063

> <Gold.PLP.Chemscore.CHOScore>
0.0000

> <Gold.PLP.Chemscore.Metal>
0.0000

> <Gold.Chemscore.Hbonds>
donor molecule, donor type, donor heavy atom, donor atom, acceptor molecule, acceptor atom, score
      P1  H  6896  6908       L1     1  1.00
      P1  H  6931  6943       L1    16  1.00
      P1  H  7989  7998       L1     8  0.29
      P1  H  7997  8009       L1     8  0.94

> <Gold.PLP.Chemscore.Internal.Correction>
0.0012

> <Gold.Rescore>
     Score         DG    S(hbond)    S(metal)    S(lipo)     H(rot)  DE(clash)    DE(int)     intcor
     15.63     -17.15       2.89        0.00      39.26       1.00       0.08       1.45       ----

> <Gold.Chemscore.Fitness>
15.6273

> <Gold.Chemscore.DG>
-17.1536

> <Gold.Chemscore.ZeroCoef>
-5.4800

> <Gold.Chemscore.Hbond>
2.8861

> <Gold.Chemscore.Metal>
0.0000

> <Gold.Chemscore.Lipo>
39.2650

> <Gold.Chemscore.Internal_Hbond>
0.0000

> <Gold.Chemscore.DEClash>
0.0811

> <Gold.Chemscore.DEInternal>
1.4452

> <Gold.Chemscore.Rot>
1.0000

> <Gold.Chemscore.Internal.Correction>
   9.000000E+99

> <Gold.Chemscore.Hbonds>
donor molecule, donor type, donor heavy atom, donor atom, acceptor molecule, acceptor atom, score
      P1  H  6896  6908       L1     1  0.78
      P1  H  6931  6943       L1    16  0.26
      P1  H  7989  7998       L1     8  0.29
      P1  H  7997  8009       L1     8  0.86

> <Gold.Chemscore.Hbond.Weighted>
-9.6396

> <Gold.Chemscore.Metal.Weighted>
-0.0000

> <Gold.Chemscore.Lipo.Weighted>
-4.5940

> <Gold.Chemscore.Internal_Hbond.Weighted>
0.0000

> <Gold.Chemscore.DEClash.Weighted>
0.0811

> <Gold.Chemscore.DEInternal.Weighted>
1.4452

> <Gold.Chemscore.Rot.Weighted>
2.5600

> <Gold.Chemscore.Internal.Correction.Weighted>
   9.000000E+99

> <Gold.Protein.RotatedTorsions>
[ 6907 6896 6895 6894 ] final  170.11 input  -60.11 | X-H torsion
[ 7974 7965 7964 7962 ] final   41.68 input  175.53 | X-H torsion
[ 8008 7997 7996 7995 ] final -139.39 input   59.86 | X-H torsion
[ 10167 10162 10161 10158 ] final   46.29 input  -65.29 | X-H torsion
[ 10718 10713 10712 10709 ] final  127.27 input   66.30 | X-H torsion
[ 10763 10752 10751 10750 ] final   -6.89 input  -60.55 | X-H torsion
[ 11005 11000 10999 10996 ] final   82.83 input  -57.11 | X-H torsion

> <Gold.Protein.ActiveResidues>
 VAL166  LYS551  ARG553  GLY616  TRP617  ASP618  TYR619  PRO620  LYS621  CYS622 
 ASP623  PHE694  ASN695  SER759  ASP760  ASP761  ALA762  ILE779  LEU786  VAL792 
 PHE793  MET794  SER795  GLU796  ALA797  LYS798  CYS799  TRP800  GLU811  SER814 

> <Gold.Protein.RotatedAtoms>
  151.8213  133.3395  159.3584 H   0  0  0  0  0  0  0  0  0  0  0  0  # atno 6907 bound_to 6896
  150.7293  134.5571  159.5833 H   0  0  0  0  0  0  0  0  0  0  0  0  # atno 6908 bound_to 6896
  152.3004  134.7619  160.0410 H   0  0  0  0  0  0  0  0  0  0  0  0  # atno 6909 bound_to 6896
  146.0803  139.5387  142.9541 H   0  0  0  0  0  0  0  0  0  0  0  0  # atno 7974 bound_to 7965
  155.4440  140.0534  157.3007 H   0  0  0  0  0  0  0  0  0  0  0  0  # atno 8008 bound_to 7997
  154.4805  140.2079  155.9731 H   0  0  0  0  0  0  0  0  0  0  0  0  # atno 8009 bound_to 7997
  156.1199  140.3190  155.8198 H   0  0  0  0  0  0  0  0  0  0  0  0  # atno 8010 bound_to 7997
  140.3154  144.2770  150.6192 H   0  0  0  0  0  0  0  0  0  0  0  0  # atno 10167 bound_to 10162
  157.5347  131.1098  150.8954 H   0  0  0  0  0  0  0  0  0  0  0  0  # atno 10718 bound_to 10713
  153.4187  135.7009  153.6309 H   0  0  0  0  0  0  0  0  0  0  0  0  # atno 10763 bound_to 10752
  153.4772  135.3701  155.2423 H   0  0  0  0  0  0  0  0  0  0  0  0  # atno 10764 bound_to 10752
  154.8721  135.4057  154.3552 H   0  0  0  0  0  0  0  0  0  0  0  0  # atno 10765 bound_to 10752
  139.9050  134.8100  156.2228 H   0  0  0  0  0  0  0  0  0  0  0  0  # atno 11005 bound_to 11000
  145.6230  141.0319  143.1904 LP  0  0  0  0  0  0  0  0  0  0  0  0  # atno 17320 bound_to 7965
  144.7289  139.7788  143.7354 LP  0  0  0  0  0  0  0  0  0  0  0  0  # atno 17321 bound_to 7965
  140.5531  143.2203  151.7893 LP  0  0  0  0  0  0  0  0  0  0  0  0  # atno 17342 bound_to 10162
  139.4885  144.4450  151.9721 LP  0  0  0  0  0  0  0  0  0  0  0  0  # atno 17343 bound_to 10162
  156.9525  130.5425  149.5283 LP  0  0  0  0  0  0  0  0  0  0  0  0  # atno 17370 bound_to 10713
  156.0449  130.5527  150.8858 LP  0  0  0  0  0  0  0  0  0  0  0  0  # atno 17371 bound_to 10713
  141.0395  133.6945  156.1572 LP  0  0  0  0  0  0  0  0  0  0  0  0  # atno 17394 bound_to 11000
  140.6977  134.4598  157.5587 LP  0  0  0  0  0  0  0  0  0  0  0  0  # atno 17395 bound_to 11000

$$$$
