AV-unprocessed.smi:2118|AV-procd|sdf|8629|dock8
  -GOLD-   2272011373D 1   1.00000     0.00000
 Structure written by MMmdl.
 39 40  0  0  0  0  0  0  0  0  2 V2000
  150.9061  145.2462  160.4582 C   0  0  0  0  0  0  0  0  0  0  0  0
  152.1392  144.3369  160.3602 C   0  0  0  0  0  0  0  0  0  0  0  0
  152.0943  143.4464  159.1123 C   0  0  0  0  0  0  0  0  0  0  0  0
  153.3340  142.5408  159.0184 C   0  0  0  0  0  0  0  0  0  0  0  0
  153.5163  141.7290  160.2396 N   0  0  0  0  0  0  0  0  0  0  0  0
  154.6413  140.4054  160.1355 S   0  0  0  0  0  0  0  0  0  0  0  0
  155.9406  140.9871  159.7599 O   0  0  0  0  0  0  0  0  0  0  0  0
  154.5527  139.7022  161.4259 O   0  0  0  0  0  0  0  0  0  0  0  0
  153.9353  139.6166  158.9074 N   0  5  0  0  0  0  0  0  0  0  0  0
  152.6874  138.9157  159.1501 C   0  0  0  0  0  0  0  0  0  0  0  0
  151.5166  139.7003  158.5241 C   0  0  0  0  0  0  0  0  0  0  0  0
  151.1722  139.2616  157.1065 C   0  0  0  0  0  0  0  0  0  0  0  0
  151.0635  137.8930  156.7763 C   0  0  0  0  0  0  0  0  0  0  0  0
  150.7315  137.5351  155.4554 C   0  0  0  0  0  0  0  0  0  0  0  0
  150.5177  138.5631  154.5159 C   0  0  0  0  0  0  0  0  0  0  0  0
  150.6109  139.8757  154.8183 N   0  0  0  0  0  0  0  0  0  0  0  0
  150.9299  140.2107  156.0874 C   0  0  0  0  0  0  0  0  0  0  0  0
  153.5227  142.5303  161.4856 C   0  0  0  0  0  0  0  0  0  0  0  0
  152.2822  143.4325  161.5912 C   0  0  0  0  0  0  0  0  0  0  0  0
  149.9873  144.6631  160.5309 H   0  0  0  0  0  0  0  0  0  0  0  0
  150.8234  145.8906  159.5825 H   0  0  0  0  0  0  0  0  0  0  0  0
  150.9623  145.8899  161.3365 H   0  0  0  0  0  0  0  0  0  0  0  0
  153.0218  144.9755  160.2965 H   0  0  0  0  0  0  0  0  0  0  0  0
  151.1952  142.8285  159.1297 H   0  0  0  0  0  0  0  0  0  0  0  0
  152.0266  144.0636  158.2157 H   0  0  0  0  0  0  0  0  0  0  0  0
  153.2279  141.8878  158.1525 H   0  0  0  0  0  0  0  0  0  0  0  0
  154.2314  143.1388  158.8549 H   0  0  0  0  0  0  0  0  0  0  0  0
  152.7023  137.9098  158.7289 H   0  0  0  0  0  0  0  0  0  0  0  0
  152.5031  138.7913  160.2178 H   0  0  0  0  0  0  0  0  0  0  0  0
  150.6258  139.5950  159.1452 H   0  0  0  0  0  0  0  0  0  0  0  0
  151.7509  140.7658  158.5088 H   0  0  0  0  0  0  0  0  0  0  0  0
  151.2333  137.1301  157.5221 H   0  0  0  0  0  0  0  0  0  0  0  0
  150.6433  136.4976  155.1694 H   0  0  0  0  0  0  0  0  0  0  0  0
  150.2623  138.3244  153.4940 H   0  0  0  0  0  0  0  0  0  0  0  0
  150.9957  141.2685  156.2961 H   0  0  0  0  0  0  0  0  0  0  0  0
  153.5614  141.8773  162.3568 H   0  0  0  0  0  0  0  0  0  0  0  0
  154.4305  143.1343  161.5102 H   0  0  0  0  0  0  0  0  0  0  0  0
  152.3513  144.0394  162.4944 H   0  0  0  0  0  0  0  0  0  0  0  0
  151.3912  142.8128  161.7034 H   0  0  0  0  0  0  0  0  0  0  0  0
  1  2  1  0  0  0  0
  1 20  1  0  0  0  0
  1 21  1  0  0  0  0
  1 22  1  0  0  0  0
  2 19  1  0  0  0  0
  2  3  1  0  0  0  0
  2 23  1  0  0  0  0
  3  4  1  0  0  0  0
  3 24  1  0  0  0  0
  3 25  1  0  0  0  0
  4  5  1  0  0  0  0
  4 26  1  0  0  0  0
  4 27  1  0  0  0  0
  5  6  1  0  0  0  0
  5 18  1  0  0  0  0
  6  7  2  0  0  0  0
  6  8  2  0  0  0  0
  6  9  1  0  0  0  0
  9 10  1  0  0  0  0
 10 11  1  0  0  0  0
 10 28  1  0  0  0  0
 10 29  1  0  0  0  0
 11 12  1  0  0  0  0
 11 30  1  0  0  0  0
 11 31  1  0  0  0  0
 12 17  1  0  0  0  0
 12 13  2  0  0  0  0
 13 14  1  0  0  0  0
 13 32  1  0  0  0  0
 14 15  2  0  0  0  0
 14 33  1  0  0  0  0
 15 16  1  0  0  0  0
 15 34  1  0  0  0  0
 16 17  2  0  0  0  0
 17 35  1  0  0  0  0
 18 19  1  0  0  0  0
 18 36  1  0  0  0  0
 18 37  1  0  0  0  0
 19 38  1  0  0  0  0
 19 39  1  0  0  0  0
M  CHG  1   9  -1
M  END
> <s_m_source_file>
AV-unprocessed.smi

> <i_m_source_file_index>
2118

> <i_lp_mmshare_version>
43012

> <i_f3d_flags>
0

> <s_epik_input>
W0NIM11bQ0hdMVtDSDJdW0NIMl1OKFtDSDJdW0NIMl0xKVMoPU8pKD1PKVtOSF1bQ0gyXVtDSDJdYzJbY0hdW2NIXVtjSF1uW2NIXTI=

> <s_epik_cmdline>
J2VwaWtfcHl0aG9uJywgJy1waCcsICc3LjAnLCAnLXRuJywgJzgnLCAnLW1hJywgJzIwMCcsICctbWV0YWxfYmluZGluZycsICctaW1hZScsICc8aW5maWxlLm1hZT4nLCAnLW9tYWUnLCAnPG91dGZpbGUubWFlPic=

> <r_epik_Ionization_Penalty>
1.98317

> <r_epik_Ionization_Penalty_Charging>
1.95606

> <r_epik_Ionization_Penalty_Neutral>
0.0271171

> <r_epik_State_Penalty>
2.28376

> <r_epik_Charging_Adjusted_Penalty>
4.23982

> <i_epik_Tot_Q>
-1

> <i_epik_Tot_abs_Q>
1

> <r_epik_Metal_State_Penalty>
0.598332

> <b_epik_Metal_Only>
0

> <s_lp_Force_Field>
OPLS_2005

> <r_lp_Energy>
6.66289

> <b_lp_Chiralities_Consistent>
1

> <s_lp_Variant>
AV-unprocessed.smi:2118-2

> <Gold.Version>
5.8.1

> <Gold.Id.Protein>
6NUR|6NUR_protein|mol2

> <Gold.PLP.Fitness>
48.8476

> <Gold.PLP.PLP>
-38.0058

> <Gold.PLP.part.hbond>
-2.2464

> <Gold.PLP.part.metal>
0.0000

> <Gold.PLP.part.buried>
-5.4938

> <Gold.PLP.part.nonpolar>
-30.2549

> <Gold.PLP.part.repulsive>
0.0888

> <Gold.PLP.ligand.clash>
0.0000

> <Gold.PLP.ligand.torsion>
1.3412

> <Gold.PLP.Chemscore.Hbond>
3.0000

> <Gold.PLP.Chemscore.CHOScore>
0.9991

> <Gold.PLP.Chemscore.Metal>
0.0000

> <Gold.Chemscore.Hbonds>
donor molecule, donor type, donor heavy atom, donor atom, acceptor molecule, acceptor atom, score
      P1  H  7989  7998       L1    16  1.00
      P1  H  7997  8010       L1     9  2.00
      L1  C    15    34       P1  7948  0.05

> <Gold.PLP.Chemscore.Internal.Correction>
1.5268

> <Gold.Rescore>
     Score         DG    S(hbond)    S(metal)    S(lipo)     H(rot)  DE(clash)    DE(int)     intcor
     19.33     -20.44       1.84        0.00     106.38       1.42       0.02       1.08       ----

> <Gold.Chemscore.Fitness>
19.3329

> <Gold.Chemscore.DG>
-20.4364

> <Gold.Chemscore.ZeroCoef>
-5.4800

> <Gold.Chemscore.Hbond>
1.8411

> <Gold.Chemscore.Metal>
0.0000

> <Gold.Chemscore.Lipo>
106.3797

> <Gold.Chemscore.Internal_Hbond>
0.0000

> <Gold.Chemscore.DEClash>
0.0221

> <Gold.Chemscore.DEInternal>
1.0813

> <Gold.Chemscore.Rot>
1.4216

> <Gold.Chemscore.Internal.Correction>
   9.000000E+99

> <Gold.Chemscore.Hbonds>
donor molecule, donor type, donor heavy atom, donor atom, acceptor molecule, acceptor atom, score
      P1  H  7989  7998       L1    16  0.70
      P1  H  7997  8010       L1     9  0.69

> <Gold.Chemscore.Hbond.Weighted>
-6.1492

> <Gold.Chemscore.Metal.Weighted>
-0.0000

> <Gold.Chemscore.Lipo.Weighted>
-12.4464

> <Gold.Chemscore.Internal_Hbond.Weighted>
0.0000

> <Gold.Chemscore.DEClash.Weighted>
0.0221

> <Gold.Chemscore.DEInternal.Weighted>
1.0813

> <Gold.Chemscore.Rot.Weighted>
3.6392

> <Gold.Chemscore.Internal.Correction.Weighted>
   9.000000E+99

> <Gold.Protein.RotatedTorsions>
[ 6907 6896 6895 6894 ] final   16.74 input  -60.11 | X-H torsion
[ 7974 7965 7964 7962 ] final   93.46 input  175.53 | X-H torsion
[ 8008 7997 7996 7995 ] final   13.67 input   59.86 | X-H torsion
[ 10167 10162 10161 10158 ] final  -41.37 input  -65.29 | X-H torsion
[ 10718 10713 10712 10709 ] final  -59.51 input   66.30 | X-H torsion
[ 10763 10752 10751 10750 ] final  -60.28 input  -60.55 | X-H torsion
[ 11005 11000 10999 10996 ] final   18.60 input  -57.11 | X-H torsion

> <Gold.Protein.ActiveResidues>
 VAL166  LYS551  ARG553  GLY616  TRP617  ASP618  TYR619  PRO620  LYS621  CYS622 
 ASP623  PHE694  ASN695  SER759  ASP760  ASP761  ALA762  ILE779  LEU786  VAL792 
 PHE793  MET794  SER795  GLU796  ALA797  LYS798  CYS799  TRP800  GLU811  SER814 

> <Gold.Protein.RotatedAtoms>
  151.8386  135.0598  160.0445 H   0  0  0  0  0  0  0  0  0  0  0  0  # atno 6907 bound_to 6896
  152.2826  133.5480  159.5516 H   0  0  0  0  0  0  0  0  0  0  0  0  # atno 6908 bound_to 6896
  150.7196  134.0458  159.3823 H   0  0  0  0  0  0  0  0  0  0  0  0  # atno 6909 bound_to 6896
  145.4786  139.2279  143.2895 H   0  0  0  0  0  0  0  0  0  0  0  0  # atno 7974 bound_to 7965
  154.8377  140.2909  155.5680 H   0  0  0  0  0  0  0  0  0  0  0  0  # atno 8008 bound_to 7997
  156.3010  140.2520  156.3245 H   0  0  0  0  0  0  0  0  0  0  0  0  # atno 8009 bound_to 7997
  154.9161  140.0387  157.1962 H   0  0  0  0  0  0  0  0  0  0  0  0  # atno 8010 bound_to 7997
  140.7005  143.3099  151.3057 H   0  0  0  0  0  0  0  0  0  0  0  0  # atno 10167 bound_to 10162
  156.1056  130.4181  150.0726 H   0  0  0  0  0  0  0  0  0  0  0  0  # atno 10718 bound_to 10713
  154.2667  135.6298  153.5295 H   0  0  0  0  0  0  0  0  0  0  0  0  # atno 10763 bound_to 10752
  152.9886  135.5600  154.5645 H   0  0  0  0  0  0  0  0  0  0  0  0  # atno 10764 bound_to 10752
  154.5206  135.2882  155.1241 H   0  0  0  0  0  0  0  0  0  0  0  0  # atno 10765 bound_to 10752
  140.4230  134.1499  155.7674 H   0  0  0  0  0  0  0  0  0  0  0  0  # atno 11005 bound_to 11000
  146.2354  140.5570  142.8957 LP  0  0  0  0  0  0  0  0  0  0  0  0  # atno 17320 bound_to 7965
  144.7902  140.6017  143.6546 LP  0  0  0  0  0  0  0  0  0  0  0  0  # atno 17321 bound_to 7965
  139.6517  144.0349  152.2631 LP  0  0  0  0  0  0  0  0  0  0  0  0  # atno 17342 bound_to 10162
  139.9888  144.6376  150.7833 LP  0  0  0  0  0  0  0  0  0  0  0  0  # atno 17343 bound_to 10162
  156.8702  130.9521  151.3610 LP  0  0  0  0  0  0  0  0  0  0  0  0  # atno 17370 bound_to 10713
  157.6232  130.8671  149.9145 LP  0  0  0  0  0  0  0  0  0  0  0  0  # atno 17371 bound_to 10713
  141.1776  133.8481  157.1367 LP  0  0  0  0  0  0  0  0  0  0  0  0  # atno 17394 bound_to 11000
  140.0187  134.9956  157.0547 LP  0  0  0  0  0  0  0  0  0  0  0  0  # atno 17395 bound_to 11000

$$$$
