AV-unprocessed.smi:1643|AV-procd|sdf|6583|dock4
  -GOLD-   22720 7273D 1   1.00000     0.00000
 Structure written by MMmdl.
 54 56  0  0  0  0  0  0  0  0  2 V2000
  151.9956  140.2678  157.1503 C   0  0  0  0  0  0  0  0  0  0  0  0
  151.2634  140.3892  155.8115 C   0  0  0  0  0  0  0  0  0  0  0  0
  151.7094  139.7702  154.8450 O   0  0  0  0  0  0  0  0  0  0  0  0
  150.1608  141.1724  155.7327 N   0  0  0  0  0  0  0  0  0  0  0  0
  149.6089  141.8658  156.9020 C   0  0  0  0  0  0  0  0  0  0  0  0
  148.5637  140.9845  157.6052 C   0  0  0  0  0  0  0  0  0  0  0  0
  147.4162  140.4961  156.6960 C   0  0  0  0  0  0  0  0  0  0  0  0
  147.8430  139.5369  155.6678 N   0  0  0  0  0  0  0  0  0  0  0  0
  146.8194  138.5316  155.3770 C   0  0  0  0  0  0  0  0  0  0  0  0
  147.3449  137.2448  154.7078 C   0  0  1  0  0  0  0  0  0  0  0  0
  148.3968  136.7413  155.5058 O   0  0  0  0  0  0  0  0  0  0  0  0
  146.2466  136.1711  154.5606 C   0  0  0  0  0  0  0  0  0  0  0  0
  145.5328  136.2567  153.2792 N   0  0  0  0  0  0  0  0  0  0  0  0
  144.9054  137.3197  152.7075 C   0  0  0  0  0  0  0  0  0  0  0  0
  144.3881  136.9016  151.5194 N   0  3  0  0  0  0  0  0  0  0  0  0
  144.6898  135.5515  151.3293 C   0  0  0  0  0  0  0  0  0  0  0  0
  144.3823  134.6893  150.2836 C   0  0  0  0  0  0  0  0  0  0  0  0
  144.8415  133.3570  150.3900 C   0  0  0  0  0  0  0  0  0  0  0  0
  144.5226  132.3879  149.2642 C   0  0  0  0  0  0  0  0  0  0  0  0
  145.5862  132.9298  151.5198 C   0  0  0  0  0  0  0  0  0  0  0  0
  146.0802  131.4968  151.6215 C   0  0  0  0  0  0  0  0  0  0  0  0
  145.8873  133.8220  152.5734 C   0  0  0  0  0  0  0  0  0  0  0  0
  145.4255  135.1307  152.4545 C   0  0  0  0  0  0  0  0  0  0  0  0
  148.2554  140.2027  154.4230 C   0  0  0  0  0  0  0  0  0  0  0  0
  149.3270  141.3110  154.5331 C   0  0  0  0  0  0  0  0  0  0  0  0
  152.3197  141.2450  157.5081 H   0  0  0  0  0  0  0  0  0  0  0  0
  152.8834  139.6430  157.0456 H   0  0  0  0  0  0  0  0  0  0  0  0
  151.3540  139.8090  157.9027 H   0  0  0  0  0  0  0  0  0  0  0  0
  150.3969  142.1368  157.6064 H   0  0  0  0  0  0  0  0  0  0  0  0
  149.1561  142.8147  156.6124 H   0  0  0  0  0  0  0  0  0  0  0  0
  149.0564  140.1205  158.0528 H   0  0  0  0  0  0  0  0  0  0  0  0
  148.1391  141.5478  158.4364 H   0  0  0  0  0  0  0  0  0  0  0  0
  146.6759  140.0421  157.3518 H   0  0  0  0  0  0  0  0  0  0  0  0
  146.9032  141.3424  156.2368 H   0  0  0  0  0  0  0  0  0  0  0  0
  146.2884  138.2822  156.2971 H   0  0  0  0  0  0  0  0  0  0  0  0
  146.0704  138.9622  154.7102 H   0  0  0  0  0  0  0  0  0  0  0  0
  147.7692  137.4621  153.7285 H   0  0  0  0  0  0  0  0  0  0  0  0
  148.8448  136.0655  155.0200 H   0  0  0  0  0  0  0  0  0  0  0  0
  146.6510  135.1663  154.6857 H   0  0  0  0  0  0  0  0  0  0  0  0
  145.4971  136.2951  155.3434 H   0  0  0  0  0  0  0  0  0  0  0  0
  144.8302  138.3144  153.1229 H   0  0  0  0  0  0  0  0  0  0  0  0
  143.8174  135.0228  149.4254 H   0  0  0  0  0  0  0  0  0  0  0  0
  145.4403  132.0307  148.7961 H   0  0  0  0  0  0  0  0  0  0  0  0
  143.9151  132.8598  148.4911 H   0  0  0  0  0  0  0  0  0  0  0  0
  143.9690  131.5285  149.6429 H   0  0  0  0  0  0  0  0  0  0  0  0
  146.6575  131.3381  152.5330 H   0  0  0  0  0  0  0  0  0  0  0  0
  146.7218  131.2510  150.7747 H   0  0  0  0  0  0  0  0  0  0  0  0
  145.2402  130.8021  151.6338 H   0  0  0  0  0  0  0  0  0  0  0  0
  146.4591  133.4975  153.4302 H   0  0  0  0  0  0  0  0  0  0  0  0
  148.6435  139.4409  153.7461 H   0  0  0  0  0  0  0  0  0  0  0  0
  147.3806  140.6166  153.9191 H   0  0  0  0  0  0  0  0  0  0  0  0
  148.8211  142.2769  154.5478 H   0  0  0  0  0  0  0  0  0  0  0  0
  149.9294  141.3447  153.6251 H   0  0  0  0  0  0  0  0  0  0  0  0
  143.8671  137.4958  150.8875 H   0  0  0  0  0  0  0  0  0  0  0  0
  1  2  1  0  0  0  0
  1 26  1  0  0  0  0
  1 27  1  0  0  0  0
  1 28  1  0  0  0  0
  2  3  2  0  0  0  0
  2  4  1  0  0  0  0
  4 25  1  0  0  0  0
  4  5  1  0  0  0  0
  5  6  1  0  0  0  0
  5 29  1  0  0  0  0
  5 30  1  0  0  0  0
  6  7  1  0  0  0  0
  6 31  1  0  0  0  0
  6 32  1  0  0  0  0
  7  8  1  0  0  0  0
  7 33  1  0  0  0  0
  7 34  1  0  0  0  0
  8  9  1  0  0  0  0
  8 24  1  0  0  0  0
  9 10  1  0  0  0  0
  9 35  1  0  0  0  0
  9 36  1  0  0  0  0
 10 11  1  0  0  0  0
 10 12  1  0  0  0  0
 10 37  1  0  0  0  0
 11 38  1  0  0  0  0
 12 13  1  0  0  0  0
 12 39  1  0  0  0  0
 12 40  1  0  0  0  0
 13 23  1  0  0  0  0
 13 14  1  0  0  0  0
 14 15  2  0  0  0  0
 14 41  1  0  0  0  0
 15 16  1  0  0  0  0
 15 54  1  0  0  0  0
 16 23  2  0  0  0  0
 16 17  1  0  0  0  0
 17 18  2  0  0  0  0
 17 42  1  0  0  0  0
 18 19  1  0  0  0  0
 18 20  1  0  0  0  0
 19 43  1  0  0  0  0
 19 44  1  0  0  0  0
 19 45  1  0  0  0  0
 20 21  1  0  0  0  0
 20 22  2  0  0  0  0
 21 46  1  0  0  0  0
 21 47  1  0  0  0  0
 21 48  1  0  0  0  0
 22 23  1  0  0  0  0
 22 49  1  0  0  0  0
 24 25  1  0  0  0  0
 24 50  1  0  0  0  0
 24 51  1  0  0  0  0
 25 52  1  0  0  0  0
 25 53  1  0  0  0  0
M  CHG  1  15   1
M  END
> <s_m_source_file>
AV-unprocessed.smi

> <i_m_source_file_index>
1643

> <i_lp_mmshare_version>
43012

> <i_f3d_flags>
0

> <s_epik_input>
W0NIM11DKD1PKU4xW0NIMl1bQ0gyXVtDSDJdTihbQ0gyXVtDSDJdMSlbQ0gyXVtDQEhdKFtPSF0pW0NIMl1uKFtjSF1uMiljKGMyMylbY0hdYyhbQ0gzXSljKFtjSF0zKVtDSDNd

> <s_epik_cmdline>
J2VwaWtfcHl0aG9uJywgJy1waCcsICc3LjAnLCAnLXRuJywgJzgnLCAnLW1hJywgJzIwMCcsICctbWV0YWxfYmluZGluZycsICctaW1hZScsICc8aW5maWxlLm1hZT4nLCAnLW9tYWUnLCAnPG91dGZpbGUubWFlPic=

> <r_epik_Ionization_Penalty>
2.25269

> <r_epik_Ionization_Penalty_Charging>
1.20735

> <r_epik_Ionization_Penalty_Neutral>
1.04533

> <r_epik_State_Penalty>
2.37869

> <r_epik_Charging_Adjusted_Penalty>
3.58604

> <i_epik_Tot_Q>
1

> <i_epik_Tot_abs_Q>
1

> <r_epik_Metal_State_Penalty>
6.40045

> <b_epik_Metal_Only>
0

> <s_lp_Force_Field>
OPLS_2005

> <r_lp_Energy>
51.5531

> <b_lp_Chiralities_Consistent>
1

> <s_lp_Variant>
AV-unprocessed.smi:1643-12

> <Gold.Version>
5.8.1

> <Gold.Id.Protein>
6NUR|6NUR_protein|mol2

> <Gold.PLP.Fitness>
45.0873

> <Gold.PLP.PLP>
-37.2351

> <Gold.PLP.part.hbond>
-1.7663

> <Gold.PLP.part.metal>
0.0000

> <Gold.PLP.part.buried>
-5.1103

> <Gold.PLP.part.nonpolar>
-31.4535

> <Gold.PLP.part.repulsive>
0.0970

> <Gold.PLP.ligand.clash>
0.0000

> <Gold.PLP.ligand.torsion>
0.6118

> <Gold.PLP.Chemscore.Hbond>
2.0000

> <Gold.PLP.Chemscore.CHOScore>
0.9994

> <Gold.PLP.Chemscore.Metal>
0.0000

> <Gold.Chemscore.Hbonds>
donor molecule, donor type, donor heavy atom, donor atom, acceptor molecule, acceptor atom, score
      L1  H    15    54       P1 10171  0.99
      P1  H  7989  7998       L1     3  1.00
      L1  C    14    41       P1 10175  1.00

> <Gold.PLP.Chemscore.Internal.Correction>
0.0777

> <Gold.Rescore>
     Score         DG    S(hbond)    S(metal)    S(lipo)     H(rot)  DE(clash)    DE(int)     intcor
     15.07     -15.80       1.92        0.00      79.88       2.12       0.02       0.71       ----

> <Gold.Chemscore.Fitness>
15.0664

> <Gold.Chemscore.DG>
-15.7969

> <Gold.Chemscore.ZeroCoef>
-5.4800

> <Gold.Chemscore.Hbond>
1.9172

> <Gold.Chemscore.Metal>
0.0000

> <Gold.Chemscore.Lipo>
79.8777

> <Gold.Chemscore.Internal_Hbond>
0.0000

> <Gold.Chemscore.DEClash>
0.0224

> <Gold.Chemscore.DEInternal>
0.7082

> <Gold.Chemscore.Rot>
2.1220

> <Gold.Chemscore.Internal.Correction>
   9.000000E+99

> <Gold.Chemscore.Hbonds>
donor molecule, donor type, donor heavy atom, donor atom, acceptor molecule, acceptor atom, score
      L1  H    15    54       P1 10171  0.87
      P1  H  7989  7998       L1     3  0.54

> <Gold.Chemscore.Hbond.Weighted>
-6.4034

> <Gold.Chemscore.Metal.Weighted>
-0.0000

> <Gold.Chemscore.Lipo.Weighted>
-9.3457

> <Gold.Chemscore.Internal_Hbond.Weighted>
0.0000

> <Gold.Chemscore.DEClash.Weighted>
0.0224

> <Gold.Chemscore.DEInternal.Weighted>
0.7082

> <Gold.Chemscore.Rot.Weighted>
5.4322

> <Gold.Chemscore.Internal.Correction.Weighted>
   9.000000E+99

> <Gold.Protein.RotatedTorsions>
[ 6907 6896 6895 6894 ] final -108.24 input  -60.11 | X-H torsion
[ 7974 7965 7964 7962 ] final   10.30 input  175.53 | X-H torsion
[ 8008 7997 7996 7995 ] final   80.25 input   59.86 | X-H torsion
[ 10167 10162 10161 10158 ] final   47.87 input  -65.29 | X-H torsion
[ 10718 10713 10712 10709 ] final -165.13 input   66.30 | X-H torsion
[ 10763 10752 10751 10750 ] final   62.42 input  -60.55 | X-H torsion
[ 11005 11000 10999 10996 ] final  140.25 input  -57.11 | X-H torsion

> <Gold.Protein.ActiveResidues>
 VAL166  LYS551  ARG553  GLY616  TRP617  ASP618  TYR619  PRO620  LYS621  CYS622 
 ASP623  PHE694  ASN695  SER759  ASP760  ASP761  ALA762  ILE779  LEU786  VAL792 
 PHE793  MET794  SER795  GLU796  ALA797  LYS798  CYS799  TRP800  GLU811  SER814 

> <Gold.Protein.RotatedAtoms>
  150.7490  133.9706  159.3544 H   0  0  0  0  0  0  0  0  0  0  0  0  # atno 6907 bound_to 6896
  151.7640  135.0801  160.0359 H   0  0  0  0  0  0  0  0  0  0  0  0  # atno 6908 bound_to 6896
  152.3384  133.6001  159.5895 H   0  0  0  0  0  0  0  0  0  0  0  0  # atno 6909 bound_to 6896
  146.2390  139.9654  142.8453 H   0  0  0  0  0  0  0  0  0  0  0  0  # atno 7974 bound_to 7965
  155.8810  140.3444  155.5887 H   0  0  0  0  0  0  0  0  0  0  0  0  # atno 8008 bound_to 7997
  155.7720  140.0846  157.2122 H   0  0  0  0  0  0  0  0  0  0  0  0  # atno 8009 bound_to 7997
  154.4024  140.1516  156.2940 H   0  0  0  0  0  0  0  0  0  0  0  0  # atno 8010 bound_to 7997
  140.2992  144.2954  150.6223 H   0  0  0  0  0  0  0  0  0  0  0  0  # atno 10167 bound_to 10162
  156.6489  130.8999  151.3009 H   0  0  0  0  0  0  0  0  0  0  0  0  # atno 10718 bound_to 10713
  152.9982  135.5465  154.6190 H   0  0  0  0  0  0  0  0  0  0  0  0  # atno 10763 bound_to 10752
  154.5494  135.2825  155.1025 H   0  0  0  0  0  0  0  0  0  0  0  0  # atno 10764 bound_to 10752
  154.2271  135.6440  153.5216 H   0  0  0  0  0  0  0  0  0  0  0  0  # atno 10765 bound_to 10752
  140.0314  134.9350  157.0669 H   0  0  0  0  0  0  0  0  0  0  0  0  # atno 11005 bound_to 11000
  145.1731  140.9730  143.4310 LP  0  0  0  0  0  0  0  0  0  0  0  0  # atno 17320 bound_to 7965
  145.0010  139.3598  143.6167 LP  0  0  0  0  0  0  0  0  0  0  0  0  # atno 17321 bound_to 7965
  140.5666  143.2185  151.7673 LP  0  0  0  0  0  0  0  0  0  0  0  0  # atno 17342 bound_to 10162
  139.4919  144.4276  151.9909 LP  0  0  0  0  0  0  0  0  0  0  0  0  # atno 17343 bound_to 10162
  157.7147  130.9483  150.1213 LP  0  0  0  0  0  0  0  0  0  0  0  0  # atno 17370 bound_to 10713
  156.2100  130.3666  149.8682 LP  0  0  0  0  0  0  0  0  0  0  0  0  # atno 17371 bound_to 10713
  140.4220  134.1871  155.7165 LP  0  0  0  0  0  0  0  0  0  0  0  0  # atno 17394 bound_to 11000
  141.1833  133.8368  157.1180 LP  0  0  0  0  0  0  0  0  0  0  0  0  # atno 17395 bound_to 11000

$$$$
