AV-unprocessed.smi:2008|AV-procd|sdf|8144|dock7
  -GOLD-   2272010383D 1   1.00000     0.00000
 Structure written by MMmdl.
 46 47  0  0  0  0  0  0  0  0  2 V2000
  152.3959  139.8862  159.0834 C   0  0  0  0  0  0  0  0  0  0  0  0
  152.2671  140.1792  157.6965 O   0  0  0  0  0  0  0  0  0  0  0  0
  151.7365  139.2107  156.8692 C   0  0  0  0  0  0  0  0  0  0  0  0
  151.4443  139.5512  155.5338 C   0  0  0  0  0  0  0  0  0  0  0  0
  150.9034  138.5689  154.6824 C   0  0  0  0  0  0  0  0  0  0  0  0
  150.6782  137.2683  155.1940 C   0  0  0  0  0  0  0  0  0  0  0  0
  150.1240  136.1941  154.4457 N   0  0  0  0  0  0  0  0  0  0  0  0
  149.8751  134.9345  154.8429 C   0  0  0  0  0  0  0  0  0  0  0  0
  150.0773  134.4878  155.9718 O   0  0  0  0  0  0  0  0  0  0  0  0
  149.3544  134.2037  153.8466 N   0  0  0  0  0  0  0  0  0  0  0  0
  148.9566  132.8047  153.9599 C   0  0  0  0  0  0  0  0  0  0  0  0
  147.4929  132.5945  153.5207 C   0  0  0  0  0  0  0  0  0  0  0  0
  147.3176  131.3908  152.6581 N   0  3  1  0  0  0  0  0  0  0  0  0
  147.6556  130.1409  153.4002 C   0  0  0  0  0  0  0  0  0  0  0  0
  147.6069  128.9000  152.4987 C   0  0  0  0  0  0  0  0  0  0  0  0
  146.2249  128.7591  151.8627 C   0  0  0  0  0  0  0  0  0  0  0  0
  145.8911  130.0408  151.0968 C   0  0  0  0  0  0  0  0  0  0  0  0
  145.9755  131.2979  151.9921 C   0  0  2  0  0  0  0  0  0  0  0  0
  145.6381  132.5301  151.1247 C   0  0  0  0  0  0  0  0  0  0  0  0
  150.9921  137.0342  156.5489 C   0  0  0  0  0  0  0  0  0  0  0  0
  151.5112  137.9709  157.3700 N   0  0  0  0  0  0  0  0  0  0  0  0
  152.8257  140.7470  159.5955 H   0  0  0  0  0  0  0  0  0  0  0  0
  153.0590  139.0364  159.2516 H   0  0  0  0  0  0  0  0  0  0  0  0
  151.4265  139.6803  159.5395 H   0  0  0  0  0  0  0  0  0  0  0  0
  151.6279  140.5512  155.1692 H   0  0  0  0  0  0  0  0  0  0  0  0
  150.6625  138.8384  153.6661 H   0  0  0  0  0  0  0  0  0  0  0  0
  149.8320  136.4295  153.5083 H   0  0  0  0  0  0  0  0  0  0  0  0
  149.2143  134.6489  152.9510 H   0  0  0  0  0  0  0  0  0  0  0  0
  149.6271  132.1795  153.3675 H   0  0  0  0  0  0  0  0  0  0  0  0
  149.1028  132.5181  155.0001 H   0  0  0  0  0  0  0  0  0  0  0  0
  146.8350  132.5251  154.3884 H   0  0  0  0  0  0  0  0  0  0  0  0
  147.1939  133.4950  152.9923 H   0  0  0  0  0  0  0  0  0  0  0  0
  148.6545  130.2053  153.8283 H   0  0  0  0  0  0  0  0  0  0  0  0
  146.9656  130.0174  154.2366 H   0  0  0  0  0  0  0  0  0  0  0  0
  148.3684  128.9762  151.7212 H   0  0  0  0  0  0  0  0  0  0  0  0
  147.8424  128.0069  153.0786 H   0  0  0  0  0  0  0  0  0  0  0  0
  146.2024  127.9003  151.1910 H   0  0  0  0  0  0  0  0  0  0  0  0
  145.4740  128.5774  152.6329 H   0  0  0  0  0  0  0  0  0  0  0  0
  146.5743  130.1440  150.2522 H   0  0  0  0  0  0  0  0  0  0  0  0
  144.8910  129.9514  150.6707 H   0  0  0  0  0  0  0  0  0  0  0  0
  145.2180  131.2122  152.7731 H   0  0  0  0  0  0  0  0  0  0  0  0
  144.7575  132.3437  150.5091 H   0  0  0  0  0  0  0  0  0  0  0  0
  146.4586  132.7815  150.4517 H   0  0  0  0  0  0  0  0  0  0  0  0
  145.4001  133.4111  151.7194 H   0  0  0  0  0  0  0  0  0  0  0  0
  150.8257  136.0622  156.9901 H   0  0  0  0  0  0  0  0  0  0  0  0
  147.9904  131.4778  151.9097 H   0  0  0  0  0  0  0  0  0  0  0  0
  1  2  1  0  0  0  0
  1 22  1  0  0  0  0
  1 23  1  0  0  0  0
  1 24  1  0  0  0  0
  2  3  1  0  0  0  0
  3 21  1  0  0  0  0
  3  4  2  0  0  0  0
  4  5  1  0  0  0  0
  4 25  1  0  0  0  0
  5  6  2  0  0  0  0
  5 26  1  0  0  0  0
  6  7  1  0  0  0  0
  6 20  1  0  0  0  0
  7  8  1  0  0  0  0
  7 27  1  0  0  0  0
  8  9  2  0  0  0  0
  8 10  1  0  0  0  0
 10 11  1  0  0  0  0
 10 28  1  0  0  0  0
 11 12  1  0  0  0  0
 11 29  1  0  0  0  0
 11 30  1  0  0  0  0
 12 13  1  0  0  0  0
 12 31  1  0  0  0  0
 12 32  1  0  0  0  0
 13 18  1  0  0  0  0
 13 14  1  0  0  0  0
 13 46  1  0  0  0  0
 14 15  1  0  0  0  0
 14 33  1  0  0  0  0
 14 34  1  0  0  0  0
 15 16  1  0  0  0  0
 15 35  1  0  0  0  0
 15 36  1  0  0  0  0
 16 17  1  0  0  0  0
 16 37  1  0  0  0  0
 16 38  1  0  0  0  0
 17 18  1  0  0  0  0
 17 39  1  0  0  0  0
 17 40  1  0  0  0  0
 18 19  1  0  0  0  0
 18 41  1  0  0  0  0
 19 42  1  0  0  0  0
 19 43  1  0  0  0  0
 19 44  1  0  0  0  0
 20 21  2  0  0  0  0
 20 45  1  0  0  0  0
M  CHG  1  13   1
M  END
> <s_m_source_file>
AV-unprocessed.smi

> <i_m_source_file_index>
2008

> <i_lp_mmshare_version>
43012

> <i_f3d_flags>
0

> <s_epik_input>
W0NIM11PYzFbY0hdW2NIXWMoW2NIXW4xKVtOSF1DKD1PKVtOSF1bQ0gyXVtDSDJdTjJbQ0gyXVtDSDJdW0NIMl1bQ0gyXVtDQEhdMltDSDNd

> <s_epik_cmdline>
J2VwaWtfcHl0aG9uJywgJy1waCcsICc3LjAnLCAnLXRuJywgJzgnLCAnLW1hJywgJzIwMCcsICctbWV0YWxfYmluZGluZycsICctaW1hZScsICc8aW5maWxlLm1hZT4nLCAnLW9tYWUnLCAnPG91dGZpbGUubWFlPic=

> <r_lp_tautomer_probability>
1

> <r_epik_Ionization_Penalty>
0.00219526

> <r_epik_Ionization_Penalty_Charging>
0.00211816

> <r_epik_Ionization_Penalty_Neutral>
7.71003e-05

> <r_epik_State_Penalty>
0.00145254

> <r_epik_Charging_Adjusted_Penalty>
0.0035707

> <i_epik_Tot_Q>
1

> <i_epik_Tot_abs_Q>
1

> <r_epik_Metal_State_Penalty>
-0

> <b_epik_Metal_Only>
0

> <s_lp_Force_Field>
OPLS_2005

> <r_lp_Energy>
23.0726

> <b_lp_Chiralities_Consistent>
1

> <s_lp_Variant>
AV-unprocessed.smi:2008-4

> <Gold.Version>
5.8.1

> <Gold.Id.Protein>
6NUR|6NUR_protein|mol2

> <Gold.PLP.Fitness>
44.7718

> <Gold.PLP.PLP>
-36.1476

> <Gold.PLP.part.hbond>
-5.0000

> <Gold.PLP.part.metal>
0.0000

> <Gold.PLP.part.buried>
-3.5496

> <Gold.PLP.part.nonpolar>
-28.5615

> <Gold.PLP.part.repulsive>
0.1221

> <Gold.PLP.ligand.clash>
0.0000

> <Gold.PLP.ligand.torsion>
0.4254

> <Gold.PLP.Chemscore.Hbond>
3.1500

> <Gold.PLP.Chemscore.CHOScore>
0.0000

> <Gold.PLP.Chemscore.Metal>
0.0000

> <Gold.Chemscore.Hbonds>
donor molecule, donor type, donor heavy atom, donor atom, acceptor molecule, acceptor atom, score
      L1  H     7    27       P1  7948  0.95
      L1  H    10    28       P1  7948  0.30
      L1  H    13    46       P1 10747  1.00
      P1  H  7997  8009       L1     2  0.16

> <Gold.PLP.Chemscore.Internal.Correction>
0.0250

> <Gold.Rescore>
     Score         DG    S(hbond)    S(metal)    S(lipo)     H(rot)  DE(clash)    DE(int)     intcor
     14.49     -17.04       1.47        0.00      94.32       1.71       0.57       1.99       ----

> <Gold.Chemscore.Fitness>
14.4921

> <Gold.Chemscore.DG>
-17.0439

> <Gold.Chemscore.ZeroCoef>
-5.4800

> <Gold.Chemscore.Hbond>
1.4696

> <Gold.Chemscore.Metal>
0.0000

> <Gold.Chemscore.Lipo>
94.3163

> <Gold.Chemscore.Internal_Hbond>
0.0000

> <Gold.Chemscore.DEClash>
0.5651

> <Gold.Chemscore.DEInternal>
1.9868

> <Gold.Chemscore.Rot>
1.7107

> <Gold.Chemscore.Internal.Correction>
   9.000000E+99

> <Gold.Chemscore.Hbonds>
donor molecule, donor type, donor heavy atom, donor atom, acceptor molecule, acceptor atom, score
      L1  H     7    27       P1  7948  0.21
      L1  H    13    46       P1 10747  0.94
      P1  H  7997  8009       L1     2  0.01

> <Gold.Chemscore.Hbond.Weighted>
-4.9083

> <Gold.Chemscore.Metal.Weighted>
-0.0000

> <Gold.Chemscore.Lipo.Weighted>
-11.0350

> <Gold.Chemscore.Internal_Hbond.Weighted>
0.0000

> <Gold.Chemscore.DEClash.Weighted>
0.5651

> <Gold.Chemscore.DEInternal.Weighted>
1.9868

> <Gold.Chemscore.Rot.Weighted>
4.3794

> <Gold.Chemscore.Internal.Correction.Weighted>
   9.000000E+99

> <Gold.Protein.RotatedTorsions>
[ 6907 6896 6895 6894 ] final  -38.67 input  -60.11 | X-H torsion
[ 7974 7965 7964 7962 ] final  118.04 input  175.53 | X-H torsion
[ 8008 7997 7996 7995 ] final  173.81 input   59.86 | X-H torsion
[ 10167 10162 10161 10158 ] final  -27.43 input  -65.29 | X-H torsion
[ 10718 10713 10712 10709 ] final  -65.16 input   66.30 | X-H torsion
[ 10763 10752 10751 10750 ] final  162.51 input  -60.55 | X-H torsion
[ 11005 11000 10999 10996 ] final  -30.66 input  -57.11 | X-H torsion

> <Gold.Protein.ActiveResidues>
 VAL166  LYS551  ARG553  GLY616  TRP617  ASP618  TYR619  PRO620  LYS621  CYS622 
 ASP623  PHE694  ASN695  SER759  ASP760  ASP761  ALA762  ILE779  LEU786  VAL792 
 PHE793  MET794  SER795  GLU796  ALA797  LYS798  CYS799  TRP800  GLU811  SER814 

> <Gold.Protein.RotatedAtoms>
  150.9996  134.9311  159.7945 H   0  0  0  0  0  0  0  0  0  0  0  0  # atno 6907 bound_to 6896
  152.5274  134.3172  159.9145 H   0  0  0  0  0  0  0  0  0  0  0  0  # atno 6908 bound_to 6896
  151.3178  133.4011  159.2686 H   0  0  0  0  0  0  0  0  0  0  0  0  # atno 6909 bound_to 6896
  145.1600  139.3160  143.4522 H   0  0  0  0  0  0  0  0  0  0  0  0  # atno 7974 bound_to 7965
  156.1037  140.1450  156.9432 H   0  0  0  0  0  0  0  0  0  0  0  0  # atno 8008 bound_to 7997
  154.4720  140.0907  156.7212 H   0  0  0  0  0  0  0  0  0  0  0  0  # atno 8009 bound_to 7997
  155.4715  140.3442  155.4328 H   0  0  0  0  0  0  0  0  0  0  0  0  # atno 8010 bound_to 7997
  140.7277  143.4094  151.1131 H   0  0  0  0  0  0  0  0  0  0  0  0  # atno 10167 bound_to 10162
  156.0686  130.4243  150.1524 H   0  0  0  0  0  0  0  0  0  0  0  0  # atno 10718 bound_to 10713
  154.2795  135.2763  155.2703 H   0  0  0  0  0  0  0  0  0  0  0  0  # atno 10763 bound_to 10752
  154.5230  135.5751  153.6700 H   0  0  0  0  0  0  0  0  0  0  0  0  # atno 10764 bound_to 10752
  152.9931  135.6209  154.2954 H   0  0  0  0  0  0  0  0  0  0  0  0  # atno 10765 bound_to 10752
  140.9402  133.7284  156.1064 H   0  0  0  0  0  0  0  0  0  0  0  0  # atno 11005 bound_to 11000
  146.3483  140.1707  142.8589 LP  0  0  0  0  0  0  0  0  0  0  0  0  # atno 17320 bound_to 7965
  145.0341  140.8894  143.5092 LP  0  0  0  0  0  0  0  0  0  0  0  0  # atno 17321 bound_to 7965
  139.7725  143.8474  152.3123 LP  0  0  0  0  0  0  0  0  0  0  0  0  # atno 17342 bound_to 10162
  139.8397  144.7216  150.9347 LP  0  0  0  0  0  0  0  0  0  0  0  0  # atno 17343 bound_to 10162
  156.9579  130.9795  151.3485 LP  0  0  0  0  0  0  0  0  0  0  0  0  # atno 17370 bound_to 10713
  157.5743  130.8332  149.8434 LP  0  0  0  0  0  0  0  0  0  0  0  0  # atno 17371 bound_to 10713
  140.7745  134.3795  157.5501 LP  0  0  0  0  0  0  0  0  0  0  0  0  # atno 17394 bound_to 11000
  139.8818  134.9043  156.2873 LP  0  0  0  0  0  0  0  0  0  0  0  0  # atno 17395 bound_to 11000

$$$$
