AV-unprocessed.smi:1216|AV-procd|sdf|5099|dock1
  -GOLD-   22720 4153D 1   1.00000     0.00000
 Structure written by MMmdl.
 43 44  0  0  0  0  0  0  0  0  2 V2000
  153.3431  139.4320  159.6834 C   0  0  0  0  0  0  0  0  0  0  0  0
  152.5367  140.7369  159.6371 C   0  0  1  0  0  0  0  0  0  0  0  0
  153.3382  141.9090  160.2442 C   0  0  0  0  0  0  0  0  0  0  0  0
  152.5067  143.0765  160.5559 N   0  0  0  0  0  0  0  0  0  0  0  0
  151.9498  143.9635  159.6704 C   0  0  0  0  0  0  0  0  0  0  0  0
  151.2560  144.8789  160.4191 C   0  0  0  0  0  0  0  0  0  0  0  0
  151.4242  144.5163  161.7286 N   0  3  0  0  0  0  0  0  0  0  0  0
  152.1885  143.4226  161.8100 C   0  0  0  0  0  0  0  0  0  0  0  0
  152.1672  141.0124  158.2496 N   0  0  0  0  0  0  0  0  0  0  0  0
  150.9802  141.4758  157.8279 C   0  0  0  0  0  0  0  0  0  0  0  0
  150.0577  141.7658  158.5913 O   0  0  0  0  0  0  0  0  0  0  0  0
  150.8353  141.6616  156.3115 C   0  0  0  0  0  0  0  0  0  0  0  0
  149.7910  140.8128  155.7178 N   0  0  0  0  0  0  0  0  0  0  0  0
  148.4130  141.0347  156.1843 C   0  0  0  0  0  0  0  0  0  0  0  0
  147.4911  141.6753  155.1208 C   0  0  0  0  0  0  0  0  0  0  0  0
  147.8103  141.3373  153.6511 C   0  0  0  0  0  0  0  0  0  0  0  0
  147.9394  139.8311  153.3407 C   0  0  0  0  0  0  0  0  0  0  0  0
  148.9417  139.0302  154.2061 C   0  0  0  0  0  0  0  0  0  0  0  0
  150.0906  139.8688  154.7900 C   0  0  0  0  0  0  0  0  0  0  0  0
  151.2383  139.6558  154.3978 O   0  0  0  0  0  0  0  0  0  0  0  0
  153.6102  139.1714  160.7080 H   0  0  0  0  0  0  0  0  0  0  0  0
  154.2671  139.5140  159.1100 H   0  0  0  0  0  0  0  0  0  0  0  0
  152.7691  138.5998  159.2739 H   0  0  0  0  0  0  0  0  0  0  0  0
  151.6349  140.5756  160.2308 H   0  0  0  0  0  0  0  0  0  0  0  0
  153.8190  141.5995  161.1733 H   0  0  0  0  0  0  0  0  0  0  0  0
  154.1343  142.2265  159.5690 H   0  0  0  0  0  0  0  0  0  0  0  0
  152.0799  143.8756  158.6016 H   0  0  0  0  0  0  0  0  0  0  0  0
  150.6711  145.7387  160.1261 H   0  0  0  0  0  0  0  0  0  0  0  0
  152.4828  142.9141  162.7109 H   0  0  0  0  0  0  0  0  0  0  0  0
  152.8651  140.8087  157.5483 H   0  0  0  0  0  0  0  0  0  0  0  0
  150.6254  142.7133  156.1134 H   0  0  0  0  0  0  0  0  0  0  0  0
  151.7939  141.4641  155.8280 H   0  0  0  0  0  0  0  0  0  0  0  0
  147.9898  140.0870  156.5177 H   0  0  0  0  0  0  0  0  0  0  0  0
  148.4053  141.6540  157.0822 H   0  0  0  0  0  0  0  0  0  0  0  0
  146.4584  141.4043  155.3419 H   0  0  0  0  0  0  0  0  0  0  0  0
  147.5389  142.7593  155.2286 H   0  0  0  0  0  0  0  0  0  0  0  0
  147.0323  141.7621  153.0162 H   0  0  0  0  0  0  0  0  0  0  0  0
  148.7262  141.8496  153.3531 H   0  0  0  0  0  0  0  0  0  0  0  0
  146.9569  139.3664  153.4303 H   0  0  0  0  0  0  0  0  0  0  0  0
  148.2181  139.7221  152.2919 H   0  0  0  0  0  0  0  0  0  0  0  0
  148.4183  138.5324  155.0220 H   0  0  0  0  0  0  0  0  0  0  0  0
  149.3595  138.2182  153.6093 H   0  0  0  0  0  0  0  0  0  0  0  0
  151.0269  145.0024  162.5227 H   0  0  0  0  0  0  0  0  0  0  0  0
  1  2  1  0  0  0  0
  1 21  1  0  0  0  0
  1 22  1  0  0  0  0
  1 23  1  0  0  0  0
  2  3  1  0  0  0  0
  2  9  1  0  0  0  0
  2 24  1  0  0  0  0
  3  4  1  0  0  0  0
  3 25  1  0  0  0  0
  3 26  1  0  0  0  0
  4  8  1  0  0  0  0
  4  5  1  0  0  0  0
  5  6  2  0  0  0  0
  5 27  1  0  0  0  0
  6  7  1  0  0  0  0
  6 28  1  0  0  0  0
  7  8  2  0  0  0  0
  7 43  1  0  0  0  0
  8 29  1  0  0  0  0
  9 10  1  0  0  0  0
  9 30  1  0  0  0  0
 10 11  2  0  0  0  0
 10 12  1  0  0  0  0
 12 13  1  0  0  0  0
 12 31  1  0  0  0  0
 12 32  1  0  0  0  0
 13 19  1  0  0  0  0
 13 14  1  0  0  0  0
 14 15  1  0  0  0  0
 14 33  1  0  0  0  0
 14 34  1  0  0  0  0
 15 16  1  0  0  0  0
 15 35  1  0  0  0  0
 15 36  1  0  0  0  0
 16 17  1  0  0  0  0
 16 37  1  0  0  0  0
 16 38  1  0  0  0  0
 17 18  1  0  0  0  0
 17 39  1  0  0  0  0
 17 40  1  0  0  0  0
 18 19  1  0  0  0  0
 18 41  1  0  0  0  0
 18 42  1  0  0  0  0
 19 20  2  0  0  0  0
M  CHG  1   7   1
M  END
> <s_m_source_file>
AV-unprocessed.smi

> <i_m_source_file_index>
1216

> <i_lp_mmshare_version>
43012

> <i_f3d_flags>
0

> <s_epik_input>
W2NIXTFuW2NIXVtjSF1uMVtDSDJdW0NAQEhdKFtDSDNdKVtOSF1DKD1PKVtDSDJdTjJbQ0gyXVtDSDJdW0NIMl1bQ0gyXVtDSDJdQzI9Tw==

> <s_epik_cmdline>
J2VwaWtfcHl0aG9uJywgJy1waCcsICc3LjAnLCAnLXRuJywgJzgnLCAnLW1hJywgJzIwMCcsICctbWV0YWxfYmluZGluZycsICctaW1hZScsICc8aW5maWxlLm1hZT4nLCAnLW9tYWUnLCAnPG91dGZpbGUubWFlPic=

> <r_lp_tautomer_probability>
1

> <r_epik_Ionization_Penalty>
0.254232

> <r_epik_Ionization_Penalty_Charging>
0

> <r_epik_Ionization_Penalty_Neutral>
0.254232

> <r_epik_State_Penalty>
0.245698

> <r_epik_Charging_Adjusted_Penalty>
0.245698

> <i_epik_Tot_Q>
1

> <i_epik_Tot_abs_Q>
1

> <r_epik_Metal_State_Penalty>
0.535799

> <b_epik_Metal_Only>
0

> <s_lp_Force_Field>
OPLS_2005

> <r_lp_Energy>
21.2202

> <b_lp_Chiralities_Consistent>
1

> <s_lp_Variant>
AV-unprocessed.smi:1216-2

> <Gold.Version>
5.8.1

> <Gold.Id.Protein>
6NUR|6NUR_protein|mol2

> <Gold.PLP.Fitness>
49.2365

> <Gold.PLP.PLP>
-47.1600

> <Gold.PLP.part.hbond>
-2.1798

> <Gold.PLP.part.metal>
0.0000

> <Gold.PLP.part.buried>
-4.7517

> <Gold.PLP.part.nonpolar>
-39.4540

> <Gold.PLP.part.repulsive>
0.3168

> <Gold.PLP.ligand.clash>
0.0000

> <Gold.PLP.ligand.torsion>
0.5594

> <Gold.PLP.Chemscore.Hbond>
1.0000

> <Gold.PLP.Chemscore.CHOScore>
0.0000

> <Gold.PLP.Chemscore.Metal>
0.0000

> <Gold.Chemscore.Hbonds>
donor molecule, donor type, donor heavy atom, donor atom, acceptor molecule, acceptor atom, score
      P1  H  7989  7998       L1    20  1.00

> <Gold.PLP.Chemscore.Internal.Correction>
0.1952

> <Gold.Rescore>
     Score         DG    S(hbond)    S(metal)    S(lipo)     H(rot)  DE(clash)    DE(int)     intcor
     10.75     -12.61       0.99        0.00      81.29       2.22       0.02       1.84       ----

> <Gold.Chemscore.Fitness>
10.7506

> <Gold.Chemscore.DG>
-12.6131

> <Gold.Chemscore.ZeroCoef>
-5.4800

> <Gold.Chemscore.Hbond>
0.9867

> <Gold.Chemscore.Metal>
0.0000

> <Gold.Chemscore.Lipo>
81.2892

> <Gold.Chemscore.Internal_Hbond>
0.0000

> <Gold.Chemscore.DEClash>
0.0197

> <Gold.Chemscore.DEInternal>
1.8428

> <Gold.Chemscore.Rot>
2.2161

> <Gold.Chemscore.Internal.Correction>
   9.000000E+99

> <Gold.Chemscore.Hbonds>
donor molecule, donor type, donor heavy atom, donor atom, acceptor molecule, acceptor atom, score
      P1  H  7989  7998       L1    20  0.58

> <Gold.Chemscore.Hbond.Weighted>
-3.2955

> <Gold.Chemscore.Metal.Weighted>
-0.0000

> <Gold.Chemscore.Lipo.Weighted>
-9.5108

> <Gold.Chemscore.Internal_Hbond.Weighted>
0.0000

> <Gold.Chemscore.DEClash.Weighted>
0.0197

> <Gold.Chemscore.DEInternal.Weighted>
1.8428

> <Gold.Chemscore.Rot.Weighted>
5.6733

> <Gold.Chemscore.Internal.Correction.Weighted>
   9.000000E+99

> <Gold.Protein.RotatedTorsions>
[ 6907 6896 6895 6894 ] final -166.39 input  -60.11 | X-H torsion
[ 7974 7965 7964 7962 ] final   76.97 input  175.53 | X-H torsion
[ 8008 7997 7996 7995 ] final -123.34 input   59.86 | X-H torsion
[ 10167 10162 10161 10158 ] final -145.47 input  -65.29 | X-H torsion
[ 10718 10713 10712 10709 ] final  -73.16 input   66.30 | X-H torsion
[ 10763 10752 10751 10750 ] final -144.44 input  -60.55 | X-H torsion
[ 11005 11000 10999 10996 ] final   26.02 input  -57.11 | X-H torsion

> <Gold.Protein.ActiveResidues>
 VAL166  LYS551  ARG553  GLY616  TRP617  ASP618  TYR619  PRO620  LYS621  CYS622 
 ASP623  PHE694  ASN695  SER759  ASP760  ASP761  ALA762  ILE779  LEU786  VAL792 
 PHE793  MET794  SER795  GLU796  ALA797  LYS798  CYS799  TRP800  GLU811  SER814 

> <Gold.Protein.RotatedAtoms>
  151.4428  133.3638  159.2783 H   0  0  0  0  0  0  0  0  0  0  0  0  # atno 6907 bound_to 6896
  150.9145  134.8564  159.7458 H   0  0  0  0  0  0  0  0  0  0  0  0  # atno 6908 bound_to 6896
  152.4950  134.4361  159.9580 H   0  0  0  0  0  0  0  0  0  0  0  0  # atno 6909 bound_to 6896
  145.6960  139.2567  143.1733 H   0  0  0  0  0  0  0  0  0  0  0  0  # atno 7974 bound_to 7965
  155.1789  140.0410  157.2878 H   0  0  0  0  0  0  0  0  0  0  0  0  # atno 8008 bound_to 7997
  154.6217  140.2502  155.7513 H   0  0  0  0  0  0  0  0  0  0  0  0  # atno 8009 bound_to 7997
  156.2437  140.2893  156.0528 H   0  0  0  0  0  0  0  0  0  0  0  0  # atno 8010 bound_to 7997
  139.7802  143.8112  152.2637 H   0  0  0  0  0  0  0  0  0  0  0  0  # atno 10167 bound_to 10162
  156.0291  130.4388  150.2701 H   0  0  0  0  0  0  0  0  0  0  0  0  # atno 10718 bound_to 10713
  154.8428  135.3440  154.6346 H   0  0  0  0  0  0  0  0  0  0  0  0  # atno 10763 bound_to 10752
  153.6956  135.6972  153.5082 H   0  0  0  0  0  0  0  0  0  0  0  0  # atno 10764 bound_to 10752
  153.2562  135.4337  155.0802 H   0  0  0  0  0  0  0  0  0  0  0  0  # atno 10765 bound_to 10752
  140.3416  134.2327  155.7689 H   0  0  0  0  0  0  0  0  0  0  0  0  # atno 11005 bound_to 11000
  146.0840  140.7731  142.9627 LP  0  0  0  0  0  0  0  0  0  0  0  0  # atno 17320 bound_to 7965
  144.6982  140.3533  143.7177 LP  0  0  0  0  0  0  0  0  0  0  0  0  # atno 17321 bound_to 7965
  139.8172  144.7311  150.9620 LP  0  0  0  0  0  0  0  0  0  0  0  0  # atno 17342 bound_to 10162
  140.7818  143.4194  151.0866 LP  0  0  0  0  0  0  0  0  0  0  0  0  # atno 17343 bound_to 10162
  157.0804  131.0142  151.3158 LP  0  0  0  0  0  0  0  0  0  0  0  0  # atno 17370 bound_to 10713
  157.4931  130.7834  149.7528 LP  0  0  0  0  0  0  0  0  0  0  0  0  # atno 17371 bound_to 10713
  141.2037  133.7906  157.0326 LP  0  0  0  0  0  0  0  0  0  0  0  0  # atno 17394 bound_to 11000
  140.0776  134.9666  157.1572 LP  0  0  0  0  0  0  0  0  0  0  0  0  # atno 17395 bound_to 11000

$$$$
