AV-unprocessed.smi:164|AV-procd|sdf|1385|dock6
  -GOLD-   2262019113D 1   1.00000     0.00000
 Structure written by MMmdl.
 53 55  0  0  0  0  0  0  0  0  1 V2000
  152.1078  130.9062  155.0886 C   0  0  0  0  0  0  0  0  0  0  0  0
  151.4987  132.2978  155.0821 C   0  0  0  0  0  0  0  0  0  0  0  0
  150.4803  132.5933  154.1528 C   0  0  0  0  0  0  0  0  0  0  0  0
  149.8989  133.8729  154.1162 C   0  0  0  0  0  0  0  0  0  0  0  0
  150.3221  134.8689  155.0173 C   0  0  0  0  0  0  0  0  0  0  0  0
  149.6892  136.2473  154.9636 C   0  0  0  0  0  0  0  0  0  0  0  0
  151.3298  134.5769  155.9648 C   0  0  0  0  0  0  0  0  0  0  0  0
  151.7262  135.5501  156.8446 O   0  0  0  0  0  0  0  0  0  0  0  0
  152.3881  136.6432  156.2214 C   0  0  0  0  0  0  0  0  0  0  0  0
  152.9432  137.5998  157.2882 C   0  0  1  0  0  0  0  0  0  0  0  0
  153.9270  138.4042  156.6697 O   0  0  0  0  0  0  0  0  0  0  0  0
  151.8493  138.4794  157.9335 C   0  0  0  0  0  0  0  0  0  0  0  0
  152.3724  139.6959  158.5324 N   0  0  0  0  0  0  0  0  0  0  0  0
  153.2525  139.5671  159.6342 C   0  0  0  0  0  0  0  0  0  0  0  0
  153.5833  138.4693  160.0855 O   0  0  0  0  0  0  0  0  0  0  0  0
  153.7166  140.8340  160.1889 C   0  0  0  0  0  0  0  0  0  0  0  0
  154.5726  140.8310  161.2247 F   0  0  0  0  0  0  0  0  0  0  0  0
  153.3000  142.0140  159.6804 C   0  0  0  0  0  0  0  0  0  0  0  0
  152.4142  142.1091  158.6190 N   0  0  0  0  0  0  0  0  0  0  0  0
  151.9538  143.4442  158.0715 C   0  0  1  0  0  0  0  0  0  0  0  0
  150.4274  143.5954  158.2196 C   0  0  0  0  0  0  0  0  0  0  0  0
  150.2879  144.9336  158.9183 C   0  0  0  0  0  0  0  0  0  0  0  0
  151.5834  145.0124  159.7117 C   0  0  0  0  0  0  0  0  0  0  0  0
  152.5391  144.4853  158.8008 O   0  0  0  0  0  0  0  0  0  0  0  0
  151.9272  140.9326  158.0086 C   0  0  0  0  0  0  0  0  0  0  0  0
  151.1344  140.9932  157.0652 O   0  0  0  0  0  0  0  0  0  0  0  0
  151.9367  133.2958  155.9880 C   0  0  0  0  0  0  0  0  0  0  0  0
  153.0513  132.9943  156.9813 C   0  0  0  0  0  0  0  0  0  0  0  0
  151.5587  130.2294  154.4336 H   0  0  0  0  0  0  0  0  0  0  0  0
  152.0912  130.4821  156.0929 H   0  0  0  0  0  0  0  0  0  0  0  0
  153.1413  130.9427  154.7432 H   0  0  0  0  0  0  0  0  0  0  0  0
  150.1422  131.8390  153.4572 H   0  0  0  0  0  0  0  0  0  0  0  0
  149.1251  134.0856  153.3930 H   0  0  0  0  0  0  0  0  0  0  0  0
  150.4498  137.0247  155.0425 H   0  0  0  0  0  0  0  0  0  0  0  0
  148.9827  136.3721  155.7842 H   0  0  0  0  0  0  0  0  0  0  0  0
  149.1520  136.3990  154.0269 H   0  0  0  0  0  0  0  0  0  0  0  0
  153.2173  136.2586  155.6260 H   0  0  0  0  0  0  0  0  0  0  0  0
  151.7259  137.1710  155.5329 H   0  0  0  0  0  0  0  0  0  0  0  0
  153.4432  136.9983  158.0485 H   0  0  0  0  0  0  0  0  0  0  0  0
  154.4654  138.7916  157.3430 H   0  0  0  0  0  0  0  0  0  0  0  0
  151.0552  138.7431  157.2327 H   0  0  0  0  0  0  0  0  0  0  0  0
  151.3326  137.9411  158.7304 H   0  0  0  0  0  0  0  0  0  0  0  0
  153.6869  142.9108  160.1390 H   0  0  0  0  0  0  0  0  0  0  0  0
  152.3094  143.4774  157.0400 H   0  0  0  0  0  0  0  0  0  0  0  0
  149.9353  143.5655  157.2470 H   0  0  0  0  0  0  0  0  0  0  0  0
  150.0261  142.7962  158.8452 H   0  0  0  0  0  0  0  0  0  0  0  0
  150.2506  145.7389  158.1835 H   0  0  0  0  0  0  0  0  0  0  0  0
  149.3984  144.9982  159.5453 H   0  0  0  0  0  0  0  0  0  0  0  0
  151.8337  146.0296  160.0134 H   0  0  0  0  0  0  0  0  0  0  0  0
  151.5293  144.3901  160.6060 H   0  0  0  0  0  0  0  0  0  0  0  0
  153.4644  133.8992  157.4263 H   0  0  0  0  0  0  0  0  0  0  0  0
  153.8768  132.4752  156.4947 H   0  0  0  0  0  0  0  0  0  0  0  0
  152.6752  132.3638  157.7870 H   0  0  0  0  0  0  0  0  0  0  0  0
  1  2  1  0  0  0  0
  1 29  1  0  0  0  0
  1 30  1  0  0  0  0
  1 31  1  0  0  0  0
  2 27  1  0  0  0  0
  2  3  2  0  0  0  0
  3  4  1  0  0  0  0
  3 32  1  0  0  0  0
  4  5  2  0  0  0  0
  4 33  1  0  0  0  0
  5  6  1  0  0  0  0
  5  7  1  0  0  0  0
  6 34  1  0  0  0  0
  6 35  1  0  0  0  0
  6 36  1  0  0  0  0
  7  8  1  0  0  0  0
  7 27  2  0  0  0  0
  8  9  1  0  0  0  0
  9 10  1  0  0  0  0
  9 37  1  0  0  0  0
  9 38  1  0  0  0  0
 10 11  1  0  0  0  0
 10 12  1  0  0  0  0
 10 39  1  0  0  0  0
 11 40  1  0  0  0  0
 12 13  1  0  0  0  0
 12 41  1  0  0  0  0
 12 42  1  0  0  0  0
 13 25  1  0  0  0  0
 13 14  1  0  0  0  0
 14 15  2  0  0  0  0
 14 16  1  0  0  0  0
 16 17  1  0  0  0  0
 16 18  2  0  0  0  0
 18 19  1  0  0  0  0
 18 43  1  0  0  0  0
 19 20  1  0  0  0  0
 19 25  1  0  0  0  0
 20 24  1  0  0  0  0
 20 21  1  0  0  0  0
 20 44  1  0  0  0  0
 21 22  1  0  0  0  0
 21 45  1  0  0  0  0
 21 46  1  0  0  0  0
 22 23  1  0  0  0  0
 22 47  1  0  0  0  0
 22 48  1  0  0  0  0
 23 24  1  0  0  0  0
 23 49  1  0  0  0  0
 23 50  1  0  0  0  0
 25 26  2  0  0  0  0
 27 28  1  0  0  0  0
 28 51  1  0  0  0  0
 28 52  1  0  0  0  0
 28 53  1  0  0  0  0
M  END
> <s_m_source_file>
AV-unprocessed.smi

> <i_m_source_file_index>
164

> <i_lp_mmshare_version>
43012

> <i_f3d_flags>
0

> <s_epik_input>
W0NIM11jMVtjSF1bY0hdYyhbQ0gzXSljKGMxW0NIM10pT1tDSDJdW0NASF0oW09IXSlbQ0gyXW4yYyg9TyljKEYpW2NIXW4oYzI9TylbQ0BASF0zW0NIMl1bQ0gyXVtDSDJdTzM=

> <s_epik_cmdline>
J2VwaWtfcHl0aG9uJywgJy1waCcsICc3LjAnLCAnLXRuJywgJzgnLCAnLW1hJywgJzIwMCcsICctbWV0YWxfYmluZGluZycsICctaW1hZScsICc8aW5maWxlLm1hZT4nLCAnLW9tYWUnLCAnPG91dGZpbGUubWFlPic=

> <r_lp_tautomer_probability>
1

> <r_epik_Ionization_Penalty>
1.45842e-07

> <r_epik_Ionization_Penalty_Charging>
2.86622e-08

> <r_epik_Ionization_Penalty_Neutral>
1.1718e-07

> <r_epik_State_Penalty>
-0

> <r_epik_Charging_Adjusted_Penalty>
2.86622e-08

> <i_epik_Tot_Q>
0

> <i_epik_Tot_abs_Q>
0

> <r_epik_Metal_State_Penalty>
-0

> <b_epik_Metal_Only>
0

> <s_epik_Chemistry_Notes>
This compound contains an acetal/aminal-like group ( X-CH(R)-Y where X, Y are N, S, or O) that may be acid/base labile, releasing an aldehyde.

> <s_lp_Force_Field>
OPLS_2005

> <r_lp_Energy>
46.8287

> <b_lp_Chiralities_Consistent>
1

> <s_lp_Variant>
AV-unprocessed.smi:164-4

> <Gold.Version>
5.8.1

> <Gold.Id.Protein>
6NUR|6NUR_protein|mol2

> <Gold.PLP.Fitness>
48.4125

> <Gold.PLP.PLP>
-49.2183

> <Gold.PLP.part.hbond>
-1.5310

> <Gold.PLP.part.metal>
0.0000

> <Gold.PLP.part.buried>
-5.7015

> <Gold.PLP.part.nonpolar>
-41.6284

> <Gold.PLP.part.repulsive>
0.0190

> <Gold.PLP.ligand.clash>
0.0000

> <Gold.PLP.ligand.torsion>
0.4495

> <Gold.PLP.Chemscore.Hbond>
0.0000

> <Gold.PLP.Chemscore.CHOScore>
0.0000

> <Gold.PLP.Chemscore.Metal>
0.0000

> <Gold.PLP.Chemscore.Internal.Correction>
0.0931

> <Gold.Rescore>
     Score         DG    S(hbond)    S(metal)    S(lipo)     H(rot)  DE(clash)    DE(int)     intcor
      6.94     -10.69       0.00        0.00     104.28       2.73       0.03       3.72       ----

> <Gold.Chemscore.Fitness>
6.9399

> <Gold.Chemscore.DG>
-10.6885

> <Gold.Chemscore.ZeroCoef>
-5.4800

> <Gold.Chemscore.Hbond>
0.0000

> <Gold.Chemscore.Metal>
0.0000

> <Gold.Chemscore.Lipo>
104.2827

> <Gold.Chemscore.Internal_Hbond>
0.0000

> <Gold.Chemscore.DEClash>
0.0310

> <Gold.Chemscore.DEInternal>
3.7176

> <Gold.Chemscore.Rot>
2.7315

> <Gold.Chemscore.Internal.Correction>
   9.000000E+99

> <Gold.Chemscore.Hbond.Weighted>
-0.0000

> <Gold.Chemscore.Metal.Weighted>
-0.0000

> <Gold.Chemscore.Lipo.Weighted>
-12.2011

> <Gold.Chemscore.Internal_Hbond.Weighted>
0.0000

> <Gold.Chemscore.DEClash.Weighted>
0.0310

> <Gold.Chemscore.DEInternal.Weighted>
3.7176

> <Gold.Chemscore.Rot.Weighted>
6.9925

> <Gold.Chemscore.Internal.Correction.Weighted>
   9.000000E+99

> <Gold.Protein.RotatedTorsions>
[ 6907 6896 6895 6894 ] final -126.39 input  -60.11 | X-H torsion
[ 7974 7965 7964 7962 ] final   18.16 input  175.53 | X-H torsion
[ 8008 7997 7996 7995 ] final   30.64 input   59.86 | X-H torsion
[ 10167 10162 10161 10158 ] final   11.31 input  -65.29 | X-H torsion
[ 10718 10713 10712 10709 ] final  162.33 input   66.30 | X-H torsion
[ 10763 10752 10751 10750 ] final  123.03 input  -60.55 | X-H torsion
[ 11005 11000 10999 10996 ] final  137.70 input  -57.11 | X-H torsion

> <Gold.Protein.ActiveResidues>
 VAL166  LYS551  ARG553  GLY616  TRP617  ASP618  TYR619  PRO620  LYS621  CYS622 
 ASP623  PHE694  ASN695  SER759  ASP760  ASP761  ALA762  ILE779  LEU786  VAL792 
 PHE793  MET794  SER795  GLU796  ALA797  LYS798  CYS799  TRP800  GLU811  SER814 

> <Gold.Protein.RotatedAtoms>
  150.8964  133.7175  159.2890 H   0  0  0  0  0  0  0  0  0  0  0  0  # atno 6907 bound_to 6896
  151.4709  135.1044  159.9760 H   0  0  0  0  0  0  0  0  0  0  0  0  # atno 6908 bound_to 6896
  152.4851  133.8304  159.7156 H   0  0  0  0  0  0  0  0  0  0  0  0  # atno 6909 bound_to 6896
  146.2194  139.8497  142.8625 H   0  0  0  0  0  0  0  0  0  0  0  0  # atno 7974 bound_to 7965
  155.0936  140.3222  155.4567 H   0  0  0  0  0  0  0  0  0  0  0  0  # atno 8008 bound_to 7997
  156.2736  140.2073  156.6009 H   0  0  0  0  0  0  0  0  0  0  0  0  # atno 8009 bound_to 7997
  154.6884  140.0519  157.0325 H   0  0  0  0  0  0  0  0  0  0  0  0  # atno 8010 bound_to 7997
  140.6140  143.8348  150.7097 H   0  0  0  0  0  0  0  0  0  0  0  0  # atno 10167 bound_to 10162
  157.1240  131.0499  151.2402 H   0  0  0  0  0  0  0  0  0  0  0  0  # atno 10718 bound_to 10713
  153.6391  135.3382  155.3066 H   0  0  0  0  0  0  0  0  0  0  0  0  # atno 10763 bound_to 10752
  154.8563  135.4314  154.2024 H   0  0  0  0  0  0  0  0  0  0  0  0  # atno 10764 bound_to 10752
  153.2938  135.7019  153.7341 H   0  0  0  0  0  0  0  0  0  0  0  0  # atno 10765 bound_to 10752
  140.0132  134.9430  157.0321 H   0  0  0  0  0  0  0  0  0  0  0  0  # atno 11005 bound_to 11000
  145.2814  141.0139  143.3715 LP  0  0  0  0  0  0  0  0  0  0  0  0  # atno 17320 bound_to 7965
  144.9147  139.4485  143.6570 LP  0  0  0  0  0  0  0  0  0  0  0  0  # atno 17321 bound_to 7965
  140.1922  143.4027  152.1854 LP  0  0  0  0  0  0  0  0  0  0  0  0  # atno 17342 bound_to 10162
  139.5384  144.7232  151.4817 LP  0  0  0  0  0  0  0  0  0  0  0  0  # atno 17343 bound_to 10162
  157.4451  130.7566  149.7103 LP  0  0  0  0  0  0  0  0  0  0  0  0  # atno 17370 bound_to 10713
  155.9822  130.4012  150.3428 LP  0  0  0  0  0  0  0  0  0  0  0  0  # atno 17371 bound_to 10713
  140.4517  134.1575  155.7182 LP  0  0  0  0  0  0  0  0  0  0  0  0  # atno 17394 bound_to 11000
  141.1725  133.8580  157.1526 LP  0  0  0  0  0  0  0  0  0  0  0  0  # atno 17395 bound_to 11000

$$$$
