AV-unprocessed.smi:1412|AV-procd|sdf|5747|dock5
  -GOLD-   22720 5383D 1   1.00000     0.00000
 Structure written by MMmdl.
 41 42  0  0  0  0  0  0  0  0  3 V2000
  147.1307  132.1900  156.2128 C   0  0  0  0  0  0  0  0  0  0  0  0
  146.5676  132.9944  155.0278 C   0  0  0  0  0  0  0  0  0  0  0  0
  147.5798  133.9035  154.2662 C   0  0  2  0  0  0  0  0  0  0  0  0
  148.7547  133.0361  153.7395 C   0  0  0  0  0  0  0  0  0  0  0  0
  148.1939  134.9595  155.2344 C   0  0  0  0  0  0  0  0  0  0  0  0
  149.3071  135.6892  154.6239 N   0  0  0  0  0  0  0  0  0  0  0  0
  150.5483  135.8155  155.1147 C   0  0  0  0  0  0  0  0  0  0  0  0
  150.8824  135.1919  156.1239 O   0  0  0  0  0  0  0  0  0  0  0  0
  151.3172  136.6835  154.4221 N   0  5  0  0  0  0  0  0  0  0  0  0
  151.2885  137.9909  154.7282 C   0  0  0  0  0  0  0  0  0  0  0  0
  150.4805  138.8568  154.0950 N   0  0  0  0  0  0  0  0  0  0  0  0
  150.5996  140.1574  154.5651 N   0  0  0  0  0  0  0  0  0  0  0  0
  151.5072  140.2412  155.5377 C   0  0  0  0  0  0  0  0  0  0  0  0
  152.2966  138.7388  155.9692 S   0  0  0  0  0  0  0  0  0  0  0  0
  146.9006  134.6250  153.1270 N   0  3  0  0  0  0  0  0  0  0  0  0
  146.2960  133.7897  152.0524 C   0  0  0  0  0  0  0  0  0  0  0  0
  145.8542  134.6798  150.8758 C   0  0  0  0  0  0  0  0  0  0  0  0
  144.9531  135.6829  151.3258 O   0  0  0  0  0  0  0  0  0  0  0  0
  145.5493  136.5301  152.2992 C   0  0  0  0  0  0  0  0  0  0  0  0
  145.9338  135.6860  153.5230 C   0  0  0  0  0  0  0  0  0  0  0  0
  146.3349  131.6239  156.6972 H   0  0  0  0  0  0  0  0  0  0  0  0
  147.5726  132.8359  156.9707 H   0  0  0  0  0  0  0  0  0  0  0  0
  147.8851  131.4704  155.8960 H   0  0  0  0  0  0  0  0  0  0  0  0
  146.1148  132.2899  154.3295 H   0  0  0  0  0  0  0  0  0  0  0  0
  145.7474  133.5974  155.4174 H   0  0  0  0  0  0  0  0  0  0  0  0
  149.3869  132.6763  154.5514 H   0  0  0  0  0  0  0  0  0  0  0  0
  149.4044  133.5986  153.0677 H   0  0  0  0  0  0  0  0  0  0  0  0
  148.4030  132.1535  153.2044 H   0  0  0  0  0  0  0  0  0  0  0  0
  147.4338  135.6480  155.6043 H   0  0  0  0  0  0  0  0  0  0  0  0
  148.5888  134.4735  156.1263 H   0  0  0  0  0  0  0  0  0  0  0  0
  149.0974  136.2033  153.7803 H   0  0  0  0  0  0  0  0  0  0  0  0
  151.7135  141.1933  156.0034 H   0  0  0  0  0  0  0  0  0  0  0  0
  147.0017  133.0635  151.6529 H   0  0  0  0  0  0  0  0  0  0  0  0
  145.4458  133.2325  152.4474 H   0  0  0  0  0  0  0  0  0  0  0  0
  146.7183  135.1446  150.3978 H   0  0  0  0  0  0  0  0  0  0  0  0
  145.3582  134.0765  150.1152 H   0  0  0  0  0  0  0  0  0  0  0  0
  146.4198  137.0402  151.8831 H   0  0  0  0  0  0  0  0  0  0  0  0
  144.8319  137.3001  152.5833 H   0  0  0  0  0  0  0  0  0  0  0  0
  145.0318  135.2378  153.9416 H   0  0  0  0  0  0  0  0  0  0  0  0
  146.3473  136.3366  154.2908 H   0  0  0  0  0  0  0  0  0  0  0  0
  147.6580  135.1152  152.6705 H   0  0  0  0  0  0  0  0  0  0  0  0
  1  2  1  0  0  0  0
  1 21  1  0  0  0  0
  1 22  1  0  0  0  0
  1 23  1  0  0  0  0
  2  3  1  0  0  0  0
  2 24  1  0  0  0  0
  2 25  1  0  0  0  0
  3  4  1  0  0  0  0
  3  5  1  0  0  0  0
  3 15  1  0  0  0  0
  4 26  1  0  0  0  0
  4 27  1  0  0  0  0
  4 28  1  0  0  0  0
  5  6  1  0  0  0  0
  5 29  1  0  0  0  0
  5 30  1  0  0  0  0
  6  7  1  0  0  0  0
  6 31  1  0  0  0  0
  7  8  2  0  0  0  0
  7  9  1  0  0  0  0
  9 10  1  0  0  0  0
 10 14  1  0  0  0  0
 10 11  2  0  0  0  0
 11 12  1  0  0  0  0
 12 13  2  0  0  0  0
 13 14  1  0  0  0  0
 13 32  1  0  0  0  0
 15 20  1  0  0  0  0
 15 16  1  0  0  0  0
 15 41  1  0  0  0  0
 16 17  1  0  0  0  0
 16 33  1  0  0  0  0
 16 34  1  0  0  0  0
 17 18  1  0  0  0  0
 17 35  1  0  0  0  0
 17 36  1  0  0  0  0
 18 19  1  0  0  0  0
 19 20  1  0  0  0  0
 19 37  1  0  0  0  0
 19 38  1  0  0  0  0
 20 39  1  0  0  0  0
 20 40  1  0  0  0  0
M  CHG  1   9  -1
M  CHG  1  15   1
M  END
> <s_m_source_file>
AV-unprocessed.smi

> <i_m_source_file_index>
1412

> <i_lp_mmshare_version>
43012

> <i_f3d_flags>
0

> <s_epik_input>
W0NIMl0xW0NIMl1PW0NIMl1bQ0gyXU4xW0NAQF0oW0NIM10pKFtDSDJdW0NIM10pW0NIMl1bTkhdQyg9TylbTkhdYzJubltjSF1zMg==

> <s_epik_cmdline>
J2VwaWtfcHl0aG9uJywgJy1waCcsICc3LjAnLCAnLXRuJywgJzgnLCAnLW1hJywgJzIwMCcsICctbWV0YWxfYmluZGluZycsICctaW1hZScsICc8aW5maWxlLm1hZT4nLCAnLW9tYWUnLCAnPG91dGZpbGUubWFlPic=

> <r_lp_tautomer_probability>
1

> <r_epik_Ionization_Penalty>
4.35651

> <r_epik_Ionization_Penalty_Charging>
4.3235

> <r_epik_Ionization_Penalty_Neutral>
0.0330098

> <r_epik_State_Penalty>
4.4846

> <r_epik_Charging_Adjusted_Penalty>
8.8081

> <i_epik_Tot_Q>
0

> <i_epik_Tot_abs_Q>
2

> <r_epik_Metal_State_Penalty>
1.11611

> <b_epik_Metal_Only>
1

> <s_lp_Force_Field>
OPLS_2005

> <r_lp_Energy>
23.2358

> <b_lp_Chiralities_Consistent>
1

> <s_lp_Variant>
AV-unprocessed.smi:1412-8

> <Gold.Version>
5.8.1

> <Gold.Id.Protein>
6NUR|6NUR_protein|mol2

> <Gold.PLP.Fitness>
41.9255

> <Gold.PLP.PLP>
-26.9018

> <Gold.PLP.part.hbond>
-4.1743

> <Gold.PLP.part.metal>
0.0000

> <Gold.PLP.part.buried>
-5.0141

> <Gold.PLP.part.nonpolar>
-19.1638

> <Gold.PLP.part.repulsive>
1.7812

> <Gold.PLP.ligand.clash>
0.0000

> <Gold.PLP.ligand.torsion>
1.6438

> <Gold.PLP.Chemscore.Hbond>
5.9920

> <Gold.PLP.Chemscore.CHOScore>
0.0000

> <Gold.PLP.Chemscore.Metal>
0.0000

> <Gold.Chemscore.Hbonds>
donor molecule, donor type, donor heavy atom, donor atom, acceptor molecule, acceptor atom, score
      L1  H     6    31       P1  7948  0.96
      L1  H    15    41       P1  7948  2.00
      P1  H  7989  7998       L1    12  0.55
      P1  H 10752 10764       L1     9  2.00

> <Gold.PLP.Chemscore.Internal.Correction>
0.3352

> <Gold.Rescore>
     Score         DG    S(hbond)    S(metal)    S(lipo)     H(rot)  DE(clash)    DE(int)     intcor
     15.41     -17.18       3.34        0.00      45.68       1.88       0.12       1.65       ----

> <Gold.Chemscore.Fitness>
15.4088

> <Gold.Chemscore.DG>
-17.1793

> <Gold.Chemscore.ZeroCoef>
-5.4800

> <Gold.Chemscore.Hbond>
3.3418

> <Gold.Chemscore.Metal>
0.0000

> <Gold.Chemscore.Lipo>
45.6841

> <Gold.Chemscore.Internal_Hbond>
0.0000

> <Gold.Chemscore.DEClash>
0.1200

> <Gold.Chemscore.DEInternal>
1.6505

> <Gold.Chemscore.Rot>
1.8779

> <Gold.Chemscore.Internal.Correction>
   9.000000E+99

> <Gold.Chemscore.Hbonds>
donor molecule, donor type, donor heavy atom, donor atom, acceptor molecule, acceptor atom, score
      L1  H     6    31       P1  7948  0.88
      L1  H    15    41       P1  7948  1.00
      P1  H  7989  7998       L1    12  0.01
      P1  H 10752 10764       L1     9  0.39

> <Gold.Chemscore.Hbond.Weighted>
-11.1616

> <Gold.Chemscore.Metal.Weighted>
-0.0000

> <Gold.Chemscore.Lipo.Weighted>
-5.3450

> <Gold.Chemscore.Internal_Hbond.Weighted>
0.0000

> <Gold.Chemscore.DEClash.Weighted>
0.1200

> <Gold.Chemscore.DEInternal.Weighted>
1.6505

> <Gold.Chemscore.Rot.Weighted>
4.8074

> <Gold.Chemscore.Internal.Correction.Weighted>
   9.000000E+99

> <Gold.Protein.RotatedTorsions>
[ 6907 6896 6895 6894 ] final   21.21 input  -60.11 | X-H torsion
[ 7974 7965 7964 7962 ] final  177.59 input  175.53 | X-H torsion
[ 8008 7997 7996 7995 ] final  128.65 input   59.86 | X-H torsion
[ 10167 10162 10161 10158 ] final   15.19 input  -65.29 | X-H torsion
[ 10718 10713 10712 10709 ] final  -49.17 input   66.30 | X-H torsion
[ 10763 10752 10751 10750 ] final  -86.70 input  -60.55 | X-H torsion
[ 11005 11000 10999 10996 ] final  -83.51 input  -57.11 | X-H torsion

> <Gold.Protein.ActiveResidues>
 VAL166  LYS551  ARG553  GLY616  TRP617  ASP618  TYR619  PRO620  LYS621  CYS622 
 ASP623  PHE694  ASN695  SER759  ASP760  ASP761  ALA762  ILE779  LEU786  VAL792 
 PHE793  MET794  SER795  GLU796  ALA797  LYS798  CYS799  TRP800  GLU811  SER814 

> <Gold.Protein.RotatedAtoms>
  151.9084  135.0349  160.0512 H   0  0  0  0  0  0  0  0  0  0  0  0  # atno 6907 bound_to 6896
  152.2300  133.5046  159.5219 H   0  0  0  0  0  0  0  0  0  0  0  0  # atno 6908 bound_to 6896
  150.7023  134.1145  159.4055 H   0  0  0  0  0  0  0  0  0  0  0  0  # atno 6909 bound_to 6896
  144.7167  140.0269  143.6439 H   0  0  0  0  0  0  0  0  0  0  0  0  # atno 7974 bound_to 7965
  156.2919  140.2639  156.2471 H   0  0  0  0  0  0  0  0  0  0  0  0  # atno 8008 bound_to 7997
  154.9920  140.0388  157.2342 H   0  0  0  0  0  0  0  0  0  0  0  0  # atno 8009 bound_to 7997
  154.7678  140.2772  155.6167 H   0  0  0  0  0  0  0  0  0  0  0  0  # atno 8010 bound_to 7997
  140.5884  143.8843  150.6851 H   0  0  0  0  0  0  0  0  0  0  0  0  # atno 10167 bound_to 10162
  156.1918  130.4153  149.9361 H   0  0  0  0  0  0  0  0  0  0  0  0  # atno 10718 bound_to 10713
  154.6254  135.5439  153.7621 H   0  0  0  0  0  0  0  0  0  0  0  0  # atno 10763 bound_to 10752
  153.0258  135.6423  154.1379 H   0  0  0  0  0  0  0  0  0  0  0  0  # atno 10764 bound_to 10752
  154.1311  135.2914  155.3165 H   0  0  0  0  0  0  0  0  0  0  0  0  # atno 10765 bound_to 10752
  141.1657  133.7298  156.8730 H   0  0  0  0  0  0  0  0  0  0  0  0  # atno 11005 bound_to 11000
  146.0134  139.3189  143.0856 LP  0  0  0  0  0  0  0  0  0  0  0  0  # atno 17320 bound_to 7965
  145.8654  140.9451  143.0678 LP  0  0  0  0  0  0  0  0  0  0  0  0  # atno 17321 bound_to 7965
  140.2360  143.3699  152.1526 LP  0  0  0  0  0  0  0  0  0  0  0  0  # atno 17342 bound_to 10162
  139.5212  144.7043  151.5401 LP  0  0  0  0  0  0  0  0  0  0  0  0  # atno 17343 bound_to 10162
  156.7099  130.8966  151.3608 LP  0  0  0  0  0  0  0  0  0  0  0  0  # atno 17370 bound_to 10713
  157.6933  130.9256  150.0575 LP  0  0  0  0  0  0  0  0  0  0  0  0  # atno 17371 bound_to 10713
  140.1768  134.9061  157.2900 LP  0  0  0  0  0  0  0  0  0  0  0  0  # atno 17394 bound_to 11000
  140.2440  134.3762  155.7469 LP  0  0  0  0  0  0  0  0  0  0  0  0  # atno 17395 bound_to 11000

$$$$
