AV-unprocessed.smi:3243|AV-procd|sdf|12397|dock2
  -GOLD-   2272018273D 1   1.00000     0.00000
 Structure written by MMmdl.
 37 38  0  0  0  0  0  0  0  0  1 V2000
  153.9574  140.7859  160.7498 C   0  0  0  0  0  0  0  0  0  0  0  0
  153.5534  142.2672  160.7552 C   0  0  0  0  0  0  0  0  0  0  0  0
  152.8983  142.7081  162.0720 C   0  0  0  0  0  0  0  0  0  0  0  0
  152.7232  142.6286  159.5638 C   0  0  0  0  0  0  0  0  0  0  0  0
  152.1998  141.7307  158.7231 N   0  0  0  0  0  0  0  0  0  0  0  0
  151.4675  142.3207  157.6884 C   0  0  0  0  0  0  0  0  0  0  0  0
  150.8065  141.4601  156.6548 C   0  0  0  0  0  0  0  0  0  0  0  0
  149.2833  141.6474  156.6303 C   0  0  0  0  0  0  0  0  0  0  0  0
  148.6504  140.6071  155.8309 N   0  0  0  0  0  0  0  0  0  0  0  0
  148.7558  140.5036  154.4986 C   0  0  0  0  0  0  0  0  0  0  0  0
  149.4122  141.2911  153.8155 O   0  0  0  0  0  0  0  0  0  0  0  0
  148.0054  139.3486  153.9196 C   0  0  1  0  0  0  0  0  0  0  0  0
  146.5524  139.1874  154.3180 C   0  0  0  0  0  0  0  0  0  0  0  0
  146.9005  139.6493  152.9239 C   0  0  2  0  0  0  0  0  0  0  0  0
  146.6809  138.7464  151.7293 C   0  0  0  0  0  0  0  0  0  0  0  0
  151.4409  143.6911  157.7579 C   0  0  0  0  0  0  0  0  0  0  0  0
  152.3374  144.2896  159.1263 S   0  0  0  0  0  0  0  0  0  0  0  0
  154.4932  140.5288  159.8357 H   0  0  0  0  0  0  0  0  0  0  0  0
  153.0842  140.1364  160.8180 H   0  0  0  0  0  0  0  0  0  0  0  0
  154.6102  140.5536  161.5915 H   0  0  0  0  0  0  0  0  0  0  0  0
  154.4790  142.8376  160.6676 H   0  0  0  0  0  0  0  0  0  0  0  0
  152.6998  143.7803  162.0715 H   0  0  0  0  0  0  0  0  0  0  0  0
  153.5442  142.4927  162.9235 H   0  0  0  0  0  0  0  0  0  0  0  0
  151.9508  142.1936  162.2351 H   0  0  0  0  0  0  0  0  0  0  0  0
  151.2157  141.6857  155.6691 H   0  0  0  0  0  0  0  0  0  0  0  0
  151.0410  140.4114  156.8427 H   0  0  0  0  0  0  0  0  0  0  0  0
  148.8838  141.6155  157.6453 H   0  0  0  0  0  0  0  0  0  0  0  0
  149.0339  142.6255  156.2154 H   0  0  0  0  0  0  0  0  0  0  0  0
  148.0929  139.9233  156.3220 H   0  0  0  0  0  0  0  0  0  0  0  0
  148.5721  138.4316  153.7651 H   0  0  0  0  0  0  0  0  0  0  0  0
  146.1892  138.1703  154.4493 H   0  0  0  0  0  0  0  0  0  0  0  0
  146.1123  139.9209  154.9914 H   0  0  0  0  0  0  0  0  0  0  0  0
  146.6981  140.6977  152.7098 H   0  0  0  0  0  0  0  0  0  0  0  0
  146.8912  137.7072  151.9842 H   0  0  0  0  0  0  0  0  0  0  0  0
  147.3366  139.0430  150.9106 H   0  0  0  0  0  0  0  0  0  0  0  0
  145.6471  138.8189  151.3910 H   0  0  0  0  0  0  0  0  0  0  0  0
  150.9487  144.3826  157.0901 H   0  0  0  0  0  0  0  0  0  0  0  0
  1  2  1  0  0  0  0
  1 18  1  0  0  0  0
  1 19  1  0  0  0  0
  1 20  1  0  0  0  0
  2  3  1  0  0  0  0
  2  4  1  0  0  0  0
  2 21  1  0  0  0  0
  3 22  1  0  0  0  0
  3 23  1  0  0  0  0
  3 24  1  0  0  0  0
  4 17  1  0  0  0  0
  4  5  2  0  0  0  0
  5  6  1  0  0  0  0
  6  7  1  0  0  0  0
  6 16  2  0  0  0  0
  7  8  1  0  0  0  0
  7 25  1  0  0  0  0
  7 26  1  0  0  0  0
  8  9  1  0  0  0  0
  8 27  1  0  0  0  0
  8 28  1  0  0  0  0
  9 10  1  0  0  0  0
  9 29  1  0  0  0  0
 10 11  2  0  0  0  0
 10 12  1  0  0  0  0
 12 14  1  0  0  0  0
 12 13  1  0  0  0  0
 12 30  1  0  0  0  0
 13 14  1  0  0  0  0
 13 31  1  0  0  0  0
 13 32  1  0  0  0  0
 14 15  1  0  0  0  0
 14 33  1  0  0  0  0
 15 34  1  0  0  0  0
 15 35  1  0  0  0  0
 15 36  1  0  0  0  0
 16 17  1  0  0  0  0
 16 37  1  0  0  0  0
M  END
> <s_m_source_file>
AV-unprocessed.smi

> <i_m_source_file_index>
3243

> <i_lp_mmshare_version>
43012

> <i_f3d_flags>
0

> <s_epik_input>
W0NIM11bQ0hdKFtDSDNdKWMxbmMoW2NIXXMxKVtDSDJdW0NIMl1bTkhdQyg9TylbQ0BASF0yW0NIMl1bQ0BIXTJbQ0gzXQ==

> <s_epik_cmdline>
J2VwaWtfcHl0aG9uJywgJy1waCcsICc3LjAnLCAnLXRuJywgJzgnLCAnLW1hJywgJzIwMCcsICctbWV0YWxfYmluZGluZycsICctaW1hZScsICc8aW5maWxlLm1hZT4nLCAnLW9tYWUnLCAnPG91dGZpbGUubWFlPic=

> <r_epik_Ionization_Penalty>
0.00084212

> <r_epik_Ionization_Penalty_Charging>
0

> <r_epik_Ionization_Penalty_Neutral>
0.00084212

> <r_epik_State_Penalty>
0.000542609

> <r_epik_Charging_Adjusted_Penalty>
0.000542609

> <i_epik_Tot_Q>
0

> <i_epik_Tot_abs_Q>
0

> <r_epik_Metal_State_Penalty>
-0

> <b_epik_Metal_Only>
0

> <s_lp_Force_Field>
OPLS_2005

> <r_lp_Energy>
-2.05964

> <b_lp_Chiralities_Consistent>
1

> <s_lp_Variant>
AV-unprocessed.smi:3243-4

> <Gold.Version>
5.8.1

> <Gold.Id.Protein>
6NUR|6NUR_protein|mol2

> <Gold.PLP.Fitness>
47.3393

> <Gold.PLP.PLP>
-41.5937

> <Gold.PLP.part.hbond>
-2.0000

> <Gold.PLP.part.metal>
0.0000

> <Gold.PLP.part.buried>
-1.3180

> <Gold.PLP.part.nonpolar>
-39.0156

> <Gold.PLP.part.repulsive>
1.6635

> <Gold.PLP.ligand.clash>
0.0000

> <Gold.PLP.ligand.torsion>
0.2837

> <Gold.PLP.Chemscore.Hbond>
1.0541

> <Gold.PLP.Chemscore.CHOScore>
1.0000

> <Gold.PLP.Chemscore.Metal>
0.0000

> <Gold.Chemscore.Hbonds>
donor molecule, donor type, donor heavy atom, donor atom, acceptor molecule, acceptor atom, score
      P1  H  7989  7998       L1    11  0.12
      P1  H  8011  8017       L1    11  0.83
      L1  C    16    37       P1  8028  1.00

> <Gold.PLP.Chemscore.Internal.Correction>
0.1508

> <Gold.Rescore>
     Score         DG    S(hbond)    S(metal)    S(lipo)     H(rot)  DE(clash)    DE(int)     intcor
     18.31     -19.02       1.13        0.00     116.06       1.49       0.50       0.21       ----

> <Gold.Chemscore.Fitness>
18.3116

> <Gold.Chemscore.DG>
-19.0196

> <Gold.Chemscore.ZeroCoef>
-5.4800

> <Gold.Chemscore.Hbond>
1.1279

> <Gold.Chemscore.Metal>
0.0000

> <Gold.Chemscore.Lipo>
116.0609

> <Gold.Chemscore.Internal_Hbond>
0.0000

> <Gold.Chemscore.DEClash>
0.5004

> <Gold.Chemscore.DEInternal>
0.2076

> <Gold.Chemscore.Rot>
1.4870

> <Gold.Chemscore.Internal.Correction>
   9.000000E+99

> <Gold.Chemscore.Hbonds>
donor molecule, donor type, donor heavy atom, donor atom, acceptor molecule, acceptor atom, score
      P1  H  7989  7998       L1    11  0.12
      P1  H  8011  8017       L1    11  0.83

> <Gold.Chemscore.Hbond.Weighted>
-3.7672

> <Gold.Chemscore.Metal.Weighted>
-0.0000

> <Gold.Chemscore.Lipo.Weighted>
-13.5791

> <Gold.Chemscore.Internal_Hbond.Weighted>
0.0000

> <Gold.Chemscore.DEClash.Weighted>
0.5004

> <Gold.Chemscore.DEInternal.Weighted>
0.2076

> <Gold.Chemscore.Rot.Weighted>
3.8067

> <Gold.Chemscore.Internal.Correction.Weighted>
   9.000000E+99

> <Gold.Protein.RotatedTorsions>
[ 6907 6896 6895 6894 ] final  -50.95 input  -60.11 | X-H torsion
[ 7974 7965 7964 7962 ] final  148.69 input  175.53 | X-H torsion
[ 8008 7997 7996 7995 ] final  157.82 input   59.86 | X-H torsion
[ 10167 10162 10161 10158 ] final  144.19 input  -65.29 | X-H torsion
[ 10718 10713 10712 10709 ] final   34.34 input   66.30 | X-H torsion
[ 10763 10752 10751 10750 ] final   84.42 input  -60.55 | X-H torsion
[ 11005 11000 10999 10996 ] final  126.51 input  -57.11 | X-H torsion

> <Gold.Protein.ActiveResidues>
 VAL166  LYS551  ARG553  GLY616  TRP617  ASP618  TYR619  PRO620  LYS621  CYS622 
 ASP623  PHE694  ASN695  SER759  ASP760  ASP761  ALA762  ILE779  LEU786  VAL792 
 PHE793  MET794  SER795  GLU796  ALA797  LYS798  CYS799  TRP800  GLU811  SER814 

> <Gold.Protein.RotatedAtoms>
  150.8658  134.8021  159.7117 H   0  0  0  0  0  0  0  0  0  0  0  0  # atno 6907 bound_to 6896
  152.4680  134.5026  159.9739 H   0  0  0  0  0  0  0  0  0  0  0  0  # atno 6908 bound_to 6896
  151.5123  133.3444  159.2922 H   0  0  0  0  0  0  0  0  0  0  0  0  # atno 6909 bound_to 6896
  144.8495  139.6185  143.5980 H   0  0  0  0  0  0  0  0  0  0  0  0  # atno 7974 bound_to 7965
  156.2341  140.1875  156.7166 H   0  0  0  0  0  0  0  0  0  0  0  0  # atno 8008 bound_to 7997
  154.6074  140.0627  156.9477 H   0  0  0  0  0  0  0  0  0  0  0  0  # atno 8009 bound_to 7997
  155.2072  140.3297  155.4336 H   0  0  0  0  0  0  0  0  0  0  0  0  # atno 8010 bound_to 7997
  139.4952  144.5989  151.6524 H   0  0  0  0  0  0  0  0  0  0  0  0  # atno 10167 bound_to 10162
  157.3092  130.7390  149.6714 H   0  0  0  0  0  0  0  0  0  0  0  0  # atno 10718 bound_to 10713
  153.1380  135.4655  154.9452 H   0  0  0  0  0  0  0  0  0  0  0  0  # atno 10763 bound_to 10752
  154.7722  135.3162  154.8167 H   0  0  0  0  0  0  0  0  0  0  0  0  # atno 10764 bound_to 10752
  153.8696  135.6905  153.4829 H   0  0  0  0  0  0  0  0  0  0  0  0  # atno 10765 bound_to 10752
  139.9460  134.9629  156.8718 H   0  0  0  0  0  0  0  0  0  0  0  0  # atno 11005 bound_to 11000
  146.2772  139.6784  142.9254 LP  0  0  0  0  0  0  0  0  0  0  0  0  # atno 17320 bound_to 7965
  145.4529  141.0429  143.2794 LP  0  0  0  0  0  0  0  0  0  0  0  0  # atno 17321 bound_to 7965
  140.5633  144.0231  150.6180 LP  0  0  0  0  0  0  0  0  0  0  0  0  # atno 17342 bound_to 10162
  140.3324  143.3069  152.0673 LP  0  0  0  0  0  0  0  0  0  0  0  0  # atno 17343 bound_to 10162
  155.9676  130.4256  150.4663 LP  0  0  0  0  0  0  0  0  0  0  0  0  # atno 17370 bound_to 10713
  157.2659  131.0577  151.2291 LP  0  0  0  0  0  0  0  0  0  0  0  0  # atno 17371 bound_to 10713
  140.5834  134.0331  155.7472 LP  0  0  0  0  0  0  0  0  0  0  0  0  # atno 17394 bound_to 11000
  141.1110  133.9616  157.2910 LP  0  0  0  0  0  0  0  0  0  0  0  0  # atno 17395 bound_to 11000

$$$$
