AV-unprocessed.smi:907|AV-procd|sdf|4111|dock4
  -GOLD-   22720 2 03D 1   1.00000     0.00000
 Structure written by MMmdl.
 54 57  0  0  0  0  0  0  0  0  3 V2000
  152.4754  139.9273  155.9567 O   0  0  0  0  0  0  0  0  0  0  0  0
  151.2886  139.6377  155.8029 C   0  0  0  0  0  0  0  0  0  0  0  0
  150.3321  140.0951  156.6272 N   0  0  0  0  0  0  0  0  0  0  0  0
  150.5738  140.9679  157.7681 C   0  0  0  0  0  0  0  0  0  0  0  0
  151.5095  142.1211  157.3805 C   0  0  0  0  0  0  0  0  0  0  0  0
  151.7537  143.0765  158.5332 C   0  0  0  0  0  0  0  0  0  0  0  0
  151.4410  144.4506  158.4482 C   0  0  0  0  0  0  0  0  0  0  0  0
  151.6900  145.2841  159.5586 C   0  0  0  0  0  0  0  0  0  0  0  0
  152.2437  144.7266  160.7297 C   0  0  0  0  0  0  0  0  0  0  0  0
  152.5352  143.3477  160.7608 C   0  0  0  0  0  0  0  0  0  0  0  0
  152.2834  142.5824  159.6759 N   0  3  0  0  0  0  0  0  0  0  0  0
  150.8486  138.8038  154.8271 N   0  0  0  0  0  0  0  0  0  0  0  0
  151.6027  137.7046  154.2127 C   0  0  0  0  0  0  0  0  0  0  0  0
  151.0457  136.3588  154.7160 C   0  0  0  0  0  0  0  0  0  0  0  0
  149.5755  136.2325  154.4860 N   0  3  0  0  0  0  0  0  0  0  0  0
  148.9751  134.9675  155.0124 C   0  0  1  0  0  0  0  0  0  0  0  0
  147.5363  134.7412  154.4753 C   0  0  0  0  0  0  0  0  0  0  0  0
  147.5899  133.3276  153.8729 C   0  0  2  0  0  0  0  0  0  0  0  0
  147.7276  132.2908  155.0001 C   0  0  0  0  0  0  0  0  0  0  0  0
  149.1782  132.4997  155.4676 C   0  0  0  0  0  0  0  0  0  0  0  0
  149.6717  133.6497  154.5669 C   0  0  1  0  0  0  0  0  0  0  0  0
  148.9792  133.3180  153.2498 C   0  0  0  0  0  0  0  0  0  0  0  0
  148.8309  137.4361  154.9641 C   0  0  0  0  0  0  0  0  0  0  0  0
  149.4415  138.7423  154.4296 C   0  0  0  0  0  0  0  0  0  0  0  0
  149.3793  139.8056  156.4613 H   0  0  0  0  0  0  0  0  0  0  0  0
  149.6200  141.3612  158.1237 H   0  0  0  0  0  0  0  0  0  0  0  0
  151.0104  140.3903  158.5847 H   0  0  0  0  0  0  0  0  0  0  0  0
  152.4681  141.7275  157.0391 H   0  0  0  0  0  0  0  0  0  0  0  0
  151.0884  142.6775  156.5418 H   0  0  0  0  0  0  0  0  0  0  0  0
  151.0150  144.8632  157.5450 H   0  0  0  0  0  0  0  0  0  0  0  0
  151.4588  146.3383  159.5125 H   0  0  0  0  0  0  0  0  0  0  0  0
  152.4414  145.3477  161.5913 H   0  0  0  0  0  0  0  0  0  0  0  0
  152.9591  142.8375  161.6134 H   0  0  0  0  0  0  0  0  0  0  0  0
  151.4961  137.7667  153.1285 H   0  0  0  0  0  0  0  0  0  0  0  0
  152.6758  137.7460  154.3983 H   0  0  0  0  0  0  0  0  0  0  0  0
  151.5870  135.5747  154.1908 H   0  0  0  0  0  0  0  0  0  0  0  0
  151.2570  136.2434  155.7801 H   0  0  0  0  0  0  0  0  0  0  0  0
  148.9743  135.0271  156.1022 H   0  0  0  0  0  0  0  0  0  0  0  0
  146.7820  134.8316  155.2580 H   0  0  0  0  0  0  0  0  0  0  0  0
  147.2792  135.4485  153.6857 H   0  0  0  0  0  0  0  0  0  0  0  0
  146.7733  133.1159  153.1819 H   0  0  0  0  0  0  0  0  0  0  0  0
  147.0034  132.4506  155.7999 H   0  0  0  0  0  0  0  0  0  0  0  0
  147.5891  131.2781  154.6190 H   0  0  0  0  0  0  0  0  0  0  0  0
  149.2444  132.7414  156.5291 H   0  0  0  0  0  0  0  0  0  0  0  0
  149.7657  131.5965  155.2968 H   0  0  0  0  0  0  0  0  0  0  0  0
  150.7580  133.6668  154.5218 H   0  0  0  0  0  0  0  0  0  0  0  0
  149.2634  132.3456  152.8433 H   0  0  0  0  0  0  0  0  0  0  0  0
  149.1180  134.0816  152.4825 H   0  0  0  0  0  0  0  0  0  0  0  0
  147.7856  137.3903  154.6616 H   0  0  0  0  0  0  0  0  0  0  0  0
  148.8378  137.4530  156.0552 H   0  0  0  0  0  0  0  0  0  0  0  0
  148.8653  139.5970  154.7870 H   0  0  0  0  0  0  0  0  0  0  0  0
  149.3692  138.7737  153.3414 H   0  0  0  0  0  0  0  0  0  0  0  0
  149.4571  136.2075  153.4832 H   0  0  0  0  0  0  0  0  0  0  0  0
  152.5023  141.5869  159.7221 H   0  0  0  0  0  0  0  0  0  0  0  0
  1  2  2  0  0  0  0
  2  3  1  0  0  0  0
  2 12  1  0  0  0  0
  3  4  1  0  0  0  0
  3 25  1  0  0  0  0
  4  5  1  0  0  0  0
  4 26  1  0  0  0  0
  4 27  1  0  0  0  0
  5  6  1  0  0  0  0
  5 28  1  0  0  0  0
  5 29  1  0  0  0  0
  6 11  1  0  0  0  0
  6  7  2  0  0  0  0
  7  8  1  0  0  0  0
  7 30  1  0  0  0  0
  8  9  2  0  0  0  0
  8 31  1  0  0  0  0
  9 10  1  0  0  0  0
  9 32  1  0  0  0  0
 10 11  2  0  0  0  0
 10 33  1  0  0  0  0
 11 54  1  0  0  0  0
 12 24  1  0  0  0  0
 12 13  1  0  0  0  0
 13 14  1  0  0  0  0
 13 34  1  0  0  0  0
 13 35  1  0  0  0  0
 14 15  1  0  0  0  0
 14 36  1  0  0  0  0
 14 37  1  0  0  0  0
 15 16  1  0  0  0  0
 15 23  1  0  0  0  0
 15 53  1  0  0  0  0
 16 21  1  0  0  0  0
 16 17  1  0  0  0  0
 16 38  1  0  0  0  0
 17 18  1  0  0  0  0
 17 39  1  0  0  0  0
 17 40  1  0  0  0  0
 18 22  1  0  0  0  0
 18 19  1  0  0  0  0
 18 41  1  0  0  0  0
 19 20  1  0  0  0  0
 19 42  1  0  0  0  0
 19 43  1  0  0  0  0
 20 21  1  0  0  0  0
 20 44  1  0  0  0  0
 20 45  1  0  0  0  0
 21 22  1  0  0  0  0
 21 46  1  0  0  0  0
 22 47  1  0  0  0  0
 22 48  1  0  0  0  0
 23 24  1  0  0  0  0
 23 49  1  0  0  0  0
 23 50  1  0  0  0  0
 24 51  1  0  0  0  0
 24 52  1  0  0  0  0
M  CHG  1  11   1
M  CHG  1  15   1
M  END
> <s_m_source_file>
AV-unprocessed.smi

> <i_m_source_file_index>
907

> <i_lp_mmshare_version>
43012

> <i_f3d_flags>
0

> <s_epik_input>
W0NIMl0xW0NIMl1bQ0BASF0oW0NIMl0yKVtDQEBIXShbQ0gyXVtDQEhdMTIpTihbQ0gyXVtDSDJdMylbQ0gyXVtDSDJdTjNDKD1PKVtOSF1bQ0gyXVtDSDJdYzRbY0hdW2NIXVtjSF1bY0hdbjQ=

> <s_epik_cmdline>
J2VwaWtfcHl0aG9uJywgJy1waCcsICc3LjAnLCAnLXRuJywgJzgnLCAnLW1hJywgJzIwMCcsICctbWV0YWxfYmluZGluZycsICctaW1hZScsICc8aW5maWxlLm1hZT4nLCAnLW9tYWUnLCAnPG91dGZpbGUubWFlPic=

> <r_epik_Ionization_Penalty>
1.63018

> <r_epik_Ionization_Penalty_Charging>
1.63015

> <r_epik_Ionization_Penalty_Neutral>
2.64641e-05

> <r_epik_State_Penalty>
1.72761

> <r_epik_Charging_Adjusted_Penalty>
3.35777

> <i_epik_Tot_Q>
2

> <i_epik_Tot_abs_Q>
2

> <r_epik_Metal_State_Penalty>
1.76501

> <b_epik_Metal_Only>
0

> <s_lp_Force_Field>
OPLS_2005

> <r_lp_Energy>
104.704

> <b_lp_Chiralities_Consistent>
1

> <s_lp_Variant>
AV-unprocessed.smi:907-6

> <Gold.Version>
5.8.1

> <Gold.Id.Protein>
6NUR|6NUR_protein|mol2

> <Gold.PLP.Fitness>
53.0245

> <Gold.PLP.PLP>
-45.4507

> <Gold.PLP.part.hbond>
-2.0000

> <Gold.PLP.part.metal>
0.0000

> <Gold.PLP.part.buried>
-3.0565

> <Gold.PLP.part.nonpolar>
-39.6006

> <Gold.PLP.part.repulsive>
0.1252

> <Gold.PLP.ligand.clash>
0.7265

> <Gold.PLP.ligand.torsion>
0.4010

> <Gold.PLP.Chemscore.Hbond>
3.0000

> <Gold.PLP.Chemscore.CHOScore>
0.0000

> <Gold.PLP.Chemscore.Metal>
0.0000

> <Gold.Chemscore.Hbonds>
donor molecule, donor type, donor heavy atom, donor atom, acceptor molecule, acceptor atom, score
      L1  H    15    53       P1  7948  2.00
      P1  H  7997  8010       L1     1  1.00

> <Gold.PLP.Chemscore.Internal.Correction>
0.1022

> <Gold.Rescore>
     Score         DG    S(hbond)    S(metal)    S(lipo)     H(rot)  DE(clash)    DE(int)     intcor
     20.25     -22.29       1.88        0.00     121.88       1.46       0.35       1.69       ----

> <Gold.Chemscore.Fitness>
20.2492

> <Gold.Chemscore.DG>
-22.2870

> <Gold.Chemscore.ZeroCoef>
-5.4800

> <Gold.Chemscore.Hbond>
1.8795

> <Gold.Chemscore.Metal>
0.0000

> <Gold.Chemscore.Lipo>
121.8797

> <Gold.Chemscore.Internal_Hbond>
0.0000

> <Gold.Chemscore.DEClash>
0.3464

> <Gold.Chemscore.DEInternal>
1.6914

> <Gold.Chemscore.Rot>
1.4572

> <Gold.Chemscore.Internal.Correction>
   9.000000E+99

> <Gold.Chemscore.Hbonds>
donor molecule, donor type, donor heavy atom, donor atom, acceptor molecule, acceptor atom, score
      L1  H    15    53       P1  7948  0.60
      P1  H  7997  8010       L1     1  1.00

> <Gold.Chemscore.Hbond.Weighted>
-6.2776

> <Gold.Chemscore.Metal.Weighted>
-0.0000

> <Gold.Chemscore.Lipo.Weighted>
-14.2599

> <Gold.Chemscore.Internal_Hbond.Weighted>
0.0000

> <Gold.Chemscore.DEClash.Weighted>
0.3464

> <Gold.Chemscore.DEInternal.Weighted>
1.6914

> <Gold.Chemscore.Rot.Weighted>
3.7305

> <Gold.Chemscore.Internal.Correction.Weighted>
   9.000000E+99

> <Gold.Protein.RotatedTorsions>
[ 6907 6896 6895 6894 ] final -110.98 input  -60.11 | X-H torsion
[ 7974 7965 7964 7962 ] final   94.23 input  175.53 | X-H torsion
[ 8008 7997 7996 7995 ] final   82.16 input   59.86 | X-H torsion
[ 10167 10162 10161 10158 ] final  172.00 input  -65.29 | X-H torsion
[ 10718 10713 10712 10709 ] final  -82.85 input   66.30 | X-H torsion
[ 10763 10752 10751 10750 ] final  -14.61 input  -60.55 | X-H torsion
[ 11005 11000 10999 10996 ] final  110.60 input  -57.11 | X-H torsion

> <Gold.Protein.ActiveResidues>
 VAL166  LYS551  ARG553  GLY616  TRP617  ASP618  TYR619  PRO620  LYS621  CYS622 
 ASP623  PHE694  ASN695  SER759  ASP760  ASP761  ALA762  ILE779  LEU786  VAL792 
 PHE793  MET794  SER795  GLU796  ALA797  LYS798  CYS799  TRP800  GLU811  SER814 

> <Gold.Protein.RotatedAtoms>
  150.7660  133.9302  159.3424 H   0  0  0  0  0  0  0  0  0  0  0  0  # atno 6907 bound_to 6896
  151.7200  135.0894  160.0292 H   0  0  0  0  0  0  0  0  0  0  0  0  # atno 6908 bound_to 6896
  152.3656  133.6315  159.6083 H   0  0  0  0  0  0  0  0  0  0  0  0  # atno 6909 bound_to 6896
  145.4683  139.2283  143.2949 H   0  0  0  0  0  0  0  0  0  0  0  0  # atno 7974 bound_to 7965
  155.9069  140.3430  155.6069 H   0  0  0  0  0  0  0  0  0  0  0  0  # atno 8008 bound_to 7997
  155.7434  140.0810  157.2254 H   0  0  0  0  0  0  0  0  0  0  0  0  # atno 8009 bound_to 7997
  154.4050  140.1566  156.2629 H   0  0  0  0  0  0  0  0  0  0  0  0  # atno 8010 bound_to 7997
  139.5063  144.3422  152.0006 H   0  0  0  0  0  0  0  0  0  0  0  0  # atno 10167 bound_to 10162
  156.0027  130.4647  150.4168 H   0  0  0  0  0  0  0  0  0  0  0  0  # atno 10718 bound_to 10713
  153.5309  135.7014  153.5684 H   0  0  0  0  0  0  0  0  0  0  0  0  # atno 10763 bound_to 10752
  153.3691  135.3949  155.1775 H   0  0  0  0  0  0  0  0  0  0  0  0  # atno 10764 bound_to 10752
  154.8685  135.3807  154.4806 H   0  0  0  0  0  0  0  0  0  0  0  0  # atno 10765 bound_to 10752
  139.8885  134.9488  156.6304 H   0  0  0  0  0  0  0  0  0  0  0  0  # atno 11005 bound_to 11000
  146.2411  140.5459  142.8933 LP  0  0  0  0  0  0  0  0  0  0  0  0  # atno 17320 bound_to 7965
  144.7960  140.6124  143.6509 LP  0  0  0  0  0  0  0  0  0  0  0  0  # atno 17321 bound_to 7965
  140.2860  144.3807  150.6103 LP  0  0  0  0  0  0  0  0  0  0  0  0  # atno 17342 bound_to 10162
  140.5982  143.2167  151.7123 LP  0  0  0  0  0  0  0  0  0  0  0  0  # atno 17343 bound_to 10162
  157.2227  131.0486  151.2537 LP  0  0  0  0  0  0  0  0  0  0  0  0  # atno 17370 bound_to 10713
  157.3785  130.7219  149.6614 LP  0  0  0  0  0  0  0  0  0  0  0  0  # atno 17371 bound_to 10713
  140.7671  133.8769  155.8462 LP  0  0  0  0  0  0  0  0  0  0  0  0  # atno 17394 bound_to 11000
  140.9873  134.1325  157.4440 LP  0  0  0  0  0  0  0  0  0  0  0  0  # atno 17395 bound_to 11000

$$$$
