AV-unprocessed.smi:697|AV-procd|sdf|3390|dock4
  -GOLD-   22720 0373D 1   1.00000     0.00000
 Structure written by MMmdl.
 44 45  0  0  0  0  0  0  0  0  1 V2000
  149.9841  131.7524  157.1153 C   0  0  0  0  0  0  0  0  0  0  0  0
  149.4029  133.0455  157.0000 O   0  0  0  0  0  0  0  0  0  0  0  0
  149.7953  133.8479  155.8777 C   0  0  2  0  0  0  0  0  0  0  0  0
  149.4447  133.1402  154.5630 C   0  0  0  0  0  0  0  0  0  0  0  0
  151.2208  134.3961  156.0830 C   0  0  0  0  0  0  0  0  0  0  0  0
  150.5919  135.5092  156.9190 C   0  0  1  0  0  0  0  0  0  0  0  0
  151.2390  136.8024  156.7225 N   0  0  0  0  0  0  0  0  0  0  0  0
  150.6886  137.9791  157.0502 C   0  0  0  0  0  0  0  0  0  0  0  0
  149.5811  138.0823  157.5777 O   0  0  0  0  0  0  0  0  0  0  0  0
  151.4898  139.0010  156.6978 N   0  0  0  0  0  0  0  0  0  0  0  0
  151.2855  140.3807  156.8642 C   0  0  0  0  0  0  0  0  0  0  0  0
  151.7258  141.1054  157.9259 C   0  0  0  0  0  0  0  0  0  0  0  0
  151.4850  142.5346  158.0373 C   0  0  0  0  0  0  0  0  0  0  0  0
  152.0278  143.3450  159.2044 C   0  0  0  0  0  0  0  0  0  0  0  0
  152.6827  142.5702  160.0702 F   0  0  0  0  0  0  0  0  0  0  0  0
  152.8724  144.2732  158.7569 F   0  0  0  0  0  0  0  0  0  0  0  0
  151.0424  143.9612  159.8576 F   0  0  0  0  0  0  0  0  0  0  0  0
  150.8270  143.1134  157.0159 C   0  0  0  0  0  0  0  0  0  0  0  0
  150.3733  142.3759  155.9201 N   0  0  0  0  0  0  0  0  0  0  0  0
  150.5607  141.0457  155.7689 C   0  0  0  0  0  0  0  0  0  0  0  0
  150.1368  140.4684  154.7681 O   0  0  0  0  0  0  0  0  0  0  0  0
  149.2837  135.3072  156.1118 C   0  0  0  0  0  0  0  0  0  0  0  0
  149.1095  136.1710  154.8479 C   0  0  0  0  0  0  0  0  0  0  0  0
  147.9794  135.4616  156.9021 C   0  0  0  0  0  0  0  0  0  0  0  0
  149.8795  142.8822  155.1991 H   0  0  0  0  0  0  0  0  0  0  0  0
  149.7110  131.3259  158.0804 H   0  0  0  0  0  0  0  0  0  0  0  0
  151.0719  131.7792  157.0626 H   0  0  0  0  0  0  0  0  0  0  0  0
  149.6118  131.0732  156.3486 H   0  0  0  0  0  0  0  0  0  0  0  0
  149.6379  133.7730  153.6975 H   0  0  0  0  0  0  0  0  0  0  0  0
  148.3920  132.8585  154.5341 H   0  0  0  0  0  0  0  0  0  0  0  0
  150.0381  132.2383  154.4148 H   0  0  0  0  0  0  0  0  0  0  0  0
  151.9073  133.7552  156.6351 H   0  0  0  0  0  0  0  0  0  0  0  0
  151.6762  134.7488  155.1560 H   0  0  0  0  0  0  0  0  0  0  0  0
  150.4944  135.2171  157.9673 H   0  0  0  0  0  0  0  0  0  0  0  0
  152.1508  136.8003  156.2892 H   0  0  0  0  0  0  0  0  0  0  0  0
  152.3330  138.7587  156.1980 H   0  0  0  0  0  0  0  0  0  0  0  0
  152.2850  140.6380  158.7203 H   0  0  0  0  0  0  0  0  0  0  0  0
  150.6040  144.1686  156.9553 H   0  0  0  0  0  0  0  0  0  0  0  0
  148.9286  137.2174  155.0967 H   0  0  0  0  0  0  0  0  0  0  0  0
  148.2641  135.8332  154.2476 H   0  0  0  0  0  0  0  0  0  0  0  0
  149.9899  136.1451  154.2055 H   0  0  0  0  0  0  0  0  0  0  0  0
  147.7448  136.5104  157.0867 H   0  0  0  0  0  0  0  0  0  0  0  0
  148.0328  134.9790  157.8780 H   0  0  0  0  0  0  0  0  0  0  0  0
  147.1360  135.0229  156.3686 H   0  0  0  0  0  0  0  0  0  0  0  0
  1  2  1  0  0  0  0
  1 26  1  0  0  0  0
  1 27  1  0  0  0  0
  1 28  1  0  0  0  0
  2  3  1  0  0  0  0
  3 22  1  0  0  0  0
  3  4  1  0  0  0  0
  3  5  1  0  0  0  0
  4 29  1  0  0  0  0
  4 30  1  0  0  0  0
  4 31  1  0  0  0  0
  5  6  1  0  0  0  0
  5 32  1  0  0  0  0
  5 33  1  0  0  0  0
  6  7  1  0  0  0  0
  6 22  1  0  0  0  0
  6 34  1  0  0  0  0
  7  8  1  0  0  0  0
  7 35  1  0  0  0  0
  8  9  2  0  0  0  0
  8 10  1  0  0  0  0
 10 11  1  0  0  0  0
 10 36  1  0  0  0  0
 11 20  1  0  0  0  0
 11 12  2  0  0  0  0
 12 13  1  0  0  0  0
 12 37  1  0  0  0  0
 13 14  1  0  0  0  0
 13 18  2  0  0  0  0
 14 15  1  0  0  0  0
 14 16  1  0  0  0  0
 14 17  1  0  0  0  0
 18 19  1  0  0  0  0
 18 38  1  0  0  0  0
 19 25  1  0  0  0  0
 19 20  1  0  0  0  0
 20 21  2  0  0  0  0
 22 23  1  0  0  0  0
 22 24  1  0  0  0  0
 23 39  1  0  0  0  0
 23 40  1  0  0  0  0
 23 41  1  0  0  0  0
 24 42  1  0  0  0  0
 24 43  1  0  0  0  0
 24 44  1  0  0  0  0
M  END
> <s_m_source_file>
AV-unprocessed.smi

> <i_m_source_file_index>
697

> <i_lp_mmshare_version>
43012

> <i_f3d_flags>
0

> <s_epik_input>
W0NIM11PW0NAQF0xKFtDSDNdKVtDSDJdW0NASF0oQzEoW0NIM10pW0NIM10pW05IXUMoPU8pW05IXWMyW2NIXWMoQyhGKShGKUYpW2NIXVtuSF1jMj1P

> <s_epik_cmdline>
J2VwaWtfcHl0aG9uJywgJy1waCcsICc3LjAnLCAnLXRuJywgJzgnLCAnLW1hJywgJzIwMCcsICctbWV0YWxfYmluZGluZycsICctaW1hZScsICc8aW5maWxlLm1hZT4nLCAnLW9tYWUnLCAnPG91dGZpbGUubWFlPic=

> <r_lp_tautomer_probability>
1

> <r_epik_Ionization_Penalty>
0.0036482

> <r_epik_Ionization_Penalty_Charging>
0.00362828

> <r_epik_Ionization_Penalty_Neutral>
1.99208e-05

> <r_epik_State_Penalty>
-0

> <r_epik_Charging_Adjusted_Penalty>
0.00362828

> <i_epik_Tot_Q>
0

> <i_epik_Tot_abs_Q>
0

> <r_epik_Metal_State_Penalty>
0.369362

> <b_epik_Metal_Only>
0

> <s_lp_Force_Field>
OPLS_2005

> <r_lp_Energy>
34.8139

> <b_lp_Chiralities_Consistent>
1

> <s_lp_Variant>
AV-unprocessed.smi:697-2

> <Gold.Version>
5.8.1

> <Gold.Id.Protein>
6NUR|6NUR_protein|mol2

> <Gold.PLP.Fitness>
37.7079

> <Gold.PLP.PLP>
-33.0910

> <Gold.PLP.part.hbond>
-2.0000

> <Gold.PLP.part.metal>
0.0000

> <Gold.PLP.part.buried>
-0.8176

> <Gold.PLP.part.nonpolar>
-30.2334

> <Gold.PLP.part.repulsive>
0.3983

> <Gold.PLP.ligand.clash>
0.0000

> <Gold.PLP.ligand.torsion>
0.9740

> <Gold.PLP.Chemscore.Hbond>
1.3502

> <Gold.PLP.Chemscore.CHOScore>
0.7038

> <Gold.PLP.Chemscore.Metal>
0.0000

> <Gold.Chemscore.Hbonds>
donor molecule, donor type, donor heavy atom, donor atom, acceptor molecule, acceptor atom, score
      L1  H    19    25       P1  8028  0.31
      P1  H  7989  7998       L1    21  0.96
      L1  C    18    38       P1  8028  0.74

> <Gold.PLP.Chemscore.Internal.Correction>
0.4029

> <Gold.Rescore>
     Score         DG    S(hbond)    S(metal)    S(lipo)     H(rot)  DE(clash)    DE(int)     intcor
     13.67     -15.65       1.50        0.00      72.71       1.31       1.02       0.97       ----

> <Gold.Chemscore.Fitness>
13.6696

> <Gold.Chemscore.DG>
-15.6536

> <Gold.Chemscore.ZeroCoef>
-5.4800

> <Gold.Chemscore.Hbond>
1.5003

> <Gold.Chemscore.Metal>
0.0000

> <Gold.Chemscore.Lipo>
72.7060

> <Gold.Chemscore.Internal_Hbond>
0.0000

> <Gold.Chemscore.DEClash>
1.0159

> <Gold.Chemscore.DEInternal>
0.9681

> <Gold.Chemscore.Rot>
1.3062

> <Gold.Chemscore.Internal.Correction>
   9.000000E+99

> <Gold.Chemscore.Hbonds>
donor molecule, donor type, donor heavy atom, donor atom, acceptor molecule, acceptor atom, score
      L1  H    19    25       P1  8028  0.31
      P1  H  7989  7998       L1    21  0.23

> <Gold.Chemscore.Hbond.Weighted>
-5.0110

> <Gold.Chemscore.Metal.Weighted>
-0.0000

> <Gold.Chemscore.Lipo.Weighted>
-8.5066

> <Gold.Chemscore.Internal_Hbond.Weighted>
0.0000

> <Gold.Chemscore.DEClash.Weighted>
1.0159

> <Gold.Chemscore.DEInternal.Weighted>
0.9681

> <Gold.Chemscore.Rot.Weighted>
3.3440

> <Gold.Chemscore.Internal.Correction.Weighted>
   9.000000E+99

> <Gold.Protein.RotatedTorsions>
[ 6907 6896 6895 6894 ] final  -59.10 input  -60.11 | X-H torsion
[ 7974 7965 7964 7962 ] final -157.04 input  175.53 | X-H torsion
[ 8008 7997 7996 7995 ] final -130.56 input   59.86 | X-H torsion
[ 10167 10162 10161 10158 ] final -120.84 input  -65.29 | X-H torsion
[ 10718 10713 10712 10709 ] final   95.73 input   66.30 | X-H torsion
[ 10763 10752 10751 10750 ] final  -36.25 input  -60.55 | X-H torsion
[ 11005 11000 10999 10996 ] final   35.87 input  -57.11 | X-H torsion

> <Gold.Protein.ActiveResidues>
 VAL166  LYS551  ARG553  GLY616  TRP617  ASP618  TYR619  PRO620  LYS621  CYS622 
 ASP623  PHE694  ASN695  SER759  ASP760  ASP761  ALA762  ILE779  LEU786  VAL792 
 PHE793  MET794  SER795  GLU796  ALA797  LYS798  CYS799  TRP800  GLU811  SER814 

> <Gold.Protein.RotatedAtoms>
  150.7956  134.7012  159.6550 H   0  0  0  0  0  0  0  0  0  0  0  0  # atno 6907 bound_to 6896
  152.4067  134.6191  160.0056 H   0  0  0  0  0  0  0  0  0  0  0  0  # atno 6908 bound_to 6896
  151.6446  133.3287  159.3174 H   0  0  0  0  0  0  0  0  0  0  0  0  # atno 6909 bound_to 6896
  144.7566  140.4025  143.6008 H   0  0  0  0  0  0  0  0  0  0  0  0  # atno 7974 bound_to 7965
  155.2978  140.0451  157.3027 H   0  0  0  0  0  0  0  0  0  0  0  0  # atno 8008 bound_to 7997
  154.5504  140.2315  155.8462 H   0  0  0  0  0  0  0  0  0  0  0  0  # atno 8009 bound_to 7997
  156.1961  140.3038  155.9438 H   0  0  0  0  0  0  0  0  0  0  0  0  # atno 8010 bound_to 7997
  140.0315  143.5243  152.2174 H   0  0  0  0  0  0  0  0  0  0  0  0  # atno 10167 bound_to 10162
  157.6935  131.0555  150.4383 H   0  0  0  0  0  0  0  0  0  0  0  0  # atno 10718 bound_to 10713
  153.8767  135.6825  153.4770 H   0  0  0  0  0  0  0  0  0  0  0  0  # atno 10763 bound_to 10752
  153.1257  135.4720  154.9265 H   0  0  0  0  0  0  0  0  0  0  0  0  # atno 10764 bound_to 10752
  154.7688  135.3232  154.8183 H   0  0  0  0  0  0  0  0  0  0  0  0  # atno 10765 bound_to 10752
  140.2383  134.3445  155.7936 H   0  0  0  0  0  0  0  0  0  0  0  0  # atno 11005 bound_to 11000
  145.6759  139.1608  143.2728 LP  0  0  0  0  0  0  0  0  0  0  0  0  # atno 17320 bound_to 7965
  146.1583  140.6826  142.9290 LP  0  0  0  0  0  0  0  0  0  0  0  0  # atno 17321 bound_to 7965
  139.6073  144.7599  151.3033 LP  0  0  0  0  0  0  0  0  0  0  0  0  # atno 17342 bound_to 10162
  140.7300  143.6893  150.7935 LP  0  0  0  0  0  0  0  0  0  0  0  0  # atno 17343 bound_to 10162
  156.4744  130.4060  149.6499 LP  0  0  0  0  0  0  0  0  0  0  0  0  # atno 17370 bound_to 10713
  156.3568  130.7460  151.2427 LP  0  0  0  0  0  0  0  0  0  0  0  0  # atno 17371 bound_to 10713
  141.2212  133.7284  156.8844 LP  0  0  0  0  0  0  0  0  0  0  0  0  # atno 17394 bound_to 11000
  140.1679  134.9120  157.2797 LP  0  0  0  0  0  0  0  0  0  0  0  0  # atno 17395 bound_to 11000

$$$$
