AV-unprocessed.smi:646|AV-procd|sdf|3167|dock8
  -GOLD-   22720 0 93D 1   1.00000     0.00000
 Structure written by MMmdl.
 44 45  0  0  0  0  0  0  0  0  1 V2000
  144.4441  135.4120  150.2061 C   0  0  0  0  0  0  0  0  0  0  0  0
  145.2029  134.9907  151.3330 O   0  0  0  0  0  0  0  0  0  0  0  0
  145.3676  133.5791  151.5272 C   0  0  1  0  0  0  0  0  0  0  0  0
  144.0554  132.8403  151.2366 C   0  0  0  0  0  0  0  0  0  0  0  0
  146.6703  133.0948  150.8614 C   0  0  0  0  0  0  0  0  0  0  0  0
  147.3991  133.5595  152.1203 C   0  0  2  0  0  0  0  0  0  0  0  0
  148.4812  132.6627  152.5071 N   0  0  0  0  0  0  0  0  0  0  0  0
  149.0211  132.6115  153.7337 C   0  0  0  0  0  0  0  0  0  0  0  0
  148.7156  133.3818  154.6435 O   0  0  0  0  0  0  0  0  0  0  0  0
  150.0392  131.4991  153.9804 C   0  0  0  0  0  0  0  0  0  0  0  0
  150.4394  131.5010  155.4344 C   0  0  0  0  0  0  0  0  0  0  0  0
  150.4160  130.4115  156.3524 C   0  0  0  0  0  0  0  0  0  0  0  0
  149.9909  128.9922  156.1076 C   0  0  0  0  0  0  0  0  0  0  0  0
  150.8551  130.7643  157.5488 N   0  0  0  0  0  0  0  0  0  0  0  0
  151.1856  132.1192  157.4517 O   0  0  0  0  0  0  0  0  0  0  0  0
  150.9328  132.5331  156.1841 C   0  0  0  0  0  0  0  0  0  0  0  0
  151.2360  133.9593  155.8724 C   0  0  0  0  0  0  0  0  0  0  0  0
  146.0761  133.3504  152.9026 C   0  0  0  0  0  0  0  0  0  0  0  0
  145.7822  134.3731  154.0056 C   0  0  0  0  0  0  0  0  0  0  0  0
  145.8643  131.9675  153.5498 C   0  0  0  0  0  0  0  0  0  0  0  0
  144.5224  136.4949  150.1112 H   0  0  0  0  0  0  0  0  0  0  0  0
  143.3863  135.1762  150.3209 H   0  0  0  0  0  0  0  0  0  0  0  0
  144.8017  134.9732  149.2754 H   0  0  0  0  0  0  0  0  0  0  0  0
  144.1234  131.7810  151.4820 H   0  0  0  0  0  0  0  0  0  0  0  0
  143.7852  132.8883  150.1820 H   0  0  0  0  0  0  0  0  0  0  0  0
  143.2302  133.2572  151.8143 H   0  0  0  0  0  0  0  0  0  0  0  0
  146.6948  132.0131  150.7160 H   0  0  0  0  0  0  0  0  0  0  0  0
  146.9700  133.6167  149.9534 H   0  0  0  0  0  0  0  0  0  0  0  0
  147.6942  134.6092  152.0520 H   0  0  0  0  0  0  0  0  0  0  0  0
  148.7928  131.9935  151.8186 H   0  0  0  0  0  0  0  0  0  0  0  0
  149.6008  130.5457  153.6832 H   0  0  0  0  0  0  0  0  0  0  0  0
  150.9032  131.6513  153.3327 H   0  0  0  0  0  0  0  0  0  0  0  0
  149.1349  128.9496  155.4340 H   0  0  0  0  0  0  0  0  0  0  0  0
  149.7065  128.4916  157.0337 H   0  0  0  0  0  0  0  0  0  0  0  0
  150.7988  128.4188  155.6522 H   0  0  0  0  0  0  0  0  0  0  0  0
  151.6740  134.0532  154.8784 H   0  0  0  0  0  0  0  0  0  0  0  0
  151.9418  134.3771  156.5909 H   0  0  0  0  0  0  0  0  0  0  0  0
  150.3275  134.5608  155.9006 H   0  0  0  0  0  0  0  0  0  0  0  0
  146.3704  134.1765  154.9029 H   0  0  0  0  0  0  0  0  0  0  0  0
  144.7298  134.3595  154.2905 H   0  0  0  0  0  0  0  0  0  0  0  0
  146.0215  135.3899  153.6940 H   0  0  0  0  0  0  0  0  0  0  0  0
  146.5144  131.8221  154.4130 H   0  0  0  0  0  0  0  0  0  0  0  0
  146.0708  131.1512  152.8575 H   0  0  0  0  0  0  0  0  0  0  0  0
  144.8386  131.8423  153.8981 H   0  0  0  0  0  0  0  0  0  0  0  0
  1  2  1  0  0  0  0
  1 21  1  0  0  0  0
  1 22  1  0  0  0  0
  1 23  1  0  0  0  0
  2  3  1  0  0  0  0
  3 18  1  0  0  0  0
  3  4  1  0  0  0  0
  3  5  1  0  0  0  0
  4 24  1  0  0  0  0
  4 25  1  0  0  0  0
  4 26  1  0  0  0  0
  5  6  1  0  0  0  0
  5 27  1  0  0  0  0
  5 28  1  0  0  0  0
  6  7  1  0  0  0  0
  6 18  1  0  0  0  0
  6 29  1  0  0  0  0
  7  8  1  0  0  0  0
  7 30  1  0  0  0  0
  8  9  2  0  0  0  0
  8 10  1  0  0  0  0
 10 11  1  0  0  0  0
 10 31  1  0  0  0  0
 10 32  1  0  0  0  0
 11 16  2  0  0  0  0
 11 12  1  0  0  0  0
 12 13  1  0  0  0  0
 12 14  2  0  0  0  0
 13 33  1  0  0  0  0
 13 34  1  0  0  0  0
 13 35  1  0  0  0  0
 14 15  1  0  0  0  0
 15 16  1  0  0  0  0
 16 17  1  0  0  0  0
 17 36  1  0  0  0  0
 17 37  1  0  0  0  0
 17 38  1  0  0  0  0
 18 19  1  0  0  0  0
 18 20  1  0  0  0  0
 19 39  1  0  0  0  0
 19 40  1  0  0  0  0
 19 41  1  0  0  0  0
 20 42  1  0  0  0  0
 20 43  1  0  0  0  0
 20 44  1  0  0  0  0
M  END
> <s_m_source_file>
AV-unprocessed.smi

> <i_m_source_file_index>
646

> <i_lp_mmshare_version>
43012

> <i_f3d_flags>
0

> <s_epik_input>
W0NIM11PW0NAQF0xKFtDSDNdKVtDSDJdW0NASF0oQzEoW0NIM10pW0NIM10pW05IXUMoPU8pW0NIMl1jMmMoW0NIM10pbm9jMltDSDNd

> <s_epik_cmdline>
J2VwaWtfcHl0aG9uJywgJy1waCcsICc3LjAnLCAnLXRuJywgJzgnLCAnLW1hJywgJzIwMCcsICctbWV0YWxfYmluZGluZycsICctaW1hZScsICc8aW5maWxlLm1hZT4nLCAnLW9tYWUnLCAnPG91dGZpbGUubWFlPic=

> <r_lp_tautomer_probability>
1

> <r_epik_Ionization_Penalty>
2.13169e-08

> <r_epik_Ionization_Penalty_Charging>
0

> <r_epik_Ionization_Penalty_Neutral>
2.13169e-08

> <r_epik_State_Penalty>
-0

> <r_epik_Charging_Adjusted_Penalty>
0

> <i_epik_Tot_Q>
0

> <i_epik_Tot_abs_Q>
0

> <r_epik_Metal_State_Penalty>
-0

> <b_epik_Metal_Only>
0

> <s_lp_Force_Field>
OPLS_2005

> <r_lp_Energy>
15.7725

> <b_lp_Chiralities_Consistent>
1

> <s_lp_Variant>
AV-unprocessed.smi:646-3

> <Gold.Version>
5.8.1

> <Gold.Id.Protein>
6NUR|6NUR_protein|mol2

> <Gold.PLP.Fitness>
30.6734

> <Gold.PLP.PLP>
-25.3110

> <Gold.PLP.part.hbond>
-2.0000

> <Gold.PLP.part.metal>
0.0000

> <Gold.PLP.part.buried>
-0.9970

> <Gold.PLP.part.nonpolar>
-21.3691

> <Gold.PLP.part.repulsive>
0.2760

> <Gold.PLP.ligand.clash>
0.0000

> <Gold.PLP.ligand.torsion>
0.5106

> <Gold.PLP.Chemscore.Hbond>
2.0000

> <Gold.PLP.Chemscore.CHOScore>
0.0000

> <Gold.PLP.Chemscore.Metal>
0.0000

> <Gold.Chemscore.Hbonds>
donor molecule, donor type, donor heavy atom, donor atom, acceptor molecule, acceptor atom, score
      L1  H     7    30       P1 10747  1.00
      P1  H  6896  6907       L1    15  0.65

> <Gold.PLP.Chemscore.Internal.Correction>
0.3835

> <Gold.Rescore>
     Score         DG    S(hbond)    S(metal)    S(lipo)     H(rot)  DE(clash)    DE(int)     intcor
     13.70     -16.63       1.94        0.00      72.54       1.49       1.26       1.67       ----

> <Gold.Chemscore.Fitness>
13.7009

> <Gold.Chemscore.DG>
-16.6347

> <Gold.Chemscore.ZeroCoef>
-5.4800

> <Gold.Chemscore.Hbond>
1.9429

> <Gold.Chemscore.Metal>
0.0000

> <Gold.Chemscore.Lipo>
72.5402

> <Gold.Chemscore.Internal_Hbond>
0.0000

> <Gold.Chemscore.DEClash>
1.2632

> <Gold.Chemscore.DEInternal>
1.6705

> <Gold.Chemscore.Rot>
1.4928

> <Gold.Chemscore.Internal.Correction>
   9.000000E+99

> <Gold.Chemscore.Hbonds>
donor molecule, donor type, donor heavy atom, donor atom, acceptor molecule, acceptor atom, score
      L1  H     7    30       P1 10747  0.97
      P1  H  6896  6907       L1    15  0.64

> <Gold.Chemscore.Hbond.Weighted>
-6.4891

> <Gold.Chemscore.Metal.Weighted>
-0.0000

> <Gold.Chemscore.Lipo.Weighted>
-8.4872

> <Gold.Chemscore.Internal_Hbond.Weighted>
0.0000

> <Gold.Chemscore.DEClash.Weighted>
1.2632

> <Gold.Chemscore.DEInternal.Weighted>
1.6705

> <Gold.Chemscore.Rot.Weighted>
3.8217

> <Gold.Chemscore.Internal.Correction.Weighted>
   9.000000E+99

> <Gold.Protein.RotatedTorsions>
[ 6907 6896 6895 6894 ] final -172.26 input  -60.11 | X-H torsion
[ 7974 7965 7964 7962 ] final  -24.27 input  175.53 | X-H torsion
[ 8008 7997 7996 7995 ] final  151.62 input   59.86 | X-H torsion
[ 10167 10162 10161 10158 ] final   47.03 input  -65.29 | X-H torsion
[ 10718 10713 10712 10709 ] final  100.45 input   66.30 | X-H torsion
[ 10763 10752 10751 10750 ] final  -40.83 input  -60.55 | X-H torsion
[ 11005 11000 10999 10996 ] final   28.09 input  -57.11 | X-H torsion

> <Gold.Protein.ActiveResidues>
 VAL166  LYS551  ARG553  GLY616  TRP617  ASP618  TYR619  PRO620  LYS621  CYS622 
 ASP623  PHE694  ASN695  SER759  ASP760  ASP761  ALA762  ILE779  LEU786  VAL792 
 PHE793  MET794  SER795  GLU796  ALA797  LYS798  CYS799  TRP800  GLU811  SER814 

> <Gold.Protein.RotatedAtoms>
  151.5371  133.3439  159.2928 H   0  0  0  0  0  0  0  0  0  0  0  0  # atno 6907 bound_to 6896
  150.8558  134.7899  159.7055 H   0  0  0  0  0  0  0  0  0  0  0  0  # atno 6908 bound_to 6896
  152.4592  134.5232  159.9840 H   0  0  0  0  0  0  0  0  0  0  0  0  # atno 6909 bound_to 6896
  146.1565  140.4729  142.8589 H   0  0  0  0  0  0  0  0  0  0  0  0  # atno 7974 bound_to 7965
  156.2666  140.2043  156.6204 H   0  0  0  0  0  0  0  0  0  0  0  0  # atno 8008 bound_to 7997
  154.6761  140.0545  157.0241 H   0  0  0  0  0  0  0  0  0  0  0  0  # atno 8009 bound_to 7997
  155.1066  140.3211  155.4535 H   0  0  0  0  0  0  0  0  0  0  0  0  # atno 8010 bound_to 7997
  140.3078  144.2857  150.6206 H   0  0  0  0  0  0  0  0  0  0  0  0  # atno 10167 bound_to 10162
  157.6854  131.0698  150.5102 H   0  0  0  0  0  0  0  0  0  0  0  0  # atno 10718 bound_to 10713
  153.9524  135.6749  153.4744 H   0  0  0  0  0  0  0  0  0  0  0  0  # atno 10763 bound_to 10752
  153.0878  135.4890  154.8627 H   0  0  0  0  0  0  0  0  0  0  0  0  # atno 10764 bound_to 10752
  154.7318  135.3140  154.8838 H   0  0  0  0  0  0  0  0  0  0  0  0  # atno 10765 bound_to 10752
  140.3193  134.2561  155.7720 H   0  0  0  0  0  0  0  0  0  0  0  0  # atno 11005 bound_to 11000
  144.7970  140.6141  143.6503 LP  0  0  0  0  0  0  0  0  0  0  0  0  # atno 17320 bound_to 7965
  145.4695  139.1505  143.3822 LP  0  0  0  0  0  0  0  0  0  0  0  0  # atno 17321 bound_to 7965
  140.5595  143.2194  151.7790 LP  0  0  0  0  0  0  0  0  0  0  0  0  # atno 17342 bound_to 10162
  139.4900  144.4368  151.9810 LP  0  0  0  0  0  0  0  0  0  0  0  0  # atno 17343 bound_to 10162
  156.5419  130.4210  149.6150 LP  0  0  0  0  0  0  0  0  0  0  0  0  # atno 17370 bound_to 10713
  156.2978  130.7160  151.2024 LP  0  0  0  0  0  0  0  0  0  0  0  0  # atno 17371 bound_to 10713
  141.2090  133.7761  157.0023 LP  0  0  0  0  0  0  0  0  0  0  0  0  # atno 17394 bound_to 11000
  140.0955  134.9566  157.1843 LP  0  0  0  0  0  0  0  0  0  0  0  0  # atno 17395 bound_to 11000

$$$$
