AV-unprocessed.smi:1965|AV-procd|sdf|7935|dock9
  -GOLD-   2272010103D 1   1.00000     0.00000
 Structure written by MMmdl.
 37 39  0  0  0  0  0  0  0  0  2 V2000
  142.9357  136.0335  153.1762 O   0  0  0  0  0  0  0  0  0  0  0  0
  143.1020  137.2144  152.8766 C   0  0  0  0  0  0  0  0  0  0  0  0
  142.0773  138.0925  152.9026 N   0  0  0  0  0  0  0  0  0  0  0  0
  140.7024  137.9218  153.2370 C   0  0  0  0  0  0  0  0  0  0  0  0
  139.7807  138.8939  153.2273 N   0  0  0  0  0  0  0  0  0  0  0  0
  138.5233  138.4326  153.6252 C   0  0  0  0  0  0  0  0  0  0  0  0
  138.5052  137.0984  153.9460 C   0  0  0  0  0  0  0  0  0  0  0  0
  140.0758  136.3650  153.7610 S   0  0  0  0  0  0  0  0  0  0  0  0
  144.2957  137.7096  152.5092 N   0  0  0  0  0  0  0  0  0  0  0  0
  145.5496  136.9625  152.4470 C   0  0  1  0  0  0  0  0  0  0  0  0
  146.0457  136.5123  153.8350 C   0  0  0  0  0  0  0  0  0  0  0  0
  146.5421  135.0784  153.6246 C   0  0  0  0  0  0  0  0  0  0  0  0
  145.6444  134.5706  152.5810 N   0  3  2  0  0  0  0  0  0  0  0  0
  145.9701  133.2832  151.9342 C   0  0  0  0  0  0  0  0  0  0  0  0
  144.7917  132.8847  151.0197 C   0  0  0  0  0  0  0  0  0  0  0  0
  144.4061  134.0136  150.0369 C   0  0  0  0  0  0  0  0  0  0  0  0
  144.2059  135.3618  150.7622 C   0  0  0  0  0  0  0  0  0  0  0  0
  145.4533  135.6636  151.6126 C   0  0  1  0  0  0  0  0  0  0  0  0
  142.3099  139.0162  152.5671 H   0  0  0  0  0  0  0  0  0  0  0  0
  137.6943  139.1245  153.6537 H   0  0  0  0  0  0  0  0  0  0  0  0
  137.6671  136.5052  154.2812 H   0  0  0  0  0  0  0  0  0  0  0  0
  144.3381  138.6917  152.2753 H   0  0  0  0  0  0  0  0  0  0  0  0
  146.3216  137.5965  152.0062 H   0  0  0  0  0  0  0  0  0  0  0  0
  146.8200  137.1662  154.2374 H   0  0  0  0  0  0  0  0  0  0  0  0
  145.2198  136.5044  154.5484 H   0  0  0  0  0  0  0  0  0  0  0  0
  147.5705  135.0771  153.2597 H   0  0  0  0  0  0  0  0  0  0  0  0
  146.4944  134.4777  154.5334 H   0  0  0  0  0  0  0  0  0  0  0  0
  146.8943  133.3732  151.3616 H   0  0  0  0  0  0  0  0  0  0  0  0
  146.1322  132.5187  152.6946 H   0  0  0  0  0  0  0  0  0  0  0  0
  145.0369  131.9761  150.4687 H   0  0  0  0  0  0  0  0  0  0  0  0
  143.9262  132.6427  151.6384 H   0  0  0  0  0  0  0  0  0  0  0  0
  145.1931  134.1215  149.2893 H   0  0  0  0  0  0  0  0  0  0  0  0
  143.5012  133.7435  149.4918 H   0  0  0  0  0  0  0  0  0  0  0  0
  144.0398  136.1531  150.0306 H   0  0  0  0  0  0  0  0  0  0  0  0
  143.3166  135.3181  151.3928 H   0  0  0  0  0  0  0  0  0  0  0  0
  146.3189  135.6650  150.9464 H   0  0  0  0  0  0  0  0  0  0  0  0
  144.7514  134.4439  153.0355 H   0  0  0  0  0  0  0  0  0  0  0  0
  1  2  2  0  0  0  0
  2  3  1  0  0  0  0
  2  9  1  0  0  0  0
  3  4  1  0  0  0  0
  3 19  1  0  0  0  0
  4  8  1  0  0  0  0
  4  5  2  0  0  0  0
  5  6  1  0  0  0  0
  6  7  2  0  0  0  0
  6 20  1  0  0  0  0
  7  8  1  0  0  0  0
  7 21  1  0  0  0  0
  9 10  1  0  0  0  0
  9 22  1  0  0  0  0
 10 18  1  0  0  0  0
 10 11  1  0  0  0  0
 10 23  1  0  0  0  0
 11 12  1  0  0  0  0
 11 24  1  0  0  0  0
 11 25  1  0  0  0  0
 12 13  1  0  0  0  0
 12 26  1  0  0  0  0
 12 27  1  0  0  0  0
 13 18  1  0  0  0  0
 13 14  1  0  0  0  0
 13 37  1  0  0  0  0
 14 15  1  0  0  0  0
 14 28  1  0  0  0  0
 14 29  1  0  0  0  0
 15 16  1  0  0  0  0
 15 30  1  0  0  0  0
 15 31  1  0  0  0  0
 16 17  1  0  0  0  0
 16 32  1  0  0  0  0
 16 33  1  0  0  0  0
 17 18  1  0  0  0  0
 17 34  1  0  0  0  0
 17 35  1  0  0  0  0
 18 36  1  0  0  0  0
M  CHG  1  13   1
M  END
> <s_m_source_file>
AV-unprocessed.smi

> <i_m_source_file_index>
1965

> <i_lp_mmshare_version>
43012

> <i_f3d_flags>
0

> <s_epik_input>
czFbY0hdW2NIXW5jMVtOSF1DKD1PKVtOSF1bQ0BIXShbQ0gyXVtDSDJdMilbQ0BASF0oTjIzKVtDSDJdW0NIMl1bQ0gyXVtDSDJdMw==

> <s_epik_cmdline>
J2VwaWtfcHl0aG9uJywgJy1waCcsICc3LjAnLCAnLXRuJywgJzgnLCAnLW1hJywgJzIwMCcsICctbWV0YWxfYmluZGluZycsICctaW1hZScsICc8aW5maWxlLm1hZT4nLCAnLW9tYWUnLCAnPG91dGZpbGUubWFlPic=

> <r_lp_tautomer_probability>
1

> <r_epik_Ionization_Penalty>
0.00125962

> <r_epik_Ionization_Penalty_Charging>
0.00107044

> <r_epik_Ionization_Penalty_Neutral>
0.000189176

> <r_epik_State_Penalty>
-0

> <r_epik_Charging_Adjusted_Penalty>
0.00107044

> <i_epik_Tot_Q>
1

> <i_epik_Tot_abs_Q>
1

> <r_epik_Metal_State_Penalty>
0.0179285

> <b_epik_Metal_Only>
0

> <s_lp_Force_Field>
OPLS_2005

> <r_lp_Energy>
42.2865

> <b_lp_Chiralities_Consistent>
1

> <s_lp_Variant>
AV-unprocessed.smi:1965-4

> <Gold.Version>
5.8.1

> <Gold.Id.Protein>
6NUR|6NUR_protein|mol2

> <Gold.PLP.Fitness>
37.4144

> <Gold.PLP.PLP>
-31.5349

> <Gold.PLP.part.hbond>
-3.0000

> <Gold.PLP.part.metal>
0.0000

> <Gold.PLP.part.buried>
-5.0777

> <Gold.PLP.part.nonpolar>
-24.4475

> <Gold.PLP.part.repulsive>
1.3637

> <Gold.PLP.ligand.clash>
0.0000

> <Gold.PLP.ligand.torsion>
0.0486

> <Gold.PLP.Chemscore.Hbond>
1.9920

> <Gold.PLP.Chemscore.CHOScore>
0.0000

> <Gold.PLP.Chemscore.Metal>
0.0000

> <Gold.Chemscore.Hbonds>
donor molecule, donor type, donor heavy atom, donor atom, acceptor molecule, acceptor atom, score
      L1  H     3    19       P1 10175  0.98
      L1  H     9    22       P1 10175  0.99

> <Gold.PLP.Chemscore.Internal.Correction>
0.0007

> <Gold.Rescore>
     Score         DG    S(hbond)    S(metal)    S(lipo)     H(rot)  DE(clash)    DE(int)     intcor
     13.74     -15.83       1.86        0.00      57.18       1.00       0.18       1.91       ----

> <Gold.Chemscore.Fitness>
13.7420

> <Gold.Chemscore.DG>
-15.8349

> <Gold.Chemscore.ZeroCoef>
-5.4800

> <Gold.Chemscore.Hbond>
1.8638

> <Gold.Chemscore.Metal>
0.0000

> <Gold.Chemscore.Lipo>
57.1770

> <Gold.Chemscore.Internal_Hbond>
0.0000

> <Gold.Chemscore.DEClash>
0.1817

> <Gold.Chemscore.DEInternal>
1.9112

> <Gold.Chemscore.Rot>
1.0000

> <Gold.Chemscore.Internal.Correction>
   9.000000E+99

> <Gold.Chemscore.Hbonds>
donor molecule, donor type, donor heavy atom, donor atom, acceptor molecule, acceptor atom, score
      L1  H     3    19       P1 10175  0.88
      L1  H     9    22       P1 10175  0.94

> <Gold.Chemscore.Hbond.Weighted>
-6.2252

> <Gold.Chemscore.Metal.Weighted>
-0.0000

> <Gold.Chemscore.Lipo.Weighted>
-6.6897

> <Gold.Chemscore.Internal_Hbond.Weighted>
0.0000

> <Gold.Chemscore.DEClash.Weighted>
0.1817

> <Gold.Chemscore.DEInternal.Weighted>
1.9112

> <Gold.Chemscore.Rot.Weighted>
2.5600

> <Gold.Chemscore.Internal.Correction.Weighted>
   9.000000E+99

> <Gold.Protein.RotatedTorsions>
[ 6907 6896 6895 6894 ] final -153.37 input  -60.11 | X-H torsion
[ 7974 7965 7964 7962 ] final -172.07 input  175.53 | X-H torsion
[ 8008 7997 7996 7995 ] final  168.94 input   59.86 | X-H torsion
[ 10167 10162 10161 10158 ] final  -19.91 input  -65.29 | X-H torsion
[ 10718 10713 10712 10709 ] final -151.21 input   66.30 | X-H torsion
[ 10763 10752 10751 10750 ] final  -39.98 input  -60.55 | X-H torsion
[ 11005 11000 10999 10996 ] final  -77.61 input  -57.11 | X-H torsion

> <Gold.Protein.ActiveResidues>
 VAL166  LYS551  ARG553  GLY616  TRP617  ASP618  TYR619  PRO620  LYS621  CYS622 
 ASP623  PHE694  ASN695  SER759  ASP760  ASP761  ALA762  ILE779  LEU786  VAL792 
 PHE793  MET794  SER795  GLU796  ALA797  LYS798  CYS799  TRP800  GLU811  SER814 

> <Gold.Protein.RotatedAtoms>
  151.2416  133.4396  159.2607 H   0  0  0  0  0  0  0  0  0  0  0  0  # atno 6907 bound_to 6896
  151.0700  134.9792  159.8314 H   0  0  0  0  0  0  0  0  0  0  0  0  # atno 6908 bound_to 6896
  152.5411  134.2362  159.8897 H   0  0  0  0  0  0  0  0  0  0  0  0  # atno 6909 bound_to 6896
  144.7150  140.1827  143.6356 H   0  0  0  0  0  0  0  0  0  0  0  0  # atno 7974 bound_to 7965
  156.1502  140.1577  156.8782 H   0  0  0  0  0  0  0  0  0  0  0  0  # atno 8008 bound_to 7997
  154.5064  140.0812  156.7940 H   0  0  0  0  0  0  0  0  0  0  0  0  # atno 8009 bound_to 7997
  155.3911  140.3410  155.4253 H   0  0  0  0  0  0  0  0  0  0  0  0  # atno 8010 bound_to 7997
  140.7272  143.4773  151.0165 H   0  0  0  0  0  0  0  0  0  0  0  0  # atno 10167 bound_to 10162
  156.4563  130.8192  151.2423 H   0  0  0  0  0  0  0  0  0  0  0  0  # atno 10718 bound_to 10713
  153.9384  135.6764  153.4744 H   0  0  0  0  0  0  0  0  0  0  0  0  # atno 10763 bound_to 10752
  153.0944  135.4858  154.8748 H   0  0  0  0  0  0  0  0  0  0  0  0  # atno 10764 bound_to 10752
  154.7391  135.3156  154.8718 H   0  0  0  0  0  0  0  0  0  0  0  0  # atno 10765 bound_to 10752
  141.1661  133.7029  156.7846 H   0  0  0  0  0  0  0  0  0  0  0  0  # atno 11005 bound_to 11000
  145.8841  139.2339  143.1588 LP  0  0  0  0  0  0  0  0  0  0  0  0  # atno 17320 bound_to 7965
  145.9967  140.8556  143.0039 LP  0  0  0  0  0  0  0  0  0  0  0  0  # atno 17321 bound_to 7965
  139.8469  143.7489  152.3179 LP  0  0  0  0  0  0  0  0  0  0  0  0  # atno 17342 bound_to 10162
  139.7658  144.7492  151.0297 LP  0  0  0  0  0  0  0  0  0  0  0  0  # atno 17343 bound_to 10162
  157.7500  131.0121  150.3373 LP  0  0  0  0  0  0  0  0  0  0  0  0  # atno 17370 bound_to 10713
  156.3763  130.3872  149.7136 LP  0  0  0  0  0  0  0  0  0  0  0  0  # atno 17371 bound_to 10713
  140.2370  134.8643  157.3534 LP  0  0  0  0  0  0  0  0  0  0  0  0  # atno 17394 bound_to 11000
  140.1834  134.4461  155.7758 LP  0  0  0  0  0  0  0  0  0  0  0  0  # atno 17395 bound_to 11000

$$$$
