AV-unprocessed.smi:544|AV-procd|sdf|2879|dock9
  -GOLD-   2262023373D 1   1.00000     0.00000
 Structure written by MMmdl.
 48 50  0  0  0  0  0  0  0  0  2 V2000
  146.1255  139.8444  154.4460 C   0  0  0  0  0  0  0  0  0  0  0  0
  146.4810  141.2322  154.9840 C   0  0  0  0  0  0  0  0  0  0  0  0
  147.8863  141.4044  154.9172 O   0  0  0  0  0  0  0  0  0  0  0  0
  148.5342  141.0950  156.1396 C   0  0  0  0  0  0  0  0  0  0  0  0
  150.0015  141.5458  156.0474 C   0  0  0  0  0  0  0  0  0  0  0  0
  150.8834  140.7551  156.9023 N   0  0  0  0  0  0  0  0  0  0  0  0
  151.5458  141.1294  158.0363 C   0  0  0  0  0  0  0  0  0  0  0  0
  151.4584  142.4087  158.6047 N   0  0  0  0  0  0  0  0  0  0  0  0
  150.8362  143.6043  158.0296 C   0  0  0  0  0  0  0  0  0  0  0  0
  151.7656  144.8293  158.0969 C   0  0  0  0  0  0  0  0  0  0  0  0
  152.1747  145.1140  159.5468 C   0  0  0  0  0  0  0  0  0  0  0  0
  152.7431  143.8404  160.1937 C   0  0  1  0  0  0  0  0  0  0  0  0
  153.0858  144.0652  161.6723 C   0  0  0  0  0  0  0  0  0  0  0  0
  151.7515  142.6725  160.0159 C   0  0  0  0  0  0  0  0  0  0  0  0
  152.3251  140.1747  158.5519 N   0  0  0  0  0  0  0  0  0  0  0  0
  152.1369  139.1051  157.6935 C   0  0  0  0  0  0  0  0  0  0  0  0
  151.2841  139.4305  156.6869 C   0  0  0  0  0  0  0  0  0  0  0  0
  150.9173  138.5026  155.5923 C   0  0  0  0  0  0  0  0  0  0  0  0
  150.1625  138.8519  154.6872 O   0  0  0  0  0  0  0  0  0  0  0  0
  151.5130  137.2759  155.7312 N   0  5  0  0  0  0  0  0  0  0  0  0
  152.3745  136.9031  156.7401 C   0  0  0  0  0  0  0  0  0  0  0  0
  152.8673  135.7753  156.7908 O   0  0  0  0  0  0  0  0  0  0  0  0
  152.7015  137.8009  157.7215 N   0  0  0  0  0  0  0  0  0  0  0  0
  153.6189  137.4343  158.8043 C   0  0  0  0  0  0  0  0  0  0  0  0
  145.0492  139.6768  154.4839 H   0  0  0  0  0  0  0  0  0  0  0  0
  146.6074  139.0621  155.0327 H   0  0  0  0  0  0  0  0  0  0  0  0
  146.4459  139.7329  153.4098 H   0  0  0  0  0  0  0  0  0  0  0  0
  145.9788  141.9996  154.3931 H   0  0  0  0  0  0  0  0  0  0  0  0
  146.1381  141.3308  156.0149 H   0  0  0  0  0  0  0  0  0  0  0  0
  148.0248  141.5919  156.9650 H   0  0  0  0  0  0  0  0  0  0  0  0
  148.4716  140.0242  156.3319 H   0  0  0  0  0  0  0  0  0  0  0  0
  150.3536  141.4754  155.0186 H   0  0  0  0  0  0  0  0  0  0  0  0
  150.0971  142.5988  156.2986 H   0  0  0  0  0  0  0  0  0  0  0  0
  150.5257  143.4271  157.0048 H   0  0  0  0  0  0  0  0  0  0  0  0
  149.9165  143.8134  158.5774 H   0  0  0  0  0  0  0  0  0  0  0  0
  152.6566  144.6596  157.4922 H   0  0  0  0  0  0  0  0  0  0  0  0
  151.2654  145.7005  157.6728 H   0  0  0  0  0  0  0  0  0  0  0  0
  152.9079  145.9205  159.5793 H   0  0  0  0  0  0  0  0  0  0  0  0
  151.3049  145.4577  160.1085 H   0  0  0  0  0  0  0  0  0  0  0  0
  153.6676  143.5787  159.6761 H   0  0  0  0  0  0  0  0  0  0  0  0
  152.1980  144.3245  162.2498 H   0  0  0  0  0  0  0  0  0  0  0  0
  153.8080  144.8738  161.7891 H   0  0  0  0  0  0  0  0  0  0  0  0
  153.5209  143.1687  162.1150 H   0  0  0  0  0  0  0  0  0  0  0  0
  150.8195  142.8796  160.5437 H   0  0  0  0  0  0  0  0  0  0  0  0
  152.1722  141.7782  160.4765 H   0  0  0  0  0  0  0  0  0  0  0  0
  153.2181  136.5963  159.3759 H   0  0  0  0  0  0  0  0  0  0  0  0
  153.7938  138.2514  159.5033 H   0  0  0  0  0  0  0  0  0  0  0  0
  154.5884  137.1394  158.4005 H   0  0  0  0  0  0  0  0  0  0  0  0
  1  2  1  0  0  0  0
  1 25  1  0  0  0  0
  1 26  1  0  0  0  0
  1 27  1  0  0  0  0
  2  3  1  0  0  0  0
  2 28  1  0  0  0  0
  2 29  1  0  0  0  0
  3  4  1  0  0  0  0
  4  5  1  0  0  0  0
  4 30  1  0  0  0  0
  4 31  1  0  0  0  0
  5  6  1  0  0  0  0
  5 32  1  0  0  0  0
  5 33  1  0  0  0  0
  6 17  1  0  0  0  0
  6  7  1  0  0  0  0
  7  8  1  0  0  0  0
  7 15  2  0  0  0  0
  8 14  1  0  0  0  0
  8  9  1  0  0  0  0
  9 10  1  0  0  0  0
  9 34  1  0  0  0  0
  9 35  1  0  0  0  0
 10 11  1  0  0  0  0
 10 36  1  0  0  0  0
 10 37  1  0  0  0  0
 11 12  1  0  0  0  0
 11 38  1  0  0  0  0
 11 39  1  0  0  0  0
 12 13  1  0  0  0  0
 12 14  1  0  0  0  0
 12 40  1  0  0  0  0
 13 41  1  0  0  0  0
 13 42  1  0  0  0  0
 13 43  1  0  0  0  0
 14 44  1  0  0  0  0
 14 45  1  0  0  0  0
 15 16  1  0  0  0  0
 16 23  1  0  0  0  0
 16 17  2  0  0  0  0
 17 18  1  0  0  0  0
 18 19  2  0  0  0  0
 18 20  1  0  0  0  0
 20 21  1  0  0  0  0
 21 22  2  0  0  0  0
 21 23  1  0  0  0  0
 23 24  1  0  0  0  0
 24 46  1  0  0  0  0
 24 47  1  0  0  0  0
 24 48  1  0  0  0  0
M  CHG  1  20  -1
M  END
> <s_m_source_file>
AV-unprocessed.smi

> <i_m_source_file_index>
544

> <i_lp_mmshare_version>
43012

> <i_f3d_flags>
0

> <s_epik_input>
W0NIM11uMWMoPU8pW25IXWMoPU8pYyhjMTIpbihbQ0gyXVtDSDJdT1tDSDJdW0NIM10pYyhuMilOM1tDSDJdW0NIMl1bQ0gyXVtDQEBIXShbQ0gzXSlbQ0gyXTM=

> <s_epik_cmdline>
J2VwaWtfcHl0aG9uJywgJy1waCcsICc3LjAnLCAnLXRuJywgJzgnLCAnLW1hJywgJzIwMCcsICctbWV0YWxfYmluZGluZycsICctaW1hZScsICc8aW5maWxlLm1hZT4nLCAnLW9tYWUnLCAnPG91dGZpbGUubWFlPic=

> <r_lp_tautomer_probability>
1

> <r_epik_Ionization_Penalty>
5.1213

> <r_epik_Ionization_Penalty_Charging>
0.0741877

> <r_epik_Ionization_Penalty_Neutral>
5.04711

> <r_epik_State_Penalty>
5.04142

> <r_epik_Charging_Adjusted_Penalty>
5.11561

> <i_epik_Tot_Q>
-1

> <i_epik_Tot_abs_Q>
1

> <r_epik_Metal_State_Penalty>
1.14934

> <b_epik_Metal_Only>
1

> <s_lp_Force_Field>
OPLS_2005

> <r_lp_Energy>
41.9091

> <b_lp_Chiralities_Consistent>
1

> <s_lp_Variant>
AV-unprocessed.smi:544-3

> <Gold.Version>
5.8.1

> <Gold.Id.Protein>
6NUR|6NUR_protein|mol2

> <Gold.PLP.Fitness>
51.3794

> <Gold.PLP.PLP>
-45.9720

> <Gold.PLP.part.hbond>
-3.6982

> <Gold.PLP.part.metal>
0.0000

> <Gold.PLP.part.buried>
-3.6491

> <Gold.PLP.part.nonpolar>
-38.0436

> <Gold.PLP.part.repulsive>
0.3979

> <Gold.PLP.ligand.clash>
0.7602

> <Gold.PLP.ligand.torsion>
0.6880

> <Gold.PLP.Chemscore.Hbond>
2.4655

> <Gold.PLP.Chemscore.CHOScore>
0.0000

> <Gold.PLP.Chemscore.Metal>
0.0000

> <Gold.Chemscore.Hbonds>
donor molecule, donor type, donor heavy atom, donor atom, acceptor molecule, acceptor atom, score
      P1  H 10752 10763       L1    22  1.00

> <Gold.PLP.Chemscore.Internal.Correction>
0.1471

> <Gold.Rescore>
     Score         DG    S(hbond)    S(metal)    S(lipo)     H(rot)  DE(clash)    DE(int)     intcor
     17.49     -20.31       1.85        0.00     107.85       1.55       1.00       1.83       ----

> <Gold.Chemscore.Fitness>
17.4899

> <Gold.Chemscore.DG>
-20.3137

> <Gold.Chemscore.ZeroCoef>
-5.4800

> <Gold.Chemscore.Hbond>
1.8540

> <Gold.Chemscore.Metal>
0.0000

> <Gold.Chemscore.Lipo>
107.8482

> <Gold.Chemscore.Internal_Hbond>
0.0000

> <Gold.Chemscore.DEClash>
0.9966

> <Gold.Chemscore.DEInternal>
1.8272

> <Gold.Chemscore.Rot>
1.5534

> <Gold.Chemscore.Internal.Correction>
   9.000000E+99

> <Gold.Chemscore.Hbonds>
donor molecule, donor type, donor heavy atom, donor atom, acceptor molecule, acceptor atom, score
      P1  H 10752 10763       L1    22  0.50

> <Gold.Chemscore.Hbond.Weighted>
-6.1923

> <Gold.Chemscore.Metal.Weighted>
-0.0000

> <Gold.Chemscore.Lipo.Weighted>
-12.6182

> <Gold.Chemscore.Internal_Hbond.Weighted>
0.0000

> <Gold.Chemscore.DEClash.Weighted>
0.9966

> <Gold.Chemscore.DEInternal.Weighted>
1.8272

> <Gold.Chemscore.Rot.Weighted>
3.9768

> <Gold.Chemscore.Internal.Correction.Weighted>
   9.000000E+99

> <Gold.Protein.RotatedTorsions>
[ 6907 6896 6895 6894 ] final  103.93 input  -60.11 | X-H torsion
[ 7974 7965 7964 7962 ] final -157.95 input  175.53 | X-H torsion
[ 8008 7997 7996 7995 ] final  152.88 input   59.86 | X-H torsion
[ 10167 10162 10161 10158 ] final  171.08 input  -65.29 | X-H torsion
[ 10718 10713 10712 10709 ] final -138.24 input   66.30 | X-H torsion
[ 10763 10752 10751 10750 ] final  100.99 input  -60.55 | X-H torsion
[ 11005 11000 10999 10996 ] final  158.56 input  -57.11 | X-H torsion

> <Gold.Protein.ActiveResidues>
 VAL166  LYS551  ARG553  GLY616  TRP617  ASP618  TYR619  PRO620  LYS621  CYS622 
 ASP623  PHE694  ASN695  SER759  ASP760  ASP761  ALA762  ILE779  LEU786  VAL792 
 PHE793  MET794  SER795  GLU796  ALA797  LYS798  CYS799  TRP800  GLU811  SER814 

> <Gold.Protein.RotatedAtoms>
  152.5280  133.9752  159.7780 H   0  0  0  0  0  0  0  0  0  0  0  0  # atno 6907 bound_to 6896
  151.0016  133.6042  159.2701 H   0  0  0  0  0  0  0  0  0  0  0  0  # atno 6908 bound_to 6896
  151.3149  135.0810  159.9338 H   0  0  0  0  0  0  0  0  0  0  0  0  # atno 6909 bound_to 6896
  144.7526  140.3896  143.6036 H   0  0  0  0  0  0  0  0  0  0  0  0  # atno 7974 bound_to 7965
  156.2608  140.2009  156.6402 H   0  0  0  0  0  0  0  0  0  0  0  0  # atno 8008 bound_to 7997
  154.6615  140.0560  157.0092 H   0  0  0  0  0  0  0  0  0  0  0  0  # atno 8009 bound_to 7997
  155.1269  140.3230  155.4486 H   0  0  0  0  0  0  0  0  0  0  0  0  # atno 8010 bound_to 7997
  139.5036  144.3526  151.9907 H   0  0  0  0  0  0  0  0  0  0  0  0  # atno 10167 bound_to 10162
  156.2971  130.7408  151.1449 H   0  0  0  0  0  0  0  0  0  0  0  0  # atno 10718 bound_to 10713
  153.3210  135.4060  155.1416 H   0  0  0  0  0  0  0  0  0  0  0  0  # atno 10763 bound_to 10752
  154.8600  135.3587  154.5597 H   0  0  0  0  0  0  0  0  0  0  0  0  # atno 10764 bound_to 10752
  153.6030  135.7070  153.5436 H   0  0  0  0  0  0  0  0  0  0  0  0  # atno 10765 bound_to 10752
  140.1877  134.8430  157.2876 H   0  0  0  0  0  0  0  0  0  0  0  0  # atno 11005 bound_to 11000
  145.6890  139.1635  143.2657 LP  0  0  0  0  0  0  0  0  0  0  0  0  # atno 17320 bound_to 7965
  146.1496  140.6944  142.9328 LP  0  0  0  0  0  0  0  0  0  0  0  0  # atno 17321 bound_to 7965
  140.2962  144.3698  150.6073 LP  0  0  0  0  0  0  0  0  0  0  0  0  # atno 17342 bound_to 10162
  140.5908  143.2168  151.7256 LP  0  0  0  0  0  0  0  0  0  0  0  0  # atno 17343 bound_to 10162
  157.7358  131.0568  150.5449 LP  0  0  0  0  0  0  0  0  0  0  0  0  # atno 17370 bound_to 10713
  156.5572  130.4246  149.6080 LP  0  0  0  0  0  0  0  0  0  0  0  0  # atno 17371 bound_to 10713
  140.2195  134.4041  155.7573 LP  0  0  0  0  0  0  0  0  0  0  0  0  # atno 17394 bound_to 11000
  141.2225  133.7159  156.8467 LP  0  0  0  0  0  0  0  0  0  0  0  0  # atno 17395 bound_to 11000

$$$$
