AV-unprocessed.smi:1244|AV-procd|sdf|5235|dock6
  -GOLD-   22720 4343D 1   1.00000     0.00000
 Structure written by MMmdl.
 55 57  0  0  0  0  0  0  0  0  4 V2000
  154.1084  134.6287  163.8709 C   0  0  0  0  0  0  0  0  0  0  0  0
  154.0375  136.1089  164.2861 C   0  0  2  0  0  0  0  0  0  0  0  0
  153.4989  137.0335  163.1768 C   0  0  0  0  0  0  0  0  0  0  0  0
  154.5091  137.2355  162.1103 N   0  3  1  0  0  0  0  0  0  0  0  0
  153.9985  138.0548  160.9791 C   0  0  0  0  0  0  0  0  0  0  0  0
  152.6888  137.4874  160.3946 C   0  0  0  0  0  0  0  0  0  0  0  0
  152.2569  138.2993  159.2575 N   0  5  0  0  0  0  0  0  0  0  0  0
  152.7232  139.5434  158.9666 C   0  0  0  0  0  0  0  0  0  0  0  0
  153.9012  139.9127  158.9025 O   0  0  0  0  0  0  0  0  0  0  0  0
  151.7228  140.4152  158.7512 N   0  0  0  0  0  0  0  0  0  0  0  0
  151.7864  141.8066  158.4561 C   0  0  0  0  0  0  0  0  0  0  0  0
  152.7651  142.6434  159.0508 C   0  0  0  0  0  0  0  0  0  0  0  0
  152.7896  144.0187  158.7527 C   0  0  0  0  0  0  0  0  0  0  0  0
  151.8389  144.5370  157.8576 C   0  0  0  0  0  0  0  0  0  0  0  0
  150.9363  143.7113  157.2889 N   0  3  0  0  0  0  0  0  0  0  0  0
  150.8707  142.3765  157.5238 C   0  0  0  0  0  0  0  0  0  0  0  0
  149.8794  141.6367  156.8383 N   0  0  0  0  0  0  0  0  0  0  0  0
  148.4745  141.7603  157.2095 C   0  0  0  0  0  0  0  0  0  0  0  0
  147.7030  141.1119  156.0632 C   0  0  0  0  0  0  0  0  0  0  0  0
  148.5540  141.4722  154.8493 C   0  0  0  0  0  0  0  0  0  0  0  0
  149.9864  141.4584  155.3935 C   0  0  0  0  0  0  0  0  0  0  0  0
  155.7759  137.7416  162.6984 C   0  0  0  0  0  0  0  0  0  0  0  0
  156.2918  136.7706  163.7743 C   0  0  1  0  0  0  0  0  0  0  0  0
  157.5556  137.2961  164.4639 C   0  0  0  0  0  0  0  0  0  0  0  0
  155.2893  136.5942  164.7720 O   0  0  0  0  0  0  0  0  0  0  0  0
  153.1152  134.2465  163.6342 H   0  0  0  0  0  0  0  0  0  0  0  0
  154.5117  134.0178  164.6787 H   0  0  0  0  0  0  0  0  0  0  0  0
  154.7318  134.4742  162.9904 H   0  0  0  0  0  0  0  0  0  0  0  0
  153.3465  136.1654  165.1277 H   0  0  0  0  0  0  0  0  0  0  0  0
  152.5854  136.6112  162.7558 H   0  0  0  0  0  0  0  0  0  0  0  0
  153.2328  138.0033  163.6007 H   0  0  0  0  0  0  0  0  0  0  0  0
  153.7984  139.0695  161.3276 H   0  0  0  0  0  0  0  0  0  0  0  0
  154.7653  138.1480  160.2083 H   0  0  0  0  0  0  0  0  0  0  0  0
  152.8558  136.4538  160.0918 H   0  0  0  0  0  0  0  0  0  0  0  0
  151.9371  137.4374  161.1837 H   0  0  0  0  0  0  0  0  0  0  0  0
  150.7979  140.0510  158.9247 H   0  0  0  0  0  0  0  0  0  0  0  0
  153.5052  142.2486  159.7301 H   0  0  0  0  0  0  0  0  0  0  0  0
  153.5271  144.6647  159.2059 H   0  0  0  0  0  0  0  0  0  0  0  0
  151.7788  145.5771  157.5720 H   0  0  0  0  0  0  0  0  0  0  0  0
  148.2697  141.2720  158.1628 H   0  0  0  0  0  0  0  0  0  0  0  0
  148.1933  142.8110  157.2921 H   0  0  0  0  0  0  0  0  0  0  0  0
  147.6804  140.0289  156.1935 H   0  0  0  0  0  0  0  0  0  0  0  0
  146.6750  141.4673  155.9869 H   0  0  0  0  0  0  0  0  0  0  0  0
  148.4133  140.7892  154.0111 H   0  0  0  0  0  0  0  0  0  0  0  0
  148.2998  142.4773  154.5099 H   0  0  0  0  0  0  0  0  0  0  0  0
  150.5950  142.2339  154.9260 H   0  0  0  0  0  0  0  0  0  0  0  0
  150.4521  140.4928  155.1929 H   0  0  0  0  0  0  0  0  0  0  0  0
  156.5327  137.8592  161.9222 H   0  0  0  0  0  0  0  0  0  0  0  0
  155.6079  138.7299  163.1298 H   0  0  0  0  0  0  0  0  0  0  0  0
  156.5318  135.8104  163.3174 H   0  0  0  0  0  0  0  0  0  0  0  0
  158.3630  137.4421  163.7460 H   0  0  0  0  0  0  0  0  0  0  0  0
  157.9074  136.5938  165.2200 H   0  0  0  0  0  0  0  0  0  0  0  0
  157.3694  138.2507  164.9569 H   0  0  0  0  0  0  0  0  0  0  0  0
  154.7011  136.3210  161.7264 H   0  0  0  0  0  0  0  0  0  0  0  0
  150.2668  144.1149  156.6340 H   0  0  0  0  0  0  0  0  0  0  0  0
  1  2  1  0  0  0  0
  1 26  1  0  0  0  0
  1 27  1  0  0  0  0
  1 28  1  0  0  0  0
  2 25  1  0  0  0  0
  2  3  1  0  0  0  0
  2 29  1  0  0  0  0
  3  4  1  0  0  0  0
  3 30  1  0  0  0  0
  3 31  1  0  0  0  0
  4  5  1  0  0  0  0
  4 22  1  0  0  0  0
  4 54  1  0  0  0  0
  5  6  1  0  0  0  0
  5 32  1  0  0  0  0
  5 33  1  0  0  0  0
  6  7  1  0  0  0  0
  6 34  1  0  0  0  0
  6 35  1  0  0  0  0
  7  8  1  0  0  0  0
  8  9  2  0  0  0  0
  8 10  1  0  0  0  0
 10 11  1  0  0  0  0
 10 36  1  0  0  0  0
 11 16  1  0  0  0  0
 11 12  2  0  0  0  0
 12 13  1  0  0  0  0
 12 37  1  0  0  0  0
 13 14  2  0  0  0  0
 13 38  1  0  0  0  0
 14 15  1  0  0  0  0
 14 39  1  0  0  0  0
 15 16  2  0  0  0  0
 15 55  1  0  0  0  0
 16 17  1  0  0  0  0
 17 21  1  0  0  0  0
 17 18  1  0  0  0  0
 18 19  1  0  0  0  0
 18 40  1  0  0  0  0
 18 41  1  0  0  0  0
 19 20  1  0  0  0  0
 19 42  1  0  0  0  0
 19 43  1  0  0  0  0
 20 21  1  0  0  0  0
 20 44  1  0  0  0  0
 20 45  1  0  0  0  0
 21 46  1  0  0  0  0
 21 47  1  0  0  0  0
 22 23  1  0  0  0  0
 22 48  1  0  0  0  0
 22 49  1  0  0  0  0
 23 24  1  0  0  0  0
 23 25  1  0  0  0  0
 23 50  1  0  0  0  0
 24 51  1  0  0  0  0
 24 52  1  0  0  0  0
 24 53  1  0  0  0  0
M  CHG  1   4   1
M  CHG  1   7  -1
M  CHG  1  15   1
M  END
> <s_m_source_file>
AV-unprocessed.smi

> <i_m_source_file_index>
1244

> <i_lp_mmshare_version>
43012

> <i_f3d_flags>
0

> <s_epik_input>
W0NIM11bQ0BASF0xW0NIMl1OKFtDSDJdW0NASF0oTzEpW0NIM10pW0NIMl1bQ0gyXVtOSF1DKD1PKVtOSF1jMltjSF1bY0hdW2NIXW5jMk4zW0NIMl1bQ0gyXVtDSDJdW0NIMl0z

> <s_epik_cmdline>
J2VwaWtfcHl0aG9uJywgJy1waCcsICc3LjAnLCAnLXRuJywgJzgnLCAnLW1hJywgJzIwMCcsICctbWV0YWxfYmluZGluZycsICctaW1hZScsICc8aW5maWxlLm1hZT4nLCAnLW9tYWUnLCAnPG91dGZpbGUubWFlPic=

> <r_lp_tautomer_probability>
0.999994

> <r_epik_Ionization_Penalty>
8.60539

> <r_epik_Ionization_Penalty_Charging>
8.60539

> <r_epik_Ionization_Penalty_Neutral>
3.60441e-06

> <r_epik_State_Penalty>
8.59967

> <r_epik_Charging_Adjusted_Penalty>
17.2051

> <i_epik_Tot_Q>
1

> <i_epik_Tot_abs_Q>
3

> <r_epik_Metal_State_Penalty>
4.59489

> <b_epik_Metal_Only>
1

> <s_lp_Force_Field>
OPLS_2005

> <r_lp_Energy>
46.9863

> <b_lp_Chiralities_Consistent>
1

> <s_lp_Variant>
AV-unprocessed.smi:1244-15

> <Gold.Version>
5.8.1

> <Gold.Id.Protein>
6NUR|6NUR_protein|mol2

> <Gold.PLP.Fitness>
51.5463

> <Gold.PLP.PLP>
-44.1249

> <Gold.PLP.part.hbond>
-2.0000

> <Gold.PLP.part.metal>
0.0000

> <Gold.PLP.part.buried>
-5.7928

> <Gold.PLP.part.nonpolar>
-35.6978

> <Gold.PLP.part.repulsive>
0.3140

> <Gold.PLP.ligand.clash>
0.0000

> <Gold.PLP.ligand.torsion>
1.0329

> <Gold.PLP.Chemscore.Hbond>
3.0000

> <Gold.PLP.Chemscore.CHOScore>
0.0000

> <Gold.PLP.Chemscore.Metal>
0.0000

> <Gold.Chemscore.Hbonds>
donor molecule, donor type, donor heavy atom, donor atom, acceptor molecule, acceptor atom, score
      L1  H    15    55       P1  8028  2.00
      P1  H  7997  8008       L1     9  1.00

> <Gold.PLP.Chemscore.Internal.Correction>
0.4873

> <Gold.Rescore>
     Score         DG    S(hbond)    S(metal)    S(lipo)     H(rot)  DE(clash)    DE(int)     intcor
     18.08     -21.69       1.97        0.00     117.39       1.60       0.01       3.60       ----

> <Gold.Chemscore.Fitness>
18.0773

> <Gold.Chemscore.DG>
-21.6892

> <Gold.Chemscore.ZeroCoef>
-5.4800

> <Gold.Chemscore.Hbond>
1.9655

> <Gold.Chemscore.Metal>
0.0000

> <Gold.Chemscore.Lipo>
117.3935

> <Gold.Chemscore.Internal_Hbond>
0.0000

> <Gold.Chemscore.DEClash>
0.0149

> <Gold.Chemscore.DEInternal>
3.5971

> <Gold.Chemscore.Rot>
1.5978

> <Gold.Chemscore.Internal.Correction>
   9.000000E+99

> <Gold.Chemscore.Hbonds>
donor molecule, donor type, donor heavy atom, donor atom, acceptor molecule, acceptor atom, score
      L1  H    15    55       P1  8028  1.00
      P1  H  7997  8008       L1     9  0.95

> <Gold.Chemscore.Hbond.Weighted>
-6.5647

> <Gold.Chemscore.Metal.Weighted>
-0.0000

> <Gold.Chemscore.Lipo.Weighted>
-13.7350

> <Gold.Chemscore.Internal_Hbond.Weighted>
0.0000

> <Gold.Chemscore.DEClash.Weighted>
0.0149

> <Gold.Chemscore.DEInternal.Weighted>
3.5971

> <Gold.Chemscore.Rot.Weighted>
4.0905

> <Gold.Chemscore.Internal.Correction.Weighted>
   9.000000E+99

> <Gold.Protein.RotatedTorsions>
[ 6907 6896 6895 6894 ] final  -75.94 input  -60.11 | X-H torsion
[ 7974 7965 7964 7962 ] final -136.19 input  175.53 | X-H torsion
[ 8008 7997 7996 7995 ] final -113.55 input   59.86 | X-H torsion
[ 10167 10162 10161 10158 ] final  -45.44 input  -65.29 | X-H torsion
[ 10718 10713 10712 10709 ] final  109.41 input   66.30 | X-H torsion
[ 10763 10752 10751 10750 ] final   -6.70 input  -60.55 | X-H torsion
[ 11005 11000 10999 10996 ] final -158.99 input  -57.11 | X-H torsion

> <Gold.Protein.ActiveResidues>
 VAL166  LYS551  ARG553  GLY616  TRP617  ASP618  TYR619  PRO620  LYS621  CYS622 
 ASP623  PHE694  ASN695  SER759  ASP760  ASP761  ALA762  ILE779  LEU786  VAL792 
 PHE793  MET794  SER795  GLU796  ALA797  LYS798  CYS799  TRP800  GLU811  SER814 

> <Gold.Protein.RotatedAtoms>
  150.7043  134.4647  159.5396 H   0  0  0  0  0  0  0  0  0  0  0  0  # atno 6907 bound_to 6896
  152.2315  134.8315  160.0482 H   0  0  0  0  0  0  0  0  0  0  0  0  # atno 6908 bound_to 6896
  151.9129  133.3531  159.3907 H   0  0  0  0  0  0  0  0  0  0  0  0  # atno 6909 bound_to 6896
  144.8949  140.6692  143.5122 H   0  0  0  0  0  0  0  0  0  0  0  0  # atno 7974 bound_to 7965
  155.0225  140.0393  157.2443 H   0  0  0  0  0  0  0  0  0  0  0  0  # atno 8008 bound_to 7997
  154.7366  140.2741  155.6386 H   0  0  0  0  0  0  0  0  0  0  0  0  # atno 8009 bound_to 7997
  156.2854  140.2674  156.2081 H   0  0  0  0  0  0  0  0  0  0  0  0  # atno 8010 bound_to 7997
  140.6858  143.2879  151.3639 H   0  0  0  0  0  0  0  0  0  0  0  0  # atno 10167 bound_to 10162
  157.6543  131.0913  150.6449 H   0  0  0  0  0  0  0  0  0  0  0  0  # atno 10718 bound_to 10713
  153.4160  135.7009  153.6326 H   0  0  0  0  0  0  0  0  0  0  0  0  # atno 10763 bound_to 10752
  153.4800  135.3695  155.2437 H   0  0  0  0  0  0  0  0  0  0  0  0  # atno 10764 bound_to 10752
  154.8719  135.4064  154.3520 H   0  0  0  0  0  0  0  0  0  0  0  0  # atno 10765 bound_to 10752
  140.6475  134.4486  157.5234 H   0  0  0  0  0  0  0  0  0  0  0  0  # atno 11005 bound_to 11000
  145.3718  139.1657  143.4328 LP  0  0  0  0  0  0  0  0  0  0  0  0  # atno 17320 bound_to 7965
  146.3075  140.3791  142.8682 LP  0  0  0  0  0  0  0  0  0  0  0  0  # atno 17321 bound_to 7965
  139.6215  144.0897  152.2396 LP  0  0  0  0  0  0  0  0  0  0  0  0  # atno 17342 bound_to 10162
  140.0343  144.6057  150.7462 LP  0  0  0  0  0  0  0  0  0  0  0  0  # atno 17343 bound_to 10162
  156.6757  130.4552  149.5643 LP  0  0  0  0  0  0  0  0  0  0  0  0  # atno 17370 bound_to 10713
  156.1965  130.6593  151.1120 LP  0  0  0  0  0  0  0  0  0  0  0  0  # atno 17371 bound_to 10713
  139.9058  134.8453  156.1714 LP  0  0  0  0  0  0  0  0  0  0  0  0  # atno 17394 bound_to 11000
  141.0561  133.6864  156.1864 LP  0  0  0  0  0  0  0  0  0  0  0  0  # atno 17395 bound_to 11000

$$$$
