AV-unprocessed.smi:2999|AV-procd|sdf|11424|dock5
  -GOLD-   2272016343D 1   1.00000     0.00000
 Structure written by MMmdl.
 36 38  0  0  0  0  0  0  0  0  2 V2000
  149.0290  135.5576  159.1918 O   0  0  0  0  0  0  0  0  0  0  0  0
  149.0888  136.6328  159.7931 C   0  0  0  0  0  0  0  0  0  0  0  0
  150.0623  137.5053  159.5013 N   0  0  0  0  0  0  0  0  0  0  0  0
  151.0994  137.2974  158.4991 C   0  0  0  0  0  0  0  0  0  0  0  0
  152.3338  138.1587  158.8011 C   0  0  1  0  0  0  0  0  0  0  0  0
  151.9492  139.6157  159.1260 C   0  0  0  0  0  0  0  0  0  0  0  0
  153.1131  140.4226  159.4719 N   0  0  0  0  0  0  0  0  0  0  0  0
  152.7245  141.7883  159.7913 C   0  0  0  0  0  0  0  0  0  0  0  0
  152.3589  142.7343  158.6768 C   0  0  0  0  0  0  0  0  0  0  0  0
  153.6543  142.9224  159.4452 C   0  0  0  0  0  0  0  0  0  0  0  0
  153.7994  139.7965  160.5950 C   0  0  0  0  0  0  0  0  0  0  0  0
  154.1841  138.3399  160.2861 C   0  0  0  0  0  0  0  0  0  0  0  0
  153.0166  137.6078  159.9263 O   0  0  0  0  0  0  0  0  0  0  0  0
  148.2465  137.0569  160.7628 N   0  5  0  0  0  0  0  0  0  0  0  0
  147.5768  136.1620  161.5075 C   0  0  0  0  0  0  0  0  0  0  0  0
  147.9378  134.8772  161.6051 N   0  0  0  0  0  0  0  0  0  0  0  0
  147.0988  134.1260  162.4301 C   0  0  0  0  0  0  0  0  0  0  0  0
  146.0684  134.8533  162.9647 C   0  0  0  0  0  0  0  0  0  0  0  0
  146.1226  136.5140  162.4456 S   0  0  0  0  0  0  0  0  0  0  0  0
  150.0802  138.3777  160.0091 H   0  0  0  0  0  0  0  0  0  0  0  0
  151.3809  136.2431  158.4929 H   0  0  0  0  0  0  0  0  0  0  0  0
  150.7035  137.5318  157.5099 H   0  0  0  0  0  0  0  0  0  0  0  0
  152.9994  138.1461  157.9356 H   0  0  0  0  0  0  0  0  0  0  0  0
  151.4419  140.0557  158.2667 H   0  0  0  0  0  0  0  0  0  0  0  0
  151.2325  139.6269  159.9492 H   0  0  0  0  0  0  0  0  0  0  0  0
  152.1606  141.8527  160.7207 H   0  0  0  0  0  0  0  0  0  0  0  0
  152.4309  142.3689  157.6542 H   0  0  0  0  0  0  0  0  0  0  0  0
  151.5552  143.4434  158.8645 H   0  0  0  0  0  0  0  0  0  0  0  0
  153.7094  143.7569  160.1413 H   0  0  0  0  0  0  0  0  0  0  0  0
  154.5821  142.6816  158.9294 H   0  0  0  0  0  0  0  0  0  0  0  0
  154.6966  140.3649  160.8431 H   0  0  0  0  0  0  0  0  0  0  0  0
  153.1615  139.8194  161.4802 H   0  0  0  0  0  0  0  0  0  0  0  0
  154.9141  138.2949  159.4766 H   0  0  0  0  0  0  0  0  0  0  0  0
  154.6428  137.8745  161.1585 H   0  0  0  0  0  0  0  0  0  0  0  0
  147.3097  133.0775  162.5799 H   0  0  0  0  0  0  0  0  0  0  0  0
  145.2854  134.5167  163.6274 H   0  0  0  0  0  0  0  0  0  0  0  0
  1  2  2  0  0  0  0
  2  3  1  0  0  0  0
  2 14  1  0  0  0  0
  3  4  1  0  0  0  0
  3 20  1  0  0  0  0
  4  5  1  0  0  0  0
  4 21  1  0  0  0  0
  4 22  1  0  0  0  0
  5 13  1  0  0  0  0
  5  6  1  0  0  0  0
  5 23  1  0  0  0  0
  6  7  1  0  0  0  0
  6 24  1  0  0  0  0
  6 25  1  0  0  0  0
  7  8  1  0  0  0  0
  7 11  1  0  0  0  0
  8 10  1  0  0  0  0
  8  9  1  0  0  0  0
  8 26  1  0  0  0  0
  9 10  1  0  0  0  0
  9 27  1  0  0  0  0
  9 28  1  0  0  0  0
 10 29  1  0  0  0  0
 10 30  1  0  0  0  0
 11 12  1  0  0  0  0
 11 31  1  0  0  0  0
 11 32  1  0  0  0  0
 12 13  1  0  0  0  0
 12 33  1  0  0  0  0
 12 34  1  0  0  0  0
 14 15  1  0  0  0  0
 15 19  1  0  0  0  0
 15 16  2  0  0  0  0
 16 17  1  0  0  0  0
 17 18  2  0  0  0  0
 17 35  1  0  0  0  0
 18 19  1  0  0  0  0
 18 36  1  0  0  0  0
M  CHG  1  14  -1
M  END
> <s_m_source_file>
AV-unprocessed.smi

> <i_m_source_file_index>
2999

> <i_lp_mmshare_version>
43012

> <i_f3d_flags>
0

> <s_epik_input>
czFbY0hdW2NIXW5jMVtOSF1DKD1PKVtOSF1bQ0gyXVtDQEBIXTJbQ0gyXU4oW0NIMl1bQ0gyXU8yKVtDSF0zW0NIMl1bQ0gyXTM=

> <s_epik_cmdline>
J2VwaWtfcHl0aG9uJywgJy1waCcsICc3LjAnLCAnLXRuJywgJzgnLCAnLW1hJywgJzIwMCcsICctbWV0YWxfYmluZGluZycsICctaW1hZScsICc8aW5maWxlLm1hZT4nLCAnLW9tYWUnLCAnPG91dGZpbGUubWFlPic=

> <r_lp_tautomer_probability>
0.999

> <r_epik_Ionization_Penalty>
6.67591

> <r_epik_Ionization_Penalty_Charging>
5.6519

> <r_epik_Ionization_Penalty_Neutral>
1.024

> <r_epik_State_Penalty>
5.68985

> <r_epik_Charging_Adjusted_Penalty>
11.3418

> <i_epik_Tot_Q>
-1

> <i_epik_Tot_abs_Q>
1

> <r_epik_Metal_State_Penalty>
1.67789

> <b_epik_Metal_Only>
1

> <s_lp_Force_Field>
OPLS_2005

> <r_lp_Energy>
26.9989

> <b_lp_Chiralities_Consistent>
1

> <s_lp_Variant>
AV-unprocessed.smi:2999-8

> <Gold.Version>
5.8.1

> <Gold.Id.Protein>
6NUR|6NUR_protein|mol2

> <Gold.PLP.Fitness>
43.6094

> <Gold.PLP.PLP>
-33.0134

> <Gold.PLP.part.hbond>
-3.0000

> <Gold.PLP.part.metal>
0.0000

> <Gold.PLP.part.buried>
-5.8188

> <Gold.PLP.part.nonpolar>
-26.7445

> <Gold.PLP.part.repulsive>
0.9550

> <Gold.PLP.ligand.clash>
0.0000

> <Gold.PLP.ligand.torsion>
1.0250

> <Gold.PLP.Chemscore.Hbond>
3.8426

> <Gold.PLP.Chemscore.CHOScore>
0.0000

> <Gold.PLP.Chemscore.Metal>
0.0000

> <Gold.Chemscore.Hbonds>
donor molecule, donor type, donor heavy atom, donor atom, acceptor molecule, acceptor atom, score
      P1  H  6896  6908       L1     1  1.00
      P1  H  6931  6943       L1    14  1.82
      P1  H  6934  6947       L1    14  0.66

> <Gold.PLP.Chemscore.Internal.Correction>
1.1182

> <Gold.Rescore>
     Score         DG    S(hbond)    S(metal)    S(lipo)     H(rot)  DE(clash)    DE(int)     intcor
     14.15     -17.17       1.60        0.00      87.31       1.52       0.58       2.45       ----

> <Gold.Chemscore.Fitness>
14.1451

> <Gold.Chemscore.DG>
-17.1714

> <Gold.Chemscore.ZeroCoef>
-5.4800

> <Gold.Chemscore.Hbond>
1.6045

> <Gold.Chemscore.Metal>
0.0000

> <Gold.Chemscore.Lipo>
87.3074

> <Gold.Chemscore.Internal_Hbond>
0.0000

> <Gold.Chemscore.DEClash>
0.5789

> <Gold.Chemscore.DEInternal>
2.4473

> <Gold.Chemscore.Rot>
1.5167

> <Gold.Chemscore.Internal.Correction>
   9.000000E+99

> <Gold.Chemscore.Hbonds>
donor molecule, donor type, donor heavy atom, donor atom, acceptor molecule, acceptor atom, score
      P1  H  6896  6908       L1     1  0.79
      P1  H  6931  6943       L1    14  0.48
      P1  H  6934  6947       L1    14  0.21

> <Gold.Chemscore.Hbond.Weighted>
-5.3591

> <Gold.Chemscore.Metal.Weighted>
-0.0000

> <Gold.Chemscore.Lipo.Weighted>
-10.2150

> <Gold.Chemscore.Internal_Hbond.Weighted>
0.0000

> <Gold.Chemscore.DEClash.Weighted>
0.5789

> <Gold.Chemscore.DEInternal.Weighted>
2.4473

> <Gold.Chemscore.Rot.Weighted>
3.8827

> <Gold.Chemscore.Internal.Correction.Weighted>
   9.000000E+99

> <Gold.Protein.RotatedTorsions>
[ 6907 6896 6895 6894 ] final  156.43 input  -60.11 | X-H torsion
[ 7974 7965 7964 7962 ] final -102.36 input  175.53 | X-H torsion
[ 8008 7997 7996 7995 ] final   10.54 input   59.86 | X-H torsion
[ 10167 10162 10161 10158 ] final  173.74 input  -65.29 | X-H torsion
[ 10718 10713 10712 10709 ] final   22.38 input   66.30 | X-H torsion
[ 10763 10752 10751 10750 ] final  139.91 input  -60.55 | X-H torsion
[ 11005 11000 10999 10996 ] final -123.37 input  -57.11 | X-H torsion

> <Gold.Protein.ActiveResidues>
 VAL166  LYS551  ARG553  GLY616  TRP617  ASP618  TYR619  PRO620  LYS621  CYS622 
 ASP623  PHE694  ASN695  SER759  ASP760  ASP761  ALA762  ILE779  LEU786  VAL792 
 PHE793  MET794  SER795  GLU796  ALA797  LYS798  CYS799  TRP800  GLU811  SER814 

> <Gold.Protein.RotatedAtoms>
  152.0297  133.3932  159.4292 H   0  0  0  0  0  0  0  0  0  0  0  0  # atno 6907 bound_to 6896
  150.6883  134.3534  159.4928 H   0  0  0  0  0  0  0  0  0  0  0  0  # atno 6908 bound_to 6896
  152.1319  134.9128  160.0609 H   0  0  0  0  0  0  0  0  0  0  0  0  # atno 6909 bound_to 6896
  145.2698  140.9295  143.2993 H   0  0  0  0  0  0  0  0  0  0  0  0  # atno 7974 bound_to 7965
  154.7948  140.2842  155.5965 H   0  0  0  0  0  0  0  0  0  0  0  0  # atno 8008 bound_to 7997
  156.2969  140.2598  156.2732 H   0  0  0  0  0  0  0  0  0  0  0  0  # atno 8009 bound_to 7997
  154.9628  140.0377  157.2187 H   0  0  0  0  0  0  0  0  0  0  0  0  # atno 8010 bound_to 7997
  139.5118  144.3227  152.0187 H   0  0  0  0  0  0  0  0  0  0  0  0  # atno 10167 bound_to 10162
  157.1515  130.6676  149.6013 H   0  0  0  0  0  0  0  0  0  0  0  0  # atno 10718 bound_to 10713
  153.9140  135.3008  155.3448 H   0  0  0  0  0  0  0  0  0  0  0  0  # atno 10763 bound_to 10752
  154.7609  135.4934  153.9465 H   0  0  0  0  0  0  0  0  0  0  0  0  # atno 10764 bound_to 10752
  153.1177  135.6775  153.9491 H   0  0  0  0  0  0  0  0  0  0  0  0  # atno 10765 bound_to 10752
  140.9924  134.0520  157.3638 H   0  0  0  0  0  0  0  0  0  0  0  0  # atno 11005 bound_to 11000
  144.9345  139.4259  143.6479 LP  0  0  0  0  0  0  0  0  0  0  0  0  # atno 17320 bound_to 7965
  146.3250  139.8274  142.8915 LP  0  0  0  0  0  0  0  0  0  0  0  0  # atno 17321 bound_to 7965
  140.2668  144.4007  150.6165 LP  0  0  0  0  0  0  0  0  0  0  0  0  # atno 17342 bound_to 10162
  140.6117  143.2170  151.6872 LP  0  0  0  0  0  0  0  0  0  0  0  0  # atno 17343 bound_to 10162
  155.9770  130.4743  150.6563 LP  0  0  0  0  0  0  0  0  0  0  0  0  # atno 17370 bound_to 10713
  157.4216  131.0837  151.1125 LP  0  0  0  0  0  0  0  0  0  0  0  0  # atno 17371 bound_to 10713
  139.8998  135.0160  156.7214 LP  0  0  0  0  0  0  0  0  0  0  0  0  # atno 17394 bound_to 11000
  140.7019  133.9299  155.8030 LP  0  0  0  0  0  0  0  0  0  0  0  0  # atno 17395 bound_to 11000

$$$$
