AV-unprocessed.smi:1791|AV-procd|sdf|7220|dock4
  -GOLD-   22720 8463D 1   1.00000     0.00000
 Structure written by MMmdl.
 38 39  0  0  0  0  0  0  0  0  1 V2000
  151.0692  141.9064  157.8699 C   0  0  0  0  0  0  0  0  0  0  0  0
  150.8728  141.7432  156.4696 O   0  0  0  0  0  0  0  0  0  0  0  0
  150.4873  140.5035  156.0020 C   0  0  0  0  0  0  0  0  0  0  0  0
  149.9880  139.5608  156.9224 C   0  0  0  0  0  0  0  0  0  0  0  0
  149.5870  138.2954  156.4527 C   0  0  0  0  0  0  0  0  0  0  0  0
  149.6922  138.0149  155.0694 C   0  0  0  0  0  0  0  0  0  0  0  0
  149.3344  136.7756  154.4729 N   0  0  0  0  0  0  0  0  0  0  0  0
  148.9699  135.6307  155.0749 C   0  0  0  0  0  0  0  0  0  0  0  0
  148.8917  135.4603  156.2911 O   0  0  0  0  0  0  0  0  0  0  0  0
  148.6743  134.6858  154.1709 N   0  0  0  0  0  0  0  0  0  0  0  0
  148.2163  133.3278  154.4631 C   0  0  2  0  0  0  0  0  0  0  0  0
  149.3392  132.5464  155.1599 C   0  0  0  0  0  0  0  0  0  0  0  0
  147.7318  132.6248  153.1785 C   0  0  1  0  0  0  0  0  0  0  0  0
  146.9496  131.3265  153.3945 C   0  0  0  0  0  0  0  0  0  0  0  0
  146.1724  131.2284  152.1019 C   0  0  0  0  0  0  0  0  0  0  0  0
  145.8119  132.6889  151.8436 C   0  0  0  0  0  0  0  0  0  0  0  0
  146.8594  133.4631  152.4227 O   0  0  0  0  0  0  0  0  0  0  0  0
  150.2211  139.0206  154.2347 C   0  0  0  0  0  0  0  0  0  0  0  0
  150.6060  140.2358  154.6781 N   0  0  0  0  0  0  0  0  0  0  0  0
  151.3789  142.9313  158.0734 H   0  0  0  0  0  0  0  0  0  0  0  0
  151.8521  141.2444  158.2430 H   0  0  0  0  0  0  0  0  0  0  0  0
  150.1487  141.7223  158.4260 H   0  0  0  0  0  0  0  0  0  0  0  0
  149.9162  139.8033  157.9724 H   0  0  0  0  0  0  0  0  0  0  0  0
  149.2215  137.5688  157.1612 H   0  0  0  0  0  0  0  0  0  0  0  0
  149.2803  136.7816  153.4648 H   0  0  0  0  0  0  0  0  0  0  0  0
  148.7607  134.9253  153.1939 H   0  0  0  0  0  0  0  0  0  0  0  0
  147.3721  133.3580  155.1541 H   0  0  0  0  0  0  0  0  0  0  0  0
  149.0132  131.5386  155.4180 H   0  0  0  0  0  0  0  0  0  0  0  0
  149.6452  133.0391  156.0834 H   0  0  0  0  0  0  0  0  0  0  0  0
  150.2194  132.4582  154.5221 H   0  0  0  0  0  0  0  0  0  0  0  0
  148.5907  132.4003  152.5437 H   0  0  0  0  0  0  0  0  0  0  0  0
  147.5957  130.4662  153.5716 H   0  0  0  0  0  0  0  0  0  0  0  0
  146.2569  131.4096  154.2324 H   0  0  0  0  0  0  0  0  0  0  0  0
  146.8169  130.8532  151.3057 H   0  0  0  0  0  0  0  0  0  0  0  0
  145.2995  130.5789  152.1724 H   0  0  0  0  0  0  0  0  0  0  0  0
  145.6974  132.9061  150.7815 H   0  0  0  0  0  0  0  0  0  0  0  0
  144.8773  132.9446  152.3446 H   0  0  0  0  0  0  0  0  0  0  0  0
  150.3340  138.8494  153.1739 H   0  0  0  0  0  0  0  0  0  0  0  0
  1  2  1  0  0  0  0
  1 20  1  0  0  0  0
  1 21  1  0  0  0  0
  1 22  1  0  0  0  0
  2  3  1  0  0  0  0
  3 19  1  0  0  0  0
  3  4  2  0  0  0  0
  4  5  1  0  0  0  0
  4 23  1  0  0  0  0
  5  6  2  0  0  0  0
  5 24  1  0  0  0  0
  6  7  1  0  0  0  0
  6 18  1  0  0  0  0
  7  8  1  0  0  0  0
  7 25  1  0  0  0  0
  8  9  2  0  0  0  0
  8 10  1  0  0  0  0
 10 11  1  0  0  0  0
 10 26  1  0  0  0  0
 11 12  1  0  0  0  0
 11 13  1  0  0  0  0
 11 27  1  0  0  0  0
 12 28  1  0  0  0  0
 12 29  1  0  0  0  0
 12 30  1  0  0  0  0
 13 17  1  0  0  0  0
 13 14  1  0  0  0  0
 13 31  1  0  0  0  0
 14 15  1  0  0  0  0
 14 32  1  0  0  0  0
 14 33  1  0  0  0  0
 15 16  1  0  0  0  0
 15 34  1  0  0  0  0
 15 35  1  0  0  0  0
 16 17  1  0  0  0  0
 16 36  1  0  0  0  0
 16 37  1  0  0  0  0
 18 19  2  0  0  0  0
 18 38  1  0  0  0  0
M  END
> <s_m_source_file>
AV-unprocessed.smi

> <i_m_source_file_index>
1791

> <i_lp_mmshare_version>
43012

> <i_f3d_flags>
0

> <s_epik_input>
W0NIM11PYzFbY0hdW2NIXWMoW2NIXW4xKVtOSF1DKD1PKVtOSF1bQ0BIXShbQ0gzXSlbQ0BASF0yW0NIMl1bQ0gyXVtDSDJdTzI=

> <s_epik_cmdline>
J2VwaWtfcHl0aG9uJywgJy1waCcsICc3LjAnLCAnLXRuJywgJzgnLCAnLW1hJywgJzIwMCcsICctbWV0YWxfYmluZGluZycsICctaW1hZScsICc8aW5maWxlLm1hZT4nLCAnLW9tYWUnLCAnPG91dGZpbGUubWFlPic=

> <r_lp_tautomer_probability>
1

> <r_epik_Ionization_Penalty>
9.18737e-05

> <r_epik_Ionization_Penalty_Charging>
0

> <r_epik_Ionization_Penalty_Neutral>
9.18737e-05

> <r_epik_State_Penalty>
-0

> <r_epik_Charging_Adjusted_Penalty>
0

> <i_epik_Tot_Q>
0

> <i_epik_Tot_abs_Q>
0

> <r_epik_Metal_State_Penalty>
-0

> <b_epik_Metal_Only>
0

> <s_lp_Force_Field>
OPLS_2005

> <r_lp_Energy>
21.9226

> <b_lp_Chiralities_Consistent>
1

> <s_lp_Variant>
AV-unprocessed.smi:1791-3

> <Gold.Version>
5.8.1

> <Gold.Id.Protein>
6NUR|6NUR_protein|mol2

> <Gold.PLP.Fitness>
37.8995

> <Gold.PLP.PLP>
-26.7093

> <Gold.PLP.part.hbond>
-3.0000

> <Gold.PLP.part.metal>
0.0000

> <Gold.PLP.part.buried>
-4.0776

> <Gold.PLP.part.nonpolar>
-20.4336

> <Gold.PLP.part.repulsive>
0.3251

> <Gold.PLP.ligand.clash>
0.0000

> <Gold.PLP.ligand.torsion>
0.4182

> <Gold.PLP.Chemscore.Hbond>
3.0000

> <Gold.PLP.Chemscore.CHOScore>
1.0000

> <Gold.PLP.Chemscore.Metal>
0.0000

> <Gold.Chemscore.Hbonds>
donor molecule, donor type, donor heavy atom, donor atom, acceptor molecule, acceptor atom, score
      L1  H     7    25       P1  7948  1.00
      L1  H    10    26       P1  7948  1.00
      P1  H  7989  7998       L1    19  1.00
      L1  C    18    38       P1  7957  1.00

> <Gold.PLP.Chemscore.Internal.Correction>
0.0266

> <Gold.Rescore>
     Score         DG    S(hbond)    S(metal)    S(lipo)     H(rot)  DE(clash)    DE(int)     intcor
     15.50     -16.83       2.52        0.00      57.28       1.47       0.00       1.33       ----

> <Gold.Chemscore.Fitness>
15.5014

> <Gold.Chemscore.DG>
-16.8299

> <Gold.Chemscore.ZeroCoef>
-5.4800

> <Gold.Chemscore.Hbond>
2.5179

> <Gold.Chemscore.Metal>
0.0000

> <Gold.Chemscore.Lipo>
57.2785

> <Gold.Chemscore.Internal_Hbond>
0.0000

> <Gold.Chemscore.DEClash>
0.0009

> <Gold.Chemscore.DEInternal>
1.3276

> <Gold.Chemscore.Rot>
1.4693

> <Gold.Chemscore.Internal.Correction>
   9.000000E+99

> <Gold.Chemscore.Hbonds>
donor molecule, donor type, donor heavy atom, donor atom, acceptor molecule, acceptor atom, score
      L1  H     7    25       P1  7948  0.95
      L1  H    10    26       P1  7948  0.38
      P1  H  7989  7998       L1    19  0.60

> <Gold.Chemscore.Hbond.Weighted>
-8.4096

> <Gold.Chemscore.Metal.Weighted>
-0.0000

> <Gold.Chemscore.Lipo.Weighted>
-6.7016

> <Gold.Chemscore.Internal_Hbond.Weighted>
0.0000

> <Gold.Chemscore.DEClash.Weighted>
0.0009

> <Gold.Chemscore.DEInternal.Weighted>
1.3276

> <Gold.Chemscore.Rot.Weighted>
3.7613

> <Gold.Chemscore.Internal.Correction.Weighted>
   9.000000E+99

> <Gold.Protein.RotatedTorsions>
[ 6907 6896 6895 6894 ] final   44.35 input  -60.11 | X-H torsion
[ 7974 7965 7964 7962 ] final -151.84 input  175.53 | X-H torsion
[ 8008 7997 7996 7995 ] final -165.25 input   59.86 | X-H torsion
[ 10167 10162 10161 10158 ] final  -37.46 input  -65.29 | X-H torsion
[ 10718 10713 10712 10709 ] final   69.82 input   66.30 | X-H torsion
[ 10763 10752 10751 10750 ] final    1.54 input  -60.55 | X-H torsion
[ 11005 11000 10999 10996 ] final -102.72 input  -57.11 | X-H torsion

> <Gold.Protein.ActiveResidues>
 VAL166  LYS551  ARG553  GLY616  TRP617  ASP618  TYR619  PRO620  LYS621  CYS622 
 ASP623  PHE694  ASN695  SER759  ASP760  ASP761  ALA762  ILE779  LEU786  VAL792 
 PHE793  MET794  SER795  GLU796  ALA797  LYS798  CYS799  TRP800  GLU811  SER814 

> <Gold.Protein.RotatedAtoms>
  152.2315  134.8317  160.0472 H   0  0  0  0  0  0  0  0  0  0  0  0  # atno 6907 bound_to 6896
  151.9065  133.3545  159.3857 H   0  0  0  0  0  0  0  0  0  0  0  0  # atno 6908 bound_to 6896
  150.7027  134.4701  159.5465 H   0  0  0  0  0  0  0  0  0  0  0  0  # atno 6909 bound_to 6896
  144.7827  140.4743  143.5828 H   0  0  0  0  0  0  0  0  0  0  0  0  # atno 7974 bound_to 7965
  155.8472  140.0957  157.1698 H   0  0  0  0  0  0  0  0  0  0  0  0  # atno 8008 bound_to 7997
  154.3984  140.1390  156.3862 H   0  0  0  0  0  0  0  0  0  0  0  0  # atno 8009 bound_to 7997
  155.8001  140.3453  155.5400 H   0  0  0  0  0  0  0  0  0  0  0  0  # atno 8010 bound_to 7997
  140.7118  143.3340  151.2503 H   0  0  0  0  0  0  0  0  0  0  0  0  # atno 10167 bound_to 10162
  157.6367  130.9446  150.0566 H   0  0  0  0  0  0  0  0  0  0  0  0  # atno 10718 bound_to 10713
  153.3067  135.6960  153.7153 H   0  0  0  0  0  0  0  0  0  0  0  0  # atno 10763 bound_to 10752
  153.6046  135.3456  155.2958 H   0  0  0  0  0  0  0  0  0  0  0  0  # atno 10764 bound_to 10752
  154.8565  135.4349  154.2194 H   0  0  0  0  0  0  0  0  0  0  0  0  # atno 10765 bound_to 10752
  141.1177  133.8581  157.1395 H   0  0  0  0  0  0  0  0  0  0  0  0  # atno 11005 bound_to 11000
  145.6006  139.1503  143.3131 LP  0  0  0  0  0  0  0  0  0  0  0  0  # atno 17320 bound_to 7965
  146.2044  140.6127  142.9088 LP  0  0  0  0  0  0  0  0  0  0  0  0  # atno 17321 bound_to 7965
  139.6831  143.9821  152.2819 LP  0  0  0  0  0  0  0  0  0  0  0  0  # atno 17342 bound_to 10162
  139.9457  144.6653  150.8221 LP  0  0  0  0  0  0  0  0  0  0  0  0  # atno 17343 bound_to 10162
  156.1612  130.3644  149.9297 LP  0  0  0  0  0  0  0  0  0  0  0  0  # atno 17370 bound_to 10713
  156.7295  130.9037  151.3624 LP  0  0  0  0  0  0  0  0  0  0  0  0  # atno 17371 bound_to 10713
  140.0111  134.9987  157.0397 LP  0  0  0  0  0  0  0  0  0  0  0  0  # atno 17394 bound_to 11000
  140.4598  134.1496  155.7190 LP  0  0  0  0  0  0  0  0  0  0  0  0  # atno 17395 bound_to 11000

$$$$
