AV-unprocessed.smi:3293|AV-procd|sdf|12631|dock5
  -GOLD-   2272018563D 1   1.00000     0.00000
 Structure written by MMmdl.
 44 45  0  0  0  0  0  0  0  0  2 V2000
  153.7646  140.6428  160.5979 C   0  0  0  0  0  0  0  0  0  0  0  0
  153.0138  141.9621  160.5241 C   0  0  0  0  0  0  0  0  0  0  0  0
  152.9252  142.7423  161.6182 C   0  0  0  0  0  0  0  0  0  0  0  0
  152.2689  144.1031  161.6431 C   0  0  0  0  0  0  0  0  0  0  0  0
  152.1869  144.6971  160.2352 C   0  0  0  0  0  0  0  0  0  0  0  0
  151.5854  143.6940  159.2375 C   0  0  1  0  0  0  0  0  0  0  0  0
  151.4413  144.3670  157.8590 C   0  0  0  0  0  0  0  0  0  0  0  0
  152.3959  142.3625  159.1686 C   0  0  2  0  0  0  0  0  0  0  0  0
  151.5175  141.2391  158.5562 C   0  0  0  0  0  0  0  0  0  0  0  0
  151.5831  141.1928  157.0807 N   0  3  0  0  0  0  0  0  0  0  0  0
  151.5172  139.8298  156.5193 C   0  0  0  0  0  0  0  0  0  0  0  0
  151.2825  139.8652  155.0035 C   0  0  0  0  0  0  0  0  0  0  0  0
  149.8654  140.2443  154.6756 C   0  0  0  0  0  0  0  0  0  0  0  0
  148.8586  139.4305  154.0816 C   0  0  0  0  0  0  0  0  0  0  0  0
  147.7072  140.0639  153.9316 N   0  0  0  0  0  0  0  0  0  0  0  0
  147.9364  141.2995  154.4214 N   0  0  0  0  0  0  0  0  0  0  0  0
  146.8707  142.2786  154.4158 C   0  0  0  0  0  0  0  0  0  0  0  0
  149.2307  141.4386  154.8741 C   0  0  0  0  0  0  0  0  0  0  0  0
  154.4946  140.5722  159.7912 H   0  0  0  0  0  0  0  0  0  0  0  0
  153.0784  139.7991  160.5319 H   0  0  0  0  0  0  0  0  0  0  0  0
  154.3049  140.5472  161.5403 H   0  0  0  0  0  0  0  0  0  0  0  0
  153.3527  142.4109  162.5535 H   0  0  0  0  0  0  0  0  0  0  0  0
  151.2760  144.0051  162.0831 H   0  0  0  0  0  0  0  0  0  0  0  0
  152.8433  144.7666  162.2901 H   0  0  0  0  0  0  0  0  0  0  0  0
  151.5932  145.6116  160.2631 H   0  0  0  0  0  0  0  0  0  0  0  0
  153.1851  144.9878  159.9042 H   0  0  0  0  0  0  0  0  0  0  0  0
  150.5816  143.4595  159.5963 H   0  0  0  0  0  0  0  0  0  0  0  0
  152.4154  144.6255  157.4423 H   0  0  0  0  0  0  0  0  0  0  0  0
  150.8629  145.2883  157.9343 H   0  0  0  0  0  0  0  0  0  0  0  0
  150.9308  143.7326  157.1360 H   0  0  0  0  0  0  0  0  0  0  0  0
  153.2435  142.5359  158.5037 H   0  0  0  0  0  0  0  0  0  0  0  0
  151.8174  140.2745  158.9683 H   0  0  0  0  0  0  0  0  0  0  0  0
  150.4697  141.3706  158.8214 H   0  0  0  0  0  0  0  0  0  0  0  0
  150.8179  141.7363  156.7076 H   0  0  0  0  0  0  0  0  0  0  0  0
  152.4497  139.3079  156.7391 H   0  0  0  0  0  0  0  0  0  0  0  0
  150.7139  139.2781  157.0097 H   0  0  0  0  0  0  0  0  0  0  0  0
  151.9792  140.5687  154.5463 H   0  0  0  0  0  0  0  0  0  0  0  0
  151.5239  138.8902  154.5783 H   0  0  0  0  0  0  0  0  0  0  0  0
  148.9295  138.4022  153.7589 H   0  0  0  0  0  0  0  0  0  0  0  0
  147.1480  143.1355  155.0304 H   0  0  0  0  0  0  0  0  0  0  0  0
  145.9574  141.8378  154.8166 H   0  0  0  0  0  0  0  0  0  0  0  0
  146.6881  142.6166  153.3956 H   0  0  0  0  0  0  0  0  0  0  0  0
  149.5886  142.3652  155.2984 H   0  0  0  0  0  0  0  0  0  0  0  0
  152.4526  141.6155  156.7880 H   0  0  0  0  0  0  0  0  0  0  0  0
  1  2  1  0  0  0  0
  1 19  1  0  0  0  0
  1 20  1  0  0  0  0
  1 21  1  0  0  0  0
  2  8  1  0  0  0  0
  2  3  2  0  0  0  0
  3  4  1  0  0  0  0
  3 22  1  0  0  0  0
  4  5  1  0  0  0  0
  4 23  1  0  0  0  0
  4 24  1  0  0  0  0
  5  6  1  0  0  0  0
  5 25  1  0  0  0  0
  5 26  1  0  0  0  0
  6  7  1  0  0  0  0
  6  8  1  0  0  0  0
  6 27  1  0  0  0  0
  7 28  1  0  0  0  0
  7 29  1  0  0  0  0
  7 30  1  0  0  0  0
  8  9  1  0  0  0  0
  8 31  1  0  0  0  0
  9 10  1  0  0  0  0
  9 32  1  0  0  0  0
  9 33  1  0  0  0  0
 10 11  1  0  0  0  0
 10 34  1  0  0  0  0
 10 44  1  0  0  0  0
 11 12  1  0  0  0  0
 11 35  1  0  0  0  0
 11 36  1  0  0  0  0
 12 13  1  0  0  0  0
 12 37  1  0  0  0  0
 12 38  1  0  0  0  0
 13 18  2  0  0  0  0
 13 14  1  0  0  0  0
 14 15  2  0  0  0  0
 14 39  1  0  0  0  0
 15 16  1  0  0  0  0
 16 17  1  0  0  0  0
 16 18  1  0  0  0  0
 17 40  1  0  0  0  0
 17 41  1  0  0  0  0
 17 42  1  0  0  0  0
 18 43  1  0  0  0  0
M  CHG  1  10   1
M  END
> <s_m_source_file>
AV-unprocessed.smi

> <i_m_source_file_index>
3293

> <i_lp_mmshare_version>
43012

> <i_f3d_flags>
0

> <s_epik_input>
W0NIM11DMT1bQ0hdW0NIMl1bQ0gyXVtDQEBIXShbQ0gzXSlbQ0BIXTFbQ0gyXVtOSF1bQ0gyXVtDSDJdYzJbY0hdbm4oW0NIM10pW2NIXTI=

> <s_epik_cmdline>
J2VwaWtfcHl0aG9uJywgJy1waCcsICc3LjAnLCAnLXRuJywgJzgnLCAnLW1hJywgJzIwMCcsICctbWV0YWxfYmluZGluZycsICctaW1hZScsICc8aW5maWxlLm1hZT4nLCAnLW9tYWUnLCAnPG91dGZpbGUubWFlPic=

> <r_lp_tautomer_probability>
1

> <r_epik_Ionization_Penalty>
0.000598621

> <r_epik_Ionization_Penalty_Charging>
0.000582095

> <r_epik_Ionization_Penalty_Neutral>
1.65262e-05

> <r_epik_State_Penalty>
-0

> <r_epik_Charging_Adjusted_Penalty>
0.000582095

> <i_epik_Tot_Q>
1

> <i_epik_Tot_abs_Q>
1

> <r_epik_Metal_State_Penalty>
-0

> <b_epik_Metal_Only>
0

> <s_lp_Force_Field>
OPLS_2005

> <r_lp_Energy>
11.8092

> <b_lp_Chiralities_Consistent>
1

> <s_lp_Variant>
AV-unprocessed.smi:3293-3

> <Gold.Version>
5.8.1

> <Gold.Id.Protein>
6NUR|6NUR_protein|mol2

> <Gold.PLP.Fitness>
50.6209

> <Gold.PLP.PLP>
-48.6240

> <Gold.PLP.part.hbond>
0.0000

> <Gold.PLP.part.metal>
0.0000

> <Gold.PLP.part.buried>
0.7121

> <Gold.PLP.part.nonpolar>
-48.2699

> <Gold.PLP.part.repulsive>
0.2642

> <Gold.PLP.ligand.clash>
0.0000

> <Gold.PLP.ligand.torsion>
0.7705

> <Gold.PLP.Chemscore.Hbond>
0.0000

> <Gold.PLP.Chemscore.CHOScore>
1.1612

> <Gold.PLP.Chemscore.Metal>
0.0000

> <Gold.Chemscore.Hbonds>
donor molecule, donor type, donor heavy atom, donor atom, acceptor molecule, acceptor atom, score
      L1  C    14    39       P1  7948  0.17
      L1  C    18    43       P1  8028  1.00

> <Gold.PLP.Chemscore.Internal.Correction>
0.0544

> <Gold.Rescore>
     Score         DG    S(hbond)    S(metal)    S(lipo)     H(rot)  DE(clash)    DE(int)     intcor
     17.31     -18.18       0.00        0.00     141.05       1.48       0.16       0.71       ----

> <Gold.Chemscore.Fitness>
17.3114

> <Gold.Chemscore.DG>
-18.1816

> <Gold.Chemscore.ZeroCoef>
-5.4800

> <Gold.Chemscore.Hbond>
0.0000

> <Gold.Chemscore.Metal>
0.0000

> <Gold.Chemscore.Lipo>
141.0461

> <Gold.Chemscore.Internal_Hbond>
0.0000

> <Gold.Chemscore.DEClash>
0.1566

> <Gold.Chemscore.DEInternal>
0.7136

> <Gold.Chemscore.Rot>
1.4847

> <Gold.Chemscore.Internal.Correction>
   9.000000E+99

> <Gold.Chemscore.Hbond.Weighted>
-0.0000

> <Gold.Chemscore.Metal.Weighted>
-0.0000

> <Gold.Chemscore.Lipo.Weighted>
-16.5024

> <Gold.Chemscore.Internal_Hbond.Weighted>
0.0000

> <Gold.Chemscore.DEClash.Weighted>
0.1566

> <Gold.Chemscore.DEInternal.Weighted>
0.7136

> <Gold.Chemscore.Rot.Weighted>
3.8008

> <Gold.Chemscore.Internal.Correction.Weighted>
   9.000000E+99

> <Gold.Protein.RotatedTorsions>
[ 6907 6896 6895 6894 ] final   27.23 input  -60.11 | X-H torsion
[ 7974 7965 7964 7962 ] final -133.99 input  175.53 | X-H torsion
[ 8008 7997 7996 7995 ] final  155.80 input   59.86 | X-H torsion
[ 10167 10162 10161 10158 ] final  172.55 input  -65.29 | X-H torsion
[ 10718 10713 10712 10709 ] final   80.42 input   66.30 | X-H torsion
[ 10763 10752 10751 10750 ] final   47.55 input  -60.55 | X-H torsion
[ 11005 11000 10999 10996 ] final   15.30 input  -57.11 | X-H torsion

> <Gold.Protein.ActiveResidues>
 VAL166  LYS551  ARG553  GLY616  TRP617  ASP618  TYR619  PRO620  LYS621  CYS622 
 ASP623  PHE694  ASN695  SER759  ASP760  ASP761  ALA762  ILE779  LEU786  VAL792 
 PHE793  MET794  SER795  GLU796  ALA797  LYS798  CYS799  TRP800  GLU811  SER814 

> <Gold.Protein.RotatedAtoms>
  151.9993  134.9937  160.0564 H   0  0  0  0  0  0  0  0  0  0  0  0  # atno 6907 bound_to 6896
  152.1535  133.4532  159.4833 H   0  0  0  0  0  0  0  0  0  0  0  0  # atno 6908 bound_to 6896
  150.6878  134.2078  159.4390 H   0  0  0  0  0  0  0  0  0  0  0  0  # atno 6909 bound_to 6896
  144.9143  140.6935  143.5005 H   0  0  0  0  0  0  0  0  0  0  0  0  # atno 7974 bound_to 7965
  156.2458  140.1930  156.6857 H   0  0  0  0  0  0  0  0  0  0  0  0  # atno 8008 bound_to 7997
  154.6289  140.0598  156.9734 H   0  0  0  0  0  0  0  0  0  0  0  0  # atno 8009 bound_to 7997
  155.1742  140.3271  155.4389 H   0  0  0  0  0  0  0  0  0  0  0  0  # atno 8010 bound_to 7997
  139.5080  144.3361  152.0064 H   0  0  0  0  0  0  0  0  0  0  0  0  # atno 10167 bound_to 10162
  157.6805  130.9958  150.2076 H   0  0  0  0  0  0  0  0  0  0  0  0  # atno 10718 bound_to 10713
  152.9799  135.5972  154.3781 H   0  0  0  0  0  0  0  0  0  0  0  0  # atno 10763 bound_to 10752
  154.3449  135.2767  155.2405 H   0  0  0  0  0  0  0  0  0  0  0  0  # atno 10764 bound_to 10752
  154.4470  135.5999  153.6222 H   0  0  0  0  0  0  0  0  0  0  0  0  # atno 10765 bound_to 10752
  140.4599  134.1138  155.7715 H   0  0  0  0  0  0  0  0  0  0  0  0  # atno 11005 bound_to 11000
  145.3401  139.1734  143.4490 LP  0  0  0  0  0  0  0  0  0  0  0  0  # atno 17320 bound_to 7965
  146.3174  140.3441  142.8650 LP  0  0  0  0  0  0  0  0  0  0  0  0  # atno 17321 bound_to 7965
  140.2799  144.3871  150.6122 LP  0  0  0  0  0  0  0  0  0  0  0  0  # atno 17342 bound_to 10162
  140.6026  143.2167  151.7044 LP  0  0  0  0  0  0  0  0  0  0  0  0  # atno 17343 bound_to 10162
  156.2754  130.3727  149.7989 LP  0  0  0  0  0  0  0  0  0  0  0  0  # atno 17370 bound_to 10713
  156.5693  130.8418  151.3352 LP  0  0  0  0  0  0  0  0  0  0  0  0  # atno 17371 bound_to 10713
  141.1626  133.8764  157.1805 LP  0  0  0  0  0  0  0  0  0  0  0  0  # atno 17394 bound_to 11000
  139.9952  135.0049  157.0066 LP  0  0  0  0  0  0  0  0  0  0  0  0  # atno 17395 bound_to 11000

$$$$
