AV-unprocessed.smi:2816|AV-procd|sdf|10845|dock4
  -GOLD-   2272015283D 1   1.00000     0.00000
 Structure written by MMmdl.
 43 45  0  0  0  0  0  0  0  0  1 V2000
  150.5990  138.2231  157.1952 C   0  0  0  0  0  0  0  0  0  0  0  0
  149.9118  137.3063  156.1681 C   0  0  0  0  0  0  0  0  0  0  0  0
  148.4038  137.6137  156.1315 C   0  0  0  0  0  0  0  0  0  0  0  0
  150.5401  137.5318  154.7805 C   0  0  0  0  0  0  0  0  0  0  0  0
  150.1768  135.5452  156.7110 S   0  0  0  0  0  0  0  0  0  0  0  0
  151.6106  135.2348  156.5956 O   0  0  0  0  0  0  0  0  0  0  0  0
  149.5082  135.3699  158.0104 O   0  0  0  0  0  0  0  0  0  0  0  0
  149.3074  134.5263  155.5172 C   0  0  0  0  0  0  0  0  0  0  0  0
  147.9024  134.5922  155.4251 C   0  0  0  0  0  0  0  0  0  0  0  0
  147.2640  133.8116  154.4435 C   0  0  0  0  0  0  0  0  0  0  0  0
  148.0515  133.0051  153.5875 C   0  0  0  0  0  0  0  0  0  0  0  0
  147.5125  132.1994  152.5735 N   0  0  0  0  0  0  0  0  0  0  0  0
  146.1182  132.3235  152.1653 C   0  0  1  0  0  0  0  0  0  0  0  0
  145.7563  133.7310  151.6711 C   0  0  0  0  0  0  0  0  0  0  0  0
  145.2084  133.4447  150.2680 C   0  0  2  0  0  0  0  0  0  0  0  0
  143.8643  132.7047  150.3078 C   0  0  0  0  0  0  0  0  0  0  0  0
  144.2939  131.3015  150.7349 C   0  0  0  0  0  0  0  0  0  0  0  0
  145.8078  131.4757  150.9193 C   0  0  1  0  0  0  0  0  0  0  0  0
  146.0756  132.3965  149.8740 O   0  0  0  0  0  0  0  0  0  0  0  0
  149.4514  133.0239  153.7700 C   0  0  0  0  0  0  0  0  0  0  0  0
  150.0761  133.7690  154.7058 N   0  0  0  0  0  0  0  0  0  0  0  0
  150.4791  139.2748  156.9327 H   0  0  0  0  0  0  0  0  0  0  0  0
  151.6685  138.0185  157.2560 H   0  0  0  0  0  0  0  0  0  0  0  0
  150.1813  138.0841  158.1929 H   0  0  0  0  0  0  0  0  0  0  0  0
  147.9357  137.4281  157.0985 H   0  0  0  0  0  0  0  0  0  0  0  0
  147.8871  137.0026  155.3914 H   0  0  0  0  0  0  0  0  0  0  0  0
  148.2210  138.6574  155.8739 H   0  0  0  0  0  0  0  0  0  0  0  0
  150.4683  138.5781  154.4821 H   0  0  0  0  0  0  0  0  0  0  0  0
  150.0405  136.9452  154.0105 H   0  0  0  0  0  0  0  0  0  0  0  0
  151.5960  137.2608  154.7715 H   0  0  0  0  0  0  0  0  0  0  0  0
  147.3268  135.2255  156.0838 H   0  0  0  0  0  0  0  0  0  0  0  0
  146.1884  133.8474  154.3604 H   0  0  0  0  0  0  0  0  0  0  0  0
  148.1413  131.6999  151.9604 H   0  0  0  0  0  0  0  0  0  0  0  0
  145.4766  132.0074  152.9887 H   0  0  0  0  0  0  0  0  0  0  0  0
  145.0248  134.2255  152.3106 H   0  0  0  0  0  0  0  0  0  0  0  0
  146.6352  134.3742  151.6045 H   0  0  0  0  0  0  0  0  0  0  0  0
  145.2191  134.3098  149.6044 H   0  0  0  0  0  0  0  0  0  0  0  0
  143.1605  133.1635  151.0029 H   0  0  0  0  0  0  0  0  0  0  0  0
  143.4030  132.6794  149.3200 H   0  0  0  0  0  0  0  0  0  0  0  0
  143.7975  130.9634  151.6449 H   0  0  0  0  0  0  0  0  0  0  0  0
  144.0826  130.5812  149.9437 H   0  0  0  0  0  0  0  0  0  0  0  0
  146.3646  130.5399  150.8556 H   0  0  0  0  0  0  0  0  0  0  0  0
  150.0940  132.4271  153.1389 H   0  0  0  0  0  0  0  0  0  0  0  0
  1  2  1  0  0  0  0
  1 22  1  0  0  0  0
  1 23  1  0  0  0  0
  1 24  1  0  0  0  0
  2  3  1  0  0  0  0
  2  4  1  0  0  0  0
  2  5  1  0  0  0  0
  3 25  1  0  0  0  0
  3 26  1  0  0  0  0
  3 27  1  0  0  0  0
  4 28  1  0  0  0  0
  4 29  1  0  0  0  0
  4 30  1  0  0  0  0
  5  6  2  0  0  0  0
  5  7  2  0  0  0  0
  5  8  1  0  0  0  0
  8 21  1  0  0  0  0
  8  9  2  0  0  0  0
  9 10  1  0  0  0  0
  9 31  1  0  0  0  0
 10 11  2  0  0  0  0
 10 32  1  0  0  0  0
 11 12  1  0  0  0  0
 11 20  1  0  0  0  0
 12 13  1  0  0  0  0
 12 33  1  0  0  0  0
 13 18  1  0  0  0  0
 13 14  1  0  0  0  0
 13 34  1  0  0  0  0
 14 15  1  0  0  0  0
 14 35  1  0  0  0  0
 14 36  1  0  0  0  0
 15 19  1  0  0  0  0
 15 16  1  0  0  0  0
 15 37  1  0  0  0  0
 16 17  1  0  0  0  0
 16 38  1  0  0  0  0
 16 39  1  0  0  0  0
 17 18  1  0  0  0  0
 17 40  1  0  0  0  0
 17 41  1  0  0  0  0
 18 19  1  0  0  0  0
 18 42  1  0  0  0  0
 20 21  2  0  0  0  0
 20 43  1  0  0  0  0
M  END
> <s_m_source_file>
AV-unprocessed.smi

> <i_m_source_file_index>
2816

> <i_lp_mmshare_version>
43012

> <i_f3d_flags>
0

> <s_epik_input>
W0NIM11DKFtDSDNdKShbQ0gzXSlTKD1PKSg9TyljMVtjSF1bY0hdYyhbY0hdbjEpW05IXVtDQEhdKFtDSDJdW0NAQEhdMjMpW0NAQEhdKE8zKVtDSDJdW0NIMl0y

> <s_epik_cmdline>
J2VwaWtfcHl0aG9uJywgJy1waCcsICc3LjAnLCAnLXRuJywgJzgnLCAnLW1hJywgJzIwMCcsICctbWV0YWxfYmluZGluZycsICctaW1hZScsICc8aW5maWxlLm1hZT4nLCAnLW9tYWUnLCAnPG91dGZpbGUubWFlPic=

> <r_lp_tautomer_probability>
1

> <r_epik_Ionization_Penalty>
1.94439e-07

> <r_epik_Ionization_Penalty_Charging>
0

> <r_epik_Ionization_Penalty_Neutral>
1.94439e-07

> <r_epik_State_Penalty>
-0

> <r_epik_Charging_Adjusted_Penalty>
0

> <i_epik_Tot_Q>
0

> <i_epik_Tot_abs_Q>
0

> <r_epik_Metal_State_Penalty>
-0

> <b_epik_Metal_Only>
0

> <s_lp_Force_Field>
OPLS_2005

> <r_lp_Energy>
42.0373

> <b_lp_Chiralities_Consistent>
1

> <s_lp_Variant>
AV-unprocessed.smi:2816-4

> <Gold.Version>
5.8.1

> <Gold.Id.Protein>
6NUR|6NUR_protein|mol2

> <Gold.PLP.Fitness>
37.8276

> <Gold.PLP.PLP>
-28.9981

> <Gold.PLP.part.hbond>
-3.0000

> <Gold.PLP.part.metal>
0.0000

> <Gold.PLP.part.buried>
-4.7123

> <Gold.PLP.part.nonpolar>
-22.0264

> <Gold.PLP.part.repulsive>
0.2859

> <Gold.PLP.ligand.clash>
0.0000

> <Gold.PLP.ligand.torsion>
1.2053

> <Gold.PLP.Chemscore.Hbond>
3.0000

> <Gold.PLP.Chemscore.CHOScore>
0.0000

> <Gold.PLP.Chemscore.Metal>
0.0000

> <Gold.Chemscore.Hbonds>
donor molecule, donor type, donor heavy atom, donor atom, acceptor molecule, acceptor atom, score
      L1  H    12    33       P1 10747  0.94
      P1  H  6896  6909       L1     7  0.86
      P1  H 10752 10765       L1     6  0.62

> <Gold.PLP.Chemscore.Internal.Correction>
2.2401

> <Gold.Rescore>
     Score         DG    S(hbond)    S(metal)    S(lipo)     H(rot)  DE(clash)    DE(int)     intcor
     20.19     -21.39       2.87        0.00      79.03       1.15       0.02       1.18       ----

> <Gold.Chemscore.Fitness>
20.1856

> <Gold.Chemscore.DG>
-21.3865

> <Gold.Chemscore.ZeroCoef>
-5.4800

> <Gold.Chemscore.Hbond>
2.8734

> <Gold.Chemscore.Metal>
0.0000

> <Gold.Chemscore.Lipo>
79.0259

> <Gold.Chemscore.Internal_Hbond>
0.0000

> <Gold.Chemscore.DEClash>
0.0168

> <Gold.Chemscore.DEInternal>
1.1841

> <Gold.Chemscore.Rot>
1.1471

> <Gold.Chemscore.Internal.Correction>
   9.000000E+99

> <Gold.Chemscore.Hbonds>
donor molecule, donor type, donor heavy atom, donor atom, acceptor molecule, acceptor atom, score
      L1  H    12    33       P1 10747  0.90
      P1  H  6896  6909       L1     7  0.75
      P1  H 10752 10765       L1     6  0.62

> <Gold.Chemscore.Hbond.Weighted>
-9.5970

> <Gold.Chemscore.Metal.Weighted>
-0.0000

> <Gold.Chemscore.Lipo.Weighted>
-9.2460

> <Gold.Chemscore.Internal_Hbond.Weighted>
0.0000

> <Gold.Chemscore.DEClash.Weighted>
0.0168

> <Gold.Chemscore.DEInternal.Weighted>
1.1841

> <Gold.Chemscore.Rot.Weighted>
2.9366

> <Gold.Chemscore.Internal.Correction.Weighted>
   9.000000E+99

> <Gold.Protein.RotatedTorsions>
[ 6907 6896 6895 6894 ] final   35.88 input  -60.11 | X-H torsion
[ 7974 7965 7964 7962 ] final -122.11 input  175.53 | X-H torsion
[ 8008 7997 7996 7995 ] final   -0.05 input   59.86 | X-H torsion
[ 10167 10162 10161 10158 ] final  144.23 input  -65.29 | X-H torsion
[ 10718 10713 10712 10709 ] final  -54.60 input   66.30 | X-H torsion
[ 10763 10752 10751 10750 ] final -152.11 input  -60.55 | X-H torsion
[ 11005 11000 10999 10996 ] final  127.44 input  -57.11 | X-H torsion

> <Gold.Protein.ActiveResidues>
 VAL166  LYS551  ARG553  GLY616  TRP617  ASP618  TYR619  PRO620  LYS621  CYS622 
 ASP623  PHE694  ASN695  SER759  ASP760  ASP761  ALA762  ILE779  LEU786  VAL792 
 PHE793  MET794  SER795  GLU796  ALA797  LYS798  CYS799  TRP800  GLU811  SER814 

> <Gold.Protein.RotatedAtoms>
  152.1222  134.9197  160.0562 H   0  0  0  0  0  0  0  0  0  0  0  0  # atno 6907 bound_to 6896
  152.0334  133.3942  159.4315 H   0  0  0  0  0  0  0  0  0  0  0  0  # atno 6908 bound_to 6896
  150.6850  134.3417  159.4914 H   0  0  0  0  0  0  0  0  0  0  0  0  # atno 6909 bound_to 6896
  145.0330  140.8083  143.4312 H   0  0  0  0  0  0  0  0  0  0  0  0  # atno 7974 bound_to 7965
  154.6624  140.2593  155.7094 H   0  0  0  0  0  0  0  0  0  0  0  0  # atno 8008 bound_to 7997
  156.2624  140.2846  156.1023 H   0  0  0  0  0  0  0  0  0  0  0  0  # atno 8009 bound_to 7997
  155.1288  140.0378  157.2759 H   0  0  0  0  0  0  0  0  0  0  0  0  # atno 8010 bound_to 7997
  139.4951  144.5986  151.6530 H   0  0  0  0  0  0  0  0  0  0  0  0  # atno 10167 bound_to 10162
  156.1437  130.4153  150.0059 H   0  0  0  0  0  0  0  0  0  0  0  0  # atno 10718 bound_to 10713
  154.8015  135.3244  154.7538 H   0  0  0  0  0  0  0  0  0  0  0  0  # atno 10763 bound_to 10752
  153.8205  135.6888  153.4832 H   0  0  0  0  0  0  0  0  0  0  0  0  # atno 10764 bound_to 10752
  153.1734  135.4614  154.9877 H   0  0  0  0  0  0  0  0  0  0  0  0  # atno 10765 bound_to 10752
  139.9508  134.9622  156.8855 H   0  0  0  0  0  0  0  0  0  0  0  0  # atno 11005 bound_to 11000
  145.1746  139.2385  143.5324 LP  0  0  0  0  0  0  0  0  0  0  0  0  # atno 17320 bound_to 7965
  146.3501  140.1505  142.8592 LP  0  0  0  0  0  0  0  0  0  0  0  0  # atno 17321 bound_to 7965
  140.5630  144.0237  150.6179 LP  0  0  0  0  0  0  0  0  0  0  0  0  # atno 17342 bound_to 10162
  140.3329  143.3066  152.0668 LP  0  0  0  0  0  0  0  0  0  0  0  0  # atno 17343 bound_to 10162
  156.7937  130.9265  151.3646 LP  0  0  0  0  0  0  0  0  0  0  0  0  # atno 17370 bound_to 10713
  157.6598  130.8956  149.9806 LP  0  0  0  0  0  0  0  0  0  0  0  0  # atno 17371 bound_to 10713
  140.5724  134.0430  155.7435 LP  0  0  0  0  0  0  0  0  0  0  0  0  # atno 17394 bound_to 11000
  141.1170  133.9524  157.2803 LP  0  0  0  0  0  0  0  0  0  0  0  0  # atno 17395 bound_to 11000

$$$$
