AV-unprocessed.smi:2922|AV-procd|sdf|11200|dock3
  -GOLD-   2272016 93D 1   1.00000     0.00000
 Structure written by MMmdl.
 30 31  0  0  0  0  0  0  0  0  1 V2000
  149.9508  135.9348  154.5798 N   0  0  0  0  0  0  0  0  0  0  0  0
  150.9955  136.6111  155.0662 C   0  0  0  0  0  0  0  0  0  0  0  0
  151.7368  136.1306  155.9215 O   0  0  0  0  0  0  0  0  0  0  0  0
  151.2618  138.0142  154.4996 C   0  0  2  0  0  0  0  0  0  0  0  0
  152.5204  138.7024  155.0622 C   0  0  0  0  0  0  0  0  0  0  0  0
  151.9879  139.9708  155.7043 C   0  0  0  0  0  0  0  0  0  0  0  0
  150.6818  140.2045  154.9507 C   0  0  2  0  0  0  0  0  0  0  0  0
  149.6700  141.0895  155.6902 C   0  0  0  0  0  0  0  0  0  0  0  0
  150.2757  142.3286  156.1537 N   0  0  0  0  0  0  0  0  0  0  0  0
  150.9154  142.4719  157.3702 C   0  0  0  0  0  0  0  0  0  0  0  0
  151.1941  141.3671  158.0738 N   0  0  0  0  0  0  0  0  0  0  0  0
  151.8187  141.5352  159.2600 C   0  0  0  0  0  0  0  0  0  0  0  0
  152.1612  142.8161  159.7372 C   0  0  0  0  0  0  0  0  0  0  0  0
  152.9572  143.0384  161.2515 Cl  0  0  0  0  0  0  0  0  0  0  0  0
  151.8193  143.9065  158.9125 C   0  0  0  0  0  0  0  0  0  0  0  0
  151.1954  143.7286  157.7268 N   0  0  0  0  0  0  0  0  0  0  0  0
  150.1784  138.8852  154.8248 O   0  0  0  0  0  0  0  0  0  0  0  0
  149.7415  135.0112  154.9295 H   0  0  0  0  0  0  0  0  0  0  0  0
  149.3732  136.3545  153.8656 H   0  0  0  0  0  0  0  0  0  0  0  0
  151.3360  137.9450  153.4134 H   0  0  0  0  0  0  0  0  0  0  0  0
  153.0765  138.1015  155.7832 H   0  0  0  0  0  0  0  0  0  0  0  0
  153.2022  138.9477  154.2468 H   0  0  0  0  0  0  0  0  0  0  0  0
  151.7865  139.7912  156.7614 H   0  0  0  0  0  0  0  0  0  0  0  0
  152.6803  140.8096  155.6283 H   0  0  0  0  0  0  0  0  0  0  0  0
  150.8820  140.5984  153.9521 H   0  0  0  0  0  0  0  0  0  0  0  0
  148.8443  141.3371  155.0222 H   0  0  0  0  0  0  0  0  0  0  0  0
  149.2448  140.5499  156.5374 H   0  0  0  0  0  0  0  0  0  0  0  0
  150.2114  143.1453  155.5637 H   0  0  0  0  0  0  0  0  0  0  0  0
  152.0439  140.6449  159.8282 H   0  0  0  0  0  0  0  0  0  0  0  0
  152.0452  144.9221  159.2023 H   0  0  0  0  0  0  0  0  0  0  0  0
  1  2  1  0  0  0  0
  1 18  1  0  0  0  0
  1 19  1  0  0  0  0
  2  3  2  0  0  0  0
  2  4  1  0  0  0  0
  4 17  1  0  0  0  0
  4  5  1  0  0  0  0
  4 20  1  0  0  0  0
  5  6  1  0  0  0  0
  5 21  1  0  0  0  0
  5 22  1  0  0  0  0
  6  7  1  0  0  0  0
  6 23  1  0  0  0  0
  6 24  1  0  0  0  0
  7  8  1  0  0  0  0
  7 17  1  0  0  0  0
  7 25  1  0  0  0  0
  8  9  1  0  0  0  0
  8 26  1  0  0  0  0
  8 27  1  0  0  0  0
  9 10  1  0  0  0  0
  9 28  1  0  0  0  0
 10 16  1  0  0  0  0
 10 11  2  0  0  0  0
 11 12  1  0  0  0  0
 12 13  2  0  0  0  0
 12 29  1  0  0  0  0
 13 14  1  0  0  0  0
 13 15  1  0  0  0  0
 15 16  2  0  0  0  0
 15 30  1  0  0  0  0
M  END
> <s_m_source_file>
AV-unprocessed.smi

> <i_m_source_file_index>
2922

> <i_lp_mmshare_version>
43012

> <i_f3d_flags>
0

> <s_epik_input>
W05IMl1DKD1PKVtDQEBIXTFbQ0gyXVtDSDJdW0NASF0oTzEpW0NIMl1bTkhdYzJuW2NIXWMoQ2wpW2NIXW4y

> <s_epik_cmdline>
J2VwaWtfcHl0aG9uJywgJy1waCcsICc3LjAnLCAnLXRuJywgJzgnLCAnLW1hJywgJzIwMCcsICctbWV0YWxfYmluZGluZycsICctaW1hZScsICc8aW5maWxlLm1hZT4nLCAnLW9tYWUnLCAnPG91dGZpbGUubWFlPic=

> <r_lp_tautomer_probability>
1

> <r_epik_Ionization_Penalty>
6.13883e-06

> <r_epik_Ionization_Penalty_Charging>
0

> <r_epik_Ionization_Penalty_Neutral>
6.13883e-06

> <r_epik_State_Penalty>
-0

> <r_epik_Charging_Adjusted_Penalty>
0

> <i_epik_Tot_Q>
0

> <i_epik_Tot_abs_Q>
0

> <r_epik_Metal_State_Penalty>
-0

> <b_epik_Metal_Only>
0

> <s_lp_Force_Field>
OPLS_2005

> <r_lp_Energy>
9.86342

> <b_lp_Chiralities_Consistent>
1

> <s_lp_Variant>
AV-unprocessed.smi:2922-3

> <Gold.Version>
5.8.1

> <Gold.Id.Protein>
6NUR|6NUR_protein|mol2

> <Gold.PLP.Fitness>
41.5562

> <Gold.PLP.PLP>
-35.1697

> <Gold.PLP.part.hbond>
-3.3786

> <Gold.PLP.part.metal>
0.0000

> <Gold.PLP.part.buried>
-2.0086

> <Gold.PLP.part.nonpolar>
-29.8398

> <Gold.PLP.part.repulsive>
0.4787

> <Gold.PLP.ligand.clash>
0.0000

> <Gold.PLP.ligand.torsion>
0.3163

> <Gold.PLP.Chemscore.Hbond>
2.3336

> <Gold.PLP.Chemscore.CHOScore>
0.0000

> <Gold.PLP.Chemscore.Metal>
0.0000

> <Gold.Chemscore.Hbonds>
donor molecule, donor type, donor heavy atom, donor atom, acceptor molecule, acceptor atom, score
      L1  H     1    19       P1  7948  0.80
      L1  H     9    28       P1  8028  0.57
      P1  H 10752 10763       L1     3  0.85

> <Gold.PLP.Chemscore.Internal.Correction>
0.0182

> <Gold.Rescore>
     Score         DG    S(hbond)    S(metal)    S(lipo)     H(rot)  DE(clash)    DE(int)     intcor
     14.91     -17.30       2.19        0.00      80.44       1.91       0.68       1.70       ----

> <Gold.Chemscore.Fitness>
14.9124

> <Gold.Chemscore.DG>
-17.2958

> <Gold.Chemscore.ZeroCoef>
-5.4800

> <Gold.Chemscore.Hbond>
2.1871

> <Gold.Chemscore.Metal>
0.0000

> <Gold.Chemscore.Lipo>
80.4362

> <Gold.Chemscore.Internal_Hbond>
0.0000

> <Gold.Chemscore.DEClash>
0.6801

> <Gold.Chemscore.DEInternal>
1.7033

> <Gold.Chemscore.Rot>
1.9142

> <Gold.Chemscore.Internal.Correction>
   9.000000E+99

> <Gold.Chemscore.Hbonds>
donor molecule, donor type, donor heavy atom, donor atom, acceptor molecule, acceptor atom, score
      L1  H     1    19       P1  7948  0.63
      L1  H     9    28       P1  8028  0.54
      P1  H 10752 10763       L1     3  0.15

> <Gold.Chemscore.Hbond.Weighted>
-7.3050

> <Gold.Chemscore.Metal.Weighted>
-0.0000

> <Gold.Chemscore.Lipo.Weighted>
-9.4110

> <Gold.Chemscore.Internal_Hbond.Weighted>
0.0000

> <Gold.Chemscore.DEClash.Weighted>
0.6801

> <Gold.Chemscore.DEInternal.Weighted>
1.7033

> <Gold.Chemscore.Rot.Weighted>
4.9002

> <Gold.Chemscore.Internal.Correction.Weighted>
   9.000000E+99

> <Gold.Protein.RotatedTorsions>
[ 6907 6896 6895 6894 ] final -142.92 input  -60.11 | X-H torsion
[ 7974 7965 7964 7962 ] final  121.26 input  175.53 | X-H torsion
[ 8008 7997 7996 7995 ] final   63.38 input   59.86 | X-H torsion
[ 10167 10162 10161 10158 ] final   36.46 input  -65.29 | X-H torsion
[ 10718 10713 10712 10709 ] final -147.64 input   66.30 | X-H torsion
[ 10763 10752 10751 10750 ] final   71.42 input  -60.55 | X-H torsion
[ 11005 11000 10999 10996 ] final   -7.52 input  -57.11 | X-H torsion

> <Gold.Protein.ActiveResidues>
 VAL166  LYS551  ARG553  GLY616  TRP617  ASP618  TYR619  PRO620  LYS621  CYS622 
 ASP623  PHE694  ASN695  SER759  ASP760  ASP761  ALA762  ILE779  LEU786  VAL792 
 PHE793  MET794  SER795  GLU796  ALA797  LYS798  CYS799  TRP800  GLU811  SER814 

> <Gold.Protein.RotatedAtoms>
  151.0935  133.5297  159.2613 H   0  0  0  0  0  0  0  0  0  0  0  0  # atno 6907 bound_to 6896
  151.2156  135.0498  159.8939 H   0  0  0  0  0  0  0  0  0  0  0  0  # atno 6908 bound_to 6896
  152.5436  134.0745  159.8262 H   0  0  0  0  0  0  0  0  0  0  0  0  # atno 6909 bound_to 6896
  145.1213  139.3387  143.4712 H   0  0  0  0  0  0  0  0  0  0  0  0  # atno 7974 bound_to 7965
  155.6292  140.3496  155.4677 H   0  0  0  0  0  0  0  0  0  0  0  0  # atno 8008 bound_to 7997
  156.0016  140.1214  157.0565 H   0  0  0  0  0  0  0  0  0  0  0  0  # atno 8009 bound_to 7997
  154.4251  140.1099  156.5691 H   0  0  0  0  0  0  0  0  0  0  0  0  # atno 8010 bound_to 7997
  140.4125  144.1573  150.6140 H   0  0  0  0  0  0  0  0  0  0  0  0  # atno 10167 bound_to 10162
  156.4101  130.7977  151.2194 H   0  0  0  0  0  0  0  0  0  0  0  0  # atno 10718 bound_to 10713
  153.0398  135.5137  154.7591 H   0  0  0  0  0  0  0  0  0  0  0  0  # atno 10763 bound_to 10752
  154.6537  135.2929  154.9956 H   0  0  0  0  0  0  0  0  0  0  0  0  # atno 10764 bound_to 10752
  154.0832  135.6661  153.4893 H   0  0  0  0  0  0  0  0  0  0  0  0  # atno 10765 bound_to 10752
  140.7137  133.8887  155.8769 H   0  0  0  0  0  0  0  0  0  0  0  0  # atno 11005 bound_to 11000
  146.3520  140.1174  142.8601 LP  0  0  0  0  0  0  0  0  0  0  0  0  # atno 17320 bound_to 7965
  145.0737  140.9173  143.4867 LP  0  0  0  0  0  0  0  0  0  0  0  0  # atno 17321 bound_to 7965
  140.4622  143.2444  151.9204 LP  0  0  0  0  0  0  0  0  0  0  0  0  # atno 17342 bound_to 10162
  139.4782  144.5455  151.8464 LP  0  0  0  0  0  0  0  0  0  0  0  0  # atno 17343 bound_to 10162
  157.7507  131.0260  150.3944 LP  0  0  0  0  0  0  0  0  0  0  0  0  # atno 17370 bound_to 10713
  156.4241  130.3958  149.6805 LP  0  0  0  0  0  0  0  0  0  0  0  0  # atno 17371 bound_to 10713
  141.0063  134.1082  157.4267 LP  0  0  0  0  0  0  0  0  0  0  0  0  # atno 17394 bound_to 11000
  139.8865  135.0082  156.6503 LP  0  0  0  0  0  0  0  0  0  0  0  0  # atno 17395 bound_to 11000

$$$$
