AV-unprocessed.smi:1492|AV-procd|sdf|6041|dock2
  -GOLD-   22720 6153D 1   1.00000     0.00000
 Structure written by MMmdl.
 52 53  0  0  0  0  0  0  0  0  1 V2000
  148.3473  141.9199  156.0265 C   0  0  0  0  0  0  0  0  0  0  0  0
  148.6571  141.0865  157.2834 C   0  0  0  0  0  0  0  0  0  0  0  0
  150.1656  140.8655  157.6220 C   0  0  2  0  0  0  0  0  0  0  0  0
  150.9333  140.6008  156.2994 C   0  0  0  0  0  0  0  0  0  0  0  0
  150.3023  139.5703  158.4856 C   0  0  0  0  0  0  0  0  0  0  0  0
  149.5107  138.4631  157.9550 N   0  0  0  0  0  0  0  0  0  0  0  0
  149.3880  137.2419  158.4946 C   0  0  0  0  0  0  0  0  0  0  0  0
  150.0613  136.8408  159.4432 O   0  0  0  0  0  0  0  0  0  0  0  0
  148.3010  136.3534  157.8889 C   0  0  0  0  0  0  0  0  0  0  0  0
  147.5917  135.4427  158.8917 C   0  0  0  0  0  0  0  0  0  0  0  0
  147.4920  134.0999  158.7216 C   0  0  0  0  0  0  0  0  0  0  0  0
  148.0438  133.3457  157.5244 C   0  0  0  0  0  0  0  0  0  0  0  0
  146.8670  133.3028  159.6642 N   0  0  0  0  0  0  0  0  0  0  0  0
  146.3469  133.9178  160.7907 C   0  0  0  0  0  0  0  0  0  0  0  0
  145.6947  132.9583  161.7618 C   0  0  0  0  0  0  0  0  0  0  0  0
  146.3910  135.1904  161.0428 N   0  0  0  0  0  0  0  0  0  0  0  0
  147.0179  136.0423  160.1198 C   0  0  0  0  0  0  0  0  0  0  0  0
  147.0935  137.2498  160.3426 O   0  0  0  0  0  0  0  0  0  0  0  0
  150.7635  142.0372  158.3292 N   0  0  0  0  0  0  0  0  0  0  0  0
  152.0212  141.7746  159.0379 C   0  0  0  0  0  0  0  0  0  0  0  0
  152.4792  142.9897  159.8623 C   0  0  0  0  0  0  0  0  0  0  0  0
  152.6100  144.1245  159.0148 O   0  0  0  0  0  0  0  0  0  0  0  0
  151.3965  144.4473  158.3465 C   0  0  0  0  0  0  0  0  0  0  0  0
  150.9302  143.2438  157.5102 C   0  0  0  0  0  0  0  0  0  0  0  0
  146.8185  132.3077  159.5000 H   0  0  0  0  0  0  0  0  0  0  0  0
  147.2694  142.0141  155.8943 H   0  0  0  0  0  0  0  0  0  0  0  0
  148.7397  141.4585  155.1210 H   0  0  0  0  0  0  0  0  0  0  0  0
  148.7490  142.9305  156.0962 H   0  0  0  0  0  0  0  0  0  0  0  0
  148.1565  141.5722  158.1204 H   0  0  0  0  0  0  0  0  0  0  0  0
  148.1603  140.1243  157.1609 H   0  0  0  0  0  0  0  0  0  0  0  0
  150.7139  139.6158  155.8876 H   0  0  0  0  0  0  0  0  0  0  0  0
  152.0125  140.6482  156.4472 H   0  0  0  0  0  0  0  0  0  0  0  0
  150.6780  141.3244  155.5252 H   0  0  0  0  0  0  0  0  0  0  0  0
  151.3411  139.2425  158.5253 H   0  0  0  0  0  0  0  0  0  0  0  0
  150.0277  139.7557  159.5247 H   0  0  0  0  0  0  0  0  0  0  0  0
  148.9130  138.6831  157.1713 H   0  0  0  0  0  0  0  0  0  0  0  0
  147.5862  136.9855  157.3612 H   0  0  0  0  0  0  0  0  0  0  0  0
  148.7523  135.7352  157.1123 H   0  0  0  0  0  0  0  0  0  0  0  0
  149.1177  133.5065  157.4315 H   0  0  0  0  0  0  0  0  0  0  0  0
  147.5644  133.6865  156.6066 H   0  0  0  0  0  0  0  0  0  0  0  0
  147.8738  132.2719  157.6122 H   0  0  0  0  0  0  0  0  0  0  0  0
  145.3758  133.4769  162.6670 H   0  0  0  0  0  0  0  0  0  0  0  0
  146.3948  132.1736  162.0501 H   0  0  0  0  0  0  0  0  0  0  0  0
  144.8192  132.4944  161.3070 H   0  0  0  0  0  0  0  0  0  0  0  0
  151.9170  140.9335  159.7209 H   0  0  0  0  0  0  0  0  0  0  0  0
  152.8082  141.5143  158.3303 H   0  0  0  0  0  0  0  0  0  0  0  0
  151.7676  143.2026  160.6604 H   0  0  0  0  0  0  0  0  0  0  0  0
  153.4396  142.7864  160.3360 H   0  0  0  0  0  0  0  0  0  0  0  0
  150.6355  144.7312  159.0736 H   0  0  0  0  0  0  0  0  0  0  0  0
  151.5627  145.3126  157.7049 H   0  0  0  0  0  0  0  0  0  0  0  0
  151.6601  143.0657  156.7207 H   0  0  0  0  0  0  0  0  0  0  0  0
  149.9971  143.5175  157.0213 H   0  0  0  0  0  0  0  0  0  0  0  0
  1  2  1  0  0  0  0
  1 26  1  0  0  0  0
  1 27  1  0  0  0  0
  1 28  1  0  0  0  0
  2  3  1  0  0  0  0
  2 29  1  0  0  0  0
  2 30  1  0  0  0  0
  3  4  1  0  0  0  0
  3  5  1  0  0  0  0
  3 19  1  0  0  0  0
  4 31  1  0  0  0  0
  4 32  1  0  0  0  0
  4 33  1  0  0  0  0
  5  6  1  0  0  0  0
  5 34  1  0  0  0  0
  5 35  1  0  0  0  0
  6  7  1  0  0  0  0
  6 36  1  0  0  0  0
  7  8  2  0  0  0  0
  7  9  1  0  0  0  0
  9 37  1  0  0  0  0
  9 38  1  0  0  0  0
  9 10  1  0  0  0  0
 10 17  1  0  0  0  0
 10 11  2  0  0  0  0
 11 12  1  0  0  0  0
 11 13  1  0  0  0  0
 12 39  1  0  0  0  0
 12 40  1  0  0  0  0
 12 41  1  0  0  0  0
 13 25  1  0  0  0  0
 13 14  1  0  0  0  0
 14 15  1  0  0  0  0
 14 16  2  0  0  0  0
 15 42  1  0  0  0  0
 15 43  1  0  0  0  0
 15 44  1  0  0  0  0
 16 17  1  0  0  0  0
 17 18  2  0  0  0  0
 19 24  1  0  0  0  0
 19 20  1  0  0  0  0
 20 21  1  0  0  0  0
 20 45  1  0  0  0  0
 20 46  1  0  0  0  0
 21 22  1  0  0  0  0
 21 47  1  0  0  0  0
 21 48  1  0  0  0  0
 22 23  1  0  0  0  0
 23 24  1  0  0  0  0
 23 49  1  0  0  0  0
 23 50  1  0  0  0  0
 24 51  1  0  0  0  0
 24 52  1  0  0  0  0
M  END
> <s_m_source_file>
AV-unprocessed.smi

> <i_m_source_file_index>
1492

> <i_lp_mmshare_version>
43012

> <i_f3d_flags>
0

> <s_epik_input>
W0NIMl0xW0NIMl1PW0NIMl1bQ0gyXU4xW0NAQF0oW0NIM10pKFtDSDJdW0NIM10pW0NIMl1bTkhdQyg9TylbQ0gyXWMyYyhbQ0gzXSluYyhbQ0gzXSlbbkhdYzI9Tw==

> <s_epik_cmdline>
J2VwaWtfcHl0aG9uJywgJy1waCcsICc3LjAnLCAnLXRuJywgJzgnLCAnLW1hJywgJzIwMCcsICctbWV0YWxfYmluZGluZycsICctaW1hZScsICc8aW5maWxlLm1hZT4nLCAnLW9tYWUnLCAnPG91dGZpbGUubWFlPic=

> <r_lp_tautomer_probability>
0.156392

> <r_epik_Ionization_Penalty>
0.342516

> <r_epik_Ionization_Penalty_Charging>
0.0141408

> <r_epik_Ionization_Penalty_Neutral>
0.328375

> <r_epik_State_Penalty>
1.47662

> <r_epik_Charging_Adjusted_Penalty>
1.49076

> <i_epik_Tot_Q>
0

> <i_epik_Tot_abs_Q>
0

> <r_epik_Metal_State_Penalty>
1.65506

> <b_epik_Metal_Only>
0

> <s_lp_Force_Field>
OPLS_2005

> <r_lp_Energy>
47.0207

> <b_lp_Chiralities_Consistent>
1

> <s_lp_Variant>
AV-unprocessed.smi:1492-6

> <Gold.Version>
5.8.1

> <Gold.Id.Protein>
6NUR|6NUR_protein|mol2

> <Gold.PLP.Fitness>
42.0018

> <Gold.PLP.PLP>
-35.9115

> <Gold.PLP.part.hbond>
-3.0000

> <Gold.PLP.part.metal>
0.0000

> <Gold.PLP.part.buried>
-4.9684

> <Gold.PLP.part.nonpolar>
-29.0139

> <Gold.PLP.part.repulsive>
0.1882

> <Gold.PLP.ligand.clash>
0.0000

> <Gold.PLP.ligand.torsion>
1.1680

> <Gold.PLP.Chemscore.Hbond>
2.6960

> <Gold.PLP.Chemscore.CHOScore>
0.0000

> <Gold.PLP.Chemscore.Metal>
0.0000

> <Gold.Chemscore.Hbonds>
donor molecule, donor type, donor heavy atom, donor atom, acceptor molecule, acceptor atom, score
      P1  H  6896  6909       L1     8  0.83
      P1  H  6934  6947       L1    18  1.00

> <Gold.PLP.Chemscore.Internal.Correction>
0.3383

> <Gold.Rescore>
     Score         DG    S(hbond)    S(metal)    S(lipo)     H(rot)  DE(clash)    DE(int)     intcor
     16.16     -17.33       2.17        0.00      85.67       2.12       0.03       1.14       ----

> <Gold.Chemscore.Fitness>
16.1635

> <Gold.Chemscore.DG>
-17.3340

> <Gold.Chemscore.ZeroCoef>
-5.4800

> <Gold.Chemscore.Hbond>
2.1694

> <Gold.Chemscore.Metal>
0.0000

> <Gold.Chemscore.Lipo>
85.6738

> <Gold.Chemscore.Internal_Hbond>
0.0000

> <Gold.Chemscore.DEClash>
0.0259

> <Gold.Chemscore.DEInternal>
1.1445

> <Gold.Chemscore.Rot>
2.1155

> <Gold.Chemscore.Internal.Correction>
   9.000000E+99

> <Gold.Chemscore.Hbonds>
donor molecule, donor type, donor heavy atom, donor atom, acceptor molecule, acceptor atom, score
      P1  H  6896  6909       L1     8  0.82
      P1  H  6934  6947       L1    18  1.00

> <Gold.Chemscore.Hbond.Weighted>
-7.2459

> <Gold.Chemscore.Metal.Weighted>
-0.0000

> <Gold.Chemscore.Lipo.Weighted>
-10.0238

> <Gold.Chemscore.Internal_Hbond.Weighted>
0.0000

> <Gold.Chemscore.DEClash.Weighted>
0.0259

> <Gold.Chemscore.DEInternal.Weighted>
1.1445

> <Gold.Chemscore.Rot.Weighted>
5.4157

> <Gold.Chemscore.Internal.Correction.Weighted>
   9.000000E+99

> <Gold.Protein.RotatedTorsions>
[ 6907 6896 6895 6894 ] final   77.33 input  -60.11 | X-H torsion
[ 7974 7965 7964 7962 ] final  -69.69 input  175.53 | X-H torsion
[ 8008 7997 7996 7995 ] final   75.18 input   59.86 | X-H torsion
[ 10167 10162 10161 10158 ] final -107.18 input  -65.29 | X-H torsion
[ 10718 10713 10712 10709 ] final  144.91 input   66.30 | X-H torsion
[ 10763 10752 10751 10750 ] final -134.01 input  -60.55 | X-H torsion
[ 11005 11000 10999 10996 ] final   73.44 input  -57.11 | X-H torsion

> <Gold.Protein.ActiveResidues>
 VAL166  LYS551  ARG553  GLY616  TRP617  ASP618  TYR619  PRO620  LYS621  CYS622 
 ASP623  PHE694  ASN695  SER759  ASP760  ASP761  ALA762  ILE779  LEU786  VAL792 
 PHE793  MET794  SER795  GLU796  ALA797  LYS798  CYS799  TRP800  GLU811  SER814 

> <Gold.Protein.RotatedAtoms>
  152.5113  134.3833  159.9358 H   0  0  0  0  0  0  0  0  0  0  0  0  # atno 6907 bound_to 6896
  151.3791  133.3821  159.2716 H   0  0  0  0  0  0  0  0  0  0  0  0  # atno 6908 bound_to 6896
  150.9518  134.8937  159.7735 H   0  0  0  0  0  0  0  0  0  0  0  0  # atno 6909 bound_to 6896
  145.7005  140.9118  143.0733 H   0  0  0  0  0  0  0  0  0  0  0  0  # atno 7974 bound_to 7965
  155.8091  140.3474  155.5447 H   0  0  0  0  0  0  0  0  0  0  0  0  # atno 8008 bound_to 7997
  155.8459  140.0949  157.1725 H   0  0  0  0  0  0  0  0  0  0  0  0  # atno 8009 bound_to 7997
  154.4006  140.1385  156.3773 H   0  0  0  0  0  0  0  0  0  0  0  0  # atno 8010 bound_to 7997
  140.1797  143.3976  152.1290 H   0  0  0  0  0  0  0  0  0  0  0  0  # atno 10167 bound_to 10162
  157.3516  131.0951  151.0995 H   0  0  0  0  0  0  0  0  0  0  0  0  # atno 10718 bound_to 10713
  154.8725  135.3748  154.4666 H   0  0  0  0  0  0  0  0  0  0  0  0  # atno 10763 bound_to 10752
  153.5330  135.7027  153.5679 H   0  0  0  0  0  0  0  0  0  0  0  0  # atno 10764 bound_to 10752
  153.3875  135.3981  155.1865 H   0  0  0  0  0  0  0  0  0  0  0  0  # atno 10765 bound_to 10752
  139.9440  134.7347  156.1026 H   0  0  0  0  0  0  0  0  0  0  0  0  # atno 11005 bound_to 11000
  144.6970  139.8941  143.7455 LP  0  0  0  0  0  0  0  0  0  0  0  0  # atno 17320 bound_to 7965
  146.0802  139.3790  143.0469 LP  0  0  0  0  0  0  0  0  0  0  0  0  # atno 17321 bound_to 7965
  139.5301  144.7149  151.5086 LP  0  0  0  0  0  0  0  0  0  0  0  0  # atno 17342 bound_to 10162
  140.6527  143.8662  150.6803 LP  0  0  0  0  0  0  0  0  0  0  0  0  # atno 17343 bound_to 10162
  157.2169  130.6463  149.5796 LP  0  0  0  0  0  0  0  0  0  0  0  0  # atno 17370 bound_to 10713
  155.9722  130.4642  150.6208 LP  0  0  0  0  0  0  0  0  0  0  0  0  # atno 17371 bound_to 10713
  141.1084  133.6652  156.2920 LP  0  0  0  0  0  0  0  0  0  0  0  0  # atno 17394 bound_to 11000
  140.5880  134.5679  157.5494 LP  0  0  0  0  0  0  0  0  0  0  0  0  # atno 17395 bound_to 11000

$$$$
