AV-unprocessed.smi:2846|AV-procd|sdf|10951|dock2
  -GOLD-   2272015403D 1   1.00000     0.00000
 Structure written by MMmdl.
 48 50  0  0  0  0  0  0  0  0  1 V2000
  149.0859  140.4690  157.5054 O   0  0  0  0  0  0  0  0  0  0  0  0
  149.2707  141.4696  156.8118 C   0  0  0  0  0  0  0  0  0  0  0  0
  150.6870  141.9803  156.5359 C   0  0  0  0  0  0  0  0  0  0  0  0
  151.4651  142.4929  157.7368 C   0  0  0  0  0  0  0  0  0  0  0  0
  151.7296  141.7146  158.8043 C   0  0  0  0  0  0  0  0  0  0  0  0
  152.5135  142.1751  160.0204 C   0  0  0  0  0  0  0  0  0  0  0  0
  153.2709  143.4890  159.7643 C   0  0  0  0  0  0  0  0  0  0  0  0
  152.3906  144.4995  159.0180 C   0  0  0  0  0  0  0  0  0  0  0  0
  151.9224  143.9446  157.6604 C   0  0  0  0  0  0  0  0  0  0  0  0
  148.2754  142.1720  156.2503 N   0  0  0  0  0  0  0  0  0  0  0  0
  146.8505  141.8652  156.3599 C   0  0  0  0  0  0  0  0  0  0  0  0
  146.1557  141.6793  154.9819 C   0  0  0  0  0  0  0  0  0  0  0  0
  145.5673  143.0179  154.5102 C   0  0  0  0  0  0  0  0  0  0  0  0
  145.9281  143.5569  153.2539 C   0  0  0  0  0  0  0  0  0  0  0  0
  145.3532  144.7756  152.8426 C   0  0  0  0  0  0  0  0  0  0  0  0
  144.4610  145.4629  153.5855 N   0  0  0  0  0  0  0  0  0  0  0  0
  144.1071  144.9443  154.7796 C   0  0  0  0  0  0  0  0  0  0  0  0
  144.6224  143.7335  155.2831 C   0  0  0  0  0  0  0  0  0  0  0  0
  147.1043  141.0375  153.9439 C   0  0  0  0  0  0  0  0  0  0  0  0
  147.1304  139.5384  154.2542 C   0  0  0  0  0  0  0  0  0  0  0  0
  145.7960  139.2352  154.9438 C   0  0  0  0  0  0  0  0  0  0  0  0
  145.0753  140.5822  155.0859 C   0  0  0  0  0  0  0  0  0  0  0  0
  151.2470  141.1555  156.0925 H   0  0  0  0  0  0  0  0  0  0  0  0
  150.6506  142.7622  155.7761 H   0  0  0  0  0  0  0  0  0  0  0  0
  151.3651  140.6980  158.8298 H   0  0  0  0  0  0  0  0  0  0  0  0
  151.8118  142.2987  160.8458 H   0  0  0  0  0  0  0  0  0  0  0  0
  153.2147  141.3935  160.3137 H   0  0  0  0  0  0  0  0  0  0  0  0
  153.6174  143.9099  160.7086 H   0  0  0  0  0  0  0  0  0  0  0  0
  154.1632  143.2857  159.1709 H   0  0  0  0  0  0  0  0  0  0  0  0
  151.5208  144.7364  159.6323 H   0  0  0  0  0  0  0  0  0  0  0  0
  152.9287  145.4363  158.8710 H   0  0  0  0  0  0  0  0  0  0  0  0
  152.7326  144.0043  156.9331 H   0  0  0  0  0  0  0  0  0  0  0  0
  151.1093  144.5629  157.2782 H   0  0  0  0  0  0  0  0  0  0  0  0
  148.5227  142.9775  155.6935 H   0  0  0  0  0  0  0  0  0  0  0  0
  146.6891  141.0005  157.0052 H   0  0  0  0  0  0  0  0  0  0  0  0
  146.3919  142.7052  156.8827 H   0  0  0  0  0  0  0  0  0  0  0  0
  146.6287  143.0499  152.6074 H   0  0  0  0  0  0  0  0  0  0  0  0
  145.6147  145.2072  151.8878 H   0  0  0  0  0  0  0  0  0  0  0  0
  143.3856  145.5089  155.3511 H   0  0  0  0  0  0  0  0  0  0  0  0
  144.2838  143.3708  156.2417 H   0  0  0  0  0  0  0  0  0  0  0  0
  146.6826  141.1560  152.9443 H   0  0  0  0  0  0  0  0  0  0  0  0
  148.1005  141.4786  153.9194 H   0  0  0  0  0  0  0  0  0  0  0  0
  147.2726  138.9429  153.3520 H   0  0  0  0  0  0  0  0  0  0  0  0
  147.9564  139.3107  154.9294 H   0  0  0  0  0  0  0  0  0  0  0  0
  145.1960  138.5259  154.3729 H   0  0  0  0  0  0  0  0  0  0  0  0
  145.9766  138.7939  155.9247 H   0  0  0  0  0  0  0  0  0  0  0  0
  144.4823  140.6436  155.9989 H   0  0  0  0  0  0  0  0  0  0  0  0
  144.3808  140.6790  154.2495 H   0  0  0  0  0  0  0  0  0  0  0  0
  1  2  2  0  0  0  0
  2  3  1  0  0  0  0
  2 10  1  0  0  0  0
  3  4  1  0  0  0  0
  3 23  1  0  0  0  0
  3 24  1  0  0  0  0
  4  9  1  0  0  0  0
  4  5  2  0  0  0  0
  5  6  1  0  0  0  0
  5 25  1  0  0  0  0
  6  7  1  0  0  0  0
  6 26  1  0  0  0  0
  6 27  1  0  0  0  0
  7  8  1  0  0  0  0
  7 28  1  0  0  0  0
  7 29  1  0  0  0  0
  8  9  1  0  0  0  0
  8 30  1  0  0  0  0
  8 31  1  0  0  0  0
  9 32  1  0  0  0  0
  9 33  1  0  0  0  0
 10 11  1  0  0  0  0
 10 34  1  0  0  0  0
 11 12  1  0  0  0  0
 11 35  1  0  0  0  0
 11 36  1  0  0  0  0
 12 22  1  0  0  0  0
 12 13  1  0  0  0  0
 12 19  1  0  0  0  0
 13 18  1  0  0  0  0
 13 14  2  0  0  0  0
 14 15  1  0  0  0  0
 14 37  1  0  0  0  0
 15 16  2  0  0  0  0
 15 38  1  0  0  0  0
 16 17  1  0  0  0  0
 17 18  2  0  0  0  0
 17 39  1  0  0  0  0
 18 40  1  0  0  0  0
 19 20  1  0  0  0  0
 19 41  1  0  0  0  0
 19 42  1  0  0  0  0
 20 21  1  0  0  0  0
 20 43  1  0  0  0  0
 20 44  1  0  0  0  0
 21 22  1  0  0  0  0
 21 45  1  0  0  0  0
 21 46  1  0  0  0  0
 22 47  1  0  0  0  0
 22 48  1  0  0  0  0
M  END
> <s_m_source_file>
AV-unprocessed.smi

> <i_m_source_file_index>
2846

> <i_lp_mmshare_version>
43012

> <i_f3d_flags>
0

> <s_epik_input>
W0NIMl0xW0NIMl1bQ0gyXVtDSDJdW0NIXT1DMVtDSDJdQyg9TylbTkhdW0NIMl1DMihbQ0gyXVtDSDJdW0NIMl1bQ0gyXTIpYzNbY0hdW2NIXW5bY0hdW2NIXTM=

> <s_epik_cmdline>
J2VwaWtfcHl0aG9uJywgJy1waCcsICc3LjAnLCAnLXRuJywgJzgnLCAnLW1hJywgJzIwMCcsICctbWV0YWxfYmluZGluZycsICctaW1hZScsICc8aW5maWxlLm1hZT4nLCAnLW9tYWUnLCAnPG91dGZpbGUubWFlPic=

> <r_epik_Ionization_Penalty>
0.0617419

> <r_epik_Ionization_Penalty_Charging>
0

> <r_epik_Ionization_Penalty_Neutral>
0.0617419

> <r_epik_State_Penalty>
0.0536117

> <r_epik_Charging_Adjusted_Penalty>
0.0536117

> <i_epik_Tot_Q>
0

> <i_epik_Tot_abs_Q>
0

> <r_epik_Metal_State_Penalty>
0.0485218

> <b_epik_Metal_Only>
0

> <s_lp_Force_Field>
OPLS_2005

> <r_lp_Energy>
29.944

> <b_lp_Chiralities_Consistent>
1

> <s_lp_Variant>
AV-unprocessed.smi:2846-1

> <Gold.Version>
5.8.1

> <Gold.Id.Protein>
6NUR|6NUR_protein|mol2

> <Gold.PLP.Fitness>
45.2771

> <Gold.PLP.PLP>
-43.4861

> <Gold.PLP.part.hbond>
-1.0000

> <Gold.PLP.part.metal>
0.0000

> <Gold.PLP.part.buried>
-5.9842

> <Gold.PLP.part.nonpolar>
-38.8566

> <Gold.PLP.part.repulsive>
0.1026

> <Gold.PLP.ligand.clash>
0.0000

> <Gold.PLP.ligand.torsion>
0.6798

> <Gold.PLP.Chemscore.Hbond>
1.0000

> <Gold.PLP.Chemscore.CHOScore>
0.0000

> <Gold.PLP.Chemscore.Metal>
0.0000

> <Gold.Chemscore.Hbonds>
donor molecule, donor type, donor heavy atom, donor atom, acceptor molecule, acceptor atom, score
      L1  H    10    34       P1  8028  0.94

> <Gold.PLP.Chemscore.Internal.Correction>
0.1506

> <Gold.Rescore>
     Score         DG    S(hbond)    S(metal)    S(lipo)     H(rot)  DE(clash)    DE(int)     intcor
     19.41     -20.23       0.95        0.00     129.20       1.38       0.21       0.61       ----

> <Gold.Chemscore.Fitness>
19.4086

> <Gold.Chemscore.DG>
-20.2285

> <Gold.Chemscore.ZeroCoef>
-5.4800

> <Gold.Chemscore.Hbond>
0.9468

> <Gold.Chemscore.Metal>
0.0000

> <Gold.Chemscore.Lipo>
129.1963

> <Gold.Chemscore.Internal_Hbond>
0.0000

> <Gold.Chemscore.DEClash>
0.2063

> <Gold.Chemscore.DEInternal>
0.6136

> <Gold.Chemscore.Rot>
1.3789

> <Gold.Chemscore.Internal.Correction>
   9.000000E+99

> <Gold.Chemscore.Hbonds>
donor molecule, donor type, donor heavy atom, donor atom, acceptor molecule, acceptor atom, score
      L1  H    10    34       P1  8028  0.92

> <Gold.Chemscore.Hbond.Weighted>
-3.1625

> <Gold.Chemscore.Metal.Weighted>
-0.0000

> <Gold.Chemscore.Lipo.Weighted>
-15.1160

> <Gold.Chemscore.Internal_Hbond.Weighted>
0.0000

> <Gold.Chemscore.DEClash.Weighted>
0.2063

> <Gold.Chemscore.DEInternal.Weighted>
0.6136

> <Gold.Chemscore.Rot.Weighted>
3.5299

> <Gold.Chemscore.Internal.Correction.Weighted>
   9.000000E+99

> <Gold.Protein.RotatedTorsions>
[ 6907 6896 6895 6894 ] final   95.76 input  -60.11 | X-H torsion
[ 7974 7965 7964 7962 ] final   29.18 input  175.53 | X-H torsion
[ 8008 7997 7996 7995 ] final -149.50 input   59.86 | X-H torsion
[ 10167 10162 10161 10158 ] final -132.80 input  -65.29 | X-H torsion
[ 10718 10713 10712 10709 ] final  -33.84 input   66.30 | X-H torsion
[ 10763 10752 10751 10750 ] final  -18.49 input  -60.55 | X-H torsion
[ 11005 11000 10999 10996 ] final  -28.39 input  -57.11 | X-H torsion

> <Gold.Protein.ActiveResidues>
 VAL166  LYS551  ARG553  GLY616  TRP617  ASP618  TYR619  PRO620  LYS621  CYS622 
 ASP623  PHE694  ASN695  SER759  ASP760  ASP761  ALA762  ILE779  LEU786  VAL792 
 PHE793  MET794  SER795  GLU796  ALA797  LYS798  CYS799  TRP800  GLU811  SER814 

> <Gold.Protein.RotatedAtoms>
  152.5441  134.0991  159.8309 H   0  0  0  0  0  0  0  0  0  0  0  0  # atno 6907 bound_to 6896
  151.1071  133.5193  159.2614 H   0  0  0  0  0  0  0  0  0  0  0  0  # atno 6908 bound_to 6896
  151.1926  135.0418  159.8893 H   0  0  0  0  0  0  0  0  0  0  0  0  # atno 6909 bound_to 6896
  146.1686  139.6956  142.8983 H   0  0  0  0  0  0  0  0  0  0  0  0  # atno 7974 bound_to 7965
  155.6086  140.0669  157.2712 H   0  0  0  0  0  0  0  0  0  0  0  0  # atno 8008 bound_to 7997
  154.4259  140.1805  156.1296 H   0  0  0  0  0  0  0  0  0  0  0  0  # atno 8009 bound_to 7997
  156.0103  140.3327  155.6937 H   0  0  0  0  0  0  0  0  0  0  0  0  # atno 8010 bound_to 7997
  139.9049  143.6563  152.2587 H   0  0  0  0  0  0  0  0  0  0  0  0  # atno 10167 bound_to 10162
  156.3578  130.4319  149.7649 H   0  0  0  0  0  0  0  0  0  0  0  0  # atno 10718 bound_to 10713
  153.5902  135.7002  153.5426 H   0  0  0  0  0  0  0  0  0  0  0  0  # atno 10763 bound_to 10752
  153.3185  135.4081  155.1396 H   0  0  0  0  0  0  0  0  0  0  0  0  # atno 10764 bound_to 10752
  154.8602  135.3689  154.5433 H   0  0  0  0  0  0  0  0  0  0  0  0  # atno 10765 bound_to 10752
  140.9204  133.7402  156.0793 H   0  0  0  0  0  0  0  0  0  0  0  0  # atno 11005 bound_to 11000
  145.4400  141.0421  143.2863 LP  0  0  0  0  0  0  0  0  0  0  0  0  # atno 17320 bound_to 7965
  144.8130  139.5928  143.7021 LP  0  0  0  0  0  0  0  0  0  0  0  0  # atno 17321 bound_to 7965
  139.6993  144.7637  151.1301 LP  0  0  0  0  0  0  0  0  0  0  0  0  # atno 17342 bound_to 10162
  140.7698  143.5480  150.9237 LP  0  0  0  0  0  0  0  0  0  0  0  0  # atno 17343 bound_to 10162
  156.4825  130.8047  151.3061 LP  0  0  0  0  0  0  0  0  0  0  0  0  # atno 17370 bound_to 10713
  157.7469  131.0001  150.2914 LP  0  0  0  0  0  0  0  0  0  0  0  0  # atno 17371 bound_to 10713
  140.7995  134.3525  157.5443 LP  0  0  0  0  0  0  0  0  0  0  0  0  # atno 17394 bound_to 11000
  139.8774  134.9189  156.3214 LP  0  0  0  0  0  0  0  0  0  0  0  0  # atno 17395 bound_to 11000

$$$$
