AV-unprocessed.smi:249|AV-procd|sdf|1921|dock2
  -GOLD-   2262021 23D 1   1.00000     0.00000
 Structure written by MMmdl.
 64 67  0  0  0  0  0  0  0  0  2 V2000
  147.2824  133.2279  150.8525 C   0  0  0  0  0  0  0  0  0  0  0  0
  146.7086  132.7864  152.2092 C   0  0  0  0  0  0  0  0  0  0  0  0
  147.5050  133.2608  153.3787 N   0  3  1  0  0  0  0  0  0  0  0  0
  148.9515  132.9214  153.2372 C   0  0  0  0  0  0  0  0  0  0  0  0
  149.7625  133.3008  154.4840 C   0  0  0  0  0  0  0  0  0  0  0  0
  149.6089  134.7960  154.7828 C   0  0  2  0  0  0  0  0  0  0  0  0
  150.4013  135.2167  155.9415 N   0  0  0  0  0  0  0  0  0  0  0  0
  151.1427  134.2485  156.7464 C   0  0  0  0  0  0  0  0  0  0  0  0
  150.6899  136.5347  156.0966 C   0  0  0  0  0  0  0  0  0  0  0  0
  150.8934  137.2953  154.9886 N   0  0  0  0  0  0  0  0  0  0  0  0
  151.1681  138.5978  155.1026 C   0  0  0  0  0  0  0  0  0  0  0  0
  151.2930  139.3299  156.2107 N   0  0  0  0  0  0  0  0  0  0  0  0
  151.1098  138.5703  157.3280 C   0  0  0  0  0  0  0  0  0  0  0  0
  150.8048  137.1795  157.3627 C   0  0  0  0  0  0  0  0  0  0  0  0
  150.6997  136.7547  158.6830 N   0  0  0  0  0  0  0  0  0  0  0  0
  150.9152  137.8326  159.3858 C   0  0  0  0  0  0  0  0  0  0  0  0
  151.1888  138.9647  158.6524 N   0  0  0  0  0  0  0  0  0  0  0  0
  151.4620  140.2913  159.1760 C   0  0  0  0  0  0  0  0  0  0  0  0
  151.5966  141.4005  158.0995 C   0  0  1  0  0  0  0  0  0  0  0  0
  150.2141  141.6505  157.4534 C   0  0  0  0  0  0  0  0  0  0  0  0
  150.3366  142.1890  156.1524 O   0  0  0  0  0  0  0  0  0  0  0  0
  152.2633  142.7136  158.6054 C   0  0  2  0  0  0  0  0  0  0  0  0
  151.4869  143.4408  159.6926 C   0  0  0  0  0  0  0  0  0  0  0  0
  152.0981  144.8331  159.6466 C   0  0  0  0  0  0  0  0  0  0  0  0
  152.3129  145.0772  158.2654 O   0  0  0  0  0  0  0  0  0  0  0  0
  152.4052  143.8389  157.5667 C   0  0  0  0  0  0  0  0  0  0  0  0
  148.1189  135.1226  154.9448 C   0  0  0  0  0  0  0  0  0  0  0  0
  147.3066  134.7143  153.6964 C   0  0  2  0  0  0  0  0  0  0  0  0
  145.8284  135.0916  153.9276 C   0  0  0  0  0  0  0  0  0  0  0  0
  146.7608  132.7230  150.0390 H   0  0  0  0  0  0  0  0  0  0  0  0
  148.3403  132.9776  150.7688 H   0  0  0  0  0  0  0  0  0  0  0  0
  147.1686  134.2976  150.6800 H   0  0  0  0  0  0  0  0  0  0  0  0
  145.6724  133.1128  152.3081 H   0  0  0  0  0  0  0  0  0  0  0  0
  146.6901  131.6994  152.1798 H   0  0  0  0  0  0  0  0  0  0  0  0
  149.0831  131.8531  153.0754 H   0  0  0  0  0  0  0  0  0  0  0  0
  149.3587  133.4256  152.3592 H   0  0  0  0  0  0  0  0  0  0  0  0
  149.4262  132.7012  155.3308 H   0  0  0  0  0  0  0  0  0  0  0  0
  150.8140  133.0575  154.3270 H   0  0  0  0  0  0  0  0  0  0  0  0
  149.9683  135.3179  153.8967 H   0  0  0  0  0  0  0  0  0  0  0  0
  151.2129  134.5809  157.7828 H   0  0  0  0  0  0  0  0  0  0  0  0
  152.1528  134.1212  156.3562 H   0  0  0  0  0  0  0  0  0  0  0  0
  150.6559  133.2741  156.7451 H   0  0  0  0  0  0  0  0  0  0  0  0
  151.3085  139.1292  154.1729 H   0  0  0  0  0  0  0  0  0  0  0  0
  150.8957  137.8279  160.4661 H   0  0  0  0  0  0  0  0  0  0  0  0
  150.6522  140.5376  159.8638 H   0  0  0  0  0  0  0  0  0  0  0  0
  152.3695  140.2429  159.7792 H   0  0  0  0  0  0  0  0  0  0  0  0
  152.2268  141.0074  157.3013 H   0  0  0  0  0  0  0  0  0  0  0  0
  149.6309  140.7314  157.4012 H   0  0  0  0  0  0  0  0  0  0  0  0
  149.6310  142.3426  158.0619 H   0  0  0  0  0  0  0  0  0  0  0  0
  149.8800  143.0161  156.1244 H   0  0  0  0  0  0  0  0  0  0  0  0
  153.2545  142.4838  159.0004 H   0  0  0  0  0  0  0  0  0  0  0  0
  150.4266  143.4904  159.4394 H   0  0  0  0  0  0  0  0  0  0  0  0
  151.5846  142.9786  160.6753 H   0  0  0  0  0  0  0  0  0  0  0  0
  151.4566  145.5925  160.0944 H   0  0  0  0  0  0  0  0  0  0  0  0
  153.0586  144.8464  160.1635 H   0  0  0  0  0  0  0  0  0  0  0  0
  153.3520  143.7858  157.0311 H   0  0  0  0  0  0  0  0  0  0  0  0
  151.5987  143.8070  156.8335 H   0  0  0  0  0  0  0  0  0  0  0  0
  147.7124  134.6177  155.8218 H   0  0  0  0  0  0  0  0  0  0  0  0
  148.0050  136.1923  155.1257 H   0  0  0  0  0  0  0  0  0  0  0  0
  147.6740  135.2956  152.8489 H   0  0  0  0  0  0  0  0  0  0  0  0
  145.7422  136.1072  154.3153 H   0  0  0  0  0  0  0  0  0  0  0  0
  145.3549  134.4252  154.6492 H   0  0  0  0  0  0  0  0  0  0  0  0
  145.2451  135.0727  153.0078 H   0  0  0  0  0  0  0  0  0  0  0  0
  147.1652  132.7495  154.1808 H   0  0  0  0  0  0  0  0  0  0  0  0
  1  2  1  0  0  0  0
  1 30  1  0  0  0  0
  1 31  1  0  0  0  0
  1 32  1  0  0  0  0
  2  3  1  0  0  0  0
  2 33  1  0  0  0  0
  2 34  1  0  0  0  0
  3 28  1  0  0  0  0
  3  4  1  0  0  0  0
  3 64  1  0  0  0  0
  4  5  1  0  0  0  0
  4 35  1  0  0  0  0
  4 36  1  0  0  0  0
  5  6  1  0  0  0  0
  5 37  1  0  0  0  0
  5 38  1  0  0  0  0
  6  7  1  0  0  0  0
  6 27  1  0  0  0  0
  6 39  1  0  0  0  0
  7  8  1  0  0  0  0
  7  9  1  0  0  0  0
  8 40  1  0  0  0  0
  8 41  1  0  0  0  0
  8 42  1  0  0  0  0
  9 14  1  0  0  0  0
  9 10  2  0  0  0  0
 10 11  1  0  0  0  0
 11 12  2  0  0  0  0
 11 43  1  0  0  0  0
 12 13  1  0  0  0  0
 13 17  1  0  0  0  0
 13 14  2  0  0  0  0
 14 15  1  0  0  0  0
 15 16  2  0  0  0  0
 16 17  1  0  0  0  0
 16 44  1  0  0  0  0
 17 18  1  0  0  0  0
 18 19  1  0  0  0  0
 18 45  1  0  0  0  0
 18 46  1  0  0  0  0
 19 20  1  0  0  0  0
 19 22  1  0  0  0  0
 19 47  1  0  0  0  0
 20 21  1  0  0  0  0
 20 48  1  0  0  0  0
 20 49  1  0  0  0  0
 21 50  1  0  0  0  0
 22 26  1  0  0  0  0
 22 23  1  0  0  0  0
 22 51  1  0  0  0  0
 23 24  1  0  0  0  0
 23 52  1  0  0  0  0
 23 53  1  0  0  0  0
 24 25  1  0  0  0  0
 24 54  1  0  0  0  0
 24 55  1  0  0  0  0
 25 26  1  0  0  0  0
 26 56  1  0  0  0  0
 26 57  1  0  0  0  0
 27 28  1  0  0  0  0
 27 58  1  0  0  0  0
 27 59  1  0  0  0  0
 28 29  1  0  0  0  0
 28 60  1  0  0  0  0
 29 61  1  0  0  0  0
 29 62  1  0  0  0  0
 29 63  1  0  0  0  0
M  CHG  1   3   1
M  END
> <s_m_source_file>
AV-unprocessed.smi

> <i_m_source_file_index>
249

> <i_lp_mmshare_version>
43012

> <i_f3d_flags>
0

> <s_epik_input>
W0NIM11bQ0gyXU4xW0NIMl1bQ0gyXVtDQEhdKFtDSDJdW0NASF0xW0NIM10pTihbQ0gzXSljKG5bY0hdbjIpYyhjMjMpbltjSF1uM1tDSDJdW0NASF0oW0NIMl1bT0hdKVtDQEBIXTRbQ0gyXVtDSDJdT1tDSDJdNA==

> <s_epik_cmdline>
J2VwaWtfcHl0aG9uJywgJy1waCcsICc3LjAnLCAnLXRuJywgJzgnLCAnLW1hJywgJzIwMCcsICctbWV0YWxfYmluZGluZycsICctaW1hZScsICc8aW5maWxlLm1hZT4nLCAnLW9tYWUnLCAnPG91dGZpbGUubWFlPic=

> <r_lp_tautomer_probability>
1

> <r_epik_Ionization_Penalty>
0.00294688

> <r_epik_Ionization_Penalty_Charging>
0.00169971

> <r_epik_Ionization_Penalty_Neutral>
0.00124717

> <r_epik_State_Penalty>
-0

> <r_epik_Charging_Adjusted_Penalty>
0.00169971

> <i_epik_Tot_Q>
1

> <i_epik_Tot_abs_Q>
1

> <r_epik_Metal_State_Penalty>
-0

> <b_epik_Metal_Only>
0

> <s_lp_Force_Field>
OPLS_2005

> <r_lp_Energy>
53.8216

> <b_lp_Chiralities_Consistent>
1

> <s_lp_Variant>
AV-unprocessed.smi:249-24

> <Gold.Version>
5.8.1

> <Gold.Id.Protein>
6NUR|6NUR_protein|mol2

> <Gold.PLP.Fitness>
48.3161

> <Gold.PLP.PLP>
-44.9463

> <Gold.PLP.part.hbond>
-2.0000

> <Gold.PLP.part.metal>
0.0000

> <Gold.PLP.part.buried>
-7.4533

> <Gold.PLP.part.nonpolar>
-35.9955

> <Gold.PLP.part.repulsive>
0.2065

> <Gold.PLP.ligand.clash>
0.0000

> <Gold.PLP.ligand.torsion>
1.2878

> <Gold.PLP.Chemscore.Hbond>
1.8268

> <Gold.PLP.Chemscore.CHOScore>
0.0000

> <Gold.PLP.Chemscore.Metal>
0.0000

> <Gold.Chemscore.Hbonds>
donor molecule, donor type, donor heavy atom, donor atom, acceptor molecule, acceptor atom, score
      L1  H    21    50       P1  8028  1.00
      P1  H  6896  6908       L1    15  0.88

> <Gold.PLP.Chemscore.Internal.Correction>
0.4649

> <Gold.Rescore>
     Score         DG    S(hbond)    S(metal)    S(lipo)     H(rot)  DE(clash)    DE(int)     intcor
     11.82     -17.55       1.82        0.00     109.31       2.65       1.63       4.11       ----

> <Gold.Chemscore.Fitness>
11.8155

> <Gold.Chemscore.DG>
-17.5482

> <Gold.Chemscore.ZeroCoef>
-5.4800

> <Gold.Chemscore.Hbond>
1.8164

> <Gold.Chemscore.Metal>
0.0000

> <Gold.Chemscore.Lipo>
109.3104

> <Gold.Chemscore.Internal_Hbond>
0.0000

> <Gold.Chemscore.DEClash>
1.6261

> <Gold.Chemscore.DEInternal>
4.1066

> <Gold.Chemscore.Rot>
2.6515

> <Gold.Chemscore.Internal.Correction>
   9.000000E+99

> <Gold.Chemscore.Hbonds>
donor molecule, donor type, donor heavy atom, donor atom, acceptor molecule, acceptor atom, score
      L1  H    21    50       P1  8028  0.93
      P1  H  6896  6908       L1    15  0.67

> <Gold.Chemscore.Hbond.Weighted>
-6.0668

> <Gold.Chemscore.Metal.Weighted>
-0.0000

> <Gold.Chemscore.Lipo.Weighted>
-12.7893

> <Gold.Chemscore.Internal_Hbond.Weighted>
0.0000

> <Gold.Chemscore.DEClash.Weighted>
1.6261

> <Gold.Chemscore.DEInternal.Weighted>
4.1066

> <Gold.Chemscore.Rot.Weighted>
6.7880

> <Gold.Chemscore.Internal.Correction.Weighted>
   9.000000E+99

> <Gold.Protein.RotatedTorsions>
[ 6907 6896 6895 6894 ] final -154.08 input  -60.11 | X-H torsion
[ 7974 7965 7964 7962 ] final   -2.85 input  175.53 | X-H torsion
[ 8008 7997 7996 7995 ] final   26.21 input   59.86 | X-H torsion
[ 10167 10162 10161 10158 ] final   67.28 input  -65.29 | X-H torsion
[ 10718 10713 10712 10709 ] final  -37.04 input   66.30 | X-H torsion
[ 10763 10752 10751 10750 ] final -116.42 input  -60.55 | X-H torsion
[ 11005 11000 10999 10996 ] final  -48.52 input  -57.11 | X-H torsion

> <Gold.Protein.ActiveResidues>
 VAL166  LYS551  ARG553  GLY616  TRP617  ASP618  TYR619  PRO620  LYS621  CYS622 
 ASP623  PHE694  ASN695  SER759  ASP760  ASP761  ALA762  ILE779  LEU786  VAL792 
 PHE793  MET794  SER795  GLU796  ALA797  LYS798  CYS799  TRP800  GLU811  SER814 

> <Gold.Protein.RotatedAtoms>
  151.2521  133.4345  159.2611 H   0  0  0  0  0  0  0  0  0  0  0  0  # atno 6907 bound_to 6896
  151.0608  134.9735  159.8269 H   0  0  0  0  0  0  0  0  0  0  0  0  # atno 6908 bound_to 6896
  152.5398  134.2471  159.8937 H   0  0  0  0  0  0  0  0  0  0  0  0  # atno 6909 bound_to 6896
  146.2398  140.1633  142.8332 H   0  0  0  0  0  0  0  0  0  0  0  0  # atno 7974 bound_to 7965
  155.0237  140.3150  155.4784 H   0  0  0  0  0  0  0  0  0  0  0  0  # atno 8008 bound_to 7997
  156.2887  140.2193  156.5298 H   0  0  0  0  0  0  0  0  0  0  0  0  # atno 8009 bound_to 7997
  154.7430  140.0472  157.0815 H   0  0  0  0  0  0  0  0  0  0  0  0  # atno 8010 bound_to 7997
  140.0912  144.4986  150.7097 H   0  0  0  0  0  0  0  0  0  0  0  0  # atno 10167 bound_to 10162
  156.3198  130.4264  149.7971 H   0  0  0  0  0  0  0  0  0  0  0  0  # atno 10718 bound_to 10713
  154.8519  135.4346  154.1819 H   0  0  0  0  0  0  0  0  0  0  0  0  # atno 10763 bound_to 10752
  153.2908  135.6961  153.7301 H   0  0  0  0  0  0  0  0  0  0  0  0  # atno 10764 bound_to 10752
  153.6469  135.3458  155.3063 H   0  0  0  0  0  0  0  0  0  0  0  0  # atno 10765 bound_to 10752
  141.0705  133.6680  156.3453 H   0  0  0  0  0  0  0  0  0  0  0  0  # atno 11005 bound_to 11000
  145.0071  140.8682  143.5246 LP  0  0  0  0  0  0  0  0  0  0  0  0  # atno 17320 bound_to 7965
  145.1661  139.2430  143.5366 LP  0  0  0  0  0  0  0  0  0  0  0  0  # atno 17321 bound_to 7965
  140.7027  143.2446  151.4816 LP  0  0  0  0  0  0  0  0  0  0  0  0  # atno 17342 bound_to 10162
  139.5723  144.1899  152.1854 LP  0  0  0  0  0  0  0  0  0  0  0  0  # atno 17343 bound_to 10162
  156.5283  130.8246  151.3228 LP  0  0  0  0  0  0  0  0  0  0  0  0  # atno 17370 bound_to 10713
  157.7409  130.9860  150.2411 LP  0  0  0  0  0  0  0  0  0  0  0  0  # atno 17371 bound_to 10713
  140.5682  134.5866  157.5451 LP  0  0  0  0  0  0  0  0  0  0  0  0  # atno 17394 bound_to 11000
  139.9519  134.7602  156.0429 LP  0  0  0  0  0  0  0  0  0  0  0  0  # atno 17395 bound_to 11000

$$$$
