AV-unprocessed.smi:1405|AV-procd|sdf|5708|dock5
  -GOLD-   22720 5343D 1   1.00000     0.00000
 Structure written by MMmdl.
 48 51  0  0  0  0  0  0  0  0  2 V2000
  151.8321  139.4020  154.8952 O   0  0  0  0  0  0  0  0  0  0  0  0
  150.9950  139.1013  155.7458 C   0  0  0  0  0  0  0  0  0  0  0  0
  150.8020  137.6198  156.1153 C   0  0  0  0  0  0  0  0  0  0  0  0
  150.1705  137.3862  157.4274 N   0  0  0  0  0  0  0  0  0  0  0  0
  148.7908  137.6351  157.5347 C   0  0  0  0  0  0  0  0  0  0  0  0
  148.1259  137.4667  158.6935 C   0  0  0  0  0  0  0  0  0  0  0  0
  148.8742  137.0126  159.8588 C   0  0  0  0  0  0  0  0  0  0  0  0
  148.2838  136.8542  160.9254 O   0  0  0  0  0  0  0  0  0  0  0  0
  150.2115  136.7852  159.7047 N   0  5  0  0  0  0  0  0  0  0  0  0
  150.8751  136.9628  158.5203 C   0  0  0  0  0  0  0  0  0  0  0  0
  152.0845  136.7631  158.4063 O   0  0  0  0  0  0  0  0  0  0  0  0
  150.2254  140.0129  156.3616 N   0  0  0  0  0  0  0  0  0  0  0  0
  150.2580  141.4477  156.1201 C   0  0  0  0  0  0  0  0  0  0  0  0
  149.6938  142.1983  157.3408 C   0  0  0  0  0  0  0  0  0  0  0  0
  150.7259  142.9285  158.2375 C   0  0  0  0  0  0  0  0  0  0  0  0
  151.7399  143.7419  157.3878 C   0  0  0  0  0  0  0  0  0  0  0  0
  152.7197  144.5068  158.3038 C   0  0  2  0  0  0  0  0  0  0  0  0
  153.4930  143.5022  159.1838 C   0  0  0  0  0  0  0  0  0  0  0  0
  152.4927  142.7113  160.0540 C   0  0  1  0  0  0  0  0  0  0  0  0
  151.7078  143.6859  160.9557 C   0  0  0  0  0  0  0  0  0  0  0  0
  150.9403  144.6876  160.0694 C   0  0  1  0  0  0  0  0  0  0  0  0
  151.9355  145.4849  159.2021 C   0  0  0  0  0  0  0  0  0  0  0  0
  149.9616  143.9206  159.1557 C   0  0  0  0  0  0  0  0  0  0  0  0
  151.5119  141.9412  159.1425 C   0  0  0  0  0  0  0  0  0  0  0  0
  150.2066  137.1510  155.3308 H   0  0  0  0  0  0  0  0  0  0  0  0
  151.7719  137.1220  156.0652 H   0  0  0  0  0  0  0  0  0  0  0  0
  148.3137  137.9749  156.6271 H   0  0  0  0  0  0  0  0  0  0  0  0
  147.0663  137.6658  158.7594 H   0  0  0  0  0  0  0  0  0  0  0  0
  149.5679  139.6801  157.0527 H   0  0  0  0  0  0  0  0  0  0  0  0
  151.2829  141.7631  155.9212 H   0  0  0  0  0  0  0  0  0  0  0  0
  149.6721  141.6524  155.2246 H   0  0  0  0  0  0  0  0  0  0  0  0
  148.9573  142.9248  156.9937 H   0  0  0  0  0  0  0  0  0  0  0  0
  149.1367  141.4846  157.9500 H   0  0  0  0  0  0  0  0  0  0  0  0
  152.3096  143.0851  156.7304 H   0  0  0  0  0  0  0  0  0  0  0  0
  151.2139  144.4430  156.7385 H   0  0  0  0  0  0  0  0  0  0  0  0
  153.4248  145.0675  157.6895 H   0  0  0  0  0  0  0  0  0  0  0  0
  154.0724  142.8209  158.5593 H   0  0  0  0  0  0  0  0  0  0  0  0
  154.2108  144.0277  159.8149 H   0  0  0  0  0  0  0  0  0  0  0  0
  153.0384  142.0029  160.6778 H   0  0  0  0  0  0  0  0  0  0  0  0
  151.0146  143.1363  161.5937 H   0  0  0  0  0  0  0  0  0  0  0  0
  152.3879  144.2156  161.6239 H   0  0  0  0  0  0  0  0  0  0  0  0
  150.3803  145.3761  160.7029 H   0  0  0  0  0  0  0  0  0  0  0  0
  152.6209  146.0500  159.8351 H   0  0  0  0  0  0  0  0  0  0  0  0
  151.4046  146.2166  158.5919 H   0  0  0  0  0  0  0  0  0  0  0  0
  149.3892  144.6283  158.5545 H   0  0  0  0  0  0  0  0  0  0  0  0
  149.2338  143.3853  159.7675 H   0  0  0  0  0  0  0  0  0  0  0  0
  150.8229  141.3517  159.7492 H   0  0  0  0  0  0  0  0  0  0  0  0
  152.0756  141.2289  158.5398 H   0  0  0  0  0  0  0  0  0  0  0  0
  1  2  2  0  0  0  0
  2  3  1  0  0  0  0
  2 12  1  0  0  0  0
  3  4  1  0  0  0  0
  3 25  1  0  0  0  0
  3 26  1  0  0  0  0
  4 10  1  0  0  0  0
  4  5  1  0  0  0  0
  5  6  2  0  0  0  0
  5 27  1  0  0  0  0
  6  7  1  0  0  0  0
  6 28  1  0  0  0  0
  7  8  2  0  0  0  0
  7  9  1  0  0  0  0
  9 10  1  0  0  0  0
 10 11  2  0  0  0  0
 12 13  1  0  0  0  0
 12 29  1  0  0  0  0
 13 14  1  0  0  0  0
 13 30  1  0  0  0  0
 13 31  1  0  0  0  0
 14 15  1  0  0  0  0
 14 32  1  0  0  0  0
 14 33  1  0  0  0  0
 15 23  1  0  0  0  0
 15 24  1  0  0  0  0
 15 16  1  0  0  0  0
 16 17  1  0  0  0  0
 16 34  1  0  0  0  0
 16 35  1  0  0  0  0
 17 22  1  0  0  0  0
 17 18  1  0  0  0  0
 17 36  1  0  0  0  0
 18 19  1  0  0  0  0
 18 37  1  0  0  0  0
 18 38  1  0  0  0  0
 19 20  1  0  0  0  0
 19 24  1  0  0  0  0
 19 39  1  0  0  0  0
 20 21  1  0  0  0  0
 20 40  1  0  0  0  0
 20 41  1  0  0  0  0
 21 22  1  0  0  0  0
 21 23  1  0  0  0  0
 21 42  1  0  0  0  0
 22 43  1  0  0  0  0
 22 44  1  0  0  0  0
 23 45  1  0  0  0  0
 23 46  1  0  0  0  0
 24 47  1  0  0  0  0
 24 48  1  0  0  0  0
M  CHG  1   9  -1
M  END
> <s_m_source_file>
AV-unprocessed.smi

> <i_m_source_file_index>
1405

> <i_lp_mmshare_version>
43012

> <i_f3d_flags>
0

> <s_epik_input>
Tz1jMVtuSF1jKD1PKVtjSF1bY0hdbjFbQ0gyXUMoPU8pW05IXVtDSDJdW0NIMl1DMjNbQ0gyXVtDQEBIXTRbQ0gyXVtDQEhdKFtDSDJdMylbQ0gyXVtDQEBIXShbQ0gyXTQpW0NIMl0y

> <s_epik_cmdline>
J2VwaWtfcHl0aG9uJywgJy1waCcsICc3LjAnLCAnLXRuJywgJzgnLCAnLW1hJywgJzIwMCcsICctbWV0YWxfYmluZGluZycsICctaW1hZScsICc8aW5maWxlLm1hZT4nLCAnLW9tYWUnLCAnPG91dGZpbGUubWFlPic=

> <r_lp_tautomer_probability>
0.999537

> <r_epik_Ionization_Penalty>
3.12935

> <r_epik_Ionization_Penalty_Charging>
2.8866e-08

> <r_epik_Ionization_Penalty_Neutral>
3.12935

> <r_epik_State_Penalty>
3.12845

> <r_epik_Charging_Adjusted_Penalty>
3.12845

> <i_epik_Tot_Q>
-1

> <i_epik_Tot_abs_Q>
1

> <r_epik_Metal_State_Penalty>
0.464346

> <b_epik_Metal_Only>
1

> <s_lp_Force_Field>
OPLS_2005

> <r_lp_Energy>
42.9683

> <b_lp_Chiralities_Consistent>
1

> <s_lp_Variant>
AV-unprocessed.smi:1405-2

> <Gold.Version>
5.8.1

> <Gold.Id.Protein>
6NUR|6NUR_protein|mol2

> <Gold.PLP.Fitness>
54.8043

> <Gold.PLP.PLP>
-45.0418

> <Gold.PLP.part.hbond>
-3.0000

> <Gold.PLP.part.metal>
0.0000

> <Gold.PLP.part.buried>
-5.9603

> <Gold.PLP.part.nonpolar>
-37.1525

> <Gold.PLP.part.repulsive>
0.1099

> <Gold.PLP.ligand.clash>
0.0000

> <Gold.PLP.ligand.torsion>
1.1376

> <Gold.PLP.Chemscore.Hbond>
3.9920

> <Gold.PLP.Chemscore.CHOScore>
0.0000

> <Gold.PLP.Chemscore.Metal>
0.0000

> <Gold.Chemscore.Hbonds>
donor molecule, donor type, donor heavy atom, donor atom, acceptor molecule, acceptor atom, score
      P1  H  6896  6907       L1     9  0.80
      P1  H  6931  6943       L1     8  0.95
      P1  H  6934  6947       L1     8  0.01
      P1  H  7989  7998       L1     1  1.00

> <Gold.PLP.Chemscore.Internal.Correction>
0.0616

> <Gold.Rescore>
     Score         DG    S(hbond)    S(metal)    S(lipo)     H(rot)  DE(clash)    DE(int)     intcor
     19.73     -21.13       1.87        0.00     126.76       2.12       0.17       1.24       ----

> <Gold.Chemscore.Fitness>
19.7262

> <Gold.Chemscore.DG>
-21.1301

> <Gold.Chemscore.ZeroCoef>
-5.4800

> <Gold.Chemscore.Hbond>
1.8713

> <Gold.Chemscore.Metal>
0.0000

> <Gold.Chemscore.Lipo>
126.7635

> <Gold.Chemscore.Internal_Hbond>
0.0000

> <Gold.Chemscore.DEClash>
0.1671

> <Gold.Chemscore.DEInternal>
1.2368

> <Gold.Chemscore.Rot>
2.1216

> <Gold.Chemscore.Internal.Correction>
   9.000000E+99

> <Gold.Chemscore.Hbonds>
donor molecule, donor type, donor heavy atom, donor atom, acceptor molecule, acceptor atom, score
      P1  H  6896  6907       L1     9  0.01
      P1  H  6931  6943       L1     8  0.21
      P1  H  6934  6947       L1     8  0.01
      P1  H  7989  7998       L1     1  0.89

> <Gold.Chemscore.Hbond.Weighted>
-6.2502

> <Gold.Chemscore.Metal.Weighted>
-0.0000

> <Gold.Chemscore.Lipo.Weighted>
-14.8313

> <Gold.Chemscore.Internal_Hbond.Weighted>
0.0000

> <Gold.Chemscore.DEClash.Weighted>
0.1671

> <Gold.Chemscore.DEInternal.Weighted>
1.2368

> <Gold.Chemscore.Rot.Weighted>
5.4314

> <Gold.Chemscore.Internal.Correction.Weighted>
   9.000000E+99

> <Gold.Protein.RotatedTorsions>
[ 6907 6896 6895 6894 ] final  -41.12 input  -60.11 | X-H torsion
[ 7974 7965 7964 7962 ] final  121.12 input  175.53 | X-H torsion
[ 8008 7997 7996 7995 ] final   90.17 input   59.86 | X-H torsion
[ 10167 10162 10161 10158 ] final  -66.79 input  -65.29 | X-H torsion
[ 10718 10713 10712 10709 ] final    3.43 input   66.30 | X-H torsion
[ 10763 10752 10751 10750 ] final -114.09 input  -60.55 | X-H torsion
[ 11005 11000 10999 10996 ] final   97.01 input  -57.11 | X-H torsion

> <Gold.Protein.ActiveResidues>
 VAL166  LYS551  ARG553  GLY616  TRP617  ASP618  TYR619  PRO620  LYS621  CYS622 
 ASP623  PHE694  ASN695  SER759  ASP760  ASP761  ALA762  ILE779  LEU786  VAL792 
 PHE793  MET794  SER795  GLU796  ALA797  LYS798  CYS799  TRP800  GLU811  SER814 

> <Gold.Protein.RotatedAtoms>
  150.9704  134.9078  159.7784 H   0  0  0  0  0  0  0  0  0  0  0  0  # atno 6907 bound_to 6896
  152.5188  134.3548  159.9274 H   0  0  0  0  0  0  0  0  0  0  0  0  # atno 6908 bound_to 6896
  151.3557  133.3867  159.2719 H   0  0  0  0  0  0  0  0  0  0  0  0  # atno 6909 bound_to 6896
  145.1231  139.3376  143.4704 H   0  0  0  0  0  0  0  0  0  0  0  0  # atno 7974 bound_to 7965
  156.0088  140.3352  155.6919 H   0  0  0  0  0  0  0  0  0  0  0  0  # atno 8008 bound_to 7997
  155.6187  140.0673  157.2702 H   0  0  0  0  0  0  0  0  0  0  0  0  # atno 8009 bound_to 7997
  154.4274  140.1780  156.1337 H   0  0  0  0  0  0  0  0  0  0  0  0  # atno 8010 bound_to 7997
  140.5631  143.2313  151.6689 H   0  0  0  0  0  0  0  0  0  0  0  0  # atno 10167 bound_to 10162
  156.8777  130.5642  149.5654 H   0  0  0  0  0  0  0  0  0  0  0  0  # atno 10718 bound_to 10713
  154.8425  135.4430  154.1451 H   0  0  0  0  0  0  0  0  0  0  0  0  # atno 10763 bound_to 10752
  153.2626  135.6937  153.7568 H   0  0  0  0  0  0  0  0  0  0  0  0  # atno 10764 bound_to 10752
  153.6839  135.3398  155.3160 H   0  0  0  0  0  0  0  0  0  0  0  0  # atno 10765 bound_to 10752
  139.8778  134.8979  156.4243 H   0  0  0  0  0  0  0  0  0  0  0  0  # atno 11005 bound_to 11000
  146.3519  140.1198  142.8600 LP  0  0  0  0  0  0  0  0  0  0  0  0  # atno 17320 bound_to 7965
  145.0718  140.9161  143.4877 LP  0  0  0  0  0  0  0  0  0  0  0  0  # atno 17321 bound_to 7965
  139.5079  144.3628  152.0545 LP  0  0  0  0  0  0  0  0  0  0  0  0  # atno 17342 bound_to 10162
  140.2757  144.3915  150.6136 LP  0  0  0  0  0  0  0  0  0  0  0  0  # atno 17343 bound_to 10162
  156.0693  130.5729  150.9352 LP  0  0  0  0  0  0  0  0  0  0  0  0  # atno 17370 bound_to 10713
  157.6158  131.0933  150.8712 LP  0  0  0  0  0  0  0  0  0  0  0  0  # atno 17371 bound_to 10713
  140.9112  133.7710  155.9793 LP  0  0  0  0  0  0  0  0  0  0  0  0  # atno 17394 bound_to 11000
  140.8544  134.2915  157.5261 LP  0  0  0  0  0  0  0  0  0  0  0  0  # atno 17395 bound_to 11000

$$$$
