AV-unprocessed.smi:2596|AV-procd|sdf|10169|dock10
  -GOLD-   2272014183D 1   1.00000     0.00000
 Structure written by MMmdl.
 32 33  0  0  0  0  0  0  0  0  1 V2000
  152.4974  140.0643  155.2592 O   0  0  0  0  0  0  0  0  0  0  0  0
  151.6340  139.6939  156.0539 C   0  0  0  0  0  0  0  0  0  0  0  0
  152.0188  139.3470  157.4958 C   0  0  0  0  0  0  0  0  0  0  0  0
  152.3186  140.5524  158.2855 N   0  0  0  0  0  0  0  0  0  0  0  0
  151.3670  141.5917  158.2546 C   0  0  0  0  0  0  0  0  0  0  0  0
  151.5397  142.7256  158.9508 C   0  0  0  0  0  0  0  0  0  0  0  0
  150.6166  143.7002  158.9116 F   0  0  0  0  0  0  0  0  0  0  0  0
  152.7339  142.8755  159.7462 C   0  0  0  0  0  0  0  0  0  0  0  0
  153.6486  141.8861  159.7826 C   0  0  0  0  0  0  0  0  0  0  0  0
  153.4675  140.6407  159.0264 C   0  0  0  0  0  0  0  0  0  0  0  0
  154.2982  139.7327  159.0585 O   0  0  0  0  0  0  0  0  0  0  0  0
  150.3399  139.5467  155.7295 N   0  0  0  0  0  0  0  0  0  0  0  0
  149.7787  139.7286  154.3967 C   0  0  0  0  0  0  0  0  0  0  0  0
  148.3629  140.2916  154.4825 C   0  0  0  0  0  0  0  0  0  0  0  0
  147.5091  140.4321  153.2120 C   0  0  0  0  0  0  0  0  0  0  0  0
  146.9023  141.7005  153.8173 C   0  0  0  0  0  0  0  0  0  0  0  0
  148.1542  141.7985  154.6936 C   0  0  0  0  0  0  0  0  0  0  0  0
  151.2123  138.7761  157.9601 H   0  0  0  0  0  0  0  0  0  0  0  0
  152.8738  138.6692  157.4793 H   0  0  0  0  0  0  0  0  0  0  0  0
  150.4969  141.4040  157.6421 H   0  0  0  0  0  0  0  0  0  0  0  0
  152.8949  143.7809  160.3128 H   0  0  0  0  0  0  0  0  0  0  0  0
  154.5383  142.0108  160.3822 H   0  0  0  0  0  0  0  0  0  0  0  0
  149.7031  139.2419  156.4513 H   0  0  0  0  0  0  0  0  0  0  0  0
  150.4238  140.4176  153.8514 H   0  0  0  0  0  0  0  0  0  0  0  0
  149.7934  138.7926  153.8358 H   0  0  0  0  0  0  0  0  0  0  0  0
  147.7809  139.7537  155.2341 H   0  0  0  0  0  0  0  0  0  0  0  0
  148.1051  140.6349  152.3206 H   0  0  0  0  0  0  0  0  0  0  0  0
  146.8032  139.6177  153.0456 H   0  0  0  0  0  0  0  0  0  0  0  0
  146.7688  142.5240  153.1153 H   0  0  0  0  0  0  0  0  0  0  0  0
  145.9960  141.5037  154.3922 H   0  0  0  0  0  0  0  0  0  0  0  0
  147.9679  142.0934  155.7267 H   0  0  0  0  0  0  0  0  0  0  0  0
  148.9393  142.4042  154.2379 H   0  0  0  0  0  0  0  0  0  0  0  0
  1  2  2  0  0  0  0
  2  3  1  0  0  0  0
  2 12  1  0  0  0  0
  3  4  1  0  0  0  0
  3 18  1  0  0  0  0
  3 19  1  0  0  0  0
  4 10  1  0  0  0  0
  4  5  1  0  0  0  0
  5  6  2  0  0  0  0
  5 20  1  0  0  0  0
  6  7  1  0  0  0  0
  6  8  1  0  0  0  0
  8  9  2  0  0  0  0
  8 21  1  0  0  0  0
  9 10  1  0  0  0  0
  9 22  1  0  0  0  0
 10 11  2  0  0  0  0
 12 13  1  0  0  0  0
 12 23  1  0  0  0  0
 13 14  1  0  0  0  0
 13 24  1  0  0  0  0
 13 25  1  0  0  0  0
 14 17  1  0  0  0  0
 14 15  1  0  0  0  0
 14 26  1  0  0  0  0
 15 16  1  0  0  0  0
 15 27  1  0  0  0  0
 15 28  1  0  0  0  0
 16 17  1  0  0  0  0
 16 29  1  0  0  0  0
 16 30  1  0  0  0  0
 17 31  1  0  0  0  0
 17 32  1  0  0  0  0
M  END
> <s_m_source_file>
AV-unprocessed.smi

> <i_m_source_file_index>
2596

> <i_lp_mmshare_version>
43012

> <i_f3d_flags>
0

> <s_epik_input>
W0NIMl0xW0NIMl1bQ0gyXVtDSF0xW0NIMl1bTkhdQyg9TylbQ0gyXW4yW2NIXWMoRilbY0hdW2NIXWMyPU8=

> <s_epik_cmdline>
J2VwaWtfcHl0aG9uJywgJy1waCcsICc3LjAnLCAnLXRuJywgJzgnLCAnLW1hJywgJzIwMCcsICctbWV0YWxfYmluZGluZycsICctaW1hZScsICc8aW5maWxlLm1hZT4nLCAnLW9tYWUnLCAnPG91dGZpbGUubWFlPic=

> <r_lp_tautomer_probability>
1

> <r_epik_Ionization_Penalty>
2.75493e-07

> <r_epik_Ionization_Penalty_Charging>
2.56191e-07

> <r_epik_Ionization_Penalty_Neutral>
1.93017e-08

> <r_epik_State_Penalty>
-0

> <r_epik_Charging_Adjusted_Penalty>
2.56191e-07

> <i_epik_Tot_Q>
0

> <i_epik_Tot_abs_Q>
0

> <r_epik_Metal_State_Penalty>
-0

> <b_epik_Metal_Only>
0

> <s_lp_Force_Field>
OPLS_2005

> <r_lp_Energy>
22.7993

> <b_lp_Chiralities_Consistent>
1

> <s_lp_Variant>
AV-unprocessed.smi:2596-1

> <Gold.Version>
5.8.1

> <Gold.Id.Protein>
6NUR|6NUR_protein|mol2

> <Gold.PLP.Fitness>
40.3678

> <Gold.PLP.PLP>
-34.3579

> <Gold.PLP.part.hbond>
-3.0000

> <Gold.PLP.part.metal>
0.0000

> <Gold.PLP.part.buried>
1.4230

> <Gold.PLP.part.nonpolar>
-30.9252

> <Gold.PLP.part.repulsive>
0.0659

> <Gold.PLP.ligand.clash>
0.0000

> <Gold.PLP.ligand.torsion>
0.5328

> <Gold.PLP.Chemscore.Hbond>
2.3378

> <Gold.PLP.Chemscore.CHOScore>
0.0000

> <Gold.PLP.Chemscore.Metal>
0.0000

> <Gold.Chemscore.Hbonds>
donor molecule, donor type, donor heavy atom, donor atom, acceptor molecule, acceptor atom, score
      P1  H  7989  7998       L1     1  0.49
      P1  H  7997  8008       L1     1  0.86
      P1  H  7997  8010       L1    11  0.98

> <Gold.PLP.Chemscore.Internal.Correction>
0.0623

> <Gold.Rescore>
     Score         DG    S(hbond)    S(metal)    S(lipo)     H(rot)  DE(clash)    DE(int)     intcor
     15.93     -16.80       1.97        0.00      77.96       1.71       0.25       0.62       ----

> <Gold.Chemscore.Fitness>
15.9295

> <Gold.Chemscore.DG>
-16.8008

> <Gold.Chemscore.ZeroCoef>
-5.4800

> <Gold.Chemscore.Hbond>
1.9675

> <Gold.Chemscore.Metal>
0.0000

> <Gold.Chemscore.Lipo>
77.9606

> <Gold.Chemscore.Internal_Hbond>
0.0000

> <Gold.Chemscore.DEClash>
0.2468

> <Gold.Chemscore.DEInternal>
0.6245

> <Gold.Chemscore.Rot>
1.7078

> <Gold.Chemscore.Internal.Correction>
   9.000000E+99

> <Gold.Chemscore.Hbonds>
donor molecule, donor type, donor heavy atom, donor atom, acceptor molecule, acceptor atom, score
      P1  H  7989  7998       L1     1  0.41
      P1  H  7997  8008       L1     1  0.81
      P1  H  7997  8010       L1    11  0.28

> <Gold.Chemscore.Hbond.Weighted>
-6.5714

> <Gold.Chemscore.Metal.Weighted>
-0.0000

> <Gold.Chemscore.Lipo.Weighted>
-9.1214

> <Gold.Chemscore.Internal_Hbond.Weighted>
0.0000

> <Gold.Chemscore.DEClash.Weighted>
0.2468

> <Gold.Chemscore.DEInternal.Weighted>
0.6245

> <Gold.Chemscore.Rot.Weighted>
4.3719

> <Gold.Chemscore.Internal.Correction.Weighted>
   9.000000E+99

> <Gold.Protein.RotatedTorsions>
[ 6907 6896 6895 6894 ] final    7.68 input  -60.11 | X-H torsion
[ 7974 7965 7964 7962 ] final -115.29 input  175.53 | X-H torsion
[ 8008 7997 7996 7995 ] final   -8.82 input   59.86 | X-H torsion
[ 10167 10162 10161 10158 ] final -159.23 input  -65.29 | X-H torsion
[ 10718 10713 10712 10709 ] final  124.66 input   66.30 | X-H torsion
[ 10763 10752 10751 10750 ] final  -78.20 input  -60.55 | X-H torsion
[ 11005 11000 10999 10996 ] final  124.40 input  -57.11 | X-H torsion

> <Gold.Protein.ActiveResidues>
 VAL166  LYS551  ARG553  GLY616  TRP617  ASP618  TYR619  PRO620  LYS621  CYS622 
 ASP623  PHE694  ASN695  SER759  ASP760  ASP761  ALA762  ILE779  LEU786  VAL792 
 PHE793  MET794  SER795  GLU796  ALA797  LYS798  CYS799  TRP800  GLU811  SER814 

> <Gold.Protein.RotatedAtoms>
  151.6938  135.0942  160.0238 H   0  0  0  0  0  0  0  0  0  0  0  0  # atno 6907 bound_to 6896
  152.3762  133.6481  159.6134 H   0  0  0  0  0  0  0  0  0  0  0  0  # atno 6908 bound_to 6896
  150.7711  133.9105  159.3409 H   0  0  0  0  0  0  0  0  0  0  0  0  # atno 6909 bound_to 6896
  145.1102  140.8606  143.3874 H   0  0  0  0  0  0  0  0  0  0  0  0  # atno 7974 bound_to 7965
  154.5705  140.2371  155.8199 H   0  0  0  0  0  0  0  0  0  0  0  0  # atno 8008 bound_to 7997
  156.2103  140.3028  155.9675 H   0  0  0  0  0  0  0  0  0  0  0  0  # atno 8009 bound_to 7997
  155.2721  140.0419  157.2998 H   0  0  0  0  0  0  0  0  0  0  0  0  # atno 8010 bound_to 7997
  139.6631  143.9877  152.2238 H   0  0  0  0  0  0  0  0  0  0  0  0  # atno 10167 bound_to 10162
  157.5567  131.1091  150.8610 H   0  0  0  0  0  0  0  0  0  0  0  0  # atno 10718 bound_to 10713
  154.5228  135.5738  153.6694 H   0  0  0  0  0  0  0  0  0  0  0  0  # atno 10763 bound_to 10752
  152.9921  135.6186  154.2732 H   0  0  0  0  0  0  0  0  0  0  0  0  # atno 10764 bound_to 10752
  154.2654  135.2855  155.2740 H   0  0  0  0  0  0  0  0  0  0  0  0  # atno 10765 bound_to 10752
  139.9357  134.9639  156.8404 H   0  0  0  0  0  0  0  0  0  0  0  0  # atno 11005 bound_to 11000
  145.0856  139.2927  143.5761 LP  0  0  0  0  0  0  0  0  0  0  0  0  # atno 17320 bound_to 7965
  146.3526  140.0376  142.8645 LP  0  0  0  0  0  0  0  0  0  0  0  0  # atno 17321 bound_to 7965
  139.9621  144.6550  150.8069 LP  0  0  0  0  0  0  0  0  0  0  0  0  # atno 17342 bound_to 10162
  140.7588  143.3115  151.2833 LP  0  0  0  0  0  0  0  0  0  0  0  0  # atno 17343 bound_to 10162
  156.9119  130.5284  149.5280 LP  0  0  0  0  0  0  0  0  0  0  0  0  # atno 17370 bound_to 10713
  156.0625  130.5674  150.9221 LP  0  0  0  0  0  0  0  0  0  0  0  0  # atno 17371 bound_to 10713
  140.6082  134.0107  155.7565 LP  0  0  0  0  0  0  0  0  0  0  0  0  # atno 17394 bound_to 11000
  141.0969  133.9829  157.3144 LP  0  0  0  0  0  0  0  0  0  0  0  0  # atno 17395 bound_to 11000

$$$$
