AV-unprocessed.smi:703|AV-procd|sdf|3430|dock5
  -GOLD-   22720 0413D 1   1.00000     0.00000
 Structure written by MMmdl.
 38 39  0  0  0  0  0  0  0  0  2 V2000
  144.5712  135.9489  151.9499 C   0  0  0  0  0  0  0  0  0  0  0  0
  145.3481  135.9940  153.2725 C   0  0  0  0  0  0  0  0  0  0  0  0
  146.5260  136.8898  153.1998 N   0  3  1  0  0  0  0  0  0  0  0  0
  146.2211  138.3100  152.9429 C   0  0  0  0  0  0  0  0  0  0  0  0
  147.5088  139.0567  153.2983 C   0  0  1  0  0  0  0  0  0  0  0  0
  147.2830  140.5210  153.6979 C   0  0  0  0  0  0  0  0  0  0  0  0
  148.1542  138.1989  154.4026 C   0  0  2  0  0  0  0  0  0  0  0  0
  149.5713  137.9662  154.1070 N   0  0  0  0  0  0  0  0  0  0  0  0
  150.5772  137.3410  155.3597 S   0  0  0  0  0  0  0  0  0  0  0  0
  149.7663  137.2718  156.5849 O   0  0  0  0  0  0  0  0  0  0  0  0
  151.2232  136.1275  154.8371 O   0  0  0  0  0  0  0  0  0  0  0  0
  151.8424  138.6655  155.5610 C   0  0  0  0  0  0  0  0  0  0  0  0
  151.1614  139.9990  155.6826 C   0  0  0  0  0  0  0  0  0  0  0  0
  151.2295  140.9331  156.7532 C   0  0  0  0  0  0  0  0  0  0  0  0
  150.4276  141.9558  156.3352 C   0  0  0  0  0  0  0  0  0  0  0  0
  149.9105  141.6841  155.1105 O   0  0  0  0  0  0  0  0  0  0  0  0
  150.3860  140.4330  154.7016 N   0  0  0  0  0  0  0  0  0  0  0  0
  147.3726  136.8746  154.4096 C   0  0  0  0  0  0  0  0  0  0  0  0
  143.7523  135.2317  152.0094 H   0  0  0  0  0  0  0  0  0  0  0  0
  145.2153  135.6471  151.1233 H   0  0  0  0  0  0  0  0  0  0  0  0
  144.1379  136.9183  151.7029 H   0  0  0  0  0  0  0  0  0  0  0  0
  144.6923  136.3002  154.0887 H   0  0  0  0  0  0  0  0  0  0  0  0
  145.6936  134.9868  153.5088 H   0  0  0  0  0  0  0  0  0  0  0  0
  145.9191  138.4827  151.9096 H   0  0  0  0  0  0  0  0  0  0  0  0
  145.4048  138.6300  153.5930 H   0  0  0  0  0  0  0  0  0  0  0  0
  148.1462  139.0395  152.4121 H   0  0  0  0  0  0  0  0  0  0  0  0
  146.6384  140.6008  154.5739 H   0  0  0  0  0  0  0  0  0  0  0  0
  146.8152  141.0805  152.8873 H   0  0  0  0  0  0  0  0  0  0  0  0
  148.2287  141.0090  153.9353 H   0  0  0  0  0  0  0  0  0  0  0  0
  148.0557  138.6779  155.3784 H   0  0  0  0  0  0  0  0  0  0  0  0
  149.6925  137.4413  153.2411 H   0  0  0  0  0  0  0  0  0  0  0  0
  152.4361  138.4468  156.4482 H   0  0  0  0  0  0  0  0  0  0  0  0
  152.5083  138.6370  154.6980 H   0  0  0  0  0  0  0  0  0  0  0  0
  151.7762  140.8619  157.6817 H   0  0  0  0  0  0  0  0  0  0  0  0
  150.1389  142.8996  156.7734 H   0  0  0  0  0  0  0  0  0  0  0  0
  146.7376  136.8382  155.2966 H   0  0  0  0  0  0  0  0  0  0  0  0
  148.0134  135.9920  154.4299 H   0  0  0  0  0  0  0  0  0  0  0  0
  147.1095  136.5733  152.4386 H   0  0  0  0  0  0  0  0  0  0  0  0
  1  2  1  0  0  0  0
  1 19  1  0  0  0  0
  1 20  1  0  0  0  0
  1 21  1  0  0  0  0
  2  3  1  0  0  0  0
  2 22  1  0  0  0  0
  2 23  1  0  0  0  0
  3 18  1  0  0  0  0
  3  4  1  0  0  0  0
  3 38  1  0  0  0  0
  4  5  1  0  0  0  0
  4 24  1  0  0  0  0
  4 25  1  0  0  0  0
  5  6  1  0  0  0  0
  5  7  1  0  0  0  0
  5 26  1  0  0  0  0
  6 27  1  0  0  0  0
  6 28  1  0  0  0  0
  6 29  1  0  0  0  0
  7  8  1  0  0  0  0
  7 18  1  0  0  0  0
  7 30  1  0  0  0  0
  8  9  1  0  0  0  0
  8 31  1  0  0  0  0
  9 10  2  0  0  0  0
  9 11  2  0  0  0  0
  9 12  1  0  0  0  0
 12 13  1  0  0  0  0
 12 32  1  0  0  0  0
 12 33  1  0  0  0  0
 13 17  2  0  0  0  0
 13 14  1  0  0  0  0
 14 15  2  0  0  0  0
 14 34  1  0  0  0  0
 15 16  1  0  0  0  0
 15 35  1  0  0  0  0
 16 17  1  0  0  0  0
 18 36  1  0  0  0  0
 18 37  1  0  0  0  0
M  CHG  1   3   1
M  END
> <s_m_source_file>
AV-unprocessed.smi

> <i_m_source_file_index>
703

> <i_lp_mmshare_version>
43012

> <i_f3d_flags>
0

> <s_epik_input>
W0NIM11bQ0gyXU4xW0NIMl1bQ0BASF0oW0NIM10pW0NASF0oW0NIMl0xKVtOSF1TKD1PKSg9TylbQ0gyXWMyW2NIXVtjSF1vbjI=

> <s_epik_cmdline>
J2VwaWtfcHl0aG9uJywgJy1waCcsICc3LjAnLCAnLXRuJywgJzgnLCAnLW1hJywgJzIwMCcsICctbWV0YWxfYmluZGluZycsICctaW1hZScsICc8aW5maWxlLm1hZT4nLCAnLW9tYWUnLCAnPG91dGZpbGUubWFlPic=

> <r_epik_Ionization_Penalty>
0.00324529

> <r_epik_Ionization_Penalty_Charging>
0.0019384

> <r_epik_Ionization_Penalty_Neutral>
0.00130689

> <r_epik_State_Penalty>
0.00218682

> <r_epik_Charging_Adjusted_Penalty>
0.00412522

> <i_epik_Tot_Q>
1

> <i_epik_Tot_abs_Q>
1

> <r_epik_Metal_State_Penalty>
0.310831

> <b_epik_Metal_Only>
0

> <s_lp_Force_Field>
OPLS_2005

> <r_lp_Energy>
19.0456

> <b_lp_Chiralities_Consistent>
1

> <s_lp_Variant>
AV-unprocessed.smi:703-5

> <Gold.Version>
5.8.1

> <Gold.Id.Protein>
6NUR|6NUR_protein|mol2

> <Gold.PLP.Fitness>
41.8426

> <Gold.PLP.PLP>
-24.8192

> <Gold.PLP.part.hbond>
-5.0000

> <Gold.PLP.part.metal>
0.0000

> <Gold.PLP.part.buried>
-0.4800

> <Gold.PLP.part.nonpolar>
-19.3463

> <Gold.PLP.part.repulsive>
0.4159

> <Gold.PLP.ligand.clash>
0.0000

> <Gold.PLP.ligand.torsion>
0.3289

> <Gold.PLP.Chemscore.Hbond>
4.8560

> <Gold.PLP.Chemscore.CHOScore>
0.9844

> <Gold.PLP.Chemscore.Metal>
0.0000

> <Gold.Chemscore.Hbonds>
donor molecule, donor type, donor heavy atom, donor atom, acceptor molecule, acceptor atom, score
      L1  H     3    38       P1  7948  1.86
      L1  H     8    31       P1  7948  1.00
      P1  H  7989  7998       L1    17  1.00
      P1  H 10752 10765       L1    11  1.00
      L1  C    15    35       P1  8028  0.94

> <Gold.PLP.Chemscore.Internal.Correction>
0.1602

> <Gold.Rescore>
     Score         DG    S(hbond)    S(metal)    S(lipo)     H(rot)  DE(clash)    DE(int)     intcor
     15.82     -17.77       3.24        0.00      54.98       1.94       0.04       1.91       ----

> <Gold.Chemscore.Fitness>
15.8235

> <Gold.Chemscore.DG>
-17.7672

> <Gold.Chemscore.ZeroCoef>
-5.4800

> <Gold.Chemscore.Hbond>
3.2398

> <Gold.Chemscore.Metal>
0.0000

> <Gold.Chemscore.Lipo>
54.9813

> <Gold.Chemscore.Internal_Hbond>
0.0000

> <Gold.Chemscore.DEClash>
0.0383

> <Gold.Chemscore.DEInternal>
1.9054

> <Gold.Chemscore.Rot>
1.9400

> <Gold.Chemscore.Internal.Correction>
   9.000000E+99

> <Gold.Chemscore.Hbonds>
donor molecule, donor type, donor heavy atom, donor atom, acceptor molecule, acceptor atom, score
      L1  H     3    38       P1  7948  0.89
      L1  H     8    31       P1  7948  0.66
      P1  H  7989  7998       L1    17  0.08
      P1  H 10752 10765       L1    11  0.95

> <Gold.Chemscore.Hbond.Weighted>
-10.8208

> <Gold.Chemscore.Metal.Weighted>
-0.0000

> <Gold.Chemscore.Lipo.Weighted>
-6.4328

> <Gold.Chemscore.Internal_Hbond.Weighted>
0.0000

> <Gold.Chemscore.DEClash.Weighted>
0.0383

> <Gold.Chemscore.DEInternal.Weighted>
1.9054

> <Gold.Chemscore.Rot.Weighted>
4.9665

> <Gold.Chemscore.Internal.Correction.Weighted>
   9.000000E+99

> <Gold.Protein.RotatedTorsions>
[ 6907 6896 6895 6894 ] final   32.43 input  -60.11 | X-H torsion
[ 7974 7965 7964 7962 ] final  -90.34 input  175.53 | X-H torsion
[ 8008 7997 7996 7995 ] final  -84.14 input   59.86 | X-H torsion
[ 10167 10162 10161 10158 ] final -114.45 input  -65.29 | X-H torsion
[ 10718 10713 10712 10709 ] final  104.70 input   66.30 | X-H torsion
[ 10763 10752 10751 10750 ] final -163.63 input  -60.55 | X-H torsion
[ 11005 11000 10999 10996 ] final -143.30 input  -57.11 | X-H torsion

> <Gold.Protein.ActiveResidues>
 VAL166  LYS551  ARG553  GLY616  TRP617  ASP618  TYR619  PRO620  LYS621  CYS622 
 ASP623  PHE694  ASN695  SER759  ASP760  ASP761  ALA762  ILE779  LEU786  VAL792 
 PHE793  MET794  SER795  GLU796  ALA797  LYS798  CYS799  TRP800  GLU811  SER814 

> <Gold.Protein.RotatedAtoms>
  152.0743  134.9513  160.0573 H   0  0  0  0  0  0  0  0  0  0  0  0  # atno 6907 bound_to 6896
  152.0826  133.4156  159.4516 H   0  0  0  0  0  0  0  0  0  0  0  0  # atno 6908 bound_to 6896
  150.6836  134.2884  159.4699 H   0  0  0  0  0  0  0  0  0  0  0  0  # atno 6909 bound_to 6896
  145.4278  140.9554  143.2145 H   0  0  0  0  0  0  0  0  0  0  0  0  # atno 7974 bound_to 7965
  154.6266  140.0609  156.9681 H   0  0  0  0  0  0  0  0  0  0  0  0  # atno 8008 bound_to 7997
  155.1731  140.3292  155.4370 H   0  0  0  0  0  0  0  0  0  0  0  0  # atno 8009 bound_to 7997
  156.2461  140.1910  156.6832 H   0  0  0  0  0  0  0  0  0  0  0  0  # atno 8010 bound_to 7997
  140.1008  143.4614  152.1813 H   0  0  0  0  0  0  0  0  0  0  0  0  # atno 10167 bound_to 10162
  157.6731  131.0810  150.5745 H   0  0  0  0  0  0  0  0  0  0  0  0  # atno 10718 bound_to 10713
  154.7104  135.3005  154.9206 H   0  0  0  0  0  0  0  0  0  0  0  0  # atno 10763 bound_to 10752
  154.0109  135.6695  153.4769 H   0  0  0  0  0  0  0  0  0  0  0  0  # atno 10764 bound_to 10752
  153.0750  135.5039  154.8299 H   0  0  0  0  0  0  0  0  0  0  0  0  # atno 10765 bound_to 10752
  140.8139  134.2712  157.4929 H   0  0  0  0  0  0  0  0  0  0  0  0  # atno 11005 bound_to 11000
  144.8203  139.5804  143.6990 LP  0  0  0  0  0  0  0  0  0  0  0  0  # atno 17320 bound_to 7965
  146.2623  139.6439  142.9353 LP  0  0  0  0  0  0  0  0  0  0  0  0  # atno 17321 bound_to 7965
  139.5672  144.7442  151.3990 LP  0  0  0  0  0  0  0  0  0  0  0  0  # atno 17342 bound_to 10162
  140.6978  143.7705  150.7355 LP  0  0  0  0  0  0  0  0  0  0  0  0  # atno 17343 bound_to 10162
  156.6046  130.4364  149.5883 LP  0  0  0  0  0  0  0  0  0  0  0  0  # atno 17370 bound_to 10713
  156.2478  130.6889  151.1617 LP  0  0  0  0  0  0  0  0  0  0  0  0  # atno 17371 bound_to 10713
  139.8712  134.9498  156.4037 LP  0  0  0  0  0  0  0  0  0  0  0  0  # atno 17394 bound_to 11000
  140.9169  133.7672  155.9859 LP  0  0  0  0  0  0  0  0  0  0  0  0  # atno 17395 bound_to 11000

$$$$
