AV-unprocessed.smi:1727|AV-procd|sdf|6965|dock5
  -GOLD-   22720 8183D 1   1.00000     0.00000
 Structure written by MMmdl.
 49 51  0  0  0  0  0  0  0  0  1 V2000
  143.9208  135.0206  162.7663 C   0  0  0  0  0  0  0  0  0  0  0  0
  145.0428  134.1544  162.1893 C   0  0  0  0  0  0  0  0  0  0  0  0
  144.7502  133.0353  161.7681 O   0  0  0  0  0  0  0  0  0  0  0  0
  146.3067  134.6415  162.1576 N   0  0  0  0  0  0  0  0  0  0  0  0
  147.4260  133.9043  161.5597 C   0  0  0  0  0  0  0  0  0  0  0  0
  147.8447  134.6073  160.2559 C   0  0  0  0  0  0  0  0  0  0  0  0
  148.1955  136.0896  160.5053 C   0  0  0  0  0  0  0  0  0  0  0  0
  148.4099  136.7640  159.2289 N   0  0  0  0  0  0  0  0  0  0  0  0
  149.6062  137.0275  158.6850 C   0  0  0  0  0  0  0  0  0  0  0  0
  150.6772  136.7222  159.2101 O   0  0  0  0  0  0  0  0  0  0  0  0
  149.4755  137.6803  157.5184 N   0  0  0  0  0  0  0  0  0  0  0  0
  150.5102  138.1746  156.6760 C   0  0  0  0  0  0  0  0  0  0  0  0
  151.8066  137.6046  156.6922 C   0  0  0  0  0  0  0  0  0  0  0  0
  152.7782  138.0748  155.7924 C   0  0  0  0  0  0  0  0  0  0  0  0
  152.4141  139.0908  154.8934 C   0  0  0  0  0  0  0  0  0  0  0  0
  151.1812  139.6345  154.8562 N   0  0  0  0  0  0  0  0  0  0  0  0
  150.2366  139.2022  155.7279 C   0  0  0  0  0  0  0  0  0  0  0  0
  148.9679  139.8222  155.6540 N   0  0  0  0  0  0  0  0  0  0  0  0
  148.6095  140.6418  154.5009 C   0  0  0  0  0  0  0  0  0  0  0  0
  147.3855  141.4371  154.9455 C   0  0  0  0  0  0  0  0  0  0  0  0
  147.6840  141.6969  156.4185 C   0  0  0  0  0  0  0  0  0  0  0  0
  148.4295  140.4351  156.8651 C   0  0  0  0  0  0  0  0  0  0  0  0
  147.0895  136.8017  161.3179 C   0  0  0  0  0  0  0  0  0  0  0  0
  146.7077  135.9924  162.5700 C   0  0  0  0  0  0  0  0  0  0  0  0
  143.8306  135.9560  162.2134 H   0  0  0  0  0  0  0  0  0  0  0  0
  144.1068  135.2448  163.8169 H   0  0  0  0  0  0  0  0  0  0  0  0
  142.9634  134.5024  162.7015 H   0  0  0  0  0  0  0  0  0  0  0  0
  148.2618  133.8841  162.2606 H   0  0  0  0  0  0  0  0  0  0  0  0
  147.1844  132.8601  161.3566 H   0  0  0  0  0  0  0  0  0  0  0  0
  148.6959  134.0903  159.8116 H   0  0  0  0  0  0  0  0  0  0  0  0
  147.0284  134.5351  159.5352 H   0  0  0  0  0  0  0  0  0  0  0  0
  149.1202  136.1161  161.0849 H   0  0  0  0  0  0  0  0  0  0  0  0
  147.5849  137.0556  158.7256 H   0  0  0  0  0  0  0  0  0  0  0  0
  148.5383  137.9538  157.2607 H   0  0  0  0  0  0  0  0  0  0  0  0
  152.0621  136.7991  157.3641 H   0  0  0  0  0  0  0  0  0  0  0  0
  153.7740  137.6571  155.7833 H   0  0  0  0  0  0  0  0  0  0  0  0
  153.1294  139.4740  154.1809 H   0  0  0  0  0  0  0  0  0  0  0  0
  149.4165  141.3310  154.2485 H   0  0  0  0  0  0  0  0  0  0  0  0
  148.3966  140.0260  153.6265 H   0  0  0  0  0  0  0  0  0  0  0  0
  147.2395  142.3513  154.3698 H   0  0  0  0  0  0  0  0  0  0  0  0
  146.4870  140.8260  154.8491 H   0  0  0  0  0  0  0  0  0  0  0  0
  148.3407  142.5629  156.5112 H   0  0  0  0  0  0  0  0  0  0  0  0
  146.7876  141.8901  157.0080 H   0  0  0  0  0  0  0  0  0  0  0  0
  147.7320  139.7385  157.3309 H   0  0  0  0  0  0  0  0  0  0  0  0
  149.2098  140.6691  157.5906 H   0  0  0  0  0  0  0  0  0  0  0  0
  147.4194  137.7996  161.6092 H   0  0  0  0  0  0  0  0  0  0  0  0
  146.2029  136.9386  160.6968 H   0  0  0  0  0  0  0  0  0  0  0  0
  145.9425  136.5231  163.1343 H   0  0  0  0  0  0  0  0  0  0  0  0
  147.5649  135.9217  163.2411 H   0  0  0  0  0  0  0  0  0  0  0  0
  1  2  1  0  0  0  0
  1 25  1  0  0  0  0
  1 26  1  0  0  0  0
  1 27  1  0  0  0  0
  2  3  2  0  0  0  0
  2  4  1  0  0  0  0
  4 24  1  0  0  0  0
  4  5  1  0  0  0  0
  5  6  1  0  0  0  0
  5 28  1  0  0  0  0
  5 29  1  0  0  0  0
  6  7  1  0  0  0  0
  6 30  1  0  0  0  0
  6 31  1  0  0  0  0
  7  8  1  0  0  0  0
  7 23  1  0  0  0  0
  7 32  1  0  0  0  0
  8  9  1  0  0  0  0
  8 33  1  0  0  0  0
  9 10  2  0  0  0  0
  9 11  1  0  0  0  0
 11 12  1  0  0  0  0
 11 34  1  0  0  0  0
 12 17  1  0  0  0  0
 12 13  2  0  0  0  0
 13 14  1  0  0  0  0
 13 35  1  0  0  0  0
 14 15  2  0  0  0  0
 14 36  1  0  0  0  0
 15 16  1  0  0  0  0
 15 37  1  0  0  0  0
 16 17  2  0  0  0  0
 17 18  1  0  0  0  0
 18 22  1  0  0  0  0
 18 19  1  0  0  0  0
 19 20  1  0  0  0  0
 19 38  1  0  0  0  0
 19 39  1  0  0  0  0
 20 21  1  0  0  0  0
 20 40  1  0  0  0  0
 20 41  1  0  0  0  0
 21 22  1  0  0  0  0
 21 42  1  0  0  0  0
 21 43  1  0  0  0  0
 22 44  1  0  0  0  0
 22 45  1  0  0  0  0
 23 24  1  0  0  0  0
 23 46  1  0  0  0  0
 23 47  1  0  0  0  0
 24 48  1  0  0  0  0
 24 49  1  0  0  0  0
M  END
> <s_m_source_file>
AV-unprocessed.smi

> <i_m_source_file_index>
1727

> <i_lp_mmshare_version>
43012

> <i_f3d_flags>
0

> <s_epik_input>
W0NIM11DKD1PKU4xW0NIMl1bQ0gyXVtDSF0oW0NIMl1bQ0gyXTEpW05IXUMoPU8pW05IXWMyW2NIXVtjSF1bY0hdbmMyTjNbQ0gyXVtDSDJdW0NIMl1bQ0gyXTM=

> <s_epik_cmdline>
J2VwaWtfcHl0aG9uJywgJy1waCcsICc3LjAnLCAnLXRuJywgJzgnLCAnLW1hJywgJzIwMCcsICctbWV0YWxfYmluZGluZycsICctaW1hZScsICc8aW5maWxlLm1hZT4nLCAnLW9tYWUnLCAnPG91dGZpbGUubWFlPic=

> <r_lp_tautomer_probability>
1

> <r_epik_Ionization_Penalty>
0.102256

> <r_epik_Ionization_Penalty_Charging>
0

> <r_epik_Ionization_Penalty_Neutral>
0.102256

> <r_epik_State_Penalty>
0.0916633

> <r_epik_Charging_Adjusted_Penalty>
0.0916633

> <i_epik_Tot_Q>
0

> <i_epik_Tot_abs_Q>
0

> <r_epik_Metal_State_Penalty>
0.0781079

> <b_epik_Metal_Only>
0

> <s_lp_Force_Field>
OPLS_2005

> <r_lp_Energy>
49.5361

> <b_lp_Chiralities_Consistent>
1

> <s_lp_Variant>
AV-unprocessed.smi:1727-1

> <Gold.Version>
5.8.1

> <Gold.Id.Protein>
6NUR|6NUR_protein|mol2

> <Gold.PLP.Fitness>
42.6684

> <Gold.PLP.PLP>
-37.6006

> <Gold.PLP.part.hbond>
-2.0000

> <Gold.PLP.part.metal>
0.0000

> <Gold.PLP.part.buried>
-4.9666

> <Gold.PLP.part.nonpolar>
-31.8369

> <Gold.PLP.part.repulsive>
0.3723

> <Gold.PLP.ligand.clash>
0.0000

> <Gold.PLP.ligand.torsion>
0.5624

> <Gold.PLP.Chemscore.Hbond>
1.9500

> <Gold.PLP.Chemscore.CHOScore>
0.0000

> <Gold.PLP.Chemscore.Metal>
0.0000

> <Gold.Chemscore.Hbonds>
donor molecule, donor type, donor heavy atom, donor atom, acceptor molecule, acceptor atom, score
      P1  H  6896  6908       L1    10  1.00
      P1  H  7989  7998       L1    16  0.65

> <Gold.PLP.Chemscore.Internal.Correction>
0.3427

> <Gold.Rescore>
     Score         DG    S(hbond)    S(metal)    S(lipo)     H(rot)  DE(clash)    DE(int)     intcor
     15.76     -17.77       1.70        0.00      83.13       1.21       0.01       2.00       ----

> <Gold.Chemscore.Fitness>
15.7563

> <Gold.Chemscore.DG>
-17.7691

> <Gold.Chemscore.ZeroCoef>
-5.4800

> <Gold.Chemscore.Hbond>
1.6959

> <Gold.Chemscore.Metal>
0.0000

> <Gold.Chemscore.Lipo>
83.1348

> <Gold.Chemscore.Internal_Hbond>
0.0000

> <Gold.Chemscore.DEClash>
0.0081

> <Gold.Chemscore.DEInternal>
2.0048

> <Gold.Chemscore.Rot>
1.2117

> <Gold.Chemscore.Internal.Correction>
   9.000000E+99

> <Gold.Chemscore.Hbonds>
donor molecule, donor type, donor heavy atom, donor atom, acceptor molecule, acceptor atom, score
      P1  H  6896  6908       L1    10  0.98
      P1  H  7989  7998       L1    16  0.06

> <Gold.Chemscore.Hbond.Weighted>
-5.6643

> <Gold.Chemscore.Metal.Weighted>
-0.0000

> <Gold.Chemscore.Lipo.Weighted>
-9.7268

> <Gold.Chemscore.Internal_Hbond.Weighted>
0.0000

> <Gold.Chemscore.DEClash.Weighted>
0.0081

> <Gold.Chemscore.DEInternal.Weighted>
2.0048

> <Gold.Chemscore.Rot.Weighted>
3.1019

> <Gold.Chemscore.Internal.Correction.Weighted>
   9.000000E+99

> <Gold.Protein.RotatedTorsions>
[ 6907 6896 6895 6894 ] final -132.97 input  -60.11 | X-H torsion
[ 7974 7965 7964 7962 ] final  -73.71 input  175.53 | X-H torsion
[ 8008 7997 7996 7995 ] final  -24.81 input   59.86 | X-H torsion
[ 10167 10162 10161 10158 ] final  172.10 input  -65.29 | X-H torsion
[ 10718 10713 10712 10709 ] final   41.15 input   66.30 | X-H torsion
[ 10763 10752 10751 10750 ] final  -14.23 input  -60.55 | X-H torsion
[ 11005 11000 10999 10996 ] final -169.33 input  -57.11 | X-H torsion

> <Gold.Protein.ActiveResidues>
 VAL166  LYS551  ARG553  GLY616  TRP617  ASP618  TYR619  PRO620  LYS621  CYS622 
 ASP623  PHE694  ASN695  SER759  ASP760  ASP761  ALA762  ILE779  LEU786  VAL792 
 PHE793  MET794  SER795  GLU796  ALA797  LYS798  CYS799  TRP800  GLU811  SER814 

> <Gold.Protein.RotatedAtoms>
  150.9685  133.6368  159.2741 H   0  0  0  0  0  0  0  0  0  0  0  0  # atno 6907 bound_to 6896
  151.3666  135.0913  159.9461 H   0  0  0  0  0  0  0  0  0  0  0  0  # atno 6908 bound_to 6896
  152.5174  133.9248  159.7606 H   0  0  0  0  0  0  0  0  0  0  0  0  # atno 6909 bound_to 6896
  145.6485  140.9289  143.0997 H   0  0  0  0  0  0  0  0  0  0  0  0  # atno 7974 bound_to 7965
  154.4509  140.1943  156.0523 H   0  0  0  0  0  0  0  0  0  0  0  0  # atno 8008 bound_to 7997
  156.0645  140.3292  155.7474 H   0  0  0  0  0  0  0  0  0  0  0  0  # atno 8009 bound_to 7997
  155.5360  140.0582  157.2870 H   0  0  0  0  0  0  0  0  0  0  0  0  # atno 8010 bound_to 7997
  139.5066  144.3412  152.0016 H   0  0  0  0  0  0  0  0  0  0  0  0  # atno 10167 bound_to 10162
  157.3902  130.7802  149.7263 H   0  0  0  0  0  0  0  0  0  0  0  0  # atno 10718 bound_to 10713
  153.5252  135.7015  153.5711 H   0  0  0  0  0  0  0  0  0  0  0  0  # atno 10763 bound_to 10752
  153.3743  135.3936  155.1811 H   0  0  0  0  0  0  0  0  0  0  0  0  # atno 10764 bound_to 10752
  154.8690  135.3819  154.4744 H   0  0  0  0  0  0  0  0  0  0  0  0  # atno 10765 bound_to 10752
  140.5319  134.5607  157.5077 H   0  0  0  0  0  0  0  0  0  0  0  0  # atno 11005 bound_to 11000
  144.7131  139.8296  143.7408 LP  0  0  0  0  0  0  0  0  0  0  0  0  # atno 17320 bound_to 7965
  146.1223  139.4243  143.0221 LP  0  0  0  0  0  0  0  0  0  0  0  0  # atno 17321 bound_to 7965
  140.2850  144.3818  150.6107 LP  0  0  0  0  0  0  0  0  0  0  0  0  # atno 17342 bound_to 10162
  140.5990  143.2167  151.7109 LP  0  0  0  0  0  0  0  0  0  0  0  0  # atno 17343 bound_to 10162
  155.9796  130.4038  150.3575 LP  0  0  0  0  0  0  0  0  0  0  0  0  # atno 17370 bound_to 10713
  157.1690  131.0364  151.2804 LP  0  0  0  0  0  0  0  0  0  0  0  0  # atno 17371 bound_to 10713
  139.9549  134.7552  156.0363 LP  0  0  0  0  0  0  0  0  0  0  0  0  # atno 17394 bound_to 11000
  141.1276  133.6595  156.3378 LP  0  0  0  0  0  0  0  0  0  0  0  0  # atno 17395 bound_to 11000

$$$$
