AV-unprocessed.smi:1240|AV-procd|sdf|5211|dock2
  -GOLD-   22720 4303D 1   1.00000     0.00000
 Structure written by MMmdl.
 48 50  0  0  0  0  0  0  0  0  4 V2000
  153.5021  139.5759  159.9344 O   0  0  0  0  0  0  0  0  0  0  0  0
  153.1778  140.2408  158.9437 C   0  0  0  0  0  0  0  0  0  0  0  0
  153.1238  139.8287  157.6493 N   0  5  0  0  0  0  0  0  0  0  0  0
  152.3055  138.7173  157.1663 C   0  0  0  0  0  0  0  0  0  0  0  0
  150.7796  138.9938  157.4107 C   0  0  2  0  0  0  0  0  0  0  0  0
  149.9358  137.7289  157.7809 C   0  0  2  0  0  0  0  0  0  0  0  0
  148.4598  138.0225  158.0108 C   0  0  0  0  0  0  0  0  0  0  0  0
  147.9812  136.7747  158.7434 C   0  0  0  0  0  0  0  0  0  0  0  0
  149.0949  136.3295  159.5063 O   0  0  0  0  0  0  0  0  0  0  0  0
  150.2652  137.0408  159.1175 C   0  0  0  0  0  0  0  0  0  0  0  0
  150.0988  139.7389  156.2928 N   0  3  0  0  0  0  0  0  0  0  0  0
  150.5815  141.1234  156.0447 C   0  0  0  0  0  0  0  0  0  0  0  0
  149.6048  141.8602  155.1132 C   0  0  0  0  0  0  0  0  0  0  0  0
  149.4465  141.1286  153.9029 O   0  0  0  0  0  0  0  0  0  0  0  0
  148.9033  139.8323  154.1255 C   0  0  0  0  0  0  0  0  0  0  0  0
  149.8593  139.0171  155.0106 C   0  0  0  0  0  0  0  0  0  0  0  0
  152.7970  141.5235  159.0823 N   0  0  0  0  0  0  0  0  0  0  0  0
  152.7367  142.3139  160.2612 C   0  0  0  0  0  0  0  0  0  0  0  0
  152.0374  143.5391  160.1960 C   0  0  0  0  0  0  0  0  0  0  0  0
  151.9726  144.3632  161.3376 C   0  0  0  0  0  0  0  0  0  0  0  0
  152.5892  143.9832  162.4773 N   0  3  0  0  0  0  0  0  0  0  0  0
  153.2849  142.8303  162.5819 C   0  0  0  0  0  0  0  0  0  0  0  0
  153.3841  141.9652  161.4734 C   0  0  0  0  0  0  0  0  0  0  0  0
  152.4705  138.5652  156.0997 H   0  0  0  0  0  0  0  0  0  0  0  0
  152.5725  137.7710  157.6383 H   0  0  0  0  0  0  0  0  0  0  0  0
  150.7118  139.6627  158.2705 H   0  0  0  0  0  0  0  0  0  0  0  0
  150.0072  136.9786  156.9908 H   0  0  0  0  0  0  0  0  0  0  0  0
  148.3420  138.8981  158.6515 H   0  0  0  0  0  0  0  0  0  0  0  0
  147.9041  138.1981  157.0890 H   0  0  0  0  0  0  0  0  0  0  0  0
  147.1149  136.9686  159.3763 H   0  0  0  0  0  0  0  0  0  0  0  0
  147.7135  135.9937  158.0306 H   0  0  0  0  0  0  0  0  0  0  0  0
  151.1171  136.3642  159.0442 H   0  0  0  0  0  0  0  0  0  0  0  0
  150.4860  137.7794  159.8895 H   0  0  0  0  0  0  0  0  0  0  0  0
  150.6663  141.6665  156.9865 H   0  0  0  0  0  0  0  0  0  0  0  0
  151.5737  141.1065  155.5922 H   0  0  0  0  0  0  0  0  0  0  0  0
  148.6360  141.9987  155.5962 H   0  0  0  0  0  0  0  0  0  0  0  0
  149.9872  142.8535  154.8780 H   0  0  0  0  0  0  0  0  0  0  0  0
  147.9174  139.9107  154.5865 H   0  0  0  0  0  0  0  0  0  0  0  0
  148.7667  139.3363  153.1644 H   0  0  0  0  0  0  0  0  0  0  0  0
  150.7968  138.8627  154.4750 H   0  0  0  0  0  0  0  0  0  0  0  0
  149.4290  138.0336  155.1963 H   0  0  0  0  0  0  0  0  0  0  0  0
  152.4430  141.9612  158.2444 H   0  0  0  0  0  0  0  0  0  0  0  0
  151.5477  143.8427  159.2818 H   0  0  0  0  0  0  0  0  0  0  0  0
  151.4523  145.3092  161.3718 H   0  0  0  0  0  0  0  0  0  0  0  0
  153.7448  142.6384  163.5403 H   0  0  0  0  0  0  0  0  0  0  0  0
  153.9623  141.0581  161.5649 H   0  0  0  0  0  0  0  0  0  0  0  0
  149.1710  139.8823  156.6642 H   0  0  0  0  0  0  0  0  0  0  0  0
  152.5320  144.5951  163.2917 H   0  0  0  0  0  0  0  0  0  0  0  0
  1  2  2  0  0  0  0
  2  3  1  0  0  0  0
  2 17  1  0  0  0  0
  3  4  1  0  0  0  0
  4  5  1  0  0  0  0
  4 24  1  0  0  0  0
  4 25  1  0  0  0  0
  5  6  1  0  0  0  0
  5 11  1  0  0  0  0
  5 26  1  0  0  0  0
  6 10  1  0  0  0  0
  6  7  1  0  0  0  0
  6 27  1  0  0  0  0
  7  8  1  0  0  0  0
  7 28  1  0  0  0  0
  7 29  1  0  0  0  0
  8  9  1  0  0  0  0
  8 30  1  0  0  0  0
  8 31  1  0  0  0  0
  9 10  1  0  0  0  0
 10 32  1  0  0  0  0
 10 33  1  0  0  0  0
 11 16  1  0  0  0  0
 11 12  1  0  0  0  0
 11 47  1  0  0  0  0
 12 13  1  0  0  0  0
 12 34  1  0  0  0  0
 12 35  1  0  0  0  0
 13 14  1  0  0  0  0
 13 36  1  0  0  0  0
 13 37  1  0  0  0  0
 14 15  1  0  0  0  0
 15 16  1  0  0  0  0
 15 38  1  0  0  0  0
 15 39  1  0  0  0  0
 16 40  1  0  0  0  0
 16 41  1  0  0  0  0
 17 18  1  0  0  0  0
 17 42  1  0  0  0  0
 18 23  1  0  0  0  0
 18 19  2  0  0  0  0
 19 20  1  0  0  0  0
 19 43  1  0  0  0  0
 20 21  2  0  0  0  0
 20 44  1  0  0  0  0
 21 22  1  0  0  0  0
 21 48  1  0  0  0  0
 22 23  2  0  0  0  0
 22 45  1  0  0  0  0
 23 46  1  0  0  0  0
M  CHG  1   3  -1
M  CHG  1  11   1
M  CHG  1  21   1
M  END
> <s_m_source_file>
AV-unprocessed.smi

> <i_m_source_file_index>
1240

> <i_lp_mmshare_version>
43012

> <i_f3d_flags>
0

> <s_epik_input>
W2NIXTFbY0hdbltjSF1bY0hdYzFbTkhdQyg9TylbTkhdW0NIMl1bQ0BIXShbQ0BASF0yW0NIMl1bQ0gyXU9bQ0gyXTIpTjNbQ0gyXVtDSDJdT1tDSDJdW0NIMl0z

> <s_epik_cmdline>
J2VwaWtfcHl0aG9uJywgJy1waCcsICc3LjAnLCAnLXRuJywgJzgnLCAnLW1hJywgJzIwMCcsICctbWV0YWxfYmluZGluZycsICctaW1hZScsICc8aW5maWxlLm1hZT4nLCAnLW9tYWUnLCAnPG91dGZpbGUubWFlPic=

> <r_epik_Ionization_Penalty>
8.41087

> <r_epik_Ionization_Penalty_Charging>
8.41087

> <r_epik_Ionization_Penalty_Neutral>
3.12936e-06

> <r_epik_State_Penalty>
8.81894

> <r_epik_Charging_Adjusted_Penalty>
17.2298

> <i_epik_Tot_Q>
1

> <i_epik_Tot_abs_Q>
3

> <r_epik_Metal_State_Penalty>
4.82983

> <b_epik_Metal_Only>
1

> <s_lp_Force_Field>
OPLS_2005

> <r_lp_Energy>
48.2206

> <b_lp_Chiralities_Consistent>
1

> <s_lp_Variant>
AV-unprocessed.smi:1240-17

> <Gold.Version>
5.8.1

> <Gold.Id.Protein>
6NUR|6NUR_protein|mol2

> <Gold.PLP.Fitness>
46.6169

> <Gold.PLP.PLP>
-39.1823

> <Gold.PLP.part.hbond>
-4.3129

> <Gold.PLP.part.metal>
0.0000

> <Gold.PLP.part.buried>
-1.6350

> <Gold.PLP.part.nonpolar>
-33.0171

> <Gold.PLP.part.repulsive>
1.9356

> <Gold.PLP.ligand.clash>
0.0000

> <Gold.PLP.ligand.torsion>
1.1903

> <Gold.PLP.Chemscore.Hbond>
3.1086

> <Gold.PLP.Chemscore.CHOScore>
0.0000

> <Gold.PLP.Chemscore.Metal>
0.0000

> <Gold.Chemscore.Hbonds>
donor molecule, donor type, donor heavy atom, donor atom, acceptor molecule, acceptor atom, score
      P1  H  7989  7998       L1    14  0.16
      P1  H  7997  8008       L1     3  2.00
      P1  H  8011  8017       L1    14  0.82

> <Gold.PLP.Chemscore.Internal.Correction>
0.4896

> <Gold.Rescore>
     Score         DG    S(hbond)    S(metal)    S(lipo)     H(rot)  DE(clash)    DE(int)     intcor
     13.68     -17.63       1.45        0.00      99.75       1.70       1.47       2.47       ----

> <Gold.Chemscore.Fitness>
13.6816

> <Gold.Chemscore.DG>
-17.6263

> <Gold.Chemscore.ZeroCoef>
-5.4800

> <Gold.Chemscore.Hbond>
1.4468

> <Gold.Chemscore.Metal>
0.0000

> <Gold.Chemscore.Lipo>
99.7549

> <Gold.Chemscore.Internal_Hbond>
0.0000

> <Gold.Chemscore.DEClash>
1.4714

> <Gold.Chemscore.DEInternal>
2.4733

> <Gold.Chemscore.Rot>
1.7021

> <Gold.Chemscore.Internal.Correction>
   9.000000E+99

> <Gold.Chemscore.Hbonds>
donor molecule, donor type, donor heavy atom, donor atom, acceptor molecule, acceptor atom, score
      P1  H  7989  7998       L1    14  0.01
      P1  H  7997  8008       L1     3  0.73
      P1  H  8011  8017       L1    14  0.50

> <Gold.Chemscore.Hbond.Weighted>
-4.8325

> <Gold.Chemscore.Metal.Weighted>
-0.0000

> <Gold.Chemscore.Lipo.Weighted>
-11.6713

> <Gold.Chemscore.Internal_Hbond.Weighted>
0.0000

> <Gold.Chemscore.DEClash.Weighted>
1.4714

> <Gold.Chemscore.DEInternal.Weighted>
2.4733

> <Gold.Chemscore.Rot.Weighted>
4.3575

> <Gold.Chemscore.Internal.Correction.Weighted>
   9.000000E+99

> <Gold.Protein.RotatedTorsions>
[ 6907 6896 6895 6894 ] final  127.00 input  -60.11 | X-H torsion
[ 7974 7965 7964 7962 ] final  -37.41 input  175.53 | X-H torsion
[ 8008 7997 7996 7995 ] final  -60.36 input   59.86 | X-H torsion
[ 10167 10162 10161 10158 ] final -125.40 input  -65.29 | X-H torsion
[ 10718 10713 10712 10709 ] final  -99.30 input   66.30 | X-H torsion
[ 10763 10752 10751 10750 ] final  -98.13 input  -60.55 | X-H torsion
[ 11005 11000 10999 10996 ] final  174.84 input  -57.11 | X-H torsion

> <Gold.Protein.ActiveResidues>
 VAL166  LYS551  ARG553  GLY616  TRP617  ASP618  TYR619  PRO620  LYS621  CYS622 
 ASP623  PHE694  ASN695  SER759  ASP760  ASP761  ALA762  ILE779  LEU786  VAL792 
 PHE793  MET794  SER795  GLU796  ALA797  LYS798  CYS799  TRP800  GLU811  SER814 

> <Gold.Protein.RotatedAtoms>
  152.3852  133.6601  159.6192 H   0  0  0  0  0  0  0  0  0  0  0  0  # atno 6907 bound_to 6896
  150.7773  133.9047  159.3360 H   0  0  0  0  0  0  0  0  0  0  0  0  # atno 6908 bound_to 6896
  151.6845  135.0958  160.0273 H   0  0  0  0  0  0  0  0  0  0  0  0  # atno 6909 bound_to 6896
  146.0578  140.6392  142.9011 H   0  0  0  0  0  0  0  0  0  0  0  0  # atno 7974 bound_to 7965
  154.4395  140.1041  156.6261 H   0  0  0  0  0  0  0  0  0  0  0  0  # atno 8008 bound_to 7997
  155.5655  140.3488  155.4483 H   0  0  0  0  0  0  0  0  0  0  0  0  # atno 8009 bound_to 7997
  156.0428  140.1286  157.0126 H   0  0  0  0  0  0  0  0  0  0  0  0  # atno 8010 bound_to 7997
  139.9825  143.5727  152.2373 H   0  0  0  0  0  0  0  0  0  0  0  0  # atno 10167 bound_to 10162
  156.0130  130.5276  150.6650 H   0  0  0  0  0  0  0  0  0  0  0  0  # atno 10718 bound_to 10713
  154.7387  135.5021  153.9086 H   0  0  0  0  0  0  0  0  0  0  0  0  # atno 10763 bound_to 10752
  153.1021  135.6688  153.9661 H   0  0  0  0  0  0  0  0  0  0  0  0  # atno 10764 bound_to 10752
  153.9444  135.3064  155.3420 H   0  0  0  0  0  0  0  0  0  0  0  0  # atno 10765 bound_to 10752
  140.3556  134.7157  157.4297 H   0  0  0  0  0  0  0  0  0  0  0  0  # atno 11005 bound_to 11000
  144.7157  140.4202  143.7046 LP  0  0  0  0  0  0  0  0  0  0  0  0  # atno 17320 bound_to 7965
  145.6614  139.1582  143.2806 LP  0  0  0  0  0  0  0  0  0  0  0  0  # atno 17321 bound_to 7965
  139.6399  144.7653  151.2360 LP  0  0  0  0  0  0  0  0  0  0  0  0  # atno 17342 bound_to 10162
  140.7484  143.6334  150.8401 LP  0  0  0  0  0  0  0  0  0  0  0  0  # atno 17343 bound_to 10162
  157.4385  131.0858  151.0968 LP  0  0  0  0  0  0  0  0  0  0  0  0  # atno 17370 bound_to 10713
  157.1519  130.6188  149.5585 LP  0  0  0  0  0  0  0  0  0  0  0  0  # atno 17371 bound_to 10713
  140.0667  134.5919  155.8687 LP  0  0  0  0  0  0  0  0  0  0  0  0  # atno 17394 bound_to 11000
  141.1999  133.6609  156.5869 LP  0  0  0  0  0  0  0  0  0  0  0  0  # atno 17395 bound_to 11000

$$$$
