AV-unprocessed.smi:743|AV-procd|sdf|3564|dock2
  -GOLD-   22720 0563D 1   1.00000     0.00000
 Structure written by MMmdl.
 28 29  0  0  0  0  0  0  0  0  1 V2000
  141.8544  137.6965  154.6472 C   0  0  0  0  0  0  0  0  0  0  0  0
  142.4820  136.7151  153.7886 N   0  0  0  0  0  0  0  0  0  0  0  0
  143.1564  136.9141  152.6040 C   0  0  0  0  0  0  0  0  0  0  0  0
  143.5682  135.6906  152.1492 C   0  0  0  0  0  0  0  0  0  0  0  0
  144.3438  135.3353  150.8950 C   0  0  2  0  0  0  0  0  0  0  0  0
  143.7442  134.1767  150.2269 N   0  0  0  0  0  0  0  0  0  0  0  0
  144.1542  132.8972  150.3159 C   0  0  0  0  0  0  0  0  0  0  0  0
  143.5097  131.9825  149.8083 O   0  0  0  0  0  0  0  0  0  0  0  0
  145.4830  132.5794  151.0235 C   0  0  0  0  0  0  0  0  0  0  0  0
  146.0392  133.7336  151.8763 C   0  0  0  0  0  0  0  0  0  0  0  0
  145.8471  135.0781  151.1637 C   0  0  2  0  0  0  0  0  0  0  0  0
  146.4723  136.1548  151.9108 N   0  0  0  0  0  0  0  0  0  0  0  0
  143.0896  134.7981  153.1523 C   0  0  0  0  0  0  0  0  0  0  0  0
  142.4420  135.4116  154.1289 N   0  0  0  0  0  0  0  0  0  0  0  0
  146.3628  135.0248  150.2038 H   0  0  0  0  0  0  0  0  0  0  0  0
  141.9567  138.6921  154.2143 H   0  0  0  0  0  0  0  0  0  0  0  0
  142.3290  137.6863  155.6288 H   0  0  0  0  0  0  0  0  0  0  0  0
  140.7943  137.4662  154.7580 H   0  0  0  0  0  0  0  0  0  0  0  0
  143.2826  137.9005  152.1824 H   0  0  0  0  0  0  0  0  0  0  0  0
  144.2718  136.1612  150.1866 H   0  0  0  0  0  0  0  0  0  0  0  0
  142.8910  134.3513  149.7157 H   0  0  0  0  0  0  0  0  0  0  0  0
  145.3655  131.6853  151.6364 H   0  0  0  0  0  0  0  0  0  0  0  0
  146.2064  132.3287  150.2472 H   0  0  0  0  0  0  0  0  0  0  0  0
  145.5466  133.7446  152.8497 H   0  0  0  0  0  0  0  0  0  0  0  0
  147.0977  133.5586  152.0727 H   0  0  0  0  0  0  0  0  0  0  0  0
  146.5328  135.9025  152.8869 H   0  0  0  0  0  0  0  0  0  0  0  0
  147.4194  136.2898  151.5870 H   0  0  0  0  0  0  0  0  0  0  0  0
  143.1932  133.7239  153.1960 H   0  0  0  0  0  0  0  0  0  0  0  0
  1  2  1  0  0  0  0
  1 16  1  0  0  0  0
  1 17  1  0  0  0  0
  1 18  1  0  0  0  0
  2 14  1  0  0  0  0
  2  3  1  0  0  0  0
  3  4  2  0  0  0  0
  3 19  1  0  0  0  0
  4  5  1  0  0  0  0
  4 13  1  0  0  0  0
  5 11  1  0  0  0  0
  5  6  1  0  0  0  0
  5 20  1  0  0  0  0
  6  7  1  0  0  0  0
  6 21  1  0  0  0  0
  7  8  2  0  0  0  0
  7  9  1  0  0  0  0
  9 10  1  0  0  0  0
  9 22  1  0  0  0  0
  9 23  1  0  0  0  0
 10 11  1  0  0  0  0
 10 24  1  0  0  0  0
 10 25  1  0  0  0  0
 11 15  1  0  0  0  0
 11 12  1  0  0  0  0
 12 26  1  0  0  0  0
 12 27  1  0  0  0  0
 13 14  2  0  0  0  0
 13 28  1  0  0  0  0
M  END
> <s_m_source_file>
AV-unprocessed.smi

> <i_m_source_file_index>
743

> <i_lp_mmshare_version>
43012

> <i_f3d_flags>
0

> <s_epik_input>
W0NIM11uMVtjSF1jKFtjSF1uMSlbQ0BASF0yW05IXUMoPU8pW0NIMl1bQ0gyXVtDQEBIXTJbTkgyXQ==

> <s_epik_cmdline>
J2VwaWtfcHl0aG9uJywgJy1waCcsICc3LjAnLCAnLXRuJywgJzgnLCAnLW1hJywgJzIwMCcsICctbWV0YWxfYmluZGluZycsICctaW1hZScsICc8aW5maWxlLm1hZT4nLCAnLW9tYWUnLCAnPG91dGZpbGUubWFlPic=

> <r_lp_tautomer_probability>
1

> <r_epik_Ionization_Penalty>
2.50279

> <r_epik_Ionization_Penalty_Charging>
0

> <r_epik_Ionization_Penalty_Neutral>
2.50279

> <r_epik_State_Penalty>
2.66754

> <r_epik_Charging_Adjusted_Penalty>
2.66754

> <i_epik_Tot_Q>
0

> <i_epik_Tot_abs_Q>
0

> <r_epik_Metal_State_Penalty>
2.66721

> <b_epik_Metal_Only>
0

> <s_lp_Force_Field>
OPLS_2005

> <r_lp_Energy>
9.07017

> <b_lp_Chiralities_Consistent>
1

> <s_lp_Variant>
AV-unprocessed.smi:743-5

> <Gold.Version>
5.8.1

> <Gold.Id.Protein>
6NUR|6NUR_protein|mol2

> <Gold.PLP.Fitness>
40.8349

> <Gold.PLP.PLP>
-25.1824

> <Gold.PLP.part.hbond>
-2.6381

> <Gold.PLP.part.metal>
0.0000

> <Gold.PLP.part.buried>
-6.9599

> <Gold.PLP.part.nonpolar>
-17.0786

> <Gold.PLP.part.repulsive>
0.3267

> <Gold.PLP.ligand.clash>
0.0000

> <Gold.PLP.ligand.torsion>
0.4506

> <Gold.PLP.Chemscore.Hbond>
2.7150

> <Gold.PLP.Chemscore.CHOScore>
2.7970

> <Gold.PLP.Chemscore.Metal>
0.0000

> <Gold.Chemscore.Hbonds>
donor molecule, donor type, donor heavy atom, donor atom, acceptor molecule, acceptor atom, score
      L1  H     6    21       P1 10186  1.00
      L1  H    12    27       P1  7948  0.99
      P1  H 10785 10796       L1     8  0.70
      L1  C     3    19       P1 10171  1.00
      L1  C     3    19       P1 10175  0.91
      L1  C    13    28       P1 10957  0.90

> <Gold.PLP.Chemscore.Internal.Correction>
0.0178

> <Gold.Rescore>
     Score         DG    S(hbond)    S(metal)    S(lipo)     H(rot)  DE(clash)    DE(int)     intcor
     16.97     -17.16       2.86        0.00      40.17       1.00       0.05       0.15       ----

> <Gold.Chemscore.Fitness>
16.9679

> <Gold.Chemscore.DG>
-17.1607

> <Gold.Chemscore.ZeroCoef>
-5.4800

> <Gold.Chemscore.Hbond>
2.8564

> <Gold.Chemscore.Metal>
0.0000

> <Gold.Chemscore.Lipo>
40.1724

> <Gold.Chemscore.Internal_Hbond>
0.0000

> <Gold.Chemscore.DEClash>
0.0456

> <Gold.Chemscore.DEInternal>
0.1471

> <Gold.Chemscore.Rot>
1.0000

> <Gold.Chemscore.Internal.Correction>
   9.000000E+99

> <Gold.Chemscore.Hbonds>
donor molecule, donor type, donor heavy atom, donor atom, acceptor molecule, acceptor atom, score
      L1  H     6    21       P1 10186  0.96
      L1  H    12    27       P1  7948  0.88
      P1  H 10785 10796       L1     8  0.68

> <Gold.Chemscore.Hbond.Weighted>
-9.5405

> <Gold.Chemscore.Metal.Weighted>
-0.0000

> <Gold.Chemscore.Lipo.Weighted>
-4.7002

> <Gold.Chemscore.Internal_Hbond.Weighted>
0.0000

> <Gold.Chemscore.DEClash.Weighted>
0.0456

> <Gold.Chemscore.DEInternal.Weighted>
0.1471

> <Gold.Chemscore.Rot.Weighted>
2.5600

> <Gold.Chemscore.Internal.Correction.Weighted>
   9.000000E+99

> <Gold.Protein.RotatedTorsions>
[ 6907 6896 6895 6894 ] final -156.77 input  -60.11 | X-H torsion
[ 7974 7965 7964 7962 ] final   36.26 input  175.53 | X-H torsion
[ 8008 7997 7996 7995 ] final -117.63 input   59.86 | X-H torsion
[ 10167 10162 10161 10158 ] final  120.85 input  -65.29 | X-H torsion
[ 10718 10713 10712 10709 ] final  175.96 input   66.30 | X-H torsion
[ 10763 10752 10751 10750 ] final   16.41 input  -60.55 | X-H torsion
[ 11005 11000 10999 10996 ] final  162.41 input  -57.11 | X-H torsion

> <Gold.Protein.ActiveResidues>
 VAL166  LYS551  ARG553  GLY616  TRP617  ASP618  TYR619  PRO620  LYS621  CYS622 
 ASP623  PHE694  ASN695  SER759  ASP760  ASP761  ALA762  ILE779  LEU786  VAL792 
 PHE793  MET794  SER795  GLU796  ALA797  LYS798  CYS799  TRP800  GLU811  SER814 

> <Gold.Protein.RotatedAtoms>
  151.2927  133.4158  159.2633 H   0  0  0  0  0  0  0  0  0  0  0  0  # atno 6907 bound_to 6896
  151.0263  134.9507  159.8097 H   0  0  0  0  0  0  0  0  0  0  0  0  # atno 6908 bound_to 6896
  152.5336  134.2889  159.9088 H   0  0  0  0  0  0  0  0  0  0  0  0  # atno 6909 bound_to 6896
  146.1224  139.6040  142.9281 H   0  0  0  0  0  0  0  0  0  0  0  0  # atno 7974 bound_to 7965
  155.0868  140.0394  157.2656 H   0  0  0  0  0  0  0  0  0  0  0  0  # atno 8008 bound_to 7997
  154.6863  140.2644  155.6832 H   0  0  0  0  0  0  0  0  0  0  0  0  # atno 8009 bound_to 7997
  156.2713  140.2768  156.1425 H   0  0  0  0  0  0  0  0  0  0  0  0  # atno 8010 bound_to 7997
  139.5956  144.7040  151.3185 H   0  0  0  0  0  0  0  0  0  0  0  0  # atno 10167 bound_to 10162
  156.9272  130.9959  151.2994 H   0  0  0  0  0  0  0  0  0  0  0  0  # atno 10718 bound_to 10713
  153.1433  135.6764  153.8993 H   0  0  0  0  0  0  0  0  0  0  0  0  # atno 10763 bound_to 10752
  153.8443  135.3101  155.3429 H   0  0  0  0  0  0  0  0  0  0  0  0  # atno 10764 bound_to 10752
  154.7805  135.4891  153.9919 H   0  0  0  0  0  0  0  0  0  0  0  0  # atno 10765 bound_to 10752
  140.2255  134.8164  157.3264 H   0  0  0  0  0  0  0  0  0  0  0  0  # atno 11005 bound_to 11000
  145.5437  141.0419  143.2316 LP  0  0  0  0  0  0  0  0  0  0  0  0  # atno 17320 bound_to 7965
  144.7610  139.6957  143.7234 LP  0  0  0  0  0  0  0  0  0  0  0  0  # atno 17321 bound_to 7965
  140.7209  143.7139  150.7748 LP  0  0  0  0  0  0  0  0  0  0  0  0  # atno 17342 bound_to 10162
  140.0704  143.5067  152.2582 LP  0  0  0  0  0  0  0  0  0  0  0  0  # atno 17343 bound_to 10162
  157.5870  130.8416  149.8603 LP  0  0  0  0  0  0  0  0  0  0  0  0  # atno 17370 bound_to 10713
  156.0463  130.3727  150.1308 LP  0  0  0  0  0  0  0  0  0  0  0  0  # atno 17371 bound_to 10713
  140.1805  134.4496  155.7775 LP  0  0  0  0  0  0  0  0  0  0  0  0  # atno 17394 bound_to 11000
  141.2221  133.6981  156.7860 LP  0  0  0  0  0  0  0  0  0  0  0  0  # atno 17395 bound_to 11000

$$$$
