AV-unprocessed.smi:1816|AV-procd|sdf|7366|dock1
  -GOLD-   22720 9 33D 1   1.00000     0.00000
 Structure written by MMmdl.
 35 36  0  0  0  0  0  0  0  0  3 V2000
  149.6501  135.8561  156.8591 C   0  0  0  0  0  0  0  0  0  0  0  0
  150.0186  135.9725  155.3632 C   0  0  2  0  0  0  0  0  0  0  0  0
  150.2087  137.4589  154.9723 C   0  0  0  0  0  0  0  0  0  0  0  0
  151.0943  138.1699  155.8935 N   0  0  0  0  0  0  0  0  0  0  0  0
  151.4827  139.4499  155.8071 C   0  0  0  0  0  0  0  0  0  0  0  0
  151.1324  140.1385  154.8472 O   0  0  0  0  0  0  0  0  0  0  0  0
  152.2394  139.8568  156.8496 N   0  5  0  0  0  0  0  0  0  0  0  0
  151.9464  141.0040  157.4834 C   0  0  0  0  0  0  0  0  0  0  0  0
  151.0934  141.9099  156.9917 N   0  0  0  0  0  0  0  0  0  0  0  0
  150.9318  143.0246  157.8166 C   0  0  0  0  0  0  0  0  0  0  0  0
  151.6752  142.9633  158.9653 C   0  0  0  0  0  0  0  0  0  0  0  0
  152.6037  141.4933  159.0474 S   0  0  0  0  0  0  0  0  0  0  0  0
  149.0218  135.3022  154.4777 N   0  3  0  0  0  0  0  0  0  0  0  0
  149.2408  133.8548  154.2774 C   0  0  0  0  0  0  0  0  0  0  0  0
  147.9503  133.3495  153.6378 C   0  0  0  0  0  0  0  0  0  0  0  0
  146.8582  134.2667  154.1949 C   0  0  0  0  0  0  0  0  0  0  0  0
  147.6010  135.4265  154.8721 C   0  0  0  0  0  0  0  0  0  0  0  0
  150.3459  136.4255  157.4757 H   0  0  0  0  0  0  0  0  0  0  0  0
  149.6913  134.8260  157.2124 H   0  0  0  0  0  0  0  0  0  0  0  0
  148.6475  136.2365  157.0581 H   0  0  0  0  0  0  0  0  0  0  0  0
  150.9751  135.4645  155.2300 H   0  0  0  0  0  0  0  0  0  0  0  0
  150.6606  137.5155  153.9818 H   0  0  0  0  0  0  0  0  0  0  0  0
  149.2509  137.9724  154.8818 H   0  0  0  0  0  0  0  0  0  0  0  0
  151.4218  137.6494  156.6948 H   0  0  0  0  0  0  0  0  0  0  0  0
  150.2658  143.8163  157.5070 H   0  0  0  0  0  0  0  0  0  0  0  0
  151.7320  143.6869  159.7643 H   0  0  0  0  0  0  0  0  0  0  0  0
  150.1123  133.6367  153.6617 H   0  0  0  0  0  0  0  0  0  0  0  0
  149.3855  133.3691  155.2438 H   0  0  0  0  0  0  0  0  0  0  0  0
  148.0092  133.4662  152.5548 H   0  0  0  0  0  0  0  0  0  0  0  0
  147.7656  132.2956  153.8487 H   0  0  0  0  0  0  0  0  0  0  0  0
  146.2115  134.6245  153.3925 H   0  0  0  0  0  0  0  0  0  0  0  0
  146.2293  133.7419  154.9152 H   0  0  0  0  0  0  0  0  0  0  0  0
  147.5102  135.3245  155.9547 H   0  0  0  0  0  0  0  0  0  0  0  0
  147.1922  136.3965  154.5868 H   0  0  0  0  0  0  0  0  0  0  0  0
  149.0995  135.7333  153.5666 H   0  0  0  0  0  0  0  0  0  0  0  0
  1  2  1  0  0  0  0
  1 18  1  0  0  0  0
  1 19  1  0  0  0  0
  1 20  1  0  0  0  0
  2  3  1  0  0  0  0
  2 13  1  0  0  0  0
  2 21  1  0  0  0  0
  3  4  1  0  0  0  0
  3 22  1  0  0  0  0
  3 23  1  0  0  0  0
  4  5  1  0  0  0  0
  4 24  1  0  0  0  0
  5  6  2  0  0  0  0
  5  7  1  0  0  0  0
  7  8  1  0  0  0  0
  8 12  1  0  0  0  0
  8  9  2  0  0  0  0
  9 10  1  0  0  0  0
 10 11  2  0  0  0  0
 10 25  1  0  0  0  0
 11 12  1  0  0  0  0
 11 26  1  0  0  0  0
 13 17  1  0  0  0  0
 13 14  1  0  0  0  0
 13 35  1  0  0  0  0
 14 15  1  0  0  0  0
 14 27  1  0  0  0  0
 14 28  1  0  0  0  0
 15 16  1  0  0  0  0
 15 29  1  0  0  0  0
 15 30  1  0  0  0  0
 16 17  1  0  0  0  0
 16 31  1  0  0  0  0
 16 32  1  0  0  0  0
 17 33  1  0  0  0  0
 17 34  1  0  0  0  0
M  CHG  1   7  -1
M  CHG  1  13   1
M  END
> <s_m_source_file>
AV-unprocessed.smi

> <i_m_source_file_index>
1816

> <i_lp_mmshare_version>
43012

> <i_f3d_flags>
0

> <s_epik_input>
W0NIMl0xW0NIMl1bQ0gyXVtDSDJdTjFbQ0BIXShbQ0gzXSlbQ0gyXVtOSF1DKD1PKVtOSF1jMm5bY0hdW2NIXXMy

> <s_epik_cmdline>
J2VwaWtfcHl0aG9uJywgJy1waCcsICc3LjAnLCAnLXRuJywgJzgnLCAnLW1hJywgJzIwMCcsICctbWV0YWxfYmluZGluZycsICctaW1hZScsICc8aW5maWxlLm1hZT4nLCAnLW9tYWUnLCAnPG91dGZpbGUubWFlPic=

> <r_lp_tautomer_probability>
0.999

> <r_epik_Ionization_Penalty>
6.21769

> <r_epik_Ionization_Penalty_Charging>
5.38662

> <r_epik_Ionization_Penalty_Neutral>
0.831074

> <r_epik_State_Penalty>
5.38626

> <r_epik_Charging_Adjusted_Penalty>
10.7729

> <i_epik_Tot_Q>
0

> <i_epik_Tot_abs_Q>
2

> <r_epik_Metal_State_Penalty>
1.41347

> <b_epik_Metal_Only>
1

> <s_lp_Force_Field>
OPLS_2005

> <r_lp_Energy>
25.8125

> <b_lp_Chiralities_Consistent>
1

> <s_lp_Variant>
AV-unprocessed.smi:1816-3

> <Gold.Version>
5.8.1

> <Gold.Id.Protein>
6NUR|6NUR_protein|mol2

> <Gold.PLP.Fitness>
41.8548

> <Gold.PLP.PLP>
-25.8187

> <Gold.PLP.part.hbond>
-3.0000

> <Gold.PLP.part.metal>
0.0000

> <Gold.PLP.part.buried>
-4.9393

> <Gold.PLP.part.nonpolar>
-17.5489

> <Gold.PLP.part.repulsive>
0.2442

> <Gold.PLP.ligand.clash>
0.0000

> <Gold.PLP.ligand.torsion>
1.0798

> <Gold.PLP.Chemscore.Hbond>
5.0000

> <Gold.PLP.Chemscore.CHOScore>
1.0000

> <Gold.PLP.Chemscore.Metal>
0.0000

> <Gold.Chemscore.Hbonds>
donor molecule, donor type, donor heavy atom, donor atom, acceptor molecule, acceptor atom, score
      L1  H    13    35       P1  7948  2.00
      P1  H  7989  7998       L1     6  1.00
      P1  H  7997  8009       L1     7  1.24
      L1  C    10    25       P1  8028  1.00

> <Gold.PLP.Chemscore.Internal.Correction>
0.1958

> <Gold.Rescore>
     Score         DG    S(hbond)    S(metal)    S(lipo)     H(rot)  DE(clash)    DE(int)     intcor
     14.08     -16.73       2.57        0.00      57.14       1.57       0.01       2.64       ----

> <Gold.Chemscore.Fitness>
14.0831

> <Gold.Chemscore.DG>
-16.7317

> <Gold.Chemscore.ZeroCoef>
-5.4800

> <Gold.Chemscore.Hbond>
2.5713

> <Gold.Chemscore.Metal>
0.0000

> <Gold.Chemscore.Lipo>
57.1398

> <Gold.Chemscore.Internal_Hbond>
0.0000

> <Gold.Chemscore.DEClash>
0.0093

> <Gold.Chemscore.DEInternal>
2.6394

> <Gold.Chemscore.Rot>
1.5710

> <Gold.Chemscore.Internal.Correction>
   9.000000E+99

> <Gold.Chemscore.Hbonds>
donor molecule, donor type, donor heavy atom, donor atom, acceptor molecule, acceptor atom, score
      L1  H    13    35       P1  7948  0.78
      P1  H  7989  7998       L1     6  0.99
      P1  H  7997  8009       L1     7  0.18

> <Gold.Chemscore.Hbond.Weighted>
-8.5883

> <Gold.Chemscore.Metal.Weighted>
-0.0000

> <Gold.Chemscore.Lipo.Weighted>
-6.6854

> <Gold.Chemscore.Internal_Hbond.Weighted>
0.0000

> <Gold.Chemscore.DEClash.Weighted>
0.0093

> <Gold.Chemscore.DEInternal.Weighted>
2.6394

> <Gold.Chemscore.Rot.Weighted>
4.0219

> <Gold.Chemscore.Internal.Correction.Weighted>
   9.000000E+99

> <Gold.Protein.RotatedTorsions>
[ 6907 6896 6895 6894 ] final  141.26 input  -60.11 | X-H torsion
[ 7974 7965 7964 7962 ] final   20.43 input  175.53 | X-H torsion
[ 8008 7997 7996 7995 ] final -159.21 input   59.86 | X-H torsion
[ 10167 10162 10161 10158 ] final -162.18 input  -65.29 | X-H torsion
[ 10718 10713 10712 10709 ] final  -44.93 input   66.30 | X-H torsion
[ 10763 10752 10751 10750 ] final  119.45 input  -60.55 | X-H torsion
[ 11005 11000 10999 10996 ] final   84.46 input  -57.11 | X-H torsion

> <Gold.Protein.ActiveResidues>
 VAL166  LYS551  ARG553  GLY616  TRP617  ASP618  TYR619  PRO620  LYS621  CYS622 
 ASP623  PHE694  ASN695  SER759  ASP760  ASP761  ALA762  ILE779  LEU786  VAL792 
 PHE793  MET794  SER795  GLU796  ALA797  LYS798  CYS799  TRP800  GLU811  SER814 

> <Gold.Protein.RotatedAtoms>
  152.2332  133.5074  159.5227 H   0  0  0  0  0  0  0  0  0  0  0  0  # atno 6907 bound_to 6896
  150.7043  134.1189  159.4036 H   0  0  0  0  0  0  0  0  0  0  0  0  # atno 6908 bound_to 6896
  151.9110  135.0339  160.0565 H   0  0  0  0  0  0  0  0  0  0  0  0  # atno 6909 bound_to 6896
  146.2111  139.8171  142.8688 H   0  0  0  0  0  0  0  0  0  0  0  0  # atno 7974 bound_to 7965
  155.7591  140.0837  157.2164 H   0  0  0  0  0  0  0  0  0  0  0  0  # atno 8008 bound_to 7997
  154.4005  140.1546  156.2869 H   0  0  0  0  0  0  0  0  0  0  0  0  # atno 8009 bound_to 7997
  155.8856  140.3418  155.5922 H   0  0  0  0  0  0  0  0  0  0  0  0  # atno 8010 bound_to 7997
  139.6411  144.0258  152.2092 H   0  0  0  0  0  0  0  0  0  0  0  0  # atno 10167 bound_to 10162
  156.2335  130.4174  149.8846 H   0  0  0  0  0  0  0  0  0  0  0  0  # atno 10718 bound_to 10713
  153.5833  135.3480  155.2883 H   0  0  0  0  0  0  0  0  0  0  0  0  # atno 10763 bound_to 10752
  154.8664  135.4187  154.2597 H   0  0  0  0  0  0  0  0  0  0  0  0  # atno 10764 bound_to 10752
  153.3388  135.7048  153.6955 H   0  0  0  0  0  0  0  0  0  0  0  0  # atno 10765 bound_to 10752
  139.8999  134.8218  156.2449 H   0  0  0  0  0  0  0  0  0  0  0  0  # atno 11005 bound_to 11000
  145.3135  141.0226  143.3541 LP  0  0  0  0  0  0  0  0  0  0  0  0  # atno 17320 bound_to 7965
  144.8918  139.4764  143.6674 LP  0  0  0  0  0  0  0  0  0  0  0  0  # atno 17321 bound_to 7965
  139.9948  144.6336  150.7782 LP  0  0  0  0  0  0  0  0  0  0  0  0  # atno 17342 bound_to 10162
  140.7491  143.2933  151.3271 LP  0  0  0  0  0  0  0  0  0  0  0  0  # atno 17343 bound_to 10162
  156.6452  130.8721  151.3521 LP  0  0  0  0  0  0  0  0  0  0  0  0  # atno 17370 bound_to 10713
  157.7144  130.9479  150.1201 LP  0  0  0  0  0  0  0  0  0  0  0  0  # atno 17371 bound_to 10713
  141.0261  133.7014  156.1350 LP  0  0  0  0  0  0  0  0  0  0  0  0  # atno 17394 bound_to 11000
  140.7164  134.4406  157.5578 LP  0  0  0  0  0  0  0  0  0  0  0  0  # atno 17395 bound_to 11000

$$$$
