AV-unprocessed.smi:3290|AV-procd|sdf|12611|dock9
  -GOLD-   2272018543D 1   1.00000     0.00000
 Structure written by MMmdl.
 43 44  0  0  0  0  0  0  0  0  2 V2000
  149.5215  141.2990  155.9798 C   0  0  0  0  0  0  0  0  0  0  0  0
  150.1726  139.9160  155.7971 C   0  0  2  0  0  0  0  0  0  0  0  0
  151.6979  140.0359  156.0026 C   0  0  0  0  0  0  0  0  0  0  0  0
  152.4056  138.6797  155.8831 C   0  0  0  0  0  0  0  0  0  0  0  0
  152.0982  138.0235  154.5331 C   0  0  0  0  0  0  0  0  0  0  0  0
  150.5837  137.8856  154.3268 C   0  0  0  0  0  0  0  0  0  0  0  0
  149.8511  139.2428  154.4291 C   0  0  1  0  0  0  0  0  0  0  0  0
  148.3404  139.0239  154.1861 C   0  0  0  0  0  0  0  0  0  0  0  0
  148.0531  138.5768  152.8084 N   0  3  0  0  0  0  0  0  0  0  0  0
  146.6287  138.2792  152.5577 C   0  0  0  0  0  0  0  0  0  0  0  0
  146.4553  137.2497  151.4280 C   0  0  2  0  0  0  0  0  0  0  0  0
  146.4317  137.9325  150.1891 O   0  0  0  0  0  0  0  0  0  0  0  0
  145.2011  136.4156  151.6374 C   0  0  0  0  0  0  0  0  0  0  0  0
  145.0005  135.2281  150.9025 C   0  0  0  0  0  0  0  0  0  0  0  0
  143.8289  134.4803  151.1361 C   0  0  0  0  0  0  0  0  0  0  0  0
  142.8856  134.8409  152.0321 N   0  0  0  0  0  0  0  0  0  0  0  0
  143.0824  135.9771  152.7342 C   0  0  0  0  0  0  0  0  0  0  0  0
  144.2181  136.7964  152.5770 C   0  0  0  0  0  0  0  0  0  0  0  0
  149.7853  141.9747  155.1654 H   0  0  0  0  0  0  0  0  0  0  0  0
  149.8469  141.7635  156.9111 H   0  0  0  0  0  0  0  0  0  0  0  0
  148.4354  141.2324  156.0309 H   0  0  0  0  0  0  0  0  0  0  0  0
  149.7871  139.2714  156.5888 H   0  0  0  0  0  0  0  0  0  0  0  0
  152.1156  140.7279  155.2696 H   0  0  0  0  0  0  0  0  0  0  0  0
  151.9106  140.4635  156.9832 H   0  0  0  0  0  0  0  0  0  0  0  0
  153.4822  138.8094  155.9979 H   0  0  0  0  0  0  0  0  0  0  0  0
  152.0838  138.0242  156.6934 H   0  0  0  0  0  0  0  0  0  0  0  0
  152.5272  138.6201  153.7270 H   0  0  0  0  0  0  0  0  0  0  0  0
  152.5727  137.0431  154.4797 H   0  0  0  0  0  0  0  0  0  0  0  0
  150.4002  137.4334  153.3514 H   0  0  0  0  0  0  0  0  0  0  0  0
  150.1796  137.1925  155.0662 H   0  0  0  0  0  0  0  0  0  0  0  0
  150.2389  139.8764  153.6293 H   0  0  0  0  0  0  0  0  0  0  0  0
  147.9599  138.2527  154.8575 H   0  0  0  0  0  0  0  0  0  0  0  0
  147.7849  139.9355  154.4108 H   0  0  0  0  0  0  0  0  0  0  0  0
  148.3355  139.3082  152.1712 H   0  0  0  0  0  0  0  0  0  0  0  0
  146.1884  137.8939  153.4787 H   0  0  0  0  0  0  0  0  0  0  0  0
  146.1013  139.2027  152.3127 H   0  0  0  0  0  0  0  0  0  0  0  0
  147.3167  136.5802  151.4143 H   0  0  0  0  0  0  0  0  0  0  0  0
  145.6471  138.4590  150.1522 H   0  0  0  0  0  0  0  0  0  0  0  0
  145.7248  134.8916  150.1753 H   0  0  0  0  0  0  0  0  0  0  0  0
  143.6462  133.5668  150.5896 H   0  0  0  0  0  0  0  0  0  0  0  0
  142.3133  136.2404  153.4450 H   0  0  0  0  0  0  0  0  0  0  0  0
  144.3280  137.6941  153.1678 H   0  0  0  0  0  0  0  0  0  0  0  0
  148.5995  137.7504  152.6127 H   0  0  0  0  0  0  0  0  0  0  0  0
  1  2  1  0  0  0  0
  1 19  1  0  0  0  0
  1 20  1  0  0  0  0
  1 21  1  0  0  0  0
  2  7  1  0  0  0  0
  2  3  1  0  0  0  0
  2 22  1  0  0  0  0
  3  4  1  0  0  0  0
  3 23  1  0  0  0  0
  3 24  1  0  0  0  0
  4  5  1  0  0  0  0
  4 25  1  0  0  0  0
  4 26  1  0  0  0  0
  5  6  1  0  0  0  0
  5 27  1  0  0  0  0
  5 28  1  0  0  0  0
  6  7  1  0  0  0  0
  6 29  1  0  0  0  0
  6 30  1  0  0  0  0
  7  8  1  0  0  0  0
  7 31  1  0  0  0  0
  8  9  1  0  0  0  0
  8 32  1  0  0  0  0
  8 33  1  0  0  0  0
  9 10  1  0  0  0  0
  9 34  1  0  0  0  0
  9 43  1  0  0  0  0
 10 11  1  0  0  0  0
 10 35  1  0  0  0  0
 10 36  1  0  0  0  0
 11 12  1  0  0  0  0
 11 13  1  0  0  0  0
 11 37  1  0  0  0  0
 12 38  1  0  0  0  0
 13 18  1  0  0  0  0
 13 14  2  0  0  0  0
 14 15  1  0  0  0  0
 14 39  1  0  0  0  0
 15 16  2  0  0  0  0
 15 40  1  0  0  0  0
 16 17  1  0  0  0  0
 17 18  2  0  0  0  0
 17 41  1  0  0  0  0
 18 42  1  0  0  0  0
M  CHG  1   9   1
M  END
> <s_m_source_file>
AV-unprocessed.smi

> <i_m_source_file_index>
3290

> <i_lp_mmshare_version>
43012

> <i_f3d_flags>
0

> <s_epik_input>
W0NIM11bQ0BASF0xW0NIMl1bQ0gyXVtDSDJdW0NIMl1bQ0BIXTFbQ0gyXVtOSF1bQ0gyXVtDQEhdKFtPSF0pYzJbY0hdW2NIXW5bY0hdW2NIXTI=

> <s_epik_cmdline>
J2VwaWtfcHl0aG9uJywgJy1waCcsICc3LjAnLCAnLXRuJywgJzgnLCAnLW1hJywgJzIwMCcsICctbWV0YWxfYmluZGluZycsICctaW1hZScsICc8aW5maWxlLm1hZT4nLCAnLW9tYWUnLCAnPG91dGZpbGUubWFlPic=

> <r_lp_tautomer_probability>
1

> <r_epik_Ionization_Penalty>
0.00420552

> <r_epik_Ionization_Penalty_Charging>
0.00207255

> <r_epik_Ionization_Penalty_Neutral>
0.00213297

> <r_epik_State_Penalty>
-0

> <r_epik_Charging_Adjusted_Penalty>
0.00207255

> <i_epik_Tot_Q>
1

> <i_epik_Tot_abs_Q>
1

> <r_epik_Metal_State_Penalty>
-0

> <b_epik_Metal_Only>
0

> <s_lp_Force_Field>
OPLS_2005

> <r_lp_Energy>
17.3626

> <b_lp_Chiralities_Consistent>
1

> <s_lp_Variant>
AV-unprocessed.smi:3290-1

> <Gold.Version>
5.8.1

> <Gold.Id.Protein>
6NUR|6NUR_protein|mol2

> <Gold.PLP.Fitness>
50.1804

> <Gold.PLP.PLP>
-37.4789

> <Gold.PLP.part.hbond>
-4.0000

> <Gold.PLP.part.metal>
0.0000

> <Gold.PLP.part.buried>
-0.7404

> <Gold.PLP.part.nonpolar>
-34.8915

> <Gold.PLP.part.repulsive>
0.2807

> <Gold.PLP.ligand.clash>
0.0000

> <Gold.PLP.ligand.torsion>
0.8226

> <Gold.PLP.Chemscore.Hbond>
4.7600

> <Gold.PLP.Chemscore.CHOScore>
0.0000

> <Gold.PLP.Chemscore.Metal>
0.0000

> <Gold.Chemscore.Hbonds>
donor molecule, donor type, donor heavy atom, donor atom, acceptor molecule, acceptor atom, score
      L1  H     9    34       P1  7957  0.98
      L1  H     9    43       P1  7948  2.00
      L1  H    12    38       P1 10171  0.99
      P1  H  7954  7966       L1    12  0.66

> <Gold.PLP.Chemscore.Internal.Correction>
0.0667

> <Gold.Rescore>
     Score         DG    S(hbond)    S(metal)    S(lipo)     H(rot)  DE(clash)    DE(int)     intcor
     21.52     -23.49       3.74        0.00      92.00       2.05       1.45       0.52       ----

> <Gold.Chemscore.Fitness>
21.5218

> <Gold.Chemscore.DG>
-23.4926

> <Gold.Chemscore.ZeroCoef>
-5.4800

> <Gold.Chemscore.Hbond>
3.7414

> <Gold.Chemscore.Metal>
0.0000

> <Gold.Chemscore.Lipo>
91.9984

> <Gold.Chemscore.Internal_Hbond>
0.0000

> <Gold.Chemscore.DEClash>
1.4471

> <Gold.Chemscore.DEInternal>
0.5237

> <Gold.Chemscore.Rot>
2.0498

> <Gold.Chemscore.Internal.Correction>
   9.000000E+99

> <Gold.Chemscore.Hbonds>
donor molecule, donor type, donor heavy atom, donor atom, acceptor molecule, acceptor atom, score
      L1  H     9    34       P1  7957  0.93
      L1  H     9    43       P1  7948  0.98
      L1  H    12    38       P1 10171  0.94
      P1  H  7954  7966       L1    12  0.13

> <Gold.Chemscore.Hbond.Weighted>
-12.4963

> <Gold.Chemscore.Metal.Weighted>
-0.0000

> <Gold.Chemscore.Lipo.Weighted>
-10.7638

> <Gold.Chemscore.Internal_Hbond.Weighted>
0.0000

> <Gold.Chemscore.DEClash.Weighted>
1.4471

> <Gold.Chemscore.DEInternal.Weighted>
0.5237

> <Gold.Chemscore.Rot.Weighted>
5.2475

> <Gold.Chemscore.Internal.Correction.Weighted>
   9.000000E+99

> <Gold.Protein.RotatedTorsions>
[ 6907 6896 6895 6894 ] final  104.95 input  -60.11 | X-H torsion
[ 7974 7965 7964 7962 ] final   58.09 input  175.53 | X-H torsion
[ 8008 7997 7996 7995 ] final  132.38 input   59.86 | X-H torsion
[ 10167 10162 10161 10158 ] final   42.27 input  -65.29 | X-H torsion
[ 10718 10713 10712 10709 ] final  -68.54 input   66.30 | X-H torsion
[ 10763 10752 10751 10750 ] final  111.51 input  -60.55 | X-H torsion
[ 11005 11000 10999 10996 ] final   64.66 input  -57.11 | X-H torsion

> <Gold.Protein.ActiveResidues>
 VAL166  LYS551  ARG553  GLY616  TRP617  ASP618  TYR619  PRO620  LYS621  CYS622 
 ASP623  PHE694  ASN695  SER759  ASP760  ASP761  ALA762  ILE779  LEU786  VAL792 
 PHE793  MET794  SER795  GLU796  ALA797  LYS798  CYS799  TRP800  GLU811  SER814 

> <Gold.Protein.RotatedAtoms>
  152.5247  133.9600  159.7712 H   0  0  0  0  0  0  0  0  0  0  0  0  # atno 6907 bound_to 6896
  150.9893  133.6158  159.2718 H   0  0  0  0  0  0  0  0  0  0  0  0  # atno 6908 bound_to 6896
  151.3307  135.0847  159.9390 H   0  0  0  0  0  0  0  0  0  0  0  0  # atno 6909 bound_to 6896
  145.9220  139.3737  143.0472 H   0  0  0  0  0  0  0  0  0  0  0  0  # atno 7974 bound_to 7965
  156.2982  140.2548  156.3079 H   0  0  0  0  0  0  0  0  0  0  0  0  # atno 8008 bound_to 7997
  154.9354  140.0397  157.2088 H   0  0  0  0  0  0  0  0  0  0  0  0  # atno 8009 bound_to 7997
  154.8177  140.2855  155.5812 H   0  0  0  0  0  0  0  0  0  0  0  0  # atno 8010 bound_to 7997
  140.3560  144.2289  150.6141 H   0  0  0  0  0  0  0  0  0  0  0  0  # atno 10167 bound_to 10162
  156.0500  130.4296  150.2016 H   0  0  0  0  0  0  0  0  0  0  0  0  # atno 10718 bound_to 10713
  153.4644  135.3715  155.2356 H   0  0  0  0  0  0  0  0  0  0  0  0  # atno 10763 bound_to 10752
  154.8757  135.3916  154.3887 H   0  0  0  0  0  0  0  0  0  0  0  0  # atno 10764 bound_to 10752
  153.4465  135.7085  153.6200 H   0  0  0  0  0  0  0  0  0  0  0  0  # atno 10765 bound_to 10752
  139.9945  134.6539  156.0034 H   0  0  0  0  0  0  0  0  0  0  0  0  # atno 11005 bound_to 11000
  145.8537  140.9514  143.0736 LP  0  0  0  0  0  0  0  0  0  0  0  0  # atno 17320 bound_to 7965
  144.6754  140.0440  143.7480 LP  0  0  0  0  0  0  0  0  0  0  0  0  # atno 17321 bound_to 7965
  140.5173  143.2275  151.8443 LP  0  0  0  0  0  0  0  0  0  0  0  0  # atno 17342 bound_to 10162
  139.4820  144.4879  151.9223 LP  0  0  0  0  0  0  0  0  0  0  0  0  # atno 17343 bound_to 10162
  157.0100  130.9948  151.3368 LP  0  0  0  0  0  0  0  0  0  0  0  0  # atno 17370 bound_to 10713
  157.5416  130.8124  149.8036 LP  0  0  0  0  0  0  0  0  0  0  0  0  # atno 17371 bound_to 10713
  141.1593  133.6540  156.4264 LP  0  0  0  0  0  0  0  0  0  0  0  0  # atno 17394 bound_to 11000
  140.4845  134.6633  157.5185 LP  0  0  0  0  0  0  0  0  0  0  0  0  # atno 17395 bound_to 11000

$$$$
