AV-unprocessed.smi:671|AV-procd|sdf|3288|dock6
  -GOLD-   22720 0243D 1   1.00000     0.00000
 Structure written by MMmdl.
 50 51  0  0  0  0  0  0  0  0  2 V2000
  145.7087  140.8462  156.9478 C   0  0  0  0  0  0  0  0  0  0  0  0
  145.3213  141.9929  156.0755 C   0  0  0  0  0  0  0  0  0  0  0  0
  144.3254  142.8731  156.3645 N   0  3  0  0  0  0  0  0  0  0  0  0
  144.2144  143.7853  155.3885 N   0  0  0  0  0  0  0  0  0  0  0  0
  143.1944  144.8267  155.5114 C   0  0  0  0  0  0  0  0  0  0  0  0
  145.1379  143.5471  154.4140 C   0  0  0  0  0  0  0  0  0  0  0  0
  145.2953  144.3688  153.1759 C   0  0  0  0  0  0  0  0  0  0  0  0
  145.8423  142.4158  154.8467 C   0  0  0  0  0  0  0  0  0  0  0  0
  146.9724  141.7590  154.1047 C   0  0  0  0  0  0  0  0  0  0  0  0
  148.0090  141.0939  155.0385 C   0  0  1  0  0  0  0  0  0  0  0  0
  148.9384  140.1239  154.2925 C   0  0  0  0  0  0  0  0  0  0  0  0
  148.8254  142.1156  155.6990 N   0  0  0  0  0  0  0  0  0  0  0  0
  149.9377  141.9444  156.4376 C   0  0  0  0  0  0  0  0  0  0  0  0
  150.4130  140.8299  156.6437 O   0  0  0  0  0  0  0  0  0  0  0  0
  150.4687  143.0819  156.9161 N   0  0  0  0  0  0  0  0  0  0  0  0
  151.6874  143.1986  157.7110 C   0  0  1  0  0  0  0  0  0  0  0  0
  151.9722  144.6762  158.0444 C   0  0  0  0  0  0  0  0  0  0  0  0
  151.7797  144.8192  159.5551 C   0  0  0  0  0  0  0  0  0  0  0  0
  152.1050  143.4353  160.1069 C   0  0  0  0  0  0  0  0  0  0  0  0
  151.5272  142.4737  159.0646 C   0  0  2  0  0  0  0  0  0  0  0  0
  152.1644  141.0778  159.0976 C   0  0  0  0  0  0  0  0  0  0  0  0
  145.6670  139.9135  156.3848 H   0  0  0  0  0  0  0  0  0  0  0  0
  145.0339  140.7661  157.8005 H   0  0  0  0  0  0  0  0  0  0  0  0
  146.7234  140.9828  157.3214 H   0  0  0  0  0  0  0  0  0  0  0  0
  142.9805  145.2489  154.5294 H   0  0  0  0  0  0  0  0  0  0  0  0
  143.5636  145.6106  156.1731 H   0  0  0  0  0  0  0  0  0  0  0  0
  142.2800  144.3978  155.9235 H   0  0  0  0  0  0  0  0  0  0  0  0
  146.1653  144.0497  152.6040 H   0  0  0  0  0  0  0  0  0  0  0  0
  145.4218  145.4204  153.4339 H   0  0  0  0  0  0  0  0  0  0  0  0
  144.4133  144.2675  152.5435 H   0  0  0  0  0  0  0  0  0  0  0  0
  146.5872  141.0165  153.4050 H   0  0  0  0  0  0  0  0  0  0  0  0
  147.4629  142.5068  153.4804 H   0  0  0  0  0  0  0  0  0  0  0  0
  147.4868  140.5136  155.8009 H   0  0  0  0  0  0  0  0  0  0  0  0
  148.3799  139.3036  153.8416 H   0  0  0  0  0  0  0  0  0  0  0  0
  149.6683  139.6816  154.9713 H   0  0  0  0  0  0  0  0  0  0  0  0
  149.4883  140.6309  153.4986 H   0  0  0  0  0  0  0  0  0  0  0  0
  148.4971  143.0660  155.6030 H   0  0  0  0  0  0  0  0  0  0  0  0
  149.9933  143.9452  156.6994 H   0  0  0  0  0  0  0  0  0  0  0  0
  152.5467  142.7949  157.1722 H   0  0  0  0  0  0  0  0  0  0  0  0
  153.0067  144.9089  157.7880 H   0  0  0  0  0  0  0  0  0  0  0  0
  151.3428  145.3741  157.4901 H   0  0  0  0  0  0  0  0  0  0  0  0
  152.4052  145.6016  159.9858 H   0  0  0  0  0  0  0  0  0  0  0  0
  150.7402  145.0658  159.7731 H   0  0  0  0  0  0  0  0  0  0  0  0
  153.1875  143.3149  160.1725 H   0  0  0  0  0  0  0  0  0  0  0  0
  151.6911  143.2734  161.1027 H   0  0  0  0  0  0  0  0  0  0  0  0
  150.4632  142.3676  159.2862 H   0  0  0  0  0  0  0  0  0  0  0  0
  153.2362  141.1254  158.9024 H   0  0  0  0  0  0  0  0  0  0  0  0
  151.7171  140.4275  158.3451 H   0  0  0  0  0  0  0  0  0  0  0  0
  152.0238  140.6065  160.0707 H   0  0  0  0  0  0  0  0  0  0  0  0
  143.7175  142.8955  157.1736 H   0  0  0  0  0  0  0  0  0  0  0  0
  1  2  1  0  0  0  0
  1 22  1  0  0  0  0
  1 23  1  0  0  0  0
  1 24  1  0  0  0  0
  2  8  1  0  0  0  0
  2  3  2  0  0  0  0
  3  4  1  0  0  0  0
  3 50  1  0  0  0  0
  4  5  1  0  0  0  0
  4  6  1  0  0  0  0
  5 25  1  0  0  0  0
  5 26  1  0  0  0  0
  5 27  1  0  0  0  0
  6  7  1  0  0  0  0
  6  8  2  0  0  0  0
  7 28  1  0  0  0  0
  7 29  1  0  0  0  0
  7 30  1  0  0  0  0
  8  9  1  0  0  0  0
  9 10  1  0  0  0  0
  9 31  1  0  0  0  0
  9 32  1  0  0  0  0
 10 11  1  0  0  0  0
 10 12  1  0  0  0  0
 10 33  1  0  0  0  0
 11 34  1  0  0  0  0
 11 35  1  0  0  0  0
 11 36  1  0  0  0  0
 12 13  1  0  0  0  0
 12 37  1  0  0  0  0
 13 14  2  0  0  0  0
 13 15  1  0  0  0  0
 15 16  1  0  0  0  0
 15 38  1  0  0  0  0
 16 20  1  0  0  0  0
 16 17  1  0  0  0  0
 16 39  1  0  0  0  0
 17 18  1  0  0  0  0
 17 40  1  0  0  0  0
 17 41  1  0  0  0  0
 18 19  1  0  0  0  0
 18 42  1  0  0  0  0
 18 43  1  0  0  0  0
 19 20  1  0  0  0  0
 19 44  1  0  0  0  0
 19 45  1  0  0  0  0
 20 21  1  0  0  0  0
 20 46  1  0  0  0  0
 21 47  1  0  0  0  0
 21 48  1  0  0  0  0
 21 49  1  0  0  0  0
M  CHG  1   3   1
M  END
> <s_m_source_file>
AV-unprocessed.smi

> <i_m_source_file_index>
671

> <i_lp_mmshare_version>
43012

> <i_f3d_flags>
0

> <s_epik_input>
W0NIM11jMW5uKFtDSDNdKWMoW0NIM10pYzFbQ0gyXVtDQEhdKFtDSDNdKVtOSF1DKD1PKVtOSF1bQ0BASF0yW0NIMl1bQ0gyXVtDSDJdW0NASF0yW0NIM10=

> <s_epik_cmdline>
J2VwaWtfcHl0aG9uJywgJy1waCcsICc3LjAnLCAnLXRuJywgJzgnLCAnLW1hJywgJzIwMCcsICctbWV0YWxfYmluZGluZycsICctaW1hZScsICc8aW5maWxlLm1hZT4nLCAnLW9tYWUnLCAnPG91dGZpbGUubWFlPic=

> <r_lp_tautomer_probability>
1

> <r_epik_Ionization_Penalty>
2.28705

> <r_epik_Ionization_Penalty_Charging>
2.28698

> <r_epik_Ionization_Penalty_Neutral>
6.23157e-05

> <r_epik_State_Penalty>
2.43671

> <r_epik_Charging_Adjusted_Penalty>
4.72369

> <i_epik_Tot_Q>
1

> <i_epik_Tot_abs_Q>
1

> <r_epik_Metal_State_Penalty>
2.44911

> <b_epik_Metal_Only>
0

> <s_lp_Force_Field>
OPLS_2005

> <r_lp_Energy>
34.8229

> <b_lp_Chiralities_Consistent>
1

> <s_lp_Variant>
AV-unprocessed.smi:671-16

> <Gold.Version>
5.8.1

> <Gold.Id.Protein>
6NUR|6NUR_protein|mol2

> <Gold.PLP.Fitness>
48.5818

> <Gold.PLP.PLP>
-43.8651

> <Gold.PLP.part.hbond>
-2.0000

> <Gold.PLP.part.metal>
0.0000

> <Gold.PLP.part.buried>
-5.9140

> <Gold.PLP.part.nonpolar>
-36.0765

> <Gold.PLP.part.repulsive>
0.1994

> <Gold.PLP.ligand.clash>
0.0107

> <Gold.PLP.ligand.torsion>
0.6060

> <Gold.PLP.Chemscore.Hbond>
1.9600

> <Gold.PLP.Chemscore.CHOScore>
0.0000

> <Gold.PLP.Chemscore.Metal>
0.0000

> <Gold.Chemscore.Hbonds>
donor molecule, donor type, donor heavy atom, donor atom, acceptor molecule, acceptor atom, score
      L1  H    12    37       P1  8028  0.96
      L1  H    15    38       P1  8028  0.94

> <Gold.PLP.Chemscore.Internal.Correction>
0.0593

> <Gold.Rescore>
     Score         DG    S(hbond)    S(metal)    S(lipo)     H(rot)  DE(clash)    DE(int)     intcor
     17.97     -21.10       1.90        0.00     112.09       1.51       0.08       3.05       ----

> <Gold.Chemscore.Fitness>
17.9709

> <Gold.Chemscore.DG>
-21.0960

> <Gold.Chemscore.ZeroCoef>
-5.4800

> <Gold.Chemscore.Hbond>
1.9030

> <Gold.Chemscore.Metal>
0.0000

> <Gold.Chemscore.Lipo>
112.0918

> <Gold.Chemscore.Internal_Hbond>
0.0000

> <Gold.Chemscore.DEClash>
0.0765

> <Gold.Chemscore.DEInternal>
3.0486

> <Gold.Chemscore.Rot>
1.5057

> <Gold.Chemscore.Internal.Correction>
   9.000000E+99

> <Gold.Chemscore.Hbonds>
donor molecule, donor type, donor heavy atom, donor atom, acceptor molecule, acceptor atom, score
      L1  H    12    37       P1  8028  0.92
      L1  H    15    38       P1  8028  0.90

> <Gold.Chemscore.Hbond.Weighted>
-6.3560

> <Gold.Chemscore.Metal.Weighted>
-0.0000

> <Gold.Chemscore.Lipo.Weighted>
-13.1147

> <Gold.Chemscore.Internal_Hbond.Weighted>
0.0000

> <Gold.Chemscore.DEClash.Weighted>
0.0765

> <Gold.Chemscore.DEInternal.Weighted>
3.0486

> <Gold.Chemscore.Rot.Weighted>
3.8547

> <Gold.Chemscore.Internal.Correction.Weighted>
   9.000000E+99

> <Gold.Protein.RotatedTorsions>
[ 6907 6896 6895 6894 ] final  -20.64 input  -60.11 | X-H torsion
[ 7974 7965 7964 7962 ] final  -73.29 input  175.53 | X-H torsion
[ 8008 7997 7996 7995 ] final  122.18 input   59.86 | X-H torsion
[ 10167 10162 10161 10158 ] final   15.49 input  -65.29 | X-H torsion
[ 10718 10713 10712 10709 ] final  162.44 input   66.30 | X-H torsion
[ 10763 10752 10751 10750 ] final -114.52 input  -60.55 | X-H torsion
[ 11005 11000 10999 10996 ] final   -5.83 input  -57.11 | X-H torsion

> <Gold.Protein.ActiveResidues>
 VAL166  LYS551  ARG553  GLY616  TRP617  ASP618  TYR619  PRO620  LYS621  CYS622 
 ASP623  PHE694  ASN695  SER759  ASP760  ASP761  ALA762  ILE779  LEU786  VAL792 
 PHE793  MET794  SER795  GLU796  ALA797  LYS798  CYS799  TRP800  GLU811  SER814 

> <Gold.Protein.RotatedAtoms>
  151.2452  135.0603  159.9040 H   0  0  0  0  0  0  0  0  0  0  0  0  # atno 6907 bound_to 6896
  152.5388  134.0391  159.8070 H   0  0  0  0  0  0  0  0  0  0  0  0  # atno 6908 bound_to 6896
  151.0591  133.5510  159.2667 H   0  0  0  0  0  0  0  0  0  0  0  0  # atno 6909 bound_to 6896
  145.6540  140.9273  143.0969 H   0  0  0  0  0  0  0  0  0  0  0  0  # atno 7974 bound_to 7965
  156.2717  140.2791  156.1426 H   0  0  0  0  0  0  0  0  0  0  0  0  # atno 8008 bound_to 7997
  155.0937  140.0389  157.2694 H   0  0  0  0  0  0  0  0  0  0  0  0  # atno 8009 bound_to 7997
  154.6869  140.2621  155.6857 H   0  0  0  0  0  0  0  0  0  0  0  0  # atno 8010 bound_to 7997
  140.5864  143.8882  150.6834 H   0  0  0  0  0  0  0  0  0  0  0  0  # atno 10167 bound_to 10162
  157.1224  131.0496  151.2409 H   0  0  0  0  0  0  0  0  0  0  0  0  # atno 10718 bound_to 10713
  154.8443  135.4415  154.1518 H   0  0  0  0  0  0  0  0  0  0  0  0  # atno 10763 bound_to 10752
  153.2677  135.6942  153.7519 H   0  0  0  0  0  0  0  0  0  0  0  0  # atno 10764 bound_to 10752
  153.6771  135.3409  155.3144 H   0  0  0  0  0  0  0  0  0  0  0  0  # atno 10765 bound_to 10752
  140.6954  133.9035  155.8646 H   0  0  0  0  0  0  0  0  0  0  0  0  # atno 11005 bound_to 11000
  144.7112  139.8363  143.7414 LP  0  0  0  0  0  0  0  0  0  0  0  0  # atno 17320 bound_to 7965
  146.1180  139.4194  143.0246 LP  0  0  0  0  0  0  0  0  0  0  0  0  # atno 17321 bound_to 7965
  140.2394  143.3675  152.1499 LP  0  0  0  0  0  0  0  0  0  0  0  0  # atno 17342 bound_to 10162
  139.5200  144.7027  151.5446 LP  0  0  0  0  0  0  0  0  0  0  0  0  # atno 17343 bound_to 10162
  157.4464  130.7573  149.7113 LP  0  0  0  0  0  0  0  0  0  0  0  0  # atno 17370 bound_to 10713
  155.9825  130.4009  150.3411 LP  0  0  0  0  0  0  0  0  0  0  0  0  # atno 17371 bound_to 10713
  141.0207  134.0892  157.4123 LP  0  0  0  0  0  0  0  0  0  0  0  0  # atno 17394 bound_to 11000
  139.8911  135.0117  156.6776 LP  0  0  0  0  0  0  0  0  0  0  0  0  # atno 17395 bound_to 11000

$$$$
