AV-unprocessed.smi:66|AV-procd|sdf|619|dock9
  -GOLD-   2262016513D 1   1.00000     0.00000
 Structure written by MMmdl.
 28 30  0  0  0  0  0  0  0  0  2 V2000
  153.0073  136.6812  159.0914 O   0  0  0  0  0  0  0  0  0  0  0  0
  153.1671  137.6085  158.2681 C   0  0  0  0  0  0  0  0  0  0  0  0
  154.1839  138.3325  158.1783 O   0  5  0  0  0  0  0  0  0  0  0  0
  152.0117  137.8748  157.2950 C   0  0  2  0  0  0  0  0  0  0  0  0
  151.6248  136.6296  156.4746 C   0  0  0  0  0  0  0  0  0  0  0  0
  151.1327  137.2199  155.1593 C   0  0  2  0  0  0  0  0  0  0  0  0
  151.1808  136.2954  154.0931 O   0  0  0  0  0  0  0  0  0  0  0  0
  152.0927  138.3889  154.9641 C   0  0  0  0  0  0  0  0  0  0  0  0
  152.3520  138.9055  156.3064 N   0  0  0  0  0  0  0  0  0  0  0  0
  151.8695  140.1328  156.6188 C   0  0  0  0  0  0  0  0  0  0  0  0
  151.0349  140.7801  155.7606 N   0  0  0  0  0  0  0  0  0  0  0  0
  150.5366  141.9778  156.0843 C   0  0  0  0  0  0  0  0  0  0  0  0
  150.7332  142.6939  157.1944 N   0  0  0  0  0  0  0  0  0  0  0  0
  151.5640  142.0421  158.0554 C   0  0  0  0  0  0  0  0  0  0  0  0
  151.9980  142.4527  159.2980 N   0  0  0  0  0  0  0  0  0  0  0  0
  152.8149  141.4510  159.7639 C   0  0  0  0  0  0  0  0  0  0  0  0
  152.9569  140.4392  158.9508 N   0  0  0  0  0  0  0  0  0  0  0  0
  152.1717  140.7717  157.8516 C   0  0  0  0  0  0  0  0  0  0  0  0
  151.7315  143.3262  159.7282 H   0  0  0  0  0  0  0  0  0  0  0  0
  151.1387  138.1970  157.8669 H   0  0  0  0  0  0  0  0  0  0  0  0
  152.4927  135.9925  156.2931 H   0  0  0  0  0  0  0  0  0  0  0  0
  150.8658  136.0233  156.9696 H   0  0  0  0  0  0  0  0  0  0  0  0
  150.1133  137.5905  155.2772 H   0  0  0  0  0  0  0  0  0  0  0  0
  151.0985  136.7718  153.2814 H   0  0  0  0  0  0  0  0  0  0  0  0
  153.0449  138.0395  154.5618 H   0  0  0  0  0  0  0  0  0  0  0  0
  151.7048  139.1276  154.2613 H   0  0  0  0  0  0  0  0  0  0  0  0
  149.8840  142.4252  155.3493 H   0  0  0  0  0  0  0  0  0  0  0  0
  153.3038  141.4951  160.7260 H   0  0  0  0  0  0  0  0  0  0  0  0
  1  2  2  0  0  0  0
  2  3  1  0  0  0  0
  2  4  1  0  0  0  0
  4  5  1  0  0  0  0
  4 20  1  0  0  0  0
  4  9  1  0  0  0  0
  5  6  1  0  0  0  0
  5 21  1  0  0  0  0
  5 22  1  0  0  0  0
  6  7  1  0  0  0  0
  6  8  1  0  0  0  0
  6 23  1  0  0  0  0
  7 24  1  0  0  0  0
  8 25  1  0  0  0  0
  8 26  1  0  0  0  0
  8  9  1  0  0  0  0
  9 10  1  0  0  0  0
 10 11  1  0  0  0  0
 10 18  2  0  0  0  0
 11 12  2  0  0  0  0
 12 27  1  0  0  0  0
 12 13  1  0  0  0  0
 13 14  2  0  0  0  0
 14 15  1  0  0  0  0
 14 18  1  0  0  0  0
 15 16  1  0  0  0  0
 15 19  1  0  0  0  0
 16 17  2  0  0  0  0
 16 28  1  0  0  0  0
 17 18  1  0  0  0  0
M  CHG  1   3  -1
M  END
> <s_m_source_file>
AV-unprocessed.smi

> <i_m_source_file_index>
66

> <i_lp_mmshare_version>
43012

> <i_f3d_flags>
0

> <s_epik_input>
Tz1DKFtPSF0pW0NAQEhdMVtDSDJdW0NAQEhdKFtPSF0pW0NIMl1OMWMobltjSF1uMiljKGMyMylbbkhdW2NIXW4z

> <s_epik_cmdline>
J2VwaWtfcHl0aG9uJywgJy1waCcsICc3LjAnLCAnLXRuJywgJzgnLCAnLW1hJywgJzIwMCcsICctbWV0YWxfYmluZGluZycsICctaW1hZScsICc8aW5maWxlLm1hZT4nLCAnLW9tYWUnLCAnPG91dGZpbGUubWFlPic=

> <r_lp_tautomer_probability>
0.955585

> <r_epik_Ionization_Penalty>
0.00455415

> <r_epik_Ionization_Penalty_Charging>
0.000248217

> <r_epik_Ionization_Penalty_Neutral>
0.00430593

> <r_epik_State_Penalty>
0.0207074

> <r_epik_Charging_Adjusted_Penalty>
0.0209557

> <i_epik_Tot_Q>
-1

> <i_epik_Tot_abs_Q>
1

> <r_epik_Metal_State_Penalty>
0.337372

> <b_epik_Metal_Only>
0

> <s_lp_Force_Field>
OPLS_2005

> <r_lp_Energy>
28.2566

> <b_lp_Chiralities_Consistent>
1

> <s_lp_Variant>
AV-unprocessed.smi:66-3

> <Gold.Version>
5.8.1

> <Gold.Id.Protein>
6NUR|6NUR_protein|mol2

> <Gold.PLP.Fitness>
43.2215

> <Gold.PLP.PLP>
-24.9479

> <Gold.PLP.part.hbond>
-5.5666

> <Gold.PLP.part.metal>
0.0000

> <Gold.PLP.part.buried>
-5.0966

> <Gold.PLP.part.nonpolar>
-15.1025

> <Gold.PLP.part.repulsive>
0.2333

> <Gold.PLP.ligand.clash>
0.0000

> <Gold.PLP.ligand.torsion>
0.0932

> <Gold.PLP.Chemscore.Hbond>
5.2721

> <Gold.PLP.Chemscore.CHOScore>
0.8490

> <Gold.PLP.Chemscore.Metal>
0.0000

> <Gold.Chemscore.Hbonds>
donor molecule, donor type, donor heavy atom, donor atom, acceptor molecule, acceptor atom, score
      L1  H     7    24       P1  7949  0.51
      P1  H  6896  6908       L1     1  1.52
      P1  H  7989  7998       L1    11  0.19
      P1  H  7997  8009       L1     3  1.98
      P1  H 10752 10765       L1     7  1.00
      L1  C    12    27       P1  8028  0.85

> <Gold.PLP.Chemscore.Internal.Correction>
0.0966

> <Gold.Rescore>
     Score         DG    S(hbond)    S(metal)    S(lipo)     H(rot)  DE(clash)    DE(int)     intcor
      9.43     -12.38       2.90        0.00      30.23       2.48       0.10       2.85       ----

> <Gold.Chemscore.Fitness>
9.4275

> <Gold.Chemscore.DG>
-12.3775

> <Gold.Chemscore.ZeroCoef>
-5.4800

> <Gold.Chemscore.Hbond>
2.9042

> <Gold.Chemscore.Metal>
0.0000

> <Gold.Chemscore.Lipo>
30.2271

> <Gold.Chemscore.Internal_Hbond>
0.0000

> <Gold.Chemscore.DEClash>
0.0953

> <Gold.Chemscore.DEInternal>
2.8547

> <Gold.Chemscore.Rot>
2.4762

> <Gold.Chemscore.Internal.Correction>
   9.000000E+99

> <Gold.Chemscore.Hbonds>
donor molecule, donor type, donor heavy atom, donor atom, acceptor molecule, acceptor atom, score
      L1  H     7    24       P1  7949  0.20
      P1  H  6896  6908       L1     1  0.71
      P1  H  7989  7998       L1    11  0.11
      P1  H  7997  8009       L1     3  0.90
      P1  H 10752 10765       L1     7  0.21

> <Gold.Chemscore.Hbond.Weighted>
-9.7000

> <Gold.Chemscore.Metal.Weighted>
-0.0000

> <Gold.Chemscore.Lipo.Weighted>
-3.5366

> <Gold.Chemscore.Internal_Hbond.Weighted>
0.0000

> <Gold.Chemscore.DEClash.Weighted>
0.0953

> <Gold.Chemscore.DEInternal.Weighted>
2.8547

> <Gold.Chemscore.Rot.Weighted>
6.3391

> <Gold.Chemscore.Internal.Correction.Weighted>
   9.000000E+99

> <Gold.Protein.RotatedTorsions>
[ 6907 6896 6895 6894 ] final  -93.09 input  -60.11 | X-H torsion
[ 7974 7965 7964 7962 ] final  165.18 input  175.53 | X-H torsion
[ 8008 7997 7996 7995 ] final  131.33 input   59.86 | X-H torsion
[ 10167 10162 10161 10158 ] final  158.97 input  -65.29 | X-H torsion
[ 10718 10713 10712 10709 ] final -147.16 input   66.30 | X-H torsion
[ 10763 10752 10751 10750 ] final  156.49 input  -60.55 | X-H torsion
[ 11005 11000 10999 10996 ] final -175.00 input  -57.11 | X-H torsion

> <Gold.Protein.ActiveResidues>
 VAL166  LYS551  ARG553  GLY616  TRP617  ASP618  TYR619  PRO620  LYS621  CYS622 
 ASP623  PHE694  ASN695  SER759  ASP760  ASP761  ALA762  ILE779  LEU786  VAL792 
 PHE793  MET794  SER795  GLU796  ALA797  LYS798  CYS799  TRP800  GLU811  SER814 

> <Gold.Protein.RotatedAtoms>
  150.6917  134.2020  159.4325 H   0  0  0  0  0  0  0  0  0  0  0  0  # atno 6907 bound_to 6896
  151.9986  134.9938  160.0573 H   0  0  0  0  0  0  0  0  0  0  0  0  # atno 6908 bound_to 6896
  152.1600  133.4540  159.4893 H   0  0  0  0  0  0  0  0  0  0  0  0  # atno 6909 bound_to 6896
  144.7513  139.8433  143.6365 H   0  0  0  0  0  0  0  0  0  0  0  0  # atno 7974 bound_to 7965
  156.2968  140.2574  156.2908 H   0  0  0  0  0  0  0  0  0  0  0  0  # atno 8008 bound_to 7997
  154.9511  140.0394  157.2163 H   0  0  0  0  0  0  0  0  0  0  0  0  # atno 8009 bound_to 7997
  154.8035  140.2832  155.5909 H   0  0  0  0  0  0  0  0  0  0  0  0  # atno 8010 bound_to 7997
  139.4829  144.4774  151.8492 H   0  0  0  0  0  0  0  0  0  0  0  0  # atno 10167 bound_to 10162
  156.4040  130.7948  151.2160 H   0  0  0  0  0  0  0  0  0  0  0  0  # atno 10718 bound_to 10713
  154.1851  135.2797  155.3040 H   0  0  0  0  0  0  0  0  0  0  0  0  # atno 10763 bound_to 10752
  154.5972  135.5541  153.7341 H   0  0  0  0  0  0  0  0  0  0  0  0  # atno 10764 bound_to 10752
  153.0127  135.6383  154.1990 H   0  0  0  0  0  0  0  0  0  0  0  0  # atno 10765 bound_to 10752
  140.4682  134.6190  157.4871 H   0  0  0  0  0  0  0  0  0  0  0  0  # atno 11005 bound_to 11000
  146.1467  139.4539  143.0074 LP  0  0  0  0  0  0  0  0  0  0  0  0  # atno 17320 bound_to 7965
  145.6933  141.0158  143.1543 LP  0  0  0  0  0  0  0  0  0  0  0  0  # atno 17321 bound_to 7965
  140.4247  144.2196  150.5887 LP  0  0  0  0  0  0  0  0  0  0  0  0  # atno 17342 bound_to 10162
  140.4839  143.2370  151.8916 LP  0  0  0  0  0  0  0  0  0  0  0  0  # atno 17343 bound_to 10162
  157.7505  131.0278  150.4021 LP  0  0  0  0  0  0  0  0  0  0  0  0  # atno 17370 bound_to 10713
  156.4306  130.3971  149.6762 LP  0  0  0  0  0  0  0  0  0  0  0  0  # atno 17371 bound_to 10713
  139.9902  134.6998  155.9703 LP  0  0  0  0  0  0  0  0  0  0  0  0  # atno 17394 bound_to 11000
  141.1589  133.6540  156.4253 LP  0  0  0  0  0  0  0  0  0  0  0  0  # atno 17395 bound_to 11000

$$$$
