AV-unprocessed.smi:182|AV-procd|sdf|1455|dock3
  -GOLD-   2262019253D 1   1.00000     0.00000
 Structure written by MMmdl.
 56 59  0  0  0  0  0  0  0  0  1 V2000
  150.6415  144.4981  157.9961 N   0  0  0  0  0  0  0  0  0  0  0  0
  150.4477  144.2477  159.2930 C   0  0  0  0  0  0  0  0  0  0  0  0
  149.3568  143.8886  159.7324 O   0  0  0  0  0  0  0  0  0  0  0  0
  151.6538  144.4374  160.2185 C   0  0  0  0  0  0  0  0  0  0  0  0
  152.8903  143.6271  159.7797 C   0  0  0  0  0  0  0  0  0  0  0  0
  152.8111  142.1280  160.1306 C   0  0  2  0  0  0  0  0  0  0  0  0
  153.9058  141.7431  161.1453 C   0  0  0  0  0  0  0  0  0  0  0  0
  153.8444  140.2439  161.4721 C   0  0  0  0  0  0  0  0  0  0  0  0
  153.9306  139.4010  160.1917 C   0  0  0  0  0  0  0  0  0  0  0  0
  152.9031  139.8076  159.2345 N   0  0  0  0  0  0  0  0  0  0  0  0
  152.6691  138.9121  158.2405 C   0  0  0  0  0  0  0  0  0  0  0  0
  153.5646  138.7752  157.2254 N   0  0  0  0  0  0  0  0  0  0  0  0
  153.3477  137.8936  156.2456 C   0  0  0  0  0  0  0  0  0  0  0  0
  152.3199  137.0582  156.0881 N   0  0  0  0  0  0  0  0  0  0  0  0
  151.4155  137.1899  157.1003 C   0  0  0  0  0  0  0  0  0  0  0  0
  151.5074  138.0892  158.2006 C   0  0  0  0  0  0  0  0  0  0  0  0
  150.3826  137.9622  159.0076 N   0  0  0  0  0  0  0  0  0  0  0  0
  149.6725  137.0363  158.4233 C   0  0  0  0  0  0  0  0  0  0  0  0
  150.2335  136.4950  157.2887 N   0  0  0  0  0  0  0  0  0  0  0  0
  149.6548  135.4971  156.4378 C   0  0  0  0  0  0  0  0  0  0  0  0
  149.4549  134.0601  156.9255 C   0  0  0  0  0  0  0  0  0  0  0  0
  149.7071  133.5448  155.4900 C   0  0  0  0  0  0  0  0  0  0  0  0
  150.5844  132.2866  155.3812 C   0  0  0  0  0  0  0  0  0  0  0  0
  149.8688  131.1292  155.7619 O   0  0  0  0  0  0  0  0  0  0  0  0
  148.4441  133.3584  154.6256 C   0  0  0  0  0  0  0  0  0  0  0  0
  148.7757  133.0917  153.2779 O   0  0  0  0  0  0  0  0  0  0  0  0
  150.4509  134.8825  155.2843 C   0  0  0  0  0  0  0  0  0  0  0  0
  152.9147  141.2286  158.8792 C   0  0  0  0  0  0  0  0  0  0  0  0
  149.8758  144.3898  157.3469 H   0  0  0  0  0  0  0  0  0  0  0  0
  151.5486  144.7966  157.6681 H   0  0  0  0  0  0  0  0  0  0  0  0
  151.9082  145.4977  160.2551 H   0  0  0  0  0  0  0  0  0  0  0  0
  151.3487  144.1516  161.2250 H   0  0  0  0  0  0  0  0  0  0  0  0
  153.0454  143.7380  158.7052 H   0  0  0  0  0  0  0  0  0  0  0  0
  153.7739  144.0531  160.2579 H   0  0  0  0  0  0  0  0  0  0  0  0
  151.8448  141.9425  160.6023 H   0  0  0  0  0  0  0  0  0  0  0  0
  154.8889  141.9881  160.7405 H   0  0  0  0  0  0  0  0  0  0  0  0
  153.7932  142.3230  162.0620 H   0  0  0  0  0  0  0  0  0  0  0  0
  154.6546  139.9745  162.1499 H   0  0  0  0  0  0  0  0  0  0  0  0
  152.9140  140.0192  161.9951 H   0  0  0  0  0  0  0  0  0  0  0  0
  154.9096  139.5301  159.7281 H   0  0  0  0  0  0  0  0  0  0  0  0
  153.8462  138.3463  160.4502 H   0  0  0  0  0  0  0  0  0  0  0  0
  154.1078  137.8495  155.4796 H   0  0  0  0  0  0  0  0  0  0  0  0
  148.7155  136.7179  158.8111 H   0  0  0  0  0  0  0  0  0  0  0  0
  148.7144  135.9173  156.0771 H   0  0  0  0  0  0  0  0  0  0  0  0
  150.2277  133.7483  157.6308 H   0  0  0  0  0  0  0  0  0  0  0  0
  148.4610  133.8567  157.3248 H   0  0  0  0  0  0  0  0  0  0  0  0
  150.9271  132.1413  154.3563 H   0  0  0  0  0  0  0  0  0  0  0  0
  151.4822  132.3668  155.9943 H   0  0  0  0  0  0  0  0  0  0  0  0
  149.8730  131.0703  156.7050 H   0  0  0  0  0  0  0  0  0  0  0  0
  147.8367  132.5288  154.9881 H   0  0  0  0  0  0  0  0  0  0  0  0
  147.8022  134.2391  154.6610 H   0  0  0  0  0  0  0  0  0  0  0  0
  149.5457  132.5441  153.2610 H   0  0  0  0  0  0  0  0  0  0  0  0
  150.2823  135.3562  154.3165 H   0  0  0  0  0  0  0  0  0  0  0  0
  151.5182  134.8151  155.5041 H   0  0  0  0  0  0  0  0  0  0  0  0
  152.0797  141.4364  158.2094 H   0  0  0  0  0  0  0  0  0  0  0  0
  153.8316  141.4529  158.3318 H   0  0  0  0  0  0  0  0  0  0  0  0
  1  2  1  0  0  0  0
  1 29  1  0  0  0  0
  1 30  1  0  0  0  0
  2  3  2  0  0  0  0
  2  4  1  0  0  0  0
  4  5  1  0  0  0  0
  4 31  1  0  0  0  0
  4 32  1  0  0  0  0
  5  6  1  0  0  0  0
  5 33  1  0  0  0  0
  5 34  1  0  0  0  0
  6 28  1  0  0  0  0
  6  7  1  0  0  0  0
  6 35  1  0  0  0  0
  7  8  1  0  0  0  0
  7 36  1  0  0  0  0
  7 37  1  0  0  0  0
  8  9  1  0  0  0  0
  8 38  1  0  0  0  0
  8 39  1  0  0  0  0
  9 10  1  0  0  0  0
  9 40  1  0  0  0  0
  9 41  1  0  0  0  0
 10 11  1  0  0  0  0
 10 28  1  0  0  0  0
 11 16  1  0  0  0  0
 11 12  2  0  0  0  0
 12 13  1  0  0  0  0
 13 14  2  0  0  0  0
 13 42  1  0  0  0  0
 14 15  1  0  0  0  0
 15 19  1  0  0  0  0
 15 16  2  0  0  0  0
 16 17  1  0  0  0  0
 17 18  2  0  0  0  0
 18 19  1  0  0  0  0
 18 43  1  0  0  0  0
 19 20  1  0  0  0  0
 20 27  1  0  0  0  0
 20 21  1  0  0  0  0
 20 44  1  0  0  0  0
 21 22  1  0  0  0  0
 21 45  1  0  0  0  0
 21 46  1  0  0  0  0
 22 23  1  0  0  0  0
 22 25  1  0  0  0  0
 22 27  1  0  0  0  0
 23 24  1  0  0  0  0
 23 47  1  0  0  0  0
 23 48  1  0  0  0  0
 24 49  1  0  0  0  0
 25 26  1  0  0  0  0
 25 50  1  0  0  0  0
 25 51  1  0  0  0  0
 26 52  1  0  0  0  0
 27 53  1  0  0  0  0
 27 54  1  0  0  0  0
 28 55  1  0  0  0  0
 28 56  1  0  0  0  0
M  END
> <s_m_source_file>
AV-unprocessed.smi

> <i_m_source_file_index>
182

> <i_lp_mmshare_version>
43012

> <i_f3d_flags>
0

> <s_epik_input>
W05IMl1DKD1PKVtDSDJdW0NIMl1bQ0BASF0xW0NIMl1bQ0gyXVtDSDJdTihbQ0gyXTEpYyhuW2NIXW4yKWMoYzIzKW5bY0hdbjNbQ0hdKFtDSDJdNClbQ0gyXUM0KFtDSDJdW09IXSlbQ0gyXVtPSF0=

> <s_epik_cmdline>
J2VwaWtfcHl0aG9uJywgJy1waCcsICc3LjAnLCAnLXRuJywgJzgnLCAnLW1hJywgJzIwMCcsICctbWV0YWxfYmluZGluZycsICctaW1hZScsICc8aW5maWxlLm1hZT4nLCAnLW9tYWUnLCAnPG91dGZpbGUubWFlPic=

> <r_lp_tautomer_probability>
1

> <r_epik_Ionization_Penalty>
0.00186057

> <r_epik_Ionization_Penalty_Charging>
0

> <r_epik_Ionization_Penalty_Neutral>
0.00186057

> <r_epik_State_Penalty>
0.00110736

> <r_epik_Charging_Adjusted_Penalty>
0.00110736

> <i_epik_Tot_Q>
0

> <i_epik_Tot_abs_Q>
0

> <r_epik_Metal_State_Penalty>
-0

> <b_epik_Metal_Only>
0

> <s_lp_Force_Field>
OPLS_2005

> <r_lp_Energy>
36.2346

> <b_lp_Chiralities_Consistent>
1

> <s_lp_Variant>
AV-unprocessed.smi:182-1

> <Gold.Version>
5.8.1

> <Gold.Id.Protein>
6NUR|6NUR_protein|mol2

> <Gold.PLP.Fitness>
49.7642

> <Gold.PLP.PLP>
-42.2612

> <Gold.PLP.part.hbond>
-4.9752

> <Gold.PLP.part.metal>
0.0000

> <Gold.PLP.part.buried>
-7.2350

> <Gold.PLP.part.nonpolar>
-32.0887

> <Gold.PLP.part.repulsive>
0.2340

> <Gold.PLP.ligand.clash>
0.0000

> <Gold.PLP.ligand.torsion>
1.3118

> <Gold.PLP.Chemscore.Hbond>
3.0494

> <Gold.PLP.Chemscore.CHOScore>
0.0000

> <Gold.PLP.Chemscore.Metal>
0.0000

> <Gold.Chemscore.Hbonds>
donor molecule, donor type, donor heavy atom, donor atom, acceptor molecule, acceptor atom, score
      L1  H     1    29       P1  8028  1.00
      P1  H  6933  6944       L1     3  0.01
      P1  H  7997  8009       L1    12  1.00
      P1  H 10752 10763       L1    14  0.87

> <Gold.PLP.Chemscore.Internal.Correction>
0.9785

> <Gold.Rescore>
     Score         DG    S(hbond)    S(metal)    S(lipo)     H(rot)  DE(clash)    DE(int)     intcor
     10.62     -13.19       2.43        0.00     101.31       4.79       0.08       2.50       ----

> <Gold.Chemscore.Fitness>
10.6181

> <Gold.Chemscore.DG>
-13.1943

> <Gold.Chemscore.ZeroCoef>
-5.4800

> <Gold.Chemscore.Hbond>
2.4339

> <Gold.Chemscore.Metal>
0.0000

> <Gold.Chemscore.Lipo>
101.3086

> <Gold.Chemscore.Internal_Hbond>
0.0000

> <Gold.Chemscore.DEClash>
0.0795

> <Gold.Chemscore.DEInternal>
2.4967

> <Gold.Chemscore.Rot>
4.7922

> <Gold.Chemscore.Internal.Correction>
   9.000000E+99

> <Gold.Chemscore.Hbonds>
donor molecule, donor type, donor heavy atom, donor atom, acceptor molecule, acceptor atom, score
      L1  H     1    29       P1  8028  0.29
      P1  H  6933  6944       L1     3  0.04
      P1  H  7997  8009       L1    12  0.83
      P1  H 10752 10763       L1    14  0.32

> <Gold.Chemscore.Hbond.Weighted>
-8.1292

> <Gold.Chemscore.Metal.Weighted>
-0.0000

> <Gold.Chemscore.Lipo.Weighted>
-11.8531

> <Gold.Chemscore.Internal_Hbond.Weighted>
0.0000

> <Gold.Chemscore.DEClash.Weighted>
0.0795

> <Gold.Chemscore.DEInternal.Weighted>
2.4967

> <Gold.Chemscore.Rot.Weighted>
12.2680

> <Gold.Chemscore.Internal.Correction.Weighted>
   9.000000E+99

> <Gold.Protein.RotatedTorsions>
[ 6907 6896 6895 6894 ] final  -47.19 input  -60.11 | X-H torsion
[ 7974 7965 7964 7962 ] final   14.24 input  175.53 | X-H torsion
[ 8008 7997 7996 7995 ] final  171.66 input   59.86 | X-H torsion
[ 10167 10162 10161 10158 ] final    1.21 input  -65.29 | X-H torsion
[ 10718 10713 10712 10709 ] final  -42.93 input   66.30 | X-H torsion
[ 10763 10752 10751 10750 ] final   90.16 input  -60.55 | X-H torsion
[ 11005 11000 10999 10996 ] final  -79.95 input  -57.11 | X-H torsion

> <Gold.Protein.ActiveResidues>
 VAL166  LYS551  ARG553  GLY616  TRP617  ASP618  TYR619  PRO620  LYS621  CYS622 
 ASP623  PHE694  ASN695  SER759  ASP760  ASP761  ALA762  ILE779  LEU786  VAL792 
 PHE793  MET794  SER795  GLU796  ALA797  LYS798  CYS799  TRP800  GLU811  SER814 

> <Gold.Protein.RotatedAtoms>
  150.9034  134.8447  159.7375 H   0  0  0  0  0  0  0  0  0  0  0  0  # atno 6907 bound_to 6896
  152.4905  134.4468  159.9571 H   0  0  0  0  0  0  0  0  0  0  0  0  # atno 6908 bound_to 6896
  151.4518  133.3576  159.2831 H   0  0  0  0  0  0  0  0  0  0  0  0  # atno 6909 bound_to 6896
  146.2310  139.9071  142.8530 H   0  0  0  0  0  0  0  0  0  0  0  0  # atno 7974 bound_to 7965
  156.1250  140.1506  156.9150 H   0  0  0  0  0  0  0  0  0  0  0  0  # atno 8008 bound_to 7997
  154.4864  140.0864  156.7537 H   0  0  0  0  0  0  0  0  0  0  0  0  # atno 8009 bound_to 7997
  155.4360  140.3429  155.4287 H   0  0  0  0  0  0  0  0  0  0  0  0  # atno 8010 bound_to 7997
  140.6693  143.7093  150.7890 H   0  0  0  0  0  0  0  0  0  0  0  0  # atno 10167 bound_to 10162
  156.2544  130.4191  149.8613 H   0  0  0  0  0  0  0  0  0  0  0  0  # atno 10718 bound_to 10713
  153.1946  135.4444  155.0192 H   0  0  0  0  0  0  0  0  0  0  0  0  # atno 10763 bound_to 10752
  154.8111  135.3295  154.7305 H   0  0  0  0  0  0  0  0  0  0  0  0  # atno 10764 bound_to 10752
  153.7756  135.6981  153.4953 H   0  0  0  0  0  0  0  0  0  0  0  0  # atno 10765 bound_to 10752
  141.1668  133.7128  156.8199 H   0  0  0  0  0  0  0  0  0  0  0  0  # atno 11005 bound_to 11000
  145.2266  140.9956  143.4015 LP  0  0  0  0  0  0  0  0  0  0  0  0  # atno 17320 bound_to 7965
  144.9565  139.4026  143.6377 LP  0  0  0  0  0  0  0  0  0  0  0  0  # atno 17321 bound_to 7965
  140.0776  143.5000  152.2547 LP  0  0  0  0  0  0  0  0  0  0  0  0  # atno 17342 bound_to 10162
  139.5954  144.7565  151.3298 LP  0  0  0  0  0  0  0  0  0  0  0  0  # atno 17343 bound_to 10162
  156.6150  130.8602  151.3463 LP  0  0  0  0  0  0  0  0  0  0  0  0  # atno 17370 bound_to 10713
  157.7227  130.9580  150.1504 LP  0  0  0  0  0  0  0  0  0  0  0  0  # atno 17371 bound_to 10713
  140.2127  134.8816  157.3292 LP  0  0  0  0  0  0  0  0  0  0  0  0  # atno 17394 bound_to 11000
  140.2070  134.4185  155.7632 LP  0  0  0  0  0  0  0  0  0  0  0  0  # atno 17395 bound_to 11000

$$$$
