AV-unprocessed.smi:55|AV-procd|sdf|567|dock2
  -GOLD-   2262016473D 1   1.00000     0.00000
 Structure written by MMmdl.
 31 32  0  0  0  0  0  0  0  0  1 V2000
  151.2004  138.1414  158.4631 C   0  0  0  0  0  0  0  0  0  0  0  0
  152.2175  138.8035  159.3779 C   0  0  0  0  0  0  0  0  0  0  0  0
  152.3940  140.1489  159.4171 C   0  0  0  0  0  0  0  0  0  0  0  0
  153.3100  140.7829  160.2451 N   0  0  0  0  0  0  0  0  0  0  0  0
  153.4514  142.2881  160.2459 C   0  0  2  0  0  0  0  0  0  0  0  0
  152.8324  142.8901  161.5087 C   0  0  0  0  0  0  0  0  0  0  0  0
  152.1981  144.1527  160.9639 C   0  0  2  0  0  0  0  0  0  0  0  0
  151.1209  144.5620  161.7814 O   0  0  0  0  0  0  0  0  0  0  0  0
  151.7433  143.7036  159.5718 C   0  0  1  0  0  0  0  0  0  0  0  0
  151.5945  144.8376  158.5457 C   0  0  0  0  0  0  0  0  0  0  0  0
  151.1894  144.3247  157.2944 O   0  0  0  0  0  0  0  0  0  0  0  0
  152.7690  142.8100  159.1428 O   0  0  0  0  0  0  0  0  0  0  0  0
  154.0989  140.0097  161.1221 C   0  0  0  0  0  0  0  0  0  0  0  0
  154.9090  140.5005  161.9073 O   0  0  0  0  0  0  0  0  0  0  0  0
  153.9220  138.6279  161.0790 N   0  0  0  0  0  0  0  0  0  0  0  0
  153.0249  137.9478  160.2517 C   0  0  0  0  0  0  0  0  0  0  0  0
  152.9630  136.7207  160.3024 O   0  0  0  0  0  0  0  0  0  0  0  0
  154.5077  142.5314  160.1221 H   0  0  0  0  0  0  0  0  0  0  0  0
  152.9433  144.9461  160.8921 H   0  0  0  0  0  0  0  0  0  0  0  0
  150.8162  143.1322  159.6434 H   0  0  0  0  0  0  0  0  0  0  0  0
  154.4871  138.0704  161.7030 H   0  0  0  0  0  0  0  0  0  0  0  0
  150.6716  138.8718  157.8504 H   0  0  0  0  0  0  0  0  0  0  0  0
  150.4590  137.5974  159.0495 H   0  0  0  0  0  0  0  0  0  0  0  0
  151.6918  137.4358  157.7923 H   0  0  0  0  0  0  0  0  0  0  0  0
  151.7798  140.7575  158.7711 H   0  0  0  0  0  0  0  0  0  0  0  0
  152.0726  142.2136  161.9048 H   0  0  0  0  0  0  0  0  0  0  0  0
  153.5870  143.0670  162.2756 H   0  0  0  0  0  0  0  0  0  0  0  0
  150.4409  143.9072  161.7296 H   0  0  0  0  0  0  0  0  0  0  0  0
  150.8767  145.5842  158.8867 H   0  0  0  0  0  0  0  0  0  0  0  0
  152.5490  145.3469  158.4111 H   0  0  0  0  0  0  0  0  0  0  0  0
  150.3791  144.7431  157.0465 H   0  0  0  0  0  0  0  0  0  0  0  0
  1  2  1  0  0  0  0
  1 22  1  0  0  0  0
  1 23  1  0  0  0  0
  1 24  1  0  0  0  0
  2 16  1  0  0  0  0
  2  3  2  0  0  0  0
  3  4  1  0  0  0  0
  3 25  1  0  0  0  0
  4  5  1  0  0  0  0
  4 13  1  0  0  0  0
  5 18  1  0  0  0  0
  5 12  1  0  0  0  0
  5  6  1  0  0  0  0
  6  7  1  0  0  0  0
  6 26  1  0  0  0  0
  6 27  1  0  0  0  0
  7 19  1  0  0  0  0
  7  8  1  0  0  0  0
  7  9  1  0  0  0  0
  8 28  1  0  0  0  0
  9 20  1  0  0  0  0
  9 10  1  0  0  0  0
  9 12  1  0  0  0  0
 10 11  1  0  0  0  0
 10 29  1  0  0  0  0
 10 30  1  0  0  0  0
 11 31  1  0  0  0  0
 13 14  2  0  0  0  0
 13 15  1  0  0  0  0
 15 21  1  0  0  0  0
 15 16  1  0  0  0  0
 16 17  2  0  0  0  0
M  END
> <s_m_source_file>
AV-unprocessed.smi

> <i_m_source_file_index>
55

> <i_lp_mmshare_version>
43012

> <i_f3d_flags>
0

> <s_epik_input>
Tz1jMVtuSF1jKD1PKW4oW2NIXWMxW0NIM10pW0NAQEhdMltDSDJdW0NAQEhdKFtPSF0pW0NAQEhdKE8yKVtDSDJdW09IXQ==

> <s_epik_cmdline>
J2VwaWtfcHl0aG9uJywgJy1waCcsICc3LjAnLCAnLXRuJywgJzgnLCAnLW1hJywgJzIwMCcsICctbWV0YWxfYmluZGluZycsICctaW1hZScsICc8aW5maWxlLm1hZT4nLCAnLW9tYWUnLCAnPG91dGZpbGUubWFlPic=

> <r_lp_tautomer_probability>
0.999537

> <r_epik_Ionization_Penalty>
0.00121888

> <r_epik_Ionization_Penalty_Charging>
0.00121876

> <r_epik_Ionization_Penalty_Neutral>
1.19946e-07

> <r_epik_State_Penalty>
0.000805124

> <r_epik_Charging_Adjusted_Penalty>
0.00202389

> <i_epik_Tot_Q>
0

> <i_epik_Tot_abs_Q>
0

> <r_epik_Metal_State_Penalty>
0.662472

> <b_epik_Metal_Only>
0

> <s_epik_Chemistry_Notes>
This compound contains an acetal/aminal-like group ( X-CH(R)-Y where X, Y are N, S, or O) that may be acid/base labile, releasing an aldehyde.

> <s_lp_Force_Field>
OPLS_2005

> <r_lp_Energy>
24.0727

> <b_lp_Chiralities_Consistent>
1

> <s_lp_Variant>
AV-unprocessed.smi:55-7

> <Gold.Version>
5.8.1

> <Gold.Id.Protein>
6NUR|6NUR_protein|mol2

> <Gold.PLP.Fitness>
44.8997

> <Gold.PLP.PLP>
-39.4960

> <Gold.PLP.part.hbond>
-4.7229

> <Gold.PLP.part.metal>
0.0000

> <Gold.PLP.part.buried>
-7.7472

> <Gold.PLP.part.nonpolar>
-27.2859

> <Gold.PLP.part.repulsive>
0.0068

> <Gold.PLP.ligand.clash>
0.0000

> <Gold.PLP.ligand.torsion>
0.2759

> <Gold.PLP.Chemscore.Hbond>
1.9825

> <Gold.PLP.Chemscore.CHOScore>
0.0000

> <Gold.PLP.Chemscore.Metal>
0.0000

> <Gold.Chemscore.Hbonds>
donor molecule, donor type, donor heavy atom, donor atom, acceptor molecule, acceptor atom, score
      L1  H    11    31       P1  8028  0.90
      P1  H  6896  6907       L1    17  1.00

> <Gold.PLP.Chemscore.Internal.Correction>
0.0079

> <Gold.Rescore>
     Score         DG    S(hbond)    S(metal)    S(lipo)     H(rot)  DE(clash)    DE(int)     intcor
     12.34     -12.59       2.00        0.00      63.34       2.73       0.04       0.21       ----

> <Gold.Chemscore.Fitness>
12.3387

> <Gold.Chemscore.DG>
-12.5922

> <Gold.Chemscore.ZeroCoef>
-5.4800

> <Gold.Chemscore.Hbond>
1.9995

> <Gold.Chemscore.Metal>
0.0000

> <Gold.Chemscore.Lipo>
63.3393

> <Gold.Chemscore.Internal_Hbond>
0.0000

> <Gold.Chemscore.DEClash>
0.0411

> <Gold.Chemscore.DEInternal>
0.2124

> <Gold.Chemscore.Rot>
2.7253

> <Gold.Chemscore.Internal.Correction>
   9.000000E+99

> <Gold.Chemscore.Hbonds>
donor molecule, donor type, donor heavy atom, donor atom, acceptor molecule, acceptor atom, score
      L1  H    11    31       P1  8028  0.47
      P1  H  6896  6907       L1    17  0.99

> <Gold.Chemscore.Hbond.Weighted>
-6.6783

> <Gold.Chemscore.Metal.Weighted>
-0.0000

> <Gold.Chemscore.Lipo.Weighted>
-7.4107

> <Gold.Chemscore.Internal_Hbond.Weighted>
0.0000

> <Gold.Chemscore.DEClash.Weighted>
0.0411

> <Gold.Chemscore.DEInternal.Weighted>
0.2124

> <Gold.Chemscore.Rot.Weighted>
6.9769

> <Gold.Chemscore.Internal.Correction.Weighted>
   9.000000E+99

> <Gold.Protein.RotatedTorsions>
[ 6907 6896 6895 6894 ] final   34.47 input  -60.11 | X-H torsion
[ 7974 7965 7964 7962 ] final  -28.03 input  175.53 | X-H torsion
[ 8008 7997 7996 7995 ] final -159.37 input   59.86 | X-H torsion
[ 10167 10162 10161 10158 ] final  133.20 input  -65.29 | X-H torsion
[ 10718 10713 10712 10709 ] final   24.67 input   66.30 | X-H torsion
[ 10763 10752 10751 10750 ] final  179.24 input  -60.55 | X-H torsion
[ 11005 11000 10999 10996 ] final  166.27 input  -57.11 | X-H torsion

> <Gold.Protein.ActiveResidues>
 VAL166  LYS551  ARG553  GLY616  TRP617  ASP618  TYR619  PRO620  LYS621  CYS622 
 ASP623  PHE694  ASN695  SER759  ASP760  ASP761  ALA762  ILE779  LEU786  VAL792 
 PHE793  MET794  SER795  GLU796  ALA797  LYS798  CYS799  TRP800  GLU811  SER814 

> <Gold.Protein.RotatedAtoms>
  152.1029  134.9329  160.0568 H   0  0  0  0  0  0  0  0  0  0  0  0  # atno 6907 bound_to 6896
  152.0536  133.4025  159.4396 H   0  0  0  0  0  0  0  0  0  0  0  0  # atno 6908 bound_to 6896
  150.6840  134.3200  159.4826 H   0  0  0  0  0  0  0  0  0  0  0  0  # atno 6909 bound_to 6896
  146.1317  140.5229  142.8690 H   0  0  0  0  0  0  0  0  0  0  0  0  # atno 7974 bound_to 7965
  155.7616  140.0840  157.2152 H   0  0  0  0  0  0  0  0  0  0  0  0  # atno 8008 bound_to 7997
  154.4003  140.1542  156.2895 H   0  0  0  0  0  0  0  0  0  0  0  0  # atno 8009 bound_to 7997
  155.8834  140.3419  155.5907 H   0  0  0  0  0  0  0  0  0  0  0  0  # atno 8010 bound_to 7997
  139.5307  144.6627  151.4961 H   0  0  0  0  0  0  0  0  0  0  0  0  # atno 10167 bound_to 10162
  157.1829  130.6811  149.6120 H   0  0  0  0  0  0  0  0  0  0  0  0  # atno 10718 bound_to 10713
  154.5182  135.2792  155.1285 H   0  0  0  0  0  0  0  0  0  0  0  0  # atno 10763 bound_to 10752
  154.2854  135.6277  153.5367 H   0  0  0  0  0  0  0  0  0  0  0  0  # atno 10764 bound_to 10752
  152.9931  135.5661  154.5664 H   0  0  0  0  0  0  0  0  0  0  0  0  # atno 10765 bound_to 10752
  140.2647  134.7874  157.3622 H   0  0  0  0  0  0  0  0  0  0  0  0  # atno 11005 bound_to 11000
  144.7697  140.5610  143.6678 LP  0  0  0  0  0  0  0  0  0  0  0  0  # atno 17320 bound_to 7965
  145.5246  139.1476  143.3533 LP  0  0  0  0  0  0  0  0  0  0  0  0  # atno 17321 bound_to 7965
  140.6483  143.8749  150.6759 LP  0  0  0  0  0  0  0  0  0  0  0  0  # atno 17342 bound_to 10162
  140.2106  143.3887  152.1721 LP  0  0  0  0  0  0  0  0  0  0  0  0  # atno 17343 bound_to 10162
  155.9722  130.4640  150.6204 LP  0  0  0  0  0  0  0  0  0  0  0  0  # atno 17370 bound_to 10713
  157.3935  131.0799  151.1372 LP  0  0  0  0  0  0  0  0  0  0  0  0  # atno 17371 bound_to 10713
  140.1430  134.4947  155.8017 LP  0  0  0  0  0  0  0  0  0  0  0  0  # atno 17394 bound_to 11000
  141.2185  133.6833  156.7245 LP  0  0  0  0  0  0  0  0  0  0  0  0  # atno 17395 bound_to 11000

$$$$
