AV-unprocessed.smi:1535|AV-procd|sdf|6171|dock10
  -GOLD-   22720 6323D 1   1.00000     0.00000
 Structure written by MMmdl.
 46 47  0  0  0  0  0  0  0  0  1 V2000
  152.7313  143.7141  162.2143 C   0  0  0  0  0  0  0  0  0  0  0  0
  152.3635  143.1725  160.8440 C   0  0  0  0  0  0  0  0  0  0  0  0
  152.6046  141.8100  160.5569 C   0  0  0  0  0  0  0  0  0  0  0  0
  152.2780  141.2669  159.2950 C   0  0  0  0  0  0  0  0  0  0  0  0
  152.4245  139.9805  158.8052 N   0  0  0  0  0  0  0  0  0  0  0  0
  151.9378  140.1060  157.5738 C   0  0  0  0  0  0  0  0  0  0  0  0
  151.4936  141.3236  157.2070 N   0  0  0  0  0  0  0  0  0  0  0  0
  150.9202  141.7003  155.9268 C   0  0  0  0  0  0  0  0  0  0  0  0
  149.3795  141.6850  155.9397 C   0  0  1  0  0  0  0  0  0  0  0  0
  148.9003  142.1217  154.6820 O   0  0  0  0  0  0  0  0  0  0  0  0
  148.8324  140.2677  156.2096 C   0  0  0  0  0  0  0  0  0  0  0  0
  149.4000  139.1978  155.3804 N   0  0  0  0  0  0  0  0  0  0  0  0
  148.7862  139.1695  154.0554 C   0  0  0  0  0  0  0  0  0  0  0  0
  149.2615  137.8838  156.0131 C   0  0  0  0  0  0  0  0  0  0  0  0
  149.7725  136.6853  155.1884 C   0  0  2  0  0  0  0  0  0  0  0  0
  149.7120  135.3692  155.9770 C   0  0  0  0  0  0  0  0  0  0  0  0
  151.1437  136.9370  154.7174 C   0  0  0  0  0  0  0  0  0  0  0  0
  152.2218  137.1350  154.3473 N   0  0  0  0  0  0  0  0  0  0  0  0
  151.6973  142.1307  158.3209 C   0  0  0  0  0  0  0  0  0  0  0  0
  151.4518  143.4878  158.5949 C   0  0  0  0  0  0  0  0  0  0  0  0
  151.7871  144.0150  159.8596 C   0  0  0  0  0  0  0  0  0  0  0  0
  151.5222  145.4828  160.1441 C   0  0  0  0  0  0  0  0  0  0  0  0
  153.1150  142.9270  162.8639 H   0  0  0  0  0  0  0  0  0  0  0  0
  151.8592  144.1518  162.7003 H   0  0  0  0  0  0  0  0  0  0  0  0
  153.5011  144.4812  162.1265 H   0  0  0  0  0  0  0  0  0  0  0  0
  153.0445  141.1680  161.3056 H   0  0  0  0  0  0  0  0  0  0  0  0
  151.9035  139.2638  156.8980 H   0  0  0  0  0  0  0  0  0  0  0  0
  151.2914  142.6895  155.6540 H   0  0  0  0  0  0  0  0  0  0  0  0
  151.2962  141.0075  155.1729 H   0  0  0  0  0  0  0  0  0  0  0  0
  149.0380  142.3876  156.6978 H   0  0  0  0  0  0  0  0  0  0  0  0
  148.7615  143.0554  154.7205 H   0  0  0  0  0  0  0  0  0  0  0  0
  148.9969  140.0556  157.2645 H   0  0  0  0  0  0  0  0  0  0  0  0
  147.7489  140.2728  156.0812 H   0  0  0  0  0  0  0  0  0  0  0  0
  149.2022  138.3606  153.4537 H   0  0  0  0  0  0  0  0  0  0  0  0
  148.9688  140.0916  153.5061 H   0  0  0  0  0  0  0  0  0  0  0  0
  147.7080  139.0183  154.1225 H   0  0  0  0  0  0  0  0  0  0  0  0
  149.7650  137.8955  156.9811 H   0  0  0  0  0  0  0  0  0  0  0  0
  148.2085  137.6999  156.2320 H   0  0  0  0  0  0  0  0  0  0  0  0
  149.1840  136.5737  154.2794 H   0  0  0  0  0  0  0  0  0  0  0  0
  150.0866  134.5388  155.3779 H   0  0  0  0  0  0  0  0  0  0  0  0
  148.6898  135.1279  156.2693 H   0  0  0  0  0  0  0  0  0  0  0  0
  150.3155  135.4241  156.8835 H   0  0  0  0  0  0  0  0  0  0  0  0
  151.0113  144.1179  157.8364 H   0  0  0  0  0  0  0  0  0  0  0  0
  151.1381  145.9958  159.2619 H   0  0  0  0  0  0  0  0  0  0  0  0
  152.4400  145.9859  160.4490 H   0  0  0  0  0  0  0  0  0  0  0  0
  150.7865  145.5895  160.9414 H   0  0  0  0  0  0  0  0  0  0  0  0
  1  2  1  0  0  0  0
  1 23  1  0  0  0  0
  1 24  1  0  0  0  0
  1 25  1  0  0  0  0
  2 21  1  0  0  0  0
  2  3  2  0  0  0  0
  3  4  1  0  0  0  0
  3 26  1  0  0  0  0
  4 19  2  0  0  0  0
  4  5  1  0  0  0  0
  5  6  2  0  0  0  0
  6  7  1  0  0  0  0
  6 27  1  0  0  0  0
  7  8  1  0  0  0  0
  7 19  1  0  0  0  0
  8  9  1  0  0  0  0
  8 28  1  0  0  0  0
  8 29  1  0  0  0  0
  9 10  1  0  0  0  0
  9 11  1  0  0  0  0
  9 30  1  0  0  0  0
 10 31  1  0  0  0  0
 11 12  1  0  0  0  0
 11 32  1  0  0  0  0
 11 33  1  0  0  0  0
 12 13  1  0  0  0  0
 12 14  1  0  0  0  0
 13 34  1  0  0  0  0
 13 35  1  0  0  0  0
 13 36  1  0  0  0  0
 14 15  1  0  0  0  0
 14 37  1  0  0  0  0
 14 38  1  0  0  0  0
 15 16  1  0  0  0  0
 15 17  1  0  0  0  0
 15 39  1  0  0  0  0
 16 40  1  0  0  0  0
 16 41  1  0  0  0  0
 16 42  1  0  0  0  0
 17 18  3  0  0  0  0
 19 20  1  0  0  0  0
 20 21  2  0  0  0  0
 20 43  1  0  0  0  0
 21 22  1  0  0  0  0
 22 44  1  0  0  0  0
 22 45  1  0  0  0  0
 22 46  1  0  0  0  0
M  END
> <s_m_source_file>
AV-unprocessed.smi

> <i_m_source_file_index>
1535

> <i_lp_mmshare_version>
43012

> <i_f3d_flags>
0

> <s_epik_input>
W0NIM11jKFtjSF0xKWMoW0NIM10pW2NIXWMoYzEyKW4oW2NIXW4yKVtDSDJdW0NASF0oW09IXSlbQ0gyXU4oW0NIM10pW0NIMl1bQ0BIXShbQ0gzXSlDI04=

> <s_epik_cmdline>
J2VwaWtfcHl0aG9uJywgJy1waCcsICc3LjAnLCAnLXRuJywgJzgnLCAnLW1hJywgJzIwMCcsICctbWV0YWxfYmluZGluZycsICctaW1hZScsICc8aW5maWxlLm1hZT4nLCAnLW9tYWUnLCAnPG91dGZpbGUubWFlPic=

> <r_epik_Ionization_Penalty>
0.098511

> <r_epik_Ionization_Penalty_Charging>
0

> <r_epik_Ionization_Penalty_Neutral>
0.098511

> <r_epik_State_Penalty>
0.0881608

> <r_epik_Charging_Adjusted_Penalty>
0.0881608

> <i_epik_Tot_Q>
0

> <i_epik_Tot_abs_Q>
0

> <r_epik_Metal_State_Penalty>
0.0128087

> <b_epik_Metal_Only>
0

> <s_lp_Force_Field>
OPLS_2005

> <r_lp_Energy>
24.761

> <b_lp_Chiralities_Consistent>
1

> <s_lp_Variant>
AV-unprocessed.smi:1535-2

> <Gold.Version>
5.8.1

> <Gold.Id.Protein>
6NUR|6NUR_protein|mol2

> <Gold.PLP.Fitness>
46.8208

> <Gold.PLP.PLP>
-42.0704

> <Gold.PLP.part.hbond>
-2.9226

> <Gold.PLP.part.metal>
0.0000

> <Gold.PLP.part.buried>
-5.4755

> <Gold.PLP.part.nonpolar>
-33.4300

> <Gold.PLP.part.repulsive>
0.1921

> <Gold.PLP.ligand.clash>
0.0000

> <Gold.PLP.ligand.torsion>
0.6370

> <Gold.PLP.Chemscore.Hbond>
1.9920

> <Gold.PLP.Chemscore.CHOScore>
0.0000

> <Gold.PLP.Chemscore.Metal>
0.0000

> <Gold.Chemscore.Hbonds>
donor molecule, donor type, donor heavy atom, donor atom, acceptor molecule, acceptor atom, score
      L1  H    10    31       P1  8028  1.00
      P1  H 10752 10765       L1    18  0.88

> <Gold.PLP.Chemscore.Internal.Correction>
0.0484

> <Gold.Rescore>
     Score         DG    S(hbond)    S(metal)    S(lipo)     H(rot)  DE(clash)    DE(int)     intcor
     16.83     -18.46       1.88        0.00     112.25       2.51       0.83       0.81       ----

> <Gold.Chemscore.Fitness>
16.8301

> <Gold.Chemscore.DG>
-18.4644

> <Gold.Chemscore.ZeroCoef>
-5.4800

> <Gold.Chemscore.Hbond>
1.8802

> <Gold.Chemscore.Metal>
0.0000

> <Gold.Chemscore.Lipo>
112.2528

> <Gold.Chemscore.Internal_Hbond>
0.0000

> <Gold.Chemscore.DEClash>
0.8264

> <Gold.Chemscore.DEInternal>
0.8078

> <Gold.Chemscore.Rot>
2.5113

> <Gold.Chemscore.Internal.Correction>
   9.000000E+99

> <Gold.Chemscore.Hbonds>
donor molecule, donor type, donor heavy atom, donor atom, acceptor molecule, acceptor atom, score
      L1  H    10    31       P1  8028  0.96
      P1  H 10752 10765       L1    18  0.47

> <Gold.Chemscore.Hbond.Weighted>
-6.2797

> <Gold.Chemscore.Metal.Weighted>
-0.0000

> <Gold.Chemscore.Lipo.Weighted>
-13.1336

> <Gold.Chemscore.Internal_Hbond.Weighted>
0.0000

> <Gold.Chemscore.DEClash.Weighted>
0.8264

> <Gold.Chemscore.DEInternal.Weighted>
0.8078

> <Gold.Chemscore.Rot.Weighted>
6.4289

> <Gold.Chemscore.Internal.Correction.Weighted>
   9.000000E+99

> <Gold.Protein.RotatedTorsions>
[ 6907 6896 6895 6894 ] final   23.17 input  -60.11 | X-H torsion
[ 7974 7965 7964 7962 ] final   56.00 input  175.53 | X-H torsion
[ 8008 7997 7996 7995 ] final  164.05 input   59.86 | X-H torsion
[ 10167 10162 10161 10158 ] final -112.70 input  -65.29 | X-H torsion
[ 10718 10713 10712 10709 ] final   46.25 input   66.30 | X-H torsion
[ 10763 10752 10751 10750 ] final  162.73 input  -60.55 | X-H torsion
[ 11005 11000 10999 10996 ] final   20.77 input  -57.11 | X-H torsion

> <Gold.Protein.ActiveResidues>
 VAL166  LYS551  ARG553  GLY616  TRP617  ASP618  TYR619  PRO620  LYS621  CYS622 
 ASP623  PHE694  ASN695  SER759  ASP760  ASP761  ALA762  ILE779  LEU786  VAL792 
 PHE793  MET794  SER795  GLU796  ALA797  LYS798  CYS799  TRP800  GLU811  SER814 

> <Gold.Protein.RotatedAtoms>
  151.9382  135.0225  160.0533 H   0  0  0  0  0  0  0  0  0  0  0  0  # atno 6907 bound_to 6896
  152.2059  133.4870  159.5092 H   0  0  0  0  0  0  0  0  0  0  0  0  # atno 6908 bound_to 6896
  150.6965  134.1447  159.4161 H   0  0  0  0  0  0  0  0  0  0  0  0  # atno 6909 bound_to 6896
  145.9445  139.3917  143.0344 H   0  0  0  0  0  0  0  0  0  0  0  0  # atno 7974 bound_to 7965
  156.1910  140.1707  156.8092 H   0  0  0  0  0  0  0  0  0  0  0  0  # atno 8008 bound_to 7997
  154.5471  140.0725  156.8639 H   0  0  0  0  0  0  0  0  0  0  0  0  # atno 8009 bound_to 7997
  155.3101  140.3367  155.4246 H   0  0  0  0  0  0  0  0  0  0  0  0  # atno 8010 bound_to 7997
  140.1198  143.4453  152.1698 H   0  0  0  0  0  0  0  0  0  0  0  0  # atno 10167 bound_to 10162
  157.4461  130.8110  149.7742 H   0  0  0  0  0  0  0  0  0  0  0  0  # atno 10718 bound_to 10713
  154.2829  135.2763  155.2689 H   0  0  0  0  0  0  0  0  0  0  0  0  # atno 10763 bound_to 10752
  154.5202  135.5758  153.6678 H   0  0  0  0  0  0  0  0  0  0  0  0  # atno 10764 bound_to 10752
  152.9926  135.6202  154.2989 H   0  0  0  0  0  0  0  0  0  0  0  0  # atno 10765 bound_to 10752
  140.3989  134.1739  155.7663 H   0  0  0  0  0  0  0  0  0  0  0  0  # atno 11005 bound_to 11000
  145.8255  140.9657  143.0876 LP  0  0  0  0  0  0  0  0  0  0  0  0  # atno 17320 bound_to 7965
  144.6784  140.0096  143.7484 LP  0  0  0  0  0  0  0  0  0  0  0  0  # atno 17321 bound_to 7965
  139.5574  144.7382  151.4253 LP  0  0  0  0  0  0  0  0  0  0  0  0  # atno 17342 bound_to 10162
  140.6878  143.7932  150.7211 LP  0  0  0  0  0  0  0  0  0  0  0  0  # atno 17343 bound_to 10162
  155.9968  130.3904  150.2765 LP  0  0  0  0  0  0  0  0  0  0  0  0  # atno 17370 bound_to 10713
  157.0933  131.0176  151.3113 LP  0  0  0  0  0  0  0  0  0  0  0  0  # atno 17371 bound_to 10713
  141.1864  133.8303  157.1070 LP  0  0  0  0  0  0  0  0  0  0  0  0  # atno 17394 bound_to 11000
  140.0351  134.9882  157.0855 LP  0  0  0  0  0  0  0  0  0  0  0  0  # atno 17395 bound_to 11000

$$$$
