AV-unprocessed.smi:157|AV-procd|sdf|1313|dock3
  -GOLD-   2262019 03D 1   1.00000     0.00000
 Structure written by MMmdl.
 36 38  0  0  0  0  0  0  0  0  2 V2000
  151.5502  135.4033  156.1939 O   0  0  0  0  0  0  0  0  0  0  0  0
  150.4405  136.0400  156.7904 C   0  0  0  0  0  0  0  0  0  0  0  0
  150.3341  137.4842  156.2791 C   0  0  1  0  0  0  0  0  0  0  0  0
  151.5524  138.1776  156.5302 O   0  0  0  0  0  0  0  0  0  0  0  0
  151.6828  139.2472  155.6409 C   0  0  2  0  0  0  0  0  0  0  0  0
  151.3838  140.5216  156.3690 N   0  0  0  0  0  0  0  0  0  0  0  0
  150.5250  141.4938  155.9920 C   0  0  0  0  0  0  0  0  0  0  0  0
  150.4532  142.5134  156.8307 N   0  3  0  0  0  0  0  0  0  0  0  0
  151.3215  142.2320  157.8640 C   0  0  0  0  0  0  0  0  0  0  0  0
  151.8829  140.9884  157.5631 C   0  0  0  0  0  0  0  0  0  0  0  0
  152.8243  140.2307  158.2764 N   0  0  0  0  0  0  0  0  0  0  0  0
  153.0999  140.4475  159.5213 C   0  0  0  0  0  0  0  0  0  0  0  0
  152.6425  141.4563  160.3524 N   0  0  0  0  0  0  0  0  0  0  0  0
  152.6247  142.8546  159.9605 C   0  0  0  0  0  0  0  0  0  0  0  0
  151.4936  143.2088  158.9855 C   0  0  2  0  0  0  0  0  0  0  0  0
  150.3052  143.3994  159.7254 O   0  0  0  0  0  0  0  0  0  0  0  0
  150.6581  139.0311  154.5198 C   0  0  0  0  0  0  0  0  0  0  0  0
  150.2213  137.5978  154.7584 C   0  0  2  0  0  0  0  0  0  0  0  0
  148.9015  137.3884  154.2999 O   0  0  0  0  0  0  0  0  0  0  0  0
  149.5023  138.0115  156.7512 H   0  0  0  0  0  0  0  0  0  0  0  0
  152.7133  139.3467  155.2982 H   0  0  0  0  0  0  0  0  0  0  0  0
  151.7298  144.1780  158.5449 H   0  0  0  0  0  0  0  0  0  0  0  0
  150.9081  136.9061  154.2679 H   0  0  0  0  0  0  0  0  0  0  0  0
  151.6568  134.5519  156.5903 H   0  0  0  0  0  0  0  0  0  0  0  0
  149.5269  135.4782  156.5931 H   0  0  0  0  0  0  0  0  0  0  0  0
  150.5992  136.0338  157.8690 H   0  0  0  0  0  0  0  0  0  0  0  0
  149.9474  141.4430  155.0862 H   0  0  0  0  0  0  0  0  0  0  0  0
  153.7890  139.7754  160.0347 H   0  0  0  0  0  0  0  0  0  0  0  0
  152.7683  141.3546  161.3496 H   0  0  0  0  0  0  0  0  0  0  0  0
  152.5823  143.4849  160.8495 H   0  0  0  0  0  0  0  0  0  0  0  0
  153.5820  143.0701  159.4834 H   0  0  0  0  0  0  0  0  0  0  0  0
  150.2413  144.3102  159.9679 H   0  0  0  0  0  0  0  0  0  0  0  0
  149.8220  139.7231  154.6409 H   0  0  0  0  0  0  0  0  0  0  0  0
  151.1085  139.1898  153.5396 H   0  0  0  0  0  0  0  0  0  0  0  0
  148.9375  137.0734  153.4095 H   0  0  0  0  0  0  0  0  0  0  0  0
  149.8753  143.3378  156.7258 H   0  0  0  0  0  0  0  0  0  0  0  0
  1  2  1  0  0  0  0
  1 24  1  0  0  0  0
  2  3  1  0  0  0  0
  2 25  1  0  0  0  0
  2 26  1  0  0  0  0
  3 20  1  0  0  0  0
  3 18  1  0  0  0  0
  3  4  1  0  0  0  0
  4  5  1  0  0  0  0
  5 21  1  0  0  0  0
  5  6  1  0  0  0  0
  5 17  1  0  0  0  0
  6 10  1  0  0  0  0
  6  7  1  0  0  0  0
  7  8  2  0  0  0  0
  7 27  1  0  0  0  0
  8  9  1  0  0  0  0
  8 36  1  0  0  0  0
  9 15  1  0  0  0  0
  9 10  2  0  0  0  0
 10 11  1  0  0  0  0
 11 12  2  0  0  0  0
 12 13  1  0  0  0  0
 12 28  1  0  0  0  0
 13 14  1  0  0  0  0
 13 29  1  0  0  0  0
 14 15  1  0  0  0  0
 14 30  1  0  0  0  0
 14 31  1  0  0  0  0
 15 22  1  0  0  0  0
 15 16  1  0  0  0  0
 16 32  1  0  0  0  0
 17 18  1  0  0  0  0
 17 33  1  0  0  0  0
 17 34  1  0  0  0  0
 18 23  1  0  0  0  0
 18 19  1  0  0  0  0
 19 35  1  0  0  0  0
M  CHG  1   8   1
M  END
> <s_m_source_file>
AV-unprocessed.smi

> <i_m_source_file_index>
157

> <i_lp_mmshare_version>
43012

> <i_f3d_flags>
0

> <s_epik_input>
W09IXVtDSDJdW0NASF0xT1tDQEhdKFtDSDJdW0NAQEhdMVtPSF0pbihbY0hdbjIpYyhjMjMpTj1bQ0hdW05IXVtDSDJdW0NASF0zW09IXQ==

> <s_epik_cmdline>
J2VwaWtfcHl0aG9uJywgJy1waCcsICc3LjAnLCAnLXRuJywgJzgnLCAnLW1hJywgJzIwMCcsICctbWV0YWxfYmluZGluZycsICctaW1hZScsICc8aW5maWxlLm1hZT4nLCAnLW9tYWUnLCAnPG91dGZpbGUubWFlPic=

> <r_epik_Ionization_Penalty>
1.68594

> <r_epik_Ionization_Penalty_Charging>
0

> <r_epik_Ionization_Penalty_Neutral>
1.68594

> <r_epik_State_Penalty>
1.79006

> <r_epik_Charging_Adjusted_Penalty>
1.79006

> <i_epik_Tot_Q>
1

> <i_epik_Tot_abs_Q>
1

> <r_epik_Metal_State_Penalty>
5.85324

> <b_epik_Metal_Only>
0

> <s_epik_Chemistry_Notes>
This compound has an imine and may undergo hydrolysis. This compound contains an acetal/aminal-like group ( X-CH(R)-Y where X, Y are N, S, or O) that may be acid/base labile, releasing an aldehyde.

> <s_lp_Force_Field>
OPLS_2005

> <r_lp_Energy>
52.2724

> <b_lp_Chiralities_Consistent>
1

> <s_lp_Variant>
AV-unprocessed.smi:157-23

> <Gold.Version>
5.8.1

> <Gold.Id.Protein>
6NUR|6NUR_protein|mol2

> <Gold.PLP.Fitness>
47.0340

> <Gold.PLP.PLP>
-32.6544

> <Gold.PLP.part.hbond>
-4.9144

> <Gold.PLP.part.metal>
0.0000

> <Gold.PLP.part.buried>
-5.0992

> <Gold.PLP.part.nonpolar>
-23.1328

> <Gold.PLP.part.repulsive>
0.1586

> <Gold.PLP.ligand.clash>
0.0000

> <Gold.PLP.ligand.torsion>
0.2241

> <Gold.PLP.Chemscore.Hbond>
4.9357

> <Gold.PLP.Chemscore.CHOScore>
0.0000

> <Gold.PLP.Chemscore.Metal>
0.0000

> <Gold.Chemscore.Hbonds>
donor molecule, donor type, donor heavy atom, donor atom, acceptor molecule, acceptor atom, score
      L1  H     8    36       P1  8028  2.00
      L1  H    19    35       P1  7948  1.00
      P1  H  7997  8009       L1    11  0.64
      P1  H 10752 10765       L1     1  1.00

> <Gold.PLP.Chemscore.Internal.Correction>
0.0205

> <Gold.Rescore>
     Score         DG    S(hbond)    S(metal)    S(lipo)     H(rot)  DE(clash)    DE(int)     intcor
     11.05     -12.41       3.11        0.00      50.55       3.67       0.06       1.29       ----

> <Gold.Chemscore.Fitness>
11.0548

> <Gold.Chemscore.DG>
-12.4125

> <Gold.Chemscore.ZeroCoef>
-5.4800

> <Gold.Chemscore.Hbond>
3.1147

> <Gold.Chemscore.Metal>
0.0000

> <Gold.Chemscore.Lipo>
50.5493

> <Gold.Chemscore.Internal_Hbond>
0.0000

> <Gold.Chemscore.DEClash>
0.0630

> <Gold.Chemscore.DEInternal>
1.2947

> <Gold.Chemscore.Rot>
3.6659

> <Gold.Chemscore.Internal.Correction>
   9.000000E+99

> <Gold.Chemscore.Hbonds>
donor molecule, donor type, donor heavy atom, donor atom, acceptor molecule, acceptor atom, score
      L1  H     8    36       P1  8028  0.94
      L1  H    19    35       P1  7948  1.00
      P1  H  7997  8009       L1    11  0.23
      P1  H 10752 10765       L1     1  0.45

> <Gold.Chemscore.Hbond.Weighted>
-10.4031

> <Gold.Chemscore.Metal.Weighted>
-0.0000

> <Gold.Chemscore.Lipo.Weighted>
-5.9143

> <Gold.Chemscore.Internal_Hbond.Weighted>
0.0000

> <Gold.Chemscore.DEClash.Weighted>
0.0630

> <Gold.Chemscore.DEInternal.Weighted>
1.2947

> <Gold.Chemscore.Rot.Weighted>
9.3848

> <Gold.Chemscore.Internal.Correction.Weighted>
   9.000000E+99

> <Gold.Protein.RotatedTorsions>
[ 6907 6896 6895 6894 ] final -134.00 input  -60.11 | X-H torsion
[ 7974 7965 7964 7962 ] final  -15.21 input  175.53 | X-H torsion
[ 8008 7997 7996 7995 ] final  164.86 input   59.86 | X-H torsion
[ 10167 10162 10161 10158 ] final   24.25 input  -65.29 | X-H torsion
[ 10718 10713 10712 10709 ] final  -20.99 input   66.30 | X-H torsion
[ 10763 10752 10751 10750 ] final -168.64 input  -60.55 | X-H torsion
[ 11005 11000 10999 10996 ] final -151.74 input  -57.11 | X-H torsion

> <Gold.Protein.ActiveResidues>
 VAL166  LYS551  ARG553  GLY616  TRP617  ASP618  TYR619  PRO620  LYS621  CYS622 
 ASP623  PHE694  ASN695  SER759  ASP760  ASP761  ALA762  ILE779  LEU786  VAL792 
 PHE793  MET794  SER795  GLU796  ALA797  LYS798  CYS799  TRP800  GLU811  SER814 

> <Gold.Protein.RotatedAtoms>
  150.9806  133.6249  159.2722 H   0  0  0  0  0  0  0  0  0  0  0  0  # atno 6907 bound_to 6896
  151.3505  135.0882  159.9411 H   0  0  0  0  0  0  0  0  0  0  0  0  # atno 6908 bound_to 6896
  152.5214  133.9400  159.7676 H   0  0  0  0  0  0  0  0  0  0  0  0  # atno 6909 bound_to 6896
  146.2042  140.3459  142.8413 H   0  0  0  0  0  0  0  0  0  0  0  0  # atno 7974 bound_to 7965
  156.1846  140.1685  156.8209 H   0  0  0  0  0  0  0  0  0  0  0  0  # atno 8008 bound_to 7997
  154.5399  140.0739  156.8525 H   0  0  0  0  0  0  0  0  0  0  0  0  # atno 8009 bound_to 7997
  155.3235  140.3375  155.4243 H   0  0  0  0  0  0  0  0  0  0  0  0  # atno 8010 bound_to 7997
  140.5203  144.0013  150.6414 H   0  0  0  0  0  0  0  0  0  0  0  0  # atno 10167 bound_to 10162
  156.5243  130.4640  149.6580 H   0  0  0  0  0  0  0  0  0  0  0  0  # atno 10718 bound_to 10713
  154.6607  135.2924  154.9870 H   0  0  0  0  0  0  0  0  0  0  0  0  # atno 10763 bound_to 10752
  154.0931  135.6588  153.4859 H   0  0  0  0  0  0  0  0  0  0  0  0  # atno 10764 bound_to 10752
  153.0428  135.5224  154.7557 H   0  0  0  0  0  0  0  0  0  0  0  0  # atno 10765 bound_to 10752
  140.7263  134.3671  157.5174 H   0  0  0  0  0  0  0  0  0  0  0  0  # atno 11005 bound_to 11000
  144.8752  140.7327  143.6021 LP  0  0  0  0  0  0  0  0  0  0  0  0  # atno 17320 bound_to 7965
  145.3379  139.1740  143.4501 LP  0  0  0  0  0  0  0  0  0  0  0  0  # atno 17321 bound_to 7965
  140.3360  143.3048  152.0638 LP  0  0  0  0  0  0  0  0  0  0  0  0  # atno 17342 bound_to 10162
  139.4921  144.6476  151.6745 LP  0  0  0  0  0  0  0  0  0  0  0  0  # atno 17343 bound_to 10162
  156.3120  130.7234  151.2128 LP  0  0  0  0  0  0  0  0  0  0  0  0  # atno 17370 bound_to 10713
  157.7432  131.0478  150.4966 LP  0  0  0  0  0  0  0  0  0  0  0  0  # atno 17371 bound_to 10713
  139.8836  134.8989  156.2754 LP  0  0  0  0  0  0  0  0  0  0  0  0  # atno 17394 bound_to 11000
  140.9960  133.7180  156.0886 LP  0  0  0  0  0  0  0  0  0  0  0  0  # atno 17395 bound_to 11000

$$$$
