AV-unprocessed.smi:69|AV-procd|sdf|654|dock4
  -GOLD-   2262016553D 1   1.00000     0.00000
 Structure written by MMmdl.
 32 34  0  0  0  0  0  0  0  0  1 V2000
  150.7018  132.4704  155.3603 N   0  0  0  0  0  0  0  0  0  0  0  0
  149.7518  133.4156  155.3352 C   0  0  0  0  0  0  0  0  0  0  0  0
  148.4565  133.0240  155.3190 N   0  0  0  0  0  0  0  0  0  0  0  0
  147.4912  133.9479  155.2920 C   0  0  0  0  0  0  0  0  0  0  0  0
  147.6090  135.2780  155.2775 N   0  0  0  0  0  0  0  0  0  0  0  0
  148.9152  135.6750  155.2933 C   0  0  0  0  0  0  0  0  0  0  0  0
  150.0406  134.8038  155.3234 C   0  0  0  0  0  0  0  0  0  0  0  0
  151.2141  135.5440  155.3347 N   0  0  0  0  0  0  0  0  0  0  0  0
  150.8016  136.7823  155.3111 C   0  0  0  0  0  0  0  0  0  0  0  0
  149.4351  136.9562  155.2806 N   0  0  0  0  0  0  0  0  0  0  0  0
  148.7064  138.2640  155.2521 C   0  0  1  0  0  0  0  0  0  0  0  0
  149.1689  139.0794  156.2837 O   0  0  0  0  0  0  0  0  0  0  0  0
  149.3473  140.4282  155.8434 C   0  0  1  0  0  0  0  0  0  0  0  0
  150.8421  140.7844  155.9898 C   0  0  0  0  0  0  0  0  0  0  0  0
  151.5886  140.1526  154.9716 O   0  0  0  0  0  0  0  0  0  0  0  0
  148.8088  140.4414  154.3984 C   0  0  1  0  0  0  0  0  0  0  0  0
  149.4935  141.3337  153.5396 O   0  0  0  0  0  0  0  0  0  0  0  0
  148.9661  139.0005  153.9399 C   0  0  2  0  0  0  0  0  0  0  0  0
  147.9823  138.7091  152.9659 O   0  0  0  0  0  0  0  0  0  0  0  0
  147.6566  138.0188  155.4241 H   0  0  0  0  0  0  0  0  0  0  0  0
  148.7499  141.1022  156.4591 H   0  0  0  0  0  0  0  0  0  0  0  0
  147.7515  140.7120  154.4239 H   0  0  0  0  0  0  0  0  0  0  0  0
  149.9779  138.7944  153.5858 H   0  0  0  0  0  0  0  0  0  0  0  0
  151.6758  132.7370  155.3717 H   0  0  0  0  0  0  0  0  0  0  0  0
  150.4421  131.4949  155.3653 H   0  0  0  0  0  0  0  0  0  0  0  0
  146.4803  133.5682  155.2798 H   0  0  0  0  0  0  0  0  0  0  0  0
  151.4905  137.6145  155.3175 H   0  0  0  0  0  0  0  0  0  0  0  0
  151.0062  141.8611  155.9799 H   0  0  0  0  0  0  0  0  0  0  0  0
  151.2407  140.4116  156.9331 H   0  0  0  0  0  0  0  0  0  0  0  0
  152.4550  139.9717  155.3029 H   0  0  0  0  0  0  0  0  0  0  0  0
  149.6361  140.9038  152.7101 H   0  0  0  0  0  0  0  0  0  0  0  0
  148.1762  137.8666  152.5849 H   0  0  0  0  0  0  0  0  0  0  0  0
  1  2  1  0  0  0  0
  1 24  1  0  0  0  0
  1 25  1  0  0  0  0
  2  7  1  0  0  0  0
  2  3  2  0  0  0  0
  3  4  1  0  0  0  0
  4  5  2  0  0  0  0
  4 26  1  0  0  0  0
  5  6  1  0  0  0  0
  6 10  1  0  0  0  0
  6  7  2  0  0  0  0
  7  8  1  0  0  0  0
  8  9  2  0  0  0  0
  9 10  1  0  0  0  0
  9 27  1  0  0  0  0
 10 11  1  0  0  0  0
 11 20  1  0  0  0  0
 11 18  1  0  0  0  0
 11 12  1  0  0  0  0
 12 13  1  0  0  0  0
 13 21  1  0  0  0  0
 13 14  1  0  0  0  0
 13 16  1  0  0  0  0
 14 15  1  0  0  0  0
 14 28  1  0  0  0  0
 14 29  1  0  0  0  0
 15 30  1  0  0  0  0
 16 22  1  0  0  0  0
 16 17  1  0  0  0  0
 16 18  1  0  0  0  0
 17 31  1  0  0  0  0
 18 23  1  0  0  0  0
 18 19  1  0  0  0  0
 19 32  1  0  0  0  0
M  END
> <s_m_source_file>
AV-unprocessed.smi

> <i_m_source_file_index>
69

> <i_lp_mmshare_version>
43012

> <i_f3d_flags>
0

> <s_epik_input>
bjFbY0hdbmMoW05IMl0pYyhjMTIpbltjSF1uMltDQEBIXTNPW0NASF0oW0NIMl1bT0hdKVtDQEBIXShbT0hdKVtDQEhdM1tPSF0=

> <s_epik_cmdline>
J2VwaWtfcHl0aG9uJywgJy1waCcsICc3LjAnLCAnLXRuJywgJzgnLCAnLW1hJywgJzIwMCcsICctbWV0YWxfYmluZGluZycsICctaW1hZScsICc8aW5maWxlLm1hZT4nLCAnLW9tYWUnLCAnPG91dGZpbGUubWFlPic=

> <r_lp_tautomer_probability>
1

> <r_epik_Ionization_Penalty>
0.000428445

> <r_epik_Ionization_Penalty_Charging>
0

> <r_epik_Ionization_Penalty_Neutral>
0.000428445

> <r_epik_State_Penalty>
-0

> <r_epik_Charging_Adjusted_Penalty>
0

> <i_epik_Tot_Q>
0

> <i_epik_Tot_abs_Q>
0

> <r_epik_Metal_State_Penalty>
-0

> <b_epik_Metal_Only>
0

> <s_epik_Chemistry_Notes>
This compound contains an acetal/aminal-like group ( X-CH(R)-Y where X, Y are N, S, or O) that may be acid/base labile, releasing an aldehyde.

> <s_lp_Force_Field>
OPLS_2005

> <r_lp_Energy>
41.5942

> <b_lp_Chiralities_Consistent>
1

> <s_lp_Variant>
AV-unprocessed.smi:69-12

> <Gold.Version>
5.8.1

> <Gold.Id.Protein>
6NUR|6NUR_protein|mol2

> <Gold.PLP.Fitness>
35.4252

> <Gold.PLP.PLP>
-23.8792

> <Gold.PLP.part.hbond>
-7.0000

> <Gold.PLP.part.metal>
0.0000

> <Gold.PLP.part.buried>
-1.6528

> <Gold.PLP.part.nonpolar>
-14.7272

> <Gold.PLP.part.repulsive>
0.2210

> <Gold.PLP.ligand.clash>
0.0000

> <Gold.PLP.ligand.torsion>
0.2305

> <Gold.PLP.Chemscore.Hbond>
4.0000

> <Gold.PLP.Chemscore.CHOScore>
0.0000

> <Gold.PLP.Chemscore.Metal>
0.0000

> <Gold.Chemscore.Hbonds>
donor molecule, donor type, donor heavy atom, donor atom, acceptor molecule, acceptor atom, score
      L1  H    17    31       P1  7957  1.00
      L1  H    19    32       P1  7948  1.00
      P1  H  7989  7998       L1    15  1.00
      P1  H 10752 10765       L1     8  0.99

> <Gold.PLP.Chemscore.Internal.Correction>
0.0070

> <Gold.Rescore>
     Score         DG    S(hbond)    S(metal)    S(lipo)     H(rot)  DE(clash)    DE(int)     intcor
      9.95     -11.00       3.74        0.00      28.65       4.03       0.04       1.01       ----

> <Gold.Chemscore.Fitness>
9.9495

> <Gold.Chemscore.DG>
-11.0007

> <Gold.Chemscore.ZeroCoef>
-5.4800

> <Gold.Chemscore.Hbond>
3.7364

> <Gold.Chemscore.Metal>
0.0000

> <Gold.Chemscore.Lipo>
28.6503

> <Gold.Chemscore.Internal_Hbond>
0.0000

> <Gold.Chemscore.DEClash>
0.0442

> <Gold.Chemscore.DEInternal>
1.0070

> <Gold.Chemscore.Rot>
4.0277

> <Gold.Chemscore.Internal.Correction>
   9.000000E+99

> <Gold.Chemscore.Hbonds>
donor molecule, donor type, donor heavy atom, donor atom, acceptor molecule, acceptor atom, score
      L1  H    17    31       P1  7957  1.00
      L1  H    19    32       P1  7948  0.99
      P1  H  7989  7998       L1    15  0.71
      P1  H 10752 10765       L1     8  0.70

> <Gold.Chemscore.Hbond.Weighted>
-12.4795

> <Gold.Chemscore.Metal.Weighted>
-0.0000

> <Gold.Chemscore.Lipo.Weighted>
-3.3521

> <Gold.Chemscore.Internal_Hbond.Weighted>
0.0000

> <Gold.Chemscore.DEClash.Weighted>
0.0442

> <Gold.Chemscore.DEInternal.Weighted>
1.0070

> <Gold.Chemscore.Rot.Weighted>
10.3110

> <Gold.Chemscore.Internal.Correction.Weighted>
   9.000000E+99

> <Gold.Protein.RotatedTorsions>
[ 6907 6896 6895 6894 ] final   17.33 input  -60.11 | X-H torsion
[ 7974 7965 7964 7962 ] final -134.03 input  175.53 | X-H torsion
[ 8008 7997 7996 7995 ] final   54.63 input   59.86 | X-H torsion
[ 10167 10162 10161 10158 ] final   70.02 input  -65.29 | X-H torsion
[ 10718 10713 10712 10709 ] final  -77.04 input   66.30 | X-H torsion
[ 10763 10752 10751 10750 ] final -156.41 input  -60.55 | X-H torsion
[ 11005 11000 10999 10996 ] final -133.17 input  -57.11 | X-H torsion

> <Gold.Protein.ActiveResidues>
 VAL166  LYS551  ARG553  GLY616  TRP617  ASP618  TYR619  PRO620  LYS621  CYS622 
 ASP623  PHE694  ASN695  SER759  ASP760  ASP761  ALA762  ILE779  LEU786  VAL792 
 PHE793  MET794  SER795  GLU796  ALA797  LYS798  CYS799  TRP800  GLU811  SER814 

> <Gold.Protein.RotatedAtoms>
  151.8479  135.0568  160.0455 H   0  0  0  0  0  0  0  0  0  0  0  0  # atno 6907 bound_to 6896
  152.2759  133.5421  159.5476 H   0  0  0  0  0  0  0  0  0  0  0  0  # atno 6908 bound_to 6896
  150.7170  134.0548  159.3853 H   0  0  0  0  0  0  0  0  0  0  0  0  # atno 6909 bound_to 6896
  144.9139  140.6930  143.5008 H   0  0  0  0  0  0  0  0  0  0  0  0  # atno 7974 bound_to 7965
  155.4878  140.3470  155.4350 H   0  0  0  0  0  0  0  0  0  0  0  0  # atno 8008 bound_to 7997
  156.0997  140.1432  156.9512 H   0  0  0  0  0  0  0  0  0  0  0  0  # atno 8009 bound_to 7997
  154.4686  140.0909  156.7062 H   0  0  0  0  0  0  0  0  0  0  0  0  # atno 8010 bound_to 7997
  140.0615  144.5229  150.7291 H   0  0  0  0  0  0  0  0  0  0  0  0  # atno 10167 bound_to 10162
  156.0156  130.4481  150.3285 H   0  0  0  0  0  0  0  0  0  0  0  0  # atno 10718 bound_to 10713
  154.7715  135.3146  154.8180 H   0  0  0  0  0  0  0  0  0  0  0  0  # atno 10763 bound_to 10752
  153.8914  135.6825  153.4764 H   0  0  0  0  0  0  0  0  0  0  0  0  # atno 10764 bound_to 10752
  153.1330  135.4772  154.9312 H   0  0  0  0  0  0  0  0  0  0  0  0  # atno 10765 bound_to 10752
  140.9105  134.1574  157.4393 H   0  0  0  0  0  0  0  0  0  0  0  0  # atno 11005 bound_to 11000
  145.3408  139.1733  143.4487 LP  0  0  0  0  0  0  0  0  0  0  0  0  # atno 17320 bound_to 7965
  146.3172  140.3449  142.8651 LP  0  0  0  0  0  0  0  0  0  0  0  0  # atno 17321 bound_to 7965
  140.7170  143.2553  151.4403 LP  0  0  0  0  0  0  0  0  0  0  0  0  # atno 17342 bound_to 10162
  139.5891  144.1539  152.2066 LP  0  0  0  0  0  0  0  0  0  0  0  0  # atno 17343 bound_to 10162
  157.1384  131.0290  151.2939 LP  0  0  0  0  0  0  0  0  0  0  0  0  # atno 17370 bound_to 10713
  157.4493  130.7589  149.7137 LP  0  0  0  0  0  0  0  0  0  0  0  0  # atno 17371 bound_to 10713
  139.8756  134.9934  156.5641 LP  0  0  0  0  0  0  0  0  0  0  0  0  # atno 17394 bound_to 11000
  140.8116  133.8424  155.8815 LP  0  0  0  0  0  0  0  0  0  0  0  0  # atno 17395 bound_to 11000

$$$$
