AV-unprocessed.smi:3161|AV-procd|sdf|12061|dock3
  -GOLD-   2272017493D 1   1.00000     0.00000
 Structure written by MMmdl.
 40 41  0  0  0  0  0  0  0  0  1 V2000
  147.1859  139.2936  153.3459 C   0  0  0  0  0  0  0  0  0  0  0  0
  148.5423  139.4913  153.9585 C   0  0  0  0  0  0  0  0  0  0  0  0
  149.1209  140.7017  154.4355 C   0  0  0  0  0  0  0  0  0  0  0  0
  150.3404  140.5335  154.9196 N   0  0  0  0  0  0  0  0  0  0  0  0
  150.5867  139.2149  154.7646 N   0  0  0  0  0  0  0  0  0  0  0  0
  151.8613  138.6563  155.1894 C   0  0  0  0  0  0  0  0  0  0  0  0
  152.0785  138.6949  156.7189 C   0  0  2  0  0  0  0  0  0  0  0  0
  150.8685  138.1372  157.4951 C   0  0  0  0  0  0  0  0  0  0  0  0
  152.4202  140.0586  157.1385 N   0  0  0  0  0  0  0  0  0  0  0  0
  152.1268  140.3903  158.5323 C   0  0  0  0  0  0  0  0  0  0  0  0
  152.4544  141.8614  158.8293 C   0  0  1  0  0  0  0  0  0  0  0  0
  151.6934  142.8375  157.9075 C   0  0  0  0  0  0  0  0  0  0  0  0
  151.9841  144.2894  158.3034 C   0  0  0  0  0  0  0  0  0  0  0  0
  151.6974  144.4852  159.7956 C   0  0  0  0  0  0  0  0  0  0  0  0
  152.4410  143.4272  160.6260 C   0  0  0  0  0  0  0  0  0  0  0  0
  152.0847  142.1213  160.1817 O   0  0  0  0  0  0  0  0  0  0  0  0
  149.5151  138.5616  154.1933 C   0  0  0  0  0  0  0  0  0  0  0  0
  146.6176  140.2233  153.3086 H   0  0  0  0  0  0  0  0  0  0  0  0
  146.5909  138.5757  153.9107 H   0  0  0  0  0  0  0  0  0  0  0  0
  147.2573  138.9198  152.3244 H   0  0  0  0  0  0  0  0  0  0  0  0
  148.6918  141.6928  154.4444 H   0  0  0  0  0  0  0  0  0  0  0  0
  151.9234  137.6262  154.8346 H   0  0  0  0  0  0  0  0  0  0  0  0
  152.6598  139.1984  154.6808 H   0  0  0  0  0  0  0  0  0  0  0  0
  152.9303  138.0477  156.9319 H   0  0  0  0  0  0  0  0  0  0  0  0
  150.5603  137.1733  157.0897 H   0  0  0  0  0  0  0  0  0  0  0  0
  150.0100  138.8077  157.4421 H   0  0  0  0  0  0  0  0  0  0  0  0
  151.1016  137.9762  158.5473 H   0  0  0  0  0  0  0  0  0  0  0  0
  151.9545  140.7251  156.5309 H   0  0  0  0  0  0  0  0  0  0  0  0
  151.0799  140.2024  158.7692 H   0  0  0  0  0  0  0  0  0  0  0  0
  152.7174  139.7501  159.1887 H   0  0  0  0  0  0  0  0  0  0  0  0
  153.5311  142.0131  158.7288 H   0  0  0  0  0  0  0  0  0  0  0  0
  151.9720  142.6768  156.8655 H   0  0  0  0  0  0  0  0  0  0  0  0
  150.6211  142.6487  157.9765 H   0  0  0  0  0  0  0  0  0  0  0  0
  153.0287  144.5241  158.0958 H   0  0  0  0  0  0  0  0  0  0  0  0
  151.3831  144.9755  157.7062 H   0  0  0  0  0  0  0  0  0  0  0  0
  151.9914  145.4875  160.1084 H   0  0  0  0  0  0  0  0  0  0  0  0
  150.6252  144.4021  159.9769 H   0  0  0  0  0  0  0  0  0  0  0  0
  153.5210  143.5646  160.5556 H   0  0  0  0  0  0  0  0  0  0  0  0
  152.1772  143.5250  161.6791 H   0  0  0  0  0  0  0  0  0  0  0  0
  149.5355  137.4992  153.9989 H   0  0  0  0  0  0  0  0  0  0  0  0
  1  2  1  0  0  0  0
  1 18  1  0  0  0  0
  1 19  1  0  0  0  0
  1 20  1  0  0  0  0
  2 17  2  0  0  0  0
  2  3  1  0  0  0  0
  3  4  2  0  0  0  0
  3 21  1  0  0  0  0
  4  5  1  0  0  0  0
  5  6  1  0  0  0  0
  5 17  1  0  0  0  0
  6  7  1  0  0  0  0
  6 22  1  0  0  0  0
  6 23  1  0  0  0  0
  7  8  1  0  0  0  0
  7  9  1  0  0  0  0
  7 24  1  0  0  0  0
  8 25  1  0  0  0  0
  8 26  1  0  0  0  0
  8 27  1  0  0  0  0
  9 10  1  0  0  0  0
  9 28  1  0  0  0  0
 10 11  1  0  0  0  0
 10 29  1  0  0  0  0
 10 30  1  0  0  0  0
 11 16  1  0  0  0  0
 11 12  1  0  0  0  0
 11 31  1  0  0  0  0
 12 13  1  0  0  0  0
 12 32  1  0  0  0  0
 12 33  1  0  0  0  0
 13 14  1  0  0  0  0
 13 34  1  0  0  0  0
 13 35  1  0  0  0  0
 14 15  1  0  0  0  0
 14 36  1  0  0  0  0
 14 37  1  0  0  0  0
 15 16  1  0  0  0  0
 15 38  1  0  0  0  0
 15 39  1  0  0  0  0
 17 40  1  0  0  0  0
M  END
> <s_m_source_file>
AV-unprocessed.smi

> <i_m_source_file_index>
3161

> <i_lp_mmshare_version>
43012

> <i_f3d_flags>
0

> <s_epik_input>
W0NIM11jMVtjSF1ubihbY0hdMSlbQ0gyXVtDQEhdKFtDSDNdKVtOSF1bQ0gyXVtDQEBIXTJbQ0gyXVtDSDJdW0NIMl1bQ0gyXU8y

> <s_epik_cmdline>
J2VwaWtfcHl0aG9uJywgJy1waCcsICc3LjAnLCAnLXRuJywgJzgnLCAnLW1hJywgJzIwMCcsICctbWV0YWxfYmluZGluZycsICctaW1hZScsICc8aW5maWxlLm1hZT4nLCAnLW9tYWUnLCAnPG91dGZpbGUubWFlPic=

> <r_lp_tautomer_probability>
1

> <r_epik_Ionization_Penalty>
2.51986

> <r_epik_Ionization_Penalty_Charging>
0

> <r_epik_Ionization_Penalty_Neutral>
2.51986

> <r_epik_State_Penalty>
2.68614

> <r_epik_Charging_Adjusted_Penalty>
2.68614

> <i_epik_Tot_Q>
0

> <i_epik_Tot_abs_Q>
0

> <r_epik_Metal_State_Penalty>
2.68606

> <b_epik_Metal_Only>
0

> <s_lp_Force_Field>
OPLS_2005

> <r_lp_Energy>
14.508

> <b_lp_Chiralities_Consistent>
1

> <s_lp_Variant>
AV-unprocessed.smi:3161-7

> <Gold.Version>
5.8.1

> <Gold.Id.Protein>
6NUR|6NUR_protein|mol2

> <Gold.PLP.Fitness>
44.2767

> <Gold.PLP.PLP>
-38.0822

> <Gold.PLP.part.hbond>
-2.0000

> <Gold.PLP.part.metal>
0.0000

> <Gold.PLP.part.buried>
-2.0785

> <Gold.PLP.part.nonpolar>
-33.7876

> <Gold.PLP.part.repulsive>
0.0943

> <Gold.PLP.ligand.clash>
0.0000

> <Gold.PLP.ligand.torsion>
0.4555

> <Gold.PLP.Chemscore.Hbond>
1.3712

> <Gold.PLP.Chemscore.CHOScore>
0.9820

> <Gold.PLP.Chemscore.Metal>
0.0000

> <Gold.Chemscore.Hbonds>
donor molecule, donor type, donor heavy atom, donor atom, acceptor molecule, acceptor atom, score
      P1  H  7989  7998       L1     4  0.43
      P1  H  7997  8009       L1     9  1.00
      L1  C    17    40       P1  7948  0.99

> <Gold.PLP.Chemscore.Internal.Correction>
0.0461

> <Gold.Rescore>
     Score         DG    S(hbond)    S(metal)    S(lipo)     H(rot)  DE(clash)    DE(int)     intcor
     14.53     -15.24       0.23        0.00     109.77       1.50       0.26       0.44       ----

> <Gold.Chemscore.Fitness>
14.5340

> <Gold.Chemscore.DG>
-15.2391

> <Gold.Chemscore.ZeroCoef>
-5.4800

> <Gold.Chemscore.Hbond>
0.2287

> <Gold.Chemscore.Metal>
0.0000

> <Gold.Chemscore.Lipo>
109.7703

> <Gold.Chemscore.Internal_Hbond>
0.0000

> <Gold.Chemscore.DEClash>
0.2606

> <Gold.Chemscore.DEInternal>
0.4446

> <Gold.Chemscore.Rot>
1.5030

> <Gold.Chemscore.Internal.Correction>
   9.000000E+99

> <Gold.Chemscore.Hbonds>
donor molecule, donor type, donor heavy atom, donor atom, acceptor molecule, acceptor atom, score
      P1  H  7989  7998       L1     4  0.01
      P1  H  7997  8009       L1     9  0.11

> <Gold.Chemscore.Hbond.Weighted>
-0.7637

> <Gold.Chemscore.Metal.Weighted>
-0.0000

> <Gold.Chemscore.Lipo.Weighted>
-12.8431

> <Gold.Chemscore.Internal_Hbond.Weighted>
0.0000

> <Gold.Chemscore.DEClash.Weighted>
0.2606

> <Gold.Chemscore.DEInternal.Weighted>
0.4446

> <Gold.Chemscore.Rot.Weighted>
3.8477

> <Gold.Chemscore.Internal.Correction.Weighted>
   9.000000E+99

> <Gold.Protein.RotatedTorsions>
[ 6907 6896 6895 6894 ] final  -89.71 input  -60.11 | X-H torsion
[ 7974 7965 7964 7962 ] final  153.15 input  175.53 | X-H torsion
[ 8008 7997 7996 7995 ] final -176.33 input   59.86 | X-H torsion
[ 10167 10162 10161 10158 ] final  112.91 input  -65.29 | X-H torsion
[ 10718 10713 10712 10709 ] final -112.38 input   66.30 | X-H torsion
[ 10763 10752 10751 10750 ] final  -87.86 input  -60.55 | X-H torsion
[ 11005 11000 10999 10996 ] final  101.72 input  -57.11 | X-H torsion

> <Gold.Protein.ActiveResidues>
 VAL166  LYS551  ARG553  GLY616  TRP617  ASP618  TYR619  PRO620  LYS621  CYS622 
 ASP623  PHE694  ASN695  SER759  ASP760  ASP761  ALA762  ILE779  LEU786  VAL792 
 PHE793  MET794  SER795  GLU796  ALA797  LYS798  CYS799  TRP800  GLU811  SER814 

> <Gold.Protein.RotatedAtoms>
  150.6876  134.2544  159.4523 H   0  0  0  0  0  0  0  0  0  0  0  0  # atno 6907 bound_to 6896
  152.0479  134.9669  160.0584 H   0  0  0  0  0  0  0  0  0  0  0  0  # atno 6908 bound_to 6896
  152.1145  133.4284  159.4683 H   0  0  0  0  0  0  0  0  0  0  0  0  # atno 6909 bound_to 6896
  144.8174  139.6763  143.6115 H   0  0  0  0  0  0  0  0  0  0  0  0  # atno 7974 bound_to 7965
  155.9935  140.1206  157.0615 H   0  0  0  0  0  0  0  0  0  0  0  0  # atno 8008 bound_to 7997
  154.4219  140.1121  156.5667 H   0  0  0  0  0  0  0  0  0  0  0  0  # atno 8009 bound_to 7997
  155.6310  140.3473  155.4685 H   0  0  0  0  0  0  0  0  0  0  0  0  # atno 8010 bound_to 7997
  139.6500  144.7128  151.2066 H   0  0  0  0  0  0  0  0  0  0  0  0  # atno 10167 bound_to 10162
  156.0702  130.5917  150.8500 H   0  0  0  0  0  0  0  0  0  0  0  0  # atno 10718 bound_to 10713
  154.6383  135.5398  153.7759 H   0  0  0  0  0  0  0  0  0  0  0  0  # atno 10763 bound_to 10752
  153.0320  135.6453  154.1198 H   0  0  0  0  0  0  0  0  0  0  0  0  # atno 10764 bound_to 10752
  154.1124  135.2926  155.3207 H   0  0  0  0  0  0  0  0  0  0  0  0  # atno 10765 bound_to 10752
  139.8774  134.9195  156.4950 H   0  0  0  0  0  0  0  0  0  0  0  0  # atno 11005 bound_to 11000
  146.2477  139.6134  142.9448 LP  0  0  0  0  0  0  0  0  0  0  0  0  # atno 17320 bound_to 7965
  145.5184  141.0433  143.2449 LP  0  0  0  0  0  0  0  0  0  0  0  0  # atno 17321 bound_to 7965
  140.7533  143.6166  150.8554 LP  0  0  0  0  0  0  0  0  0  0  0  0  # atno 17342 bound_to 10162
  139.9813  143.5948  152.2942 LP  0  0  0  0  0  0  0  0  0  0  0  0  # atno 17343 bound_to 10162
  157.5768  131.0946  150.9333 LP  0  0  0  0  0  0  0  0  0  0  0  0  # atno 17370 bound_to 10713
  156.9537  130.5429  149.5283 LP  0  0  0  0  0  0  0  0  0  0  0  0  # atno 17371 bound_to 10713
  140.8631  133.8045  155.9286 LP  0  0  0  0  0  0  0  0  0  0  0  0  # atno 17394 bound_to 11000
  140.9029  134.2356  157.5031 LP  0  0  0  0  0  0  0  0  0  0  0  0  # atno 17395 bound_to 11000

$$$$
