AV-unprocessed.smi:109|AV-procd|sdf|1037|dock7
  -GOLD-   2262018 53D 1   1.00000     0.00000
 Structure written by MMmdl.
 58 61  0  0  0  0  0  0  0  0  1 V2000
  142.9279  132.9649  157.0750 O   0  0  0  0  0  0  0  0  0  0  0  0
  143.8877  133.5788  157.9080 C   0  0  0  0  0  0  0  0  0  0  0  0
  143.6335  135.0947  157.9693 C   0  0  0  0  0  0  0  0  0  0  0  0
  144.9062  135.9418  158.2159 C   0  0  2  0  0  0  0  0  0  0  0  0
  145.8661  135.7051  157.1351 N   0  0  0  0  0  0  0  0  0  0  0  0
  145.5753  135.9705  155.8417 C   0  0  0  0  0  0  0  0  0  0  0  0
  145.1256  137.1910  155.4488 N   0  0  0  0  0  0  0  0  0  0  0  0
  144.8456  137.4205  154.1623 C   0  0  0  0  0  0  0  0  0  0  0  0
  144.9432  136.5859  153.1250 N   0  0  0  0  0  0  0  0  0  0  0  0
  145.3926  135.3586  153.5166 C   0  0  0  0  0  0  0  0  0  0  0  0
  145.7286  134.9741  154.8435 C   0  0  0  0  0  0  0  0  0  0  0  0
  146.1536  133.6520  154.8555 N   0  0  0  0  0  0  0  0  0  0  0  0
  146.0743  133.2826  153.6045 C   0  0  0  0  0  0  0  0  0  0  0  0
  145.6129  134.2474  152.7339 N   0  0  0  0  0  0  0  0  0  0  0  0
  145.4087  134.1750  151.2528 C   0  0  1  0  0  0  0  0  0  0  0  0
  146.2553  133.1903  150.7256 O   0  0  0  0  0  0  0  0  0  0  0  0
  145.5174  132.1556  150.0726 C   0  0  1  0  0  0  0  0  0  0  0  0
  145.3524  130.9600  151.0366 C   0  0  0  0  0  0  0  0  0  0  0  0
  146.6207  130.5070  151.4589 O   0  0  0  0  0  0  0  0  0  0  0  0
  144.2179  132.8752  149.6871 C   0  0  1  0  0  0  0  0  0  0  0  0
  143.1261  132.0319  149.3685 O   0  0  0  0  0  0  0  0  0  0  0  0
  143.9626  133.8081  150.8597 C   0  0  1  0  0  0  0  0  0  0  0  0
  143.2218  133.1855  151.8985 O   0  0  0  0  0  0  0  0  0  0  0  0
  145.5883  135.6555  159.5851 C   0  0  0  0  0  0  0  0  0  0  0  0
  144.7655  136.1702  160.7934 C   0  0  0  0  0  0  0  0  0  0  0  0
  145.4721  135.9249  162.1369 C   0  0  0  0  0  0  0  0  0  0  0  0
  146.8744  136.5443  162.1560 C   0  0  0  0  0  0  0  0  0  0  0  0
  147.7113  136.0159  160.9855 C   0  0  0  0  0  0  0  0  0  0  0  0
  147.0101  136.2726  159.6428 C   0  0  0  0  0  0  0  0  0  0  0  0
  145.7186  135.1539  150.8840 H   0  0  0  0  0  0  0  0  0  0  0  0
  146.0387  131.8304  149.1711 H   0  0  0  0  0  0  0  0  0  0  0  0
  144.4227  133.4871  148.8070 H   0  0  0  0  0  0  0  0  0  0  0  0
  143.4280  134.7069  150.5507 H   0  0  0  0  0  0  0  0  0  0  0  0
  142.1072  133.4230  157.1738 H   0  0  0  0  0  0  0  0  0  0  0  0
  143.8269  133.1257  158.8975 H   0  0  0  0  0  0  0  0  0  0  0  0
  144.8825  133.3721  157.5126 H   0  0  0  0  0  0  0  0  0  0  0  0
  143.1803  135.3737  157.0199 H   0  0  0  0  0  0  0  0  0  0  0  0
  142.8925  135.3132  158.7398 H   0  0  0  0  0  0  0  0  0  0  0  0
  144.6060  136.9891  158.2374 H   0  0  0  0  0  0  0  0  0  0  0  0
  146.7882  135.4200  157.4328 H   0  0  0  0  0  0  0  0  0  0  0  0
  144.4931  138.4150  153.9313 H   0  0  0  0  0  0  0  0  0  0  0  0
  146.3550  132.2892  153.2868 H   0  0  0  0  0  0  0  0  0  0  0  0
  144.7382  131.2064  151.9016 H   0  0  0  0  0  0  0  0  0  0  0  0
  144.8713  130.1220  150.5330 H   0  0  0  0  0  0  0  0  0  0  0  0
  147.2533  130.7183  150.7891 H   0  0  0  0  0  0  0  0  0  0  0  0
  142.3443  132.5603  149.3146 H   0  0  0  0  0  0  0  0  0  0  0  0
  143.8183  132.9697  152.5991 H   0  0  0  0  0  0  0  0  0  0  0  0
  145.6892  134.5738  159.6911 H   0  0  0  0  0  0  0  0  0  0  0  0
  144.5669  137.2363  160.6753 H   0  0  0  0  0  0  0  0  0  0  0  0
  143.7962  135.6771  160.8422 H   0  0  0  0  0  0  0  0  0  0  0  0
  144.8745  136.3371  162.9504 H   0  0  0  0  0  0  0  0  0  0  0  0
  145.5444  134.8522  162.3206 H   0  0  0  0  0  0  0  0  0  0  0  0
  146.7986  137.6306  162.0938 H   0  0  0  0  0  0  0  0  0  0  0  0
  147.3697  136.3199  163.1011 H   0  0  0  0  0  0  0  0  0  0  0  0
  148.6931  136.4899  160.9876 H   0  0  0  0  0  0  0  0  0  0  0  0
  147.8833  134.9461  161.1099 H   0  0  0  0  0  0  0  0  0  0  0  0
  147.6402  135.8691  158.8500 H   0  0  0  0  0  0  0  0  0  0  0  0
  146.9495  137.3473  159.4653 H   0  0  0  0  0  0  0  0  0  0  0  0
  1  2  1  0  0  0  0
  1 34  1  0  0  0  0
  2  3  1  0  0  0  0
  2 35  1  0  0  0  0
  2 36  1  0  0  0  0
  3  4  1  0  0  0  0
  3 37  1  0  0  0  0
  3 38  1  0  0  0  0
  4  5  1  0  0  0  0
  4 24  1  0  0  0  0
  4 39  1  0  0  0  0
  5  6  1  0  0  0  0
  5 40  1  0  0  0  0
  6 11  1  0  0  0  0
  6  7  2  0  0  0  0
  7  8  1  0  0  0  0
  8  9  2  0  0  0  0
  8 41  1  0  0  0  0
  9 10  1  0  0  0  0
 10 14  1  0  0  0  0
 10 11  2  0  0  0  0
 11 12  1  0  0  0  0
 12 13  2  0  0  0  0
 13 14  1  0  0  0  0
 13 42  1  0  0  0  0
 14 15  1  0  0  0  0
 15 30  1  0  0  0  0
 15 22  1  0  0  0  0
 15 16  1  0  0  0  0
 16 17  1  0  0  0  0
 17 31  1  0  0  0  0
 17 18  1  0  0  0  0
 17 20  1  0  0  0  0
 18 19  1  0  0  0  0
 18 43  1  0  0  0  0
 18 44  1  0  0  0  0
 19 45  1  0  0  0  0
 20 32  1  0  0  0  0
 20 21  1  0  0  0  0
 20 22  1  0  0  0  0
 21 46  1  0  0  0  0
 22 33  1  0  0  0  0
 22 23  1  0  0  0  0
 23 47  1  0  0  0  0
 24 29  1  0  0  0  0
 24 25  1  0  0  0  0
 24 48  1  0  0  0  0
 25 26  1  0  0  0  0
 25 49  1  0  0  0  0
 25 50  1  0  0  0  0
 26 27  1  0  0  0  0
 26 51  1  0  0  0  0
 26 52  1  0  0  0  0
 27 28  1  0  0  0  0
 27 53  1  0  0  0  0
 27 54  1  0  0  0  0
 28 29  1  0  0  0  0
 28 55  1  0  0  0  0
 28 56  1  0  0  0  0
 29 57  1  0  0  0  0
 29 58  1  0  0  0  0
M  END
> <s_m_source_file>
AV-unprocessed.smi

> <i_m_source_file_index>
109

> <i_lp_mmshare_version>
43012

> <i_f3d_flags>
0

> <s_epik_input>
W0NIMl0xW0NIMl1bQ0gyXVtDSDJdW0NIMl1bQ0hdMVtDQEhdKFtDSDJdW0NIMl1bT0hdKVtOSF1jKG5bY0hdbjIpYyhjMjMpbltjSF1uM1tDQEBIXTRPW0NASF0oW0NIMl1bT0hdKVtDQEBIXShbT0hdKVtDQEhdNFtPSF0=

> <s_epik_cmdline>
J2VwaWtfcHl0aG9uJywgJy1waCcsICc3LjAnLCAnLXRuJywgJzgnLCAnLW1hJywgJzIwMCcsICctbWV0YWxfYmluZGluZycsICctaW1hZScsICc8aW5maWxlLm1hZT4nLCAnLW9tYWUnLCAnPG91dGZpbGUubWFlPic=

> <r_lp_tautomer_probability>
1

> <r_epik_Ionization_Penalty>
0.000793976

> <r_epik_Ionization_Penalty_Charging>
0

> <r_epik_Ionization_Penalty_Neutral>
0.000793976

> <r_epik_State_Penalty>
-0

> <r_epik_Charging_Adjusted_Penalty>
0

> <i_epik_Tot_Q>
0

> <i_epik_Tot_abs_Q>
0

> <r_epik_Metal_State_Penalty>
-0

> <b_epik_Metal_Only>
0

> <s_epik_Chemistry_Notes>
This compound contains an acetal/aminal-like group ( X-CH(R)-Y where X, Y are N, S, or O) that may be acid/base labile, releasing an aldehyde.

> <s_lp_Force_Field>
OPLS_2005

> <r_lp_Energy>
61.3844

> <b_lp_Chiralities_Consistent>
1

> <s_lp_Variant>
AV-unprocessed.smi:109-7

> <Gold.Version>
5.8.1

> <Gold.Id.Protein>
6NUR|6NUR_protein|mol2

> <Gold.PLP.Fitness>
45.8188

> <Gold.PLP.PLP>
-35.2377

> <Gold.PLP.part.hbond>
-5.9536

> <Gold.PLP.part.metal>
0.0000

> <Gold.PLP.part.buried>
-8.2940

> <Gold.PLP.part.nonpolar>
-21.0972

> <Gold.PLP.part.repulsive>
0.4287

> <Gold.PLP.ligand.clash>
0.0000

> <Gold.PLP.ligand.torsion>
1.5787

> <Gold.PLP.Chemscore.Hbond>
3.5275

> <Gold.PLP.Chemscore.CHOScore>
1.0000

> <Gold.PLP.Chemscore.Metal>
0.0000

> <Gold.Chemscore.Hbonds>
donor molecule, donor type, donor heavy atom, donor atom, acceptor molecule, acceptor atom, score
      L1  H     1    34       P1 11000  1.00
      L1  H    19    45       P1 10747  0.99
      L1  H    21    46       P1 10186  0.34
      P1  H 10785 10796       L1    21  1.00
      L1  C     8    41       P1 10175  0.73

> <Gold.PLP.Chemscore.Internal.Correction>
0.1560

> <Gold.Rescore>
     Score         DG    S(hbond)    S(metal)    S(lipo)     H(rot)  DE(clash)    DE(int)     intcor
      9.21     -10.71       3.41        0.00      66.90       5.47       0.00       1.50       ----

> <Gold.Chemscore.Fitness>
9.2109

> <Gold.Chemscore.DG>
-10.7108

> <Gold.Chemscore.ZeroCoef>
-5.4800

> <Gold.Chemscore.Hbond>
3.4122

> <Gold.Chemscore.Metal>
0.0000

> <Gold.Chemscore.Lipo>
66.9023

> <Gold.Chemscore.Internal_Hbond>
0.0000

> <Gold.Chemscore.DEClash>
0.0048

> <Gold.Chemscore.DEInternal>
1.4950

> <Gold.Chemscore.Rot>
5.4662

> <Gold.Chemscore.Internal.Correction>
   9.000000E+99

> <Gold.Chemscore.Hbonds>
donor molecule, donor type, donor heavy atom, donor atom, acceptor molecule, acceptor atom, score
      L1  H     1    34       P1 11000  0.74
      L1  H    19    45       P1 10747  0.93
      L1  H    21    46       P1 10186  0.35
      P1  H 10785 10796       L1    21  0.95

> <Gold.Chemscore.Hbond.Weighted>
-11.3967

> <Gold.Chemscore.Metal.Weighted>
-0.0000

> <Gold.Chemscore.Lipo.Weighted>
-7.8276

> <Gold.Chemscore.Internal_Hbond.Weighted>
0.0000

> <Gold.Chemscore.DEClash.Weighted>
0.0048

> <Gold.Chemscore.DEInternal.Weighted>
1.4950

> <Gold.Chemscore.Rot.Weighted>
13.9935

> <Gold.Chemscore.Internal.Correction.Weighted>
   9.000000E+99

> <Gold.Protein.RotatedTorsions>
[ 6907 6896 6895 6894 ] final -140.95 input  -60.11 | X-H torsion
[ 7974 7965 7964 7962 ] final -171.57 input  175.53 | X-H torsion
[ 8008 7997 7996 7995 ] final   96.04 input   59.86 | X-H torsion
[ 10167 10162 10161 10158 ] final  -44.43 input  -65.29 | X-H torsion
[ 10718 10713 10712 10709 ] final  122.06 input   66.30 | X-H torsion
[ 10763 10752 10751 10750 ] final  -27.01 input  -60.55 | X-H torsion
[ 11005 11000 10999 10996 ] final   56.49 input  -57.11 | X-H torsion

> <Gold.Protein.ActiveResidues>
 VAL166  LYS551  ARG553  GLY616  TRP617  ASP618  TYR619  PRO620  LYS621  CYS622 
 ASP623  PHE694  ASN695  SER759  ASP760  ASP761  ALA762  ILE779  LEU786  VAL792 
 PHE793  MET794  SER795  GLU796  ALA797  LYS798  CYS799  TRP800  GLU811  SER814 

> <Gold.Protein.RotatedAtoms>
  151.0673  133.5494  159.2629 H   0  0  0  0  0  0  0  0  0  0  0  0  # atno 6907 bound_to 6896
  151.2447  135.0600  159.9048 H   0  0  0  0  0  0  0  0  0  0  0  0  # atno 6908 bound_to 6896
  152.5406  134.0443  159.8135 H   0  0  0  0  0  0  0  0  0  0  0  0  # atno 6909 bound_to 6896
  144.7155  140.1902  143.6349 H   0  0  0  0  0  0  0  0  0  0  0  0  # atno 7974 bound_to 7965
  156.0754  140.3278  155.7627 H   0  0  0  0  0  0  0  0  0  0  0  0  # atno 8008 bound_to 7997
  155.5239  140.0587  157.2919 H   0  0  0  0  0  0  0  0  0  0  0  0  # atno 8009 bound_to 7997
  154.4552  140.1939  156.0417 H   0  0  0  0  0  0  0  0  0  0  0  0  # atno 8010 bound_to 7997
  140.6897  143.2931  151.3494 H   0  0  0  0  0  0  0  0  0  0  0  0  # atno 10167 bound_to 10162
  157.5771  131.1078  150.8258 H   0  0  0  0  0  0  0  0  0  0  0  0  # atno 10718 bound_to 10713
  153.7252  135.6942  153.5003 H   0  0  0  0  0  0  0  0  0  0  0  0  # atno 10763 bound_to 10752
  153.2175  135.4381  155.0450 H   0  0  0  0  0  0  0  0  0  0  0  0  # atno 10764 bound_to 10752
  154.8271  135.3452  154.6784 H   0  0  0  0  0  0  0  0  0  0  0  0  # atno 10765 bound_to 10752
  140.0525  134.5716  155.9246 H   0  0  0  0  0  0  0  0  0  0  0  0  # atno 11005 bound_to 11000
  145.8776  139.2305  143.1624 LP  0  0  0  0  0  0  0  0  0  0  0  0  # atno 17320 bound_to 7965
  146.0026  140.8507  143.0011 LP  0  0  0  0  0  0  0  0  0  0  0  0  # atno 17321 bound_to 7965
  139.6288  144.0762  152.2458 LP  0  0  0  0  0  0  0  0  0  0  0  0  # atno 17342 bound_to 10162
  140.0230  144.6139  150.7551 LP  0  0  0  0  0  0  0  0  0  0  0  0  # atno 17343 bound_to 10162
  156.8714  130.5147  149.5296 LP  0  0  0  0  0  0  0  0  0  0  0  0  # atno 17370 bound_to 10713
  156.0816  130.5825  150.9573 LP  0  0  0  0  0  0  0  0  0  0  0  0  # atno 17371 bound_to 10713
  141.1937  133.6580  156.5560 LP  0  0  0  0  0  0  0  0  0  0  0  0  # atno 17394 bound_to 11000
  140.3895  134.7453  157.4712 LP  0  0  0  0  0  0  0  0  0  0  0  0  # atno 17395 bound_to 11000

$$$$
