AV-unprocessed.smi:444|AV-procd|sdf|2588|dock2
  -GOLD-   2262022583D 1   1.00000     0.00000
 Structure written by MMmdl.
 45 46  0  0  0  0  0  0  0  0  1 V2000
  154.8055  140.4577  160.1845 C   0  0  0  0  0  0  0  0  0  0  0  0
  153.5040  140.9421  159.5791 C   0  0  0  0  0  0  0  0  0  0  0  0
  153.1978  142.3163  159.5579 C   0  0  0  0  0  0  0  0  0  0  0  0
  151.9866  142.7574  158.9955 C   0  0  0  0  0  0  0  0  0  0  0  0
  151.0748  141.8289  158.4516 C   0  0  0  0  0  0  0  0  0  0  0  0
  149.7730  142.3222  157.8484 C   0  0  0  0  0  0  0  0  0  0  0  0
  151.3699  140.4458  158.4656 C   0  0  0  0  0  0  0  0  0  0  0  0
  150.4360  139.5922  157.9148 O   0  0  0  0  0  0  0  0  0  0  0  0
  150.8861  138.3809  157.3228 C   0  0  0  0  0  0  0  0  0  0  0  0
  150.4698  137.2060  158.2241 C   0  0  1  0  0  0  0  0  0  0  0  0
  151.2572  137.2830  159.3966 O   0  0  0  0  0  0  0  0  0  0  0  0
  148.9820  137.2931  158.6311 C   0  0  0  0  0  0  0  0  0  0  0  0
  148.6089  136.2319  159.5751 N   0  0  0  0  0  0  0  0  0  0  0  0
  148.0944  136.6984  160.7695 N   0  0  0  0  0  0  0  0  0  0  0  0
  147.6990  135.8875  161.6949 C   0  0  0  0  0  0  0  0  0  0  0  0
  147.1560  136.5100  162.9530 C   0  0  0  0  0  0  0  0  0  0  0  0
  147.7946  134.4469  161.4831 C   0  0  0  0  0  0  0  0  0  0  0  0
  147.3118  133.5403  162.6073 C   0  0  0  0  0  0  0  0  0  0  0  0
  148.3070  134.0012  160.3087 C   0  0  0  0  0  0  0  0  0  0  0  0
  148.4430  132.6110  160.0148 C   0  0  0  0  0  0  0  0  0  0  0  0
  148.5636  131.4808  159.7954 N   0  0  0  0  0  0  0  0  0  0  0  0
  148.7577  134.9145  159.2559 C   0  0  0  0  0  0  0  0  0  0  0  0
  149.2264  134.5401  158.1799 O   0  0  0  0  0  0  0  0  0  0  0  0
  152.5936  140.0125  159.0372 C   0  0  0  0  0  0  0  0  0  0  0  0
  155.4985  141.2835  160.3483 H   0  0  0  0  0  0  0  0  0  0  0  0
  155.2885  139.7373  159.5238 H   0  0  0  0  0  0  0  0  0  0  0  0
  154.6173  139.9731  161.1427 H   0  0  0  0  0  0  0  0  0  0  0  0
  153.8885  143.0363  159.9720 H   0  0  0  0  0  0  0  0  0  0  0  0
  151.7605  143.8136  158.9833 H   0  0  0  0  0  0  0  0  0  0  0  0
  149.7219  142.0568  156.7920 H   0  0  0  0  0  0  0  0  0  0  0  0
  149.6782  143.4054  157.9305 H   0  0  0  0  0  0  0  0  0  0  0  0
  148.9233  141.8679  158.3587 H   0  0  0  0  0  0  0  0  0  0  0  0
  150.4939  138.2522  156.3120 H   0  0  0  0  0  0  0  0  0  0  0  0
  151.9744  138.4222  157.2560 H   0  0  0  0  0  0  0  0  0  0  0  0
  150.6629  136.2651  157.7070 H   0  0  0  0  0  0  0  0  0  0  0  0
  150.8789  136.7175  160.0525 H   0  0  0  0  0  0  0  0  0  0  0  0
  148.7360  138.2879  159.0075 H   0  0  0  0  0  0  0  0  0  0  0  0
  148.3582  137.1728  157.7435 H   0  0  0  0  0  0  0  0  0  0  0  0
  147.7262  136.1847  163.8233 H   0  0  0  0  0  0  0  0  0  0  0  0
  146.1142  136.2273  163.1054 H   0  0  0  0  0  0  0  0  0  0  0  0
  147.2000  137.5997  162.9201 H   0  0  0  0  0  0  0  0  0  0  0  0
  147.3786  132.4849  162.3442 H   0  0  0  0  0  0  0  0  0  0  0  0
  146.2692  133.7493  162.8489 H   0  0  0  0  0  0  0  0  0  0  0  0
  147.9111  133.6937  163.5054 H   0  0  0  0  0  0  0  0  0  0  0  0
  152.8575  138.9665  159.0717 H   0  0  0  0  0  0  0  0  0  0  0  0
  1  2  1  0  0  0  0
  1 25  1  0  0  0  0
  1 26  1  0  0  0  0
  1 27  1  0  0  0  0
  2 24  1  0  0  0  0
  2  3  2  0  0  0  0
  3  4  1  0  0  0  0
  3 28  1  0  0  0  0
  4  5  2  0  0  0  0
  4 29  1  0  0  0  0
  5  6  1  0  0  0  0
  5  7  1  0  0  0  0
  6 30  1  0  0  0  0
  6 31  1  0  0  0  0
  6 32  1  0  0  0  0
  7  8  1  0  0  0  0
  7 24  2  0  0  0  0
  8  9  1  0  0  0  0
  9 10  1  0  0  0  0
  9 33  1  0  0  0  0
  9 34  1  0  0  0  0
 10 11  1  0  0  0  0
 10 12  1  0  0  0  0
 10 35  1  0  0  0  0
 11 36  1  0  0  0  0
 12 13  1  0  0  0  0
 12 37  1  0  0  0  0
 12 38  1  0  0  0  0
 13 22  1  0  0  0  0
 13 14  1  0  0  0  0
 14 15  2  0  0  0  0
 15 16  1  0  0  0  0
 15 17  1  0  0  0  0
 16 39  1  0  0  0  0
 16 40  1  0  0  0  0
 16 41  1  0  0  0  0
 17 18  1  0  0  0  0
 17 19  2  0  0  0  0
 18 42  1  0  0  0  0
 18 43  1  0  0  0  0
 18 44  1  0  0  0  0
 19 20  1  0  0  0  0
 19 22  1  0  0  0  0
 20 21  3  0  0  0  0
 22 23  2  0  0  0  0
 24 45  1  0  0  0  0
M  END
> <s_m_source_file>
AV-unprocessed.smi

> <i_m_source_file_index>
444

> <i_lp_mmshare_version>
43012

> <i_f3d_flags>
0

> <s_epik_input>
W0NIM11jMVtjSF1bY0hdYyhbQ0gzXSljKFtjSF0xKU9bQ0gyXVtDQEhdKFtPSF0pW0NIMl1uMm5jKFtDSDNdKWMoW0NIM10pYyhDI04pYzI9Tw==

> <s_epik_cmdline>
J2VwaWtfcHl0aG9uJywgJy1waCcsICc3LjAnLCAnLXRuJywgJzgnLCAnLW1hJywgJzIwMCcsICctbWV0YWxfYmluZGluZycsICctaW1hZScsICc8aW5maWxlLm1hZT4nLCAnLW9tYWUnLCAnPG91dGZpbGUubWFlPic=

> <r_lp_tautomer_probability>
1

> <r_epik_Ionization_Penalty>
1.17331e-07

> <r_epik_Ionization_Penalty_Charging>
1.57223e-10

> <r_epik_Ionization_Penalty_Neutral>
1.17174e-07

> <r_epik_State_Penalty>
-0

> <r_epik_Charging_Adjusted_Penalty>
1.57223e-10

> <i_epik_Tot_Q>
0

> <i_epik_Tot_abs_Q>
0

> <r_epik_Metal_State_Penalty>
-0

> <b_epik_Metal_Only>
0

> <s_lp_Force_Field>
OPLS_2005

> <r_lp_Energy>
32.4142

> <b_lp_Chiralities_Consistent>
1

> <s_lp_Variant>
AV-unprocessed.smi:444-2

> <Gold.Version>
5.8.1

> <Gold.Id.Protein>
6NUR|6NUR_protein|mol2

> <Gold.PLP.Fitness>
51.7343

> <Gold.PLP.PLP>
-45.1198

> <Gold.PLP.part.hbond>
-3.4573

> <Gold.PLP.part.metal>
0.0000

> <Gold.PLP.part.buried>
-4.7427

> <Gold.PLP.part.nonpolar>
-38.1903

> <Gold.PLP.part.repulsive>
0.0000

> <Gold.PLP.ligand.clash>
0.0000

> <Gold.PLP.ligand.torsion>
0.7861

> <Gold.PLP.Chemscore.Hbond>
2.7120

> <Gold.PLP.Chemscore.CHOScore>
0.0000

> <Gold.PLP.Chemscore.Metal>
0.0000

> <Gold.Chemscore.Hbonds>
donor molecule, donor type, donor heavy atom, donor atom, acceptor molecule, acceptor atom, score
      P1  H  6931  6943       L1    14  0.73

> <Gold.PLP.Chemscore.Internal.Correction>
0.0507

> <Gold.Rescore>
     Score         DG    S(hbond)    S(metal)    S(lipo)     H(rot)  DE(clash)    DE(int)     intcor
     16.67     -19.36       1.78        0.00     118.02       2.29       0.64       2.05       ----

> <Gold.Chemscore.Fitness>
16.6717

> <Gold.Chemscore.DG>
-19.3630

> <Gold.Chemscore.ZeroCoef>
-5.4800

> <Gold.Chemscore.Hbond>
1.7778

> <Gold.Chemscore.Metal>
0.0000

> <Gold.Chemscore.Lipo>
118.0224

> <Gold.Chemscore.Internal_Hbond>
0.0000

> <Gold.Chemscore.DEClash>
0.6369

> <Gold.Chemscore.DEInternal>
2.0545

> <Gold.Chemscore.Rot>
2.2905

> <Gold.Chemscore.Internal.Correction>
   9.000000E+99

> <Gold.Chemscore.Hbonds>
donor molecule, donor type, donor heavy atom, donor atom, acceptor molecule, acceptor atom, score
      P1  H  6931  6943       L1    14  0.24
      P1  H  6934  6947       L1    14  0.01

> <Gold.Chemscore.Hbond.Weighted>
-5.9380

> <Gold.Chemscore.Metal.Weighted>
-0.0000

> <Gold.Chemscore.Lipo.Weighted>
-13.8086

> <Gold.Chemscore.Internal_Hbond.Weighted>
0.0000

> <Gold.Chemscore.DEClash.Weighted>
0.6369

> <Gold.Chemscore.DEInternal.Weighted>
2.0545

> <Gold.Chemscore.Rot.Weighted>
5.8636

> <Gold.Chemscore.Internal.Correction.Weighted>
   9.000000E+99

> <Gold.Protein.RotatedTorsions>
[ 6907 6896 6895 6894 ] final  137.98 input  -60.11 | X-H torsion
[ 7974 7965 7964 7962 ] final   19.34 input  175.53 | X-H torsion
[ 8008 7997 7996 7995 ] final  115.55 input   59.86 | X-H torsion
[ 10167 10162 10161 10158 ] final  142.54 input  -65.29 | X-H torsion
[ 10718 10713 10712 10709 ] final -156.96 input   66.30 | X-H torsion
[ 10763 10752 10751 10750 ] final  -74.98 input  -60.55 | X-H torsion
[ 11005 11000 10999 10996 ] final  -87.01 input  -57.11 | X-H torsion

> <Gold.Protein.ActiveResidues>
 VAL166  LYS551  ARG553  GLY616  TRP617  ASP618  TYR619  PRO620  LYS621  CYS622 
 ASP623  PHE694  ASN695  SER759  ASP760  ASP761  ALA762  ILE779  LEU786  VAL792 
 PHE793  MET794  SER795  GLU796  ALA797  LYS798  CYS799  TRP800  GLU811  SER814 

> <Gold.Protein.RotatedAtoms>
  152.2719  133.5390  159.5444 H   0  0  0  0  0  0  0  0  0  0  0  0  # atno 6907 bound_to 6896
  150.7162  134.0685  159.3865 H   0  0  0  0  0  0  0  0  0  0  0  0  # atno 6908 bound_to 6896
  151.8600  135.0528  160.0519 H   0  0  0  0  0  0  0  0  0  0  0  0  # atno 6909 bound_to 6896
  146.2153  139.8327  142.8657 H   0  0  0  0  0  0  0  0  0  0  0  0  # atno 7974 bound_to 7965
  156.2388  140.2936  156.0386 H   0  0  0  0  0  0  0  0  0  0  0  0  # atno 8008 bound_to 7997
  155.2013  140.0409  157.2935 H   0  0  0  0  0  0  0  0  0  0  0  0  # atno 8009 bound_to 7997
  154.6129  140.2456  155.7653 H   0  0  0  0  0  0  0  0  0  0  0  0  # atno 8010 bound_to 7997
  139.4991  144.6100  151.6293 H   0  0  0  0  0  0  0  0  0  0  0  0  # atno 10167 bound_to 10162
  156.5338  130.8532  151.2725 H   0  0  0  0  0  0  0  0  0  0  0  0  # atno 10718 bound_to 10713
  154.4805  135.5846  153.6386 H   0  0  0  0  0  0  0  0  0  0  0  0  # atno 10763 bound_to 10752
  152.9847  135.6088  154.3253 H   0  0  0  0  0  0  0  0  0  0  0  0  # atno 10764 bound_to 10752
  154.3143  135.2844  155.2530 H   0  0  0  0  0  0  0  0  0  0  0  0  # atno 10765 bound_to 10752
  141.1622  133.7487  156.9245 H   0  0  0  0  0  0  0  0  0  0  0  0  # atno 11005 bound_to 11000
  145.2981  141.0186  143.3624 LP  0  0  0  0  0  0  0  0  0  0  0  0  # atno 17320 bound_to 7965
  144.9027  139.4629  143.6625 LP  0  0  0  0  0  0  0  0  0  0  0  0  # atno 17321 bound_to 7965
  140.5772  144.0008  150.6248 LP  0  0  0  0  0  0  0  0  0  0  0  0  # atno 17342 bound_to 10162
  140.3145  143.3176  152.0845 LP  0  0  0  0  0  0  0  0  0  0  0  0  # atno 17343 bound_to 10162
  157.7417  130.9876  150.2465 LP  0  0  0  0  0  0  0  0  0  0  0  0  # atno 17370 bound_to 10713
  156.3035  130.3762  149.7728 LP  0  0  0  0  0  0  0  0  0  0  0  0  # atno 17371 bound_to 10713
  140.1429  134.9282  157.2490 LP  0  0  0  0  0  0  0  0  0  0  0  0  # atno 17394 bound_to 11000
  140.2815  134.3344  155.7342 LP  0  0  0  0  0  0  0  0  0  0  0  0  # atno 17395 bound_to 11000

$$$$
