AV-unprocessed.smi:2151|AV-procd|sdf|8759|dock9
  -GOLD-   2272011533D 1   1.00000     0.00000
 Structure written by MMmdl.
 39 40  0  0  0  0  0  0  0  0  1 V2000
  152.2960  136.2043  156.9373 C   0  0  0  0  0  0  0  0  0  0  0  0
  151.5796  137.4466  157.4861 C   0  0  1  0  0  0  0  0  0  0  0  0
  152.5802  138.4513  157.8426 N   0  0  0  0  0  0  0  0  0  0  0  0
  152.5355  139.2683  158.9065 C   0  0  0  0  0  0  0  0  0  0  0  0
  151.6098  139.2756  159.7189 O   0  0  0  0  0  0  0  0  0  0  0  0
  153.7146  140.2407  159.0515 C   0  0  0  0  0  0  0  0  0  0  0  0
  153.4783  141.2993  160.0474 N   0  0  0  0  0  0  0  0  0  0  0  0
  152.6632  142.3793  159.6550 C   0  0  0  0  0  0  0  0  0  0  0  0
  152.3787  143.4159  160.4664 C   0  0  0  0  0  0  0  0  0  0  0  0
  151.4465  144.5364  160.0319 C   0  0  0  0  0  0  0  0  0  0  0  0
  151.4416  144.6728  158.7055 F   0  0  0  0  0  0  0  0  0  0  0  0
  150.2025  144.2690  160.4269 F   0  0  0  0  0  0  0  0  0  0  0  0
  151.8115  145.7001  160.5715 F   0  0  0  0  0  0  0  0  0  0  0  0
  152.9329  143.3582  161.8049 C   0  0  0  0  0  0  0  0  0  0  0  0
  153.7024  142.3253  162.2008 C   0  0  0  0  0  0  0  0  0  0  0  0
  154.0180  141.2144  161.3001 C   0  0  0  0  0  0  0  0  0  0  0  0
  154.7232  140.2674  161.6493 O   0  0  0  0  0  0  0  0  0  0  0  0
  150.5767  138.0305  156.4712 C   0  0  2  0  0  0  0  0  0  0  0  0
  151.0958  138.1211  155.0343 C   0  0  0  0  0  0  0  0  0  0  0  0
  150.2184  139.2094  154.4611 C   0  0  0  0  0  0  0  0  0  0  0  0
  150.1075  140.1711  155.6399 C   0  0  0  0  0  0  0  0  0  0  0  0
  150.2387  139.3731  156.8141 O   0  0  0  0  0  0  0  0  0  0  0  0
  151.5842  135.4182  156.6837 H   0  0  0  0  0  0  0  0  0  0  0  0
  152.9879  135.7938  157.6735 H   0  0  0  0  0  0  0  0  0  0  0  0
  152.8665  136.4390  156.0379 H   0  0  0  0  0  0  0  0  0  0  0  0
  151.0219  137.1405  158.3728 H   0  0  0  0  0  0  0  0  0  0  0  0
  153.3778  138.5277  157.2282 H   0  0  0  0  0  0  0  0  0  0  0  0
  154.6173  139.6817  159.3057 H   0  0  0  0  0  0  0  0  0  0  0  0
  153.9164  140.6760  158.0718 H   0  0  0  0  0  0  0  0  0  0  0  0
  152.2733  142.3063  158.6499 H   0  0  0  0  0  0  0  0  0  0  0  0
  152.7300  144.1572  162.5028 H   0  0  0  0  0  0  0  0  0  0  0  0
  154.0986  142.3155  163.2057 H   0  0  0  0  0  0  0  0  0  0  0  0
  149.6544  137.4466  156.4759 H   0  0  0  0  0  0  0  0  0  0  0  0
  152.1401  138.4373  155.0204 H   0  0  0  0  0  0  0  0  0  0  0  0
  151.0158  137.1787  154.4915 H   0  0  0  0  0  0  0  0  0  0  0  0
  150.6363  139.6745  153.5680 H   0  0  0  0  0  0  0  0  0  0  0  0
  149.2367  138.8048  154.2106 H   0  0  0  0  0  0  0  0  0  0  0  0
  150.9243  140.8935  155.6205 H   0  0  0  0  0  0  0  0  0  0  0  0
  149.1674  140.7233  155.6369 H   0  0  0  0  0  0  0  0  0  0  0  0
  1  2  1  0  0  0  0
  1 23  1  0  0  0  0
  1 24  1  0  0  0  0
  1 25  1  0  0  0  0
  2  3  1  0  0  0  0
  2 18  1  0  0  0  0
  2 26  1  0  0  0  0
  3  4  1  0  0  0  0
  3 27  1  0  0  0  0
  4  5  2  0  0  0  0
  4  6  1  0  0  0  0
  6  7  1  0  0  0  0
  6 28  1  0  0  0  0
  6 29  1  0  0  0  0
  7 16  1  0  0  0  0
  7  8  1  0  0  0  0
  8  9  2  0  0  0  0
  8 30  1  0  0  0  0
  9 10  1  0  0  0  0
  9 14  1  0  0  0  0
 10 11  1  0  0  0  0
 10 12  1  0  0  0  0
 10 13  1  0  0  0  0
 14 15  2  0  0  0  0
 14 31  1  0  0  0  0
 15 16  1  0  0  0  0
 15 32  1  0  0  0  0
 16 17  2  0  0  0  0
 18 22  1  0  0  0  0
 18 19  1  0  0  0  0
 18 33  1  0  0  0  0
 19 20  1  0  0  0  0
 19 34  1  0  0  0  0
 19 35  1  0  0  0  0
 20 21  1  0  0  0  0
 20 36  1  0  0  0  0
 20 37  1  0  0  0  0
 21 22  1  0  0  0  0
 21 38  1  0  0  0  0
 21 39  1  0  0  0  0
M  END
> <s_m_source_file>
AV-unprocessed.smi

> <i_m_source_file_index>
2151

> <i_lp_mmshare_version>
43012

> <i_f3d_flags>
0

> <s_epik_input>
TzFbQ0gyXVtDSDJdW0NIMl1bQ0BIXTFbQ0BIXShbQ0gzXSlbTkhdQyg9TylbQ0gyXW4yW2NIXWMoQyhGKShGKUYpW2NIXVtjSF1jMj1P

> <s_epik_cmdline>
J2VwaWtfcHl0aG9uJywgJy1waCcsICc3LjAnLCAnLXRuJywgJzgnLCAnLW1hJywgJzIwMCcsICctbWV0YWxfYmluZGluZycsICctaW1hZScsICc8aW5maWxlLm1hZT4nLCAnLW9tYWUnLCAnPG91dGZpbGUubWFlPic=

> <r_lp_tautomer_probability>
1

> <r_epik_Ionization_Penalty>
4.20109e-08

> <r_epik_Ionization_Penalty_Charging>
1.89977e-08

> <r_epik_Ionization_Penalty_Neutral>
2.30132e-08

> <r_epik_State_Penalty>
-0

> <r_epik_Charging_Adjusted_Penalty>
1.89977e-08

> <i_epik_Tot_Q>
0

> <i_epik_Tot_abs_Q>
0

> <r_epik_Metal_State_Penalty>
-0

> <b_epik_Metal_Only>
0

> <s_lp_Force_Field>
OPLS_2005

> <r_lp_Energy>
30.2794

> <b_lp_Chiralities_Consistent>
1

> <s_lp_Variant>
AV-unprocessed.smi:2151-2

> <Gold.Version>
5.8.1

> <Gold.Id.Protein>
6NUR|6NUR_protein|mol2

> <Gold.PLP.Fitness>
44.1846

> <Gold.PLP.PLP>
-48.1883

> <Gold.PLP.part.hbond>
-0.9239

> <Gold.PLP.part.metal>
0.0000

> <Gold.PLP.part.buried>
-2.5986

> <Gold.PLP.part.nonpolar>
-43.2942

> <Gold.PLP.part.repulsive>
0.0770

> <Gold.PLP.ligand.clash>
0.0000

> <Gold.PLP.ligand.torsion>
2.0453

> <Gold.PLP.Chemscore.Hbond>
0.0000

> <Gold.PLP.Chemscore.CHOScore>
0.0000

> <Gold.PLP.Chemscore.Metal>
0.0000

> <Gold.PLP.Chemscore.Internal.Correction>
0.0868

> <Gold.Rescore>
     Score         DG    S(hbond)    S(metal)    S(lipo)     H(rot)  DE(clash)    DE(int)     intcor
     10.60     -12.51       0.00        0.00      99.94       1.82       0.96       0.95       ----

> <Gold.Chemscore.Fitness>
10.6010

> <Gold.Chemscore.DG>
-12.5069

> <Gold.Chemscore.ZeroCoef>
-5.4800

> <Gold.Chemscore.Hbond>
0.0000

> <Gold.Chemscore.Metal>
0.0000

> <Gold.Chemscore.Lipo>
99.9435

> <Gold.Chemscore.Internal_Hbond>
0.0000

> <Gold.Chemscore.DEClash>
0.9600

> <Gold.Chemscore.DEInternal>
0.9459

> <Gold.Chemscore.Rot>
1.8228

> <Gold.Chemscore.Internal.Correction>
   9.000000E+99

> <Gold.Chemscore.Hbond.Weighted>
-0.0000

> <Gold.Chemscore.Metal.Weighted>
-0.0000

> <Gold.Chemscore.Lipo.Weighted>
-11.6934

> <Gold.Chemscore.Internal_Hbond.Weighted>
0.0000

> <Gold.Chemscore.DEClash.Weighted>
0.9600

> <Gold.Chemscore.DEInternal.Weighted>
0.9459

> <Gold.Chemscore.Rot.Weighted>
4.6665

> <Gold.Chemscore.Internal.Correction.Weighted>
   9.000000E+99

> <Gold.Protein.RotatedTorsions>
[ 6907 6896 6895 6894 ] final -170.23 input  -60.11 | X-H torsion
[ 7974 7965 7964 7962 ] final -113.26 input  175.53 | X-H torsion
[ 8008 7997 7996 7995 ] final  137.19 input   59.86 | X-H torsion
[ 10167 10162 10161 10158 ] final  124.44 input  -65.29 | X-H torsion
[ 10718 10713 10712 10709 ] final   64.29 input   66.30 | X-H torsion
[ 10763 10752 10751 10750 ] final -106.14 input  -60.55 | X-H torsion
[ 11005 11000 10999 10996 ] final -167.54 input  -57.11 | X-H torsion

> <Gold.Protein.ActiveResidues>
 VAL166  LYS551  ARG553  GLY616  TRP617  ASP618  TYR619  PRO620  LYS621  CYS622 
 ASP623  PHE694  ASN695  SER759  ASP760  ASP761  ALA762  ILE779  LEU786  VAL792 
 PHE793  MET794  SER795  GLU796  ALA797  LYS798  CYS799  TRP800  GLU811  SER814 

> <Gold.Protein.RotatedAtoms>
  151.5044  133.3498  159.2874 H   0  0  0  0  0  0  0  0  0  0  0  0  # atno 6907 bound_to 6896
  150.8752  134.8136  159.7195 H   0  0  0  0  0  0  0  0  0  0  0  0  # atno 6908 bound_to 6896
  152.4726  134.4934  159.9754 H   0  0  0  0  0  0  0  0  0  0  0  0  # atno 6909 bound_to 6896
  145.1341  140.8741  143.3740 H   0  0  0  0  0  0  0  0  0  0  0  0  # atno 7974 bound_to 7965
  156.3003  140.2426  156.3868 H   0  0  0  0  0  0  0  0  0  0  0  0  # atno 8008 bound_to 7997
  154.8650  140.0418  157.1709 H   0  0  0  0  0  0  0  0  0  0  0  0  # atno 8009 bound_to 7997
  154.8856  140.2955  155.5404 H   0  0  0  0  0  0  0  0  0  0  0  0  # atno 8010 bound_to 7997
  139.5741  144.6954  151.3699 H   0  0  0  0  0  0  0  0  0  0  0  0  # atno 10167 bound_to 10162
  157.6029  130.9152  149.9826 H   0  0  0  0  0  0  0  0  0  0  0  0  # atno 10718 bound_to 10713
  154.7993  135.4723  154.0236 H   0  0  0  0  0  0  0  0  0  0  0  0  # atno 10763 bound_to 10752
  153.1754  135.6832  153.8557 H   0  0  0  0  0  0  0  0  0  0  0  0  # atno 10764 bound_to 10752
  153.8125  135.3215  155.3380 H   0  0  0  0  0  0  0  0  0  0  0  0  # atno 10765 bound_to 10752
  140.5520  134.5418  157.5124 H   0  0  0  0  0  0  0  0  0  0  0  0  # atno 11005 bound_to 11000
  145.0603  139.3111  143.5884 LP  0  0  0  0  0  0  0  0  0  0  0  0  # atno 17320 bound_to 7965
  146.3511  140.0042  142.8673 LP  0  0  0  0  0  0  0  0  0  0  0  0  # atno 17321 bound_to 7965
  140.7025  143.7596  150.7426 LP  0  0  0  0  0  0  0  0  0  0  0  0  # atno 17342 bound_to 10162
  140.1111  143.4698  152.2369 LP  0  0  0  0  0  0  0  0  0  0  0  0  # atno 17343 bound_to 10162
  156.1107  130.3650  150.0054 LP  0  0  0  0  0  0  0  0  0  0  0  0  # atno 17370 bound_to 10713
  156.8153  130.9339  151.3643 LP  0  0  0  0  0  0  0  0  0  0  0  0  # atno 17371 bound_to 10713
  139.9450  134.7718  156.0584 LP  0  0  0  0  0  0  0  0  0  0  0  0  # atno 17394 bound_to 11000
  141.1165  133.6626  156.3108 LP  0  0  0  0  0  0  0  0  0  0  0  0  # atno 17395 bound_to 11000

$$$$
