AV-unprocessed.smi:1987|AV-procd|sdf|8054|dock2
  -GOLD-   2272010253D 1   1.00000     0.00000
 Structure written by MMmdl.
 37 39  0  0  0  0  0  0  0  0  2 V2000
  147.2130  132.5323  154.5274 O   0  0  0  0  0  0  0  0  0  0  0  0
  148.0396  133.3204  154.0699 C   0  0  0  0  0  0  0  0  0  0  0  0
  149.5329  133.0770  154.2808 C   0  0  0  0  0  0  0  0  0  0  0  0
  149.9003  133.4177  155.6430 N   0  0  0  0  0  0  0  0  0  0  0  0
  150.3713  132.6634  156.6381 C   0  0  0  0  0  0  0  0  0  0  0  0
  150.5213  133.3634  157.7523 N   0  0  0  0  0  0  0  0  0  0  0  0
  150.1125  134.6343  157.3843 N   0  0  0  0  0  0  0  0  0  0  0  0
  149.7429  134.6730  156.1340 N   0  0  0  0  0  0  0  0  0  0  0  0
  147.7105  134.4485  153.4226 N   0  0  0  0  0  0  0  0  0  0  0  0
  146.3629  134.9938  153.3166 C   0  0  0  0  0  0  0  0  0  0  0  0
  145.8960  135.0568  151.8479 C   0  0  2  0  0  0  0  0  0  0  0  0
  144.4051  135.3348  151.6701 C   0  0  0  0  0  0  0  0  0  0  0  0
  144.0853  134.8019  150.2665 C   0  0  0  0  0  0  0  0  0  0  0  0
  145.1910  133.8898  149.8900 N   0  3  2  0  0  0  0  0  0  0  0  0
  144.7522  132.5975  149.3229 C   0  0  0  0  0  0  0  0  0  0  0  0
  143.5182  132.7080  148.4593 C   0  0  0  0  0  0  0  0  0  0  0  0
  143.4197  132.1254  149.8530 C   0  0  0  0  0  0  0  0  0  0  0  0
  146.0781  133.7571  151.0616 C   0  0  0  0  0  0  0  0  0  0  0  0
  149.7745  132.0287  154.1002 H   0  0  0  0  0  0  0  0  0  0  0  0
  150.1207  133.6746  153.5824 H   0  0  0  0  0  0  0  0  0  0  0  0
  150.5843  131.6080  156.5521 H   0  0  0  0  0  0  0  0  0  0  0  0
  148.4614  135.0214  153.0643 H   0  0  0  0  0  0  0  0  0  0  0  0
  145.6980  134.3523  153.8957 H   0  0  0  0  0  0  0  0  0  0  0  0
  146.3197  135.9829  153.7759 H   0  0  0  0  0  0  0  0  0  0  0  0
  146.4477  135.8442  151.3313 H   0  0  0  0  0  0  0  0  0  0  0  0
  143.8294  134.7760  152.4096 H   0  0  0  0  0  0  0  0  0  0  0  0
  144.1574  136.3906  151.7853 H   0  0  0  0  0  0  0  0  0  0  0  0
  143.1154  134.3022  150.2522 H   0  0  0  0  0  0  0  0  0  0  0  0
  144.0479  135.6148  149.5407 H   0  0  0  0  0  0  0  0  0  0  0  0
  145.5361  131.8829  149.0770 H   0  0  0  0  0  0  0  0  0  0  0  0
  143.0910  133.6960  148.2946 H   0  0  0  0  0  0  0  0  0  0  0  0
  143.4272  132.0177  147.6229 H   0  0  0  0  0  0  0  0  0  0  0  0
  143.2642  131.0514  149.9340 H   0  0  0  0  0  0  0  0  0  0  0  0
  142.9270  132.7255  150.6160 H   0  0  0  0  0  0  0  0  0  0  0  0
  147.1116  133.5906  150.7558 H   0  0  0  0  0  0  0  0  0  0  0  0
  145.7640  132.9064  151.6691 H   0  0  0  0  0  0  0  0  0  0  0  0
  145.7243  134.3693  149.1786 H   0  0  0  0  0  0  0  0  0  0  0  0
  1  2  2  0  0  0  0
  2  3  1  0  0  0  0
  2  9  1  0  0  0  0
  3  4  1  0  0  0  0
  3 19  1  0  0  0  0
  3 20  1  0  0  0  0
  4  8  1  0  0  0  0
  4  5  1  0  0  0  0
  5  6  2  0  0  0  0
  5 21  1  0  0  0  0
  6  7  1  0  0  0  0
  7  8  2  0  0  0  0
  9 10  1  0  0  0  0
  9 22  1  0  0  0  0
 10 11  1  0  0  0  0
 10 23  1  0  0  0  0
 10 24  1  0  0  0  0
 11 18  1  0  0  0  0
 11 12  1  0  0  0  0
 11 25  1  0  0  0  0
 12 13  1  0  0  0  0
 12 26  1  0  0  0  0
 12 27  1  0  0  0  0
 13 14  1  0  0  0  0
 13 28  1  0  0  0  0
 13 29  1  0  0  0  0
 14 15  1  0  0  0  0
 14 18  1  0  0  0  0
 14 37  1  0  0  0  0
 15 17  1  0  0  0  0
 15 16  1  0  0  0  0
 15 30  1  0  0  0  0
 16 17  1  0  0  0  0
 16 31  1  0  0  0  0
 16 32  1  0  0  0  0
 17 33  1  0  0  0  0
 17 34  1  0  0  0  0
 18 35  1  0  0  0  0
 18 36  1  0  0  0  0
M  CHG  1  14   1
M  END
> <s_m_source_file>
AV-unprocessed.smi

> <i_m_source_file_index>
1987

> <i_lp_mmshare_version>
43012

> <i_f3d_flags>
0

> <s_epik_input>
bjFubltjSF1uMVtDSDJdQyg9TylbTkhdW0NIMl1bQ0BASF0yW0NIMl1bQ0gyXU4oW0NIMl0yKVtDSF0zW0NIMl1bQ0gyXTM=

> <s_epik_cmdline>
J2VwaWtfcHl0aG9uJywgJy1waCcsICc3LjAnLCAnLXRuJywgJzgnLCAnLW1hJywgJzIwMCcsICctbWV0YWxfYmluZGluZycsICctaW1hZScsICc8aW5maWxlLm1hZT4nLCAnLW9tYWUnLCAnPG91dGZpbGUubWFlPic=

> <r_lp_tautomer_probability>
1

> <r_epik_Ionization_Penalty>
0.000242849

> <r_epik_Ionization_Penalty_Charging>
0.000241326

> <r_epik_Ionization_Penalty_Neutral>
1.52322e-06

> <r_epik_State_Penalty>
-0

> <r_epik_Charging_Adjusted_Penalty>
0.000241326

> <i_epik_Tot_Q>
1

> <i_epik_Tot_abs_Q>
1

> <r_epik_Metal_State_Penalty>
-0

> <b_epik_Metal_Only>
0

> <s_lp_Force_Field>
OPLS_2005

> <r_lp_Energy>
37.5939

> <b_lp_Chiralities_Consistent>
1

> <s_lp_Variant>
AV-unprocessed.smi:1987-1

> <Gold.Version>
5.8.1

> <Gold.Id.Protein>
6NUR|6NUR_protein|mol2

> <Gold.PLP.Fitness>
38.4211

> <Gold.PLP.PLP>
-30.4299

> <Gold.PLP.part.hbond>
-4.0000

> <Gold.PLP.part.metal>
0.0000

> <Gold.PLP.part.buried>
0.4686

> <Gold.PLP.part.nonpolar>
-27.0357

> <Gold.PLP.part.repulsive>
0.1497

> <Gold.PLP.ligand.clash>
0.0000

> <Gold.PLP.ligand.torsion>
0.9342

> <Gold.PLP.Chemscore.Hbond>
2.8560

> <Gold.PLP.Chemscore.CHOScore>
0.0000

> <Gold.PLP.Chemscore.Metal>
0.0000

> <Gold.Chemscore.Hbonds>
donor molecule, donor type, donor heavy atom, donor atom, acceptor molecule, acceptor atom, score
      L1  H     9    22       P1  7948  0.94
      L1  H    14    37       P1  7921  1.00
      P1  H  6896  6909       L1     6  0.83

> <Gold.PLP.Chemscore.Internal.Correction>
1.2917

> <Gold.Rescore>
     Score         DG    S(hbond)    S(metal)    S(lipo)     H(rot)  DE(clash)    DE(int)     intcor
     12.96     -14.20       2.30        0.00      66.42       2.62       0.33       0.91       ----

> <Gold.Chemscore.Fitness>
12.9563

> <Gold.Chemscore.DG>
-14.2009

> <Gold.Chemscore.ZeroCoef>
-5.4800

> <Gold.Chemscore.Hbond>
2.2958

> <Gold.Chemscore.Metal>
0.0000

> <Gold.Chemscore.Lipo>
66.4227

> <Gold.Chemscore.Internal_Hbond>
0.0000

> <Gold.Chemscore.DEClash>
0.3330

> <Gold.Chemscore.DEInternal>
0.9117

> <Gold.Chemscore.Rot>
2.6244

> <Gold.Chemscore.Internal.Correction>
   9.000000E+99

> <Gold.Chemscore.Hbonds>
donor molecule, donor type, donor heavy atom, donor atom, acceptor molecule, acceptor atom, score
      L1  H     9    22       P1  7948  0.68
      L1  H    14    37       P1  7921  0.77
      P1  H  6896  6909       L1     6  0.57

> <Gold.Chemscore.Hbond.Weighted>
-7.6680

> <Gold.Chemscore.Metal.Weighted>
-0.0000

> <Gold.Chemscore.Lipo.Weighted>
-7.7715

> <Gold.Chemscore.Internal_Hbond.Weighted>
0.0000

> <Gold.Chemscore.DEClash.Weighted>
0.3330

> <Gold.Chemscore.DEInternal.Weighted>
0.9117

> <Gold.Chemscore.Rot.Weighted>
6.7186

> <Gold.Chemscore.Internal.Correction.Weighted>
   9.000000E+99

> <Gold.Protein.RotatedTorsions>
[ 6907 6896 6895 6894 ] final  -33.10 input  -60.11 | X-H torsion
[ 7974 7965 7964 7962 ] final  153.35 input  175.53 | X-H torsion
[ 8008 7997 7996 7995 ] final  113.31 input   59.86 | X-H torsion
[ 10167 10162 10161 10158 ] final -102.51 input  -65.29 | X-H torsion
[ 10718 10713 10712 10709 ] final  143.67 input   66.30 | X-H torsion
[ 10763 10752 10751 10750 ] final  -51.97 input  -60.55 | X-H torsion
[ 11005 11000 10999 10996 ] final  158.56 input  -57.11 | X-H torsion

> <Gold.Protein.ActiveResidues>
 VAL166  LYS551  ARG553  GLY616  TRP617  ASP618  TYR619  PRO620  LYS621  CYS622 
 ASP623  PHE694  ASN695  SER759  ASP760  ASP761  ALA762  ILE779  LEU786  VAL792 
 PHE793  MET794  SER795  GLU796  ALA797  LYS798  CYS799  TRP800  GLU811  SER814 

> <Gold.Protein.RotatedAtoms>
  151.0701  134.9793  159.8303 H   0  0  0  0  0  0  0  0  0  0  0  0  # atno 6907 bound_to 6896
  152.5407  134.2310  159.8835 H   0  0  0  0  0  0  0  0  0  0  0  0  # atno 6908 bound_to 6896
  151.2334  133.4394  159.2638 H   0  0  0  0  0  0  0  0  0  0  0  0  # atno 6909 bound_to 6896
  144.8160  139.6789  143.6121 H   0  0  0  0  0  0  0  0  0  0  0  0  # atno 7974 bound_to 7965
  156.2249  140.2982  156.0043 H   0  0  0  0  0  0  0  0  0  0  0  0  # atno 8008 bound_to 7997
  155.2382  140.0421  157.2988 H   0  0  0  0  0  0  0  0  0  0  0  0  # atno 8009 bound_to 7997
  154.5900  140.2399  155.7942 H   0  0  0  0  0  0  0  0  0  0  0  0  # atno 8010 bound_to 7997
  140.2298  143.3615  152.0896 H   0  0  0  0  0  0  0  0  0  0  0  0  # atno 10167 bound_to 10162
  157.3662  131.0972  151.0870 H   0  0  0  0  0  0  0  0  0  0  0  0  # atno 10718 bound_to 10713
  154.1352  135.6514  153.4930 H   0  0  0  0  0  0  0  0  0  0  0  0  # atno 10763 bound_to 10752
  153.0183  135.5302  154.6961 H   0  0  0  0  0  0  0  0  0  0  0  0  # atno 10764 bound_to 10752
  154.6207  135.2964  155.0300 H   0  0  0  0  0  0  0  0  0  0  0  0  # atno 10765 bound_to 10752
  140.1877  134.8430  157.2876 H   0  0  0  0  0  0  0  0  0  0  0  0  # atno 11005 bound_to 11000
  146.2463  139.6105  142.9457 LP  0  0  0  0  0  0  0  0  0  0  0  0  # atno 17320 bound_to 7965
  145.5213  141.0432  143.2434 LP  0  0  0  0  0  0  0  0  0  0  0  0  # atno 17321 bound_to 7965
  139.5114  144.6900  151.5786 LP  0  0  0  0  0  0  0  0  0  0  0  0  # atno 17342 bound_to 10162
  140.6193  143.9288  150.6513 LP  0  0  0  0  0  0  0  0  0  0  0  0  # atno 17343 bound_to 10162
  157.1991  130.6386  149.5732 LP  0  0  0  0  0  0  0  0  0  0  0  0  # atno 17370 bound_to 10713
  155.9746  130.4697  150.6403 LP  0  0  0  0  0  0  0  0  0  0  0  0  # atno 17371 bound_to 10713
  140.2195  134.4040  155.7572 LP  0  0  0  0  0  0  0  0  0  0  0  0  # atno 17394 bound_to 11000
  141.2225  133.7159  156.8468 LP  0  0  0  0  0  0  0  0  0  0  0  0  # atno 17395 bound_to 11000

$$$$
