AV-unprocessed.smi:1701|AV-procd|sdf|6825|dock5
  -GOLD-   22720 8 03D 1   1.00000     0.00000
 Structure written by MMmdl.
 55 57  0  0  0  0  0  0  0  0  3 V2000
  151.5247  145.5969  159.8417 C   0  0  0  0  0  0  0  0  0  0  0  0
  152.0848  144.6324  158.7880 C   0  0  0  0  0  0  0  0  0  0  0  0
  152.1909  143.2659  159.2929 N   0  0  0  0  0  0  0  0  0  0  0  0
  152.7970  143.0405  160.6044 C   0  0  0  0  0  0  0  0  0  0  0  0
  153.8991  141.9743  160.5579 C   0  0  0  0  0  0  0  0  0  0  0  0
  151.6771  142.1810  158.5448 C   0  0  0  0  0  0  0  0  0  0  0  0
  151.5335  140.8718  159.0678 C   0  0  0  0  0  0  0  0  0  0  0  0
  151.0136  139.8432  158.2562 C   0  0  0  0  0  0  0  0  0  0  0  0
  150.6291  140.1221  156.9286 C   0  0  0  0  0  0  0  0  0  0  0  0
  150.1192  139.0498  156.1487 N   0  0  0  0  0  0  0  0  0  0  0  0
  149.8959  137.7724  156.5156 C   0  0  0  0  0  0  0  0  0  0  0  0
  150.0915  137.3234  157.6422 O   0  0  0  0  0  0  0  0  0  0  0  0
  149.4653  136.9781  155.5181 N   0  0  0  0  0  0  0  0  0  0  0  0
  149.1295  135.5515  155.5645 C   0  0  2  0  0  0  0  0  0  0  0  0
  150.1600  134.6740  154.8279 C   0  0  0  0  0  0  0  0  0  0  0  0
  149.3226  133.6111  154.1100 C   0  0  0  0  0  0  0  0  0  0  0  0
  148.0960  134.3393  153.7669 N   0  3  1  0  0  0  0  0  0  0  0  0
  146.9341  133.5738  153.2715 C   0  0  0  0  0  0  0  0  0  0  0  0
  145.8558  134.5746  152.8032 C   0  0  0  0  0  0  0  0  0  0  0  0
  145.5192  135.6243  153.8872 C   0  0  0  0  0  0  0  0  0  0  0  0
  146.7896  136.2921  154.4567 C   0  0  0  0  0  0  0  0  0  0  0  0
  147.7664  135.1955  154.9197 C   0  0  2  0  0  0  0  0  0  0  0  0
  150.8007  141.4409  156.4467 C   0  0  0  0  0  0  0  0  0  0  0  0
  151.3037  142.3948  157.2591 N   0  3  0  0  0  0  0  0  0  0  0  0
  151.4421  146.6054  159.4363 H   0  0  0  0  0  0  0  0  0  0  0  0
  152.1672  145.6450  160.7210 H   0  0  0  0  0  0  0  0  0  0  0  0
  150.5312  145.2902  160.1701 H   0  0  0  0  0  0  0  0  0  0  0  0
  151.4213  144.6308  157.9226 H   0  0  0  0  0  0  0  0  0  0  0  0
  153.0459  144.9837  158.4134 H   0  0  0  0  0  0  0  0  0  0  0  0
  153.1848  143.9720  161.0176 H   0  0  0  0  0  0  0  0  0  0  0  0
  152.0176  142.7171  161.2950 H   0  0  0  0  0  0  0  0  0  0  0  0
  154.3252  141.8167  161.5488 H   0  0  0  0  0  0  0  0  0  0  0  0
  154.7105  142.2696  159.8921 H   0  0  0  0  0  0  0  0  0  0  0  0
  153.5106  141.0174  160.2087 H   0  0  0  0  0  0  0  0  0  0  0  0
  151.8062  140.6357  160.0849 H   0  0  0  0  0  0  0  0  0  0  0  0
  150.9053  138.8467  158.6593 H   0  0  0  0  0  0  0  0  0  0  0  0
  149.9717  139.2586  155.1723 H   0  0  0  0  0  0  0  0  0  0  0  0
  149.4093  137.4079  154.6056 H   0  0  0  0  0  0  0  0  0  0  0  0
  149.1152  135.2208  156.6047 H   0  0  0  0  0  0  0  0  0  0  0  0
  150.6996  135.2653  154.0863 H   0  0  0  0  0  0  0  0  0  0  0  0
  150.8994  134.2375  155.5004 H   0  0  0  0  0  0  0  0  0  0  0  0
  149.8197  133.2080  153.2272 H   0  0  0  0  0  0  0  0  0  0  0  0
  149.0870  132.7862  154.7843 H   0  0  0  0  0  0  0  0  0  0  0  0
  147.2394  132.9340  152.4429 H   0  0  0  0  0  0  0  0  0  0  0  0
  146.5481  132.9242  154.0586 H   0  0  0  0  0  0  0  0  0  0  0  0
  146.2117  135.0902  151.9100 H   0  0  0  0  0  0  0  0  0  0  0  0
  144.9527  134.0398  152.5075 H   0  0  0  0  0  0  0  0  0  0  0  0
  144.8493  136.3819  153.4793 H   0  0  0  0  0  0  0  0  0  0  0  0
  144.9742  135.1389  154.6978 H   0  0  0  0  0  0  0  0  0  0  0  0
  147.2555  136.9208  153.6964 H   0  0  0  0  0  0  0  0  0  0  0  0
  146.5153  136.9441  155.2856 H   0  0  0  0  0  0  0  0  0  0  0  0
  147.2427  134.5732  155.6489 H   0  0  0  0  0  0  0  0  0  0  0  0
  150.5698  141.7756  155.4468 H   0  0  0  0  0  0  0  0  0  0  0  0
  148.3604  134.9686  153.0222 H   0  0  0  0  0  0  0  0  0  0  0  0
  151.4127  143.3350  156.8784 H   0  0  0  0  0  0  0  0  0  0  0  0
  1  2  1  0  0  0  0
  1 25  1  0  0  0  0
  1 26  1  0  0  0  0
  1 27  1  0  0  0  0
  2  3  1  0  0  0  0
  2 28  1  0  0  0  0
  2 29  1  0  0  0  0
  3  4  1  0  0  0  0
  3  6  1  0  0  0  0
  4  5  1  0  0  0  0
  4 30  1  0  0  0  0
  4 31  1  0  0  0  0
  5 32  1  0  0  0  0
  5 33  1  0  0  0  0
  5 34  1  0  0  0  0
  6 24  1  0  0  0  0
  6  7  2  0  0  0  0
  7  8  1  0  0  0  0
  7 35  1  0  0  0  0
  8  9  2  0  0  0  0
  8 36  1  0  0  0  0
  9 10  1  0  0  0  0
  9 23  1  0  0  0  0
 10 11  1  0  0  0  0
 10 37  1  0  0  0  0
 11 12  2  0  0  0  0
 11 13  1  0  0  0  0
 13 14  1  0  0  0  0
 13 38  1  0  0  0  0
 14 22  1  0  0  0  0
 14 15  1  0  0  0  0
 14 39  1  0  0  0  0
 15 16  1  0  0  0  0
 15 40  1  0  0  0  0
 15 41  1  0  0  0  0
 16 17  1  0  0  0  0
 16 42  1  0  0  0  0
 16 43  1  0  0  0  0
 17 22  1  0  0  0  0
 17 18  1  0  0  0  0
 17 54  1  0  0  0  0
 18 19  1  0  0  0  0
 18 44  1  0  0  0  0
 18 45  1  0  0  0  0
 19 20  1  0  0  0  0
 19 46  1  0  0  0  0
 19 47  1  0  0  0  0
 20 21  1  0  0  0  0
 20 48  1  0  0  0  0
 20 49  1  0  0  0  0
 21 22  1  0  0  0  0
 21 50  1  0  0  0  0
 21 51  1  0  0  0  0
 22 52  1  0  0  0  0
 23 24  2  0  0  0  0
 23 53  1  0  0  0  0
 24 55  1  0  0  0  0
M  CHG  1  17   1
M  CHG  1  24   1
M  END
> <s_m_source_file>
AV-unprocessed.smi

> <i_m_source_file_index>
1701

> <i_lp_mmshare_version>
43012

> <i_f3d_flags>
0

> <s_epik_input>
W0NIM11bQ0gyXU4oW0NIMl1bQ0gzXSljMVtjSF1bY0hdYyhbY0hdbjEpW05IXUMoPU8pW05IXVtDQEhdKFtDSDJdW0NIMl0yKVtDQEBIXShOMjMpW0NIMl1bQ0gyXVtDSDJdW0NIMl0z

> <s_epik_cmdline>
J2VwaWtfcHl0aG9uJywgJy1waCcsICc3LjAnLCAnLXRuJywgJzgnLCAnLW1hJywgJzIwMCcsICctbWV0YWxfYmluZGluZycsICctaW1hZScsICc8aW5maWxlLm1hZT4nLCAnLW9tYWUnLCAnPG91dGZpbGUubWFlPic=

> <r_lp_tautomer_probability>
0.999994

> <r_epik_Ionization_Penalty>
0.302862

> <r_epik_Ionization_Penalty_Charging>
0.302842

> <r_epik_Ionization_Penalty_Neutral>
1.95166e-05

> <r_epik_State_Penalty>
0.019791

> <r_epik_Charging_Adjusted_Penalty>
0.322633

> <i_epik_Tot_Q>
2

> <i_epik_Tot_abs_Q>
2

> <r_epik_Metal_State_Penalty>
0.0536763

> <b_epik_Metal_Only>
0

> <s_lp_Force_Field>
OPLS_2005

> <r_lp_Energy>
67.2191

> <b_lp_Chiralities_Consistent>
1

> <s_lp_Variant>
AV-unprocessed.smi:1701-5

> <Gold.Version>
5.8.1

> <Gold.Id.Protein>
6NUR|6NUR_protein|mol2

> <Gold.PLP.Fitness>
46.8268

> <Gold.PLP.PLP>
-41.4255

> <Gold.PLP.part.hbond>
-1.0000

> <Gold.PLP.part.metal>
0.0000

> <Gold.PLP.part.buried>
-4.8180

> <Gold.PLP.part.nonpolar>
-35.0752

> <Gold.PLP.part.repulsive>
0.0860

> <Gold.PLP.ligand.clash>
0.0000

> <Gold.PLP.ligand.torsion>
0.3521

> <Gold.PLP.Chemscore.Hbond>
2.0000

> <Gold.PLP.Chemscore.CHOScore>
0.0000

> <Gold.PLP.Chemscore.Metal>
0.0000

> <Gold.Chemscore.Hbonds>
donor molecule, donor type, donor heavy atom, donor atom, acceptor molecule, acceptor atom, score
      L1  H    17    54       P1  7948  2.00

> <Gold.PLP.Chemscore.Internal.Correction>
0.1056

> <Gold.Rescore>
     Score         DG    S(hbond)    S(metal)    S(lipo)     H(rot)  DE(clash)    DE(int)     intcor
     14.88     -16.50       0.91        0.00      96.81       1.30       0.01       1.61       ----

> <Gold.Chemscore.Fitness>
14.8830

> <Gold.Chemscore.DG>
-16.5000

> <Gold.Chemscore.ZeroCoef>
-5.4800

> <Gold.Chemscore.Hbond>
0.9060

> <Gold.Chemscore.Metal>
0.0000

> <Gold.Chemscore.Lipo>
96.8119

> <Gold.Chemscore.Internal_Hbond>
0.0000

> <Gold.Chemscore.DEClash>
0.0080

> <Gold.Chemscore.DEInternal>
1.6090

> <Gold.Chemscore.Rot>
1.3020

> <Gold.Chemscore.Internal.Correction>
   9.000000E+99

> <Gold.Chemscore.Hbonds>
donor molecule, donor type, donor heavy atom, donor atom, acceptor molecule, acceptor atom, score
      L1  H    17    54       P1  7948  0.78

> <Gold.Chemscore.Hbond.Weighted>
-3.0261

> <Gold.Chemscore.Metal.Weighted>
-0.0000

> <Gold.Chemscore.Lipo.Weighted>
-11.3270

> <Gold.Chemscore.Internal_Hbond.Weighted>
0.0000

> <Gold.Chemscore.DEClash.Weighted>
0.0080

> <Gold.Chemscore.DEInternal.Weighted>
1.6090

> <Gold.Chemscore.Rot.Weighted>
3.3330

> <Gold.Chemscore.Internal.Correction.Weighted>
   9.000000E+99

> <Gold.Protein.RotatedTorsions>
[ 6907 6896 6895 6894 ] final  117.38 input  -60.11 | X-H torsion
[ 7974 7965 7964 7962 ] final  160.40 input  175.53 | X-H torsion
[ 8008 7997 7996 7995 ] final -178.47 input   59.86 | X-H torsion
[ 10167 10162 10161 10158 ] final  110.44 input  -65.29 | X-H torsion
[ 10718 10713 10712 10709 ] final  140.09 input   66.30 | X-H torsion
[ 10763 10752 10751 10750 ] final  -58.78 input  -60.55 | X-H torsion
[ 11005 11000 10999 10996 ] final  136.58 input  -57.11 | X-H torsion

> <Gold.Protein.ActiveResidues>
 VAL166  LYS551  ARG553  GLY616  TRP617  ASP618  TYR619  PRO620  LYS621  CYS622 
 ASP623  PHE694  ASN695  SER759  ASP760  ASP761  ALA762  ILE779  LEU786  VAL792 
 PHE793  MET794  SER795  GLU796  ALA797  LYS798  CYS799  TRP800  GLU811  SER814 

> <Gold.Protein.RotatedAtoms>
  152.4616  133.7833  159.6862 H   0  0  0  0  0  0  0  0  0  0  0  0  # atno 6907 bound_to 6896
  150.8562  133.7702  159.3014 H   0  0  0  0  0  0  0  0  0  0  0  0  # atno 6908 bound_to 6896
  151.5282  135.1071  159.9948 H   0  0  0  0  0  0  0  0  0  0  0  0  # atno 6909 bound_to 6896
  144.7739  139.7752  143.6286 H   0  0  0  0  0  0  0  0  0  0  0  0  # atno 7974 bound_to 7965
  156.0193  140.1257  157.0374 H   0  0  0  0  0  0  0  0  0  0  0  0  # atno 8008 bound_to 7997
  154.4305  140.1072  156.6010 H   0  0  0  0  0  0  0  0  0  0  0  0  # atno 8009 bound_to 7997
  155.5968  140.3470  155.4584 H   0  0  0  0  0  0  0  0  0  0  0  0  # atno 8010 bound_to 7997
  139.6688  144.7126  151.1726 H   0  0  0  0  0  0  0  0  0  0  0  0  # atno 10167 bound_to 10162
  157.4072  131.1023  151.0492 H   0  0  0  0  0  0  0  0  0  0  0  0  # atno 10718 bound_to 10713
  154.2435  135.6339  153.5215 H   0  0  0  0  0  0  0  0  0  0  0  0  # atno 10763 bound_to 10752
  152.9925  135.5548  154.5885 H   0  0  0  0  0  0  0  0  0  0  0  0  # atno 10764 bound_to 10752
  154.5396  135.2894  155.1082 H   0  0  0  0  0  0  0  0  0  0  0  0  # atno 10765 bound_to 10752
  140.0055  134.9461  157.0166 H   0  0  0  0  0  0  0  0  0  0  0  0  # atno 11005 bound_to 11000
  146.1904  139.5142  142.9808 LP  0  0  0  0  0  0  0  0  0  0  0  0  # atno 17320 bound_to 7965
  145.6244  141.0316  143.1897 LP  0  0  0  0  0  0  0  0  0  0  0  0  # atno 17321 bound_to 7965
  140.7610  143.5877  150.8829 LP  0  0  0  0  0  0  0  0  0  0  0  0  # atno 17342 bound_to 10162
  139.9540  143.6239  152.3021 LP  0  0  0  0  0  0  0  0  0  0  0  0  # atno 17343 bound_to 10162
  157.1469  130.6167  149.5571 LP  0  0  0  0  0  0  0  0  0  0  0  0  # atno 17370 bound_to 10713
  155.9840  130.4862  150.6960 LP  0  0  0  0  0  0  0  0  0  0  0  0  # atno 17371 bound_to 10713
  140.4649  134.1446  155.7195 LP  0  0  0  0  0  0  0  0  0  0  0  0  # atno 17394 bound_to 11000
  141.1674  133.8676  157.1674 LP  0  0  0  0  0  0  0  0  0  0  0  0  # atno 17395 bound_to 11000

$$$$
