AV-unprocessed.smi:845|AV-procd|sdf|3929|dock1
  -GOLD-   22720 1393D 1   1.00000     0.00000
 Structure written by MMmdl.
 42 43  0  0  0  0  0  0  0  0  1 V2000
  145.2851  137.9614  156.3830 C   0  0  0  0  0  0  0  0  0  0  0  0
  145.9849  137.6683  155.0427 C   0  0  0  0  0  0  0  0  0  0  0  0
  146.9931  136.5105  155.1741 C   0  0  0  0  0  0  0  0  0  0  0  0
  146.5654  138.9459  154.3317 C   0  0  2  0  0  0  0  0  0  0  0  0
  146.5160  138.8127  152.7763 C   0  0  0  0  0  0  0  0  0  0  0  0
  146.7323  137.4509  152.3040 N   0  0  0  0  0  0  0  0  0  0  0  0
  145.7653  136.5982  151.9392 C   0  0  0  0  0  0  0  0  0  0  0  0
  144.5650  136.8680  151.9916 O   0  0  0  0  0  0  0  0  0  0  0  0
  146.2831  135.4331  151.5126 N   0  0  0  0  0  0  0  0  0  0  0  0
  145.5948  134.2971  151.0118 C   0  0  0  0  0  0  0  0  0  0  0  0
  144.2707  134.2363  150.8289 N   0  0  0  0  0  0  0  0  0  0  0  0
  143.8676  132.9986  150.3213 C   0  0  0  0  0  0  0  0  0  0  0  0
  144.9056  132.1225  150.1227 C   0  0  0  0  0  0  0  0  0  0  0  0
  146.4396  132.8219  150.5666 S   0  0  0  0  0  0  0  0  0  0  0  0
  147.9070  139.3271  154.8536 N   0  0  0  0  0  0  0  0  0  0  0  0
  149.0109  138.5559  154.2670 C   0  0  0  0  0  0  0  0  0  0  0  0
  150.3900  138.9744  154.8060 C   0  0  0  0  0  0  0  0  0  0  0  0
  150.5971  140.3597  154.5723 O   0  0  0  0  0  0  0  0  0  0  0  0
  149.5931  141.1566  155.1835 C   0  0  0  0  0  0  0  0  0  0  0  0
  148.2113  140.7517  154.6418 C   0  0  0  0  0  0  0  0  0  0  0  0
  145.9885  138.2635  157.1584 H   0  0  0  0  0  0  0  0  0  0  0  0
  144.7634  137.0771  156.7498 H   0  0  0  0  0  0  0  0  0  0  0  0
  144.5452  138.7547  156.2736 H   0  0  0  0  0  0  0  0  0  0  0  0
  145.2052  137.2366  154.4249 H   0  0  0  0  0  0  0  0  0  0  0  0
  147.7545  136.6917  155.9300 H   0  0  0  0  0  0  0  0  0  0  0  0
  147.4966  136.3162  154.2270 H   0  0  0  0  0  0  0  0  0  0  0  0
  146.4824  135.5909  155.4614 H   0  0  0  0  0  0  0  0  0  0  0  0
  145.8957  139.7724  154.5744 H   0  0  0  0  0  0  0  0  0  0  0  0
  145.5307  139.0753  152.3932 H   0  0  0  0  0  0  0  0  0  0  0  0
  147.2242  139.5043  152.3164 H   0  0  0  0  0  0  0  0  0  0  0  0
  147.6912  137.1441  152.2292 H   0  0  0  0  0  0  0  0  0  0  0  0
  147.2891  135.3541  151.5352 H   0  0  0  0  0  0  0  0  0  0  0  0
  142.8188  132.8262  150.1302 H   0  0  0  0  0  0  0  0  0  0  0  0
  144.8607  131.1125  149.7433 H   0  0  0  0  0  0  0  0  0  0  0  0
  148.9008  137.4969  154.4956 H   0  0  0  0  0  0  0  0  0  0  0  0
  148.9980  138.6548  153.1805 H   0  0  0  0  0  0  0  0  0  0  0  0
  150.4680  138.7614  155.8734 H   0  0  0  0  0  0  0  0  0  0  0  0
  151.1782  138.4088  154.3087 H   0  0  0  0  0  0  0  0  0  0  0  0
  149.6328  141.0420  156.2679 H   0  0  0  0  0  0  0  0  0  0  0  0
  149.7921  142.2058  154.9651 H   0  0  0  0  0  0  0  0  0  0  0  0
  148.1663  140.9812  153.5762 H   0  0  0  0  0  0  0  0  0  0  0  0
  147.4873  141.4014  155.1240 H   0  0  0  0  0  0  0  0  0  0  0  0
  1  2  1  0  0  0  0
  1 21  1  0  0  0  0
  1 22  1  0  0  0  0
  1 23  1  0  0  0  0
  2  3  1  0  0  0  0
  2  4  1  0  0  0  0
  2 24  1  0  0  0  0
  3 25  1  0  0  0  0
  3 26  1  0  0  0  0
  3 27  1  0  0  0  0
  4  5  1  0  0  0  0
  4 15  1  0  0  0  0
  4 28  1  0  0  0  0
  5  6  1  0  0  0  0
  5 29  1  0  0  0  0
  5 30  1  0  0  0  0
  6  7  1  0  0  0  0
  6 31  1  0  0  0  0
  7  8  2  0  0  0  0
  7  9  1  0  0  0  0
  9 10  1  0  0  0  0
  9 32  1  0  0  0  0
 10 14  1  0  0  0  0
 10 11  2  0  0  0  0
 11 12  1  0  0  0  0
 12 13  2  0  0  0  0
 12 33  1  0  0  0  0
 13 14  1  0  0  0  0
 13 34  1  0  0  0  0
 15 20  1  0  0  0  0
 15 16  1  0  0  0  0
 16 17  1  0  0  0  0
 16 35  1  0  0  0  0
 16 36  1  0  0  0  0
 17 18  1  0  0  0  0
 17 37  1  0  0  0  0
 17 38  1  0  0  0  0
 18 19  1  0  0  0  0
 19 20  1  0  0  0  0
 19 39  1  0  0  0  0
 19 40  1  0  0  0  0
 20 41  1  0  0  0  0
 20 42  1  0  0  0  0
M  END
> <s_m_source_file>
AV-unprocessed.smi

> <i_m_source_file_index>
845

> <i_lp_mmshare_version>
43012

> <i_f3d_flags>
0

> <s_epik_input>
W0NIMl0xW0NIMl1PW0NIMl1bQ0gyXU4xW0NASF0oW0NIXShbQ0gzXSlbQ0gzXSlbQ0gyXVtOSF1DKD1PKVtOSF1jMm5bY0hdW2NIXXMy

> <s_epik_cmdline>
J2VwaWtfcHl0aG9uJywgJy1waCcsICc3LjAnLCAnLXRuJywgJzgnLCAnLW1hJywgJzIwMCcsICctbWV0YWxfYmluZGluZycsICctaW1hZScsICc8aW5maWxlLm1hZT4nLCAnLW9tYWUnLCAnPG91dGZpbGUubWFlPic=

> <r_lp_tautomer_probability>
0.999

> <r_epik_Ionization_Penalty>
0.423897

> <r_epik_Ionization_Penalty_Charging>
0

> <r_epik_Ionization_Penalty_Neutral>
0.423897

> <r_epik_State_Penalty>
0.424384

> <r_epik_Charging_Adjusted_Penalty>
0.424384

> <i_epik_Tot_Q>
0

> <i_epik_Tot_abs_Q>
0

> <r_epik_Metal_State_Penalty>
0.434476

> <b_epik_Metal_Only>
0

> <s_lp_Force_Field>
OPLS_2005

> <r_lp_Energy>
36.4292

> <b_lp_Chiralities_Consistent>
1

> <s_lp_Variant>
AV-unprocessed.smi:845-3

> <Gold.Version>
5.8.1

> <Gold.Id.Protein>
6NUR|6NUR_protein|mol2

> <Gold.PLP.Fitness>
37.3770

> <Gold.PLP.PLP>
-27.8466

> <Gold.PLP.part.hbond>
-2.8626

> <Gold.PLP.part.metal>
0.0000

> <Gold.PLP.part.buried>
-5.4543

> <Gold.PLP.part.nonpolar>
-22.8614

> <Gold.PLP.part.repulsive>
2.1062

> <Gold.PLP.ligand.clash>
0.0000

> <Gold.PLP.ligand.torsion>
1.3581

> <Gold.PLP.Chemscore.Hbond>
2.9760

> <Gold.PLP.Chemscore.CHOScore>
0.9857

> <Gold.PLP.Chemscore.Metal>
0.0000

> <Gold.Chemscore.Hbonds>
donor molecule, donor type, donor heavy atom, donor atom, acceptor molecule, acceptor atom, score
      L1  H     6    31       P1  7948  1.00
      L1  H     9    32       P1  7948  0.96
      P1  H  7989  7998       L1    18  1.00
      L1  C    12    33       P1 10186  1.00

> <Gold.PLP.Chemscore.Internal.Correction>
0.3615

> <Gold.Rescore>
     Score         DG    S(hbond)    S(metal)    S(lipo)     H(rot)  DE(clash)    DE(int)     intcor
     13.78     -17.60       2.86        0.00      60.41       1.75       0.10       3.72       ----

> <Gold.Chemscore.Fitness>
13.7808

> <Gold.Chemscore.DG>
-17.6029

> <Gold.Chemscore.ZeroCoef>
-5.4800

> <Gold.Chemscore.Hbond>
2.8556

> <Gold.Chemscore.Metal>
0.0000

> <Gold.Chemscore.Lipo>
60.4057

> <Gold.Chemscore.Internal_Hbond>
0.0000

> <Gold.Chemscore.DEClash>
0.1009

> <Gold.Chemscore.DEInternal>
3.7212

> <Gold.Chemscore.Rot>
1.7509

> <Gold.Chemscore.Internal.Correction>
   9.000000E+99

> <Gold.Chemscore.Hbonds>
donor molecule, donor type, donor heavy atom, donor atom, acceptor molecule, acceptor atom, score
      L1  H     6    31       P1  7948  0.97
      L1  H     9    32       P1  7948  0.87
      P1  H  7989  7998       L1    18  0.95

> <Gold.Chemscore.Hbond.Weighted>
-9.5377

> <Gold.Chemscore.Metal.Weighted>
-0.0000

> <Gold.Chemscore.Lipo.Weighted>
-7.0675

> <Gold.Chemscore.Internal_Hbond.Weighted>
0.0000

> <Gold.Chemscore.DEClash.Weighted>
0.1009

> <Gold.Chemscore.DEInternal.Weighted>
3.7212

> <Gold.Chemscore.Rot.Weighted>
4.4823

> <Gold.Chemscore.Internal.Correction.Weighted>
   9.000000E+99

> <Gold.Protein.RotatedTorsions>
[ 6907 6896 6895 6894 ] final  115.68 input  -60.11 | X-H torsion
[ 7974 7965 7964 7962 ] final  167.54 input  175.53 | X-H torsion
[ 8008 7997 7996 7995 ] final    8.70 input   59.86 | X-H torsion
[ 10167 10162 10161 10158 ] final  -65.05 input  -65.29 | X-H torsion
[ 10718 10713 10712 10709 ] final -177.78 input   66.30 | X-H torsion
[ 10763 10752 10751 10750 ] final   69.85 input  -60.55 | X-H torsion
[ 11005 11000 10999 10996 ] final -173.34 input  -57.11 | X-H torsion

> <Gold.Protein.ActiveResidues>
 VAL166  LYS551  ARG553  GLY616  TRP617  ASP618  TYR619  PRO620  LYS621  CYS622 
 ASP623  PHE694  ASN695  SER759  ASP760  ASP761  ALA762  ILE779  LEU786  VAL792 
 PHE793  MET794  SER795  GLU796  ALA797  LYS798  CYS799  TRP800  GLU811  SER814 

> <Gold.Protein.RotatedAtoms>
  152.4726  133.8065  159.6980 H   0  0  0  0  0  0  0  0  0  0  0  0  # atno 6907 bound_to 6896
  150.8724  133.7477  159.2963 H   0  0  0  0  0  0  0  0  0  0  0  0  # atno 6908 bound_to 6896
  151.5008  135.1065  159.9880 H   0  0  0  0  0  0  0  0  0  0  0  0  # atno 6909 bound_to 6896
  144.7420  139.8776  143.6394 H   0  0  0  0  0  0  0  0  0  0  0  0  # atno 7974 bound_to 7965
  154.7703  140.2801  155.6143 H   0  0  0  0  0  0  0  0  0  0  0  0  # atno 8008 bound_to 7997
  156.2932  140.2642  156.2432 H   0  0  0  0  0  0  0  0  0  0  0  0  # atno 8009 bound_to 7997
  154.9908  140.0373  157.2308 H   0  0  0  0  0  0  0  0  0  0  0  0  # atno 8010 bound_to 7997
  140.5757  143.2322  151.6446 H   0  0  0  0  0  0  0  0  0  0  0  0  # atno 10167 bound_to 10162
  156.8345  130.9665  151.3104 H   0  0  0  0  0  0  0  0  0  0  0  0  # atno 10718 bound_to 10713
  153.0309  135.5195  154.7352 H   0  0  0  0  0  0  0  0  0  0  0  0  # atno 10763 bound_to 10752
  154.6368  135.2907  155.0154 H   0  0  0  0  0  0  0  0  0  0  0  0  # atno 10764 bound_to 10752
  154.1086  135.6625  153.4933 H   0  0  0  0  0  0  0  0  0  0  0  0  # atno 10765 bound_to 10752
  140.4868  134.6022  157.4940 H   0  0  0  0  0  0  0  0  0  0  0  0  # atno 11005 bound_to 11000
  146.1235  139.4257  143.0213 LP  0  0  0  0  0  0  0  0  0  0  0  0  # atno 17320 bound_to 7965
  145.7270  141.0055  143.1372 LP  0  0  0  0  0  0  0  0  0  0  0  0  # atno 17321 bound_to 7965
  139.5142  144.3419  152.0732 LP  0  0  0  0  0  0  0  0  0  0  0  0  # atno 17342 bound_to 10162
  140.2563  144.4115  150.6202 LP  0  0  0  0  0  0  0  0  0  0  0  0  # atno 17343 bound_to 10162
  157.6389  130.8789  149.9410 LP  0  0  0  0  0  0  0  0  0  0  0  0  # atno 17370 bound_to 10713
  156.0915  130.3663  150.0386 LP  0  0  0  0  0  0  0  0  0  0  0  0  # atno 17371 bound_to 10713
  139.9793  134.7164  155.9890 LP  0  0  0  0  0  0  0  0  0  0  0  0  # atno 17394 bound_to 11000
  141.1504  133.6549  156.3995 LP  0  0  0  0  0  0  0  0  0  0  0  0  # atno 17395 bound_to 11000

$$$$
