AV-unprocessed.smi:869|AV-procd|sdf|4003|dock8
  -GOLD-   22720 1483D 1   1.00000     0.00000
 Structure written by MMmdl.
 46 48  0  0  0  0  0  0  0  0  1 V2000
  144.8720  143.7854  154.0281 C   0  0  0  0  0  0  0  0  0  0  0  0
  146.0804  143.1687  154.4350 O   0  0  0  0  0  0  0  0  0  0  0  0
  146.4412  142.0812  153.5963 C   0  0  0  0  0  0  0  0  0  0  0  0
  147.7167  141.4803  154.1158 C   0  0  0  0  0  0  0  0  0  0  0  0
  148.4198  142.0136  155.1182 N   0  0  0  0  0  0  0  0  0  0  0  0
  149.4813  141.1404  155.2479 C   0  0  0  0  0  0  0  0  0  0  0  0
  150.5803  141.1552  156.1366 C   0  0  0  0  0  0  0  0  0  0  0  0
  151.5559  140.1381  156.0820 C   0  0  0  0  0  0  0  0  0  0  0  0
  151.4466  139.0939  155.1409 C   0  0  0  0  0  0  0  0  0  0  0  0
  150.3591  139.0602  154.2469 C   0  0  0  0  0  0  0  0  0  0  0  0
  149.3890  140.0787  154.3049 C   0  0  0  0  0  0  0  0  0  0  0  0
  148.2264  140.3388  153.5866 N   0  0  0  0  0  0  0  0  0  0  0  0
  147.6946  139.5269  152.4992 C   0  0  0  0  0  0  0  0  0  0  0  0
  146.7446  138.4188  152.9966 C   0  0  2  0  0  0  0  0  0  0  0  0
  147.4764  137.4978  153.7814 O   0  0  0  0  0  0  0  0  0  0  0  0
  146.0935  137.6562  151.8321 C   0  0  0  0  0  0  0  0  0  0  0  0
  145.0544  136.8337  152.3468 O   0  0  0  0  0  0  0  0  0  0  0  0
  145.0212  135.5088  151.9680 C   0  0  0  0  0  0  0  0  0  0  0  0
  143.8252  134.8032  152.2130 C   0  0  0  0  0  0  0  0  0  0  0  0
  143.7025  133.4456  151.8602 C   0  0  0  0  0  0  0  0  0  0  0  0
  144.7823  132.7724  151.2558 C   0  0  0  0  0  0  0  0  0  0  0  0
  144.6556  131.3120  150.8742 C   0  0  0  0  0  0  0  0  0  0  0  0
  145.9811  133.4678  151.0035 C   0  0  0  0  0  0  0  0  0  0  0  0
  146.1026  134.8263  151.3554 C   0  0  0  0  0  0  0  0  0  0  0  0
  144.6376  144.6108  154.7006 H   0  0  0  0  0  0  0  0  0  0  0  0
  144.0401  143.0802  154.0570 H   0  0  0  0  0  0  0  0  0  0  0  0
  144.9557  144.1876  153.0175 H   0  0  0  0  0  0  0  0  0  0  0  0
  145.6583  141.3214  153.5973 H   0  0  0  0  0  0  0  0  0  0  0  0
  146.5889  142.4274  152.5727 H   0  0  0  0  0  0  0  0  0  0  0  0
  150.6721  141.9509  156.8610 H   0  0  0  0  0  0  0  0  0  0  0  0
  152.3919  140.1592  156.7656 H   0  0  0  0  0  0  0  0  0  0  0  0
  152.1981  138.3189  155.1054 H   0  0  0  0  0  0  0  0  0  0  0  0
  150.2726  138.2624  153.5246 H   0  0  0  0  0  0  0  0  0  0  0  0
  147.1631  140.1916  151.8173 H   0  0  0  0  0  0  0  0  0  0  0  0
  148.5142  139.0987  151.9222 H   0  0  0  0  0  0  0  0  0  0  0  0
  145.9679  138.8693  153.6161 H   0  0  0  0  0  0  0  0  0  0  0  0
  148.2411  137.2320  153.2938 H   0  0  0  0  0  0  0  0  0  0  0  0
  145.6508  138.3699  151.1353 H   0  0  0  0  0  0  0  0  0  0  0  0
  146.8388  137.0746  151.2864 H   0  0  0  0  0  0  0  0  0  0  0  0
  142.9911  135.3088  152.6770 H   0  0  0  0  0  0  0  0  0  0  0  0
  142.7770  132.9241  152.0561 H   0  0  0  0  0  0  0  0  0  0  0  0
  144.3669  131.2208  149.8271 H   0  0  0  0  0  0  0  0  0  0  0  0
  143.9019  130.8122  151.4836 H   0  0  0  0  0  0  0  0  0  0  0  0
  145.6034  130.7923  151.0165 H   0  0  0  0  0  0  0  0  0  0  0  0
  146.8136  132.9609  150.5379 H   0  0  0  0  0  0  0  0  0  0  0  0
  147.0379  135.3216  151.1446 H   0  0  0  0  0  0  0  0  0  0  0  0
  1  2  1  0  0  0  0
  1 25  1  0  0  0  0
  1 26  1  0  0  0  0
  1 27  1  0  0  0  0
  2  3  1  0  0  0  0
  3  4  1  0  0  0  0
  3 28  1  0  0  0  0
  3 29  1  0  0  0  0
  4 12  1  0  0  0  0
  4  5  2  0  0  0  0
  5  6  1  0  0  0  0
  6 11  2  0  0  0  0
  6  7  1  0  0  0  0
  7  8  2  0  0  0  0
  7 30  1  0  0  0  0
  8  9  1  0  0  0  0
  8 31  1  0  0  0  0
  9 10  2  0  0  0  0
  9 32  1  0  0  0  0
 10 11  1  0  0  0  0
 10 33  1  0  0  0  0
 11 12  1  0  0  0  0
 12 13  1  0  0  0  0
 13 14  1  0  0  0  0
 13 34  1  0  0  0  0
 13 35  1  0  0  0  0
 14 15  1  0  0  0  0
 14 16  1  0  0  0  0
 14 36  1  0  0  0  0
 15 37  1  0  0  0  0
 16 17  1  0  0  0  0
 16 38  1  0  0  0  0
 16 39  1  0  0  0  0
 17 18  1  0  0  0  0
 18 24  1  0  0  0  0
 18 19  2  0  0  0  0
 19 20  1  0  0  0  0
 19 40  1  0  0  0  0
 20 21  2  0  0  0  0
 20 41  1  0  0  0  0
 21 22  1  0  0  0  0
 21 23  1  0  0  0  0
 22 42  1  0  0  0  0
 22 43  1  0  0  0  0
 22 44  1  0  0  0  0
 23 24  2  0  0  0  0
 23 45  1  0  0  0  0
 24 46  1  0  0  0  0
M  END
> <s_m_source_file>
AV-unprocessed.smi

> <i_m_source_file_index>
869

> <i_lp_mmshare_version>
43012

> <i_f3d_flags>
0

> <s_epik_input>
W2NIXTFbY0hdW2NIXVtjSF1jKGMxMiluKGMobjIpW0NIMl1PW0NIM10pW0NIMl1bQ0BIXShbT0hdKVtDSDJdT2MzW2NIXVtjSF1jKFtDSDNdKVtjSF1bY0hdMw==

> <s_epik_cmdline>
J2VwaWtfcHl0aG9uJywgJy1waCcsICc3LjAnLCAnLXRuJywgJzgnLCAnLW1hJywgJzIwMCcsICctbWV0YWxfYmluZGluZycsICctaW1hZScsICc8aW5maWxlLm1hZT4nLCAnLW9tYWUnLCAnPG91dGZpbGUubWFlPic=

> <r_lp_tautomer_probability>
1

> <r_epik_Ionization_Penalty>
0.0446698

> <r_epik_Ionization_Penalty_Charging>
0

> <r_epik_Ionization_Penalty_Neutral>
0.0446698

> <r_epik_State_Penalty>
0.0378721

> <r_epik_Charging_Adjusted_Penalty>
0.0378721

> <i_epik_Tot_Q>
0

> <i_epik_Tot_abs_Q>
0

> <r_epik_Metal_State_Penalty>
3.91074e-05

> <b_epik_Metal_Only>
0

> <s_lp_Force_Field>
OPLS_2005

> <r_lp_Energy>
18.3229

> <b_lp_Chiralities_Consistent>
1

> <s_lp_Variant>
AV-unprocessed.smi:869-1

> <Gold.Version>
5.8.1

> <Gold.Id.Protein>
6NUR|6NUR_protein|mol2

> <Gold.PLP.Fitness>
47.6608

> <Gold.PLP.PLP>
-46.5917

> <Gold.PLP.part.hbond>
-1.0000

> <Gold.PLP.part.metal>
0.0000

> <Gold.PLP.part.buried>
2.5227

> <Gold.PLP.part.nonpolar>
-50.4005

> <Gold.PLP.part.repulsive>
2.4874

> <Gold.PLP.ligand.clash>
0.0000

> <Gold.PLP.ligand.torsion>
1.0219

> <Gold.PLP.Chemscore.Hbond>
1.0000

> <Gold.PLP.Chemscore.CHOScore>
0.0000

> <Gold.PLP.Chemscore.Metal>
0.0000

> <Gold.Chemscore.Hbonds>
donor molecule, donor type, donor heavy atom, donor atom, acceptor molecule, acceptor atom, score
      L1  H    15    37       P1  7948  0.98

> <Gold.PLP.Chemscore.Internal.Correction>
0.1130

> <Gold.Rescore>
     Score         DG    S(hbond)    S(metal)    S(lipo)     H(rot)  DE(clash)    DE(int)     intcor
     13.31     -17.13       1.00        0.00     122.76       2.36       2.72       1.10       ----

> <Gold.Chemscore.Fitness>
13.3084

> <Gold.Chemscore.DG>
-17.1304

> <Gold.Chemscore.ZeroCoef>
-5.4800

> <Gold.Chemscore.Hbond>
0.9955

> <Gold.Chemscore.Metal>
0.0000

> <Gold.Chemscore.Lipo>
122.7634

> <Gold.Chemscore.Internal_Hbond>
0.0000

> <Gold.Chemscore.DEClash>
2.7238

> <Gold.Chemscore.DEInternal>
1.0982

> <Gold.Chemscore.Rot>
2.3585

> <Gold.Chemscore.Internal.Correction>
   9.000000E+99

> <Gold.Chemscore.Hbonds>
donor molecule, donor type, donor heavy atom, donor atom, acceptor molecule, acceptor atom, score
      L1  H    15    37       P1  7948  0.92

> <Gold.Chemscore.Hbond.Weighted>
-3.3249

> <Gold.Chemscore.Metal.Weighted>
-0.0000

> <Gold.Chemscore.Lipo.Weighted>
-14.3633

> <Gold.Chemscore.Internal_Hbond.Weighted>
0.0000

> <Gold.Chemscore.DEClash.Weighted>
2.7238

> <Gold.Chemscore.DEInternal.Weighted>
1.0982

> <Gold.Chemscore.Rot.Weighted>
6.0378

> <Gold.Chemscore.Internal.Correction.Weighted>
   9.000000E+99

> <Gold.Protein.RotatedTorsions>
[ 6907 6896 6895 6894 ] final  147.19 input  -60.11 | X-H torsion
[ 7974 7965 7964 7962 ] final -137.72 input  175.53 | X-H torsion
[ 8008 7997 7996 7995 ] final  163.06 input   59.86 | X-H torsion
[ 10167 10162 10161 10158 ] final   70.84 input  -65.29 | X-H torsion
[ 10718 10713 10712 10709 ] final   90.28 input   66.30 | X-H torsion
[ 10763 10752 10751 10750 ] final   80.56 input  -60.55 | X-H torsion
[ 11005 11000 10999 10996 ] final -134.20 input  -57.11 | X-H torsion

> <Gold.Protein.ActiveResidues>
 VAL166  LYS551  ARG553  GLY616  TRP617  ASP618  TYR619  PRO620  LYS621  CYS622 
 ASP623  PHE694  ASN695  SER759  ASP760  ASP761  ALA762  ILE779  LEU786  VAL792 
 PHE793  MET794  SER795  GLU796  ALA797  LYS798  CYS799  TRP800  GLU811  SER814 

> <Gold.Protein.RotatedAtoms>
  152.1580  133.4563  159.4846 H   0  0  0  0  0  0  0  0  0  0  0  0  # atno 6907 bound_to 6896
  150.6903  134.2107  159.4367 H   0  0  0  0  0  0  0  0  0  0  0  0  # atno 6908 bound_to 6896
  152.0008  134.9929  160.0615 H   0  0  0  0  0  0  0  0  0  0  0  0  # atno 6909 bound_to 6896
  144.8818  140.6518  143.5201 H   0  0  0  0  0  0  0  0  0  0  0  0  # atno 7974 bound_to 7965
  156.1985  140.1733  156.7948 H   0  0  0  0  0  0  0  0  0  0  0  0  # atno 8008 bound_to 7997
  154.5561  140.0708  156.8776 H   0  0  0  0  0  0  0  0  0  0  0  0  # atno 8009 bound_to 7997
  155.2936  140.3357  155.4253 H   0  0  0  0  0  0  0  0  0  0  0  0  # atno 8010 bound_to 7997
  140.0525  144.5300  150.7352 H   0  0  0  0  0  0  0  0  0  0  0  0  # atno 10167 bound_to 10162
  157.6958  131.0365  150.3554 H   0  0  0  0  0  0  0  0  0  0  0  0  # atno 10718 bound_to 10713
  153.1044  135.4798  154.8924 H   0  0  0  0  0  0  0  0  0  0  0  0  # atno 10763 bound_to 10752
  154.7414  135.3083  154.8724 H   0  0  0  0  0  0  0  0  0  0  0  0  # atno 10764 bound_to 10752
  153.9331  135.6842  153.4798 H   0  0  0  0  0  0  0  0  0  0  0  0  # atno 10765 bound_to 10752
  140.9011  134.1689  157.4459 H   0  0  0  0  0  0  0  0  0  0  0  0  # atno 11005 bound_to 11000
  145.3941  139.1610  143.4213 LP  0  0  0  0  0  0  0  0  0  0  0  0  # atno 17320 bound_to 7965
  146.2999  140.4032  142.8708 LP  0  0  0  0  0  0  0  0  0  0  0  0  # atno 17321 bound_to 7965
  140.7210  143.2589  151.4279 LP  0  0  0  0  0  0  0  0  0  0  0  0  # atno 17342 bound_to 10162
  139.5944  144.1430  152.2126 LP  0  0  0  0  0  0  0  0  0  0  0  0  # atno 17343 bound_to 10162
  156.3997  130.3913  149.6969 LP  0  0  0  0  0  0  0  0  0  0  0  0  # atno 17370 bound_to 10713
  156.4290  130.7806  151.2825 LP  0  0  0  0  0  0  0  0  0  0  0  0  # atno 17371 bound_to 10713
  139.8742  134.9898  156.5475 LP  0  0  0  0  0  0  0  0  0  0  0  0  # atno 17394 bound_to 11000
  140.8228  133.8340  155.8911 LP  0  0  0  0  0  0  0  0  0  0  0  0  # atno 17395 bound_to 11000

$$$$
