AV-unprocessed.smi:1749|AV-procd|sdf|7047|dock4
  -GOLD-   22720 8263D 1   1.00000     0.00000
 Structure written by MMmdl.
 32 33  0  0  0  0  0  0  0  0  1 V2000
  146.0835  132.1851  152.1035 C   0  0  0  0  0  0  0  0  0  0  0  0
  145.9324  133.7091  151.9994 C   0  0  1  0  0  0  0  0  0  0  0  0
  145.0480  134.1072  150.8024 C   0  0  0  0  0  0  0  0  0  0  0  0
  144.8904  135.6324  150.6971 C   0  0  0  0  0  0  0  0  0  0  0  0
  144.3418  136.2307  152.0044 C   0  0  0  0  0  0  0  0  0  0  0  0
  145.1987  135.8420  153.2243 C   0  0  2  0  0  0  0  0  0  0  0  0
  146.4938  136.5147  153.1613 N   0  0  0  0  0  0  0  0  0  0  0  0
  146.8146  137.6727  153.7610 C   0  0  0  0  0  0  0  0  0  0  0  0
  146.0047  138.3365  154.4059 O   0  0  0  0  0  0  0  0  0  0  0  0
  148.0918  138.0839  153.6113 N   0  0  0  0  0  0  0  0  0  0  0  0
  148.7703  139.2393  154.0980 C   0  0  0  0  0  0  0  0  0  0  0  0
  150.0118  139.2304  154.6113 N   0  0  0  0  0  0  0  0  0  0  0  0
  150.4149  140.4914  155.0279 N   0  0  0  0  0  0  0  0  0  0  0  0
  149.4589  141.4021  154.8263 C   0  0  0  0  0  0  0  0  0  0  0  0
  147.9725  140.8062  154.1081 S   0  0  0  0  0  0  0  0  0  0  0  0
  145.3732  134.3101  153.3065 C   0  0  0  0  0  0  0  0  0  0  0  0
  145.1210  131.7009  152.2703 H   0  0  0  0  0  0  0  0  0  0  0  0
  146.7412  131.9121  152.9292 H   0  0  0  0  0  0  0  0  0  0  0  0
  146.5116  131.7700  151.1907 H   0  0  0  0  0  0  0  0  0  0  0  0
  146.9287  134.1218  151.8330 H   0  0  0  0  0  0  0  0  0  0  0  0
  145.4763  133.7209  149.8769 H   0  0  0  0  0  0  0  0  0  0  0  0
  144.0638  133.6474  150.9020 H   0  0  0  0  0  0  0  0  0  0  0  0
  145.8541  136.0840  150.4582 H   0  0  0  0  0  0  0  0  0  0  0  0
  144.2243  135.8792  149.8702 H   0  0  0  0  0  0  0  0  0  0  0  0
  144.2743  137.3161  151.9197 H   0  0  0  0  0  0  0  0  0  0  0  0
  143.3219  135.8751  152.1567 H   0  0  0  0  0  0  0  0  0  0  0  0
  144.6787  136.1840  154.1211 H   0  0  0  0  0  0  0  0  0  0  0  0
  147.2216  136.0392  152.6467 H   0  0  0  0  0  0  0  0  0  0  0  0
  148.6481  137.5029  153.0010 H   0  0  0  0  0  0  0  0  0  0  0  0
  149.6285  142.4312  155.1055 H   0  0  0  0  0  0  0  0  0  0  0  0
  144.4057  133.8558  153.5250 H   0  0  0  0  0  0  0  0  0  0  0  0
  146.0210  134.0513  154.1451 H   0  0  0  0  0  0  0  0  0  0  0  0
  1  2  1  0  0  0  0
  1 17  1  0  0  0  0
  1 18  1  0  0  0  0
  1 19  1  0  0  0  0
  2 16  1  0  0  0  0
  2  3  1  0  0  0  0
  2 20  1  0  0  0  0
  3  4  1  0  0  0  0
  3 21  1  0  0  0  0
  3 22  1  0  0  0  0
  4  5  1  0  0  0  0
  4 23  1  0  0  0  0
  4 24  1  0  0  0  0
  5  6  1  0  0  0  0
  5 25  1  0  0  0  0
  5 26  1  0  0  0  0
  6  7  1  0  0  0  0
  6 16  1  0  0  0  0
  6 27  1  0  0  0  0
  7  8  1  0  0  0  0
  7 28  1  0  0  0  0
  8  9  2  0  0  0  0
  8 10  1  0  0  0  0
 10 11  1  0  0  0  0
 10 29  1  0  0  0  0
 11 15  1  0  0  0  0
 11 12  2  0  0  0  0
 12 13  1  0  0  0  0
 13 14  2  0  0  0  0
 14 15  1  0  0  0  0
 14 30  1  0  0  0  0
 16 31  1  0  0  0  0
 16 32  1  0  0  0  0
M  END
> <s_m_source_file>
AV-unprocessed.smi

> <i_m_source_file_index>
1749

> <i_lp_mmshare_version>
43012

> <i_f3d_flags>
0

> <s_epik_input>
W0NIM11bQ0BASF0xW0NIMl1bQ0gyXVtDSDJdW0NASF0oW0NIMl0xKVtOSF1DKD1PKVtOSF1jMm5uW2NIXXMy

> <s_epik_cmdline>
J2VwaWtfcHl0aG9uJywgJy1waCcsICc3LjAnLCAnLXRuJywgJzgnLCAnLW1hJywgJzIwMCcsICctbWV0YWxfYmluZGluZycsICctaW1hZScsICc8aW5maWxlLm1hZT4nLCAnLW9tYWUnLCAnPG91dGZpbGUubWFlPic=

> <r_lp_tautomer_probability>
1

> <r_epik_Ionization_Penalty>
0.000318591

> <r_epik_Ionization_Penalty_Charging>
0

> <r_epik_Ionization_Penalty_Neutral>
0.000318591

> <r_epik_State_Penalty>
-0

> <r_epik_Charging_Adjusted_Penalty>
0

> <i_epik_Tot_Q>
0

> <i_epik_Tot_abs_Q>
0

> <r_epik_Metal_State_Penalty>
0.169791

> <b_epik_Metal_Only>
0

> <s_lp_Force_Field>
OPLS_2005

> <r_lp_Energy>
10.2473

> <b_lp_Chiralities_Consistent>
1

> <s_lp_Variant>
AV-unprocessed.smi:1749-4

> <Gold.Version>
5.8.1

> <Gold.Id.Protein>
6NUR|6NUR_protein|mol2

> <Gold.PLP.Fitness>
33.9063

> <Gold.PLP.PLP>
-23.7836

> <Gold.PLP.part.hbond>
-3.0000

> <Gold.PLP.part.metal>
0.0000

> <Gold.PLP.part.buried>
-2.7329

> <Gold.PLP.part.nonpolar>
-17.9021

> <Gold.PLP.part.repulsive>
0.3318

> <Gold.PLP.ligand.clash>
0.0000

> <Gold.PLP.ligand.torsion>
0.6593

> <Gold.PLP.Chemscore.Hbond>
2.8120

> <Gold.PLP.Chemscore.CHOScore>
1.0000

> <Gold.PLP.Chemscore.Metal>
0.0000

> <Gold.Chemscore.Hbonds>
donor molecule, donor type, donor heavy atom, donor atom, acceptor molecule, acceptor atom, score
      L1  H     7    28       P1  7948  0.91
      L1  H    10    29       P1  7948  1.00
      P1  H  7989  7998       L1    13  0.85
      L1  C    14    30       P1  8028  1.00

> <Gold.PLP.Chemscore.Internal.Correction>
0.0054

> <Gold.Rescore>
     Score         DG    S(hbond)    S(metal)    S(lipo)     H(rot)  DE(clash)    DE(int)     intcor
     14.44     -15.10       1.93        0.00      49.01       1.00       0.07       0.59       ----

> <Gold.Chemscore.Fitness>
14.4414

> <Gold.Chemscore.DG>
-15.1029

> <Gold.Chemscore.ZeroCoef>
-5.4800

> <Gold.Chemscore.Hbond>
1.9306

> <Gold.Chemscore.Metal>
0.0000

> <Gold.Chemscore.Lipo>
49.0138

> <Gold.Chemscore.Internal_Hbond>
0.0000

> <Gold.Chemscore.DEClash>
0.0739

> <Gold.Chemscore.DEInternal>
0.5876

> <Gold.Chemscore.Rot>
1.0000

> <Gold.Chemscore.Internal.Correction>
   9.000000E+99

> <Gold.Chemscore.Hbonds>
donor molecule, donor type, donor heavy atom, donor atom, acceptor molecule, acceptor atom, score
      L1  H     7    28       P1  7948  0.88
      L1  H    10    29       P1  7948  0.99
      P1  H  7989  7998       L1    13  0.03

> <Gold.Chemscore.Hbond.Weighted>
-6.4483

> <Gold.Chemscore.Metal.Weighted>
-0.0000

> <Gold.Chemscore.Lipo.Weighted>
-5.7346

> <Gold.Chemscore.Internal_Hbond.Weighted>
0.0000

> <Gold.Chemscore.DEClash.Weighted>
0.0739

> <Gold.Chemscore.DEInternal.Weighted>
0.5876

> <Gold.Chemscore.Rot.Weighted>
2.5600

> <Gold.Chemscore.Internal.Correction.Weighted>
   9.000000E+99

> <Gold.Protein.RotatedTorsions>
[ 6907 6896 6895 6894 ] final  146.57 input  -60.11 | X-H torsion
[ 7974 7965 7964 7962 ] final  153.83 input  175.53 | X-H torsion
[ 8008 7997 7996 7995 ] final  159.02 input   59.86 | X-H torsion
[ 10167 10162 10161 10158 ] final -134.90 input  -65.29 | X-H torsion
[ 10718 10713 10712 10709 ] final   59.13 input   66.30 | X-H torsion
[ 10763 10752 10751 10750 ] final   91.90 input  -60.55 | X-H torsion
[ 11005 11000 10999 10996 ] final   73.66 input  -57.11 | X-H torsion

> <Gold.Protein.ActiveResidues>
 VAL166  LYS551  ARG553  GLY616  TRP617  ASP618  TYR619  PRO620  LYS621  CYS622 
 ASP623  PHE694  ASN695  SER759  ASP760  ASP761  ALA762  ILE779  LEU786  VAL792 
 PHE793  MET794  SER795  GLU796  ALA797  LYS798  CYS799  TRP800  GLU811  SER814 

> <Gold.Protein.RotatedAtoms>
  152.1662  133.4613  159.4885 H   0  0  0  0  0  0  0  0  0  0  0  0  # atno 6907 bound_to 6896
  150.6913  134.2010  159.4331 H   0  0  0  0  0  0  0  0  0  0  0  0  # atno 6908 bound_to 6896
  151.9915  134.9976  160.0612 H   0  0  0  0  0  0  0  0  0  0  0  0  # atno 6909 bound_to 6896
  144.8128  139.6852  143.6134 H   0  0  0  0  0  0  0  0  0  0  0  0  # atno 7974 bound_to 7965
  156.2266  140.1842  156.7348 H   0  0  0  0  0  0  0  0  0  0  0  0  # atno 8008 bound_to 7997
  154.5951  140.0644  156.9320 H   0  0  0  0  0  0  0  0  0  0  0  0  # atno 8009 bound_to 7997
  155.2270  140.3312  155.4310 H   0  0  0  0  0  0  0  0  0  0  0  0  # atno 8010 bound_to 7997
  139.8833  143.6812  152.2624 H   0  0  0  0  0  0  0  0  0  0  0  0  # atno 10167 bound_to 10162
  157.5651  130.8865  149.9175 H   0  0  0  0  0  0  0  0  0  0  0  0  # atno 10718 bound_to 10713
  153.2133  135.4381  155.0405 H   0  0  0  0  0  0  0  0  0  0  0  0  # atno 10763 bound_to 10752
  154.8212  135.3338  154.7036 H   0  0  0  0  0  0  0  0  0  0  0  0  # atno 10764 bound_to 10752
  153.7472  135.7000  153.5009 H   0  0  0  0  0  0  0  0  0  0  0  0  # atno 10765 bound_to 10752
  139.9429  134.7366  156.1053 H   0  0  0  0  0  0  0  0  0  0  0  0  # atno 11005 bound_to 11000
  146.2429  139.6038  142.9479 LP  0  0  0  0  0  0  0  0  0  0  0  0  # atno 17320 bound_to 7965
  145.5283  141.0428  143.2397 LP  0  0  0  0  0  0  0  0  0  0  0  0  # atno 17321 bound_to 7965
  139.7176  144.7609  151.1008 LP  0  0  0  0  0  0  0  0  0  0  0  0  # atno 17342 bound_to 10162
  140.7740  143.5249  150.9492 LP  0  0  0  0  0  0  0  0  0  0  0  0  # atno 17343 bound_to 10162
  156.0700  130.3686  150.0795 LP  0  0  0  0  0  0  0  0  0  0  0  0  # atno 17370 bound_to 10713
  156.8955  130.9603  151.3583 LP  0  0  0  0  0  0  0  0  0  0  0  0  # atno 17371 bound_to 10713
  141.1070  133.6656  156.2887 LP  0  0  0  0  0  0  0  0  0  0  0  0  # atno 17394 bound_to 11000
  140.5907  134.5653  157.5499 LP  0  0  0  0  0  0  0  0  0  0  0  0  # atno 17395 bound_to 11000

$$$$
