AV-unprocessed.smi:2568|AV-procd|sdf|10090|dock10
  -GOLD-   2272014113D 1   1.00000     0.00000
 Structure written by MMmdl.
 24 25  0  0  0  0  0  0  0  0  1 V2000
  147.7153  142.2285  154.0071 C   0  0  0  0  0  0  0  0  0  0  0  0
  148.9474  141.5185  154.4557 C   0  0  0  0  0  0  0  0  0  0  0  0
  149.5552  140.6042  153.6981 N   0  0  0  0  0  0  0  0  0  0  0  0
  150.6324  140.1245  154.3548 N   0  0  0  0  0  0  0  0  0  0  0  0
  150.6017  140.8232  155.4895 C   0  0  0  0  0  0  0  0  0  0  0  0
  151.6163  140.5841  156.5649 C   0  0  2  0  0  0  0  0  0  0  0  0
  152.2746  139.1956  156.4435 C   0  0  0  0  0  0  0  0  0  0  0  0
  153.1822  138.9651  157.5668 N   0  0  0  0  0  0  0  0  0  0  0  0
  152.4948  139.1400  158.8456 C   0  0  0  0  0  0  0  0  0  0  0  0
  151.8244  140.5246  158.9091 C   0  0  0  0  0  0  0  0  0  0  0  0
  150.9303  140.6745  157.8117 O   0  0  0  0  0  0  0  0  0  0  0  0
  149.5585  141.7007  155.6208 N   0  0  0  0  0  0  0  0  0  0  0  0
  149.2824  140.2868  152.7788 H   0  0  0  0  0  0  0  0  0  0  0  0
  147.4215  142.9822  154.7385 H   0  0  0  0  0  0  0  0  0  0  0  0
  146.8963  141.5188  153.8898 H   0  0  0  0  0  0  0  0  0  0  0  0
  147.8934  142.7218  153.0514 H   0  0  0  0  0  0  0  0  0  0  0  0
  152.3748  141.3681  156.5117 H   0  0  0  0  0  0  0  0  0  0  0  0
  151.5045  138.4232  156.4272 H   0  0  0  0  0  0  0  0  0  0  0  0
  152.8178  139.1173  155.5015 H   0  0  0  0  0  0  0  0  0  0  0  0
  153.5615  138.0253  157.5104 H   0  0  0  0  0  0  0  0  0  0  0  0
  151.7404  138.3623  158.9710 H   0  0  0  0  0  0  0  0  0  0  0  0
  153.2010  139.0272  159.6684 H   0  0  0  0  0  0  0  0  0  0  0  0
  151.2619  140.6263  159.8374 H   0  0  0  0  0  0  0  0  0  0  0  0
  152.5699  141.3214  158.8996 H   0  0  0  0  0  0  0  0  0  0  0  0
  1 14  1  0  0  0  0
  1 15  1  0  0  0  0
  1 16  1  0  0  0  0
  1  2  1  0  0  0  0
  2 12  2  0  0  0  0
  2  3  1  0  0  0  0
  3  4  1  0  0  0  0
  3 13  1  0  0  0  0
  4  5  2  0  0  0  0
  5 12  1  0  0  0  0
  5  6  1  0  0  0  0
  6 11  1  0  0  0  0
  6  7  1  0  0  0  0
  6 17  1  0  0  0  0
  7  8  1  0  0  0  0
  7 18  1  0  0  0  0
  7 19  1  0  0  0  0
  8  9  1  0  0  0  0
  8 20  1  0  0  0  0
  9 10  1  0  0  0  0
  9 21  1  0  0  0  0
  9 22  1  0  0  0  0
 10 11  1  0  0  0  0
 10 23  1  0  0  0  0
 10 24  1  0  0  0  0
M  END
> <s_m_source_file>
AV-unprocessed.smi

> <i_m_source_file_index>
2568

> <i_lp_mmshare_version>
43012

> <i_f3d_flags>
0

> <s_epik_input>
W0NIM11jMW5bbkhdYyhuMSlbQ0BASF0yW0NIMl1bTkhdW0NIMl1bQ0gyXU8y

> <s_epik_cmdline>
J2VwaWtfcHl0aG9uJywgJy1waCcsICc3LjAnLCAnLXRuJywgJzgnLCAnLW1hJywgJzIwMCcsICctbWV0YWxfYmluZGluZycsICctaW1hZScsICc8aW5maWxlLm1hZT4nLCAnLW9tYWUnLCAnPG91dGZpbGUubWFlPic=

> <r_epik_Ionization_Penalty>
1.10101

> <r_epik_Ionization_Penalty_Charging>
0

> <r_epik_Ionization_Penalty_Neutral>
1.10101

> <r_epik_State_Penalty>
1.26524

> <r_epik_Charging_Adjusted_Penalty>
1.26524

> <i_epik_Tot_Q>
0

> <i_epik_Tot_abs_Q>
0

> <r_epik_Metal_State_Penalty>
1.56429

> <b_epik_Metal_Only>
0

> <s_lp_Force_Field>
OPLS_2005

> <r_lp_Energy>
12.1745

> <b_lp_Chiralities_Consistent>
1

> <s_lp_Variant>
AV-unprocessed.smi:2568-3

> <Gold.Version>
5.8.1

> <Gold.Id.Protein>
6NUR|6NUR_protein|mol2

> <Gold.PLP.Fitness>
29.0401

> <Gold.PLP.PLP>
-21.9672

> <Gold.PLP.part.hbond>
-3.0000

> <Gold.PLP.part.metal>
0.0000

> <Gold.PLP.part.buried>
-4.3370

> <Gold.PLP.part.nonpolar>
-15.6843

> <Gold.PLP.part.repulsive>
0.8060

> <Gold.PLP.ligand.clash>
0.0000

> <Gold.PLP.ligand.torsion>
0.6459

> <Gold.PLP.Chemscore.Hbond>
2.7840

> <Gold.PLP.Chemscore.CHOScore>
0.0000

> <Gold.PLP.Chemscore.Metal>
0.0000

> <Gold.Chemscore.Hbonds>
donor molecule, donor type, donor heavy atom, donor atom, acceptor molecule, acceptor atom, score
      L1  H     3    13       P1  7957  1.00
      P1  H  7989  7998       L1     4  0.66
      P1  H  7997  8008       L1     8  0.60

> <Gold.PLP.Chemscore.Internal.Correction>
0.0126

> <Gold.Rescore>
     Score         DG    S(hbond)    S(metal)    S(lipo)     H(rot)  DE(clash)    DE(int)     intcor
     11.89     -12.44       1.85        0.00      28.47       1.00       0.09       0.46       ----

> <Gold.Chemscore.Fitness>
11.8912

> <Gold.Chemscore.DG>
-12.4422

> <Gold.Chemscore.ZeroCoef>
-5.4800

> <Gold.Chemscore.Hbond>
1.8535

> <Gold.Chemscore.Metal>
0.0000

> <Gold.Chemscore.Lipo>
28.4742

> <Gold.Chemscore.Internal_Hbond>
0.0000

> <Gold.Chemscore.DEClash>
0.0910

> <Gold.Chemscore.DEInternal>
0.4600

> <Gold.Chemscore.Rot>
1.0000

> <Gold.Chemscore.Internal.Correction>
   9.000000E+99

> <Gold.Chemscore.Hbonds>
donor molecule, donor type, donor heavy atom, donor atom, acceptor molecule, acceptor atom, score
      L1  H     3    13       P1  7957  0.95
      P1  H  7989  7998       L1     4  0.03
      P1  H  7997  8008       L1     8  0.02

> <Gold.Chemscore.Hbond.Weighted>
-6.1907

> <Gold.Chemscore.Metal.Weighted>
-0.0000

> <Gold.Chemscore.Lipo.Weighted>
-3.3315

> <Gold.Chemscore.Internal_Hbond.Weighted>
0.0000

> <Gold.Chemscore.DEClash.Weighted>
0.0910

> <Gold.Chemscore.DEInternal.Weighted>
0.4600

> <Gold.Chemscore.Rot.Weighted>
2.5600

> <Gold.Chemscore.Internal.Correction.Weighted>
   9.000000E+99

> <Gold.Protein.RotatedTorsions>
[ 6907 6896 6895 6894 ] final   -5.38 input  -60.11 | X-H torsion
[ 7974 7965 7964 7962 ] final  125.45 input  175.53 | X-H torsion
[ 8008 7997 7996 7995 ] final  -71.40 input   59.86 | X-H torsion
[ 10167 10162 10161 10158 ] final  -53.84 input  -65.29 | X-H torsion
[ 10718 10713 10712 10709 ] final  -21.79 input   66.30 | X-H torsion
[ 10763 10752 10751 10750 ] final -178.82 input  -60.55 | X-H torsion
[ 11005 11000 10999 10996 ] final   81.16 input  -57.11 | X-H torsion

> <Gold.Protein.ActiveResidues>
 VAL166  LYS551  ARG553  GLY616  TRP617  ASP618  TYR619  PRO620  LYS621  CYS622 
 ASP623  PHE694  ASN695  SER759  ASP760  ASP761  ALA762  ILE779  LEU786  VAL792 
 PHE793  MET794  SER795  GLU796  ALA797  LYS798  CYS799  TRP800  GLU811  SER814 

> <Gold.Protein.RotatedAtoms>
  151.4826  135.1053  159.9781 H   0  0  0  0  0  0  0  0  0  0  0  0  # atno 6907 bound_to 6896
  152.4773  133.8165  159.7041 H   0  0  0  0  0  0  0  0  0  0  0  0  # atno 6908 bound_to 6896
  150.8820  133.7298  159.2956 H   0  0  0  0  0  0  0  0  0  0  0  0  # atno 6909 bound_to 6896
  145.0729  139.3716  143.4948 H   0  0  0  0  0  0  0  0  0  0  0  0  # atno 7974 bound_to 7965
  154.5085  140.0816  156.7943 H   0  0  0  0  0  0  0  0  0  0  0  0  # atno 8008 bound_to 7997
  155.3838  140.3429  155.4230 H   0  0  0  0  0  0  0  0  0  0  0  0  # atno 8009 bound_to 7997
  156.1545  140.1569  156.8703 H   0  0  0  0  0  0  0  0  0  0  0  0  # atno 8010 bound_to 7997
  140.6463  143.2537  151.4850 H   0  0  0  0  0  0  0  0  0  0  0  0  # atno 10167 bound_to 10162
  156.5133  130.4615  149.6636 H   0  0  0  0  0  0  0  0  0  0  0  0  # atno 10718 bound_to 10713
  154.5429  135.2807  155.1079 H   0  0  0  0  0  0  0  0  0  0  0  0  # atno 10763 bound_to 10752
  154.2555  135.6331  153.5259 H   0  0  0  0  0  0  0  0  0  0  0  0  # atno 10764 bound_to 10752
  152.9983  135.5593  154.5973 H   0  0  0  0  0  0  0  0  0  0  0  0  # atno 10765 bound_to 10752
  139.9108  134.7975  156.2004 H   0  0  0  0  0  0  0  0  0  0  0  0  # atno 11005 bound_to 11000
  146.3529  140.0482  142.8638 LP  0  0  0  0  0  0  0  0  0  0  0  0  # atno 17320 bound_to 7965
  145.1271  140.9496  143.4566 LP  0  0  0  0  0  0  0  0  0  0  0  0  # atno 17321 bound_to 7965
  139.5674  144.2009  152.1786 LP  0  0  0  0  0  0  0  0  0  0  0  0  # atno 17342 bound_to 10162
  140.1295  144.5301  150.6811 LP  0  0  0  0  0  0  0  0  0  0  0  0  # atno 17343 bound_to 10162
  156.3219  130.7285  151.2198 LP  0  0  0  0  0  0  0  0  0  0  0  0  # atno 17370 bound_to 10713
  157.7447  131.0453  150.4838 LP  0  0  0  0  0  0  0  0  0  0  0  0  # atno 17371 bound_to 10713
  141.0528  133.6880  156.1804 LP  0  0  0  0  0  0  0  0  0  0  0  0  # atno 17394 bound_to 11000
  140.6783  134.4794  157.5588 LP  0  0  0  0  0  0  0  0  0  0  0  0  # atno 17395 bound_to 11000

$$$$
