AV-unprocessed.smi:3078|AV-procd|sdf|11734|dock2
  -GOLD-   2272017133D 1   1.00000     0.00000
 Structure written by MMmdl.
 23 23  0  0  0  0  0  0  0  0  2 V2000
  145.4781  130.1404  151.6391 C   0  0  0  0  0  0  0  0  0  0  0  0
  144.9853  131.4013  151.1277 N   0  0  0  0  0  0  0  0  0  0  0  0
  145.4431  132.6742  151.3905 C   0  0  0  0  0  0  0  0  0  0  0  0
  144.6719  133.5470  150.6724 C   0  0  0  0  0  0  0  0  0  0  0  0
  144.7478  135.0518  150.5936 C   0  0  1  0  0  0  0  0  0  0  0  0
  143.9436  135.5261  149.4556 N   0  3  0  0  0  0  0  0  0  0  0  0
  144.2946  135.7444  151.8931 C   0  0  0  0  0  0  0  0  0  0  0  0
  144.4463  137.1836  151.7925 N   0  0  0  0  0  0  0  0  0  0  0  0
  143.7563  132.6908  149.9950 C   0  0  0  0  0  0  0  0  0  0  0  0
  143.9450  131.4110  150.2701 N   0  0  0  0  0  0  0  0  0  0  0  0
  146.1729  130.3159  152.4608 H   0  0  0  0  0  0  0  0  0  0  0  0
  145.9951  129.5997  150.8460 H   0  0  0  0  0  0  0  0  0  0  0  0
  144.6466  129.5355  152.0028 H   0  0  0  0  0  0  0  0  0  0  0  0
  146.2747  132.8509  152.0570 H   0  0  0  0  0  0  0  0  0  0  0  0
  145.7732  135.3602  150.3842 H   0  0  0  0  0  0  0  0  0  0  0  0
  143.8903  136.5343  149.4790 H   0  0  0  0  0  0  0  0  0  0  0  0
  143.0129  135.1382  149.5153 H   0  0  0  0  0  0  0  0  0  0  0  0
  143.2429  135.5307  152.0859 H   0  0  0  0  0  0  0  0  0  0  0  0
  144.8590  135.3787  152.7515 H   0  0  0  0  0  0  0  0  0  0  0  0
  145.4107  137.4427  151.9459 H   0  0  0  0  0  0  0  0  0  0  0  0
  144.2116  137.4901  150.8587 H   0  0  0  0  0  0  0  0  0  0  0  0
  142.9635  132.9614  149.3132 H   0  0  0  0  0  0  0  0  0  0  0  0
  144.3763  135.2323  148.5919 H   0  0  0  0  0  0  0  0  0  0  0  0
  1  2  1  0  0  0  0
  1 11  1  0  0  0  0
  1 12  1  0  0  0  0
  1 13  1  0  0  0  0
  2 10  1  0  0  0  0
  2  3  1  0  0  0  0
  3  4  2  0  0  0  0
  3 14  1  0  0  0  0
  4  5  1  0  0  0  0
  4  9  1  0  0  0  0
  5  6  1  0  0  0  0
  5  7  1  0  0  0  0
  5 15  1  0  0  0  0
  6 16  1  0  0  0  0
  6 17  1  0  0  0  0
  6 23  1  0  0  0  0
  7  8  1  0  0  0  0
  7 18  1  0  0  0  0
  7 19  1  0  0  0  0
  8 20  1  0  0  0  0
  8 21  1  0  0  0  0
  9 10  2  0  0  0  0
  9 22  1  0  0  0  0
M  CHG  1   6   1
M  END
> <s_m_source_file>
AV-unprocessed.smi

> <i_m_source_file_index>
3078

> <i_lp_mmshare_version>
43012

> <i_f3d_flags>
0

> <s_epik_input>
W0NIM11uMVtjSF1jKFtjSF1uMSlbQ0BIXShbTkgyXSlbQ0gyXVtOSDJd

> <s_epik_cmdline>
J2VwaWtfcHl0aG9uJywgJy1waCcsICc3LjAnLCAnLXRuJywgJzgnLCAnLW1hJywgJzIwMCcsICctbWV0YWxfYmluZGluZycsICctaW1hZScsICc8aW5maWxlLm1hZT4nLCAnLW9tYWUnLCAnPG91dGZpbGUubWFlPic=

> <r_epik_Ionization_Penalty>
0.19937

> <r_epik_Ionization_Penalty_Charging>
0.0290541

> <r_epik_Ionization_Penalty_Neutral>
0.170316

> <r_epik_State_Penalty>
1.07715

> <r_epik_Charging_Adjusted_Penalty>
1.1062

> <i_epik_Tot_Q>
1

> <i_epik_Tot_abs_Q>
1

> <r_epik_Metal_State_Penalty>
1.07718

> <b_epik_Metal_Only>
0

> <s_lp_Force_Field>
OPLS_2005

> <r_lp_Energy>
0.880833

> <b_lp_Chiralities_Consistent>
1

> <s_lp_Variant>
AV-unprocessed.smi:3078-4

> <Gold.Version>
5.8.1

> <Gold.Id.Protein>
6NUR|6NUR_protein|mol2

> <Gold.PLP.Fitness>
38.7536

> <Gold.PLP.PLP>
-20.9637

> <Gold.PLP.part.hbond>
-4.5301

> <Gold.PLP.part.metal>
0.0000

> <Gold.PLP.part.buried>
-2.1726

> <Gold.PLP.part.nonpolar>
-16.0836

> <Gold.PLP.part.repulsive>
0.2857

> <Gold.PLP.ligand.clash>
0.0000

> <Gold.PLP.ligand.torsion>
0.2663

> <Gold.PLP.Chemscore.Hbond>
5.1030

> <Gold.PLP.Chemscore.CHOScore>
1.0000

> <Gold.PLP.Chemscore.Metal>
0.0000

> <Gold.Chemscore.Hbonds>
donor molecule, donor type, donor heavy atom, donor atom, acceptor molecule, acceptor atom, score
      L1  H     6    16       P1 10171  0.98
      L1  H     6    17       P1 10186  1.59
      L1  H     6    23       P1  7921  0.92
      L1  H     8    21       P1 10171  1.00
      P1  H 10785 10796       L1    10  0.55
      L1  C     9    22       P1 10186  1.00

> <Gold.PLP.Chemscore.Internal.Correction>
0.0135

> <Gold.Rescore>
     Score         DG    S(hbond)    S(metal)    S(lipo)     H(rot)  DE(clash)    DE(int)     intcor
     19.71     -20.03       3.88        0.00      44.26       1.40       0.04       0.28       ----

> <Gold.Chemscore.Fitness>
19.7073

> <Gold.Chemscore.DG>
-20.0272

> <Gold.Chemscore.ZeroCoef>
-5.4800

> <Gold.Chemscore.Hbond>
3.8817

> <Gold.Chemscore.Metal>
0.0000

> <Gold.Chemscore.Lipo>
44.2550

> <Gold.Chemscore.Internal_Hbond>
0.0000

> <Gold.Chemscore.DEClash>
0.0416

> <Gold.Chemscore.DEInternal>
0.2783

> <Gold.Chemscore.Rot>
1.4045

> <Gold.Chemscore.Internal.Correction>
   9.000000E+99

> <Gold.Chemscore.Hbonds>
donor molecule, donor type, donor heavy atom, donor atom, acceptor molecule, acceptor atom, score
      L1  H     6    16       P1 10171  0.88
      L1  H     6    17       P1 10186  0.43
      L1  H     6    23       P1  7921  0.84
      L1  H     8    21       P1 10171  0.92
      P1  H 10785 10796       L1    10  0.47

> <Gold.Chemscore.Hbond.Weighted>
-12.9649

> <Gold.Chemscore.Metal.Weighted>
-0.0000

> <Gold.Chemscore.Lipo.Weighted>
-5.1778

> <Gold.Chemscore.Internal_Hbond.Weighted>
0.0000

> <Gold.Chemscore.DEClash.Weighted>
0.0416

> <Gold.Chemscore.DEInternal.Weighted>
0.2783

> <Gold.Chemscore.Rot.Weighted>
3.5956

> <Gold.Chemscore.Internal.Correction.Weighted>
   9.000000E+99

> <Gold.Protein.RotatedTorsions>
[ 6907 6896 6895 6894 ] final   31.38 input  -60.11 | X-H torsion
[ 7974 7965 7964 7962 ] final  -92.08 input  175.53 | X-H torsion
[ 8008 7997 7996 7995 ] final  -86.75 input   59.86 | X-H torsion
[ 10167 10162 10161 10158 ] final   -1.52 input  -65.29 | X-H torsion
[ 10718 10713 10712 10709 ] final  -44.94 input   66.30 | X-H torsion
[ 10763 10752 10751 10750 ] final  144.64 input  -60.55 | X-H torsion
[ 11005 11000 10999 10996 ] final    9.10 input  -57.11 | X-H torsion

> <Gold.Protein.ActiveResidues>
 VAL166  LYS551  ARG553  GLY616  TRP617  ASP618  TYR619  PRO620  LYS621  CYS622 
 ASP623  PHE694  ASN695  SER759  ASP760  ASP761  ALA762  ILE779  LEU786  VAL792 
 PHE793  MET794  SER795  GLU796  ALA797  LYS798  CYS799  TRP800  GLU811  SER814 

> <Gold.Protein.RotatedAtoms>
  152.0594  134.9603  160.0574 H   0  0  0  0  0  0  0  0  0  0  0  0  # atno 6907 bound_to 6896
  152.0973  133.4226  159.4579 H   0  0  0  0  0  0  0  0  0  0  0  0  # atno 6908 bound_to 6896
  150.6838  134.2721  159.4636 H   0  0  0  0  0  0  0  0  0  0  0  0  # atno 6909 bound_to 6896
  145.4045  140.9540  143.2268 H   0  0  0  0  0  0  0  0  0  0  0  0  # atno 7974 bound_to 7965
  154.6554  140.0574  157.0003 H   0  0  0  0  0  0  0  0  0  0  0  0  # atno 8008 bound_to 7997
  155.1308  140.3256  155.4456 H   0  0  0  0  0  0  0  0  0  0  0  0  # atno 8009 bound_to 7997
  156.2595  140.1981  156.6427 H   0  0  0  0  0  0  0  0  0  0  0  0  # atno 8010 bound_to 7997
  140.6813  143.6765  150.8141 H   0  0  0  0  0  0  0  0  0  0  0  0  # atno 10167 bound_to 10162
  156.2334  130.4174  149.8847 H   0  0  0  0  0  0  0  0  0  0  0  0  # atno 10718 bound_to 10713
  153.9923  135.2931  155.3411 H   0  0  0  0  0  0  0  0  0  0  0  0  # atno 10763 bound_to 10752
  154.7207  135.5110  153.8811 H   0  0  0  0  0  0  0  0  0  0  0  0  # atno 10764 bound_to 10752
  153.0804  135.6677  154.0174 H   0  0  0  0  0  0  0  0  0  0  0  0  # atno 10765 bound_to 10752
  140.5295  134.0480  155.7869 H   0  0  0  0  0  0  0  0  0  0  0  0  # atno 11005 bound_to 11000
  144.8351  139.5564  143.6926 LP  0  0  0  0  0  0  0  0  0  0  0  0  # atno 17320 bound_to 7965
  146.2735  139.6694  142.9279 LP  0  0  0  0  0  0  0  0  0  0  0  0  # atno 17321 bound_to 7965
  140.0466  143.5292  152.2693 LP  0  0  0  0  0  0  0  0  0  0  0  0  # atno 17342 bound_to 10162
  139.6138  144.7615  151.2891 LP  0  0  0  0  0  0  0  0  0  0  0  0  # atno 17343 bound_to 10162
  156.6453  130.8721  151.3521 LP  0  0  0  0  0  0  0  0  0  0  0  0  # atno 17370 bound_to 10713
  157.7143  130.9478  150.1200 LP  0  0  0  0  0  0  0  0  0  0  0  0  # atno 17371 bound_to 10713
  141.1289  133.9336  157.2577 LP  0  0  0  0  0  0  0  0  0  0  0  0  # atno 17394 bound_to 11000
  139.9562  135.0165  156.9133 LP  0  0  0  0  0  0  0  0  0  0  0  0  # atno 17395 bound_to 11000

$$$$
