AV-unprocessed.smi:2355|AV-procd|sdf|9387|dock7
  -GOLD-   2272013 23D 1   1.00000     0.00000
 Structure written by MMmdl.
 48 49  0  0  0  0  0  0  0  0  1 V2000
  144.8961  132.0985  150.3111 C   0  0  0  0  0  0  0  0  0  0  0  0
  144.5802  133.2846  151.1979 C   0  0  0  0  0  0  0  0  0  0  0  0
  143.2659  133.5253  151.6421 C   0  0  0  0  0  0  0  0  0  0  0  0
  143.0367  134.6456  152.4644 C   0  0  0  0  0  0  0  0  0  0  0  0
  141.6469  134.9660  152.9731 C   0  0  0  0  0  0  0  0  0  0  0  0
  144.0160  135.4947  152.8425 N   0  0  0  0  0  0  0  0  0  0  0  0
  145.2857  135.2723  152.4215 C   0  0  0  0  0  0  0  0  0  0  0  0
  146.3851  136.1039  152.7626 N   0  0  0  0  0  0  0  0  0  0  0  0
  146.3896  137.1929  153.5511 C   0  0  0  0  0  0  0  0  0  0  0  0
  145.4075  137.6587  154.1303 O   0  0  0  0  0  0  0  0  0  0  0  0
  147.6188  137.7227  153.6372 N   0  0  0  0  0  0  0  0  0  0  0  0
  147.9780  138.9068  154.4166 C   0  0  2  0  0  0  0  0  0  0  0  0
  148.0174  140.1264  153.4790 C   0  0  0  0  0  0  0  0  0  0  0  0
  149.3036  138.6973  155.2199 C   0  0  1  0  0  0  0  0  0  0  0  0
  150.4719  138.3955  154.2448 C   0  0  0  0  0  0  0  0  0  0  0  0
  149.6110  139.7923  156.1706 N   0  0  0  0  0  0  0  0  0  0  0  0
  150.0780  141.0096  155.4973 C   0  0  0  0  0  0  0  0  0  0  0  0
  150.4174  142.1422  156.4815 C   0  0  0  0  0  0  0  0  0  0  0  0
  151.3970  141.6930  157.4077 O   0  0  0  0  0  0  0  0  0  0  0  0
  150.9583  140.5565  158.1388 C   0  0  0  0  0  0  0  0  0  0  0  0
  150.6182  139.4127  157.1680 C   0  0  0  0  0  0  0  0  0  0  0  0
  145.6019  134.1704  151.5953 C   0  0  0  0  0  0  0  0  0  0  0  0
  143.9897  131.5610  150.0307 H   0  0  0  0  0  0  0  0  0  0  0  0
  145.5580  131.4049  150.8300 H   0  0  0  0  0  0  0  0  0  0  0  0
  145.3909  132.4298  149.3979 H   0  0  0  0  0  0  0  0  0  0  0  0
  142.4550  132.8700  151.3592 H   0  0  0  0  0  0  0  0  0  0  0  0
  140.9814  134.1091  152.8645 H   0  0  0  0  0  0  0  0  0  0  0  0
  141.2247  135.8008  152.4132 H   0  0  0  0  0  0  0  0  0  0  0  0
  141.6772  135.2395  154.0284 H   0  0  0  0  0  0  0  0  0  0  0  0
  147.2703  135.8400  152.3564 H   0  0  0  0  0  0  0  0  0  0  0  0
  148.3660  137.2741  153.1280 H   0  0  0  0  0  0  0  0  0  0  0  0
  147.1470  139.0585  155.1043 H   0  0  0  0  0  0  0  0  0  0  0  0
  148.2334  141.0424  154.0289 H   0  0  0  0  0  0  0  0  0  0  0  0
  147.0569  140.2660  152.9818 H   0  0  0  0  0  0  0  0  0  0  0  0
  148.7743  140.0176  152.7021 H   0  0  0  0  0  0  0  0  0  0  0  0
  149.1641  137.7909  155.8112 H   0  0  0  0  0  0  0  0  0  0  0  0
  150.2065  137.6579  153.4883 H   0  0  0  0  0  0  0  0  0  0  0  0
  151.3340  137.9771  154.7626 H   0  0  0  0  0  0  0  0  0  0  0  0
  150.8002  139.2955  153.7247 H   0  0  0  0  0  0  0  0  0  0  0  0
  150.9556  140.7833  154.8899 H   0  0  0  0  0  0  0  0  0  0  0  0
  149.3148  141.3909  154.8210 H   0  0  0  0  0  0  0  0  0  0  0  0
  150.8069  143.0068  155.9440 H   0  0  0  0  0  0  0  0  0  0  0  0
  149.5242  142.4718  157.0146 H   0  0  0  0  0  0  0  0  0  0  0  0
  151.7476  140.2480  158.8243 H   0  0  0  0  0  0  0  0  0  0  0  0
  150.0906  140.8172  158.7469 H   0  0  0  0  0  0  0  0  0  0  0  0
  150.2675  138.5808  157.7748 H   0  0  0  0  0  0  0  0  0  0  0  0
  151.5282  139.0801  156.6665 H   0  0  0  0  0  0  0  0  0  0  0  0
  146.6181  134.0047  151.2669 H   0  0  0  0  0  0  0  0  0  0  0  0
  1  2  1  0  0  0  0
  1 23  1  0  0  0  0
  1 24  1  0  0  0  0
  1 25  1  0  0  0  0
  2 22  1  0  0  0  0
  2  3  2  0  0  0  0
  3  4  1  0  0  0  0
  3 26  1  0  0  0  0
  4  5  1  0  0  0  0
  4  6  2  0  0  0  0
  5 27  1  0  0  0  0
  5 28  1  0  0  0  0
  5 29  1  0  0  0  0
  6  7  1  0  0  0  0
  7  8  1  0  0  0  0
  7 22  2  0  0  0  0
  8  9  1  0  0  0  0
  8 30  1  0  0  0  0
  9 10  2  0  0  0  0
  9 11  1  0  0  0  0
 11 12  1  0  0  0  0
 11 31  1  0  0  0  0
 12 13  1  0  0  0  0
 12 14  1  0  0  0  0
 12 32  1  0  0  0  0
 13 33  1  0  0  0  0
 13 34  1  0  0  0  0
 13 35  1  0  0  0  0
 14 15  1  0  0  0  0
 14 16  1  0  0  0  0
 14 36  1  0  0  0  0
 15 37  1  0  0  0  0
 15 38  1  0  0  0  0
 15 39  1  0  0  0  0
 16 21  1  0  0  0  0
 16 17  1  0  0  0  0
 17 18  1  0  0  0  0
 17 40  1  0  0  0  0
 17 41  1  0  0  0  0
 18 19  1  0  0  0  0
 18 42  1  0  0  0  0
 18 43  1  0  0  0  0
 19 20  1  0  0  0  0
 20 21  1  0  0  0  0
 20 44  1  0  0  0  0
 20 45  1  0  0  0  0
 21 46  1  0  0  0  0
 21 47  1  0  0  0  0
 22 48  1  0  0  0  0
M  END
> <s_m_source_file>
AV-unprocessed.smi

> <i_m_source_file_index>
2355

> <i_lp_mmshare_version>
43012

> <i_f3d_flags>
0

> <s_epik_input>
W0NIM11jMVtjSF1jKFtDSDNdKW5jKFtjSF0xKVtOSF1DKD1PKVtOSF1bQ0BIXShbQ0gzXSlbQ0BIXShbQ0gzXSlOMltDSDJdW0NIMl1PW0NIMl1bQ0gyXTI=

> <s_epik_cmdline>
J2VwaWtfcHl0aG9uJywgJy1waCcsICc3LjAnLCAnLXRuJywgJzgnLCAnLW1hJywgJzIwMCcsICctbWV0YWxfYmluZGluZycsICctaW1hZScsICc8aW5maWxlLm1hZT4nLCAnLW9tYWUnLCAnPG91dGZpbGUubWFlPic=

> <r_epik_Ionization_Penalty>
0.266238

> <r_epik_Ionization_Penalty_Charging>
0

> <r_epik_Ionization_Penalty_Neutral>
0.266238

> <r_epik_State_Penalty>
0.257924

> <r_epik_Charging_Adjusted_Penalty>
0.257924

> <i_epik_Tot_Q>
0

> <i_epik_Tot_abs_Q>
0

> <r_epik_Metal_State_Penalty>
0.257904

> <b_epik_Metal_Only>
0

> <s_lp_Force_Field>
OPLS_2005

> <r_lp_Energy>
33.2304

> <b_lp_Chiralities_Consistent>
1

> <s_lp_Variant>
AV-unprocessed.smi:2355-3

> <Gold.Version>
5.8.1

> <Gold.Id.Protein>
6NUR|6NUR_protein|mol2

> <Gold.PLP.Fitness>
37.8887

> <Gold.PLP.PLP>
-32.6680

> <Gold.PLP.part.hbond>
-2.0000

> <Gold.PLP.part.metal>
0.0000

> <Gold.PLP.part.buried>
-3.3063

> <Gold.PLP.part.nonpolar>
-27.4045

> <Gold.PLP.part.repulsive>
0.2068

> <Gold.PLP.ligand.clash>
0.0000

> <Gold.PLP.ligand.torsion>
0.4342

> <Gold.PLP.Chemscore.Hbond>
2.0000

> <Gold.PLP.Chemscore.CHOScore>
0.0000

> <Gold.PLP.Chemscore.Metal>
0.0000

> <Gold.Chemscore.Hbonds>
donor molecule, donor type, donor heavy atom, donor atom, acceptor molecule, acceptor atom, score
      L1  H     8    30       P1  7948  1.00
      L1  H    11    31       P1  7948  1.00

> <Gold.PLP.Chemscore.Internal.Correction>
0.0891

> <Gold.Rescore>
     Score         DG    S(hbond)    S(metal)    S(lipo)     H(rot)  DE(clash)    DE(int)     intcor
     16.43     -18.38       1.94        0.00      85.47       1.40       0.02       1.93       ----

> <Gold.Chemscore.Fitness>
16.4284

> <Gold.Chemscore.DG>
-18.3774

> <Gold.Chemscore.ZeroCoef>
-5.4800

> <Gold.Chemscore.Hbond>
1.9415

> <Gold.Chemscore.Metal>
0.0000

> <Gold.Chemscore.Lipo>
85.4735

> <Gold.Chemscore.Internal_Hbond>
0.0000

> <Gold.Chemscore.DEClash>
0.0222

> <Gold.Chemscore.DEInternal>
1.9268

> <Gold.Chemscore.Rot>
1.4015

> <Gold.Chemscore.Internal.Correction>
   9.000000E+99

> <Gold.Chemscore.Hbonds>
donor molecule, donor type, donor heavy atom, donor atom, acceptor molecule, acceptor atom, score
      L1  H     8    30       P1  7948  0.96
      L1  H    11    31       P1  7948  0.97

> <Gold.Chemscore.Hbond.Weighted>
-6.4847

> <Gold.Chemscore.Metal.Weighted>
-0.0000

> <Gold.Chemscore.Lipo.Weighted>
-10.0004

> <Gold.Chemscore.Internal_Hbond.Weighted>
0.0000

> <Gold.Chemscore.DEClash.Weighted>
0.0222

> <Gold.Chemscore.DEInternal.Weighted>
1.9268

> <Gold.Chemscore.Rot.Weighted>
3.5878

> <Gold.Chemscore.Internal.Correction.Weighted>
   9.000000E+99

> <Gold.Protein.RotatedTorsions>
[ 6907 6896 6895 6894 ] final -119.74 input  -60.11 | X-H torsion
[ 7974 7965 7964 7962 ] final -101.35 input  175.53 | X-H torsion
[ 8008 7997 7996 7995 ] final  -96.36 input   59.86 | X-H torsion
[ 10167 10162 10161 10158 ] final   54.51 input  -65.29 | X-H torsion
[ 10718 10713 10712 10709 ] final -179.47 input   66.30 | X-H torsion
[ 10763 10752 10751 10750 ] final  167.42 input  -60.55 | X-H torsion
[ 11005 11000 10999 10996 ] final  -87.25 input  -57.11 | X-H torsion

> <Gold.Protein.ActiveResidues>
 VAL166  LYS551  ARG553  GLY616  TRP617  ASP618  TYR619  PRO620  LYS621  CYS622 
 ASP623  PHE694  ASN695  SER759  ASP760  ASP761  ALA762  ILE779  LEU786  VAL792 
 PHE793  MET794  SER795  GLU796  ALA797  LYS798  CYS799  TRP800  GLU811  SER814 

> <Gold.Protein.RotatedAtoms>
  150.8332  133.8057  159.3090 H   0  0  0  0  0  0  0  0  0  0  0  0  # atno 6907 bound_to 6896
  151.5781  135.1058  160.0020 H   0  0  0  0  0  0  0  0  0  0  0  0  # atno 6908 bound_to 6896
  152.4408  133.7403  159.6693 H   0  0  0  0  0  0  0  0  0  0  0  0  # atno 6909 bound_to 6896
  145.2827  140.9331  143.2922 H   0  0  0  0  0  0  0  0  0  0  0  0  # atno 7974 bound_to 7965
  154.7734  140.0472  157.1070 H   0  0  0  0  0  0  0  0  0  0  0  0  # atno 8008 bound_to 7997
  154.9792  140.3099  155.4934 H   0  0  0  0  0  0  0  0  0  0  0  0  # atno 8009 bound_to 7997
  156.2925  140.2239  156.4890 H   0  0  0  0  0  0  0  0  0  0  0  0  # atno 8010 bound_to 7997
  140.2294  144.3703  150.6420 H   0  0  0  0  0  0  0  0  0  0  0  0  # atno 10167 bound_to 10162
  156.8596  130.9747  151.3084 H   0  0  0  0  0  0  0  0  0  0  0  0  # atno 10718 bound_to 10713
  154.3536  135.2753  155.2358 H   0  0  0  0  0  0  0  0  0  0  0  0  # atno 10763 bound_to 10752
  154.4577  135.5915  153.6238 H   0  0  0  0  0  0  0  0  0  0  0  0  # atno 10764 bound_to 10752
  152.9848  135.6057  154.3749 H   0  0  0  0  0  0  0  0  0  0  0  0  # atno 10765 bound_to 10752
  141.1619  133.7500  156.9279 H   0  0  0  0  0  0  0  0  0  0  0  0  # atno 11005 bound_to 11000
  144.9239  139.4378  143.6528 LP  0  0  0  0  0  0  0  0  0  0  0  0  # atno 17320 bound_to 7965
  146.3211  139.8114  142.8945 LP  0  0  0  0  0  0  0  0  0  0  0  0  # atno 17321 bound_to 7965
  140.6196  143.2175  151.6720 LP  0  0  0  0  0  0  0  0  0  0  0  0  # atno 17342 bound_to 10162
  139.5115  144.3506  152.0656 LP  0  0  0  0  0  0  0  0  0  0  0  0  # atno 17343 bound_to 10162
  157.6258  130.8690  149.9186 LP  0  0  0  0  0  0  0  0  0  0  0  0  # atno 17370 bound_to 10713
  156.0784  130.3676  150.0631 LP  0  0  0  0  0  0  0  0  0  0  0  0  # atno 17371 bound_to 10713
  140.1407  134.9296  157.2462 LP  0  0  0  0  0  0  0  0  0  0  0  0  # atno 17394 bound_to 11000
  140.2841  134.3316  155.7334 LP  0  0  0  0  0  0  0  0  0  0  0  0  # atno 17395 bound_to 11000

$$$$
