AV-unprocessed.smi:479|AV-procd|sdf|2675|dock8
  -GOLD-   2262023 93D 1   1.00000     0.00000
 Structure written by MMmdl.
 46 48  0  0  0  0  0  0  0  0  2 V2000
  153.2897  138.1610  158.1749 C   0  0  0  0  0  0  0  0  0  0  0  0
  152.9472  139.3767  157.5255 O   0  0  0  0  0  0  0  0  0  0  0  0
  152.6392  140.4747  158.3031 C   0  0  0  0  0  0  0  0  0  0  0  0
  153.1886  140.7062  159.5903 C   0  0  0  0  0  0  0  0  0  0  0  0
  152.8314  141.8512  160.3396 C   0  0  0  0  0  0  0  0  0  0  0  0
  153.3977  142.1162  161.6936 C   0  0  0  0  0  0  0  0  0  0  0  0
  152.8330  143.2926  162.4886 C   0  0  0  0  0  0  0  0  0  0  0  0
  154.2902  141.4371  162.2001 O   0  0  0  0  0  0  0  0  0  0  0  0
  151.9103  142.7654  159.7861 C   0  0  0  0  0  0  0  0  0  0  0  0
  151.3618  142.5458  158.5104 C   0  0  0  0  0  0  0  0  0  0  0  0
  151.7246  141.4028  157.7577 C   0  0  0  0  0  0  0  0  0  0  0  0
  151.2325  141.1279  156.4988 O   0  0  0  0  0  0  0  0  0  0  0  0
  150.5459  142.1554  155.7969 C   0  0  0  0  0  0  0  0  0  0  0  0
  149.2261  141.5838  155.2589 C   0  0  1  0  0  0  0  0  0  0  0  0
  148.6207  142.5557  154.4295 O   0  0  0  0  0  0  0  0  0  0  0  0
  149.4363  140.2735  154.4741 C   0  0  0  0  0  0  0  0  0  0  0  0
  148.1738  139.6462  154.0594 N   0  0  0  0  0  0  0  0  0  0  0  0
  147.1338  140.1745  153.3595 C   0  0  0  0  0  0  0  0  0  0  0  0
  146.1878  139.2034  153.2316 N   0  3  0  0  0  0  0  0  0  0  0  0
  146.6300  138.0363  153.8578 C   0  0  0  0  0  0  0  0  0  0  0  0
  146.0241  136.7910  153.9949 C   0  0  0  0  0  0  0  0  0  0  0  0
  146.7520  135.8064  154.6952 C   0  0  0  0  0  0  0  0  0  0  0  0
  148.0302  136.0766  155.2259 C   0  0  0  0  0  0  0  0  0  0  0  0
  148.6344  137.3429  155.0815 C   0  0  0  0  0  0  0  0  0  0  0  0
  147.9074  138.3122  154.3904 C   0  0  0  0  0  0  0  0  0  0  0  0
  153.4868  137.3960  157.4241 H   0  0  0  0  0  0  0  0  0  0  0  0
  152.4754  137.8005  158.8049 H   0  0  0  0  0  0  0  0  0  0  0  0
  154.1928  138.2725  158.7764 H   0  0  0  0  0  0  0  0  0  0  0  0
  153.8899  140.0017  160.0081 H   0  0  0  0  0  0  0  0  0  0  0  0
  151.7637  143.1634  162.6558 H   0  0  0  0  0  0  0  0  0  0  0  0
  152.9958  144.2287  161.9543 H   0  0  0  0  0  0  0  0  0  0  0  0
  153.3225  143.3662  163.4601 H   0  0  0  0  0  0  0  0  0  0  0  0
  151.6134  143.6484  160.3336 H   0  0  0  0  0  0  0  0  0  0  0  0
  150.6609  143.2738  158.1317 H   0  0  0  0  0  0  0  0  0  0  0  0
  150.3430  142.9830  156.4788 H   0  0  0  0  0  0  0  0  0  0  0  0
  151.1490  142.5351  154.9703 H   0  0  0  0  0  0  0  0  0  0  0  0
  148.5500  141.4016  156.0953 H   0  0  0  0  0  0  0  0  0  0  0  0
  148.8016  143.4112  154.7883 H   0  0  0  0  0  0  0  0  0  0  0  0
  150.0672  140.4311  153.5992 H   0  0  0  0  0  0  0  0  0  0  0  0
  149.9596  139.5474  155.0974 H   0  0  0  0  0  0  0  0  0  0  0  0
  147.0700  141.1832  152.9773 H   0  0  0  0  0  0  0  0  0  0  0  0
  145.0460  136.5810  153.5878 H   0  0  0  0  0  0  0  0  0  0  0  0
  146.3223  134.8238  154.8266 H   0  0  0  0  0  0  0  0  0  0  0  0
  148.5593  135.2966  155.7541 H   0  0  0  0  0  0  0  0  0  0  0  0
  149.6161  137.5365  155.4873 H   0  0  0  0  0  0  0  0  0  0  0  0
  145.3056  139.3311  152.7524 H   0  0  0  0  0  0  0  0  0  0  0  0
  1  2  1  0  0  0  0
  1 26  1  0  0  0  0
  1 27  1  0  0  0  0
  1 28  1  0  0  0  0
  2  3  1  0  0  0  0
  3 11  1  0  0  0  0
  3  4  2  0  0  0  0
  4  5  1  0  0  0  0
  4 29  1  0  0  0  0
  5  6  1  0  0  0  0
  5  9  2  0  0  0  0
  6  7  1  0  0  0  0
  6  8  2  0  0  0  0
  7 30  1  0  0  0  0
  7 31  1  0  0  0  0
  7 32  1  0  0  0  0
  9 10  1  0  0  0  0
  9 33  1  0  0  0  0
 10 11  2  0  0  0  0
 10 34  1  0  0  0  0
 11 12  1  0  0  0  0
 12 13  1  0  0  0  0
 13 14  1  0  0  0  0
 13 35  1  0  0  0  0
 13 36  1  0  0  0  0
 14 15  1  0  0  0  0
 14 16  1  0  0  0  0
 14 37  1  0  0  0  0
 15 38  1  0  0  0  0
 16 17  1  0  0  0  0
 16 39  1  0  0  0  0
 16 40  1  0  0  0  0
 17 25  1  0  0  0  0
 17 18  1  0  0  0  0
 18 19  2  0  0  0  0
 18 41  1  0  0  0  0
 19 20  1  0  0  0  0
 19 46  1  0  0  0  0
 20 25  2  0  0  0  0
 20 21  1  0  0  0  0
 21 22  2  0  0  0  0
 21 42  1  0  0  0  0
 22 23  1  0  0  0  0
 22 43  1  0  0  0  0
 23 24  2  0  0  0  0
 23 44  1  0  0  0  0
 24 25  1  0  0  0  0
 24 45  1  0  0  0  0
M  CHG  1  19   1
M  END
> <s_m_source_file>
AV-unprocessed.smi

> <i_m_source_file_index>
479

> <i_lp_mmshare_version>
43012

> <i_f3d_flags>
0

> <s_epik_input>
W0NIM11PYzFbY0hdYyhDKD1PKVtDSDNdKVtjSF1bY0hdYzFPW0NIMl1bQ0BIXShbT0hdKVtDSDJdbihbY0hdbjIpYyhjMjMpW2NIXVtjSF1bY0hdW2NIXTM=

> <s_epik_cmdline>
J2VwaWtfcHl0aG9uJywgJy1waCcsICc3LjAnLCAnLXRuJywgJzgnLCAnLW1hJywgJzIwMCcsICctbWV0YWxfYmluZGluZycsICctaW1hZScsICc8aW5maWxlLm1hZT4nLCAnLW9tYWUnLCAnPG91dGZpbGUubWFlPic=

> <r_lp_tautomer_probability>
0.99995

> <r_epik_Ionization_Penalty>
1.37698

> <r_epik_Ionization_Penalty_Charging>
1.37698

> <r_epik_Ionization_Penalty_Neutral>
2.3993e-06

> <r_epik_State_Penalty>
1.45717

> <r_epik_Charging_Adjusted_Penalty>
2.83415

> <i_epik_Tot_Q>
1

> <i_epik_Tot_abs_Q>
1

> <r_epik_Metal_State_Penalty>
5.49703

> <b_epik_Metal_Only>
0

> <s_lp_Force_Field>
OPLS_2005

> <r_lp_Energy>
29.5876

> <b_lp_Chiralities_Consistent>
1

> <s_lp_Variant>
AV-unprocessed.smi:479-4

> <Gold.Version>
5.8.1

> <Gold.Id.Protein>
6NUR|6NUR_protein|mol2

> <Gold.PLP.Fitness>
52.1453

> <Gold.PLP.PLP>
-42.0331

> <Gold.PLP.part.hbond>
-4.8657

> <Gold.PLP.part.metal>
0.0000

> <Gold.PLP.part.buried>
-3.4822

> <Gold.PLP.part.nonpolar>
-33.1980

> <Gold.PLP.part.repulsive>
0.0305

> <Gold.PLP.ligand.clash>
0.0000

> <Gold.PLP.ligand.torsion>
0.9748

> <Gold.PLP.Chemscore.Hbond>
3.9720

> <Gold.PLP.Chemscore.CHOScore>
0.0000

> <Gold.PLP.Chemscore.Metal>
0.0000

> <Gold.Chemscore.Hbonds>
donor molecule, donor type, donor heavy atom, donor atom, acceptor molecule, acceptor atom, score
      L1  H    15    38       P1  8028  1.00
      L1  H    19    46       P1 10175  1.92
      P1  H  7997  8009       L1     2  0.95
      P1  H  8011  8017       L1    15  0.01

> <Gold.PLP.Chemscore.Internal.Correction>
0.1458

> <Gold.Rescore>
     Score         DG    S(hbond)    S(metal)    S(lipo)     H(rot)  DE(clash)    DE(int)     intcor
     13.86     -16.88       1.97        0.00     101.37       2.75       1.30       1.72       ----

> <Gold.Chemscore.Fitness>
13.8649

> <Gold.Chemscore.DG>
-16.8812

> <Gold.Chemscore.ZeroCoef>
-5.4800

> <Gold.Chemscore.Hbond>
1.9694

> <Gold.Chemscore.Metal>
0.0000

> <Gold.Chemscore.Lipo>
101.3690

> <Gold.Chemscore.Internal_Hbond>
0.0000

> <Gold.Chemscore.DEClash>
1.2966

> <Gold.Chemscore.DEInternal>
1.7197

> <Gold.Chemscore.Rot>
2.7487

> <Gold.Chemscore.Internal.Correction>
   9.000000E+99

> <Gold.Chemscore.Hbonds>
donor molecule, donor type, donor heavy atom, donor atom, acceptor molecule, acceptor atom, score
      L1  H    15    38       P1  8028  0.95
      L1  H    19    46       P1 10175  0.89
      P1  H  7997  8009       L1     2  0.18
      P1  H  8011  8017       L1    15  0.01

> <Gold.Chemscore.Hbond.Weighted>
-6.5778

> <Gold.Chemscore.Metal.Weighted>
-0.0000

> <Gold.Chemscore.Lipo.Weighted>
-11.8602

> <Gold.Chemscore.Internal_Hbond.Weighted>
0.0000

> <Gold.Chemscore.DEClash.Weighted>
1.2966

> <Gold.Chemscore.DEInternal.Weighted>
1.7197

> <Gold.Chemscore.Rot.Weighted>
7.0368

> <Gold.Chemscore.Internal.Correction.Weighted>
   9.000000E+99

> <Gold.Protein.RotatedTorsions>
[ 6907 6896 6895 6894 ] final   35.44 input  -60.11 | X-H torsion
[ 7974 7965 7964 7962 ] final  -23.55 input  175.53 | X-H torsion
[ 8008 7997 7996 7995 ] final -171.79 input   59.86 | X-H torsion
[ 10167 10162 10161 10158 ] final   12.70 input  -65.29 | X-H torsion
[ 10718 10713 10712 10709 ] final  -39.12 input   66.30 | X-H torsion
[ 10763 10752 10751 10750 ] final   91.62 input  -60.55 | X-H torsion
[ 11005 11000 10999 10996 ] final  -41.08 input  -57.11 | X-H torsion

> <Gold.Protein.ActiveResidues>
 VAL166  LYS551  ARG553  GLY616  TRP617  ASP618  TYR619  PRO620  LYS621  CYS622 
 ASP623  PHE694  ASN695  SER759  ASP760  ASP761  ALA762  ILE779  LEU786  VAL792 
 PHE793  MET794  SER795  GLU796  ALA797  LYS798  CYS799  TRP800  GLU811  SER814 

> <Gold.Protein.RotatedAtoms>
  152.1162  134.9238  160.0564 H   0  0  0  0  0  0  0  0  0  0  0  0  # atno 6907 bound_to 6896
  152.0397  133.3967  159.4340 H   0  0  0  0  0  0  0  0  0  0  0  0  # atno 6908 bound_to 6896
  150.6846  134.3349  159.4887 H   0  0  0  0  0  0  0  0  0  0  0  0  # atno 6909 bound_to 6896
  146.1609  140.4630  142.8571 H   0  0  0  0  0  0  0  0  0  0  0  0  # atno 7974 bound_to 7965
  155.9362  140.1100  157.1093 H   0  0  0  0  0  0  0  0  0  0  0  0  # atno 8008 bound_to 7997
  154.4080  140.1228  156.4933 H   0  0  0  0  0  0  0  0  0  0  0  0  # atno 8009 bound_to 7997
  155.7019  140.3472  155.4939 H   0  0  0  0  0  0  0  0  0  0  0  0  # atno 8010 bound_to 7997
  140.6051  143.8524  150.7005 H   0  0  0  0  0  0  0  0  0  0  0  0  # atno 10167 bound_to 10162
  156.2960  130.4234  149.8191 H   0  0  0  0  0  0  0  0  0  0  0  0  # atno 10718 bound_to 10713
  153.2103  135.4391  155.0371 H   0  0  0  0  0  0  0  0  0  0  0  0  # atno 10763 bound_to 10752
  154.8196  135.3331  154.7079 H   0  0  0  0  0  0  0  0  0  0  0  0  # atno 10764 bound_to 10752
  153.7518  135.6998  153.5000 H   0  0  0  0  0  0  0  0  0  0  0  0  # atno 10765 bound_to 10752
  141.0220  133.6858  156.2408 H   0  0  0  0  0  0  0  0  0  0  0  0  # atno 11005 bound_to 11000
  144.8026  140.6241  143.6468 LP  0  0  0  0  0  0  0  0  0  0  0  0  # atno 17320 bound_to 7965
  145.4589  139.1515  143.3877 LP  0  0  0  0  0  0  0  0  0  0  0  0  # atno 17321 bound_to 7965
  140.2080  143.3906  152.1741 LP  0  0  0  0  0  0  0  0  0  0  0  0  # atno 17342 bound_to 10162
  139.5319  144.7168  151.5026 LP  0  0  0  0  0  0  0  0  0  0  0  0  # atno 17343 bound_to 10162
  156.5586  130.8373  151.3322 LP  0  0  0  0  0  0  0  0  0  0  0  0  # atno 17370 bound_to 10713
  157.7355  130.9764  150.2087 LP  0  0  0  0  0  0  0  0  0  0  0  0  # atno 17371 bound_to 10713
  140.6556  134.5021  157.5580 LP  0  0  0  0  0  0  0  0  0  0  0  0  # atno 17394 bound_to 11000
  139.9152  134.8261  156.1390 LP  0  0  0  0  0  0  0  0  0  0  0  0  # atno 17395 bound_to 11000

$$$$
