AV-unprocessed.smi:2438|AV-procd|sdf|9599|dock8
  -GOLD-   2272013233D 1   1.00000     0.00000
 Structure written by MMmdl.
 44 45  0  0  0  0  0  0  0  0  2 V2000
  149.7457  136.7126  159.8694 C   0  0  0  0  0  0  0  0  0  0  0  0
  149.0264  137.4138  158.8130 N   0  0  0  0  0  0  0  0  0  0  0  0
  147.5746  137.2933  158.8355 C   0  0  0  0  0  0  0  0  0  0  0  0
  149.5851  137.3564  157.5202 C   0  0  0  0  0  0  0  0  0  0  0  0
  148.8864  136.7199  156.5521 N   0  0  0  0  0  0  0  0  0  0  0  0
  149.3747  136.6614  155.3088 C   0  0  0  0  0  0  0  0  0  0  0  0
  150.5485  137.2050  154.9615 N   0  3  0  0  0  0  0  0  0  0  0  0
  151.2892  137.8499  155.8935 C   0  0  0  0  0  0  0  0  0  0  0  0
  150.8304  137.9628  157.2271 C   0  0  0  0  0  0  0  0  0  0  0  0
  151.5806  138.5929  158.2596 N   0  0  0  0  0  0  0  0  0  0  0  0
  152.4289  139.6280  158.1511 C   0  0  0  0  0  0  0  0  0  0  0  0
  152.7495  140.1738  157.0957 O   0  0  0  0  0  0  0  0  0  0  0  0
  152.8729  140.0173  159.3541 N   0  0  0  0  0  0  0  0  0  0  0  0
  153.7607  141.1520  159.6044 C   0  0  2  0  0  0  0  0  0  0  0  0
  154.0451  141.2831  161.1129 C   0  0  0  0  0  0  0  0  0  0  0  0
  152.8103  141.7607  161.8965 C   0  0  0  0  0  0  0  0  0  0  0  0
  152.2487  143.0692  161.3177 C   0  0  0  0  0  0  0  0  0  0  0  0
  151.9198  142.9339  159.8159 C   0  0  1  0  0  0  0  0  0  0  0  0
  151.3327  144.2337  159.2295 C   0  0  0  0  0  0  0  0  0  0  0  0
  150.0896  144.4339  159.6681 F   0  0  0  0  0  0  0  0  0  0  0  0
  152.0879  145.2741  159.5818 F   0  0  0  0  0  0  0  0  0  0  0  0
  151.3152  144.1656  157.8984 F   0  0  0  0  0  0  0  0  0  0  0  0
  153.1726  142.4652  159.0419 C   0  0  0  0  0  0  0  0  0  0  0  0
  150.8137  136.9283  159.8232 H   0  0  0  0  0  0  0  0  0  0  0  0
  149.6041  135.6342  159.7891 H   0  0  0  0  0  0  0  0  0  0  0  0
  149.3826  137.0303  160.8471 H   0  0  0  0  0  0  0  0  0  0  0  0
  147.1021  137.8322  158.0141 H   0  0  0  0  0  0  0  0  0  0  0  0
  147.1791  137.6943  159.7692 H   0  0  0  0  0  0  0  0  0  0  0  0
  147.2807  136.2455  158.7642 H   0  0  0  0  0  0  0  0  0  0  0  0
  148.8235  136.1549  154.5302 H   0  0  0  0  0  0  0  0  0  0  0  0
  152.2305  138.2337  155.5304 H   0  0  0  0  0  0  0  0  0  0  0  0
  151.3601  138.2939  159.1989 H   0  0  0  0  0  0  0  0  0  0  0  0
  152.5565  139.5060  160.1651 H   0  0  0  0  0  0  0  0  0  0  0  0
  154.7091  140.9519  159.1023 H   0  0  0  0  0  0  0  0  0  0  0  0
  154.4006  140.3339  161.5156 H   0  0  0  0  0  0  0  0  0  0  0  0
  154.8564  141.9969  161.2617 H   0  0  0  0  0  0  0  0  0  0  0  0
  152.0382  140.9908  161.8755 H   0  0  0  0  0  0  0  0  0  0  0  0
  153.0714  141.9028  162.9455 H   0  0  0  0  0  0  0  0  0  0  0  0
  151.3554  143.3548  161.8736 H   0  0  0  0  0  0  0  0  0  0  0  0
  152.9727  143.8713  161.4663 H   0  0  0  0  0  0  0  0  0  0  0  0
  151.1536  142.1639  159.7131 H   0  0  0  0  0  0  0  0  0  0  0  0
  153.9364  143.2422  159.0919 H   0  0  0  0  0  0  0  0  0  0  0  0
  152.9393  142.3477  157.9833 H   0  0  0  0  0  0  0  0  0  0  0  0
  150.8943  137.1331  154.0043 H   0  0  0  0  0  0  0  0  0  0  0  0
  1  2  1  0  0  0  0
  1 24  1  0  0  0  0
  1 25  1  0  0  0  0
  1 26  1  0  0  0  0
  2  3  1  0  0  0  0
  2  4  1  0  0  0  0
  3 27  1  0  0  0  0
  3 28  1  0  0  0  0
  3 29  1  0  0  0  0
  4  9  1  0  0  0  0
  4  5  2  0  0  0  0
  5  6  1  0  0  0  0
  6  7  2  0  0  0  0
  6 30  1  0  0  0  0
  7  8  1  0  0  0  0
  7 44  1  0  0  0  0
  8  9  2  0  0  0  0
  8 31  1  0  0  0  0
  9 10  1  0  0  0  0
 10 11  1  0  0  0  0
 10 32  1  0  0  0  0
 11 12  2  0  0  0  0
 11 13  1  0  0  0  0
 13 14  1  0  0  0  0
 13 33  1  0  0  0  0
 14 23  1  0  0  0  0
 14 15  1  0  0  0  0
 14 34  1  0  0  0  0
 15 16  1  0  0  0  0
 15 35  1  0  0  0  0
 15 36  1  0  0  0  0
 16 17  1  0  0  0  0
 16 37  1  0  0  0  0
 16 38  1  0  0  0  0
 17 18  1  0  0  0  0
 17 39  1  0  0  0  0
 17 40  1  0  0  0  0
 18 19  1  0  0  0  0
 18 23  1  0  0  0  0
 18 41  1  0  0  0  0
 19 20  1  0  0  0  0
 19 21  1  0  0  0  0
 19 22  1  0  0  0  0
 23 42  1  0  0  0  0
 23 43  1  0  0  0  0
M  CHG  1   7   1
M  END
> <s_m_source_file>
AV-unprocessed.smi

> <i_m_source_file_index>
2438

> <i_lp_mmshare_version>
43012

> <i_f3d_flags>
0

> <s_epik_input>
W0NIM11OKFtDSDNdKWMxbltjSF1uW2NIXWMxW05IXUMoPU8pW05IXVtDQEBIXTJbQ0gyXVtDSDJdW0NIMl1bQ0BASF0oQyhGKShGKUYpW0NIMl0y

> <s_epik_cmdline>
J2VwaWtfcHl0aG9uJywgJy1waCcsICc3LjAnLCAnLXRuJywgJzgnLCAnLW1hJywgJzIwMCcsICctbWV0YWxfYmluZGluZycsICctaW1hZScsICc8aW5maWxlLm1hZT4nLCAnLW9tYWUnLCAnPG91dGZpbGUubWFlPic=

> <r_lp_tautomer_probability>
0.999336

> <r_epik_Ionization_Penalty>
2.11643

> <r_epik_Ionization_Penalty_Charging>
2.11639

> <r_epik_Ionization_Penalty_Neutral>
4.47523e-05

> <r_epik_State_Penalty>
2.25369

> <r_epik_Charging_Adjusted_Penalty>
4.37008

> <i_epik_Tot_Q>
1

> <i_epik_Tot_abs_Q>
1

> <r_epik_Metal_State_Penalty>
2.27019

> <b_epik_Metal_Only>
0

> <s_lp_Force_Field>
OPLS_2005

> <r_lp_Energy>
15.0376

> <b_lp_Chiralities_Consistent>
1

> <s_lp_Variant>
AV-unprocessed.smi:2438-5

> <Gold.Version>
5.8.1

> <Gold.Id.Protein>
6NUR|6NUR_protein|mol2

> <Gold.PLP.Fitness>
41.0633

> <Gold.PLP.PLP>
-36.4257

> <Gold.PLP.part.hbond>
-1.0000

> <Gold.PLP.part.metal>
0.0000

> <Gold.PLP.part.buried>
-2.3330

> <Gold.PLP.part.nonpolar>
-32.6922

> <Gold.PLP.part.repulsive>
0.2439

> <Gold.PLP.ligand.clash>
0.0000

> <Gold.PLP.ligand.torsion>
0.8793

> <Gold.PLP.Chemscore.Hbond>
1.0000

> <Gold.PLP.Chemscore.CHOScore>
0.9999

> <Gold.PLP.Chemscore.Metal>
0.0000

> <Gold.Chemscore.Hbonds>
donor molecule, donor type, donor heavy atom, donor atom, acceptor molecule, acceptor atom, score
      P1  H  7997  8008       L1    12  1.00
      L1  C     6    30       P1  7948  0.68

> <Gold.PLP.Chemscore.Internal.Correction>
0.3965

> <Gold.Rescore>
     Score         DG    S(hbond)    S(metal)    S(lipo)     H(rot)  DE(clash)    DE(int)     intcor
     13.99     -15.68       0.98        0.00      87.86       1.31       0.04       1.66       ----

> <Gold.Chemscore.Fitness>
13.9852

> <Gold.Chemscore.DG>
-15.6778

> <Gold.Chemscore.ZeroCoef>
-5.4800

> <Gold.Chemscore.Hbond>
0.9780

> <Gold.Chemscore.Metal>
0.0000

> <Gold.Chemscore.Lipo>
87.8582

> <Gold.Chemscore.Internal_Hbond>
0.0000

> <Gold.Chemscore.DEClash>
0.0360

> <Gold.Chemscore.DEInternal>
1.6566

> <Gold.Chemscore.Rot>
1.3078

> <Gold.Chemscore.Internal.Correction>
   9.000000E+99

> <Gold.Chemscore.Hbonds>
donor molecule, donor type, donor heavy atom, donor atom, acceptor molecule, acceptor atom, score
      P1  H  7997  8008       L1    12  0.93

> <Gold.Chemscore.Hbond.Weighted>
-3.2664

> <Gold.Chemscore.Metal.Weighted>
-0.0000

> <Gold.Chemscore.Lipo.Weighted>
-10.2794

> <Gold.Chemscore.Internal_Hbond.Weighted>
0.0000

> <Gold.Chemscore.DEClash.Weighted>
0.0360

> <Gold.Chemscore.DEInternal.Weighted>
1.6566

> <Gold.Chemscore.Rot.Weighted>
3.3481

> <Gold.Chemscore.Internal.Correction.Weighted>
   9.000000E+99

> <Gold.Protein.RotatedTorsions>
[ 6907 6896 6895 6894 ] final -167.46 input  -60.11 | X-H torsion
[ 7974 7965 7964 7962 ] final   22.92 input  175.53 | X-H torsion
[ 8008 7997 7996 7995 ] final  -50.72 input   59.86 | X-H torsion
[ 10167 10162 10161 10158 ] final  -11.11 input  -65.29 | X-H torsion
[ 10718 10713 10712 10709 ] final -175.76 input   66.30 | X-H torsion
[ 10763 10752 10751 10750 ] final  139.81 input  -60.55 | X-H torsion
[ 11005 11000 10999 10996 ] final   -0.02 input  -57.11 | X-H torsion

> <Gold.Protein.ActiveResidues>
 VAL166  LYS551  ARG553  GLY616  TRP617  ASP618  TYR619  PRO620  LYS621  CYS622 
 ASP623  PHE694  ASN695  SER759  ASP760  ASP761  ALA762  ILE779  LEU786  VAL792 
 PHE793  MET794  SER795  GLU796  ALA797  LYS798  CYS799  TRP800  GLU811  SER814 

> <Gold.Protein.RotatedAtoms>
  151.4598  133.3595  159.2807 H   0  0  0  0  0  0  0  0  0  0  0  0  # atno 6907 bound_to 6896
  150.9033  134.8448  159.7386 H   0  0  0  0  0  0  0  0  0  0  0  0  # atno 6908 bound_to 6896
  152.4892  134.4521  159.9630 H   0  0  0  0  0  0  0  0  0  0  0  0  # atno 6909 bound_to 6896
  146.2007  139.7817  142.8763 H   0  0  0  0  0  0  0  0  0  0  0  0  # atno 7974 bound_to 7965
  154.4068  140.1265  156.4713 H   0  0  0  0  0  0  0  0  0  0  0  0  # atno 8008 bound_to 7997
  155.7177  140.3493  155.4982 H   0  0  0  0  0  0  0  0  0  0  0  0  # atno 8009 bound_to 7997
  155.9243  140.1058  157.1172 H   0  0  0  0  0  0  0  0  0  0  0  0  # atno 8010 bound_to 7997
  140.7130  143.5675  150.9129 H   0  0  0  0  0  0  0  0  0  0  0  0  # atno 10167 bound_to 10162
  156.8047  130.9565  151.3117 H   0  0  0  0  0  0  0  0  0  0  0  0  # atno 10718 bound_to 10713
  153.9123  135.3010  155.3448 H   0  0  0  0  0  0  0  0  0  0  0  0  # atno 10763 bound_to 10752
  154.7617  135.4931  153.9480 H   0  0  0  0  0  0  0  0  0  0  0  0  # atno 10764 bound_to 10752
  153.1186  135.6777  153.9476 H   0  0  0  0  0  0  0  0  0  0  0  0  # atno 10765 bound_to 10752
  140.6317  133.9569  155.8278 H   0  0  0  0  0  0  0  0  0  0  0  0  # atno 11005 bound_to 11000
  145.3492  141.0304  143.3348 LP  0  0  0  0  0  0  0  0  0  0  0  0  # atno 17320 bound_to 7965
  144.8678  139.5083  143.6782 LP  0  0  0  0  0  0  0  0  0  0  0  0  # atno 17321 bound_to 7965
  139.9400  143.6392  152.3056 LP  0  0  0  0  0  0  0  0  0  0  0  0  # atno 17342 bound_to 10162
  139.6874  144.7650  151.1499 LP  0  0  0  0  0  0  0  0  0  0  0  0  # atno 17343 bound_to 10162
  157.6536  130.8905  149.9683 LP  0  0  0  0  0  0  0  0  0  0  0  0  # atno 17370 bound_to 10713
  156.1080  130.3651  150.0099 LP  0  0  0  0  0  0  0  0  0  0  0  0  # atno 17371 bound_to 10713
  141.0671  134.0261  157.3579 LP  0  0  0  0  0  0  0  0  0  0  0  0  # atno 17394 bound_to 11000
  139.9113  135.0190  156.7705 LP  0  0  0  0  0  0  0  0  0  0  0  0  # atno 17395 bound_to 11000

$$$$
