AV-unprocessed.smi:2044|AV-procd|sdf|8303|dock9
  -GOLD-   2272010573D 1   1.00000     0.00000
 Structure written by MMmdl.
 38 39  0  0  0  0  0  0  0  0  2 V2000
  146.1509  132.5901  162.1357 C   0  0  0  0  0  0  0  0  0  0  0  0
  146.8400  133.9057  162.0106 C   0  0  0  0  0  0  0  0  0  0  0  0
  147.1108  134.7137  160.9430 C   0  0  0  0  0  0  0  0  0  0  0  0
  147.7975  135.8109  161.5317 C   0  0  0  0  0  0  0  0  0  0  0  0
  148.2638  136.8896  160.8838 N   0  5  0  0  0  0  0  0  0  0  0  0
  148.9086  136.7499  159.7026 C   0  0  0  0  0  0  0  0  0  0  0  0
  149.1322  135.6904  159.1121 O   0  0  0  0  0  0  0  0  0  0  0  0
  149.3144  137.9112  159.1692 N   0  0  0  0  0  0  0  0  0  0  0  0
  150.0091  138.0722  157.8938 C   0  0  0  0  0  0  0  0  0  0  0  0
  150.2460  139.5597  157.4993 C   0  0  1  0  0  0  0  0  0  0  0  0
  148.8720  140.2535  157.3151 C   0  0  0  0  0  0  0  0  0  0  0  0
  151.1302  140.2847  158.4420 N   0  0  0  0  0  0  0  0  0  0  0  0
  151.2580  141.7078  158.1071 C   0  0  0  0  0  0  0  0  0  0  0  0
  152.1956  142.4659  159.0624 C   0  0  0  0  0  0  0  0  0  0  0  0
  153.4763  141.8508  159.0647 O   0  0  0  0  0  0  0  0  0  0  0  0
  153.4109  140.4872  159.4585 C   0  0  0  0  0  0  0  0  0  0  0  0
  152.4804  139.7136  158.5077 C   0  0  0  0  0  0  0  0  0  0  0  0
  147.9183  135.6869  162.8428 N   0  0  0  0  0  0  0  0  0  0  0  0
  147.3121  134.4648  163.1571 O   0  0  0  0  0  0  0  0  0  0  0  0
  145.0833  132.6953  161.9433 H   0  0  0  0  0  0  0  0  0  0  0  0
  146.2752  132.1750  163.1362 H   0  0  0  0  0  0  0  0  0  0  0  0
  146.5547  131.8731  161.4207 H   0  0  0  0  0  0  0  0  0  0  0  0
  146.8619  134.5468  159.9060 H   0  0  0  0  0  0  0  0  0  0  0  0
  149.1134  138.7535  159.6877 H   0  0  0  0  0  0  0  0  0  0  0  0
  150.9640  137.5503  157.9621 H   0  0  0  0  0  0  0  0  0  0  0  0
  149.4198  137.5390  157.1490 H   0  0  0  0  0  0  0  0  0  0  0  0
  150.7324  139.5584  156.5228 H   0  0  0  0  0  0  0  0  0  0  0  0
  148.2073  139.6929  156.6590 H   0  0  0  0  0  0  0  0  0  0  0  0
  148.9621  141.2345  156.8514 H   0  0  0  0  0  0  0  0  0  0  0  0
  148.3614  140.3757  158.2706 H   0  0  0  0  0  0  0  0  0  0  0  0
  151.6210  141.8154  157.0838 H   0  0  0  0  0  0  0  0  0  0  0  0
  150.2895  142.2022  158.1530 H   0  0  0  0  0  0  0  0  0  0  0  0
  152.3003  143.5034  158.7451 H   0  0  0  0  0  0  0  0  0  0  0  0
  151.7871  142.4805  160.0741 H   0  0  0  0  0  0  0  0  0  0  0  0
  154.4141  140.0619  159.4349 H   0  0  0  0  0  0  0  0  0  0  0  0
  153.0569  140.4146  160.4881 H   0  0  0  0  0  0  0  0  0  0  0  0
  152.4478  138.6875  158.8679 H   0  0  0  0  0  0  0  0  0  0  0  0
  152.9207  139.6875  157.5097 H   0  0  0  0  0  0  0  0  0  0  0  0
  1  2  1  0  0  0  0
  1 20  1  0  0  0  0
  1 21  1  0  0  0  0
  1 22  1  0  0  0  0
  2 19  1  0  0  0  0
  2  3  2  0  0  0  0
  3  4  1  0  0  0  0
  3 23  1  0  0  0  0
  4  5  1  0  0  0  0
  4 18  2  0  0  0  0
  5  6  1  0  0  0  0
  6  7  2  0  0  0  0
  6  8  1  0  0  0  0
  8  9  1  0  0  0  0
  8 24  1  0  0  0  0
  9 10  1  0  0  0  0
  9 25  1  0  0  0  0
  9 26  1  0  0  0  0
 10 11  1  0  0  0  0
 10 12  1  0  0  0  0
 10 27  1  0  0  0  0
 11 28  1  0  0  0  0
 11 29  1  0  0  0  0
 11 30  1  0  0  0  0
 12 17  1  0  0  0  0
 12 13  1  0  0  0  0
 13 14  1  0  0  0  0
 13 31  1  0  0  0  0
 13 32  1  0  0  0  0
 14 15  1  0  0  0  0
 14 33  1  0  0  0  0
 14 34  1  0  0  0  0
 15 16  1  0  0  0  0
 16 17  1  0  0  0  0
 16 35  1  0  0  0  0
 16 36  1  0  0  0  0
 17 37  1  0  0  0  0
 17 38  1  0  0  0  0
 18 19  1  0  0  0  0
M  CHG  1   5  -1
M  END
> <s_m_source_file>
AV-unprocessed.smi

> <i_m_source_file_index>
2044

> <i_lp_mmshare_version>
43012

> <i_f3d_flags>
0

> <s_epik_input>
W0NIM11jMVtjSF1jKG5vMSlbTkhdQyg9TylbTkhdW0NIMl1bQ0BIXShbQ0gzXSlOMltDSDJdW0NIMl1PW0NIMl1bQ0gyXTI=

> <s_epik_cmdline>
J2VwaWtfcHl0aG9uJywgJy1waCcsICc3LjAnLCAnLXRuJywgJzgnLCAnLW1hJywgJzIwMCcsICctbWV0YWxfYmluZGluZycsICctaW1hZScsICc8aW5maWxlLm1hZT4nLCAnLW9tYWUnLCAnPG91dGZpbGUubWFlPic=

> <r_epik_Ionization_Penalty>
6.88367

> <r_epik_Ionization_Penalty_Charging>
6.57198

> <r_epik_Ionization_Penalty_Neutral>
0.311681

> <r_epik_State_Penalty>
6.77619

> <r_epik_Charging_Adjusted_Penalty>
13.3482

> <i_epik_Tot_Q>
-1

> <i_epik_Tot_abs_Q>
1

> <r_epik_Metal_State_Penalty>
2.70533

> <b_epik_Metal_Only>
1

> <s_lp_Force_Field>
OPLS_2005

> <r_lp_Energy>
21.654

> <b_lp_Chiralities_Consistent>
1

> <s_lp_Variant>
AV-unprocessed.smi:2044-6

> <Gold.Version>
5.8.1

> <Gold.Id.Protein>
6NUR|6NUR_protein|mol2

> <Gold.PLP.Fitness>
39.9932

> <Gold.PLP.PLP>
-28.4904

> <Gold.PLP.part.hbond>
-3.5937

> <Gold.PLP.part.metal>
0.0000

> <Gold.PLP.part.buried>
-6.9129

> <Gold.PLP.part.nonpolar>
-19.9876

> <Gold.PLP.part.repulsive>
0.8387

> <Gold.PLP.ligand.clash>
0.0000

> <Gold.PLP.ligand.torsion>
0.3914

> <Gold.PLP.Chemscore.Hbond>
4.0790

> <Gold.PLP.Chemscore.CHOScore>
0.0000

> <Gold.PLP.Chemscore.Metal>
0.0000

> <Gold.Chemscore.Hbonds>
donor molecule, donor type, donor heavy atom, donor atom, acceptor molecule, acceptor atom, score
      P1  H  6896  6907       L1     7  1.00
      P1  H  6931  6943       L1     5  2.00
      P1  H  6934  6947       L1     5  0.16

> <Gold.PLP.Chemscore.Internal.Correction>
0.0485

> <Gold.Rescore>
     Score         DG    S(hbond)    S(metal)    S(lipo)     H(rot)  DE(clash)    DE(int)     intcor
     13.27     -14.95       1.87        0.00      61.36       1.55       0.03       1.65       ----

> <Gold.Chemscore.Fitness>
13.2738

> <Gold.Chemscore.DG>
-14.9541

> <Gold.Chemscore.ZeroCoef>
-5.4800

> <Gold.Chemscore.Hbond>
1.8729

> <Gold.Chemscore.Metal>
0.0000

> <Gold.Chemscore.Lipo>
61.3582

> <Gold.Chemscore.Internal_Hbond>
0.0000

> <Gold.Chemscore.DEClash>
0.0272

> <Gold.Chemscore.DEInternal>
1.6531

> <Gold.Chemscore.Rot>
1.5470

> <Gold.Chemscore.Internal.Correction>
   9.000000E+99

> <Gold.Chemscore.Hbonds>
donor molecule, donor type, donor heavy atom, donor atom, acceptor molecule, acceptor atom, score
      P1  H  6896  6907       L1     7  0.96
      P1  H  6931  6943       L1     5  0.69
      P1  H  6934  6947       L1     5  0.07

> <Gold.Chemscore.Hbond.Weighted>
-6.2555

> <Gold.Chemscore.Metal.Weighted>
-0.0000

> <Gold.Chemscore.Lipo.Weighted>
-7.1789

> <Gold.Chemscore.Internal_Hbond.Weighted>
0.0000

> <Gold.Chemscore.DEClash.Weighted>
0.0272

> <Gold.Chemscore.DEInternal.Weighted>
1.6531

> <Gold.Chemscore.Rot.Weighted>
3.9603

> <Gold.Chemscore.Internal.Correction.Weighted>
   9.000000E+99

> <Gold.Protein.RotatedTorsions>
[ 6907 6896 6895 6894 ] final  -63.99 input  -60.11 | X-H torsion
[ 7974 7965 7964 7962 ] final -126.36 input  175.53 | X-H torsion
[ 8008 7997 7996 7995 ] final -168.77 input   59.86 | X-H torsion
[ 10167 10162 10161 10158 ] final   -1.07 input  -65.29 | X-H torsion
[ 10718 10713 10712 10709 ] final  164.08 input   66.30 | X-H torsion
[ 10763 10752 10751 10750 ] final  -46.72 input  -60.55 | X-H torsion
[ 11005 11000 10999 10996 ] final -126.52 input  -57.11 | X-H torsion

> <Gold.Protein.ActiveResidues>
 VAL166  LYS551  ARG553  GLY616  TRP617  ASP618  TYR619  PRO620  LYS621  CYS622 
 ASP623  PHE694  ASN695  SER759  ASP760  ASP761  ALA762  ILE779  LEU786  VAL792 
 PHE793  MET794  SER795  GLU796  ALA797  LYS798  CYS799  TRP800  GLU811  SER814 

> <Gold.Protein.RotatedAtoms>
  150.7614  134.6359  159.6210 H   0  0  0  0  0  0  0  0  0  0  0  0  # atno 6907 bound_to 6896
  152.3623  134.6852  160.0212 H   0  0  0  0  0  0  0  0  0  0  0  0  # atno 6908 bound_to 6896
  151.7238  133.3279  159.3358 H   0  0  0  0  0  0  0  0  0  0  0  0  # atno 6909 bound_to 6896
  144.9880  140.7705  143.4571 H   0  0  0  0  0  0  0  0  0  0  0  0  # atno 7974 bound_to 7965
  155.8960  140.1033  157.1385 H   0  0  0  0  0  0  0  0  0  0  0  0  # atno 8008 bound_to 7997
  154.4020  140.1302  156.4439 H   0  0  0  0  0  0  0  0  0  0  0  0  # atno 8009 bound_to 7997
  155.7479  140.3465  155.5138 H   0  0  0  0  0  0  0  0  0  0  0  0  # atno 8010 bound_to 7997
  140.6794  143.6819  150.8099 H   0  0  0  0  0  0  0  0  0  0  0  0  # atno 10167 bound_to 10162
  157.0993  131.0439  151.2504 H   0  0  0  0  0  0  0  0  0  0  0  0  # atno 10718 bound_to 10713
  154.0497  135.6633  153.4799 H   0  0  0  0  0  0  0  0  0  0  0  0  # atno 10763 bound_to 10752
  153.0469  135.5109  154.7763 H   0  0  0  0  0  0  0  0  0  0  0  0  # atno 10764 bound_to 10752
  154.6765  135.3038  154.9637 H   0  0  0  0  0  0  0  0  0  0  0  0  # atno 10765 bound_to 10752
  140.9675  134.0852  157.3905 H   0  0  0  0  0  0  0  0  0  0  0  0  # atno 11005 bound_to 11000
  145.2325  139.2108  143.5035 LP  0  0  0  0  0  0  0  0  0  0  0  0  # atno 17320 bound_to 7965
  146.3424  140.2205  142.8591 LP  0  0  0  0  0  0  0  0  0  0  0  0  # atno 17321 bound_to 7965
  140.0517  143.5243  152.2670 LP  0  0  0  0  0  0  0  0  0  0  0  0  # atno 17342 bound_to 10162
  139.6107  144.7608  151.2958 LP  0  0  0  0  0  0  0  0  0  0  0  0  # atno 17343 bound_to 10162
  157.4654  130.7677  149.7274 LP  0  0  0  0  0  0  0  0  0  0  0  0  # atno 17370 bound_to 10713
  155.9877  130.3964  150.3150 LP  0  0  0  0  0  0  0  0  0  0  0  0  # atno 17371 bound_to 10713
  139.8900  135.0109  156.6710 LP  0  0  0  0  0  0  0  0  0  0  0  0  # atno 17394 bound_to 11000
  140.7378  133.9004  155.8256 LP  0  0  0  0  0  0  0  0  0  0  0  0  # atno 17395 bound_to 11000

$$$$
