AV-unprocessed.smi:3181|AV-procd|sdf|12136|dock4
  -GOLD-   2272017573D 1   1.00000     0.00000
 Structure written by MMmdl.
 42 43  0  0  0  0  0  0  0  0  2 V2000
  151.6829  138.6498  158.7481 C   0  0  0  0  0  0  0  0  0  0  0  0
  152.3042  139.6031  157.7141 C   0  0  1  0  0  0  0  0  0  0  0  0
  152.6976  138.8776  156.4089 C   0  0  0  0  0  0  0  0  0  0  0  0
  151.5733  138.6775  155.5137 N   0  0  0  0  0  0  0  0  0  0  0  0
  150.8483  137.5872  155.2577 C   0  0  0  0  0  0  0  0  0  0  0  0
  149.8789  137.7852  154.3758 N   0  0  0  0  0  0  0  0  0  0  0  0
  150.0720  139.1128  154.1167 C   0  0  0  0  0  0  0  0  0  0  0  0
  151.0737  139.6962  154.7757 N   0  0  0  0  0  0  0  0  0  0  0  0
  151.3546  140.7010  157.4201 N   0  3  0  0  0  0  0  0  0  0  0  0
  151.3124  141.8084  158.4032 C   0  0  2  0  0  0  0  0  0  0  0  0
  150.5474  143.0020  157.8035 C   0  0  0  0  0  0  0  0  0  0  0  0
  150.5015  144.1955  158.7702 C   0  0  0  0  0  0  0  0  0  0  0  0
  151.9167  144.6233  159.2045 C   0  0  1  0  0  0  0  0  0  0  0  0
  151.8852  145.8702  160.1034 C   0  0  0  0  0  0  0  0  0  0  0  0
  152.7053  143.4397  159.8208 C   0  0  1  0  0  0  0  0  0  0  0  0
  152.2194  143.0172  161.2222 C   0  0  0  0  0  0  0  0  0  0  0  0
  152.7284  142.2455  158.8432 C   0  0  0  0  0  0  0  0  0  0  0  0
  152.3813  137.8653  159.0409 H   0  0  0  0  0  0  0  0  0  0  0  0
  150.7869  138.1675  158.3561 H   0  0  0  0  0  0  0  0  0  0  0  0
  151.4030  139.1854  159.6558 H   0  0  0  0  0  0  0  0  0  0  0  0
  153.2034  140.0245  158.1664 H   0  0  0  0  0  0  0  0  0  0  0  0
  153.4613  139.4472  155.8774 H   0  0  0  0  0  0  0  0  0  0  0  0
  153.1342  137.9016  156.6220 H   0  0  0  0  0  0  0  0  0  0  0  0
  151.0333  136.6297  155.7228 H   0  0  0  0  0  0  0  0  0  0  0  0
  149.4550  139.6656  153.4236 H   0  0  0  0  0  0  0  0  0  0  0  0
  151.5525  141.0753  156.5031 H   0  0  0  0  0  0  0  0  0  0  0  0
  150.7548  141.4560  159.2718 H   0  0  0  0  0  0  0  0  0  0  0  0
  151.0209  143.3139  156.8715 H   0  0  0  0  0  0  0  0  0  0  0  0
  149.5302  142.7036  157.5468 H   0  0  0  0  0  0  0  0  0  0  0  0
  149.9952  145.0310  158.2855 H   0  0  0  0  0  0  0  0  0  0  0  0
  149.8990  143.9416  159.6429 H   0  0  0  0  0  0  0  0  0  0  0  0
  152.4506  144.9163  158.2989 H   0  0  0  0  0  0  0  0  0  0  0  0
  151.2879  145.7076  161.0008 H   0  0  0  0  0  0  0  0  0  0  0  0
  151.4517  146.7190  159.5739 H   0  0  0  0  0  0  0  0  0  0  0  0
  152.8897  146.1569  160.4155 H   0  0  0  0  0  0  0  0  0  0  0  0
  153.7390  143.7665  159.9436 H   0  0  0  0  0  0  0  0  0  0  0  0
  151.1696  142.7259  161.2258 H   0  0  0  0  0  0  0  0  0  0  0  0
  152.3409  143.8223  161.9468 H   0  0  0  0  0  0  0  0  0  0  0  0
  152.7964  142.1700  161.5938 H   0  0  0  0  0  0  0  0  0  0  0  0
  153.2603  141.4151  159.3081 H   0  0  0  0  0  0  0  0  0  0  0  0
  153.3099  142.5200  157.9621 H   0  0  0  0  0  0  0  0  0  0  0  0
  150.4309  140.2931  157.4007 H   0  0  0  0  0  0  0  0  0  0  0  0
  1  2  1  0  0  0  0
  1 18  1  0  0  0  0
  1 19  1  0  0  0  0
  1 20  1  0  0  0  0
  2  3  1  0  0  0  0
  2  9  1  0  0  0  0
  2 21  1  0  0  0  0
  3  4  1  0  0  0  0
  3 22  1  0  0  0  0
  3 23  1  0  0  0  0
  4  8  1  0  0  0  0
  4  5  1  0  0  0  0
  5  6  2  0  0  0  0
  5 24  1  0  0  0  0
  6  7  1  0  0  0  0
  7  8  2  0  0  0  0
  7 25  1  0  0  0  0
  9 10  1  0  0  0  0
  9 26  1  0  0  0  0
  9 42  1  0  0  0  0
 10 17  1  0  0  0  0
 10 11  1  0  0  0  0
 10 27  1  0  0  0  0
 11 12  1  0  0  0  0
 11 28  1  0  0  0  0
 11 29  1  0  0  0  0
 12 13  1  0  0  0  0
 12 30  1  0  0  0  0
 12 31  1  0  0  0  0
 13 14  1  0  0  0  0
 13 15  1  0  0  0  0
 13 32  1  0  0  0  0
 14 33  1  0  0  0  0
 14 34  1  0  0  0  0
 14 35  1  0  0  0  0
 15 16  1  0  0  0  0
 15 17  1  0  0  0  0
 15 36  1  0  0  0  0
 16 37  1  0  0  0  0
 16 38  1  0  0  0  0
 16 39  1  0  0  0  0
 17 40  1  0  0  0  0
 17 41  1  0  0  0  0
M  CHG  1   9   1
M  END
> <s_m_source_file>
AV-unprocessed.smi

> <i_m_source_file_index>
3181

> <i_lp_mmshare_version>
43012

> <i_f3d_flags>
0

> <s_epik_input>
bjFbY0hdbltjSF1uMVtDSDJdW0NAQEhdKFtDSDNdKVtOSF1bQ0BASF0yW0NIMl1bQ0gyXVtDQEBIXShbQ0gzXSlbQ0BASF0oW0NIM10pW0NIMl0y

> <s_epik_cmdline>
J2VwaWtfcHl0aG9uJywgJy1waCcsICc3LjAnLCAnLXRuJywgJzgnLCAnLW1hJywgJzIwMCcsICctbWV0YWxfYmluZGluZycsICctaW1hZScsICc8aW5maWxlLm1hZT4nLCAnLW9tYWUnLCAnPG91dGZpbGUubWFlPic=

> <r_lp_tautomer_probability>
1

> <r_epik_Ionization_Penalty>
0.000617007

> <r_epik_Ionization_Penalty_Charging>
0.000616215

> <r_epik_Ionization_Penalty_Neutral>
7.92544e-07

> <r_epik_State_Penalty>
0.000388807

> <r_epik_Charging_Adjusted_Penalty>
0.00100502

> <i_epik_Tot_Q>
1

> <i_epik_Tot_abs_Q>
1

> <r_epik_Metal_State_Penalty>
-0

> <b_epik_Metal_Only>
0

> <s_lp_Force_Field>
OPLS_2005

> <r_lp_Energy>
21.1382

> <b_lp_Chiralities_Consistent>
1

> <s_lp_Variant>
AV-unprocessed.smi:3181-2

> <Gold.Version>
5.8.1

> <Gold.Id.Protein>
6NUR|6NUR_protein|mol2

> <Gold.PLP.Fitness>
40.4616

> <Gold.PLP.PLP>
-35.9120

> <Gold.PLP.part.hbond>
-1.0000

> <Gold.PLP.part.metal>
0.0000

> <Gold.PLP.part.buried>
-2.6604

> <Gold.PLP.part.nonpolar>
-32.4300

> <Gold.PLP.part.repulsive>
0.5406

> <Gold.PLP.ligand.clash>
0.0000

> <Gold.PLP.ligand.torsion>
0.7416

> <Gold.PLP.Chemscore.Hbond>
1.0000

> <Gold.PLP.Chemscore.CHOScore>
1.0000

> <Gold.PLP.Chemscore.Metal>
0.0000

> <Gold.Chemscore.Hbonds>
donor molecule, donor type, donor heavy atom, donor atom, acceptor molecule, acceptor atom, score
      P1  H  7989  7998       L1     8  1.00
      L1  C     7    25       P1  7957  1.00

> <Gold.PLP.Chemscore.Internal.Correction>
0.0328

> <Gold.Rescore>
     Score         DG    S(hbond)    S(metal)    S(lipo)     H(rot)  DE(clash)    DE(int)     intcor
     14.15     -15.16       0.97        0.00     101.33       2.11       0.07       0.94       ----

> <Gold.Chemscore.Fitness>
14.1532

> <Gold.Chemscore.DG>
-15.1622

> <Gold.Chemscore.ZeroCoef>
-5.4800

> <Gold.Chemscore.Hbond>
0.9663

> <Gold.Chemscore.Metal>
0.0000

> <Gold.Chemscore.Lipo>
101.3262

> <Gold.Chemscore.Internal_Hbond>
0.0000

> <Gold.Chemscore.DEClash>
0.0715

> <Gold.Chemscore.DEInternal>
0.9375

> <Gold.Chemscore.Rot>
2.1095

> <Gold.Chemscore.Internal.Correction>
   9.000000E+99

> <Gold.Chemscore.Hbonds>
donor molecule, donor type, donor heavy atom, donor atom, acceptor molecule, acceptor atom, score
      P1  H  7989  7998       L1     8  0.26

> <Gold.Chemscore.Hbond.Weighted>
-3.2274

> <Gold.Chemscore.Metal.Weighted>
-0.0000

> <Gold.Chemscore.Lipo.Weighted>
-11.8552

> <Gold.Chemscore.Internal_Hbond.Weighted>
0.0000

> <Gold.Chemscore.DEClash.Weighted>
0.0715

> <Gold.Chemscore.DEInternal.Weighted>
0.9375

> <Gold.Chemscore.Rot.Weighted>
5.4003

> <Gold.Chemscore.Internal.Correction.Weighted>
   9.000000E+99

> <Gold.Protein.RotatedTorsions>
[ 6907 6896 6895 6894 ] final  171.75 input  -60.11 | X-H torsion
[ 7974 7965 7964 7962 ] final   19.95 input  175.53 | X-H torsion
[ 8008 7997 7996 7995 ] final   89.21 input   59.86 | X-H torsion
[ 10167 10162 10161 10158 ] final -140.34 input  -65.29 | X-H torsion
[ 10718 10713 10712 10709 ] final   81.60 input   66.30 | X-H torsion
[ 10763 10752 10751 10750 ] final   43.26 input  -60.55 | X-H torsion
[ 11005 11000 10999 10996 ] final  151.67 input  -57.11 | X-H torsion

> <Gold.Protein.ActiveResidues>
 VAL166  LYS551  ARG553  GLY616  TRP617  ASP618  TYR619  PRO620  LYS621  CYS622 
 ASP623  PHE694  ASN695  SER759  ASP760  ASP761  ALA762  ILE779  LEU786  VAL792 
 PHE793  MET794  SER795  GLU796  ALA797  LYS798  CYS799  TRP800  GLU811  SER814 

> <Gold.Protein.RotatedAtoms>
  151.7952  133.3363  159.3510 H   0  0  0  0  0  0  0  0  0  0  0  0  # atno 6907 bound_to 6896
  150.7377  134.5805  159.5945 H   0  0  0  0  0  0  0  0  0  0  0  0  # atno 6908 bound_to 6896
  152.3182  134.7415  160.0371 H   0  0  0  0  0  0  0  0  0  0  0  0  # atno 6909 bound_to 6896
  146.2130  139.8240  142.8674 H   0  0  0  0  0  0  0  0  0  0  0  0  # atno 7974 bound_to 7965
  155.9972  140.3363  155.6810 H   0  0  0  0  0  0  0  0  0  0  0  0  # atno 8008 bound_to 7997
  155.6340  140.0688  157.2658 H   0  0  0  0  0  0  0  0  0  0  0  0  # atno 8009 bound_to 7997
  154.4237  140.1754  156.1490 H   0  0  0  0  0  0  0  0  0  0  0  0  # atno 8010 bound_to 7997
  139.8291  143.7471  152.2666 H   0  0  0  0  0  0  0  0  0  0  0  0  # atno 10167 bound_to 10162
  157.6837  131.0011  150.2250 H   0  0  0  0  0  0  0  0  0  0  0  0  # atno 10718 bound_to 10713
  152.9864  135.6107  154.3082 H   0  0  0  0  0  0  0  0  0  0  0  0  # atno 10763 bound_to 10752
  154.2799  135.2777  155.2703 H   0  0  0  0  0  0  0  0  0  0  0  0  # atno 10764 bound_to 10752
  154.5047  135.5857  153.6615 H   0  0  0  0  0  0  0  0  0  0  0  0  # atno 10765 bound_to 10752
  140.1240  134.8845  157.2111 H   0  0  0  0  0  0  0  0  0  0  0  0  # atno 11005 bound_to 11000
  145.3067  141.0209  143.3578 LP  0  0  0  0  0  0  0  0  0  0  0  0  # atno 17320 bound_to 7965
  144.8966  139.4704  143.6652 LP  0  0  0  0  0  0  0  0  0  0  0  0  # atno 17321 bound_to 7965
  139.7673  144.7488  151.0276 LP  0  0  0  0  0  0  0  0  0  0  0  0  # atno 17342 bound_to 10162
  140.7808  143.4684  151.0181 LP  0  0  0  0  0  0  0  0  0  0  0  0  # atno 17343 bound_to 10162
  156.2894  130.3743  149.7856 LP  0  0  0  0  0  0  0  0  0  0  0  0  # atno 17370 bound_to 10713
  156.5520  130.8346  151.3302 LP  0  0  0  0  0  0  0  0  0  0  0  0  # atno 17371 bound_to 10713
  140.2928  134.3220  155.7310 LP  0  0  0  0  0  0  0  0  0  0  0  0  # atno 17394 bound_to 11000
  141.2157  133.7545  156.9528 LP  0  0  0  0  0  0  0  0  0  0  0  0  # atno 17395 bound_to 11000

$$$$
