AV-unprocessed.smi:234|AV-procd|sdf|1788|dock10
  -GOLD-   2262020343D 1   1.00000     0.00000
 Structure written by MMmdl.
 59 62  0  0  0  0  0  0  0  0  1 V2000
  151.9067  145.2219  160.4468 C   0  0  0  0  0  0  0  0  0  0  0  0
  151.2467  144.9616  159.0860 C   0  0  0  0  0  0  0  0  0  0  0  0
  150.7767  143.6245  158.9875 O   0  0  0  0  0  0  0  0  0  0  0  0
  151.5210  142.8035  158.0925 C   0  0  1  0  0  0  0  0  0  0  0  0
  152.6919  142.1092  158.7940 C   0  0  0  0  0  0  0  0  0  0  0  0
  151.7055  140.9797  159.1240 C   0  0  2  0  0  0  0  0  0  0  0  0
  152.2844  139.6340  159.0421 N   0  0  0  0  0  0  0  0  0  0  0  0
  151.3651  138.5061  158.9379 C   0  0  0  0  0  0  0  0  0  0  0  0
  153.3286  139.3465  159.8590 C   0  0  0  0  0  0  0  0  0  0  0  0
  153.8417  140.3040  160.6772 N   0  0  0  0  0  0  0  0  0  0  0  0
  154.8579  140.0154  161.4954 C   0  0  0  0  0  0  0  0  0  0  0  0
  155.4974  138.8550  161.6548 N   0  0  0  0  0  0  0  0  0  0  0  0
  154.9854  137.8908  160.8375 C   0  0  0  0  0  0  0  0  0  0  0  0
  153.9079  138.0492  159.9213 C   0  0  0  0  0  0  0  0  0  0  0  0
  153.6635  136.8499  159.2635 N   0  0  0  0  0  0  0  0  0  0  0  0
  154.5442  136.0278  159.7651 C   0  0  0  0  0  0  0  0  0  0  0  0
  155.3858  136.5719  160.7095 N   0  0  0  0  0  0  0  0  0  0  0  0
  156.4540  135.8850  161.4200 C   0  0  0  0  0  0  0  0  0  0  0  0
  155.9530  134.7202  162.3143 C   0  0  1  0  0  0  0  0  0  0  0  0
  155.4226  133.7147  161.4663 O   0  0  0  0  0  0  0  0  0  0  0  0
  157.0499  134.0825  163.1625 C   0  0  0  0  0  0  0  0  0  0  0  0
  156.2881  133.5590  164.3700 C   0  0  0  0  0  0  0  0  0  0  0  0
  155.3563  134.5975  164.6129 O   0  0  0  0  0  0  0  0  0  0  0  0
  154.8617  135.0752  163.3642 C   0  0  1  0  0  0  0  0  0  0  0  0
  154.5258  136.5646  163.5377 C   0  0  0  0  0  0  0  0  0  0  0  0
  150.8717  141.4115  157.8845 C   0  0  0  0  0  0  0  0  0  0  0  0
  149.3473  141.3626  158.0255 C   0  0  0  0  0  0  0  0  0  0  0  0
  151.2124  140.7595  156.5338 C   0  0  0  0  0  0  0  0  0  0  0  0
  152.3365  146.2230  160.4818 H   0  0  0  0  0  0  0  0  0  0  0  0
  152.7098  144.5087  160.6330 H   0  0  0  0  0  0  0  0  0  0  0  0
  151.1929  145.1441  161.2664 H   0  0  0  0  0  0  0  0  0  0  0  0
  150.4474  145.6786  158.8940 H   0  0  0  0  0  0  0  0  0  0  0  0
  151.9891  145.1072  158.3013 H   0  0  0  0  0  0  0  0  0  0  0  0
  151.7879  143.2976  157.1577 H   0  0  0  0  0  0  0  0  0  0  0  0
  153.4859  141.8158  158.1052 H   0  0  0  0  0  0  0  0  0  0  0  0
  153.0898  142.6316  159.6641 H   0  0  0  0  0  0  0  0  0  0  0  0
  151.1747  141.1709  160.0588 H   0  0  0  0  0  0  0  0  0  0  0  0
  151.2118  138.0298  159.9074 H   0  0  0  0  0  0  0  0  0  0  0  0
  151.7556  137.7596  158.2463 H   0  0  0  0  0  0  0  0  0  0  0  0
  150.3901  138.8194  158.5691 H   0  0  0  0  0  0  0  0  0  0  0  0
  155.2078  140.8308  162.1112 H   0  0  0  0  0  0  0  0  0  0  0  0
  154.6096  134.9953  159.4529 H   0  0  0  0  0  0  0  0  0  0  0  0
  157.1657  135.5212  160.6785 H   0  0  0  0  0  0  0  0  0  0  0  0
  156.9857  136.6229  162.0221 H   0  0  0  0  0  0  0  0  0  0  0  0
  154.5205  133.5677  161.7057 H   0  0  0  0  0  0  0  0  0  0  0  0
  157.6198  133.3105  162.6435 H   0  0  0  0  0  0  0  0  0  0  0  0
  157.7531  134.8439  163.5015 H   0  0  0  0  0  0  0  0  0  0  0  0
  155.7603  132.6336  164.1343 H   0  0  0  0  0  0  0  0  0  0  0  0
  156.9307  133.3840  165.2329 H   0  0  0  0  0  0  0  0  0  0  0  0
  153.9363  134.5377  163.1476 H   0  0  0  0  0  0  0  0  0  0  0  0
  154.1241  136.9925  162.6194 H   0  0  0  0  0  0  0  0  0  0  0  0
  155.4033  137.1416  163.8302 H   0  0  0  0  0  0  0  0  0  0  0  0
  153.7735  136.6992  164.3151 H   0  0  0  0  0  0  0  0  0  0  0  0
  148.9546  140.3574  157.8745 H   0  0  0  0  0  0  0  0  0  0  0  0
  148.8616  142.0148  157.2990 H   0  0  0  0  0  0  0  0  0  0  0  0
  149.0235  141.6843  159.0157 H   0  0  0  0  0  0  0  0  0  0  0  0
  150.8394  139.7369  156.4711 H   0  0  0  0  0  0  0  0  0  0  0  0
  152.2876  140.7183  156.3572 H   0  0  0  0  0  0  0  0  0  0  0  0
  150.7738  141.3155  155.7045 H   0  0  0  0  0  0  0  0  0  0  0  0
  1  2  1  0  0  0  0
  1 29  1  0  0  0  0
  1 30  1  0  0  0  0
  1 31  1  0  0  0  0
  2  3  1  0  0  0  0
  2 32  1  0  0  0  0
  2 33  1  0  0  0  0
  3  4  1  0  0  0  0
  4 26  1  0  0  0  0
  4  5  1  0  0  0  0
  4 34  1  0  0  0  0
  5  6  1  0  0  0  0
  5 35  1  0  0  0  0
  5 36  1  0  0  0  0
  6  7  1  0  0  0  0
  6 26  1  0  0  0  0
  6 37  1  0  0  0  0
  7  8  1  0  0  0  0
  7  9  1  0  0  0  0
  8 38  1  0  0  0  0
  8 39  1  0  0  0  0
  8 40  1  0  0  0  0
  9 14  1  0  0  0  0
  9 10  2  0  0  0  0
 10 11  1  0  0  0  0
 11 12  2  0  0  0  0
 11 41  1  0  0  0  0
 12 13  1  0  0  0  0
 13 17  1  0  0  0  0
 13 14  2  0  0  0  0
 14 15  1  0  0  0  0
 15 16  2  0  0  0  0
 16 17  1  0  0  0  0
 16 42  1  0  0  0  0
 17 18  1  0  0  0  0
 18 19  1  0  0  0  0
 18 43  1  0  0  0  0
 18 44  1  0  0  0  0
 19 24  1  0  0  0  0
 19 20  1  0  0  0  0
 19 21  1  0  0  0  0
 20 45  1  0  0  0  0
 21 22  1  0  0  0  0
 21 46  1  0  0  0  0
 21 47  1  0  0  0  0
 22 23  1  0  0  0  0
 22 48  1  0  0  0  0
 22 49  1  0  0  0  0
 23 24  1  0  0  0  0
 24 25  1  0  0  0  0
 24 50  1  0  0  0  0
 25 51  1  0  0  0  0
 25 52  1  0  0  0  0
 25 53  1  0  0  0  0
 26 27  1  0  0  0  0
 26 28  1  0  0  0  0
 27 54  1  0  0  0  0
 27 55  1  0  0  0  0
 27 56  1  0  0  0  0
 28 57  1  0  0  0  0
 28 58  1  0  0  0  0
 28 59  1  0  0  0  0
M  END
> <s_m_source_file>
AV-unprocessed.smi

> <i_m_source_file_index>
234

> <i_lp_mmshare_version>
43012

> <i_f3d_flags>
0

> <s_epik_input>
W0NIM11bQ0gyXU9bQ0BASF0oQzEoW0NIM10pW0NIM10pW0NIMl1bQ0BIXTFOKFtDSDNdKWMobltjSF1uMiljKGMyMyluW2NIXW4zW0NIMl1bQ0BAXTQoW09IXSlbQ0gyXVtDSDJdT1tDQEhdNFtDSDNd

> <s_epik_cmdline>
J2VwaWtfcHl0aG9uJywgJy1waCcsICc3LjAnLCAnLXRuJywgJzgnLCAnLW1hJywgJzIwMCcsICctbWV0YWxfYmluZGluZycsICctaW1hZScsICc8aW5maWxlLm1hZT4nLCAnLW9tYWUnLCAnPG91dGZpbGUubWFlPic=

> <r_lp_tautomer_probability>
1

> <r_epik_Ionization_Penalty>
0.00349132

> <r_epik_Ionization_Penalty_Charging>
0

> <r_epik_Ionization_Penalty_Neutral>
0.00349132

> <r_epik_State_Penalty>
0.00242418

> <r_epik_Charging_Adjusted_Penalty>
0.00242418

> <i_epik_Tot_Q>
0

> <i_epik_Tot_abs_Q>
0

> <r_epik_Metal_State_Penalty>
-0

> <b_epik_Metal_Only>
0

> <s_lp_Force_Field>
OPLS_2005

> <r_lp_Energy>
49.5598

> <b_lp_Chiralities_Consistent>
1

> <s_lp_Variant>
AV-unprocessed.smi:234-4

> <Gold.Version>
5.8.1

> <Gold.Id.Protein>
6NUR|6NUR_protein|mol2

> <Gold.PLP.Fitness>
38.5509

> <Gold.PLP.PLP>
-39.7630

> <Gold.PLP.part.hbond>
0.0000

> <Gold.PLP.part.metal>
0.0000

> <Gold.PLP.part.buried>
-8.2476

> <Gold.PLP.part.nonpolar>
-32.6680

> <Gold.PLP.part.repulsive>
1.6245

> <Gold.PLP.ligand.clash>
0.0000

> <Gold.PLP.ligand.torsion>
1.0869

> <Gold.PLP.Chemscore.Hbond>
0.0000

> <Gold.PLP.Chemscore.CHOScore>
0.0000

> <Gold.PLP.Chemscore.Metal>
0.0000

> <Gold.PLP.Chemscore.Internal.Correction>
0.9617

> <Gold.Rescore>
     Score         DG    S(hbond)    S(metal)    S(lipo)     H(rot)  DE(clash)    DE(int)     intcor
      7.48     -11.88       0.00        0.00     112.11       2.62       0.03       4.38       ----

> <Gold.Chemscore.Fitness>
7.4788

> <Gold.Chemscore.DG>
-11.8843

> <Gold.Chemscore.ZeroCoef>
-5.4800

> <Gold.Chemscore.Hbond>
0.0000

> <Gold.Chemscore.Metal>
0.0000

> <Gold.Chemscore.Lipo>
112.1061

> <Gold.Chemscore.Internal_Hbond>
0.0000

> <Gold.Chemscore.DEClash>
0.0280

> <Gold.Chemscore.DEInternal>
4.3774

> <Gold.Chemscore.Rot>
2.6219

> <Gold.Chemscore.Internal.Correction>
   9.000000E+99

> <Gold.Chemscore.Hbond.Weighted>
-0.0000

> <Gold.Chemscore.Metal.Weighted>
-0.0000

> <Gold.Chemscore.Lipo.Weighted>
-13.1164

> <Gold.Chemscore.Internal_Hbond.Weighted>
0.0000

> <Gold.Chemscore.DEClash.Weighted>
0.0280

> <Gold.Chemscore.DEInternal.Weighted>
4.3774

> <Gold.Chemscore.Rot.Weighted>
6.7121

> <Gold.Chemscore.Internal.Correction.Weighted>
   9.000000E+99

> <Gold.Protein.RotatedTorsions>
[ 6907 6896 6895 6894 ] final   12.35 input  -60.11 | X-H torsion
[ 7974 7965 7964 7962 ] final  177.99 input  175.53 | X-H torsion
[ 8008 7997 7996 7995 ] final  116.72 input   59.86 | X-H torsion
[ 10167 10162 10161 10158 ] final  -71.33 input  -65.29 | X-H torsion
[ 10718 10713 10712 10709 ] final -119.66 input   66.30 | X-H torsion
[ 10763 10752 10751 10750 ] final  107.75 input  -60.55 | X-H torsion
[ 11005 11000 10999 10996 ] final -153.75 input  -57.11 | X-H torsion

> <Gold.Protein.ActiveResidues>
 VAL166  LYS551  ARG553  GLY616  TRP617  ASP618  TYR619  PRO620  LYS621  CYS622 
 ASP623  PHE694  ASN695  SER759  ASP760  ASP761  ALA762  ILE779  LEU786  VAL792 
 PHE793  MET794  SER795  GLU796  ALA797  LYS798  CYS799  TRP800  GLU811  SER814 

> <Gold.Protein.RotatedAtoms>
  151.7689  135.0791  160.0356 H   0  0  0  0  0  0  0  0  0  0  0  0  # atno 6907 bound_to 6896
  152.3302  133.5946  159.5813 H   0  0  0  0  0  0  0  0  0  0  0  0  # atno 6908 bound_to 6896
  150.7418  133.9795  159.3613 H   0  0  0  0  0  0  0  0  0  0  0  0  # atno 6909 bound_to 6896
  144.7162  140.0330  143.6438 H   0  0  0  0  0  0  0  0  0  0  0  0  # atno 7974 bound_to 7965
  156.2455  140.2911  156.0567 H   0  0  0  0  0  0  0  0  0  0  0  0  # atno 8008 bound_to 7997
  155.1822  140.0404  157.2901 H   0  0  0  0  0  0  0  0  0  0  0  0  # atno 8009 bound_to 7997
  154.6252  140.2486  155.7507 H   0  0  0  0  0  0  0  0  0  0  0  0  # atno 8010 bound_to 7997
  140.5282  143.2324  151.7310 H   0  0  0  0  0  0  0  0  0  0  0  0  # atno 10167 bound_to 10162
  156.1198  130.6314  150.9444 H   0  0  0  0  0  0  0  0  0  0  0  0  # atno 10718 bound_to 10713
  153.4111  135.3834  155.2051 H   0  0  0  0  0  0  0  0  0  0  0  0  # atno 10763 bound_to 10752
  154.8738  135.3794  154.4499 H   0  0  0  0  0  0  0  0  0  0  0  0  # atno 10764 bound_to 10752
  153.5008  135.7088  153.5895 H   0  0  0  0  0  0  0  0  0  0  0  0  # atno 10765 bound_to 10752
  140.7047  134.3898  157.5205 H   0  0  0  0  0  0  0  0  0  0  0  0  # atno 11005 bound_to 11000
  146.0086  139.3151  143.0884 LP  0  0  0  0  0  0  0  0  0  0  0  0  # atno 17320 bound_to 7965
  145.8708  140.9421  143.0651 LP  0  0  0  0  0  0  0  0  0  0  0  0  # atno 17321 bound_to 7965
  139.4945  144.4154  152.0035 LP  0  0  0  0  0  0  0  0  0  0  0  0  # atno 17342 bound_to 10162
  140.3255  144.3378  150.5999 LP  0  0  0  0  0  0  0  0  0  0  0  0  # atno 17343 bound_to 10162
  157.6382  131.0913  150.8306 LP  0  0  0  0  0  0  0  0  0  0  0  0  # atno 17370 bound_to 10713
  156.8404  130.5046  149.5322 LP  0  0  0  0  0  0  0  0  0  0  0  0  # atno 17371 bound_to 10713
  139.8887  134.8849  156.2459 LP  0  0  0  0  0  0  0  0  0  0  0  0  # atno 17394 bound_to 11000
  141.0134  133.7082  156.1149 LP  0  0  0  0  0  0  0  0  0  0  0  0  # atno 17395 bound_to 11000

$$$$
