AV-unprocessed.smi:415|AV-procd|sdf|2525|dock6
  -GOLD-   2262022483D 1   1.00000     0.00000
 Structure written by MMmdl.
 53 54  0  0  0  0  0  0  0  0  1 V2000
  143.4180  132.1540  151.1134 C   0  0  0  0  0  0  0  0  0  0  0  0
  143.8524  133.5005  151.0463 O   0  0  0  0  0  0  0  0  0  0  0  0
  145.1581  133.6774  151.5702 C   0  0  0  0  0  0  0  0  0  0  0  0
  145.0976  133.6820  153.1068 C   0  0  0  0  0  0  0  0  0  0  0  0
  146.4014  133.5496  153.7302 N   0  0  0  0  0  0  0  0  0  0  0  0
  147.2489  132.4652  153.5184 C   0  0  0  0  0  0  0  0  0  0  0  0
  146.8468  131.4318  152.6915 N   0  0  0  0  0  0  0  0  0  0  0  0
  148.4591  132.3904  154.1156 C   0  0  0  0  0  0  0  0  0  0  0  0
  148.9399  133.4303  155.0148 C   0  0  0  0  0  0  0  0  0  0  0  0
  150.0478  133.3900  155.5506 O   0  0  0  0  0  0  0  0  0  0  0  0
  148.0516  134.5071  155.2381 N   0  0  0  0  0  0  0  0  0  0  0  0
  148.4695  135.6082  156.1339 C   0  0  0  0  0  0  0  0  0  0  0  0
  148.7185  135.1458  157.5768 C   0  0  0  0  0  0  0  0  0  0  0  0
  149.5833  134.3059  157.8295 O   0  0  0  0  0  0  0  0  0  0  0  0
  147.9374  135.7026  158.5144 N   0  0  0  0  0  0  0  0  0  0  0  0
  148.0014  135.4225  159.9473 C   0  0  1  0  0  0  0  0  0  0  0  0
  147.9472  136.7479  160.7366 C   0  0  0  0  0  0  0  0  0  0  0  0
  147.9308  136.5120  162.2530 C   0  0  0  0  0  0  0  0  0  0  0  0
  146.7786  135.5788  162.6565 C   0  0  0  0  0  0  0  0  0  0  0  0
  146.8247  134.2357  161.8996 C   0  0  2  0  0  0  0  0  0  0  0  0
  147.9670  133.3337  162.4108 C   0  0  0  0  0  0  0  0  0  0  0  0
  146.8439  134.4790  160.3664 C   0  0  2  0  0  0  0  0  0  0  0  0
  146.8161  133.1639  159.5626 C   0  0  0  0  0  0  0  0  0  0  0  0
  146.7854  134.5892  154.6152 C   0  0  0  0  0  0  0  0  0  0  0  0
  146.0417  135.5486  154.8410 O   0  0  0  0  0  0  0  0  0  0  0  0
  142.4120  132.0738  150.7021 H   0  0  0  0  0  0  0  0  0  0  0  0
  143.3897  131.7990  152.1444 H   0  0  0  0  0  0  0  0  0  0  0  0
  144.0711  131.4992  150.5348 H   0  0  0  0  0  0  0  0  0  0  0  0
  145.7980  132.8598  151.2354 H   0  0  0  0  0  0  0  0  0  0  0  0
  145.5967  134.6038  151.1962 H   0  0  0  0  0  0  0  0  0  0  0  0
  144.6421  134.5967  153.4841 H   0  0  0  0  0  0  0  0  0  0  0  0
  144.4681  132.8771  153.4904 H   0  0  0  0  0  0  0  0  0  0  0  0
  145.9476  131.4403  152.2320 H   0  0  0  0  0  0  0  0  0  0  0  0
  147.4964  130.7223  152.3834 H   0  0  0  0  0  0  0  0  0  0  0  0
  149.0954  131.5372  153.9276 H   0  0  0  0  0  0  0  0  0  0  0  0
  149.3694  136.0895  155.7460 H   0  0  0  0  0  0  0  0  0  0  0  0
  147.7326  136.4117  156.1606 H   0  0  0  0  0  0  0  0  0  0  0  0
  147.2503  136.3793  158.2155 H   0  0  0  0  0  0  0  0  0  0  0  0
  148.9481  134.9233  160.1603 H   0  0  0  0  0  0  0  0  0  0  0  0
  148.7999  137.3770  160.4780 H   0  0  0  0  0  0  0  0  0  0  0  0
  147.0558  137.3086  160.4513 H   0  0  0  0  0  0  0  0  0  0  0  0
  148.8845  136.0893  162.5700 H   0  0  0  0  0  0  0  0  0  0  0  0
  147.8328  137.4651  162.7731 H   0  0  0  0  0  0  0  0  0  0  0  0
  146.7961  135.4083  163.7332 H   0  0  0  0  0  0  0  0  0  0  0  0
  145.8306  136.0758  162.4467 H   0  0  0  0  0  0  0  0  0  0  0  0
  145.8966  133.7126  162.1342 H   0  0  0  0  0  0  0  0  0  0  0  0
  148.9502  133.7414  162.1785 H   0  0  0  0  0  0  0  0  0  0  0  0
  147.9129  132.3348  161.9784 H   0  0  0  0  0  0  0  0  0  0  0  0
  147.9111  133.2126  163.4928 H   0  0  0  0  0  0  0  0  0  0  0  0
  145.9124  134.9958  160.1285 H   0  0  0  0  0  0  0  0  0  0  0  0
  147.7616  132.6269  159.6379 H   0  0  0  0  0  0  0  0  0  0  0  0
  146.6286  133.3463  158.5043 H   0  0  0  0  0  0  0  0  0  0  0  0
  146.0254  132.5033  159.9189 H   0  0  0  0  0  0  0  0  0  0  0  0
  1  2  1  0  0  0  0
  1 26  1  0  0  0  0
  1 27  1  0  0  0  0
  1 28  1  0  0  0  0
  2  3  1  0  0  0  0
  3  4  1  0  0  0  0
  3 29  1  0  0  0  0
  3 30  1  0  0  0  0
  4  5  1  0  0  0  0
  4 31  1  0  0  0  0
  4 32  1  0  0  0  0
  5 24  1  0  0  0  0
  5  6  1  0  0  0  0
  6  7  1  0  0  0  0
  6  8  2  0  0  0  0
  7 33  1  0  0  0  0
  7 34  1  0  0  0  0
  8  9  1  0  0  0  0
  8 35  1  0  0  0  0
  9 10  2  0  0  0  0
  9 11  1  0  0  0  0
 11 12  1  0  0  0  0
 11 24  1  0  0  0  0
 12 13  1  0  0  0  0
 12 36  1  0  0  0  0
 12 37  1  0  0  0  0
 13 14  2  0  0  0  0
 13 15  1  0  0  0  0
 15 16  1  0  0  0  0
 15 38  1  0  0  0  0
 16 22  1  0  0  0  0
 16 17  1  0  0  0  0
 16 39  1  0  0  0  0
 17 18  1  0  0  0  0
 17 40  1  0  0  0  0
 17 41  1  0  0  0  0
 18 19  1  0  0  0  0
 18 42  1  0  0  0  0
 18 43  1  0  0  0  0
 19 20  1  0  0  0  0
 19 44  1  0  0  0  0
 19 45  1  0  0  0  0
 20 21  1  0  0  0  0
 20 22  1  0  0  0  0
 20 46  1  0  0  0  0
 21 47  1  0  0  0  0
 21 48  1  0  0  0  0
 21 49  1  0  0  0  0
 22 23  1  0  0  0  0
 22 50  1  0  0  0  0
 23 51  1  0  0  0  0
 23 52  1  0  0  0  0
 23 53  1  0  0  0  0
 24 25  2  0  0  0  0
M  END
> <s_m_source_file>
AV-unprocessed.smi

> <i_m_source_file_index>
415

> <i_lp_mmshare_version>
43012

> <i_f3d_flags>
0

> <s_epik_input>
W0NIM11PW0NIMl1bQ0gyXW4xYyhbTkgyXSlbY0hdYyg9TyluKGMxPU8pW0NIMl1DKD1PKVtOSF1bQ0BASF0yW0NIMl1bQ0gyXVtDSDJdW0NAQEhdKFtDSDNdKVtDQEhdMltDSDNd

> <s_epik_cmdline>
J2VwaWtfcHl0aG9uJywgJy1waCcsICc3LjAnLCAnLXRuJywgJzgnLCAnLW1hJywgJzIwMCcsICctbWV0YWxfYmluZGluZycsICctaW1hZScsICc8aW5maWxlLm1hZT4nLCAnLW9tYWUnLCAnPG91dGZpbGUubWFlPic=

> <r_lp_tautomer_probability>
1

> <r_epik_Ionization_Penalty>
8.6647e-06

> <r_epik_Ionization_Penalty_Charging>
1.81162e-08

> <r_epik_Ionization_Penalty_Neutral>
8.64658e-06

> <r_epik_State_Penalty>
-0

> <r_epik_Charging_Adjusted_Penalty>
1.81162e-08

> <i_epik_Tot_Q>
0

> <i_epik_Tot_abs_Q>
0

> <r_epik_Metal_State_Penalty>
-0

> <b_epik_Metal_Only>
0

> <s_lp_Force_Field>
OPLS_2005

> <r_lp_Energy>
23.106

> <b_lp_Chiralities_Consistent>
1

> <s_lp_Variant>
AV-unprocessed.smi:415-8

> <Gold.Version>
5.8.1

> <Gold.Id.Protein>
6NUR|6NUR_protein|mol2

> <Gold.PLP.Fitness>
44.1321

> <Gold.PLP.PLP>
-39.0089

> <Gold.PLP.part.hbond>
-2.0000

> <Gold.PLP.part.metal>
0.0000

> <Gold.PLP.part.buried>
-6.2386

> <Gold.PLP.part.nonpolar>
-31.5955

> <Gold.PLP.part.repulsive>
0.3754

> <Gold.PLP.ligand.clash>
0.0149

> <Gold.PLP.ligand.torsion>
0.3320

> <Gold.PLP.Chemscore.Hbond>
1.9280

> <Gold.PLP.Chemscore.CHOScore>
0.0000

> <Gold.PLP.Chemscore.Metal>
0.0000

> <Gold.Chemscore.Hbonds>
donor molecule, donor type, donor heavy atom, donor atom, acceptor molecule, acceptor atom, score
      P1  H  6896  6908       L1    14  1.00

> <Gold.PLP.Chemscore.Internal.Correction>
0.0181

> <Gold.Rescore>
     Score         DG    S(hbond)    S(metal)    S(lipo)     H(rot)  DE(clash)    DE(int)     intcor
     14.09     -14.71       1.97        0.00      72.19       2.26       0.10       0.52       ----

> <Gold.Chemscore.Fitness>
14.0859

> <Gold.Chemscore.DG>
-14.7111

> <Gold.Chemscore.ZeroCoef>
-5.4800

> <Gold.Chemscore.Hbond>
1.9708

> <Gold.Chemscore.Metal>
0.0000

> <Gold.Chemscore.Lipo>
72.1871

> <Gold.Chemscore.Internal_Hbond>
0.0000

> <Gold.Chemscore.DEClash>
0.1046

> <Gold.Chemscore.DEInternal>
0.5207

> <Gold.Chemscore.Rot>
2.2645

> <Gold.Chemscore.Internal.Correction>
   9.000000E+99

> <Gold.Chemscore.Hbonds>
donor molecule, donor type, donor heavy atom, donor atom, acceptor molecule, acceptor atom, score
      P1  H  6896  6908       L1    14  0.97

> <Gold.Chemscore.Hbond.Weighted>
-6.5824

> <Gold.Chemscore.Metal.Weighted>
-0.0000

> <Gold.Chemscore.Lipo.Weighted>
-8.4459

> <Gold.Chemscore.Internal_Hbond.Weighted>
0.0000

> <Gold.Chemscore.DEClash.Weighted>
0.1046

> <Gold.Chemscore.DEInternal.Weighted>
0.5207

> <Gold.Chemscore.Rot.Weighted>
5.7972

> <Gold.Chemscore.Internal.Correction.Weighted>
   9.000000E+99

> <Gold.Protein.RotatedTorsions>
[ 6907 6896 6895 6894 ] final  125.49 input  -60.11 | X-H torsion
[ 7974 7965 7964 7962 ] final  -20.79 input  175.53 | X-H torsion
[ 8008 7997 7996 7995 ] final  -21.98 input   59.86 | X-H torsion
[ 10167 10162 10161 10158 ] final   94.96 input  -65.29 | X-H torsion
[ 10718 10713 10712 10709 ] final  166.73 input   66.30 | X-H torsion
[ 10763 10752 10751 10750 ] final  -52.28 input  -60.55 | X-H torsion
[ 11005 11000 10999 10996 ] final   -8.54 input  -57.11 | X-H torsion

> <Gold.Protein.ActiveResidues>
 VAL166  LYS551  ARG553  GLY616  TRP617  ASP618  TYR619  PRO620  LYS621  CYS622 
 ASP623  PHE694  ASN695  SER759  ASP760  ASP761  ALA762  ILE779  LEU786  VAL792 
 PHE793  MET794  SER795  GLU796  ALA797  LYS798  CYS799  TRP800  GLU811  SER814 

> <Gold.Protein.RotatedAtoms>
  152.3987  133.6785  159.6297 H   0  0  0  0  0  0  0  0  0  0  0  0  # atno 6907 bound_to 6896
  150.7882  133.8829  159.3300 H   0  0  0  0  0  0  0  0  0  0  0  0  # atno 6908 bound_to 6896
  151.6599  135.0992  160.0229 H   0  0  0  0  0  0  0  0  0  0  0  0  # atno 6909 bound_to 6896
  146.1769  140.4251  142.8510 H   0  0  0  0  0  0  0  0  0  0  0  0  # atno 7974 bound_to 7965
  154.4672  140.2020  156.0088 H   0  0  0  0  0  0  0  0  0  0  0  0  # atno 8008 bound_to 7997
  156.0948  140.3253  155.7834 H   0  0  0  0  0  0  0  0  0  0  0  0  # atno 8009 bound_to 7997
  155.4897  140.0545  157.2946 H   0  0  0  0  0  0  0  0  0  0  0  0  # atno 8010 bound_to 7997
  139.8034  144.6804  150.9734 H   0  0  0  0  0  0  0  0  0  0  0  0  # atno 10167 bound_to 10162
  157.0617  131.0342  151.2644 H   0  0  0  0  0  0  0  0  0  0  0  0  # atno 10718 bound_to 10713
  154.1401  135.6506  153.4940 H   0  0  0  0  0  0  0  0  0  0  0  0  # atno 10763 bound_to 10752
  153.0168  135.5313  154.6913 H   0  0  0  0  0  0  0  0  0  0  0  0  # atno 10764 bound_to 10752
  154.6172  135.2960  155.0337 H   0  0  0  0  0  0  0  0  0  0  0  0  # atno 10765 bound_to 10752
  140.7245  133.8800  155.8846 H   0  0  0  0  0  0  0  0  0  0  0  0  # atno 11005 bound_to 11000
  144.8250  140.6614  143.6328 LP  0  0  0  0  0  0  0  0  0  0  0  0  # atno 17320 bound_to 7965
  145.4187  139.1567  143.4086 LP  0  0  0  0  0  0  0  0  0  0  0  0  # atno 17321 bound_to 7965
  140.7820  143.4258  151.0771 LP  0  0  0  0  0  0  0  0  0  0  0  0  # atno 17342 bound_to 10162
  139.7929  143.8193  152.3154 LP  0  0  0  0  0  0  0  0  0  0  0  0  # atno 17343 bound_to 10162
  157.4949  130.7844  149.7545 LP  0  0  0  0  0  0  0  0  0  0  0  0  # atno 17370 bound_to 10713
  155.9976  130.3899  150.2733 LP  0  0  0  0  0  0  0  0  0  0  0  0  # atno 17371 bound_to 10713
  140.9974  134.1196  157.4350 LP  0  0  0  0  0  0  0  0  0  0  0  0  # atno 17394 bound_to 11000
  139.8840  135.0058  156.6341 LP  0  0  0  0  0  0  0  0  0  0  0  0  # atno 17395 bound_to 11000

$$$$
