AV-unprocessed.smi:21|AV-procd|sdf|140|dock3
  -GOLD-   2262015343D 1   1.00000     0.00000
 Structure written by MMmdl.
 62 65  0  0  0  0  0  0  0  0  2 V2000
  145.9710  131.8431  149.3337 C   0  0  0  0  0  0  0  0  0  0  0  0
  144.7279  131.9933  149.9999 O   0  0  0  0  0  0  0  0  0  0  0  0
  144.6410  133.1802  150.7738 C   0  0  2  0  0  0  0  0  0  0  0  0
  145.6959  133.1802  151.8709 C   0  0  0  0  0  0  0  0  0  0  0  0
  145.1295  134.1714  152.8919 C   0  0  2  0  0  0  0  0  0  0  0  0
  145.6792  133.9871  154.3206 C   0  0  0  0  0  0  0  0  0  0  0  0
  147.0749  134.4166  154.4464 N   0  0  0  0  0  0  0  0  0  0  0  0
  148.0975  133.5778  153.8327 C   0  0  0  0  0  0  0  0  0  0  0  0
  147.4308  135.4135  155.3105 C   0  0  0  0  0  0  0  0  0  0  0  0
  146.4451  136.1793  155.8522 N   0  0  0  0  0  0  0  0  0  0  0  0
  146.7269  137.1676  156.7042 C   0  0  0  0  0  0  0  0  0  0  0  0
  147.9166  137.5660  157.1509 N   0  0  0  0  0  0  0  0  0  0  0  0
  148.9185  136.8126  156.6167 C   0  0  0  0  0  0  0  0  0  0  0  0
  148.7712  135.7283  155.7013 C   0  0  0  0  0  0  0  0  0  0  0  0
  150.0292  135.2105  155.4031 N   0  0  0  0  0  0  0  0  0  0  0  0
  150.8610  135.9427  156.0907 C   0  0  0  0  0  0  0  0  0  0  0  0
  150.2777  136.9348  156.8421 N   0  0  0  0  0  0  0  0  0  0  0  0
  150.9533  137.8931  157.6984 C   0  0  0  0  0  0  0  0  0  0  0  0
  150.7759  139.3661  157.2373 C   0  0  2  0  0  0  0  0  0  0  0  0
  151.6773  139.7263  156.0313 C   0  0  0  0  0  0  0  0  0  0  0  0
  151.0792  139.3813  154.7989 O   0  0  0  0  0  0  0  0  0  0  0  0
  150.9754  140.3980  158.3796 C   0  0  2  0  0  0  0  0  0  0  0  0
  150.9001  141.8661  158.0010 C   0  0  0  0  0  0  0  0  0  0  0  0
  151.4831  142.5262  159.2462 C   0  0  0  0  0  0  0  0  0  0  0  0
  152.4670  141.6199  159.7378 O   0  0  0  0  0  0  0  0  0  0  0  0
  152.3121  140.3411  159.1260 C   0  0  0  0  0  0  0  0  0  0  0  0
  143.6619  133.9676  152.8433 N   0  3  1  0  0  0  0  0  0  0  0  0
  142.8707  135.1915  153.0969 C   0  0  0  0  0  0  0  0  0  0  0  0
  143.3308  133.2960  151.5635 C   0  0  0  0  0  0  0  0  0  0  0  0
  144.7850  134.0643  150.1495 H   0  0  0  0  0  0  0  0  0  0  0  0
  145.3472  135.1812  152.5384 H   0  0  0  0  0  0  0  0  0  0  0  0
  145.9752  130.9056  148.7777 H   0  0  0  0  0  0  0  0  0  0  0  0
  146.7980  131.8146  150.0444 H   0  0  0  0  0  0  0  0  0  0  0  0
  146.1468  132.6524  148.6242 H   0  0  0  0  0  0  0  0  0  0  0  0
  145.7676  132.1842  152.3106 H   0  0  0  0  0  0  0  0  0  0  0  0
  146.6853  133.4602  151.5080 H   0  0  0  0  0  0  0  0  0  0  0  0
  145.0908  134.5935  155.0097 H   0  0  0  0  0  0  0  0  0  0  0  0
  145.5285  132.9615  154.6574 H   0  0  0  0  0  0  0  0  0  0  0  0
  148.6195  132.9902  154.5884 H   0  0  0  0  0  0  0  0  0  0  0  0
  148.8228  134.1852  153.2907 H   0  0  0  0  0  0  0  0  0  0  0  0
  147.6563  132.8816  153.1192 H   0  0  0  0  0  0  0  0  0  0  0  0
  145.8775  137.7186  157.0809 H   0  0  0  0  0  0  0  0  0  0  0  0
  151.9290  135.7827  156.0622 H   0  0  0  0  0  0  0  0  0  0  0  0
  150.5682  137.7441  158.7055 H   0  0  0  0  0  0  0  0  0  0  0  0
  152.0103  137.6288  157.7328 H   0  0  0  0  0  0  0  0  0  0  0  0
  149.7416  139.4918  156.9124 H   0  0  0  0  0  0  0  0  0  0  0  0
  151.8639  140.7999  155.9977 H   0  0  0  0  0  0  0  0  0  0  0  0
  152.6502  139.2406  156.1140 H   0  0  0  0  0  0  0  0  0  0  0  0
  150.4748  138.6699  154.9459 H   0  0  0  0  0  0  0  0  0  0  0  0
  150.2045  140.2176  159.1311 H   0  0  0  0  0  0  0  0  0  0  0  0
  151.5337  142.0912  157.1434 H   0  0  0  0  0  0  0  0  0  0  0  0
  149.8873  142.2027  157.7783 H   0  0  0  0  0  0  0  0  0  0  0  0
  151.9110  143.5072  159.0384 H   0  0  0  0  0  0  0  0  0  0  0  0
  150.7115  142.6481  160.0076 H   0  0  0  0  0  0  0  0  0  0  0  0
  152.3343  139.5443  159.8696 H   0  0  0  0  0  0  0  0  0  0  0  0
  153.1557  140.1905  158.4548 H   0  0  0  0  0  0  0  0  0  0  0  0
  143.0467  135.9411  152.3242 H   0  0  0  0  0  0  0  0  0  0  0  0
  143.1311  135.6264  154.0623 H   0  0  0  0  0  0  0  0  0  0  0  0
  141.8053  134.9589  153.1114 H   0  0  0  0  0  0  0  0  0  0  0  0
  142.5623  133.8195  150.9927 H   0  0  0  0  0  0  0  0  0  0  0  0
  142.9430  132.3050  151.8026 H   0  0  0  0  0  0  0  0  0  0  0  0
  143.4360  133.3067  153.5732 H   0  0  0  0  0  0  0  0  0  0  0  0
  1  2  1  0  0  0  0
  1 32  1  0  0  0  0
  1 33  1  0  0  0  0
  1 34  1  0  0  0  0
  2  3  1  0  0  0  0
  3 30  1  0  0  0  0
  3 29  1  0  0  0  0
  3  4  1  0  0  0  0
  4  5  1  0  0  0  0
  4 35  1  0  0  0  0
  4 36  1  0  0  0  0
  5 31  1  0  0  0  0
  5  6  1  0  0  0  0
  5 27  1  0  0  0  0
  6  7  1  0  0  0  0
  6 37  1  0  0  0  0
  6 38  1  0  0  0  0
  7  8  1  0  0  0  0
  7  9  1  0  0  0  0
  8 39  1  0  0  0  0
  8 40  1  0  0  0  0
  8 41  1  0  0  0  0
  9 14  1  0  0  0  0
  9 10  2  0  0  0  0
 10 11  1  0  0  0  0
 11 12  2  0  0  0  0
 11 42  1  0  0  0  0
 12 13  1  0  0  0  0
 13 17  1  0  0  0  0
 13 14  2  0  0  0  0
 14 15  1  0  0  0  0
 15 16  2  0  0  0  0
 16 17  1  0  0  0  0
 16 43  1  0  0  0  0
 17 18  1  0  0  0  0
 18 19  1  0  0  0  0
 18 44  1  0  0  0  0
 18 45  1  0  0  0  0
 19 20  1  0  0  0  0
 19 22  1  0  0  0  0
 19 46  1  0  0  0  0
 20 21  1  0  0  0  0
 20 47  1  0  0  0  0
 20 48  1  0  0  0  0
 21 49  1  0  0  0  0
 22 26  1  0  0  0  0
 22 23  1  0  0  0  0
 22 50  1  0  0  0  0
 23 24  1  0  0  0  0
 23 51  1  0  0  0  0
 23 52  1  0  0  0  0
 24 25  1  0  0  0  0
 24 53  1  0  0  0  0
 24 54  1  0  0  0  0
 25 26  1  0  0  0  0
 26 55  1  0  0  0  0
 26 56  1  0  0  0  0
 27 28  1  0  0  0  0
 27 29  1  0  0  0  0
 27 62  1  0  0  0  0
 28 57  1  0  0  0  0
 28 58  1  0  0  0  0
 28 59  1  0  0  0  0
 29 60  1  0  0  0  0
 29 61  1  0  0  0  0
M  CHG  1  27   1
M  END
> <s_m_source_file>
AV-unprocessed.smi

> <i_m_source_file_index>
21

> <i_lp_mmshare_version>
43012

> <i_f3d_flags>
0

> <s_epik_input>
W0NIM11PW0NASF0xW0NIMl1bQ0BIXShOKFtDSDNdKVtDSDJdMSlbQ0gyXU4oW0NIM10pYyhuW2NIXW4yKWMoYzIzKW5bY0hdbjNbQ0gyXVtDQEhdKFtDSDJdW09IXSlbQ0BASF00W0NIMl1bQ0gyXU9bQ0gyXTQ=

> <s_epik_cmdline>
J2VwaWtfcHl0aG9uJywgJy1waCcsICc3LjAnLCAnLXRuJywgJzgnLCAnLW1hJywgJzIwMCcsICctbWV0YWxfYmluZGluZycsICctaW1hZScsICc8aW5maWxlLm1hZT4nLCAnLW9tYWUnLCAnPG91dGZpbGUubWFlPic=

> <r_lp_tautomer_probability>
1

> <r_epik_Ionization_Penalty>
0.0157465

> <r_epik_Ionization_Penalty_Charging>
0.015354

> <r_epik_Ionization_Penalty_Neutral>
0.000392529

> <r_epik_State_Penalty>
0.0120612

> <r_epik_Charging_Adjusted_Penalty>
0.0274152

> <i_epik_Tot_Q>
1

> <i_epik_Tot_abs_Q>
1

> <r_epik_Metal_State_Penalty>
0.0121253

> <b_epik_Metal_Only>
0

> <s_lp_Force_Field>
OPLS_2005

> <r_lp_Energy>
59.0143

> <b_lp_Chiralities_Consistent>
1

> <s_lp_Variant>
AV-unprocessed.smi:21-20

> <Gold.Version>
5.8.1

> <Gold.Id.Protein>
6NUR|6NUR_protein|mol2

> <Gold.PLP.Fitness>
44.2978

> <Gold.PLP.PLP>
-36.0531

> <Gold.PLP.part.hbond>
-2.0292

> <Gold.PLP.part.metal>
0.0000

> <Gold.PLP.part.buried>
-8.4908

> <Gold.PLP.part.nonpolar>
-27.0833

> <Gold.PLP.part.repulsive>
0.2969

> <Gold.PLP.ligand.clash>
0.0000

> <Gold.PLP.ligand.torsion>
0.8005

> <Gold.PLP.Chemscore.Hbond>
3.0000

> <Gold.PLP.Chemscore.CHOScore>
0.0000

> <Gold.PLP.Chemscore.Metal>
0.0000

> <Gold.Chemscore.Hbonds>
donor molecule, donor type, donor heavy atom, donor atom, acceptor molecule, acceptor atom, score
      L1  H    27    62       P1 10957  1.62
      P1  H  7989  7998       L1    21  0.96

> <Gold.PLP.Chemscore.Internal.Correction>
0.8456

> <Gold.Rescore>
     Score         DG    S(hbond)    S(metal)    S(lipo)     H(rot)  DE(clash)    DE(int)     intcor
     12.05     -14.18       1.86        0.00      88.54       3.08       0.01       2.12       ----

> <Gold.Chemscore.Fitness>
12.0537

> <Gold.Chemscore.DG>
-14.1837

> <Gold.Chemscore.ZeroCoef>
-5.4800

> <Gold.Chemscore.Hbond>
1.8619

> <Gold.Chemscore.Metal>
0.0000

> <Gold.Chemscore.Lipo>
88.5388

> <Gold.Chemscore.Internal_Hbond>
0.0000

> <Gold.Chemscore.DEClash>
0.0120

> <Gold.Chemscore.DEInternal>
2.1181

> <Gold.Chemscore.Rot>
3.0758

> <Gold.Chemscore.Internal.Correction>
   9.000000E+99

> <Gold.Chemscore.Hbonds>
donor molecule, donor type, donor heavy atom, donor atom, acceptor molecule, acceptor atom, score
      L1  H    27    62       P1 10957  0.79
      P1  H  7989  7998       L1    21  0.45

> <Gold.Chemscore.Hbond.Weighted>
-6.2188

> <Gold.Chemscore.Metal.Weighted>
-0.0000

> <Gold.Chemscore.Lipo.Weighted>
-10.3590

> <Gold.Chemscore.Internal_Hbond.Weighted>
0.0000

> <Gold.Chemscore.DEClash.Weighted>
0.0120

> <Gold.Chemscore.DEInternal.Weighted>
2.1181

> <Gold.Chemscore.Rot.Weighted>
7.8741

> <Gold.Chemscore.Internal.Correction.Weighted>
   9.000000E+99

> <Gold.Protein.RotatedTorsions>
[ 6907 6896 6895 6894 ] final   37.05 input  -60.11 | X-H torsion
[ 7974 7965 7964 7962 ] final -161.60 input  175.53 | X-H torsion
[ 8008 7997 7996 7995 ] final   97.78 input   59.86 | X-H torsion
[ 10167 10162 10161 10158 ] final -176.27 input  -65.29 | X-H torsion
[ 10718 10713 10712 10709 ] final -153.50 input   66.30 | X-H torsion
[ 10763 10752 10751 10750 ] final -116.80 input  -60.55 | X-H torsion
[ 11005 11000 10999 10996 ] final  -14.74 input  -57.11 | X-H torsion

> <Gold.Protein.ActiveResidues>
 VAL166  LYS551  ARG553  GLY616  TRP617  ASP618  TYR619  PRO620  LYS621  CYS622 
 ASP623  PHE694  ASN695  SER759  ASP760  ASP761  ALA762  ILE779  LEU786  VAL792 
 PHE793  MET794  SER795  GLU796  ALA797  LYS798  CYS799  TRP800  GLU811  SER814 

> <Gold.Protein.RotatedAtoms>
  152.1379  134.9085  160.0555 H   0  0  0  0  0  0  0  0  0  0  0  0  # atno 6907 bound_to 6896
  152.0164  133.3876  159.4248 H   0  0  0  0  0  0  0  0  0  0  0  0  # atno 6908 bound_to 6896
  150.6862  134.3596  159.4988 H   0  0  0  0  0  0  0  0  0  0  0  0  # atno 6909 bound_to 6896
  144.7385  140.3374  143.6141 H   0  0  0  0  0  0  0  0  0  0  0  0  # atno 7974 bound_to 7965
  156.0937  140.3253  155.7850 H   0  0  0  0  0  0  0  0  0  0  0  0  # atno 8008 bound_to 7997
  155.4953  140.0565  157.2964 H   0  0  0  0  0  0  0  0  0  0  0  0  # atno 8009 bound_to 7997
  154.4653  140.1986  156.0150 H   0  0  0  0  0  0  0  0  0  0  0  0  # atno 8010 bound_to 7997
  139.5538  144.2040  152.1124 H   0  0  0  0  0  0  0  0  0  0  0  0  # atno 10167 bound_to 10162
  156.4866  130.8328  151.2553 H   0  0  0  0  0  0  0  0  0  0  0  0  # atno 10718 bound_to 10713
  154.8532  135.4333  154.1878 H   0  0  0  0  0  0  0  0  0  0  0  0  # atno 10763 bound_to 10752
  153.2953  135.6964  153.7260 H   0  0  0  0  0  0  0  0  0  0  0  0  # atno 10764 bound_to 10752
  153.6411  135.3468  155.3046 H   0  0  0  0  0  0  0  0  0  0  0  0  # atno 10765 bound_to 10752
  140.7895  133.8299  155.9366 H   0  0  0  0  0  0  0  0  0  0  0  0  # atno 11005 bound_to 11000
  145.7410  139.1764  143.2376 LP  0  0  0  0  0  0  0  0  0  0  0  0  # atno 17320 bound_to 7965
  146.1134  140.7400  142.9492 LP  0  0  0  0  0  0  0  0  0  0  0  0  # atno 17321 bound_to 7965
  140.1541  144.5087  150.6670 LP  0  0  0  0  0  0  0  0  0  0  0  0  # atno 17342 bound_to 10162
  140.6807  143.2325  151.5391 LP  0  0  0  0  0  0  0  0  0  0  0  0  # atno 17343 bound_to 10162
  157.7478  131.0027  150.3011 LP  0  0  0  0  0  0  0  0  0  0  0  0  # atno 17370 bound_to 10713
  156.3468  130.3824  149.7362 LP  0  0  0  0  0  0  0  0  0  0  0  0  # atno 17371 bound_to 10713
  140.9403  134.1909  157.4802 LP  0  0  0  0  0  0  0  0  0  0  0  0  # atno 17394 bound_to 11000
  139.8733  134.9869  156.5345 LP  0  0  0  0  0  0  0  0  0  0  0  0  # atno 17395 bound_to 11000

$$$$
