AV-unprocessed.smi:1154|AV-procd|sdf|4902|dock8
  -GOLD-   22720 3473D 1   1.00000     0.00000
 Structure written by MMmdl.
 42 43  0  0  0  0  0  0  0  0  2 V2000
  145.4135  131.8006  150.5483 C   0  0  0  0  0  0  0  0  0  0  0  0
  145.4149  132.8892  151.6308 C   0  0  2  0  0  0  0  0  0  0  0  0
  144.0702  133.6363  151.6735 C   0  0  0  0  0  0  0  0  0  0  0  0
  144.0943  134.7580  152.7267 C   0  0  2  0  0  0  0  0  0  0  0  0
  142.7660  135.5273  152.7565 C   0  0  0  0  0  0  0  0  0  0  0  0
  145.2855  135.7035  152.4654 C   0  0  0  0  0  0  0  0  0  0  0  0
  146.5822  134.9769  152.4368 N   0  3  1  0  0  0  0  0  0  0  0  0
  147.0671  134.5796  153.7862 C   0  0  0  0  0  0  0  0  0  0  0  0
  147.1605  135.7705  154.7536 C   0  0  0  0  0  0  0  0  0  0  0  0
  148.0362  136.7993  154.2104 N   0  0  0  0  0  0  0  0  0  0  0  0
  148.2859  137.9740  154.8085 C   0  0  0  0  0  0  0  0  0  0  0  0
  147.7829  138.3045  155.8817 O   0  0  0  0  0  0  0  0  0  0  0  0
  149.2419  138.9255  154.0864 C   0  0  0  0  0  0  0  0  0  0  0  0
  150.6238  138.6572  154.4393 N   0  0  0  0  0  0  0  0  0  0  0  0
  151.3532  137.5439  154.3417 C   0  0  0  0  0  0  0  0  0  0  0  0
  152.5843  137.7245  154.7946 N   0  0  0  0  0  0  0  0  0  0  0  0
  152.5834  139.0526  155.1873 N   0  0  0  0  0  0  0  0  0  0  0  0
  151.4230  139.6114  154.9785 N   0  0  0  0  0  0  0  0  0  0  0  0
  146.5769  133.8859  151.4236 C   0  0  0  0  0  0  0  0  0  0  0  0
  145.2678  132.2272  149.5552 H   0  0  0  0  0  0  0  0  0  0  0  0
  144.6148  131.0784  150.7199 H   0  0  0  0  0  0  0  0  0  0  0  0
  146.3558  131.2521  150.5401 H   0  0  0  0  0  0  0  0  0  0  0  0
  145.5532  132.3847  152.5874 H   0  0  0  0  0  0  0  0  0  0  0  0
  143.8529  134.0593  150.6913 H   0  0  0  0  0  0  0  0  0  0  0  0
  143.2633  132.9359  151.8937 H   0  0  0  0  0  0  0  0  0  0  0  0
  144.2235  134.3004  153.7084 H   0  0  0  0  0  0  0  0  0  0  0  0
  142.5671  136.0148  151.8015 H   0  0  0  0  0  0  0  0  0  0  0  0
  142.7755  136.2978  153.5281 H   0  0  0  0  0  0  0  0  0  0  0  0
  141.9305  134.8598  152.9694 H   0  0  0  0  0  0  0  0  0  0  0  0
  145.1525  136.2016  151.5038 H   0  0  0  0  0  0  0  0  0  0  0  0
  145.3187  136.4975  153.2126 H   0  0  0  0  0  0  0  0  0  0  0  0
  146.3680  133.8587  154.2128 H   0  0  0  0  0  0  0  0  0  0  0  0
  148.0258  134.0661  153.7171 H   0  0  0  0  0  0  0  0  0  0  0  0
  146.1821  136.2174  154.9291 H   0  0  0  0  0  0  0  0  0  0  0  0
  147.5405  135.4329  155.7196 H   0  0  0  0  0  0  0  0  0  0  0  0
  148.4845  136.6068  153.3263 H   0  0  0  0  0  0  0  0  0  0  0  0
  149.1238  138.8189  153.0074 H   0  0  0  0  0  0  0  0  0  0  0  0
  149.0053  139.9609  154.3365 H   0  0  0  0  0  0  0  0  0  0  0  0
  150.9845  136.6081  153.9480 H   0  0  0  0  0  0  0  0  0  0  0  0
  147.5320  133.3624  151.4155 H   0  0  0  0  0  0  0  0  0  0  0  0
  146.4844  134.3466  150.4389 H   0  0  0  0  0  0  0  0  0  0  0  0
  147.2571  135.6547  152.1116 H   0  0  0  0  0  0  0  0  0  0  0  0
  1  2  1  0  0  0  0
  1 20  1  0  0  0  0
  1 21  1  0  0  0  0
  1 22  1  0  0  0  0
  2 19  1  0  0  0  0
  2  3  1  0  0  0  0
  2 23  1  0  0  0  0
  3  4  1  0  0  0  0
  3 24  1  0  0  0  0
  3 25  1  0  0  0  0
  4  5  1  0  0  0  0
  4  6  1  0  0  0  0
  4 26  1  0  0  0  0
  5 27  1  0  0  0  0
  5 28  1  0  0  0  0
  5 29  1  0  0  0  0
  6  7  1  0  0  0  0
  6 30  1  0  0  0  0
  6 31  1  0  0  0  0
  7  8  1  0  0  0  0
  7 19  1  0  0  0  0
  7 42  1  0  0  0  0
  8  9  1  0  0  0  0
  8 32  1  0  0  0  0
  8 33  1  0  0  0  0
  9 10  1  0  0  0  0
  9 34  1  0  0  0  0
  9 35  1  0  0  0  0
 10 11  1  0  0  0  0
 10 36  1  0  0  0  0
 11 12  2  0  0  0  0
 11 13  1  0  0  0  0
 13 14  1  0  0  0  0
 13 37  1  0  0  0  0
 13 38  1  0  0  0  0
 14 18  1  0  0  0  0
 14 15  1  0  0  0  0
 15 16  2  0  0  0  0
 15 39  1  0  0  0  0
 16 17  1  0  0  0  0
 17 18  2  0  0  0  0
 19 40  1  0  0  0  0
 19 41  1  0  0  0  0
M  CHG  1   7   1
M  END
> <s_m_source_file>
AV-unprocessed.smi

> <i_m_source_file_index>
1154

> <i_lp_mmshare_version>
43012

> <i_f3d_flags>
0

> <s_epik_input>
W0NIM11bQ0BASF0xW0NIMl1bQ0BASF0oW0NIM10pW0NIMl1OKFtDSDJdMSlbQ0gyXVtDSDJdW05IXUMoPU8pW0NIMl1uMltjSF1ubm4y

> <s_epik_cmdline>
J2VwaWtfcHl0aG9uJywgJy1waCcsICc3LjAnLCAnLXRuJywgJzgnLCAnLW1hJywgJzIwMCcsICctbWV0YWxfYmluZGluZycsICctaW1hZScsICc8aW5maWxlLm1hZT4nLCAnLW9tYWUnLCAnPG91dGZpbGUubWFlPic=

> <r_lp_tautomer_probability>
1

> <r_epik_Ionization_Penalty>
0.00217773

> <r_epik_Ionization_Penalty_Charging>
0.00217329

> <r_epik_Ionization_Penalty_Neutral>
4.43997e-06

> <r_epik_State_Penalty>
0.00149294

> <r_epik_Charging_Adjusted_Penalty>
0.00366623

> <i_epik_Tot_Q>
1

> <i_epik_Tot_abs_Q>
1

> <r_epik_Metal_State_Penalty>
-0

> <b_epik_Metal_Only>
0

> <s_lp_Force_Field>
OPLS_2005

> <r_lp_Energy>
22.2263

> <b_lp_Chiralities_Consistent>
1

> <s_lp_Variant>
AV-unprocessed.smi:1154-3

> <Gold.Version>
5.8.1

> <Gold.Id.Protein>
6NUR|6NUR_protein|mol2

> <Gold.PLP.Fitness>
45.3290

> <Gold.PLP.PLP>
-29.5693

> <Gold.PLP.part.hbond>
-4.2358

> <Gold.PLP.part.metal>
0.0000

> <Gold.PLP.part.buried>
-4.3742

> <Gold.PLP.part.nonpolar>
-20.9254

> <Gold.PLP.part.repulsive>
0.1163

> <Gold.PLP.ligand.clash>
0.0000

> <Gold.PLP.ligand.torsion>
0.3918

> <Gold.PLP.Chemscore.Hbond>
4.5516

> <Gold.PLP.Chemscore.CHOScore>
0.9428

> <Gold.PLP.Chemscore.Metal>
0.0000

> <Gold.Chemscore.Hbonds>
donor molecule, donor type, donor heavy atom, donor atom, acceptor molecule, acceptor atom, score
      L1  H     7    42       P1  7948  2.00
      L1  H    10    36       P1  7948  1.00
      P1  H  7989  7998       L1    18  1.00
      P1  H  7997  8008       L1    17  0.37
      P1  H 10752 10764       L1    16  0.17
      L1  C    15    39       P1  7948  0.03
      L1  C    15    39       P1  7949  0.84

> <Gold.PLP.Chemscore.Internal.Correction>
0.0602

> <Gold.Rescore>
     Score         DG    S(hbond)    S(metal)    S(lipo)     H(rot)  DE(clash)    DE(int)     intcor
     13.91     -14.34       2.98        0.00      49.02       2.67       0.03       0.41       ----

> <Gold.Chemscore.Fitness>
13.9099

> <Gold.Chemscore.DG>
-14.3447

> <Gold.Chemscore.ZeroCoef>
-5.4800

> <Gold.Chemscore.Hbond>
2.9814

> <Gold.Chemscore.Metal>
0.0000

> <Gold.Chemscore.Lipo>
49.0203

> <Gold.Chemscore.Internal_Hbond>
0.0000

> <Gold.Chemscore.DEClash>
0.0251

> <Gold.Chemscore.DEInternal>
0.4097

> <Gold.Chemscore.Rot>
2.6674

> <Gold.Chemscore.Internal.Correction>
   9.000000E+99

> <Gold.Chemscore.Hbonds>
donor molecule, donor type, donor heavy atom, donor atom, acceptor molecule, acceptor atom, score
      L1  H     7    42       P1  7948  0.96
      L1  H    10    36       P1  7948  0.97
      P1  H  7989  7998       L1    18  0.24
      P1  H  7997  8008       L1    17  0.37
      P1  H 10752 10764       L1    16  0.01

> <Gold.Chemscore.Hbond.Weighted>
-9.9579

> <Gold.Chemscore.Metal.Weighted>
-0.0000

> <Gold.Chemscore.Lipo.Weighted>
-5.7354

> <Gold.Chemscore.Internal_Hbond.Weighted>
0.0000

> <Gold.Chemscore.DEClash.Weighted>
0.0251

> <Gold.Chemscore.DEInternal.Weighted>
0.4097

> <Gold.Chemscore.Rot.Weighted>
6.8286

> <Gold.Chemscore.Internal.Correction.Weighted>
   9.000000E+99

> <Gold.Protein.RotatedTorsions>
[ 6907 6896 6895 6894 ] final  162.53 input  -60.11 | X-H torsion
[ 7974 7965 7964 7962 ] final  -29.40 input  175.53 | X-H torsion
[ 8008 7997 7996 7995 ] final  -24.16 input   59.86 | X-H torsion
[ 10167 10162 10161 10158 ] final   77.86 input  -65.29 | X-H torsion
[ 10718 10713 10712 10709 ] final  150.00 input   66.30 | X-H torsion
[ 10763 10752 10751 10750 ] final  -66.65 input  -60.55 | X-H torsion
[ 11005 11000 10999 10996 ] final   74.56 input  -57.11 | X-H torsion

> <Gold.Protein.ActiveResidues>
 VAL166  LYS551  ARG553  GLY616  TRP617  ASP618  TYR619  PRO620  LYS621  CYS622 
 ASP623  PHE694  ASN695  SER759  ASP760  ASP761  ALA762  ILE779  LEU786  VAL792 
 PHE793  MET794  SER795  GLU796  ALA797  LYS798  CYS799  TRP800  GLU811  SER814 

> <Gold.Protein.RotatedAtoms>
  151.9391  133.3633  159.3958 H   0  0  0  0  0  0  0  0  0  0  0  0  # atno 6907 bound_to 6896
  150.7002  134.4458  159.5322 H   0  0  0  0  0  0  0  0  0  0  0  0  # atno 6908 bound_to 6896
  152.2112  134.8500  160.0548 H   0  0  0  0  0  0  0  0  0  0  0  0  # atno 6909 bound_to 6896
  146.1219  140.5407  142.8731 H   0  0  0  0  0  0  0  0  0  0  0  0  # atno 7974 bound_to 7965
  154.4545  140.1961  156.0421 H   0  0  0  0  0  0  0  0  0  0  0  0  # atno 8008 bound_to 7997
  156.0717  140.3283  155.7556 H   0  0  0  0  0  0  0  0  0  0  0  0  # atno 8009 bound_to 7997
  155.5253  140.0573  157.2890 H   0  0  0  0  0  0  0  0  0  0  0  0  # atno 8010 bound_to 7997
  139.9770  144.5853  150.7934 H   0  0  0  0  0  0  0  0  0  0  0  0  # atno 10167 bound_to 10162
  157.2890  131.0849  151.1476 H   0  0  0  0  0  0  0  0  0  0  0  0  # atno 10718 bound_to 10713
  154.3630  135.6112  153.5700 H   0  0  0  0  0  0  0  0  0  0  0  0  # atno 10763 bound_to 10752
  152.9793  135.5820  154.4611 H   0  0  0  0  0  0  0  0  0  0  0  0  # atno 10764 bound_to 10752
  154.4352  135.2849  155.1863 H   0  0  0  0  0  0  0  0  0  0  0  0  # atno 10765 bound_to 10752
  139.9385  134.7443  156.1163 H   0  0  0  0  0  0  0  0  0  0  0  0  # atno 11005 bound_to 11000
  144.7605  140.5411  143.6738 LP  0  0  0  0  0  0  0  0  0  0  0  0  # atno 17320 bound_to 7965
  145.5447  139.1476  143.3427 LP  0  0  0  0  0  0  0  0  0  0  0  0  # atno 17321 bound_to 7965
  140.7502  143.2952  151.3225 LP  0  0  0  0  0  0  0  0  0  0  0  0  # atno 17342 bound_to 10162
  139.6438  144.0490  152.2575 LP  0  0  0  0  0  0  0  0  0  0  0  0  # atno 17343 bound_to 10162
  157.2880  130.6782  149.6099 LP  0  0  0  0  0  0  0  0  0  0  0  0  # atno 17370 bound_to 10713
  155.9666  130.4429  150.5401 LP  0  0  0  0  0  0  0  0  0  0  0  0  # atno 17371 bound_to 10713
  141.1010  133.6677  156.2753 LP  0  0  0  0  0  0  0  0  0  0  0  0  # atno 17394 bound_to 11000
  140.6013  134.5552  157.5518 LP  0  0  0  0  0  0  0  0  0  0  0  0  # atno 17395 bound_to 11000

$$$$
