AV-unprocessed.smi:2001|AV-procd|sdf|8105|dock2
  -GOLD-   2272010333D 1   1.00000     0.00000
 Structure written by MMmdl.
 51 52  0  0  0  0  0  0  0  0  2 V2000
  155.3975  140.2196  160.7584 C   0  0  0  0  0  0  0  0  0  0  0  0
  154.7148  141.4552  160.6366 O   0  0  0  0  0  0  0  0  0  0  0  0
  153.5664  141.5253  161.4644 C   0  0  0  0  0  0  0  0  0  0  0  0
  152.9626  142.9337  161.3566 C   0  0  0  0  0  0  0  0  0  0  0  0
  152.3976  143.1785  160.0258 N   0  0  0  0  0  0  0  0  0  0  0  0
  152.3876  142.0644  159.2028 N   0  0  0  0  0  0  0  0  0  0  0  0
  151.9179  142.1491  157.9999 C   0  0  0  0  0  0  0  0  0  0  0  0
  151.8965  140.9766  157.0812 C   0  0  0  0  0  0  0  0  0  0  0  0
  152.5791  139.9722  157.2892 O   0  0  0  0  0  0  0  0  0  0  0  0
  151.0814  141.0914  156.0183 N   0  0  0  0  0  0  0  0  0  0  0  0
  150.8893  140.0599  155.0082 C   0  0  0  0  0  0  0  0  0  0  0  0
  149.3975  139.9144  154.6659 C   0  0  0  0  0  0  0  0  0  0  0  0
  148.5788  141.0456  155.1704 N   0  3  1  0  0  0  0  0  0  0  0  0
  147.7175  141.6266  154.1132 C   0  0  0  0  0  0  0  0  0  0  0  0
  146.9298  142.8346  154.6546 C   0  0  1  0  0  0  0  0  0  0  0  0
  145.9645  143.4083  153.6116 C   0  0  0  0  0  0  0  0  0  0  0  0
  146.1679  142.4234  155.7840 O   0  0  0  0  0  0  0  0  0  0  0  0
  146.9821  141.9464  156.8494 C   0  0  1  0  0  0  0  0  0  0  0  0
  146.0710  141.6257  158.0397 C   0  0  0  0  0  0  0  0  0  0  0  0
  147.7683  140.7119  156.3681 C   0  0  0  0  0  0  0  0  0  0  0  0
  151.3904  143.4049  157.4937 C   0  0  0  0  0  0  0  0  0  0  0  0
  151.4008  144.4810  158.3105 C   0  0  0  0  0  0  0  0  0  0  0  0
  151.9255  144.4128  159.6752 C   0  0  0  0  0  0  0  0  0  0  0  0
  151.9390  145.3766  160.4400 O   0  0  0  0  0  0  0  0  0  0  0  0
  156.2676  140.2159  160.1020 H   0  0  0  0  0  0  0  0  0  0  0  0
  154.7568  139.3845  160.4727 H   0  0  0  0  0  0  0  0  0  0  0  0
  155.7457  140.0603  161.7797 H   0  0  0  0  0  0  0  0  0  0  0  0
  152.8356  140.7786  161.1488 H   0  0  0  0  0  0  0  0  0  0  0  0
  153.8388  141.3054  162.4980 H   0  0  0  0  0  0  0  0  0  0  0  0
  152.2010  143.0742  162.1258 H   0  0  0  0  0  0  0  0  0  0  0  0
  153.7335  143.6751  161.5747 H   0  0  0  0  0  0  0  0  0  0  0  0
  150.5538  141.9467  155.9149 H   0  0  0  0  0  0  0  0  0  0  0  0
  151.4663  140.3236  154.1214 H   0  0  0  0  0  0  0  0  0  0  0  0
  151.2853  139.1157  155.3848 H   0  0  0  0  0  0  0  0  0  0  0  0
  149.3017  139.8670  153.5800 H   0  0  0  0  0  0  0  0  0  0  0  0
  149.0029  138.9732  155.0524 H   0  0  0  0  0  0  0  0  0  0  0  0
  148.3324  141.9396  153.2683 H   0  0  0  0  0  0  0  0  0  0  0  0
  147.0307  140.8629  153.7442 H   0  0  0  0  0  0  0  0  0  0  0  0
  147.6230  143.6220  154.9559 H   0  0  0  0  0  0  0  0  0  0  0  0
  146.4999  143.7418  152.7225 H   0  0  0  0  0  0  0  0  0  0  0  0
  145.4212  144.2642  154.0129 H   0  0  0  0  0  0  0  0  0  0  0  0
  145.2303  142.6642  153.3011 H   0  0  0  0  0  0  0  0  0  0  0  0
  147.6784  142.7319  157.1488 H   0  0  0  0  0  0  0  0  0  0  0  0
  146.6483  141.2619  158.8900 H   0  0  0  0  0  0  0  0  0  0  0  0
  145.3370  140.8618  157.7816 H   0  0  0  0  0  0  0  0  0  0  0  0
  145.5270  142.5131  158.3639 H   0  0  0  0  0  0  0  0  0  0  0  0
  147.0819  139.8980  156.1283 H   0  0  0  0  0  0  0  0  0  0  0  0
  148.4098  140.3617  157.1759 H   0  0  0  0  0  0  0  0  0  0  0  0
  150.9963  143.4843  156.4909 H   0  0  0  0  0  0  0  0  0  0  0  0
  151.0108  145.4206  157.9474 H   0  0  0  0  0  0  0  0  0  0  0  0
  149.2242  141.7735  155.4429 H   0  0  0  0  0  0  0  0  0  0  0  0
  1  2  1  0  0  0  0
  1 25  1  0  0  0  0
  1 26  1  0  0  0  0
  1 27  1  0  0  0  0
  2  3  1  0  0  0  0
  3  4  1  0  0  0  0
  3 28  1  0  0  0  0
  3 29  1  0  0  0  0
  4  5  1  0  0  0  0
  4 30  1  0  0  0  0
  4 31  1  0  0  0  0
  5 23  1  0  0  0  0
  5  6  1  0  0  0  0
  6  7  2  0  0  0  0
  7  8  1  0  0  0  0
  7 21  1  0  0  0  0
  8  9  2  0  0  0  0
  8 10  1  0  0  0  0
 10 11  1  0  0  0  0
 10 32  1  0  0  0  0
 11 12  1  0  0  0  0
 11 33  1  0  0  0  0
 11 34  1  0  0  0  0
 12 13  1  0  0  0  0
 12 35  1  0  0  0  0
 12 36  1  0  0  0  0
 13 20  1  0  0  0  0
 13 14  1  0  0  0  0
 13 51  1  0  0  0  0
 14 15  1  0  0  0  0
 14 37  1  0  0  0  0
 14 38  1  0  0  0  0
 15 16  1  0  0  0  0
 15 17  1  0  0  0  0
 15 39  1  0  0  0  0
 16 40  1  0  0  0  0
 16 41  1  0  0  0  0
 16 42  1  0  0  0  0
 17 18  1  0  0  0  0
 18 19  1  0  0  0  0
 18 20  1  0  0  0  0
 18 43  1  0  0  0  0
 19 44  1  0  0  0  0
 19 45  1  0  0  0  0
 19 46  1  0  0  0  0
 20 47  1  0  0  0  0
 20 48  1  0  0  0  0
 21 22  2  0  0  0  0
 21 49  1  0  0  0  0
 22 23  1  0  0  0  0
 22 50  1  0  0  0  0
 23 24  2  0  0  0  0
M  CHG  1  13   1
M  END
> <s_m_source_file>
AV-unprocessed.smi

> <i_m_source_file_index>
2001

> <i_lp_mmshare_version>
43012

> <i_f3d_flags>
0

> <s_epik_input>
W0NIM11PW0NIMl1bQ0gyXW4xbmMoW2NIXVtjSF1jMT1PKUMoPU8pW05IXVtDSDJdW0NIMl1OMltDSDJdW0NAQEhdKFtDSDNdKU9bQ0BASF0oW0NIM10pW0NIMl0y

> <s_epik_cmdline>
J2VwaWtfcHl0aG9uJywgJy1waCcsICc3LjAnLCAnLXRuJywgJzgnLCAnLW1hJywgJzIwMCcsICctbWV0YWxfYmluZGluZycsICctaW1hZScsICc8aW5maWxlLm1hZT4nLCAnLW9tYWUnLCAnPG91dGZpbGUubWFlPic=

> <r_lp_tautomer_probability>
1

> <r_epik_Ionization_Penalty>
0.724354

> <r_epik_Ionization_Penalty_Charging>
0.724348

> <r_epik_Ionization_Penalty_Neutral>
6.1656e-06

> <r_epik_State_Penalty>
0.749058

> <r_epik_Charging_Adjusted_Penalty>
1.47341

> <i_epik_Tot_Q>
1

> <i_epik_Tot_abs_Q>
1

> <r_epik_Metal_State_Penalty>
0.750779

> <b_epik_Metal_Only>
0

> <s_lp_Force_Field>
OPLS_2005

> <r_lp_Energy>
35.6345

> <b_lp_Chiralities_Consistent>
1

> <s_lp_Variant>
AV-unprocessed.smi:2001-4

> <Gold.Version>
5.8.1

> <Gold.Id.Protein>
6NUR|6NUR_protein|mol2

> <Gold.PLP.Fitness>
46.8777

> <Gold.PLP.PLP>
-46.1078

> <Gold.PLP.part.hbond>
-1.7480

> <Gold.PLP.part.metal>
0.0000

> <Gold.PLP.part.buried>
-5.4750

> <Gold.PLP.part.nonpolar>
-38.3427

> <Gold.PLP.part.repulsive>
0.5012

> <Gold.PLP.ligand.clash>
0.0000

> <Gold.PLP.ligand.torsion>
1.2964

> <Gold.PLP.Chemscore.Hbond>
1.0000

> <Gold.PLP.Chemscore.CHOScore>
0.0000

> <Gold.PLP.Chemscore.Metal>
0.0000

> <Gold.Chemscore.Hbonds>
donor molecule, donor type, donor heavy atom, donor atom, acceptor molecule, acceptor atom, score
      P1  H  7997  8008       L1     9  1.00

> <Gold.PLP.Chemscore.Internal.Correction>
0.3626

> <Gold.Rescore>
     Score         DG    S(hbond)    S(metal)    S(lipo)     H(rot)  DE(clash)    DE(int)     intcor
     11.49     -14.13       0.95        0.00      92.12       2.07       0.03       2.61       ----

> <Gold.Chemscore.Fitness>
11.4895

> <Gold.Chemscore.DG>
-14.1315

> <Gold.Chemscore.ZeroCoef>
-5.4800

> <Gold.Chemscore.Hbond>
0.9516

> <Gold.Chemscore.Metal>
0.0000

> <Gold.Chemscore.Lipo>
92.1174

> <Gold.Chemscore.Internal_Hbond>
0.0000

> <Gold.Chemscore.DEClash>
0.0320

> <Gold.Chemscore.DEInternal>
2.6100

> <Gold.Chemscore.Rot>
2.0721

> <Gold.Chemscore.Internal.Correction>
   9.000000E+99

> <Gold.Chemscore.Hbonds>
donor molecule, donor type, donor heavy atom, donor atom, acceptor molecule, acceptor atom, score
      P1  H  7997  8008       L1     9  0.87

> <Gold.Chemscore.Hbond.Weighted>
-3.1784

> <Gold.Chemscore.Metal.Weighted>
-0.0000

> <Gold.Chemscore.Lipo.Weighted>
-10.7777

> <Gold.Chemscore.Internal_Hbond.Weighted>
0.0000

> <Gold.Chemscore.DEClash.Weighted>
0.0320

> <Gold.Chemscore.DEInternal.Weighted>
2.6100

> <Gold.Chemscore.Rot.Weighted>
5.3047

> <Gold.Chemscore.Internal.Correction.Weighted>
   9.000000E+99

> <Gold.Protein.RotatedTorsions>
[ 6907 6896 6895 6894 ] final   77.97 input  -60.11 | X-H torsion
[ 7974 7965 7964 7962 ] final  -71.12 input  175.53 | X-H torsion
[ 8008 7997 7996 7995 ] final  -58.11 input   59.86 | X-H torsion
[ 10167 10162 10161 10158 ] final -116.98 input  -65.29 | X-H torsion
[ 10718 10713 10712 10709 ] final   -5.52 input   66.30 | X-H torsion
[ 10763 10752 10751 10750 ] final  -44.41 input  -60.55 | X-H torsion
[ 11005 11000 10999 10996 ] final  132.72 input  -57.11 | X-H torsion

> <Gold.Protein.ActiveResidues>
 VAL166  LYS551  ARG553  GLY616  TRP617  ASP618  TYR619  PRO620  LYS621  CYS622 
 ASP623  PHE694  ASN695  SER759  ASP760  ASP761  ALA762  ILE779  LEU786  VAL792 
 PHE793  MET794  SER795  GLU796  ALA797  LYS798  CYS799  TRP800  GLU811  SER814 

> <Gold.Protein.RotatedAtoms>
  152.5140  134.3736  159.9326 H   0  0  0  0  0  0  0  0  0  0  0  0  # atno 6907 bound_to 6896
  151.3691  133.3855  159.2705 H   0  0  0  0  0  0  0  0  0  0  0  0  # atno 6908 bound_to 6896
  150.9592  134.9001  159.7778 H   0  0  0  0  0  0  0  0  0  0  0  0  # atno 6909 bound_to 6896
  145.6822  140.9184  143.0826 H   0  0  0  0  0  0  0  0  0  0  0  0  # atno 7974 bound_to 7965
  154.4295  140.1091  156.5904 H   0  0  0  0  0  0  0  0  0  0  0  0  # atno 8008 bound_to 7997
  155.6017  140.3493  155.4577 H   0  0  0  0  0  0  0  0  0  0  0  0  # atno 8009 bound_to 7997
  156.0168  140.1231  157.0388 H   0  0  0  0  0  0  0  0  0  0  0  0  # atno 8010 bound_to 7997
  140.0734  143.4856  152.1967 H   0  0  0  0  0  0  0  0  0  0  0  0  # atno 10167 bound_to 10162
  156.7454  130.5222  149.5815 H   0  0  0  0  0  0  0  0  0  0  0  0  # atno 10718 bound_to 10713
  154.0115  135.6681  153.4765 H   0  0  0  0  0  0  0  0  0  0  0  0  # atno 10763 bound_to 10752
  153.0619  135.5023  154.8108 H   0  0  0  0  0  0  0  0  0  0  0  0  # atno 10764 bound_to 10752
  154.6992  135.3075  154.9330 H   0  0  0  0  0  0  0  0  0  0  0  0  # atno 10765 bound_to 10752
  139.9807  134.9549  156.9622 H   0  0  0  0  0  0  0  0  0  0  0  0  # atno 11005 bound_to 11000
  144.7022  139.8711  143.7440 LP  0  0  0  0  0  0  0  0  0  0  0  0  # atno 17320 bound_to 7965
  146.0954  139.3946  143.0380 LP  0  0  0  0  0  0  0  0  0  0  0  0  # atno 17321 bound_to 7965
  139.5822  144.7516  151.3610 LP  0  0  0  0  0  0  0  0  0  0  0  0  # atno 17342 bound_to 10162
  140.7114  143.7380  150.7574 LP  0  0  0  0  0  0  0  0  0  0  0  0  # atno 17343 bound_to 10162
  156.1437  130.6262  151.0502 LP  0  0  0  0  0  0  0  0  0  0  0  0  # atno 17370 bound_to 10713
  157.6800  131.0840  150.7394 LP  0  0  0  0  0  0  0  0  0  0  0  0  # atno 17371 bound_to 10713
  140.5102  134.1010  155.7268 LP  0  0  0  0  0  0  0  0  0  0  0  0  # atno 17394 bound_to 11000
  141.1479  133.9021  157.2169 LP  0  0  0  0  0  0  0  0  0  0  0  0  # atno 17395 bound_to 11000

$$$$
