AV-unprocessed.smi:828|AV-procd|sdf|3863|dock3
  -GOLD-   22720 1313D 1   1.00000     0.00000
 Structure written by MMmdl.
 34 35  0  0  0  0  0  0  0  0  3 V2000
  152.1722  138.5362  159.3450 C   0  0  0  0  0  0  0  0  0  0  0  0
  151.6575  137.5450  158.3585 C   0  0  0  0  0  0  0  0  0  0  0  0
  150.8366  136.5483  158.6984 N   0  0  0  0  0  0  0  0  0  0  0  0
  150.4926  135.7601  157.6098 N   0  0  0  0  0  0  0  0  0  0  0  0
  151.0621  136.1654  156.4661 C   0  0  0  0  0  0  0  0  0  0  0  0
  150.8527  135.5387  155.2964 N   0  5  0  0  0  0  0  0  0  0  0  0
  150.1535  134.3829  155.2649 C   0  0  0  0  0  0  0  0  0  0  0  0
  150.1899  133.4808  156.1045 O   0  0  0  0  0  0  0  0  0  0  0  0
  149.3731  134.2592  154.1827 N   0  0  0  0  0  0  0  0  0  0  0  0
  148.5489  133.1021  153.8444 C   0  0  0  0  0  0  0  0  0  0  0  0
  147.7735  133.2951  152.5201 C   0  0  1  0  0  0  0  0  0  0  0  0
  146.7912  132.1763  152.1768 C   0  0  0  0  0  0  0  0  0  0  0  0
  145.8699  132.8066  151.1278 C   0  0  0  0  0  0  0  0  0  0  0  0
  146.0902  134.3254  151.2382 C   0  0  0  0  0  0  0  0  0  0  0  0
  146.9883  134.5483  152.3938 N   0  3  1  0  0  0  0  0  0  0  0  0
  146.2404  134.9641  153.6066 C   0  0  0  0  0  0  0  0  0  0  0  0
  152.0748  137.5971  156.6538 S   0  0  0  0  0  0  0  0  0  0  0  0
  152.5343  138.0259  160.2378 H   0  0  0  0  0  0  0  0  0  0  0  0
  151.3767  139.2246  159.6306 H   0  0  0  0  0  0  0  0  0  0  0  0
  152.9934  139.1086  158.9138 H   0  0  0  0  0  0  0  0  0  0  0  0
  149.3616  135.0331  153.5343 H   0  0  0  0  0  0  0  0  0  0  0  0
  149.1773  132.2122  153.7838 H   0  0  0  0  0  0  0  0  0  0  0  0
  147.8587  132.9256  154.6696 H   0  0  0  0  0  0  0  0  0  0  0  0
  148.5036  133.3281  151.7096 H   0  0  0  0  0  0  0  0  0  0  0  0
  147.2914  131.2789  151.8113 H   0  0  0  0  0  0  0  0  0  0  0  0
  146.2121  131.8984  153.0585 H   0  0  0  0  0  0  0  0  0  0  0  0
  146.1261  132.4604  150.1259 H   0  0  0  0  0  0  0  0  0  0  0  0
  144.8296  132.5367  151.3123 H   0  0  0  0  0  0  0  0  0  0  0  0
  146.5988  134.6846  150.3425 H   0  0  0  0  0  0  0  0  0  0  0  0
  145.1520  134.8766  151.3163 H   0  0  0  0  0  0  0  0  0  0  0  0
  145.5545  134.1838  153.9378 H   0  0  0  0  0  0  0  0  0  0  0  0
  145.6568  135.8620  153.4009 H   0  0  0  0  0  0  0  0  0  0  0  0
  146.9092  135.2074  154.4313 H   0  0  0  0  0  0  0  0  0  0  0  0
  147.6254  135.3007  152.1729 H   0  0  0  0  0  0  0  0  0  0  0  0
  1  2  1  0  0  0  0
  1 18  1  0  0  0  0
  1 19  1  0  0  0  0
  1 20  1  0  0  0  0
  2 17  1  0  0  0  0
  2  3  2  0  0  0  0
  3  4  1  0  0  0  0
  4  5  2  0  0  0  0
  5  6  1  0  0  0  0
  5 17  1  0  0  0  0
  6  7  1  0  0  0  0
  7  8  2  0  0  0  0
  7  9  1  0  0  0  0
  9 10  1  0  0  0  0
  9 21  1  0  0  0  0
 10 11  1  0  0  0  0
 10 22  1  0  0  0  0
 10 23  1  0  0  0  0
 11 15  1  0  0  0  0
 11 12  1  0  0  0  0
 11 24  1  0  0  0  0
 12 13  1  0  0  0  0
 12 25  1  0  0  0  0
 12 26  1  0  0  0  0
 13 14  1  0  0  0  0
 13 27  1  0  0  0  0
 13 28  1  0  0  0  0
 14 15  1  0  0  0  0
 14 29  1  0  0  0  0
 14 30  1  0  0  0  0
 15 16  1  0  0  0  0
 15 34  1  0  0  0  0
 16 31  1  0  0  0  0
 16 32  1  0  0  0  0
 16 33  1  0  0  0  0
M  CHG  1   6  -1
M  CHG  1  15   1
M  END
> <s_m_source_file>
AV-unprocessed.smi

> <i_m_source_file_index>
828

> <i_lp_mmshare_version>
43012

> <i_f3d_flags>
0

> <s_epik_input>
W0NIM11jMW5uYyhzMSlbTkhdQyg9TylbTkhdW0NIMl1bQ0BASF0yW0NIMl1bQ0gyXVtDSDJdTjJbQ0gzXQ==

> <s_epik_cmdline>
J2VwaWtfcHl0aG9uJywgJy1waCcsICc3LjAnLCAnLXRuJywgJzgnLCAnLW1hJywgJzIwMCcsICctbWV0YWxfYmluZGluZycsICctaW1hZScsICc8aW5maWxlLm1hZT4nLCAnLW9tYWUnLCAnPG91dGZpbGUubWFlPic=

> <r_lp_tautomer_probability>
1

> <r_epik_Ionization_Penalty>
3.94379

> <r_epik_Ionization_Penalty_Charging>
3.83377

> <r_epik_Ionization_Penalty_Neutral>
0.110023

> <r_epik_State_Penalty>
3.83036

> <r_epik_Charging_Adjusted_Penalty>
7.66413

> <i_epik_Tot_Q>
0

> <i_epik_Tot_abs_Q>
2

> <r_epik_Metal_State_Penalty>
0.575095

> <b_epik_Metal_Only>
1

> <s_lp_Force_Field>
OPLS_2005

> <r_lp_Energy>
27.8836

> <b_lp_Chiralities_Consistent>
1

> <s_lp_Variant>
AV-unprocessed.smi:828-6

> <Gold.Version>
5.8.1

> <Gold.Id.Protein>
6NUR|6NUR_protein|mol2

> <Gold.PLP.Fitness>
39.8061

> <Gold.PLP.PLP>
-24.4279

> <Gold.PLP.part.hbond>
-5.0000

> <Gold.PLP.part.metal>
0.0000

> <Gold.PLP.part.buried>
-2.8387

> <Gold.PLP.part.nonpolar>
-16.3918

> <Gold.PLP.part.repulsive>
0.1569

> <Gold.PLP.ligand.clash>
0.0000

> <Gold.PLP.ligand.torsion>
0.3062

> <Gold.PLP.Chemscore.Hbond>
5.3284

> <Gold.PLP.Chemscore.CHOScore>
0.0000

> <Gold.PLP.Chemscore.Metal>
0.0000

> <Gold.Chemscore.Hbonds>
donor molecule, donor type, donor heavy atom, donor atom, acceptor molecule, acceptor atom, score
      L1  H     9    21       P1  7948  0.71
      L1  H    15    34       P1  7948  2.00
      P1  H  6896  6907       L1     3  0.71
      P1  H 10752 10764       L1     6  1.08

> <Gold.PLP.Chemscore.Internal.Correction>
0.0056

> <Gold.Rescore>
     Score         DG    S(hbond)    S(metal)    S(lipo)     H(rot)  DE(clash)    DE(int)     intcor
     10.72     -12.47       1.46        0.00      46.74       1.31       0.01       1.74       ----

> <Gold.Chemscore.Fitness>
10.7166

> <Gold.Chemscore.DG>
-12.4691

> <Gold.Chemscore.ZeroCoef>
-5.4800

> <Gold.Chemscore.Hbond>
1.4631

> <Gold.Chemscore.Metal>
0.0000

> <Gold.Chemscore.Lipo>
46.7389

> <Gold.Chemscore.Internal_Hbond>
0.0000

> <Gold.Chemscore.DEClash>
0.0108

> <Gold.Chemscore.DEInternal>
1.7417

> <Gold.Chemscore.Rot>
1.3149

> <Gold.Chemscore.Internal.Correction>
   9.000000E+99

> <Gold.Chemscore.Hbonds>
donor molecule, donor type, donor heavy atom, donor atom, acceptor molecule, acceptor atom, score
      L1  H     9    21       P1  7948  0.08
      L1  H    15    34       P1  7948  0.98
      P1  H  6896  6907       L1     3  0.16
      P1  H 10752 10764       L1     6  0.11

> <Gold.Chemscore.Hbond.Weighted>
-4.8869

> <Gold.Chemscore.Metal.Weighted>
-0.0000

> <Gold.Chemscore.Lipo.Weighted>
-5.4684

> <Gold.Chemscore.Internal_Hbond.Weighted>
0.0000

> <Gold.Chemscore.DEClash.Weighted>
0.0108

> <Gold.Chemscore.DEInternal.Weighted>
1.7417

> <Gold.Chemscore.Rot.Weighted>
3.3662

> <Gold.Chemscore.Internal.Correction.Weighted>
   9.000000E+99

> <Gold.Protein.RotatedTorsions>
[ 6907 6896 6895 6894 ] final   -7.95 input  -60.11 | X-H torsion
[ 7974 7965 7964 7962 ] final  -40.85 input  175.53 | X-H torsion
[ 8008 7997 7996 7995 ] final -140.13 input   59.86 | X-H torsion
[ 10167 10162 10161 10158 ] final   22.37 input  -65.29 | X-H torsion
[ 10718 10713 10712 10709 ] final  -56.61 input   66.30 | X-H torsion
[ 10763 10752 10751 10750 ] final  -63.99 input  -60.55 | X-H torsion
[ 11005 11000 10999 10996 ] final   36.82 input  -57.11 | X-H torsion

> <Gold.Protein.ActiveResidues>
 VAL166  LYS551  ARG553  GLY616  TRP617  ASP618  TYR619  PRO620  LYS621  CYS622 
 ASP623  PHE694  ASN695  SER759  ASP760  ASP761  ALA762  ILE779  LEU786  VAL792 
 PHE793  MET794  SER795  GLU796  ALA797  LYS798  CYS799  TRP800  GLU811  SER814 

> <Gold.Protein.RotatedAtoms>
  151.4413  135.1020  159.9670 H   0  0  0  0  0  0  0  0  0  0  0  0  # atno 6907 bound_to 6896
  152.4921  133.8525  159.7219 H   0  0  0  0  0  0  0  0  0  0  0  0  # atno 6908 bound_to 6896
  150.9086  133.6968  159.2888 H   0  0  0  0  0  0  0  0  0  0  0  0  # atno 6909 bound_to 6896
  146.0266  140.6784  142.9152 H   0  0  0  0  0  0  0  0  0  0  0  0  # atno 7974 bound_to 7965
  155.4563  140.0542  157.2996 H   0  0  0  0  0  0  0  0  0  0  0  0  # atno 8008 bound_to 7997
  154.4756  140.2059  155.9842 H   0  0  0  0  0  0  0  0  0  0  0  0  # atno 8009 bound_to 7997
  156.1126  140.3201  155.8099 H   0  0  0  0  0  0  0  0  0  0  0  0  # atno 8010 bound_to 7997
  140.5354  143.9769  150.6488 H   0  0  0  0  0  0  0  0  0  0  0  0  # atno 10167 bound_to 10162
  156.1275  130.4161  150.0329 H   0  0  0  0  0  0  0  0  0  0  0  0  # atno 10718 bound_to 10713
  154.3234  135.6191  153.5518 H   0  0  0  0  0  0  0  0  0  0  0  0  # atno 10763 bound_to 10752
  152.9818  135.5729  154.5044 H   0  0  0  0  0  0  0  0  0  0  0  0  # atno 10764 bound_to 10752
  154.4717  135.2859  155.1614 H   0  0  0  0  0  0  0  0  0  0  0  0  # atno 10765 bound_to 10752
  140.2287  134.3553  155.7973 H   0  0  0  0  0  0  0  0  0  0  0  0  # atno 11005 bound_to 11000
  144.7012  140.3661  143.7154 LP  0  0  0  0  0  0  0  0  0  0  0  0  # atno 17320 bound_to 7965
  145.7108  139.1684  143.2540 LP  0  0  0  0  0  0  0  0  0  0  0  0  # atno 17321 bound_to 7965
  140.3156  143.3170  152.0836 LP  0  0  0  0  0  0  0  0  0  0  0  0  # atno 17342 bound_to 10162
  139.4969  144.6608  151.6469 LP  0  0  0  0  0  0  0  0  0  0  0  0  # atno 17343 bound_to 10162
  156.8250  130.9372  151.3639 LP  0  0  0  0  0  0  0  0  0  0  0  0  # atno 17370 bound_to 10713
  157.6455  130.8841  149.9531 LP  0  0  0  0  0  0  0  0  0  0  0  0  # atno 17371 bound_to 10713
  141.2219  133.7233  156.8696 LP  0  0  0  0  0  0  0  0  0  0  0  0  # atno 17394 bound_to 11000
  140.1773  134.9058  157.2906 LP  0  0  0  0  0  0  0  0  0  0  0  0  # atno 17395 bound_to 11000

$$$$
