AV-unprocessed.smi:862|AV-procd|sdf|3978|dock8
  -GOLD-   22720 1453D 1   1.00000     0.00000
 Structure written by MMmdl.
 44 46  0  0  0  0  0  0  0  0  2 V2000
  149.7194  130.2657  157.0330 N   0  0  0  0  0  0  0  0  0  0  0  0
  150.2221  131.4829  156.8062 C   0  0  0  0  0  0  0  0  0  0  0  0
  150.5485  132.2160  157.7379 O   0  0  0  0  0  0  0  0  0  0  0  0
  150.3749  131.8127  155.4988 N   0  0  0  0  0  0  0  0  0  0  0  0
  149.9676  130.9954  154.3439 C   0  0  0  0  0  0  0  0  0  0  0  0
  148.6897  131.5996  153.7330 C   0  0  0  0  0  0  0  0  0  0  0  0
  148.9023  133.0806  153.3401 C   0  0  0  0  0  0  0  0  0  0  0  0
  147.6386  133.7167  152.9062 N   0  3  0  0  0  0  0  0  0  0  0  0
  146.7231  132.8737  152.1002 C   0  0  2  0  0  0  0  0  0  0  0  0
  147.1216  132.7721  150.6232 C   0  0  0  0  0  0  0  0  0  0  0  0
  145.8308  132.3923  149.8849 C   0  0  0  0  0  0  0  0  0  0  0  0
  144.6663  132.6974  150.8437 C   0  0  0  0  0  0  0  0  0  0  0  0
  145.2744  133.3956  152.0719 C   0  0  2  0  0  0  0  0  0  0  0  0
  145.1823  134.8524  151.9869 N   0  0  0  0  0  0  0  0  0  0  0  0
  145.6568  135.6975  150.9875 C   0  0  0  0  0  0  0  0  0  0  0  0
  145.3614  136.9830  151.3803 C   0  0  0  0  0  0  0  0  0  0  0  0
  144.7219  136.9587  152.6159 N   0  0  0  0  0  0  0  0  0  0  0  0
  144.6505  135.6677  152.9096 C   0  0  0  0  0  0  0  0  0  0  0  0
  149.5107  133.8770  154.5134 C   0  0  0  0  0  0  0  0  0  0  0  0
  150.7529  133.1682  155.0819 C   0  0  0  0  0  0  0  0  0  0  0  0
  149.5904  129.9486  157.9831 H   0  0  0  0  0  0  0  0  0  0  0  0
  149.4826  129.6635  156.2587 H   0  0  0  0  0  0  0  0  0  0  0  0
  150.7700  130.9967  153.6048 H   0  0  0  0  0  0  0  0  0  0  0  0
  149.7995  129.9456  154.5841 H   0  0  0  0  0  0  0  0  0  0  0  0
  148.3950  131.0095  152.8654 H   0  0  0  0  0  0  0  0  0  0  0  0
  147.8739  131.5202  154.4534 H   0  0  0  0  0  0  0  0  0  0  0  0
  149.6166  133.1228  152.5172 H   0  0  0  0  0  0  0  0  0  0  0  0
  147.1489  134.0296  153.7323 H   0  0  0  0  0  0  0  0  0  0  0  0
  146.6969  131.8683  152.5213 H   0  0  0  0  0  0  0  0  0  0  0  0
  147.4805  133.7363  150.2612 H   0  0  0  0  0  0  0  0  0  0  0  0
  147.9164  132.0449  150.4545 H   0  0  0  0  0  0  0  0  0  0  0  0
  145.7389  132.9522  148.9537 H   0  0  0  0  0  0  0  0  0  0  0  0
  145.8328  131.3330  149.6252 H   0  0  0  0  0  0  0  0  0  0  0  0
  143.8790  133.2838  150.3684 H   0  0  0  0  0  0  0  0  0  0  0  0
  144.2097  131.7571  151.1552 H   0  0  0  0  0  0  0  0  0  0  0  0
  144.7448  133.0876  152.9751 H   0  0  0  0  0  0  0  0  0  0  0  0
  146.1499  135.3321  150.0992 H   0  0  0  0  0  0  0  0  0  0  0  0
  145.5640  137.9161  150.8754 H   0  0  0  0  0  0  0  0  0  0  0  0
  144.2069  135.3063  153.8258 H   0  0  0  0  0  0  0  0  0  0  0  0
  149.7768  134.8824  154.1850 H   0  0  0  0  0  0  0  0  0  0  0  0
  148.7710  133.9963  155.3069 H   0  0  0  0  0  0  0  0  0  0  0  0
  151.1787  133.7545  155.8976 H   0  0  0  0  0  0  0  0  0  0  0  0
  151.5342  133.1099  154.3226 H   0  0  0  0  0  0  0  0  0  0  0  0
  147.8683  134.5279  152.3497 H   0  0  0  0  0  0  0  0  0  0  0  0
  1  2  1  0  0  0  0
  1 21  1  0  0  0  0
  1 22  1  0  0  0  0
  2  3  2  0  0  0  0
  2  4  1  0  0  0  0
  4 20  1  0  0  0  0
  4  5  1  0  0  0  0
  5  6  1  0  0  0  0
  5 23  1  0  0  0  0
  5 24  1  0  0  0  0
  6  7  1  0  0  0  0
  6 25  1  0  0  0  0
  6 26  1  0  0  0  0
  7  8  1  0  0  0  0
  7 19  1  0  0  0  0
  7 27  1  0  0  0  0
  8  9  1  0  0  0  0
  8 28  1  0  0  0  0
  8 44  1  0  0  0  0
  9 13  1  0  0  0  0
  9 10  1  0  0  0  0
  9 29  1  0  0  0  0
 10 11  1  0  0  0  0
 10 30  1  0  0  0  0
 10 31  1  0  0  0  0
 11 12  1  0  0  0  0
 11 32  1  0  0  0  0
 11 33  1  0  0  0  0
 12 13  1  0  0  0  0
 12 34  1  0  0  0  0
 12 35  1  0  0  0  0
 13 14  1  0  0  0  0
 13 36  1  0  0  0  0
 14 18  1  0  0  0  0
 14 15  1  0  0  0  0
 15 16  2  0  0  0  0
 15 37  1  0  0  0  0
 16 17  1  0  0  0  0
 16 38  1  0  0  0  0
 17 18  2  0  0  0  0
 18 39  1  0  0  0  0
 19 20  1  0  0  0  0
 19 40  1  0  0  0  0
 19 41  1  0  0  0  0
 20 42  1  0  0  0  0
 20 43  1  0  0  0  0
M  CHG  1   8   1
M  END
> <s_m_source_file>
AV-unprocessed.smi

> <i_m_source_file_index>
862

> <i_lp_mmshare_version>
43012

> <i_f3d_flags>
0

> <s_epik_input>
W05IMl1DKD1PKU4xW0NIMl1bQ0gyXVtDSF0oW0NIMl1bQ0gyXTEpW05IXVtDQEBIXTJbQ0gyXVtDSDJdW0NIMl1bQ0BIXTJuM1tjSF1bY0hdbltjSF0z

> <s_epik_cmdline>
J2VwaWtfcHl0aG9uJywgJy1waCcsICc3LjAnLCAnLXRuJywgJzgnLCAnLW1hJywgJzIwMCcsICctbWV0YWxfYmluZGluZycsICctaW1hZScsICc8aW5maWxlLm1hZT4nLCAnLW9tYWUnLCAnPG91dGZpbGUubWFlPic=

> <r_lp_tautomer_probability>
1

> <r_epik_Ionization_Penalty>
0.0731506

> <r_epik_Ionization_Penalty_Charging>
0.0731

> <r_epik_Ionization_Penalty_Neutral>
5.05966e-05

> <r_epik_State_Penalty>
0.128895

> <r_epik_Charging_Adjusted_Penalty>
0.201995

> <i_epik_Tot_Q>
1

> <i_epik_Tot_abs_Q>
1

> <r_epik_Metal_State_Penalty>
0.113934

> <b_epik_Metal_Only>
0

> <s_lp_Force_Field>
OPLS_2005

> <r_lp_Energy>
57.2527

> <b_lp_Chiralities_Consistent>
1

> <s_lp_Variant>
AV-unprocessed.smi:862-3

> <Gold.Version>
5.8.1

> <Gold.Id.Protein>
6NUR|6NUR_protein|mol2

> <Gold.PLP.Fitness>
44.0669

> <Gold.PLP.PLP>
-31.2564

> <Gold.PLP.part.hbond>
-2.0000

> <Gold.PLP.part.metal>
0.0000

> <Gold.PLP.part.buried>
1.8824

> <Gold.PLP.part.nonpolar>
-31.8013

> <Gold.PLP.part.repulsive>
0.3793

> <Gold.PLP.ligand.clash>
0.0000

> <Gold.PLP.ligand.torsion>
0.4216

> <Gold.PLP.Chemscore.Hbond>
3.0000

> <Gold.PLP.Chemscore.CHOScore>
1.5306

> <Gold.PLP.Chemscore.Metal>
0.0000

> <Gold.Chemscore.Hbonds>
donor molecule, donor type, donor heavy atom, donor atom, acceptor molecule, acceptor atom, score
      L1  H     8    44       P1  7948  1.98
      P1  H  6896  6909       L1     3  1.00
      L1  C    15    37       P1  7921  1.00
      L1  C    16    38       P1 10171  0.64

> <Gold.PLP.Chemscore.Internal.Correction>
0.0620

> <Gold.Rescore>
     Score         DG    S(hbond)    S(metal)    S(lipo)     H(rot)  DE(clash)    DE(int)     intcor
     14.26     -16.42       1.88        0.00      75.82       1.64       1.68       0.48       ----

> <Gold.Chemscore.Fitness>
14.2630

> <Gold.Chemscore.DG>
-16.4182

> <Gold.Chemscore.ZeroCoef>
-5.4800

> <Gold.Chemscore.Hbond>
1.8768

> <Gold.Chemscore.Metal>
0.0000

> <Gold.Chemscore.Lipo>
75.8209

> <Gold.Chemscore.Internal_Hbond>
0.0000

> <Gold.Chemscore.DEClash>
1.6778

> <Gold.Chemscore.DEInternal>
0.4774

> <Gold.Chemscore.Rot>
1.6411

> <Gold.Chemscore.Internal.Correction>
   9.000000E+99

> <Gold.Chemscore.Hbonds>
donor molecule, donor type, donor heavy atom, donor atom, acceptor molecule, acceptor atom, score
      L1  H     8    44       P1  7948  0.45
      P1  H  6896  6909       L1     3  0.96

> <Gold.Chemscore.Hbond.Weighted>
-6.2685

> <Gold.Chemscore.Metal.Weighted>
-0.0000

> <Gold.Chemscore.Lipo.Weighted>
-8.8710

> <Gold.Chemscore.Internal_Hbond.Weighted>
0.0000

> <Gold.Chemscore.DEClash.Weighted>
1.6778

> <Gold.Chemscore.DEInternal.Weighted>
0.4774

> <Gold.Chemscore.Rot.Weighted>
4.2013

> <Gold.Chemscore.Internal.Correction.Weighted>
   9.000000E+99

> <Gold.Protein.RotatedTorsions>
[ 6907 6896 6895 6894 ] final  -35.07 input  -60.11 | X-H torsion
[ 7974 7965 7964 7962 ] final   65.44 input  175.53 | X-H torsion
[ 8008 7997 7996 7995 ] final -126.97 input   59.86 | X-H torsion
[ 10167 10162 10161 10158 ] final   77.28 input  -65.29 | X-H torsion
[ 10718 10713 10712 10709 ] final  124.93 input   66.30 | X-H torsion
[ 10763 10752 10751 10750 ] final -179.10 input  -60.55 | X-H torsion
[ 11005 11000 10999 10996 ] final -106.62 input  -57.11 | X-H torsion

> <Gold.Protein.ActiveResidues>
 VAL166  LYS551  ARG553  GLY616  TRP617  ASP618  TYR619  PRO620  LYS621  CYS622 
 ASP623  PHE694  ASN695  SER759  ASP760  ASP761  ALA762  ILE779  LEU786  VAL792 
 PHE793  MET794  SER795  GLU796  ALA797  LYS798  CYS799  TRP800  GLU811  SER814 

> <Gold.Protein.RotatedAtoms>
  151.0445  134.9630  159.8178 H   0  0  0  0  0  0  0  0  0  0  0  0  # atno 6907 bound_to 6896
  152.5370  134.2615  159.8947 H   0  0  0  0  0  0  0  0  0  0  0  0  # atno 6908 bound_to 6896
  151.2629  133.4250  159.2651 H   0  0  0  0  0  0  0  0  0  0  0  0  # atno 6909 bound_to 6896
  145.8384  139.3181  143.0946 H   0  0  0  0  0  0  0  0  0  0  0  0  # atno 7974 bound_to 7965
  155.2385  140.0428  157.2972 H   0  0  0  0  0  0  0  0  0  0  0  0  # atno 8008 bound_to 7997
  154.5843  140.2409  155.7979 H   0  0  0  0  0  0  0  0  0  0  0  0  # atno 8009 bound_to 7997
  156.2215  140.2968  155.9972 H   0  0  0  0  0  0  0  0  0  0  0  0  # atno 8010 bound_to 7997
  139.9832  144.5811  150.7882 H   0  0  0  0  0  0  0  0  0  0  0  0  # atno 10167 bound_to 10162
  157.5545  131.1092  150.8646 H   0  0  0  0  0  0  0  0  0  0  0  0  # atno 10718 bound_to 10713
  154.5394  135.2805  155.1109 H   0  0  0  0  0  0  0  0  0  0  0  0  # atno 10763 bound_to 10752
  154.2598  135.6324  153.5274 H   0  0  0  0  0  0  0  0  0  0  0  0  # atno 10764 bound_to 10752
  152.9975  135.5603  154.5929 H   0  0  0  0  0  0  0  0  0  0  0  0  # atno 10765 bound_to 10752
  141.0996  133.8909  157.1877 H   0  0  0  0  0  0  0  0  0  0  0  0  # atno 11005 bound_to 11000
  145.9493  140.8921  143.0267 LP  0  0  0  0  0  0  0  0  0  0  0  0  # atno 17320 bound_to 7965
  144.6735  140.1657  143.7418 LP  0  0  0  0  0  0  0  0  0  0  0  0  # atno 17321 bound_to 7965
  140.7481  143.2917  151.3312 LP  0  0  0  0  0  0  0  0  0  0  0  0  # atno 17342 bound_to 10162
  139.6394  144.0568  152.2542 LP  0  0  0  0  0  0  0  0  0  0  0  0  # atno 17343 bound_to 10162
  156.9161  130.5298  149.5279 LP  0  0  0  0  0  0  0  0  0  0  0  0  # atno 17370 bound_to 10713
  156.0606  130.5659  150.9184 LP  0  0  0  0  0  0  0  0  0  0  0  0  # atno 17371 bound_to 10713
  139.9843  135.0087  156.9824 LP  0  0  0  0  0  0  0  0  0  0  0  0  # atno 17394 bound_to 11000
  140.5056  134.1053  155.7259 LP  0  0  0  0  0  0  0  0  0  0  0  0  # atno 17395 bound_to 11000

$$$$
