AV-unprocessed.smi:15|AV-procd|sdf|85|dock6
  -GOLD-   2262015223D 1   1.00000     0.00000
 Structure written by MMmdl.
 53 56  0  0  0  0  0  0  0  0  1 V2000
  152.4229  140.0284  157.4653 C   0  0  0  0  0  0  0  0  0  0  0  0
  151.1806  140.1152  156.5643 C   0  0  0  0  0  0  0  0  0  0  0  0
  150.2318  141.1484  156.9811 N   0  0  0  0  0  0  0  0  0  0  0  0
  150.7736  142.4744  157.2660 C   0  0  0  0  0  0  0  0  0  0  0  0
  150.8440  142.7642  158.7736 C   0  0  2  0  0  0  0  0  0  0  0  0
  151.0777  144.2350  159.1185 C   0  0  0  0  0  0  0  0  0  0  0  0
  151.7656  144.1814  160.4741 C   0  0  0  0  0  0  0  0  0  0  0  0
  152.1870  142.7166  160.6234 C   0  0  0  0  0  0  0  0  0  0  0  0
  151.9822  142.1380  159.3420 O   0  0  0  0  0  0  0  0  0  0  0  0
  149.0958  141.2137  156.2532 C   0  0  0  0  0  0  0  0  0  0  0  0
  149.2141  141.5669  154.9499 N   0  0  0  0  0  0  0  0  0  0  0  0
  148.1242  141.6505  154.1811 C   0  0  0  0  0  0  0  0  0  0  0  0
  146.8504  141.4224  154.5095 N   0  0  0  0  0  0  0  0  0  0  0  0
  146.7323  141.0550  155.8180 C   0  0  0  0  0  0  0  0  0  0  0  0
  147.7957  140.9262  156.7549 C   0  0  0  0  0  0  0  0  0  0  0  0
  147.2962  140.5307  157.9896 N   0  0  0  0  0  0  0  0  0  0  0  0
  146.0090  140.4369  157.7951 C   0  0  0  0  0  0  0  0  0  0  0  0
  145.5839  140.7288  156.5182 N   0  0  0  0  0  0  0  0  0  0  0  0
  144.2135  140.7036  156.0286 C   0  0  0  0  0  0  0  0  0  0  0  0
  143.4821  142.0641  156.1720 C   0  0  2  0  0  0  0  0  0  0  0  0
  143.8376  142.8663  155.0577 O   0  0  0  0  0  0  0  0  0  0  0  0
  143.8527  142.8304  157.4378 C   0  0  0  0  0  0  0  0  0  0  0  0
  142.6172  143.6797  157.6937 C   0  0  0  0  0  0  0  0  0  0  0  0
  141.5606  142.7923  157.3719 O   0  0  0  0  0  0  0  0  0  0  0  0
  141.9293  142.0132  156.2354 C   0  0  2  0  0  0  0  0  0  0  0  0
  141.2913  140.6257  156.4071 C   0  0  0  0  0  0  0  0  0  0  0  0
  153.1278  139.2935  157.0768 H   0  0  0  0  0  0  0  0  0  0  0  0
  152.1674  139.7290  158.4822 H   0  0  0  0  0  0  0  0  0  0  0  0
  152.9382  140.9880  157.5156 H   0  0  0  0  0  0  0  0  0  0  0  0
  151.5064  140.3265  155.5464 H   0  0  0  0  0  0  0  0  0  0  0  0
  150.6811  139.1471  156.5256 H   0  0  0  0  0  0  0  0  0  0  0  0
  151.7729  142.5440  156.8346 H   0  0  0  0  0  0  0  0  0  0  0  0
  150.1757  143.2480  156.7800 H   0  0  0  0  0  0  0  0  0  0  0  0
  149.9569  142.3916  159.2882 H   0  0  0  0  0  0  0  0  0  0  0  0
  151.7467  144.6919  158.3879 H   0  0  0  0  0  0  0  0  0  0  0  0
  150.1530  144.8128  159.1327 H   0  0  0  0  0  0  0  0  0  0  0  0
  152.6254  144.8517  160.4980 H   0  0  0  0  0  0  0  0  0  0  0  0
  151.0904  144.4721  161.2795 H   0  0  0  0  0  0  0  0  0  0  0  0
  153.2239  142.6089  160.9422 H   0  0  0  0  0  0  0  0  0  0  0  0
  151.5527  142.2082  161.3510 H   0  0  0  0  0  0  0  0  0  0  0  0
  148.2974  141.9424  153.1556 H   0  0  0  0  0  0  0  0  0  0  0  0
  145.3287  140.1444  158.5819 H   0  0  0  0  0  0  0  0  0  0  0  0
  144.2321  140.3897  154.9840 H   0  0  0  0  0  0  0  0  0  0  0  0
  143.6834  139.9237  156.5754 H   0  0  0  0  0  0  0  0  0  0  0  0
  143.2540  142.6609  154.3434 H   0  0  0  0  0  0  0  0  0  0  0  0
  143.9797  142.1387  158.2712 H   0  0  0  0  0  0  0  0  0  0  0  0
  144.7687  143.4165  157.3488 H   0  0  0  0  0  0  0  0  0  0  0  0
  142.5499  144.0294  158.7240 H   0  0  0  0  0  0  0  0  0  0  0  0
  142.5887  144.5450  157.0298 H   0  0  0  0  0  0  0  0  0  0  0  0
  141.4947  142.4841  155.3516 H   0  0  0  0  0  0  0  0  0  0  0  0
  141.5212  139.9729  155.5649 H   0  0  0  0  0  0  0  0  0  0  0  0
  140.2059  140.7073  156.4685 H   0  0  0  0  0  0  0  0  0  0  0  0
  141.6332  140.1392  157.3209 H   0  0  0  0  0  0  0  0  0  0  0  0
  1  2  1  0  0  0  0
  1 27  1  0  0  0  0
  1 28  1  0  0  0  0
  1 29  1  0  0  0  0
  2  3  1  0  0  0  0
  2 30  1  0  0  0  0
  2 31  1  0  0  0  0
  3  4  1  0  0  0  0
  3 10  1  0  0  0  0
  4  5  1  0  0  0  0
  4 32  1  0  0  0  0
  4 33  1  0  0  0  0
  5  9  1  0  0  0  0
  5  6  1  0  0  0  0
  5 34  1  0  0  0  0
  6  7  1  0  0  0  0
  6 35  1  0  0  0  0
  6 36  1  0  0  0  0
  7  8  1  0  0  0  0
  7 37  1  0  0  0  0
  7 38  1  0  0  0  0
  8  9  1  0  0  0  0
  8 39  1  0  0  0  0
  8 40  1  0  0  0  0
 10 15  1  0  0  0  0
 10 11  2  0  0  0  0
 11 12  1  0  0  0  0
 12 13  2  0  0  0  0
 12 41  1  0  0  0  0
 13 14  1  0  0  0  0
 14 18  1  0  0  0  0
 14 15  2  0  0  0  0
 15 16  1  0  0  0  0
 16 17  2  0  0  0  0
 17 18  1  0  0  0  0
 17 42  1  0  0  0  0
 18 19  1  0  0  0  0
 19 20  1  0  0  0  0
 19 43  1  0  0  0  0
 19 44  1  0  0  0  0
 20 25  1  0  0  0  0
 20 21  1  0  0  0  0
 20 22  1  0  0  0  0
 21 45  1  0  0  0  0
 22 23  1  0  0  0  0
 22 46  1  0  0  0  0
 22 47  1  0  0  0  0
 23 24  1  0  0  0  0
 23 48  1  0  0  0  0
 23 49  1  0  0  0  0
 24 25  1  0  0  0  0
 25 26  1  0  0  0  0
 25 50  1  0  0  0  0
 26 51  1  0  0  0  0
 26 52  1  0  0  0  0
 26 53  1  0  0  0  0
M  END
> <s_m_source_file>
AV-unprocessed.smi

> <i_m_source_file_index>
15

> <i_lp_mmshare_version>
43012

> <i_f3d_flags>
0

> <s_epik_input>
TzFbQ0gyXVtDSDJdW0NIMl1bQ0BIXTFbQ0gyXU4oW0NIMl1bQ0gzXSljKG5bY0hdbjIpYyhjMjMpbltjSF1uM1tDSDJdW0NAQF00KFtPSF0pW0NIMl1bQ0gyXU9bQ0BIXTRbQ0gzXQ==

> <s_epik_cmdline>
J2VwaWtfcHl0aG9uJywgJy1waCcsICc3LjAnLCAnLXRuJywgJzgnLCAnLW1hJywgJzIwMCcsICctbWV0YWxfYmluZGluZycsICctaW1hZScsICc8aW5maWxlLm1hZT4nLCAnLW9tYWUnLCAnPG91dGZpbGUubWFlPic=

> <r_lp_tautomer_probability>
1

> <r_epik_Ionization_Penalty>
0.00360814

> <r_epik_Ionization_Penalty_Charging>
0

> <r_epik_Ionization_Penalty_Neutral>
0.00360814

> <r_epik_State_Penalty>
0.00237482

> <r_epik_Charging_Adjusted_Penalty>
0.00237482

> <i_epik_Tot_Q>
0

> <i_epik_Tot_abs_Q>
0

> <r_epik_Metal_State_Penalty>
-0

> <b_epik_Metal_Only>
0

> <s_lp_Force_Field>
OPLS_2005

> <r_lp_Energy>
47.4065

> <b_lp_Chiralities_Consistent>
1

> <s_lp_Variant>
AV-unprocessed.smi:15-7

> <Gold.Version>
5.8.1

> <Gold.Id.Protein>
6NUR|6NUR_protein|mol2

> <Gold.PLP.Fitness>
42.8637

> <Gold.PLP.PLP>
-39.7990

> <Gold.PLP.part.hbond>
-1.0000

> <Gold.PLP.part.metal>
0.0000

> <Gold.PLP.part.buried>
-8.2108

> <Gold.PLP.part.nonpolar>
-31.1507

> <Gold.PLP.part.repulsive>
0.4877

> <Gold.PLP.ligand.clash>
0.0000

> <Gold.PLP.ligand.torsion>
1.7774

> <Gold.PLP.Chemscore.Hbond>
1.0000

> <Gold.PLP.Chemscore.CHOScore>
1.0000

> <Gold.PLP.Chemscore.Metal>
0.0000

> <Gold.Chemscore.Hbonds>
donor molecule, donor type, donor heavy atom, donor atom, acceptor molecule, acceptor atom, score
      L1  H    21    45       P1 10174  0.36

> <Gold.PLP.Chemscore.Internal.Correction>
0.6196

> <Gold.Rescore>
     Score         DG    S(hbond)    S(metal)    S(lipo)     H(rot)  DE(clash)    DE(int)     intcor
      8.59     -12.16       0.89        0.00      91.04       2.71       0.10       3.47       ----

> <Gold.Chemscore.Fitness>
8.5884

> <Gold.Chemscore.DG>
-12.1607

> <Gold.Chemscore.ZeroCoef>
-5.4800

> <Gold.Chemscore.Hbond>
0.8862

> <Gold.Chemscore.Metal>
0.0000

> <Gold.Chemscore.Lipo>
91.0401

> <Gold.Chemscore.Internal_Hbond>
0.0000

> <Gold.Chemscore.DEClash>
0.1036

> <Gold.Chemscore.DEInternal>
3.4688

> <Gold.Chemscore.Rot>
2.7074

> <Gold.Chemscore.Internal.Correction>
   9.000000E+99

> <Gold.Chemscore.Hbonds>
donor molecule, donor type, donor heavy atom, donor atom, acceptor molecule, acceptor atom, score
      L1  H    21    45       P1 10174  0.10

> <Gold.Chemscore.Hbond.Weighted>
-2.9599

> <Gold.Chemscore.Metal.Weighted>
-0.0000

> <Gold.Chemscore.Lipo.Weighted>
-10.6517

> <Gold.Chemscore.Internal_Hbond.Weighted>
0.0000

> <Gold.Chemscore.DEClash.Weighted>
0.1036

> <Gold.Chemscore.DEInternal.Weighted>
3.4688

> <Gold.Chemscore.Rot.Weighted>
6.9308

> <Gold.Chemscore.Internal.Correction.Weighted>
   9.000000E+99

> <Gold.Protein.RotatedTorsions>
[ 6907 6896 6895 6894 ] final -131.01 input  -60.11 | X-H torsion
[ 7974 7965 7964 7962 ] final  -15.11 input  175.53 | X-H torsion
[ 8008 7997 7996 7995 ] final   77.19 input   59.86 | X-H torsion
[ 10167 10162 10161 10158 ] final   94.39 input  -65.29 | X-H torsion
[ 10718 10713 10712 10709 ] final  150.72 input   66.30 | X-H torsion
[ 10763 10752 10751 10750 ] final -124.70 input  -60.55 | X-H torsion
[ 11005 11000 10999 10996 ] final  156.59 input  -57.11 | X-H torsion

> <Gold.Protein.ActiveResidues>
 VAL166  LYS551  ARG553  GLY616  TRP617  ASP618  TYR619  PRO620  LYS621  CYS622 
 ASP623  PHE694  ASN695  SER759  ASP760  ASP761  ALA762  ILE779  LEU786  VAL792 
 PHE793  MET794  SER795  GLU796  ALA797  LYS798  CYS799  TRP800  GLU811  SER814 

> <Gold.Protein.RotatedAtoms>
  150.9462  133.6600  159.2780 H   0  0  0  0  0  0  0  0  0  0  0  0  # atno 6907 bound_to 6896
  151.3972  135.0964  159.9554 H   0  0  0  0  0  0  0  0  0  0  0  0  # atno 6908 bound_to 6896
  152.5090  133.8964  159.7474 H   0  0  0  0  0  0  0  0  0  0  0  0  # atno 6909 bound_to 6896
  146.2046  140.3445  142.8411 H   0  0  0  0  0  0  0  0  0  0  0  0  # atno 7974 bound_to 7965
  155.8381  140.3463  155.5615 H   0  0  0  0  0  0  0  0  0  0  0  0  # atno 8008 bound_to 7997
  155.8170  140.0907  157.1891 H   0  0  0  0  0  0  0  0  0  0  0  0  # atno 8009 bound_to 7997
  154.4004  140.1437  156.3442 H   0  0  0  0  0  0  0  0  0  0  0  0  # atno 8010 bound_to 7997
  139.8088  144.6782  150.9668 H   0  0  0  0  0  0  0  0  0  0  0  0  # atno 10167 bound_to 10162
  157.2799  131.0833  151.1539 H   0  0  0  0  0  0  0  0  0  0  0  0  # atno 10718 bound_to 10713
  154.8727  135.4054  154.3149 H   0  0  0  0  0  0  0  0  0  0  0  0  # atno 10763 bound_to 10752
  153.3986  135.7017  153.6448 H   0  0  0  0  0  0  0  0  0  0  0  0  # atno 10764 bound_to 10752
  153.5200  135.3689  155.2598 H   0  0  0  0  0  0  0  0  0  0  0  0  # atno 10765 bound_to 10752
  140.1690  134.8557  157.2667 H   0  0  0  0  0  0  0  0  0  0  0  0  # atno 11005 bound_to 11000
  144.8762  140.7339  143.6015 LP  0  0  0  0  0  0  0  0  0  0  0  0  # atno 17320 bound_to 7965
  145.3365  139.1744  143.4509 LP  0  0  0  0  0  0  0  0  0  0  0  0  # atno 17321 bound_to 7965
  140.7818  143.4206  151.0847 LP  0  0  0  0  0  0  0  0  0  0  0  0  # atno 17342 bound_to 10162
  139.7874  143.8268  152.3147 LP  0  0  0  0  0  0  0  0  0  0  0  0  # atno 17343 bound_to 10162
  157.2977  130.6827  149.6147 LP  0  0  0  0  0  0  0  0  0  0  0  0  # atno 17370 bound_to 10713
  155.9664  130.4401  150.5287 LP  0  0  0  0  0  0  0  0  0  0  0  0  # atno 17371 bound_to 10713
  140.2400  134.3807  155.7485 LP  0  0  0  0  0  0  0  0  0  0  0  0  # atno 17394 bound_to 11000
  141.2216  133.7260  156.8774 LP  0  0  0  0  0  0  0  0  0  0  0  0  # atno 17395 bound_to 11000

$$$$
