AV-unprocessed.smi:3308|AV-procd|sdf|12708|dock2
  -GOLD-   2272019 43D 1   1.00000     0.00000
 Structure written by MMmdl.
 41 42  0  0  0  0  0  0  0  0  2 V2000
  150.9097  140.6328  157.9943 C   0  0  0  0  0  0  0  0  0  0  0  0
  150.0676  141.4866  157.0269 C   0  0  2  0  0  0  0  0  0  0  0  0
  150.0788  142.9039  157.4606 N   0  3  0  0  0  0  0  0  0  0  0  0
  151.4168  143.4900  157.6931 C   0  0  0  0  0  0  0  0  0  0  0  0
  151.4566  144.3559  158.9601 C   0  0  0  0  0  0  0  0  0  0  0  0
  150.9859  145.4944  158.9357 O   0  0  0  0  0  0  0  0  0  0  0  0
  152.0131  143.8328  160.0719 N   0  0  0  0  0  0  0  0  0  0  0  0
  152.5652  142.4812  160.1400 C   0  0  0  0  0  0  0  0  0  0  0  0
  152.8292  142.2171  161.6222 C   0  0  0  0  0  0  0  0  0  0  0  0
  153.0300  143.6042  162.2168 C   0  0  0  0  0  0  0  0  0  0  0  0
  152.1449  144.5114  161.3612 C   0  0  0  0  0  0  0  0  0  0  0  0
  148.6025  140.9813  156.9131 C   0  0  2  0  0  0  0  0  0  0  0  0
  148.4693  139.4576  157.0947 C   0  0  0  0  0  0  0  0  0  0  0  0
  147.9882  141.3731  155.6485 N   0  0  0  0  0  0  0  0  0  0  0  0
  146.8797  142.1712  155.4515 C   0  0  0  0  0  0  0  0  0  0  0  0
  146.6635  142.2464  154.1055 C   0  0  0  0  0  0  0  0  0  0  0  0
  147.6960  141.4401  153.5512 C   0  0  0  0  0  0  0  0  0  0  0  0
  148.4837  140.9158  154.4759 N   0  0  0  0  0  0  0  0  0  0  0  0
  150.9847  139.5992  157.6585 H   0  0  0  0  0  0  0  0  0  0  0  0
  150.4789  140.6271  158.9959 H   0  0  0  0  0  0  0  0  0  0  0  0
  151.9309  141.0041  158.0759 H   0  0  0  0  0  0  0  0  0  0  0  0
  150.5230  141.4325  156.0367 H   0  0  0  0  0  0  0  0  0  0  0  0
  149.6514  143.4460  156.7227 H   0  0  0  0  0  0  0  0  0  0  0  0
  152.1567  142.6951  157.7838 H   0  0  0  0  0  0  0  0  0  0  0  0
  151.6889  144.1041  156.8337 H   0  0  0  0  0  0  0  0  0  0  0  0
  151.8873  141.7366  159.7198 H   0  0  0  0  0  0  0  0  0  0  0  0
  153.4970  142.4497  159.5732 H   0  0  0  0  0  0  0  0  0  0  0  0
  151.9516  141.7508  162.0724 H   0  0  0  0  0  0  0  0  0  0  0  0
  153.6808  141.5568  161.7889 H   0  0  0  0  0  0  0  0  0  0  0  0
  152.7828  143.6502  163.2778 H   0  0  0  0  0  0  0  0  0  0  0  0
  154.0737  143.9001  162.1041 H   0  0  0  0  0  0  0  0  0  0  0  0
  152.5839  145.5056  161.2657 H   0  0  0  0  0  0  0  0  0  0  0  0
  151.1577  144.6152  161.8140 H   0  0  0  0  0  0  0  0  0  0  0  0
  148.0204  141.4576  157.7038 H   0  0  0  0  0  0  0  0  0  0  0  0
  148.7572  139.1414  158.0966 H   0  0  0  0  0  0  0  0  0  0  0  0
  149.0895  138.9147  156.3807 H   0  0  0  0  0  0  0  0  0  0  0  0
  147.4375  139.1365  156.9466 H   0  0  0  0  0  0  0  0  0  0  0  0
  146.3424  142.6163  156.2762 H   0  0  0  0  0  0  0  0  0  0  0  0
  145.8823  142.7895  153.5944 H   0  0  0  0  0  0  0  0  0  0  0  0
  147.8936  141.2200  152.5124 H   0  0  0  0  0  0  0  0  0  0  0  0
  149.5171  143.0055  158.2939 H   0  0  0  0  0  0  0  0  0  0  0  0
  1  2  1  0  0  0  0
  1 19  1  0  0  0  0
  1 20  1  0  0  0  0
  1 21  1  0  0  0  0
  2  3  1  0  0  0  0
  2 12  1  0  0  0  0
  2 22  1  0  0  0  0
  3  4  1  0  0  0  0
  3 23  1  0  0  0  0
  3 41  1  0  0  0  0
  4  5  1  0  0  0  0
  4 24  1  0  0  0  0
  4 25  1  0  0  0  0
  5  6  2  0  0  0  0
  5  7  1  0  0  0  0
  7 11  1  0  0  0  0
  7  8  1  0  0  0  0
  8  9  1  0  0  0  0
  8 26  1  0  0  0  0
  8 27  1  0  0  0  0
  9 10  1  0  0  0  0
  9 28  1  0  0  0  0
  9 29  1  0  0  0  0
 10 11  1  0  0  0  0
 10 30  1  0  0  0  0
 10 31  1  0  0  0  0
 11 32  1  0  0  0  0
 11 33  1  0  0  0  0
 12 13  1  0  0  0  0
 12 14  1  0  0  0  0
 12 34  1  0  0  0  0
 13 35  1  0  0  0  0
 13 36  1  0  0  0  0
 13 37  1  0  0  0  0
 14 18  1  0  0  0  0
 14 15  1  0  0  0  0
 15 16  2  0  0  0  0
 15 38  1  0  0  0  0
 16 17  1  0  0  0  0
 16 39  1  0  0  0  0
 17 18  2  0  0  0  0
 17 40  1  0  0  0  0
M  CHG  1   3   1
M  END
> <s_m_source_file>
AV-unprocessed.smi

> <i_m_source_file_index>
3308

> <i_lp_mmshare_version>
43012

> <i_f3d_flags>
0

> <s_epik_input>
bjFbY0hdW2NIXVtjSF1uMVtDQEBIXShbQ0gzXSlbQ0BIXShbQ0gzXSlbTkhdW0NIMl1DKD1PKU4yW0NIMl1bQ0gyXVtDSDJdW0NIMl0y

> <s_epik_cmdline>
J2VwaWtfcHl0aG9uJywgJy1waCcsICc3LjAnLCAnLXRuJywgJzgnLCAnLW1hJywgJzIwMCcsICctbWV0YWxfYmluZGluZycsICctaW1hZScsICc8aW5maWxlLm1hZT4nLCAnLW9tYWUnLCAnPG91dGZpbGUubWFlPic=

> <r_lp_tautomer_probability>
1

> <r_epik_Ionization_Penalty>
0.141739

> <r_epik_Ionization_Penalty_Charging>
0.141731

> <r_epik_Ionization_Penalty_Neutral>
8.82171e-06

> <r_epik_State_Penalty>
0.131043

> <r_epik_Charging_Adjusted_Penalty>
0.272773

> <i_epik_Tot_Q>
1

> <i_epik_Tot_abs_Q>
1

> <r_epik_Metal_State_Penalty>
0.131385

> <b_epik_Metal_Only>
0

> <s_lp_Force_Field>
OPLS_2005

> <r_lp_Energy>
31.7083

> <b_lp_Chiralities_Consistent>
1

> <s_lp_Variant>
AV-unprocessed.smi:3308-1

> <Gold.Version>
5.8.1

> <Gold.Id.Protein>
6NUR|6NUR_protein|mol2

> <Gold.PLP.Fitness>
46.8214

> <Gold.PLP.PLP>
-40.0172

> <Gold.PLP.part.hbond>
-1.4739

> <Gold.PLP.part.metal>
0.0000

> <Gold.PLP.part.buried>
-6.8015

> <Gold.PLP.part.nonpolar>
-32.3238

> <Gold.PLP.part.repulsive>
0.3057

> <Gold.PLP.ligand.clash>
0.0000

> <Gold.PLP.ligand.torsion>
1.1502

> <Gold.PLP.Chemscore.Hbond>
2.0000

> <Gold.PLP.Chemscore.CHOScore>
1.0000

> <Gold.PLP.Chemscore.Metal>
0.0000

> <Gold.Chemscore.Hbonds>
donor molecule, donor type, donor heavy atom, donor atom, acceptor molecule, acceptor atom, score
      L1  H     3    23       P1  8028  2.00
      L1  C    17    40       P1  7957  1.00

> <Gold.PLP.Chemscore.Internal.Correction>
0.1046

> <Gold.Rescore>
     Score         DG    S(hbond)    S(metal)    S(lipo)     H(rot)  DE(clash)    DE(int)     intcor
     13.01     -14.33       0.94        0.00      87.79       1.78       0.23       1.09       ----

> <Gold.Chemscore.Fitness>
13.0080

> <Gold.Chemscore.DG>
-14.3310

> <Gold.Chemscore.ZeroCoef>
-5.4800

> <Gold.Chemscore.Hbond>
0.9417

> <Gold.Chemscore.Metal>
0.0000

> <Gold.Chemscore.Lipo>
87.7923

> <Gold.Chemscore.Internal_Hbond>
0.0000

> <Gold.Chemscore.DEClash>
0.2345

> <Gold.Chemscore.DEInternal>
1.0884

> <Gold.Chemscore.Rot>
1.7836

> <Gold.Chemscore.Internal.Correction>
   9.000000E+99

> <Gold.Chemscore.Hbonds>
donor molecule, donor type, donor heavy atom, donor atom, acceptor molecule, acceptor atom, score
      L1  H     3    23       P1  8028  1.00

> <Gold.Chemscore.Hbond.Weighted>
-3.1453

> <Gold.Chemscore.Metal.Weighted>
-0.0000

> <Gold.Chemscore.Lipo.Weighted>
-10.2717

> <Gold.Chemscore.Internal_Hbond.Weighted>
0.0000

> <Gold.Chemscore.DEClash.Weighted>
0.2345

> <Gold.Chemscore.DEInternal.Weighted>
1.0884

> <Gold.Chemscore.Rot.Weighted>
4.5660

> <Gold.Chemscore.Internal.Correction.Weighted>
   9.000000E+99

> <Gold.Protein.RotatedTorsions>
[ 6907 6896 6895 6894 ] final  -45.30 input  -60.11 | X-H torsion
[ 7974 7965 7964 7962 ] final  -15.78 input  175.53 | X-H torsion
[ 8008 7997 7996 7995 ] final  153.06 input   59.86 | X-H torsion
[ 10167 10162 10161 10158 ] final  109.78 input  -65.29 | X-H torsion
[ 10718 10713 10712 10709 ] final -112.50 input   66.30 | X-H torsion
[ 10763 10752 10751 10750 ] final  154.14 input  -60.55 | X-H torsion
[ 11005 11000 10999 10996 ] final   19.67 input  -57.11 | X-H torsion

> <Gold.Protein.ActiveResidues>
 VAL166  LYS551  ARG553  GLY616  TRP617  ASP618  TYR619  PRO620  LYS621  CYS622 
 ASP623  PHE694  ASN695  SER759  ASP760  ASP761  ALA762  ILE779  LEU786  VAL792 
 PHE793  MET794  SER795  GLU796  ALA797  LYS798  CYS799  TRP800  GLU811  SER814 

> <Gold.Protein.RotatedAtoms>
  150.9234  134.8651  159.7503 H   0  0  0  0  0  0  0  0  0  0  0  0  # atno 6907 bound_to 6896
  152.5003  134.4185  159.9482 H   0  0  0  0  0  0  0  0  0  0  0  0  # atno 6908 bound_to 6896
  151.4217  133.3656  159.2792 H   0  0  0  0  0  0  0  0  0  0  0  0  # atno 6909 bound_to 6896
  146.2017  140.3542  142.8421 H   0  0  0  0  0  0  0  0  0  0  0  0  # atno 7974 bound_to 7965
  156.2600  140.2004  156.6431 H   0  0  0  0  0  0  0  0  0  0  0  0  # atno 8008 bound_to 7997
  154.6594  140.0562  157.0070 H   0  0  0  0  0  0  0  0  0  0  0  0  # atno 8009 bound_to 7997
  155.1298  140.3232  155.4479 H   0  0  0  0  0  0  0  0  0  0  0  0  # atno 8010 bound_to 7997
  139.6739  144.7123  151.1637 H   0  0  0  0  0  0  0  0  0  0  0  0  # atno 10167 bound_to 10162
  156.0709  130.5923  150.8517 H   0  0  0  0  0  0  0  0  0  0  0  0  # atno 10718 bound_to 10713
  154.1474  135.2817  155.3144 H   0  0  0  0  0  0  0  0  0  0  0  0  # atno 10763 bound_to 10752
  154.6242  135.5457  153.7612 H   0  0  0  0  0  0  0  0  0  0  0  0  # atno 10764 bound_to 10752
  153.0231  135.6446  154.1620 H   0  0  0  0  0  0  0  0  0  0  0  0  # atno 10765 bound_to 10752
  140.4111  134.1617  155.7667 H   0  0  0  0  0  0  0  0  0  0  0  0  # atno 11005 bound_to 11000
  144.8698  140.7256  143.6054 LP  0  0  0  0  0  0  0  0  0  0  0  0  # atno 17320 bound_to 7965
  145.3462  139.1719  143.4459 LP  0  0  0  0  0  0  0  0  0  0  0  0  # atno 17321 bound_to 7965
  140.7628  143.5801  150.8904 LP  0  0  0  0  0  0  0  0  0  0  0  0  # atno 17342 bound_to 10162
  139.9468  143.6318  152.3039 LP  0  0  0  0  0  0  0  0  0  0  0  0  # atno 17343 bound_to 10162
  157.5780  131.0946  150.9316 LP  0  0  0  0  0  0  0  0  0  0  0  0  # atno 17370 bound_to 10713
  156.9518  130.5422  149.5282 LP  0  0  0  0  0  0  0  0  0  0  0  0  # atno 17371 bound_to 10713
  141.1821  133.8392  157.1222 LP  0  0  0  0  0  0  0  0  0  0  0  0  # atno 17394 bound_to 11000
  140.0267  134.9921  157.0699 LP  0  0  0  0  0  0  0  0  0  0  0  0  # atno 17395 bound_to 11000

$$$$
