AV-unprocessed.smi:3252|AV-procd|sdf|12441|dock9
  -GOLD-   2272018333D 1   1.00000     0.00000
 Structure written by MMmdl.
 37 38  0  0  0  0  0  0  0  0  2 V2000
  147.8352  141.6791  154.9210 C   0  0  0  0  0  0  0  0  0  0  0  0
  148.9560  140.7782  154.3840 C   0  0  0  0  0  0  0  0  0  0  0  0
  149.2311  139.6222  155.2779 N   0  3  1  0  0  0  0  0  0  0  0  0
  149.8655  138.4754  154.5840 C   0  0  0  0  0  0  0  0  0  0  0  0
  151.3678  138.7231  154.3640 C   0  0  0  0  0  0  0  0  0  0  0  0
  151.9864  138.9797  155.6175 O   0  0  0  0  0  0  0  0  0  0  0  0
  151.4861  140.1543  156.2490 C   0  0  2  0  0  0  0  0  0  0  0  0
  152.2617  140.3871  157.5578 C   0  0  0  0  0  0  0  0  0  0  0  0
  151.8447  141.6030  158.2473 N   0  0  0  0  0  0  0  0  0  0  0  0
  152.3050  141.9184  159.5343 C   0  0  0  0  0  0  0  0  0  0  0  0
  153.3243  141.1222  160.0978 C   0  0  0  0  0  0  0  0  0  0  0  0
  153.7936  141.4312  161.3897 C   0  0  0  0  0  0  0  0  0  0  0  0
  153.2274  142.5255  162.0728 C   0  0  0  0  0  0  0  0  0  0  0  0
  153.6752  142.8837  163.4076 C   0  0  0  0  0  0  0  0  0  0  0  0
  154.0319  143.1692  164.4705 N   0  0  0  0  0  0  0  0  0  0  0  0
  152.2154  143.2646  161.4280 C   0  0  0  0  0  0  0  0  0  0  0  0
  151.7633  142.9731  160.1892 N   0  0  0  0  0  0  0  0  0  0  0  0
  149.9777  139.9552  156.5191 C   0  0  0  0  0  0  0  0  0  0  0  0
  147.5906  142.4575  154.1979 H   0  0  0  0  0  0  0  0  0  0  0  0
  148.1179  142.1776  155.8475 H   0  0  0  0  0  0  0  0  0  0  0  0
  146.9260  141.1071  155.1089 H   0  0  0  0  0  0  0  0  0  0  0  0
  148.6379  140.4047  153.4099 H   0  0  0  0  0  0  0  0  0  0  0  0
  149.8600  141.3601  154.2060 H   0  0  0  0  0  0  0  0  0  0  0  0
  149.7356  137.5863  155.2022 H   0  0  0  0  0  0  0  0  0  0  0  0
  149.3626  138.2666  153.6392 H   0  0  0  0  0  0  0  0  0  0  0  0
  151.8309  137.8426  153.9183 H   0  0  0  0  0  0  0  0  0  0  0  0
  151.5399  139.5534  153.6776 H   0  0  0  0  0  0  0  0  0  0  0  0
  151.6372  141.0151  155.5958 H   0  0  0  0  0  0  0  0  0  0  0  0
  152.0654  139.5595  158.2397 H   0  0  0  0  0  0  0  0  0  0  0  0
  153.3377  140.3803  157.3812 H   0  0  0  0  0  0  0  0  0  0  0  0
  151.3242  142.2954  157.7281 H   0  0  0  0  0  0  0  0  0  0  0  0
  153.7421  140.2873  159.5540 H   0  0  0  0  0  0  0  0  0  0  0  0
  154.5730  140.8354  161.8429 H   0  0  0  0  0  0  0  0  0  0  0  0
  151.7525  144.1120  161.9131 H   0  0  0  0  0  0  0  0  0  0  0  0
  149.5541  140.8330  157.0057 H   0  0  0  0  0  0  0  0  0  0  0  0
  149.8450  139.1301  157.2205 H   0  0  0  0  0  0  0  0  0  0  0  0
  148.3208  139.2955  155.5694 H   0  0  0  0  0  0  0  0  0  0  0  0
  1  2  1  0  0  0  0
  1 19  1  0  0  0  0
  1 20  1  0  0  0  0
  1 21  1  0  0  0  0
  2  3  1  0  0  0  0
  2 22  1  0  0  0  0
  2 23  1  0  0  0  0
  3 18  1  0  0  0  0
  3  4  1  0  0  0  0
  3 37  1  0  0  0  0
  4  5  1  0  0  0  0
  4 24  1  0  0  0  0
  4 25  1  0  0  0  0
  5  6  1  0  0  0  0
  5 26  1  0  0  0  0
  5 27  1  0  0  0  0
  6  7  1  0  0  0  0
  7  8  1  0  0  0  0
  7 18  1  0  0  0  0
  7 28  1  0  0  0  0
  8  9  1  0  0  0  0
  8 29  1  0  0  0  0
  8 30  1  0  0  0  0
  9 10  1  0  0  0  0
  9 31  1  0  0  0  0
 10 17  1  0  0  0  0
 10 11  2  0  0  0  0
 11 12  1  0  0  0  0
 11 32  1  0  0  0  0
 12 13  2  0  0  0  0
 12 33  1  0  0  0  0
 13 14  1  0  0  0  0
 13 16  1  0  0  0  0
 14 15  3  0  0  0  0
 16 17  2  0  0  0  0
 16 34  1  0  0  0  0
 18 35  1  0  0  0  0
 18 36  1  0  0  0  0
M  CHG  1   3   1
M  END
> <s_m_source_file>
AV-unprocessed.smi

> <i_m_source_file_index>
3252

> <i_lp_mmshare_version>
43012

> <i_f3d_flags>
0

> <s_epik_input>
W0NIM11bQ0gyXU4xW0NIMl1bQ0gyXU9bQ0BIXShbQ0gyXTEpW0NIMl1bTkhdYzJbY0hdW2NIXWMoQyNOKVtjSF1uMg==

> <s_epik_cmdline>
J2VwaWtfcHl0aG9uJywgJy1waCcsICc3LjAnLCAnLXRuJywgJzgnLCAnLW1hJywgJzIwMCcsICctbWV0YWxfYmluZGluZycsICctaW1hZScsICc8aW5maWxlLm1hZT4nLCAnLW9tYWUnLCAnPG91dGZpbGUubWFlPic=

> <r_epik_Ionization_Penalty>
0.178512

> <r_epik_Ionization_Penalty_Charging>
0.178504

> <r_epik_Ionization_Penalty_Neutral>
8.15545e-06

> <r_epik_State_Penalty>
0.167974

> <r_epik_Charging_Adjusted_Penalty>
0.346478

> <i_epik_Tot_Q>
1

> <i_epik_Tot_abs_Q>
1

> <r_epik_Metal_State_Penalty>
0.167974

> <b_epik_Metal_Only>
0

> <s_lp_Force_Field>
OPLS_2005

> <r_lp_Energy>
19.5584

> <b_lp_Chiralities_Consistent>
1

> <s_lp_Variant>
AV-unprocessed.smi:3252-3

> <Gold.Version>
5.8.1

> <Gold.Id.Protein>
6NUR|6NUR_protein|mol2

> <Gold.PLP.Fitness>
40.3876

> <Gold.PLP.PLP>
-40.8174

> <Gold.PLP.part.hbond>
-0.6278

> <Gold.PLP.part.metal>
0.0000

> <Gold.PLP.part.buried>
-6.1746

> <Gold.PLP.part.nonpolar>
-33.0309

> <Gold.PLP.part.repulsive>
0.2127

> <Gold.PLP.ligand.clash>
0.0000

> <Gold.PLP.ligand.torsion>
0.2256

> <Gold.PLP.Chemscore.Hbond>
0.0000

> <Gold.PLP.Chemscore.CHOScore>
0.0000

> <Gold.PLP.Chemscore.Metal>
0.0000

> <Gold.PLP.Chemscore.Internal.Correction>
0.0214

> <Gold.Rescore>
     Score         DG    S(hbond)    S(metal)    S(lipo)     H(rot)  DE(clash)    DE(int)     intcor
     11.80     -12.18       0.00        0.00      89.41       1.47       0.23       0.15       ----

> <Gold.Chemscore.Fitness>
11.8042

> <Gold.Chemscore.DG>
-12.1831

> <Gold.Chemscore.ZeroCoef>
-5.4800

> <Gold.Chemscore.Hbond>
0.0000

> <Gold.Chemscore.Metal>
0.0000

> <Gold.Chemscore.Lipo>
89.4148

> <Gold.Chemscore.Internal_Hbond>
0.0000

> <Gold.Chemscore.DEClash>
0.2264

> <Gold.Chemscore.DEInternal>
0.1526

> <Gold.Chemscore.Rot>
1.4681

> <Gold.Chemscore.Internal.Correction>
   9.000000E+99

> <Gold.Chemscore.Hbond.Weighted>
-0.0000

> <Gold.Chemscore.Metal.Weighted>
-0.0000

> <Gold.Chemscore.Lipo.Weighted>
-10.4615

> <Gold.Chemscore.Internal_Hbond.Weighted>
0.0000

> <Gold.Chemscore.DEClash.Weighted>
0.2264

> <Gold.Chemscore.DEInternal.Weighted>
0.1526

> <Gold.Chemscore.Rot.Weighted>
3.7584

> <Gold.Chemscore.Internal.Correction.Weighted>
   9.000000E+99

> <Gold.Protein.RotatedTorsions>
[ 6907 6896 6895 6894 ] final -179.99 input  -60.11 | X-H torsion
[ 7974 7965 7964 7962 ] final -108.44 input  175.53 | X-H torsion
[ 8008 7997 7996 7995 ] final   90.88 input   59.86 | X-H torsion
[ 10167 10162 10161 10158 ] final -167.23 input  -65.29 | X-H torsion
[ 10718 10713 10712 10709 ] final   -0.15 input   66.30 | X-H torsion
[ 10763 10752 10751 10750 ] final -103.01 input  -60.55 | X-H torsion
[ 11005 11000 10999 10996 ] final   16.67 input  -57.11 | X-H torsion

> <Gold.Protein.ActiveResidues>
 VAL166  LYS551  ARG553  GLY616  TRP617  ASP618  TYR619  PRO620  LYS621  CYS622 
 ASP623  PHE694  ASN695  SER759  ASP760  ASP761  ALA762  ILE779  LEU786  VAL792 
 PHE793  MET794  SER795  GLU796  ALA797  LYS798  CYS799  TRP800  GLU811  SER814 

> <Gold.Protein.RotatedAtoms>
  151.6624  133.3316  159.3176 H   0  0  0  0  0  0  0  0  0  0  0  0  # atno 6907 bound_to 6896
  150.7907  134.6932  159.6518 H   0  0  0  0  0  0  0  0  0  0  0  0  # atno 6908 bound_to 6896
  152.3986  134.6328  160.0131 H   0  0  0  0  0  0  0  0  0  0  0  0  # atno 6909 bound_to 6896
  145.1929  140.9022  143.3414 H   0  0  0  0  0  0  0  0  0  0  0  0  # atno 7974 bound_to 7965
  156.0172  140.3344  155.7001 H   0  0  0  0  0  0  0  0  0  0  0  0  # atno 8008 bound_to 7997
  155.6074  140.0662  157.2734 H   0  0  0  0  0  0  0  0  0  0  0  0  # atno 8009 bound_to 7997
  154.4303  140.1799  156.1224 H   0  0  0  0  0  0  0  0  0  0  0  0  # atno 8010 bound_to 7997
  139.6063  144.0906  152.1796 H   0  0  0  0  0  0  0  0  0  0  0  0  # atno 10167 bound_to 10162
  156.8247  130.5468  149.5693 H   0  0  0  0  0  0  0  0  0  0  0  0  # atno 10718 bound_to 10713
  154.7776  135.4839  153.9776 H   0  0  0  0  0  0  0  0  0  0  0  0  # atno 10763 bound_to 10752
  153.1449  135.6780  153.8977 H   0  0  0  0  0  0  0  0  0  0  0  0  # atno 10764 bound_to 10752
  153.8639  135.3152  155.3417 H   0  0  0  0  0  0  0  0  0  0  0  0  # atno 10765 bound_to 10752
  140.4445  134.1288  155.7694 H   0  0  0  0  0  0  0  0  0  0  0  0  # atno 11005 bound_to 11000
  145.0024  139.3586  143.6161 LP  0  0  0  0  0  0  0  0  0  0  0  0  # atno 17320 bound_to 7965
  146.3433  139.9252  142.8761 LP  0  0  0  0  0  0  0  0  0  0  0  0  # atno 17321 bound_to 7965
  140.0514  144.5929  150.7333 LP  0  0  0  0  0  0  0  0  0  0  0  0  # atno 17342 bound_to 10162
  140.7287  143.2665  151.4029 LP  0  0  0  0  0  0  0  0  0  0  0  0  # atno 17343 bound_to 10162
  156.0968  130.5939  150.9827 LP  0  0  0  0  0  0  0  0  0  0  0  0  # atno 17370 bound_to 10713
  157.6438  131.0907  150.8196 LP  0  0  0  0  0  0  0  0  0  0  0  0  # atno 17371 bound_to 10713
  141.1691  133.8644  157.1625 LP  0  0  0  0  0  0  0  0  0  0  0  0  # atno 17394 bound_to 11000
  140.0048  135.0013  157.0268 LP  0  0  0  0  0  0  0  0  0  0  0  0  # atno 17395 bound_to 11000

$$$$
