AV-unprocessed.smi:1537|AV-procd|sdf|6190|dock9
  -GOLD-   22720 6353D 1   1.00000     0.00000
 Structure written by MMmdl.
 43 43  0  0  0  0  0  0  0  0  1 V2000
  152.4339  144.8913  158.5236 C   0  0  0  0  0  0  0  0  0  0  0  0
  151.4141  144.1044  159.3539 C   0  0  0  0  0  0  0  0  0  0  0  0
  152.0561  143.2898  160.4262 C   0  0  0  0  0  0  0  0  0  0  0  0
  152.8615  142.2528  160.1816 N   0  0  0  0  0  0  0  0  0  0  0  0
  153.3024  141.6242  161.3513 C   0  0  0  0  0  0  0  0  0  0  0  0
  154.2146  140.4306  161.2712 C   0  0  0  0  0  0  0  0  0  0  0  0
  154.2254  139.8031  159.8708 C   0  0  0  0  0  0  0  0  0  0  0  0
  155.0731  140.1589  159.0523 O   0  0  0  0  0  0  0  0  0  0  0  0
  153.3042  138.8605  159.6071 N   0  0  0  0  0  0  0  0  0  0  0  0
  153.1719  138.1294  158.3491 C   0  0  2  0  0  0  0  0  0  0  0  0
  154.5134  137.4337  158.0649 C   0  0  0  0  0  0  0  0  0  0  0  0
  152.8893  139.1001  157.1914 C   0  0  0  0  0  0  0  0  0  0  0  0
  152.8022  140.3110  157.4010 O   0  0  0  0  0  0  0  0  0  0  0  0
  152.7695  138.5404  155.9742 N   0  0  0  0  0  0  0  0  0  0  0  0
  152.5145  139.1993  154.6877 C   0  0  0  0  0  0  0  0  0  0  0  0
  153.8845  139.5766  154.0979 C   0  0  0  0  0  0  0  0  0  0  0  0
  151.6858  140.4857  154.8888 C   0  0  0  0  0  0  0  0  0  0  0  0
  151.7986  138.2370  153.7165 C   0  0  0  0  0  0  0  0  0  0  0  0
  152.8139  142.2081  162.4944 C   0  0  0  0  0  0  0  0  0  0  0  0
  151.7686  143.5559  162.1417 S   0  0  0  0  0  0  0  0  0  0  0  0
  151.9369  145.4732  157.7472 H   0  0  0  0  0  0  0  0  0  0  0  0
  153.1441  144.2227  158.0363 H   0  0  0  0  0  0  0  0  0  0  0  0
  152.9993  145.5833  159.1486 H   0  0  0  0  0  0  0  0  0  0  0  0
  150.6983  144.7884  159.8114 H   0  0  0  0  0  0  0  0  0  0  0  0
  150.8413  143.4398  158.7067 H   0  0  0  0  0  0  0  0  0  0  0  0
  155.2322  140.7142  161.5429 H   0  0  0  0  0  0  0  0  0  0  0  0
  153.9087  139.6660  161.9859 H   0  0  0  0  0  0  0  0  0  0  0  0
  152.6513  138.6230  160.3398 H   0  0  0  0  0  0  0  0  0  0  0  0
  152.3782  137.3832  158.4249 H   0  0  0  0  0  0  0  0  0  0  0  0
  154.4781  136.8685  157.1326 H   0  0  0  0  0  0  0  0  0  0  0  0
  154.7616  136.7300  158.8603 H   0  0  0  0  0  0  0  0  0  0  0  0
  155.3349  138.1481  157.9906 H   0  0  0  0  0  0  0  0  0  0  0  0
  152.8614  137.5357  155.9339 H   0  0  0  0  0  0  0  0  0  0  0  0
  153.7781  140.0715  153.1317 H   0  0  0  0  0  0  0  0  0  0  0  0
  154.5100  138.6957  153.9467 H   0  0  0  0  0  0  0  0  0  0  0  0
  154.4276  140.2566  154.7553 H   0  0  0  0  0  0  0  0  0  0  0  0
  152.1636  141.1583  155.6021 H   0  0  0  0  0  0  0  0  0  0  0  0
  150.6815  140.2747  155.2562 H   0  0  0  0  0  0  0  0  0  0  0  0
  151.5733  141.0303  153.9507 H   0  0  0  0  0  0  0  0  0  0  0  0
  151.6880  138.6873  152.7295 H   0  0  0  0  0  0  0  0  0  0  0  0
  150.7981  137.9746  154.0604 H   0  0  0  0  0  0  0  0  0  0  0  0
  152.3586  137.3093  153.5924 H   0  0  0  0  0  0  0  0  0  0  0  0
  152.9973  141.9211  163.5192 H   0  0  0  0  0  0  0  0  0  0  0  0
  1  2  1  0  0  0  0
  1 21  1  0  0  0  0
  1 22  1  0  0  0  0
  1 23  1  0  0  0  0
  2  3  1  0  0  0  0
  2 24  1  0  0  0  0
  2 25  1  0  0  0  0
  3 20  1  0  0  0  0
  3  4  2  0  0  0  0
  4  5  1  0  0  0  0
  5  6  1  0  0  0  0
  5 19  2  0  0  0  0
  6  7  1  0  0  0  0
  6 26  1  0  0  0  0
  6 27  1  0  0  0  0
  7  8  2  0  0  0  0
  7  9  1  0  0  0  0
  9 10  1  0  0  0  0
  9 28  1  0  0  0  0
 10 11  1  0  0  0  0
 10 12  1  0  0  0  0
 10 29  1  0  0  0  0
 11 30  1  0  0  0  0
 11 31  1  0  0  0  0
 11 32  1  0  0  0  0
 12 13  2  0  0  0  0
 12 14  1  0  0  0  0
 14 15  1  0  0  0  0
 14 33  1  0  0  0  0
 15 16  1  0  0  0  0
 15 17  1  0  0  0  0
 15 18  1  0  0  0  0
 16 34  1  0  0  0  0
 16 35  1  0  0  0  0
 16 36  1  0  0  0  0
 17 37  1  0  0  0  0
 17 38  1  0  0  0  0
 17 39  1  0  0  0  0
 18 40  1  0  0  0  0
 18 41  1  0  0  0  0
 18 42  1  0  0  0  0
 19 20  1  0  0  0  0
 19 43  1  0  0  0  0
M  END
> <s_m_source_file>
AV-unprocessed.smi

> <i_m_source_file_index>
1537

> <i_lp_mmshare_version>
43012

> <i_f3d_flags>
0

> <s_epik_input>
W0NIM11bQ0gyXWMxbmMoW2NIXXMxKVtDSDJdQyg9TylbTkhdW0NASF0oW0NIM10pQyg9TylbTkhdQyhbQ0gzXSkoW0NIM10pW0NIM10=

> <s_epik_cmdline>
J2VwaWtfcHl0aG9uJywgJy1waCcsICc3LjAnLCAnLXRuJywgJzgnLCAnLW1hJywgJzIwMCcsICctbWV0YWxfYmluZGluZycsICctaW1hZScsICc8aW5maWxlLm1hZT4nLCAnLW9tYWUnLCAnPG91dGZpbGUubWFlPic=

> <r_lp_tautomer_probability>
1

> <r_epik_Ionization_Penalty>
4.05444e-05

> <r_epik_Ionization_Penalty_Charging>
0

> <r_epik_Ionization_Penalty_Neutral>
4.05444e-05

> <r_epik_State_Penalty>
-0

> <r_epik_Charging_Adjusted_Penalty>
0

> <i_epik_Tot_Q>
0

> <i_epik_Tot_abs_Q>
0

> <r_epik_Metal_State_Penalty>
-0

> <b_epik_Metal_Only>
0

> <s_lp_Force_Field>
OPLS_2005

> <r_lp_Energy>
-1.93446

> <b_lp_Chiralities_Consistent>
1

> <s_lp_Variant>
AV-unprocessed.smi:1537-1

> <Gold.Version>
5.8.1

> <Gold.Id.Protein>
6NUR|6NUR_protein|mol2

> <Gold.PLP.Fitness>
46.8237

> <Gold.PLP.PLP>
-46.2165

> <Gold.PLP.part.hbond>
-2.0000

> <Gold.PLP.part.metal>
0.0000

> <Gold.PLP.part.buried>
-3.3020

> <Gold.PLP.part.nonpolar>
-39.0728

> <Gold.PLP.part.repulsive>
0.1880

> <Gold.PLP.ligand.clash>
0.0000

> <Gold.PLP.ligand.torsion>
1.1812

> <Gold.PLP.Chemscore.Hbond>
0.9701

> <Gold.PLP.Chemscore.CHOScore>
0.0000

> <Gold.PLP.Chemscore.Metal>
0.0000

> <Gold.Chemscore.Hbonds>
donor molecule, donor type, donor heavy atom, donor atom, acceptor molecule, acceptor atom, score
      P1  H  7997  8010       L1     8  0.72

> <Gold.PLP.Chemscore.Internal.Correction>
0.0593

> <Gold.Rescore>
     Score         DG    S(hbond)    S(metal)    S(lipo)     H(rot)  DE(clash)    DE(int)     intcor
     10.52     -18.23       0.91        0.00     124.05       1.88       0.06       7.65       ----

> <Gold.Chemscore.Fitness>
10.5189

> <Gold.Chemscore.DG>
-18.2262

> <Gold.Chemscore.ZeroCoef>
-5.4800

> <Gold.Chemscore.Hbond>
0.9093

> <Gold.Chemscore.Metal>
0.0000

> <Gold.Chemscore.Lipo>
124.0460

> <Gold.Chemscore.Internal_Hbond>
0.0000

> <Gold.Chemscore.DEClash>
0.0583

> <Gold.Chemscore.DEInternal>
7.6490

> <Gold.Chemscore.Rot>
1.8766

> <Gold.Chemscore.Internal.Correction>
   9.000000E+99

> <Gold.Chemscore.Hbonds>
donor molecule, donor type, donor heavy atom, donor atom, acceptor molecule, acceptor atom, score
      P1  H  7997  8010       L1     8  0.72

> <Gold.Chemscore.Hbond.Weighted>
-3.0370

> <Gold.Chemscore.Metal.Weighted>
-0.0000

> <Gold.Chemscore.Lipo.Weighted>
-14.5134

> <Gold.Chemscore.Internal_Hbond.Weighted>
0.0000

> <Gold.Chemscore.DEClash.Weighted>
0.0583

> <Gold.Chemscore.DEInternal.Weighted>
7.6490

> <Gold.Chemscore.Rot.Weighted>
4.8042

> <Gold.Chemscore.Internal.Correction.Weighted>
   9.000000E+99

> <Gold.Protein.RotatedTorsions>
[ 6907 6896 6895 6894 ] final   91.33 input  -60.11 | X-H torsion
[ 7974 7965 7964 7962 ] final -153.76 input  175.53 | X-H torsion
[ 8008 7997 7996 7995 ] final  -28.00 input   59.86 | X-H torsion
[ 10167 10162 10161 10158 ] final  -33.45 input  -65.29 | X-H torsion
[ 10718 10713 10712 10709 ] final  -63.16 input   66.30 | X-H torsion
[ 10763 10752 10751 10750 ] final    7.68 input  -60.55 | X-H torsion
[ 11005 11000 10999 10996 ] final  -73.79 input  -57.11 | X-H torsion

> <Gold.Protein.ActiveResidues>
 VAL166  LYS551  ARG553  GLY616  TRP617  ASP618  TYR619  PRO620  LYS621  CYS622 
 ASP623  PHE694  ASN695  SER759  ASP760  ASP761  ALA762  ILE779  LEU786  VAL792 
 PHE793  MET794  SER795  GLU796  ALA797  LYS798  CYS799  TRP800  GLU811  SER814 

> <Gold.Protein.RotatedAtoms>
  152.5449  134.1673  159.8582 H   0  0  0  0  0  0  0  0  0  0  0  0  # atno 6907 bound_to 6896
  151.1686  133.4792  159.2601 H   0  0  0  0  0  0  0  0  0  0  0  0  # atno 6908 bound_to 6896
  151.1298  135.0135  159.8632 H   0  0  0  0  0  0  0  0  0  0  0  0  # atno 6909 bound_to 6896
  144.7724  140.4481  143.5898 H   0  0  0  0  0  0  0  0  0  0  0  0  # atno 7974 bound_to 7965
  154.4351  140.1857  156.1021 H   0  0  0  0  0  0  0  0  0  0  0  0  # atno 8008 bound_to 7997
  156.0284  140.3333  155.7087 H   0  0  0  0  0  0  0  0  0  0  0  0  # atno 8009 bound_to 7997
  155.5875  140.0627  157.2758 H   0  0  0  0  0  0  0  0  0  0  0  0  # atno 8010 bound_to 7997
  140.7204  143.3619  151.1945 H   0  0  0  0  0  0  0  0  0  0  0  0  # atno 10167 bound_to 10162
  156.0809  130.4217  150.1237 H   0  0  0  0  0  0  0  0  0  0  0  0  # atno 10718 bound_to 10713
  153.2335  135.6895  153.7862 H   0  0  0  0  0  0  0  0  0  0  0  0  # atno 10763 bound_to 10752
  153.7018  135.3296  155.3227 H   0  0  0  0  0  0  0  0  0  0  0  0  # atno 10764 bound_to 10752
  154.8324  135.4569  154.1230 H   0  0  0  0  0  0  0  0  0  0  0  0  # atno 10765 bound_to 10752
  141.1627  133.6890  156.7265 H   0  0  0  0  0  0  0  0  0  0  0  0  # atno 11005 bound_to 11000
  145.6285  139.1533  143.2982 LP  0  0  0  0  0  0  0  0  0  0  0  0  # atno 17320 bound_to 7965
  146.1880  140.6390  142.9159 LP  0  0  0  0  0  0  0  0  0  0  0  0  # atno 17321 bound_to 7965
  139.7173  143.9279  152.2972 LP  0  0  0  0  0  0  0  0  0  0  0  0  # atno 17342 bound_to 10162
  139.9025  144.6904  150.8650 LP  0  0  0  0  0  0  0  0  0  0  0  0  # atno 17343 bound_to 10162
  156.9269  130.9701  151.3539 LP  0  0  0  0  0  0  0  0  0  0  0  0  # atno 17370 bound_to 10713
  157.5925  130.8454  149.8680 LP  0  0  0  0  0  0  0  0  0  0  0  0  # atno 17371 bound_to 10713
  140.2777  134.8342  157.3905 LP  0  0  0  0  0  0  0  0  0  0  0  0  # atno 17394 bound_to 11000
  140.1462  134.4908  155.7994 LP  0  0  0  0  0  0  0  0  0  0  0  0  # atno 17395 bound_to 11000

$$$$
