AV-unprocessed.smi:2339|AV-procd|sdf|9339|dock3
  -GOLD-   2272012563D 1   1.00000     0.00000
 Structure written by MMmdl.
 49 52  0  0  0  0  0  0  0  0  1 V2000
  146.7069  129.2877  152.4058 C   0  0  0  0  0  0  0  0  0  0  0  0
  145.6237  129.8075  151.4540 C   0  0  0  0  0  0  0  0  0  0  0  0
  145.6610  131.2581  151.3359 N   0  0  0  0  0  0  0  0  0  0  0  0
  144.8482  131.9307  150.4299 C   0  0  0  0  0  0  0  0  0  0  0  0
  144.8627  133.2654  150.2506 C   0  0  0  0  0  0  0  0  0  0  0  0
  145.7911  134.0928  151.0467 C   0  0  0  0  0  0  0  0  0  0  0  0
  145.8198  135.3162  150.9156 O   0  0  0  0  0  0  0  0  0  0  0  0
  146.6748  133.3726  152.0018 C   0  0  0  0  0  0  0  0  0  0  0  0
  147.5691  134.1665  152.7397 N   0  0  0  0  0  0  0  0  0  0  0  0
  148.0206  134.0085  154.0011 C   0  0  0  0  0  0  0  0  0  0  0  0
  147.6817  133.1152  154.7734 O   0  0  0  0  0  0  0  0  0  0  0  0
  148.9205  134.9336  154.3758 N   0  0  0  0  0  0  0  0  0  0  0  0
  149.6044  135.0556  155.6632 C   0  0  1  0  0  0  0  0  0  0  0  0
  150.9432  134.3164  155.6647 C   0  0  2  0  0  0  0  0  0  0  0  0
  151.4629  133.1051  156.3527 C   0  0  0  0  0  0  0  0  0  0  0  0
  152.8206  133.6919  156.8210 C   0  0  0  0  0  0  0  0  0  0  0  0
  152.7426  135.1172  156.5765 O   0  0  0  0  0  0  0  0  0  0  0  0
  151.3589  135.3980  156.6388 C   0  0  1  0  0  0  0  0  0  0  0  0
  150.4769  136.3615  155.8212 C   0  0  0  0  0  0  0  0  0  0  0  0
  151.0785  137.0495  154.5857 C   0  0  0  0  0  0  0  0  0  0  0  0
  150.1903  138.2512  154.2720 C   0  0  0  0  0  0  0  0  0  0  0  0
  149.6332  138.6996  155.6216 C   0  0  0  0  0  0  0  0  0  0  0  0
  149.8583  137.5309  156.5899 C   0  0  0  0  0  0  0  0  0  0  0  0
  146.5564  132.0221  152.0818 C   0  0  0  0  0  0  0  0  0  0  0  0
  146.6674  128.2010  152.4812 H   0  0  0  0  0  0  0  0  0  0  0  0
  146.5791  129.6962  153.4088 H   0  0  0  0  0  0  0  0  0  0  0  0
  147.7029  129.5613  152.0560 H   0  0  0  0  0  0  0  0  0  0  0  0
  145.7503  129.3583  150.4683 H   0  0  0  0  0  0  0  0  0  0  0  0
  144.6400  129.4956  151.8071 H   0  0  0  0  0  0  0  0  0  0  0  0
  144.1828  131.2909  149.8684 H   0  0  0  0  0  0  0  0  0  0  0  0
  144.2102  133.7456  149.5363 H   0  0  0  0  0  0  0  0  0  0  0  0
  147.9396  134.9577  152.2333 H   0  0  0  0  0  0  0  0  0  0  0  0
  149.1586  135.6324  153.6868 H   0  0  0  0  0  0  0  0  0  0  0  0
  148.9824  134.8151  156.5304 H   0  0  0  0  0  0  0  0  0  0  0  0
  151.4345  134.4191  154.6925 H   0  0  0  0  0  0  0  0  0  0  0  0
  150.8328  132.8108  157.1933 H   0  0  0  0  0  0  0  0  0  0  0  0
  151.5832  132.2547  155.6812 H   0  0  0  0  0  0  0  0  0  0  0  0
  152.9839  133.4950  157.8812 H   0  0  0  0  0  0  0  0  0  0  0  0
  153.6591  133.2725  156.2647 H   0  0  0  0  0  0  0  0  0  0  0  0
  150.9773  135.2521  157.6560 H   0  0  0  0  0  0  0  0  0  0  0  0
  152.0873  137.3967  154.8130 H   0  0  0  0  0  0  0  0  0  0  0  0
  151.1608  136.3982  153.7158 H   0  0  0  0  0  0  0  0  0  0  0  0
  150.7311  139.0458  153.7574 H   0  0  0  0  0  0  0  0  0  0  0  0
  149.3700  137.9414  153.6239 H   0  0  0  0  0  0  0  0  0  0  0  0
  150.1624  139.5843  155.9773 H   0  0  0  0  0  0  0  0  0  0  0  0
  148.5771  138.9609  155.5432 H   0  0  0  0  0  0  0  0  0  0  0  0
  148.9250  137.2420  157.0715 H   0  0  0  0  0  0  0  0  0  0  0  0
  150.5258  137.8507  157.3912 H   0  0  0  0  0  0  0  0  0  0  0  0
  147.1528  131.4158  152.7437 H   0  0  0  0  0  0  0  0  0  0  0  0
  1  2  1  0  0  0  0
  1 25  1  0  0  0  0
  1 26  1  0  0  0  0
  1 27  1  0  0  0  0
  2  3  1  0  0  0  0
  2 28  1  0  0  0  0
  2 29  1  0  0  0  0
  3 24  1  0  0  0  0
  3  4  1  0  0  0  0
  4  5  2  0  0  0  0
  4 30  1  0  0  0  0
  5  6  1  0  0  0  0
  5 31  1  0  0  0  0
  6  7  2  0  0  0  0
  6  8  1  0  0  0  0
  8  9  1  0  0  0  0
  8 24  2  0  0  0  0
  9 10  1  0  0  0  0
  9 32  1  0  0  0  0
 10 11  2  0  0  0  0
 10 12  1  0  0  0  0
 12 13  1  0  0  0  0
 12 33  1  0  0  0  0
 13 19  1  0  0  0  0
 13 14  1  0  0  0  0
 13 34  1  0  0  0  0
 14 18  1  0  0  0  0
 14 15  1  0  0  0  0
 14 35  1  0  0  0  0
 15 16  1  0  0  0  0
 15 36  1  0  0  0  0
 15 37  1  0  0  0  0
 16 17  1  0  0  0  0
 16 38  1  0  0  0  0
 16 39  1  0  0  0  0
 17 18  1  0  0  0  0
 18 19  1  0  0  0  0
 18 40  1  0  0  0  0
 19 23  1  0  0  0  0
 19 20  1  0  0  0  0
 20 21  1  0  0  0  0
 20 41  1  0  0  0  0
 20 42  1  0  0  0  0
 21 22  1  0  0  0  0
 21 43  1  0  0  0  0
 21 44  1  0  0  0  0
 22 23  1  0  0  0  0
 22 45  1  0  0  0  0
 22 46  1  0  0  0  0
 23 47  1  0  0  0  0
 23 48  1  0  0  0  0
 24 49  1  0  0  0  0
M  END
> <s_m_source_file>
AV-unprocessed.smi

> <i_m_source_file_index>
2339

> <i_lp_mmshare_version>
43012

> <i_f3d_flags>
0

> <s_epik_input>
W0NIM11bQ0gyXW4xW2NIXVtjSF1jKD1PKWMoW2NIXTEpW05IXUMoPU8pW05IXVtDQEBIXTJbQ0BASF0oW0NIMl1bQ0gyXU8zKVtDQEBIXTNDMjRbQ0gyXVtDSDJdW0NIMl1bQ0gyXTQ=

> <s_epik_cmdline>
J2VwaWtfcHl0aG9uJywgJy1waCcsICc3LjAnLCAnLXRuJywgJzgnLCAnLW1hJywgJzIwMCcsICctbWV0YWxfYmluZGluZycsICctaW1hZScsICc8aW5maWxlLm1hZT4nLCAnLW9tYWUnLCAnPG91dGZpbGUubWFlPic=

> <r_lp_tautomer_probability>
1

> <r_epik_Ionization_Penalty>
0.00145966

> <r_epik_Ionization_Penalty_Charging>
0.00143969

> <r_epik_Ionization_Penalty_Neutral>
1.99697e-05

> <r_epik_State_Penalty>
0.000961843

> <r_epik_Charging_Adjusted_Penalty>
0.00240153

> <i_epik_Tot_Q>
0

> <i_epik_Tot_abs_Q>
0

> <r_epik_Metal_State_Penalty>
-0

> <b_epik_Metal_Only>
0

> <s_lp_Force_Field>
OPLS_2005

> <r_lp_Energy>
78.6826

> <b_lp_Chiralities_Consistent>
1

> <s_lp_Variant>
AV-unprocessed.smi:2339-4

> <Gold.Version>
5.8.1

> <Gold.Id.Protein>
6NUR|6NUR_protein|mol2

> <Gold.PLP.Fitness>
42.3169

> <Gold.PLP.PLP>
-34.1200

> <Gold.PLP.part.hbond>
-3.0000

> <Gold.PLP.part.metal>
0.0000

> <Gold.PLP.part.buried>
-2.7751

> <Gold.PLP.part.nonpolar>
-28.6433

> <Gold.PLP.part.repulsive>
0.2662

> <Gold.PLP.ligand.clash>
0.0000

> <Gold.PLP.ligand.torsion>
0.4632

> <Gold.PLP.Chemscore.Hbond>
2.9440

> <Gold.PLP.Chemscore.CHOScore>
0.0000

> <Gold.PLP.Chemscore.Metal>
0.0000

> <Gold.Chemscore.Hbonds>
donor molecule, donor type, donor heavy atom, donor atom, acceptor molecule, acceptor atom, score
      L1  H     9    32       P1  7948  1.00
      L1  H    12    33       P1  7948  0.93
      P1  H 10752 10764       L1    17  0.88

> <Gold.PLP.Chemscore.Internal.Correction>
0.2913

> <Gold.Rescore>
     Score         DG    S(hbond)    S(metal)    S(lipo)     H(rot)  DE(clash)    DE(int)     intcor
     20.55     -21.54       2.37        0.00      95.22       1.17       0.39       0.60       ----

> <Gold.Chemscore.Fitness>
20.5482

> <Gold.Chemscore.DG>
-21.5366

> <Gold.Chemscore.ZeroCoef>
-5.4800

> <Gold.Chemscore.Hbond>
2.3663

> <Gold.Chemscore.Metal>
0.0000

> <Gold.Chemscore.Lipo>
95.2184

> <Gold.Chemscore.Internal_Hbond>
0.0000

> <Gold.Chemscore.DEClash>
0.3910

> <Gold.Chemscore.DEInternal>
0.5974

> <Gold.Chemscore.Rot>
1.1670

> <Gold.Chemscore.Internal.Correction>
   9.000000E+99

> <Gold.Chemscore.Hbonds>
donor molecule, donor type, donor heavy atom, donor atom, acceptor molecule, acceptor atom, score
      L1  H     9    32       P1  7948  0.73
      L1  H    12    33       P1  7948  0.64
      P1  H 10752 10764       L1    17  0.49

> <Gold.Chemscore.Hbond.Weighted>
-7.9035

> <Gold.Chemscore.Metal.Weighted>
-0.0000

> <Gold.Chemscore.Lipo.Weighted>
-11.1405

> <Gold.Chemscore.Internal_Hbond.Weighted>
0.0000

> <Gold.Chemscore.DEClash.Weighted>
0.3910

> <Gold.Chemscore.DEInternal.Weighted>
0.5974

> <Gold.Chemscore.Rot.Weighted>
2.9874

> <Gold.Chemscore.Internal.Correction.Weighted>
   9.000000E+99

> <Gold.Protein.RotatedTorsions>
[ 6907 6896 6895 6894 ] final  175.29 input  -60.11 | X-H torsion
[ 7974 7965 7964 7962 ] final   11.00 input  175.53 | X-H torsion
[ 8008 7997 7996 7995 ] final -111.09 input   59.86 | X-H torsion
[ 10167 10162 10161 10158 ] final  -10.27 input  -65.29 | X-H torsion
[ 10718 10713 10712 10709 ] final -101.44 input   66.30 | X-H torsion
[ 10763 10752 10751 10750 ] final  -13.43 input  -60.55 | X-H torsion
[ 11005 11000 10999 10996 ] final -169.77 input  -57.11 | X-H torsion

> <Gold.Protein.ActiveResidues>
 VAL166  LYS551  ARG553  GLY616  TRP617  ASP618  TYR619  PRO620  LYS621  CYS622 
 ASP623  PHE694  ASN695  SER759  ASP760  ASP761  ALA762  ILE779  LEU786  VAL792 
 PHE793  MET794  SER795  GLU796  ALA797  LYS798  CYS799  TRP800  GLU811  SER814 

> <Gold.Protein.RotatedAtoms>
  151.7386  133.3321  159.3359 H   0  0  0  0  0  0  0  0  0  0  0  0  # atno 6907 bound_to 6896
  150.7583  134.6298  159.6190 H   0  0  0  0  0  0  0  0  0  0  0  0  # atno 6908 bound_to 6896
  152.3545  134.6961  160.0278 H   0  0  0  0  0  0  0  0  0  0  0  0  # atno 6909 bound_to 6896
  146.2379  139.9550  142.8465 H   0  0  0  0  0  0  0  0  0  0  0  0  # atno 7974 bound_to 7965
  154.9845  140.0396  157.2292 H   0  0  0  0  0  0  0  0  0  0  0  0  # atno 8008 bound_to 7997
  154.7684  140.2797  155.6135 H   0  0  0  0  0  0  0  0  0  0  0  0  # atno 8009 bound_to 7997
  156.2916  140.2615  156.2480 H   0  0  0  0  0  0  0  0  0  0  0  0  # atno 8010 bound_to 7997
  140.7109  143.5766  150.9036 H   0  0  0  0  0  0  0  0  0  0  0  0  # atno 10167 bound_to 10162
  156.0195  130.5374  150.6964 H   0  0  0  0  0  0  0  0  0  0  0  0  # atno 10718 bound_to 10713
  153.5131  135.7016  153.5770 H   0  0  0  0  0  0  0  0  0  0  0  0  # atno 10763 bound_to 10752
  153.3852  135.3910  155.1884 H   0  0  0  0  0  0  0  0  0  0  0  0  # atno 10764 bound_to 10752
  154.8701  135.3845  154.4613 H   0  0  0  0  0  0  0  0  0  0  0  0  # atno 10765 bound_to 10752
  140.5270  134.5654  157.5064 H   0  0  0  0  0  0  0  0  0  0  0  0  # atno 11005 bound_to 11000
  145.1825  140.9774  143.4258 LP  0  0  0  0  0  0  0  0  0  0  0  0  # atno 17320 bound_to 7965
  144.9930  139.3671  143.6205 LP  0  0  0  0  0  0  0  0  0  0  0  0  # atno 17321 bound_to 7965
  139.9492  143.6291  152.3033 LP  0  0  0  0  0  0  0  0  0  0  0  0  # atno 17342 bound_to 10162
  139.6804  144.7656  151.1619 LP  0  0  0  0  0  0  0  0  0  0  0  0  # atno 17343 bound_to 10162
  157.4634  131.0885  151.0721 LP  0  0  0  0  0  0  0  0  0  0  0  0  # atno 17370 bound_to 10713
  157.1203  130.6059  149.5503 LP  0  0  0  0  0  0  0  0  0  0  0  0  # atno 17371 bound_to 10713
  139.9575  134.7510  156.0310 LP  0  0  0  0  0  0  0  0  0  0  0  0  # atno 17394 bound_to 11000
  141.1303  133.6588  156.3446 LP  0  0  0  0  0  0  0  0  0  0  0  0  # atno 17395 bound_to 11000

$$$$
