AV-unprocessed.smi:2966|AV-procd|sdf|11325|dock7
  -GOLD-   2272016233D 1   1.00000     0.00000
 Structure written by MMmdl.
 41 43  0  0  0  0  0  0  0  0  2 V2000
  150.4693  138.4696  154.3886 C   0  0  0  0  0  0  0  0  0  0  0  0
  151.1357  139.7188  154.4302 O   0  0  0  0  0  0  0  0  0  0  0  0
  151.9106  139.8831  155.6067 C   0  0  0  0  0  0  0  0  0  0  0  0
  151.0275  140.4107  156.7455 C   0  0  0  0  0  0  0  0  0  0  0  0
  151.8183  140.8934  157.8870 N   0  0  0  0  0  0  0  0  0  0  0  0
  152.6563  140.2203  158.7224 C   0  0  0  0  0  0  0  0  0  0  0  0
  153.0274  138.4985  158.6661 S   0  0  0  0  0  0  0  0  0  0  0  0
  154.3406  138.2840  159.8999 C   0  0  0  0  0  0  0  0  0  0  0  0
  154.0753  137.1045  160.8340 C   0  0  0  0  0  0  0  0  0  0  0  0
  153.5833  136.0680  160.3886 O   0  0  0  0  0  0  0  0  0  0  0  0
  154.4297  137.2696  162.1168 N   0  0  0  0  0  0  0  0  0  0  0  0
  154.3174  136.2835  163.1414 C   0  0  0  0  0  0  0  0  0  0  0  0
  153.4507  136.6098  164.3381 C   0  0  0  0  0  0  0  0  0  0  0  0
  154.9475  136.5911  164.4825 C   0  0  0  0  0  0  0  0  0  0  0  0
  153.1377  141.1075  159.6348 N   0  3  0  0  0  0  0  0  0  0  0  0
  152.6100  142.3730  159.3734 C   0  0  0  0  0  0  0  0  0  0  0  0
  152.8047  143.5908  160.0178 C   0  0  0  0  0  0  0  0  0  0  0  0
  152.1123  144.7020  159.4936 C   0  0  0  0  0  0  0  0  0  0  0  0
  151.2668  144.5783  158.3721 C   0  0  0  0  0  0  0  0  0  0  0  0
  151.0756  143.3384  157.7276 C   0  0  0  0  0  0  0  0  0  0  0  0
  151.7626  142.2438  158.2518 C   0  0  0  0  0  0  0  0  0  0  0  0
  149.8935  138.3923  153.4664 H   0  0  0  0  0  0  0  0  0  0  0  0
  149.7798  138.3624  155.2269 H   0  0  0  0  0  0  0  0  0  0  0  0
  151.1801  137.6426  154.4114 H   0  0  0  0  0  0  0  0  0  0  0  0
  152.3557  138.9304  155.8973 H   0  0  0  0  0  0  0  0  0  0  0  0
  152.7282  140.5814  155.4196 H   0  0  0  0  0  0  0  0  0  0  0  0
  150.3714  141.2086  156.3978 H   0  0  0  0  0  0  0  0  0  0  0  0
  150.3747  139.6165  157.1074 H   0  0  0  0  0  0  0  0  0  0  0  0
  155.2925  138.1393  159.3883 H   0  0  0  0  0  0  0  0  0  0  0  0
  154.4276  139.2009  160.4840 H   0  0  0  0  0  0  0  0  0  0  0  0
  154.8273  138.1583  162.3851 H   0  0  0  0  0  0  0  0  0  0  0  0
  154.3312  135.2384  162.8344 H   0  0  0  0  0  0  0  0  0  0  0  0
  152.9569  137.5795  164.3607 H   0  0  0  0  0  0  0  0  0  0  0  0
  152.8924  135.7929  164.7911 H   0  0  0  0  0  0  0  0  0  0  0  0
  155.3900  135.7613  165.0300 H   0  0  0  0  0  0  0  0  0  0  0  0
  155.4508  137.5487  164.6031 H   0  0  0  0  0  0  0  0  0  0  0  0
  153.4529  143.6888  160.8764 H   0  0  0  0  0  0  0  0  0  0  0  0
  152.2331  145.6690  159.9602 H   0  0  0  0  0  0  0  0  0  0  0  0
  150.7544  145.4525  157.9970 H   0  0  0  0  0  0  0  0  0  0  0  0
  150.4296  143.2568  156.8661 H   0  0  0  0  0  0  0  0  0  0  0  0
  153.7791  140.8635  160.3781 H   0  0  0  0  0  0  0  0  0  0  0  0
  1  2  1  0  0  0  0
  1 22  1  0  0  0  0
  1 23  1  0  0  0  0
  1 24  1  0  0  0  0
  2  3  1  0  0  0  0
  3  4  1  0  0  0  0
  3 25  1  0  0  0  0
  3 26  1  0  0  0  0
  4  5  1  0  0  0  0
  4 27  1  0  0  0  0
  4 28  1  0  0  0  0
  5 21  1  0  0  0  0
  5  6  1  0  0  0  0
  6  7  1  0  0  0  0
  6 15  2  0  0  0  0
  7  8  1  0  0  0  0
  8  9  1  0  0  0  0
  8 29  1  0  0  0  0
  8 30  1  0  0  0  0
  9 10  2  0  0  0  0
  9 11  1  0  0  0  0
 11 12  1  0  0  0  0
 11 31  1  0  0  0  0
 12 14  1  0  0  0  0
 12 13  1  0  0  0  0
 12 32  1  0  0  0  0
 13 14  1  0  0  0  0
 13 33  1  0  0  0  0
 13 34  1  0  0  0  0
 14 35  1  0  0  0  0
 14 36  1  0  0  0  0
 15 16  1  0  0  0  0
 15 41  1  0  0  0  0
 16 21  2  0  0  0  0
 16 17  1  0  0  0  0
 17 18  2  0  0  0  0
 17 37  1  0  0  0  0
 18 19  1  0  0  0  0
 18 38  1  0  0  0  0
 19 20  2  0  0  0  0
 19 39  1  0  0  0  0
 20 21  1  0  0  0  0
 20 40  1  0  0  0  0
M  CHG  1  15   1
M  END
> <s_m_source_file>
AV-unprocessed.smi

> <i_m_source_file_index>
2966

> <i_lp_mmshare_version>
43012

> <i_f3d_flags>
0

> <s_epik_input>
W2NIXTFbY0hdW2NIXVtjSF1jKGMxMiluKFtDSDJdW0NIMl1PW0NIM10pYyhuMilTW0NIMl1DKD1PKVtOSF1bQ0hdM1tDSDJdW0NIMl0z

> <s_epik_cmdline>
J2VwaWtfcHl0aG9uJywgJy1waCcsICc3LjAnLCAnLXRuJywgJzgnLCAnLW1hJywgJzIwMCcsICctbWV0YWxfYmluZGluZycsICctaW1hZScsICc8aW5maWxlLm1hZT4nLCAnLW9tYWUnLCAnPG91dGZpbGUubWFlPic=

> <r_epik_Ionization_Penalty>
1.66257

> <r_epik_Ionization_Penalty_Charging>
1.66257

> <r_epik_Ionization_Penalty_Neutral>
8.69326e-08

> <r_epik_State_Penalty>
1.76557

> <r_epik_Charging_Adjusted_Penalty>
3.42813

> <i_epik_Tot_Q>
1

> <i_epik_Tot_abs_Q>
1

> <r_epik_Metal_State_Penalty>
1.80073

> <b_epik_Metal_Only>
0

> <s_lp_Force_Field>
OPLS_2005

> <r_lp_Energy>
20.3811

> <b_lp_Chiralities_Consistent>
1

> <s_lp_Variant>
AV-unprocessed.smi:2966-2

> <Gold.Version>
5.8.1

> <Gold.Id.Protein>
6NUR|6NUR_protein|mol2

> <Gold.PLP.Fitness>
51.5847

> <Gold.PLP.PLP>
-47.3587

> <Gold.PLP.part.hbond>
-2.0000

> <Gold.PLP.part.metal>
0.0000

> <Gold.PLP.part.buried>
-5.2499

> <Gold.PLP.part.nonpolar>
-40.3865

> <Gold.PLP.part.repulsive>
0.2089

> <Gold.PLP.ligand.clash>
0.0000

> <Gold.PLP.ligand.torsion>
0.9327

> <Gold.PLP.Chemscore.Hbond>
2.0000

> <Gold.PLP.Chemscore.CHOScore>
0.0000

> <Gold.PLP.Chemscore.Metal>
0.0000

> <Gold.Chemscore.Hbonds>
donor molecule, donor type, donor heavy atom, donor atom, acceptor molecule, acceptor atom, score
      P1  H  6896  6908       L1    10  1.00
      P1  H  7989  7998       L1     2  1.00

> <Gold.PLP.Chemscore.Internal.Correction>
0.0914

> <Gold.Rescore>
     Score         DG    S(hbond)    S(metal)    S(lipo)     H(rot)  DE(clash)    DE(int)     intcor
     19.77     -20.75       1.92        0.00     124.14       2.21       0.10       0.88       ----

> <Gold.Chemscore.Fitness>
19.7690

> <Gold.Chemscore.DG>
-20.7450

> <Gold.Chemscore.ZeroCoef>
-5.4800

> <Gold.Chemscore.Hbond>
1.9194

> <Gold.Chemscore.Metal>
0.0000

> <Gold.Chemscore.Lipo>
124.1399

> <Gold.Chemscore.Internal_Hbond>
0.0000

> <Gold.Chemscore.DEClash>
0.0965

> <Gold.Chemscore.DEInternal>
0.8795

> <Gold.Chemscore.Rot>
2.2149

> <Gold.Chemscore.Internal.Correction>
   9.000000E+99

> <Gold.Chemscore.Hbonds>
donor molecule, donor type, donor heavy atom, donor atom, acceptor molecule, acceptor atom, score
      P1  H  6896  6908       L1    10  1.00
      P1  H  7989  7998       L1     2  0.43

> <Gold.Chemscore.Hbond.Weighted>
-6.4107

> <Gold.Chemscore.Metal.Weighted>
-0.0000

> <Gold.Chemscore.Lipo.Weighted>
-14.5244

> <Gold.Chemscore.Internal_Hbond.Weighted>
0.0000

> <Gold.Chemscore.DEClash.Weighted>
0.0965

> <Gold.Chemscore.DEInternal.Weighted>
0.8795

> <Gold.Chemscore.Rot.Weighted>
5.6700

> <Gold.Chemscore.Internal.Correction.Weighted>
   9.000000E+99

> <Gold.Protein.RotatedTorsions>
[ 6907 6896 6895 6894 ] final  -69.40 input  -60.11 | X-H torsion
[ 7974 7965 7964 7962 ] final  125.98 input  175.53 | X-H torsion
[ 8008 7997 7996 7995 ] final   25.67 input   59.86 | X-H torsion
[ 10167 10162 10161 10158 ] final   -3.27 input  -65.29 | X-H torsion
[ 10718 10713 10712 10709 ] final  170.39 input   66.30 | X-H torsion
[ 10763 10752 10751 10750 ] final -152.80 input  -60.55 | X-H torsion
[ 11005 11000 10999 10996 ] final   46.94 input  -57.11 | X-H torsion

> <Gold.Protein.ActiveResidues>
 VAL166  LYS551  ARG553  GLY616  TRP617  ASP618  TYR619  PRO620  LYS621  CYS622 
 ASP623  PHE694  ASN695  SER759  ASP760  ASP761  ALA762  ILE779  LEU786  VAL792 
 PHE793  MET794  SER795  GLU796  ALA797  LYS798  CYS799  TRP800  GLU811  SER814 

> <Gold.Protein.RotatedAtoms>
  150.7307  134.5601  159.5837 H   0  0  0  0  0  0  0  0  0  0  0  0  # atno 6907 bound_to 6896
  152.3067  134.7544  160.0355 H   0  0  0  0  0  0  0  0  0  0  0  0  # atno 6908 bound_to 6896
  151.8106  133.3345  159.3591 H   0  0  0  0  0  0  0  0  0  0  0  0  # atno 6909 bound_to 6896
  145.0669  139.3761  143.4977 H   0  0  0  0  0  0  0  0  0  0  0  0  # atno 7974 bound_to 7965
  155.0153  140.3141  155.4814 H   0  0  0  0  0  0  0  0  0  0  0  0  # atno 8008 bound_to 7997
  156.2902  140.2207  156.5211 H   0  0  0  0  0  0  0  0  0  0  0  0  # atno 8009 bound_to 7997
  154.7499  140.0467  157.0872 H   0  0  0  0  0  0  0  0  0  0  0  0  # atno 8010 bound_to 7997
  140.6884  143.6559  150.8309 H   0  0  0  0  0  0  0  0  0  0  0  0  # atno 10167 bound_to 10162
  157.0088  131.0198  151.2809 H   0  0  0  0  0  0  0  0  0  0  0  0  # atno 10718 bound_to 10713
  154.7970  135.3227  154.7643 H   0  0  0  0  0  0  0  0  0  0  0  0  # atno 10763 bound_to 10752
  153.8319  135.6878  153.4818 H   0  0  0  0  0  0  0  0  0  0  0  0  # atno 10764 bound_to 10752
  153.1666  135.4639  154.9788 H   0  0  0  0  0  0  0  0  0  0  0  0  # atno 10765 bound_to 10752
  140.1324  134.4689  155.8511 H   0  0  0  0  0  0  0  0  0  0  0  0  # atno 11005 bound_to 11000
  146.3527  140.0395  142.8644 LP  0  0  0  0  0  0  0  0  0  0  0  0  # atno 17320 bound_to 7965
  145.1340  140.9534  143.4527 LP  0  0  0  0  0  0  0  0  0  0  0  0  # atno 17321 bound_to 7965
  140.0269  143.5484  152.2777 LP  0  0  0  0  0  0  0  0  0  0  0  0  # atno 17342 bound_to 10162
  139.6263  144.7637  151.2632 LP  0  0  0  0  0  0  0  0  0  0  0  0  # atno 17343 bound_to 10162
  157.5336  130.8074  149.7945 LP  0  0  0  0  0  0  0  0  0  0  0  0  # atno 17370 bound_to 10713
  156.0144  130.3820  150.2159 LP  0  0  0  0  0  0  0  0  0  0  0  0  # atno 17371 bound_to 10713
  141.2172  133.6801  156.7094 LP  0  0  0  0  0  0  0  0  0  0  0  0  # atno 17394 bound_to 11000
  140.2825  134.8305  157.3946 LP  0  0  0  0  0  0  0  0  0  0  0  0  # atno 17395 bound_to 11000

$$$$
