AV-unprocessed.smi:2418|AV-procd|sdf|9550|dock5
  -GOLD-   2272013183D 1   1.00000     0.00000
 Structure written by MMmdl.
 34 35  0  0  0  0  0  0  0  0  1 V2000
  148.4502  139.3623  153.4686 C   0  0  0  0  0  0  0  0  0  0  0  0
  149.5001  139.8669  154.4424 C   0  0  0  0  0  0  0  0  0  0  0  0
  149.3427  141.1889  154.8683 N   0  0  0  0  0  0  0  0  0  0  0  0
  150.1895  141.7037  155.6981 C   0  0  0  0  0  0  0  0  0  0  0  0
  151.2782  140.9671  156.1954 N   0  0  0  0  0  0  0  0  0  0  0  0
  152.1705  141.6729  157.1316 C   0  0  0  0  0  0  0  0  0  0  0  0
  151.4704  142.8616  157.8278 C   0  0  2  0  0  0  0  0  0  0  0  0
  151.7082  144.0378  157.0790 O   0  0  0  0  0  0  0  0  0  0  0  0
  151.9543  143.0052  159.2655 C   0  0  0  0  0  0  0  0  0  0  0  0
  152.6522  141.9503  159.8965 C   0  0  0  0  0  0  0  0  0  0  0  0
  153.0885  142.0812  161.2290 C   0  0  0  0  0  0  0  0  0  0  0  0
  153.7578  141.0662  161.8248 F   0  0  0  0  0  0  0  0  0  0  0  0
  152.8273  143.2661  161.9425 C   0  0  0  0  0  0  0  0  0  0  0  0
  152.1257  144.3179  161.3234 C   0  0  0  0  0  0  0  0  0  0  0  0
  151.6873  144.1888  159.9909 C   0  0  0  0  0  0  0  0  0  0  0  0
  151.0037  145.2071  159.4156 F   0  0  0  0  0  0  0  0  0  0  0  0
  151.5074  139.6731  155.8288 C   0  0  0  0  0  0  0  0  0  0  0  0
  152.4668  139.0351  156.2658 O   0  0  0  0  0  0  0  0  0  0  0  0
  150.5348  139.1004  154.8836 C   0  0  0  0  0  0  0  0  0  0  0  0
  150.7566  137.6556  154.4535 C   0  0  0  0  0  0  0  0  0  0  0  0
  148.9132  139.0688  152.5262 H   0  0  0  0  0  0  0  0  0  0  0  0
  147.7078  140.1311  153.2512 H   0  0  0  0  0  0  0  0  0  0  0  0
  147.9255  138.5015  153.8840 H   0  0  0  0  0  0  0  0  0  0  0  0
  150.1162  142.7319  156.0572 H   0  0  0  0  0  0  0  0  0  0  0  0
  152.4996  140.9598  157.8906 H   0  0  0  0  0  0  0  0  0  0  0  0
  153.0971  141.9980  156.6548 H   0  0  0  0  0  0  0  0  0  0  0  0
  150.3914  142.7053  157.8405 H   0  0  0  0  0  0  0  0  0  0  0  0
  151.0931  144.0674  156.3623 H   0  0  0  0  0  0  0  0  0  0  0  0
  152.8535  141.0334  159.3618 H   0  0  0  0  0  0  0  0  0  0  0  0
  153.1617  143.3667  162.9645 H   0  0  0  0  0  0  0  0  0  0  0  0
  151.9207  145.2251  161.8727 H   0  0  0  0  0  0  0  0  0  0  0  0
  150.7444  136.9986  155.3237 H   0  0  0  0  0  0  0  0  0  0  0  0
  151.7258  137.5529  153.9641 H   0  0  0  0  0  0  0  0  0  0  0  0
  150.0002  137.2926  153.7598 H   0  0  0  0  0  0  0  0  0  0  0  0
  1  2  1  0  0  0  0
  1 21  1  0  0  0  0
  1 22  1  0  0  0  0
  1 23  1  0  0  0  0
  2 19  2  0  0  0  0
  2  3  1  0  0  0  0
  3  4  2  0  0  0  0
  4  5  1  0  0  0  0
  4 24  1  0  0  0  0
  5  6  1  0  0  0  0
  5 17  1  0  0  0  0
  6  7  1  0  0  0  0
  6 25  1  0  0  0  0
  6 26  1  0  0  0  0
  7  8  1  0  0  0  0
  7  9  1  0  0  0  0
  7 27  1  0  0  0  0
  8 28  1  0  0  0  0
  9 15  1  0  0  0  0
  9 10  2  0  0  0  0
 10 11  1  0  0  0  0
 10 29  1  0  0  0  0
 11 12  1  0  0  0  0
 11 13  2  0  0  0  0
 13 14  1  0  0  0  0
 13 30  1  0  0  0  0
 14 15  2  0  0  0  0
 14 31  1  0  0  0  0
 15 16  1  0  0  0  0
 17 18  2  0  0  0  0
 17 19  1  0  0  0  0
 19 20  1  0  0  0  0
 20 32  1  0  0  0  0
 20 33  1  0  0  0  0
 20 34  1  0  0  0  0
M  END
> <s_m_source_file>
AV-unprocessed.smi

> <i_m_source_file_index>
2418

> <i_lp_mmshare_version>
43012

> <i_f3d_flags>
0

> <s_epik_input>
W0NIM11jMW5bY0hdbihjKD1PKWMxW0NIM10pW0NIMl1bQ0BIXShbT0hdKWMyW2NIXWMoRilbY0hdW2NIXWMyRg==

> <s_epik_cmdline>
J2VwaWtfcHl0aG9uJywgJy1waCcsICc3LjAnLCAnLXRuJywgJzgnLCAnLW1hJywgJzIwMCcsICctbWV0YWxfYmluZGluZycsICctaW1hZScsICc8aW5maWxlLm1hZT4nLCAnLW9tYWUnLCAnPG91dGZpbGUubWFlPic=

> <r_lp_tautomer_probability>
1

> <r_epik_Ionization_Penalty>
5.08222e-05

> <r_epik_Ionization_Penalty_Charging>
7.56727e-08

> <r_epik_Ionization_Penalty_Neutral>
5.07465e-05

> <r_epik_State_Penalty>
-0

> <r_epik_Charging_Adjusted_Penalty>
7.56727e-08

> <i_epik_Tot_Q>
0

> <i_epik_Tot_abs_Q>
0

> <r_epik_Metal_State_Penalty>
-0

> <b_epik_Metal_Only>
0

> <s_lp_Force_Field>
OPLS_2005

> <r_lp_Energy>
19.2488

> <b_lp_Chiralities_Consistent>
1

> <s_lp_Variant>
AV-unprocessed.smi:2418-1

> <Gold.Version>
5.8.1

> <Gold.Id.Protein>
6NUR|6NUR_protein|mol2

> <Gold.PLP.Fitness>
54.1028

> <Gold.PLP.PLP>
-47.7725

> <Gold.PLP.part.hbond>
-2.0000

> <Gold.PLP.part.metal>
0.0000

> <Gold.PLP.part.buried>
-2.5358

> <Gold.PLP.part.nonpolar>
-41.8101

> <Gold.PLP.part.repulsive>
0.1240

> <Gold.PLP.ligand.clash>
0.3015

> <Gold.PLP.ligand.torsion>
1.1901

> <Gold.PLP.Chemscore.Hbond>
2.0000

> <Gold.PLP.Chemscore.CHOScore>
1.0000

> <Gold.PLP.Chemscore.Metal>
0.0000

> <Gold.Chemscore.Hbonds>
donor molecule, donor type, donor heavy atom, donor atom, acceptor molecule, acceptor atom, score
      L1  H     8    28       P1  8028  0.12
      P1  H  7997  8008       L1    18  0.63
      L1  C     4    24       P1  8028  1.00

> <Gold.PLP.Chemscore.Internal.Correction>
0.0120

> <Gold.Rescore>
     Score         DG    S(hbond)    S(metal)    S(lipo)     H(rot)  DE(clash)    DE(int)     intcor
     13.83     -20.34       1.98        0.00     116.60       2.11       3.31       3.20       ----

> <Gold.Chemscore.Fitness>
13.8312

> <Gold.Chemscore.DG>
-20.3442

> <Gold.Chemscore.ZeroCoef>
-5.4800

> <Gold.Chemscore.Hbond>
1.9831

> <Gold.Chemscore.Metal>
0.0000

> <Gold.Chemscore.Lipo>
116.5956

> <Gold.Chemscore.Internal_Hbond>
0.0000

> <Gold.Chemscore.DEClash>
3.3094

> <Gold.Chemscore.DEInternal>
3.2036

> <Gold.Chemscore.Rot>
2.1097

> <Gold.Chemscore.Internal.Correction>
   9.000000E+99

> <Gold.Chemscore.Hbonds>
donor molecule, donor type, donor heavy atom, donor atom, acceptor molecule, acceptor atom, score
      L1  H     8    28       P1  8028  0.13
      P1  H  7997  8008       L1    18  0.60

> <Gold.Chemscore.Hbond.Weighted>
-6.6235

> <Gold.Chemscore.Metal.Weighted>
-0.0000

> <Gold.Chemscore.Lipo.Weighted>
-13.6417

> <Gold.Chemscore.Internal_Hbond.Weighted>
0.0000

> <Gold.Chemscore.DEClash.Weighted>
3.3094

> <Gold.Chemscore.DEInternal.Weighted>
3.2036

> <Gold.Chemscore.Rot.Weighted>
5.4009

> <Gold.Chemscore.Internal.Correction.Weighted>
   9.000000E+99

> <Gold.Protein.RotatedTorsions>
[ 6907 6896 6895 6894 ] final  -58.64 input  -60.11 | X-H torsion
[ 7974 7965 7964 7962 ] final  112.39 input  175.53 | X-H torsion
[ 8008 7997 7996 7995 ] final  -54.51 input   59.86 | X-H torsion
[ 10167 10162 10161 10158 ] final    7.64 input  -65.29 | X-H torsion
[ 10718 10713 10712 10709 ] final   68.96 input   66.30 | X-H torsion
[ 10763 10752 10751 10750 ] final   79.75 input  -60.55 | X-H torsion
[ 11005 11000 10999 10996 ] final  -19.06 input  -57.11 | X-H torsion

> <Gold.Protein.ActiveResidues>
 VAL166  LYS551  ARG553  GLY616  TRP617  ASP618  TYR619  PRO620  LYS621  CYS622 
 ASP623  PHE694  ASN695  SER759  ASP760  ASP761  ALA762  ILE779  LEU786  VAL792 
 PHE793  MET794  SER795  GLU796  ALA797  LYS798  CYS799  TRP800  GLU811  SER814 

> <Gold.Protein.RotatedAtoms>
  150.7991  134.7073  159.6583 H   0  0  0  0  0  0  0  0  0  0  0  0  # atno 6907 bound_to 6896
  152.4107  134.6126  160.0039 H   0  0  0  0  0  0  0  0  0  0  0  0  # atno 6908 bound_to 6896
  151.6370  133.3291  159.3158 H   0  0  0  0  0  0  0  0  0  0  0  0  # atno 6909 bound_to 6896
  145.2301  139.2823  143.4172 H   0  0  0  0  0  0  0  0  0  0  0  0  # atno 7974 bound_to 7965
  154.4165  140.1174  156.5327 H   0  0  0  0  0  0  0  0  0  0  0  0  # atno 8008 bound_to 7997
  155.6589  140.3496  155.4756 H   0  0  0  0  0  0  0  0  0  0  0  0  # atno 8009 bound_to 7997
  155.9730  140.1145  157.0785 H   0  0  0  0  0  0  0  0  0  0  0  0  # atno 8010 bound_to 7997
  140.6360  143.7884  150.7360 H   0  0  0  0  0  0  0  0  0  0  0  0  # atno 10167 bound_to 10162
  157.6319  130.9401  150.0448 H   0  0  0  0  0  0  0  0  0  0  0  0  # atno 10718 bound_to 10713
  153.0977  135.4828  154.8810 H   0  0  0  0  0  0  0  0  0  0  0  0  # atno 10763 bound_to 10752
  154.7344  135.3067  154.8840 H   0  0  0  0  0  0  0  0  0  0  0  0  # atno 10764 bound_to 10752
  153.9466  135.6828  153.4797 H   0  0  0  0  0  0  0  0  0  0  0  0  # atno 10765 bound_to 10752
  140.8329  133.7983  155.9778 H   0  0  0  0  0  0  0  0  0  0  0  0  # atno 11005 bound_to 11000
  146.3355  140.2634  142.8603 LP  0  0  0  0  0  0  0  0  0  0  0  0  # atno 17320 bound_to 7965
  144.9684  140.8345  143.5470 LP  0  0  0  0  0  0  0  0  0  0  0  0  # atno 17321 bound_to 7965
  140.1506  143.4361  152.2134 LP  0  0  0  0  0  0  0  0  0  0  0  0  # atno 17342 bound_to 10162
  139.5571  144.7380  151.4263 LP  0  0  0  0  0  0  0  0  0  0  0  0  # atno 17343 bound_to 10162
  156.1528  130.3642  149.9412 LP  0  0  0  0  0  0  0  0  0  0  0  0  # atno 17370 bound_to 10713
  156.7428  130.9086  151.3633 LP  0  0  0  0  0  0  0  0  0  0  0  0  # atno 17371 bound_to 10713
  140.8978  134.2416  157.5059 LP  0  0  0  0  0  0  0  0  0  0  0  0  # atno 17394 bound_to 11000
  139.8704  134.9692  156.4658 LP  0  0  0  0  0  0  0  0  0  0  0  0  # atno 17395 bound_to 11000

$$$$
