AV-unprocessed.smi:2782|AV-procd|sdf|10722|dock7
  -GOLD-   2272015163D 1   1.00000     0.00000
 Structure written by MMmdl.
 38 39  0  0  0  0  0  0  0  0  1 V2000
  151.2802  143.9502  159.1499 C   0  0  0  0  0  0  0  0  0  0  0  0
  152.2066  142.8163  159.5385 C   0  0  0  0  0  0  0  0  0  0  0  0
  152.8634  142.8433  160.7838 C   0  0  0  0  0  0  0  0  0  0  0  0
  153.7184  141.7882  161.1496 C   0  0  0  0  0  0  0  0  0  0  0  0
  153.9224  140.7058  160.2723 C   0  0  0  0  0  0  0  0  0  0  0  0
  154.9714  139.4203  160.7519 Cl  0  0  0  0  0  0  0  0  0  0  0  0
  153.2782  140.6677  159.0157 C   0  0  0  0  0  0  0  0  0  0  0  0
  153.5385  139.5838  158.2040 O   0  0  0  0  0  0  0  0  0  0  0  0
  152.6199  139.2731  157.1639 C   0  0  0  0  0  0  0  0  0  0  0  0
  153.4045  138.8644  155.9036 C   0  0  1  0  0  0  0  0  0  0  0  0
  153.9554  137.5810  156.1181 O   0  0  0  0  0  0  0  0  0  0  0  0
  152.5456  138.8088  154.6190 C   0  0  0  0  0  0  0  0  0  0  0  0
  151.3074  138.0389  154.7899 N   0  0  0  0  0  0  0  0  0  0  0  0
  151.5064  136.6856  155.0098 N   0  0  0  0  0  0  0  0  0  0  0  0
  150.5086  135.8883  155.2065 C   0  0  0  0  0  0  0  0  0  0  0  0
  150.8165  134.4459  155.4762 C   0  0  0  0  0  0  0  0  0  0  0  0
  149.1571  136.4125  155.1654 C   0  0  0  0  0  0  0  0  0  0  0  0
  148.9658  137.7316  154.9486 C   0  0  0  0  0  0  0  0  0  0  0  0
  150.0866  138.6484  154.7514 C   0  0  0  0  0  0  0  0  0  0  0  0
  149.9460  139.8576  154.5705 O   0  0  0  0  0  0  0  0  0  0  0  0
  152.4101  141.7315  158.6604 C   0  0  0  0  0  0  0  0  0  0  0  0
  151.7038  144.9100  159.4468 H   0  0  0  0  0  0  0  0  0  0  0  0
  150.3150  143.8328  159.6430 H   0  0  0  0  0  0  0  0  0  0  0  0
  151.1146  143.9736  158.0724 H   0  0  0  0  0  0  0  0  0  0  0  0
  152.7109  143.6700  161.4622 H   0  0  0  0  0  0  0  0  0  0  0  0
  154.2181  141.8093  162.1071 H   0  0  0  0  0  0  0  0  0  0  0  0
  151.9894  138.4485  157.5015 H   0  0  0  0  0  0  0  0  0  0  0  0
  151.9718  140.1187  156.9284 H   0  0  0  0  0  0  0  0  0  0  0  0
  154.2436  139.5470  155.7643 H   0  0  0  0  0  0  0  0  0  0  0  0
  154.6830  137.6615  156.7155 H   0  0  0  0  0  0  0  0  0  0  0  0
  152.3031  139.8215  154.2911 H   0  0  0  0  0  0  0  0  0  0  0  0
  153.1339  138.3806  153.8049 H   0  0  0  0  0  0  0  0  0  0  0  0
  151.2984  133.9838  154.6142 H   0  0  0  0  0  0  0  0  0  0  0  0
  149.9087  133.8833  155.6953 H   0  0  0  0  0  0  0  0  0  0  0  0
  151.4842  134.3464  156.3329 H   0  0  0  0  0  0  0  0  0  0  0  0
  148.3179  135.7488  155.3124 H   0  0  0  0  0  0  0  0  0  0  0  0
  147.9591  138.1217  154.9224 H   0  0  0  0  0  0  0  0  0  0  0  0
  151.8861  141.7346  157.7169 H   0  0  0  0  0  0  0  0  0  0  0  0
  1  2  1  0  0  0  0
  1 22  1  0  0  0  0
  1 23  1  0  0  0  0
  1 24  1  0  0  0  0
  2 21  1  0  0  0  0
  2  3  2  0  0  0  0
  3  4  1  0  0  0  0
  3 25  1  0  0  0  0
  4  5  2  0  0  0  0
  4 26  1  0  0  0  0
  5  6  1  0  0  0  0
  5  7  1  0  0  0  0
  7  8  1  0  0  0  0
  7 21  2  0  0  0  0
  8  9  1  0  0  0  0
  9 10  1  0  0  0  0
  9 27  1  0  0  0  0
  9 28  1  0  0  0  0
 10 11  1  0  0  0  0
 10 12  1  0  0  0  0
 10 29  1  0  0  0  0
 11 30  1  0  0  0  0
 12 13  1  0  0  0  0
 12 31  1  0  0  0  0
 12 32  1  0  0  0  0
 13 19  1  0  0  0  0
 13 14  1  0  0  0  0
 14 15  2  0  0  0  0
 15 16  1  0  0  0  0
 15 17  1  0  0  0  0
 16 33  1  0  0  0  0
 16 34  1  0  0  0  0
 16 35  1  0  0  0  0
 17 18  2  0  0  0  0
 17 36  1  0  0  0  0
 18 19  1  0  0  0  0
 18 37  1  0  0  0  0
 19 20  2  0  0  0  0
 21 38  1  0  0  0  0
M  END
> <s_m_source_file>
AV-unprocessed.smi

> <i_m_source_file_index>
2782

> <i_lp_mmshare_version>
43012

> <i_f3d_flags>
0

> <s_epik_input>
W0NIM11jMVtjSF1bY0hdYyhDbCljKFtjSF0xKU9bQ0gyXVtDQEhdKFtPSF0pW0NIMl1uMm5jKFtDSDNdKVtjSF1bY0hdYzI9Tw==

> <s_epik_cmdline>
J2VwaWtfcHl0aG9uJywgJy1waCcsICc3LjAnLCAnLXRuJywgJzgnLCAnLW1hJywgJzIwMCcsICctbWV0YWxfYmluZGluZycsICctaW1hZScsICc8aW5maWxlLm1hZT4nLCAnLW9tYWUnLCAnPG91dGZpbGUubWFlPic=

> <r_lp_tautomer_probability>
1

> <r_epik_Ionization_Penalty>
2.96353e-07

> <r_epik_Ionization_Penalty_Charging>
1.79179e-07

> <r_epik_Ionization_Penalty_Neutral>
1.17174e-07

> <r_epik_State_Penalty>
-0

> <r_epik_Charging_Adjusted_Penalty>
1.79179e-07

> <i_epik_Tot_Q>
0

> <i_epik_Tot_abs_Q>
0

> <r_epik_Metal_State_Penalty>
-0

> <b_epik_Metal_Only>
0

> <s_lp_Force_Field>
OPLS_2005

> <r_lp_Energy>
25.2407

> <b_lp_Chiralities_Consistent>
1

> <s_lp_Variant>
AV-unprocessed.smi:2782-2

> <Gold.Version>
5.8.1

> <Gold.Id.Protein>
6NUR|6NUR_protein|mol2

> <Gold.PLP.Fitness>
47.9731

> <Gold.PLP.PLP>
-41.1547

> <Gold.PLP.part.hbond>
-4.0000

> <Gold.PLP.part.metal>
0.0000

> <Gold.PLP.part.buried>
-0.7912

> <Gold.PLP.part.nonpolar>
-36.5143

> <Gold.PLP.part.repulsive>
0.2410

> <Gold.PLP.ligand.clash>
0.0000

> <Gold.PLP.ligand.torsion>
0.7581

> <Gold.PLP.Chemscore.Hbond>
2.7616

> <Gold.PLP.Chemscore.CHOScore>
0.0000

> <Gold.PLP.Chemscore.Metal>
0.0000

> <Gold.Chemscore.Hbonds>
donor molecule, donor type, donor heavy atom, donor atom, acceptor molecule, acceptor atom, score
      P1  H  7989  7998       L1    20  0.49
      P1  H  7997  8010       L1     8  0.86
      P1  H 10752 10764       L1    14  1.00

> <Gold.PLP.Chemscore.Internal.Correction>
0.0497

> <Gold.Rescore>
     Score         DG    S(hbond)    S(metal)    S(lipo)     H(rot)  DE(clash)    DE(int)     intcor
     16.60     -20.20       1.92        0.00     119.60       2.22       1.63       1.97       ----

> <Gold.Chemscore.Fitness>
16.6024

> <Gold.Chemscore.DG>
-20.2013

> <Gold.Chemscore.ZeroCoef>
-5.4800

> <Gold.Chemscore.Hbond>
1.9194

> <Gold.Chemscore.Metal>
0.0000

> <Gold.Chemscore.Lipo>
119.6018

> <Gold.Chemscore.Internal_Hbond>
0.0000

> <Gold.Chemscore.DEClash>
1.6253

> <Gold.Chemscore.DEInternal>
1.9736

> <Gold.Chemscore.Rot>
2.2199

> <Gold.Chemscore.Internal.Correction>
   9.000000E+99

> <Gold.Chemscore.Hbonds>
donor molecule, donor type, donor heavy atom, donor atom, acceptor molecule, acceptor atom, score
      P1  H  7989  7998       L1    20  0.46
      P1  H  7997  8010       L1     8  0.14
      P1  H 10752 10764       L1    14  0.50

> <Gold.Chemscore.Hbond.Weighted>
-6.4108

> <Gold.Chemscore.Metal.Weighted>
-0.0000

> <Gold.Chemscore.Lipo.Weighted>
-13.9934

> <Gold.Chemscore.Internal_Hbond.Weighted>
0.0000

> <Gold.Chemscore.DEClash.Weighted>
1.6253

> <Gold.Chemscore.DEInternal.Weighted>
1.9736

> <Gold.Chemscore.Rot.Weighted>
5.6829

> <Gold.Chemscore.Internal.Correction.Weighted>
   9.000000E+99

> <Gold.Protein.RotatedTorsions>
[ 6907 6896 6895 6894 ] final  166.67 input  -60.11 | X-H torsion
[ 7974 7965 7964 7962 ] final   16.03 input  175.53 | X-H torsion
[ 8008 7997 7996 7995 ] final    6.66 input   59.86 | X-H torsion
[ 10167 10162 10161 10158 ] final    9.86 input  -65.29 | X-H torsion
[ 10718 10713 10712 10709 ] final   91.79 input   66.30 | X-H torsion
[ 10763 10752 10751 10750 ] final  -56.26 input  -60.55 | X-H torsion
[ 11005 11000 10999 10996 ] final   50.81 input  -57.11 | X-H torsion

> <Gold.Protein.ActiveResidues>
 VAL166  LYS551  ARG553  GLY616  TRP617  ASP618  TYR619  PRO620  LYS621  CYS622 
 ASP623  PHE694  ASN695  SER759  ASP760  ASP761  ALA762  ILE779  LEU786  VAL792 
 PHE793  MET794  SER795  GLU796  ALA797  LYS798  CYS799  TRP800  GLU811  SER814 

> <Gold.Protein.RotatedAtoms>
  151.8753  133.3484  159.3747 H   0  0  0  0  0  0  0  0  0  0  0  0  # atno 6907 bound_to 6896
  150.7142  134.5073  159.5599 H   0  0  0  0  0  0  0  0  0  0  0  0  # atno 6908 bound_to 6896
  152.2613  134.8031  160.0481 H   0  0  0  0  0  0  0  0  0  0  0  0  # atno 6909 bound_to 6896
  146.2261  139.8808  142.8571 H   0  0  0  0  0  0  0  0  0  0  0  0  # atno 7974 bound_to 7965
  154.7439  140.2754  155.6350 H   0  0  0  0  0  0  0  0  0  0  0  0  # atno 8008 bound_to 7997
  156.2880  140.2692  156.2100 H   0  0  0  0  0  0  0  0  0  0  0  0  # atno 8009 bound_to 7997
  155.0223  140.0371  157.2432 H   0  0  0  0  0  0  0  0  0  0  0  0  # atno 8010 bound_to 7997
  140.6229  143.8164  150.7197 H   0  0  0  0  0  0  0  0  0  0  0  0  # atno 10167 bound_to 10162
  157.6960  131.0420  150.3783 H   0  0  0  0  0  0  0  0  0  0  0  0  # atno 10718 bound_to 10713
  154.2038  135.6406  153.5095 H   0  0  0  0  0  0  0  0  0  0  0  0  # atno 10763 bound_to 10752
  153.0005  135.5458  154.6287 H   0  0  0  0  0  0  0  0  0  0  0  0  # atno 10764 bound_to 10752
  154.5707  135.2916  155.0804 H   0  0  0  0  0  0  0  0  0  0  0  0  # atno 10765 bound_to 10752
  140.0986  134.5112  155.8784 H   0  0  0  0  0  0  0  0  0  0  0  0  # atno 11005 bound_to 11000
  145.2514  141.0045  143.3878 LP  0  0  0  0  0  0  0  0  0  0  0  0  # atno 17320 bound_to 7965
  144.9371  139.4231  143.6467 LP  0  0  0  0  0  0  0  0  0  0  0  0  # atno 17321 bound_to 7965
  140.1758  143.4156  152.1968 LP  0  0  0  0  0  0  0  0  0  0  0  0  # atno 17342 bound_to 10162
  139.5454  144.7294  151.4599 LP  0  0  0  0  0  0  0  0  0  0  0  0  # atno 17343 bound_to 10162
  156.4200  130.3951  149.6832 LP  0  0  0  0  0  0  0  0  0  0  0  0  # atno 17370 bound_to 10713
  156.4086  130.7711  151.2722 LP  0  0  0  0  0  0  0  0  0  0  0  0  # atno 17371 bound_to 10713
  141.2099  133.6689  156.6472 LP  0  0  0  0  0  0  0  0  0  0  0  0  # atno 17394 bound_to 11000
  140.3252  134.7975  157.4283 LP  0  0  0  0  0  0  0  0  0  0  0  0  # atno 17395 bound_to 11000

$$$$
