AV-unprocessed.smi:1645|AV-procd|sdf|6615|dock3
  -GOLD-   22720 7313D 1   1.00000     0.00000
 Structure written by MMmdl.
 56 59  0  0  0  0  0  0  0  0  3 V2000
  146.5067  139.6812  153.6583 O   0  0  0  0  0  0  0  0  0  0  0  0
  147.3676  138.9325  153.1978 C   0  0  0  0  0  0  0  0  0  0  0  0
  148.6755  138.9663  153.5074 N   0  0  0  0  0  0  0  0  0  0  0  0
  149.3514  139.8281  154.4141 C   0  0  0  0  0  0  0  0  0  0  0  0
  150.5380  139.3539  155.0106 C   0  0  0  0  0  0  0  0  0  0  0  0
  151.2398  140.1667  155.9243 C   0  0  0  0  0  0  0  0  0  0  0  0
  150.7450  141.4549  156.2491 C   0  0  0  0  0  0  0  0  0  0  0  0
  151.3823  142.3429  157.1453 N   0  0  0  0  0  0  0  0  0  0  0  0
  151.0683  143.7670  156.9886 C   0  0  0  0  0  0  0  0  0  0  0  0
  152.1136  144.6539  157.6860 C   0  0  0  0  0  0  0  0  0  0  0  0
  152.2983  144.2428  159.1529 C   0  0  0  0  0  0  0  0  0  0  0  0
  152.6600  142.7538  159.2337 C   0  0  0  0  0  0  0  0  0  0  0  0
  151.6102  141.8865  158.5180 C   0  0  0  0  0  0  0  0  0  0  0  0
  149.5945  141.8598  155.6586 N   0  3  0  0  0  0  0  0  0  0  0  0
  148.8918  141.1161  154.7775 C   0  0  0  0  0  0  0  0  0  0  0  0
  147.1051  137.9738  152.2983 N   0  0  0  0  0  0  0  0  0  0  0  0
  145.7870  137.6866  151.7387 C   0  0  1  0  0  0  0  0  0  0  0  0
  145.8444  136.7422  150.5250 C   0  0  0  0  0  0  0  0  0  0  0  0
  144.5993  135.8418  150.6482 C   0  0  0  0  0  0  0  0  0  0  0  0
  143.8675  136.3451  151.8263 N   0  3  1  0  0  0  0  0  0  0  0  0
  142.9702  135.3949  152.5188 C   0  0  0  0  0  0  0  0  0  0  0  0
  142.2352  136.1291  153.6577 C   0  0  0  0  0  0  0  0  0  0  0  0
  143.2195  136.8480  154.6027 C   0  0  0  0  0  0  0  0  0  0  0  0
  144.1890  137.7510  153.8154 C   0  0  0  0  0  0  0  0  0  0  0  0
  144.8832  136.9291  152.7159 C   0  0  2  0  0  0  0  0  0  0  0  0
  149.2673  138.3270  152.9971 H   0  0  0  0  0  0  0  0  0  0  0  0
  150.9163  138.3711  154.7693 H   0  0  0  0  0  0  0  0  0  0  0  0
  152.1433  139.7767  156.3677 H   0  0  0  0  0  0  0  0  0  0  0  0
  151.0176  144.0575  155.9396 H   0  0  0  0  0  0  0  0  0  0  0  0
  150.0809  143.9527  157.4133 H   0  0  0  0  0  0  0  0  0  0  0  0
  153.0669  144.5745  157.1617 H   0  0  0  0  0  0  0  0  0  0  0  0
  151.8133  145.7001  157.6255 H   0  0  0  0  0  0  0  0  0  0  0  0
  153.0780  144.8461  159.6188 H   0  0  0  0  0  0  0  0  0  0  0  0
  151.3793  144.4316  159.7094 H   0  0  0  0  0  0  0  0  0  0  0  0
  153.6378  142.5924  158.7778 H   0  0  0  0  0  0  0  0  0  0  0  0
  152.7505  142.4459  160.2758 H   0  0  0  0  0  0  0  0  0  0  0  0
  150.6661  141.9122  159.0636 H   0  0  0  0  0  0  0  0  0  0  0  0
  151.9620  140.8545  158.5214 H   0  0  0  0  0  0  0  0  0  0  0  0
  147.9903  141.5848  154.4133 H   0  0  0  0  0  0  0  0  0  0  0  0
  147.8732  137.4075  151.9681 H   0  0  0  0  0  0  0  0  0  0  0  0
  145.2932  138.6101  151.4287 H   0  0  0  0  0  0  0  0  0  0  0  0
  145.8498  137.3035  149.5900 H   0  0  0  0  0  0  0  0  0  0  0  0
  146.7448  136.1260  150.5416 H   0  0  0  0  0  0  0  0  0  0  0  0
  143.9695  135.8793  149.7589 H   0  0  0  0  0  0  0  0  0  0  0  0
  144.9008  134.8052  150.8063 H   0  0  0  0  0  0  0  0  0  0  0  0
  142.2505  134.9866  151.8082 H   0  0  0  0  0  0  0  0  0  0  0  0
  143.5477  134.5573  152.9132 H   0  0  0  0  0  0  0  0  0  0  0  0
  141.5490  136.8612  153.2301 H   0  0  0  0  0  0  0  0  0  0  0  0
  141.6214  135.4261  154.2215 H   0  0  0  0  0  0  0  0  0  0  0  0
  142.6714  137.4369  155.3388 H   0  0  0  0  0  0  0  0  0  0  0  0
  143.7897  136.1060  155.1635 H   0  0  0  0  0  0  0  0  0  0  0  0
  143.6443  138.5865  153.3734 H   0  0  0  0  0  0  0  0  0  0  0  0
  144.9263  138.1805  154.4936 H   0  0  0  0  0  0  0  0  0  0  0  0
  145.4523  136.1170  153.1747 H   0  0  0  0  0  0  0  0  0  0  0  0
  143.2985  137.1145  151.5031 H   0  0  0  0  0  0  0  0  0  0  0  0
  149.2360  142.7856  155.8931 H   0  0  0  0  0  0  0  0  0  0  0  0
  1  2  2  0  0  0  0
  2  3  1  0  0  0  0
  2 16  1  0  0  0  0
  3  4  1  0  0  0  0
  3 26  1  0  0  0  0
  4 15  1  0  0  0  0
  4  5  2  0  0  0  0
  5  6  1  0  0  0  0
  5 27  1  0  0  0  0
  6  7  2  0  0  0  0
  6 28  1  0  0  0  0
  7  8  1  0  0  0  0
  7 14  1  0  0  0  0
  8 13  1  0  0  0  0
  8  9  1  0  0  0  0
  9 10  1  0  0  0  0
  9 29  1  0  0  0  0
  9 30  1  0  0  0  0
 10 11  1  0  0  0  0
 10 31  1  0  0  0  0
 10 32  1  0  0  0  0
 11 12  1  0  0  0  0
 11 33  1  0  0  0  0
 11 34  1  0  0  0  0
 12 13  1  0  0  0  0
 12 35  1  0  0  0  0
 12 36  1  0  0  0  0
 13 37  1  0  0  0  0
 13 38  1  0  0  0  0
 14 15  2  0  0  0  0
 14 56  1  0  0  0  0
 15 39  1  0  0  0  0
 16 17  1  0  0  0  0
 16 40  1  0  0  0  0
 17 25  1  0  0  0  0
 17 18  1  0  0  0  0
 17 41  1  0  0  0  0
 18 19  1  0  0  0  0
 18 42  1  0  0  0  0
 18 43  1  0  0  0  0
 19 20  1  0  0  0  0
 19 44  1  0  0  0  0
 19 45  1  0  0  0  0
 20 25  1  0  0  0  0
 20 21  1  0  0  0  0
 20 55  1  0  0  0  0
 21 22  1  0  0  0  0
 21 46  1  0  0  0  0
 21 47  1  0  0  0  0
 22 23  1  0  0  0  0
 22 48  1  0  0  0  0
 22 49  1  0  0  0  0
 23 24  1  0  0  0  0
 23 50  1  0  0  0  0
 23 51  1  0  0  0  0
 24 25  1  0  0  0  0
 24 52  1  0  0  0  0
 24 53  1  0  0  0  0
 25 54  1  0  0  0  0
M  CHG  1  14   1
M  CHG  1  20   1
M  END
> <s_m_source_file>
AV-unprocessed.smi

> <i_m_source_file_index>
1645

> <i_lp_mmshare_version>
43012

> <i_f3d_flags>
0

> <s_epik_input>
W0NIMl0xW0NIMl1bQ0gyXVtDSDJdW0NASF0oTjEyKVtDQEBIXShbQ0gyXVtDSDJdMilbTkhdQyg9TylbTkhdYzNbY0hdW2NIXWMobltjSF0zKU40W0NIMl1bQ0gyXVtDSDJdW0NIMl1bQ0gyXTQ=

> <s_epik_cmdline>
J2VwaWtfcHl0aG9uJywgJy1waCcsICc3LjAnLCAnLXRuJywgJzgnLCAnLW1hJywgJzIwMCcsICctbWV0YWxfYmluZGluZycsICctaW1hZScsICc8aW5maWxlLm1hZT4nLCAnLW9tYWUnLCAnPG91dGZpbGUubWFlPic=

> <r_lp_tautomer_probability>
0.999994

> <r_epik_Ionization_Penalty>
1.26838

> <r_epik_Ionization_Penalty_Charging>
1.26836

> <r_epik_Ionization_Penalty_Neutral>
1.95562e-05

> <r_epik_State_Penalty>
1.33841

> <r_epik_Charging_Adjusted_Penalty>
2.60677

> <i_epik_Tot_Q>
2

> <i_epik_Tot_abs_Q>
2

> <r_epik_Metal_State_Penalty>
1.40601

> <b_epik_Metal_Only>
0

> <s_lp_Force_Field>
OPLS_2005

> <r_lp_Energy>
57.888

> <b_lp_Chiralities_Consistent>
1

> <s_lp_Variant>
AV-unprocessed.smi:1645-16

> <Gold.Version>
5.8.1

> <Gold.Id.Protein>
6NUR|6NUR_protein|mol2

> <Gold.PLP.Fitness>
55.2266

> <Gold.PLP.PLP>
-47.2130

> <Gold.PLP.part.hbond>
-4.3694

> <Gold.PLP.part.metal>
0.0000

> <Gold.PLP.part.buried>
2.8432

> <Gold.PLP.part.nonpolar>
-47.3639

> <Gold.PLP.part.repulsive>
0.4872

> <Gold.PLP.ligand.clash>
0.0000

> <Gold.PLP.ligand.torsion>
0.9726

> <Gold.PLP.Chemscore.Hbond>
3.2227

> <Gold.PLP.Chemscore.CHOScore>
0.0000

> <Gold.PLP.Chemscore.Metal>
0.0000

> <Gold.Chemscore.Hbonds>
donor molecule, donor type, donor heavy atom, donor atom, acceptor molecule, acceptor atom, score
      L1  H     3    26       P1  7948  0.12
      L1  H    14    56       P1  8028  2.00
      L1  H    16    40       P1  7948  1.00
      L1  H    20    55       P1 10171  0.17

> <Gold.PLP.Chemscore.Internal.Correction>
0.2909

> <Gold.Rescore>
     Score         DG    S(hbond)    S(metal)    S(lipo)     H(rot)  DE(clash)    DE(int)     intcor
     18.97     -24.56       2.14        0.00     124.00       1.00       2.54       3.05       ----

> <Gold.Chemscore.Fitness>
18.9734

> <Gold.Chemscore.DG>
-24.5603

> <Gold.Chemscore.ZeroCoef>
-5.4800

> <Gold.Chemscore.Hbond>
2.1353

> <Gold.Chemscore.Metal>
0.0000

> <Gold.Chemscore.Lipo>
124.0038

> <Gold.Chemscore.Internal_Hbond>
0.0000

> <Gold.Chemscore.DEClash>
2.5385

> <Gold.Chemscore.DEInternal>
3.0484

> <Gold.Chemscore.Rot>
1.0000

> <Gold.Chemscore.Internal.Correction>
   9.000000E+99

> <Gold.Chemscore.Hbonds>
donor molecule, donor type, donor heavy atom, donor atom, acceptor molecule, acceptor atom, score
      L1  H     3    26       P1  7948  0.13
      L1  H    14    56       P1  8028  0.97
      L1  H    16    40       P1  7948  0.97
      L1  H    20    55       P1 10171  0.16

> <Gold.Chemscore.Hbond.Weighted>
-7.1319

> <Gold.Chemscore.Metal.Weighted>
-0.0000

> <Gold.Chemscore.Lipo.Weighted>
-14.5084

> <Gold.Chemscore.Internal_Hbond.Weighted>
0.0000

> <Gold.Chemscore.DEClash.Weighted>
2.5385

> <Gold.Chemscore.DEInternal.Weighted>
3.0484

> <Gold.Chemscore.Rot.Weighted>
2.5600

> <Gold.Chemscore.Internal.Correction.Weighted>
   9.000000E+99

> <Gold.Protein.RotatedTorsions>
[ 6907 6896 6895 6894 ] final  148.68 input  -60.11 | X-H torsion
[ 7974 7965 7964 7962 ] final -149.18 input  175.53 | X-H torsion
[ 8008 7997 7996 7995 ] final  -70.67 input   59.86 | X-H torsion
[ 10167 10162 10161 10158 ] final  116.85 input  -65.29 | X-H torsion
[ 10718 10713 10712 10709 ] final  115.85 input   66.30 | X-H torsion
[ 10763 10752 10751 10750 ] final  103.91 input  -60.55 | X-H torsion
[ 11005 11000 10999 10996 ] final -120.57 input  -57.11 | X-H torsion

> <Gold.Protein.ActiveResidues>
 VAL166  LYS551  ARG553  GLY616  TRP617  ASP618  TYR619  PRO620  LYS621  CYS622 
 ASP623  PHE694  ASN695  SER759  ASP760  ASP761  ALA762  ILE779  LEU786  VAL792 
 PHE793  MET794  SER795  GLU796  ALA797  LYS798  CYS799  TRP800  GLU811  SER814 

> <Gold.Protein.RotatedAtoms>
  152.1382  133.4448  159.4753 H   0  0  0  0  0  0  0  0  0  0  0  0  # atno 6907 bound_to 6896
  150.6884  134.2338  159.4454 H   0  0  0  0  0  0  0  0  0  0  0  0  # atno 6908 bound_to 6896
  152.0226  134.9813  160.0621 H   0  0  0  0  0  0  0  0  0  0  0  0  # atno 6909 bound_to 6896
  144.7983  140.5099  143.5724 H   0  0  0  0  0  0  0  0  0  0  0  0  # atno 7974 bound_to 7965
  154.5030  140.0830  156.7836 H   0  0  0  0  0  0  0  0  0  0  0  0  # atno 8008 bound_to 7997
  155.3959  140.3435  155.4236 H   0  0  0  0  0  0  0  0  0  0  0  0  # atno 8009 bound_to 7997
  156.1480  140.1549  156.8803 H   0  0  0  0  0  0  0  0  0  0  0  0  # atno 8010 bound_to 7997
  139.6219  144.7102  151.2616 H   0  0  0  0  0  0  0  0  0  0  0  0  # atno 10167 bound_to 10162
  157.6197  131.1018  150.7388 H   0  0  0  0  0  0  0  0  0  0  0  0  # atno 10718 bound_to 10713
  153.3589  135.3961  155.1703 H   0  0  0  0  0  0  0  0  0  0  0  0  # atno 10763 bound_to 10752
  154.8675  135.3674  154.5125 H   0  0  0  0  0  0  0  0  0  0  0  0  # atno 10764 bound_to 10752
  153.5583  135.7081  153.5619 H   0  0  0  0  0  0  0  0  0  0  0  0  # atno 10765 bound_to 10752
  141.0134  134.0231  157.3383 H   0  0  0  0  0  0  0  0  0  0  0  0  # atno 11005 bound_to 11000
  145.5616  139.1479  143.3338 LP  0  0  0  0  0  0  0  0  0  0  0  0  # atno 17320 bound_to 7965
  146.2258  140.5752  142.8997 LP  0  0  0  0  0  0  0  0  0  0  0  0  # atno 17321 bound_to 7965
  140.7387  143.6640  150.8139 LP  0  0  0  0  0  0  0  0  0  0  0  0  # atno 17342 bound_to 10162
  140.0252  143.5501  152.2784 LP  0  0  0  0  0  0  0  0  0  0  0  0  # atno 17343 bound_to 10162
  156.7748  130.4840  149.5411 LP  0  0  0  0  0  0  0  0  0  0  0  0  # atno 17370 bound_to 10713
  156.1336  130.6195  151.0368 LP  0  0  0  0  0  0  0  0  0  0  0  0  # atno 17371 bound_to 10713
  139.9103  135.0188  156.7662 LP  0  0  0  0  0  0  0  0  0  0  0  0  # atno 17394 bound_to 11000
  140.6696  133.9572  155.7849 LP  0  0  0  0  0  0  0  0  0  0  0  0  # atno 17395 bound_to 11000

$$$$
