AV-unprocessed.smi:3018|AV-procd|sdf|11481|dock5
  -GOLD-   2272016423D 1   1.00000     0.00000
 Structure written by MMmdl.
 44 45  0  0  0  0  0  0  0  0  2 V2000
  152.2212  140.3020  155.7009 C   0  0  0  0  0  0  0  0  0  0  0  0
  150.7839  140.0208  155.2445 C   0  0  0  0  0  0  0  0  0  0  0  0
  149.8304  141.1949  155.5358 C   0  0  2  0  0  0  0  0  0  0  0  0
  149.8471  141.4355  156.9413 O   0  0  0  0  0  0  0  0  0  0  0  0
  150.8404  142.3419  157.4132 C   0  0  0  0  0  0  0  0  0  0  0  0
  151.6107  141.7073  158.5884 C   0  0  0  0  0  0  0  0  0  0  0  0
  152.6011  142.7041  159.2112 C   0  0  0  0  0  0  0  0  0  0  0  0
  151.8961  143.9998  159.6442 C   0  0  0  0  0  0  0  0  0  0  0  0
  151.1167  144.6290  158.4784 C   0  0  0  0  0  0  0  0  0  0  0  0
  150.1260  143.6265  157.8656 C   0  0  0  0  0  0  0  0  0  0  0  0
  148.3913  140.8887  155.0918 C   0  0  0  0  0  0  0  0  0  0  0  0
  148.0799  139.7585  154.7150 O   0  0  0  0  0  0  0  0  0  0  0  0
  147.5207  141.9051  155.1639 N   0  0  0  0  0  0  0  0  0  0  0  0
  146.0902  141.7986  154.9037 C   0  0  0  0  0  0  0  0  0  0  0  0
  145.2725  142.5927  155.9375 C   0  0  0  0  0  0  0  0  0  0  0  0
  145.6609  142.2860  157.3740 C   0  0  0  0  0  0  0  0  0  0  0  0
  145.5886  141.1746  158.0090 N   0  0  0  0  0  0  0  0  0  0  0  0
  146.0931  141.4687  159.3175 N   0  5  0  0  0  0  0  0  0  0  0  0
  146.4276  142.7823  159.3290 C   0  0  0  0  0  0  0  0  0  0  0  0
  146.8942  143.4479  160.2507 O   0  0  0  0  0  0  0  0  0  0  0  0
  146.1696  143.3005  158.1327 N   0  0  0  0  0  0  0  0  0  0  0  0
  146.3102  144.2546  157.8358 H   0  0  0  0  0  0  0  0  0  0  0  0
  152.8720  139.4562  155.4786 H   0  0  0  0  0  0  0  0  0  0  0  0
  152.2661  140.4828  156.7751 H   0  0  0  0  0  0  0  0  0  0  0  0
  152.6298  141.1784  155.1971 H   0  0  0  0  0  0  0  0  0  0  0  0
  150.7936  139.8099  154.1742 H   0  0  0  0  0  0  0  0  0  0  0  0
  150.4221  139.1149  155.7330 H   0  0  0  0  0  0  0  0  0  0  0  0
  150.1919  142.0694  154.9927 H   0  0  0  0  0  0  0  0  0  0  0  0
  151.5406  142.6095  156.6211 H   0  0  0  0  0  0  0  0  0  0  0  0
  150.9046  141.3722  159.3491 H   0  0  0  0  0  0  0  0  0  0  0  0
  152.1507  140.8204  158.2580 H   0  0  0  0  0  0  0  0  0  0  0  0
  153.0990  142.2482  160.0674 H   0  0  0  0  0  0  0  0  0  0  0  0
  153.3831  142.9367  158.4884 H   0  0  0  0  0  0  0  0  0  0  0  0
  151.2120  143.7857  160.4661 H   0  0  0  0  0  0  0  0  0  0  0  0
  152.6287  144.7107  160.0275 H   0  0  0  0  0  0  0  0  0  0  0  0
  150.5849  145.5166  158.8214 H   0  0  0  0  0  0  0  0  0  0  0  0
  151.8142  144.9666  157.7119 H   0  0  0  0  0  0  0  0  0  0  0  0
  149.6151  144.0838  157.0177 H   0  0  0  0  0  0  0  0  0  0  0  0
  149.3554  143.3820  158.5979 H   0  0  0  0  0  0  0  0  0  0  0  0
  147.8612  142.7984  155.4885 H   0  0  0  0  0  0  0  0  0  0  0  0
  145.8897  142.1810  153.9023 H   0  0  0  0  0  0  0  0  0  0  0  0
  145.7801  140.7518  154.9103 H   0  0  0  0  0  0  0  0  0  0  0  0
  145.3803  143.6618  155.7490 H   0  0  0  0  0  0  0  0  0  0  0  0
  144.2128  142.3682  155.8137 H   0  0  0  0  0  0  0  0  0  0  0  0
  1  2  1  0  0  0  0
  1 23  1  0  0  0  0
  1 24  1  0  0  0  0
  1 25  1  0  0  0  0
  2  3  1  0  0  0  0
  2 26  1  0  0  0  0
  2 27  1  0  0  0  0
  3  4  1  0  0  0  0
  3 11  1  0  0  0  0
  3 28  1  0  0  0  0
  4  5  1  0  0  0  0
  5 10  1  0  0  0  0
  5  6  1  0  0  0  0
  5 29  1  0  0  0  0
  6  7  1  0  0  0  0
  6 30  1  0  0  0  0
  6 31  1  0  0  0  0
  7  8  1  0  0  0  0
  7 32  1  0  0  0  0
  7 33  1  0  0  0  0
  8  9  1  0  0  0  0
  8 34  1  0  0  0  0
  8 35  1  0  0  0  0
  9 10  1  0  0  0  0
  9 36  1  0  0  0  0
  9 37  1  0  0  0  0
 10 38  1  0  0  0  0
 10 39  1  0  0  0  0
 11 12  2  0  0  0  0
 11 13  1  0  0  0  0
 13 14  1  0  0  0  0
 13 40  1  0  0  0  0
 14 15  1  0  0  0  0
 14 41  1  0  0  0  0
 14 42  1  0  0  0  0
 15 16  1  0  0  0  0
 15 43  1  0  0  0  0
 15 44  1  0  0  0  0
 16 21  1  0  0  0  0
 16 17  2  0  0  0  0
 17 18  1  0  0  0  0
 18 19  1  0  0  0  0
 19 20  2  0  0  0  0
 19 21  1  0  0  0  0
 21 22  1  0  0  0  0
M  CHG  1  18  -1
M  END
> <s_m_source_file>
AV-unprocessed.smi

> <i_m_source_file_index>
3018

> <i_lp_mmshare_version>
43012

> <i_f3d_flags>
0

> <s_epik_input>
W0NIMl0xW0NIMl1bQ0gyXVtDSDJdW0NIMl1bQ0hdMU9bQ0BASF0oW0NIMl1bQ0gzXSlDKD1PKVtOSF1bQ0gyXVtDSDJdYzJuW25IXWMoPU8pW25IXTI=

> <s_epik_cmdline>
J2VwaWtfcHl0aG9uJywgJy1waCcsICc3LjAnLCAnLXRuJywgJzgnLCAnLW1hJywgJzIwMCcsICctbWV0YWxfYmluZGluZycsICctaW1hZScsICc8aW5maWxlLm1hZT4nLCAnLW9tYWUnLCAnPG91dGZpbGUubWFlPic=

> <r_lp_tautomer_probability>
1

> <r_epik_Ionization_Penalty>
14.1812

> <r_epik_Ionization_Penalty_Charging>
13.7758

> <r_epik_Ionization_Penalty_Neutral>
0.405355

> <r_epik_State_Penalty>
4.92413

> <r_epik_Charging_Adjusted_Penalty>
18.7

> <i_epik_Tot_Q>
-1

> <i_epik_Tot_abs_Q>
1

> <r_epik_Metal_State_Penalty>
1.32654

> <b_epik_Metal_Only>
1

> <s_lp_Force_Field>
OPLS_2005

> <r_lp_Energy>
19.863

> <b_lp_Chiralities_Consistent>
1

> <s_lp_Variant>
AV-unprocessed.smi:3018-3

> <Gold.Version>
5.8.1

> <Gold.Id.Protein>
6NUR|6NUR_protein|mol2

> <Gold.PLP.Fitness>
49.6187

> <Gold.PLP.PLP>
-37.1416

> <Gold.PLP.part.hbond>
-4.0000

> <Gold.PLP.part.metal>
0.0000

> <Gold.PLP.part.buried>
-2.6467

> <Gold.PLP.part.nonpolar>
-30.7387

> <Gold.PLP.part.repulsive>
0.3575

> <Gold.PLP.ligand.clash>
0.0002

> <Gold.PLP.ligand.torsion>
1.3437

> <Gold.PLP.Chemscore.Hbond>
5.0000

> <Gold.PLP.Chemscore.CHOScore>
0.0000

> <Gold.PLP.Chemscore.Metal>
0.0000

> <Gold.Chemscore.Hbonds>
donor molecule, donor type, donor heavy atom, donor atom, acceptor molecule, acceptor atom, score
      L1  H    13    40       P1  8028  0.68
      L1  H    21    22       P1  8029  0.19
      P1  H  6933  6944       L1    20  0.39
      P1  H  6934  6946       L1    18  1.76

> <Gold.PLP.Chemscore.Internal.Correction>
0.1646

> <Gold.Rescore>
     Score         DG    S(hbond)    S(metal)    S(lipo)     H(rot)  DE(clash)    DE(int)     intcor
     17.10     -18.94       3.32        0.00      85.49       2.98       0.33       1.51       ----

> <Gold.Chemscore.Fitness>
17.1047

> <Gold.Chemscore.DG>
-18.9417

> <Gold.Chemscore.ZeroCoef>
-5.4800

> <Gold.Chemscore.Hbond>
3.3177

> <Gold.Chemscore.Metal>
0.0000

> <Gold.Chemscore.Lipo>
85.4875

> <Gold.Chemscore.Internal_Hbond>
0.0000

> <Gold.Chemscore.DEClash>
0.3316

> <Gold.Chemscore.DEInternal>
1.5054

> <Gold.Chemscore.Rot>
2.9772

> <Gold.Chemscore.Internal.Correction>
   9.000000E+99

> <Gold.Chemscore.Hbonds>
donor molecule, donor type, donor heavy atom, donor atom, acceptor molecule, acceptor atom, score
      L1  H    13    40       P1  8028  0.52
      L1  H    21    22       P1  8029  0.05
      P1  H  6933  6944       L1    20  0.33
      P1  H  6934  6946       L1    18  0.39

> <Gold.Chemscore.Hbond.Weighted>
-11.0812

> <Gold.Chemscore.Metal.Weighted>
-0.0000

> <Gold.Chemscore.Lipo.Weighted>
-10.0020

> <Gold.Chemscore.Internal_Hbond.Weighted>
0.0000

> <Gold.Chemscore.DEClash.Weighted>
0.3316

> <Gold.Chemscore.DEInternal.Weighted>
1.5054

> <Gold.Chemscore.Rot.Weighted>
7.6216

> <Gold.Chemscore.Internal.Correction.Weighted>
   9.000000E+99

> <Gold.Protein.RotatedTorsions>
[ 6907 6896 6895 6894 ] final -150.49 input  -60.11 | X-H torsion
[ 7974 7965 7964 7962 ] final  -29.19 input  175.53 | X-H torsion
[ 8008 7997 7996 7995 ] final  147.43 input   59.86 | X-H torsion
[ 10167 10162 10161 10158 ] final  103.46 input  -65.29 | X-H torsion
[ 10718 10713 10712 10709 ] final  -34.70 input   66.30 | X-H torsion
[ 10763 10752 10751 10750 ] final  -77.43 input  -60.55 | X-H torsion
[ 11005 11000 10999 10996 ] final -148.32 input  -57.11 | X-H torsion

> <Gold.Protein.ActiveResidues>
 VAL166  LYS551  ARG553  GLY616  TRP617  ASP618  TYR619  PRO620  LYS621  CYS622 
 ASP623  PHE694  ASN695  SER759  ASP760  ASP761  ALA762  ILE779  LEU786  VAL792 
 PHE793  MET794  SER795  GLU796  ALA797  LYS798  CYS799  TRP800  GLU811  SER814 

> <Gold.Protein.RotatedAtoms>
  151.1994  133.4620  159.2595 H   0  0  0  0  0  0  0  0  0  0  0  0  # atno 6907 bound_to 6896
  151.1085  135.0013  159.8492 H   0  0  0  0  0  0  0  0  0  0  0  0  # atno 6908 bound_to 6896
  152.5449  134.1915  159.8729 H   0  0  0  0  0  0  0  0  0  0  0  0  # atno 6909 bound_to 6896
  146.1235  140.5380  142.8725 H   0  0  0  0  0  0  0  0  0  0  0  0  # atno 7974 bound_to 7965
  156.2825  140.2156  156.5536 H   0  0  0  0  0  0  0  0  0  0  0  0  # atno 8008 bound_to 7997
  154.7271  140.0498  157.0715 H   0  0  0  0  0  0  0  0  0  0  0  0  # atno 8009 bound_to 7997
  155.0402  140.3145  155.4730 H   0  0  0  0  0  0  0  0  0  0  0  0  # atno 8010 bound_to 7997
  139.7261  144.7047  151.0796 H   0  0  0  0  0  0  0  0  0  0  0  0  # atno 10167 bound_to 10162
  156.3474  130.4303  149.7734 H   0  0  0  0  0  0  0  0  0  0  0  0  # atno 10718 bound_to 10713
  154.5129  135.5764  153.6619 H   0  0  0  0  0  0  0  0  0  0  0  0  # atno 10763 bound_to 10752
  152.9901  135.6163  154.2856 H   0  0  0  0  0  0  0  0  0  0  0  0  # atno 10764 bound_to 10752
  154.2771  135.2852  155.2692 H   0  0  0  0  0  0  0  0  0  0  0  0  # atno 10765 bound_to 10752
  140.7624  134.3282  157.5098 H   0  0  0  0  0  0  0  0  0  0  0  0  # atno 11005 bound_to 11000
  144.7619  140.5442  143.6729 LP  0  0  0  0  0  0  0  0  0  0  0  0  # atno 17320 bound_to 7965
  145.5416  139.1475  143.3444 LP  0  0  0  0  0  0  0  0  0  0  0  0  # atno 17321 bound_to 7965
  140.7763  143.5103  150.9660 LP  0  0  0  0  0  0  0  0  0  0  0  0  # atno 17342 bound_to 10162
  139.8791  143.7095  152.3159 LP  0  0  0  0  0  0  0  0  0  0  0  0  # atno 17343 bound_to 10162
  156.4947  130.8101  151.3109 LP  0  0  0  0  0  0  0  0  0  0  0  0  # atno 17370 bound_to 10713
  157.7456  130.9964  150.2778 LP  0  0  0  0  0  0  0  0  0  0  0  0  # atno 17371 bound_to 10713
  139.8768  134.9210  156.3266 LP  0  0  0  0  0  0  0  0  0  0  0  0  # atno 17394 bound_to 11000
  140.9650  133.7364  156.0454 LP  0  0  0  0  0  0  0  0  0  0  0  0  # atno 17395 bound_to 11000

$$$$
