AV-unprocessed.smi:3265|AV-procd|sdf|12498|dock5
  -GOLD-   2272018403D 1   1.00000     0.00000
 Structure written by MMmdl.
 41 42  0  0  0  0  0  0  0  0  2 V2000
  148.3868  133.2618  152.8957 C   0  0  0  0  0  0  0  0  0  0  0  0
  146.8667  133.0424  152.9659 C   0  0  2  0  0  0  0  0  0  0  0  0
  146.3014  132.3673  151.7017 C   0  0  0  0  0  0  0  0  0  0  0  0
  146.2461  133.3469  150.5203 C   0  0  0  0  0  0  0  0  0  0  0  0
  145.4881  134.6277  150.9016 C   0  0  0  0  0  0  0  0  0  0  0  0
  146.0958  135.2654  152.0963 N   0  3  1  0  0  0  0  0  0  0  0  0
  145.5045  136.5919  152.4067 C   0  0  0  0  0  0  0  0  0  0  0  0
  146.1885  137.7367  151.6303 C   0  0  0  0  0  0  0  0  0  0  0  0
  146.1459  139.0040  152.3548 N   0  0  0  0  0  0  0  0  0  0  0  0
  147.1381  139.4852  153.1200 C   0  0  0  0  0  0  0  0  0  0  0  0
  148.2235  138.9220  153.2554 O   0  0  0  0  0  0  0  0  0  0  0  0
  146.8533  140.7859  153.8694 C   0  0  0  0  0  0  0  0  0  0  0  0
  148.0049  141.1874  154.6583 N   0  0  0  0  0  0  0  0  0  0  0  0
  149.3050  141.3834  154.2399 C   0  0  0  0  0  0  0  0  0  0  0  0
  150.0338  141.7505  155.3346 C   0  0  0  0  0  0  0  0  0  0  0  0
  149.0793  141.7565  156.3895 C   0  0  0  0  0  0  0  0  0  0  0  0
  147.8677  141.4122  155.9832 N   0  0  0  0  0  0  0  0  0  0  0  0
  146.1069  134.3501  153.2681 C   0  0  0  0  0  0  0  0  0  0  0  0
  148.6551  133.9600  152.1049 H   0  0  0  0  0  0  0  0  0  0  0  0
  148.9117  132.3253  152.7056 H   0  0  0  0  0  0  0  0  0  0  0  0
  148.7682  133.6669  153.8333 H   0  0  0  0  0  0  0  0  0  0  0  0
  146.6938  132.3626  153.8014 H   0  0  0  0  0  0  0  0  0  0  0  0
  146.8918  131.4890  151.4385 H   0  0  0  0  0  0  0  0  0  0  0  0
  145.2933  132.0056  151.9094 H   0  0  0  0  0  0  0  0  0  0  0  0
  147.2564  133.6001  150.1979 H   0  0  0  0  0  0  0  0  0  0  0  0
  145.7638  132.8708  149.6663 H   0  0  0  0  0  0  0  0  0  0  0  0
  145.5162  135.3196  150.0589 H   0  0  0  0  0  0  0  0  0  0  0  0
  144.4381  134.4047  151.0986 H   0  0  0  0  0  0  0  0  0  0  0  0
  144.4478  136.5880  152.1368 H   0  0  0  0  0  0  0  0  0  0  0  0
  145.5350  136.7794  153.4810 H   0  0  0  0  0  0  0  0  0  0  0  0
  147.2224  137.4730  151.4027 H   0  0  0  0  0  0  0  0  0  0  0  0
  145.6959  137.8862  150.6697 H   0  0  0  0  0  0  0  0  0  0  0  0
  145.2930  139.5420  152.2921 H   0  0  0  0  0  0  0  0  0  0  0  0
  146.6192  141.5820  153.1614 H   0  0  0  0  0  0  0  0  0  0  0  0
  145.9836  140.6658  154.5178 H   0  0  0  0  0  0  0  0  0  0  0  0
  149.5990  141.2456  153.2097 H   0  0  0  0  0  0  0  0  0  0  0  0
  151.0876  141.9829  155.3756 H   0  0  0  0  0  0  0  0  0  0  0  0
  149.2306  141.9921  157.4327 H   0  0  0  0  0  0  0  0  0  0  0  0
  145.0774  134.1206  153.5480 H   0  0  0  0  0  0  0  0  0  0  0  0
  146.5588  134.8447  154.1283 H   0  0  0  0  0  0  0  0  0  0  0  0
  147.0601  135.4413  151.8515 H   0  0  0  0  0  0  0  0  0  0  0  0
  1  2  1  0  0  0  0
  1 19  1  0  0  0  0
  1 20  1  0  0  0  0
  1 21  1  0  0  0  0
  2 18  1  0  0  0  0
  2  3  1  0  0  0  0
  2 22  1  0  0  0  0
  3  4  1  0  0  0  0
  3 23  1  0  0  0  0
  3 24  1  0  0  0  0
  4  5  1  0  0  0  0
  4 25  1  0  0  0  0
  4 26  1  0  0  0  0
  5  6  1  0  0  0  0
  5 27  1  0  0  0  0
  5 28  1  0  0  0  0
  6  7  1  0  0  0  0
  6 18  1  0  0  0  0
  6 41  1  0  0  0  0
  7  8  1  0  0  0  0
  7 29  1  0  0  0  0
  7 30  1  0  0  0  0
  8  9  1  0  0  0  0
  8 31  1  0  0  0  0
  8 32  1  0  0  0  0
  9 10  1  0  0  0  0
  9 33  1  0  0  0  0
 10 11  2  0  0  0  0
 10 12  1  0  0  0  0
 12 13  1  0  0  0  0
 12 34  1  0  0  0  0
 12 35  1  0  0  0  0
 13 17  1  0  0  0  0
 13 14  1  0  0  0  0
 14 15  2  0  0  0  0
 14 36  1  0  0  0  0
 15 16  1  0  0  0  0
 15 37  1  0  0  0  0
 16 17  2  0  0  0  0
 16 38  1  0  0  0  0
 18 39  1  0  0  0  0
 18 40  1  0  0  0  0
M  CHG  1   6   1
M  END
> <s_m_source_file>
AV-unprocessed.smi

> <i_m_source_file_index>
3265

> <i_lp_mmshare_version>
43012

> <i_f3d_flags>
0

> <s_epik_input>
W0NIM11bQ0BASF0xW0NIMl1bQ0gyXVtDSDJdTihbQ0gyXTEpW0NIMl1bQ0gyXVtOSF1DKD1PKVtDSDJdbjJbY0hdW2NIXVtjSF1uMg==

> <s_epik_cmdline>
J2VwaWtfcHl0aG9uJywgJy1waCcsICc3LjAnLCAnLXRuJywgJzgnLCAnLW1hJywgJzIwMCcsICctbWV0YWxfYmluZGluZycsICctaW1hZScsICc8aW5maWxlLm1hZT4nLCAnLW9tYWUnLCAnPG91dGZpbGUubWFlPic=

> <r_lp_tautomer_probability>
1

> <r_epik_Ionization_Penalty>
0.00231455

> <r_epik_Ionization_Penalty_Charging>
0.00230623

> <r_epik_Ionization_Penalty_Neutral>
8.31727e-06

> <r_epik_State_Penalty>
0.00159065

> <r_epik_Charging_Adjusted_Penalty>
0.00389688

> <i_epik_Tot_Q>
1

> <i_epik_Tot_abs_Q>
1

> <r_epik_Metal_State_Penalty>
-0

> <b_epik_Metal_Only>
0

> <s_lp_Force_Field>
OPLS_2005

> <r_lp_Energy>
23.6627

> <b_lp_Chiralities_Consistent>
1

> <s_lp_Variant>
AV-unprocessed.smi:3265-3

> <Gold.Version>
5.8.1

> <Gold.Id.Protein>
6NUR|6NUR_protein|mol2

> <Gold.PLP.Fitness>
40.3635

> <Gold.PLP.PLP>
-29.8580

> <Gold.PLP.part.hbond>
-2.0000

> <Gold.PLP.part.metal>
0.0000

> <Gold.PLP.part.buried>
1.5776

> <Gold.PLP.part.nonpolar>
-29.0653

> <Gold.PLP.part.repulsive>
2.0462

> <Gold.PLP.ligand.clash>
0.0000

> <Gold.PLP.ligand.torsion>
0.7568

> <Gold.PLP.Chemscore.Hbond>
3.0000

> <Gold.PLP.Chemscore.CHOScore>
0.9947

> <Gold.PLP.Chemscore.Metal>
0.0000

> <Gold.Chemscore.Hbonds>
donor molecule, donor type, donor heavy atom, donor atom, acceptor molecule, acceptor atom, score
      L1  H     6    41       P1  7948  2.00
      L1  H     9    33       P1 10175  1.00
      L1  C    14    36       P1  7957  1.00

> <Gold.PLP.Chemscore.Internal.Correction>
0.0348

> <Gold.Rescore>
     Score         DG    S(hbond)    S(metal)    S(lipo)     H(rot)  DE(clash)    DE(int)     intcor
     13.63     -15.91       1.99        0.00      72.59       1.84       0.48       1.80       ----

> <Gold.Chemscore.Fitness>
13.6310

> <Gold.Chemscore.DG>
-15.9077

> <Gold.Chemscore.ZeroCoef>
-5.4800

> <Gold.Chemscore.Hbond>
1.9885

> <Gold.Chemscore.Metal>
0.0000

> <Gold.Chemscore.Lipo>
72.5887

> <Gold.Chemscore.Internal_Hbond>
0.0000

> <Gold.Chemscore.DEClash>
0.4769

> <Gold.Chemscore.DEInternal>
1.7998

> <Gold.Chemscore.Rot>
1.8386

> <Gold.Chemscore.Internal.Correction>
   9.000000E+99

> <Gold.Chemscore.Hbonds>
donor molecule, donor type, donor heavy atom, donor atom, acceptor molecule, acceptor atom, score
      L1  H     6    41       P1  7948  0.94
      L1  H     9    33       P1 10175  0.99

> <Gold.Chemscore.Hbond.Weighted>
-6.6417

> <Gold.Chemscore.Metal.Weighted>
-0.0000

> <Gold.Chemscore.Lipo.Weighted>
-8.4929

> <Gold.Chemscore.Internal_Hbond.Weighted>
0.0000

> <Gold.Chemscore.DEClash.Weighted>
0.4769

> <Gold.Chemscore.DEInternal.Weighted>
1.7998

> <Gold.Chemscore.Rot.Weighted>
4.7069

> <Gold.Chemscore.Internal.Correction.Weighted>
   9.000000E+99

> <Gold.Protein.RotatedTorsions>
[ 6907 6896 6895 6894 ] final  179.36 input  -60.11 | X-H torsion
[ 7974 7965 7964 7962 ] final  157.22 input  175.53 | X-H torsion
[ 8008 7997 7996 7995 ] final  -44.49 input   59.86 | X-H torsion
[ 10167 10162 10161 10158 ] final   58.69 input  -65.29 | X-H torsion
[ 10718 10713 10712 10709 ] final  143.35 input   66.30 | X-H torsion
[ 10763 10752 10751 10750 ] final  162.73 input  -60.55 | X-H torsion
[ 11005 11000 10999 10996 ] final -172.73 input  -57.11 | X-H torsion

> <Gold.Protein.ActiveResidues>
 VAL166  LYS551  ARG553  GLY616  TRP617  ASP618  TYR619  PRO620  LYS621  CYS622 
 ASP623  PHE694  ASN695  SER759  ASP760  ASP761  ALA762  ILE779  LEU786  VAL792 
 PHE793  MET794  SER795  GLU796  ALA797  LYS798  CYS799  TRP800  GLU811  SER814 

> <Gold.Protein.RotatedAtoms>
  151.6728  133.3313  159.3200 H   0  0  0  0  0  0  0  0  0  0  0  0  # atno 6907 bound_to 6896
  150.7859  134.6847  159.6473 H   0  0  0  0  0  0  0  0  0  0  0  0  # atno 6908 bound_to 6896
  152.3929  134.6416  160.0153 H   0  0  0  0  0  0  0  0  0  0  0  0  # atno 6909 bound_to 6896
  144.7916  139.7311  143.6219 H   0  0  0  0  0  0  0  0  0  0  0  0  # atno 7974 bound_to 7965
  154.3997  140.1421  156.3692 H   0  0  0  0  0  0  0  0  0  0  0  0  # atno 8008 bound_to 7997
  155.8109  140.3473  155.5436 H   0  0  0  0  0  0  0  0  0  0  0  0  # atno 8009 bound_to 7997
  155.8387  140.0923  157.1738 H   0  0  0  0  0  0  0  0  0  0  0  0  # atno 8010 bound_to 7997
  140.1845  144.4148  150.6599 H   0  0  0  0  0  0  0  0  0  0  0  0  # atno 10167 bound_to 10162
  157.3700  131.0977  151.0837 H   0  0  0  0  0  0  0  0  0  0  0  0  # atno 10718 bound_to 10713
  154.2829  135.2763  155.2689 H   0  0  0  0  0  0  0  0  0  0  0  0  # atno 10763 bound_to 10752
  154.5202  135.5758  153.6678 H   0  0  0  0  0  0  0  0  0  0  0  0  # atno 10764 bound_to 10752
  152.9926  135.6202  154.2989 H   0  0  0  0  0  0  0  0  0  0  0  0  # atno 10765 bound_to 10752
  140.4936  134.5961  157.4963 H   0  0  0  0  0  0  0  0  0  0  0  0  # atno 11005 bound_to 11000
  146.2170  139.5567  142.9643 LP  0  0  0  0  0  0  0  0  0  0  0  0  # atno 17320 bound_to 7965
  145.5779  141.0386  143.2138 LP  0  0  0  0  0  0  0  0  0  0  0  0  # atno 17321 bound_to 7965
  140.6497  143.2222  151.6105 LP  0  0  0  0  0  0  0  0  0  0  0  0  # atno 17342 bound_to 10162
  139.5282  144.2996  152.1084 LP  0  0  0  0  0  0  0  0  0  0  0  0  # atno 17343 bound_to 10162
  157.1945  130.6367  149.5716 LP  0  0  0  0  0  0  0  0  0  0  0  0  # atno 17370 bound_to 10713
  155.9753  130.4711  150.6453 LP  0  0  0  0  0  0  0  0  0  0  0  0  # atno 17371 bound_to 10713
  139.9754  134.7224  155.9960 LP  0  0  0  0  0  0  0  0  0  0  0  0  # atno 17394 bound_to 11000
  141.1471  133.6554  156.3901 LP  0  0  0  0  0  0  0  0  0  0  0  0  # atno 17395 bound_to 11000

$$$$
