AV-unprocessed.smi:49|AV-procd|sdf|480|dock10
  -GOLD-   2262016343D 1   1.00000     0.00000
 Structure written by MMmdl.
 28 29  0  0  0  0  0  0  0  0  2 V2000
  152.6070  143.3004  158.8986 C   0  0  0  0  0  0  0  0  0  0  0  0
  151.5606  143.6898  157.8489 C   0  0  0  0  0  0  0  0  0  0  0  0
  151.1207  142.5291  157.0184 C   0  0  0  0  0  0  0  0  0  0  0  0
  150.2180  142.6599  156.0355 N   0  0  0  0  0  0  0  0  0  0  0  0
  150.0951  141.4084  155.5693 C   0  0  0  0  0  0  0  0  0  0  0  0
  149.1750  141.0845  154.4302 C   0  0  1  0  0  0  0  0  0  0  0  0
  148.1099  140.0296  154.7382 C   0  0  0  0  0  0  0  0  0  0  0  0
  146.9503  140.4745  153.8522 C   0  0  1  0  0  0  0  0  0  0  0  0
  145.7102  139.9792  154.3103 O   0  0  0  0  0  0  0  0  0  0  0  0
  147.0235  142.0043  153.9205 C   0  0  0  0  0  0  0  0  0  0  0  0
  148.4450  142.3379  154.1437 N   0  3  0  0  0  0  0  0  0  0  0  0
  150.8755  140.5336  156.2165 N   0  0  0  0  0  0  0  0  0  0  0  0
  151.5449  141.2721  157.1762 N   0  0  0  0  0  0  0  0  0  0  0  0
  149.7470  140.8038  153.5444 H   0  0  0  0  0  0  0  0  0  0  0  0
  147.1209  140.1409  152.8276 H   0  0  0  0  0  0  0  0  0  0  0  0
  149.7494  143.4985  155.7241 H   0  0  0  0  0  0  0  0  0  0  0  0
  152.9091  144.1680  159.4856 H   0  0  0  0  0  0  0  0  0  0  0  0
  153.5010  142.8891  158.4288 H   0  0  0  0  0  0  0  0  0  0  0  0
  152.2154  142.5514  159.5873 H   0  0  0  0  0  0  0  0  0  0  0  0
  150.6902  144.1298  158.3373 H   0  0  0  0  0  0  0  0  0  0  0  0
  151.9666  144.4573  157.1890 H   0  0  0  0  0  0  0  0  0  0  0  0
  148.4462  139.0105  154.5457 H   0  0  0  0  0  0  0  0  0  0  0  0
  147.8115  140.0935  155.7865 H   0  0  0  0  0  0  0  0  0  0  0  0
  145.0162  140.3915  153.8180 H   0  0  0  0  0  0  0  0  0  0  0  0
  146.6330  142.4823  153.0220 H   0  0  0  0  0  0  0  0  0  0  0  0
  146.4573  142.3801  154.7741 H   0  0  0  0  0  0  0  0  0  0  0  0
  148.5153  142.9550  154.9410 H   0  0  0  0  0  0  0  0  0  0  0  0
  148.8401  142.7860  153.3296 H   0  0  0  0  0  0  0  0  0  0  0  0
  1  2  1  0  0  0  0
  1 17  1  0  0  0  0
  1 18  1  0  0  0  0
  1 19  1  0  0  0  0
  2 20  1  0  0  0  0
  2 21  1  0  0  0  0
  2  3  1  0  0  0  0
  3  4  1  0  0  0  0
  3 13  2  0  0  0  0
  4 16  1  0  0  0  0
  4  5  1  0  0  0  0
  5 12  2  0  0  0  0
  5  6  1  0  0  0  0
  6 14  1  0  0  0  0
  6 11  1  0  0  0  0
  6  7  1  0  0  0  0
  7  8  1  0  0  0  0
  7 22  1  0  0  0  0
  7 23  1  0  0  0  0
  8 15  1  0  0  0  0
  8  9  1  0  0  0  0
  8 10  1  0  0  0  0
  9 24  1  0  0  0  0
 10 11  1  0  0  0  0
 10 25  1  0  0  0  0
 10 26  1  0  0  0  0
 11 27  1  0  0  0  0
 11 28  1  0  0  0  0
 12 13  1  0  0  0  0
M  CHG  1  11   1
M  END
> <s_m_source_file>
AV-unprocessed.smi

> <i_m_source_file_index>
49

> <i_lp_mmshare_version>
43012

> <i_f3d_flags>
0

> <s_epik_input>
W0NIM11bQ0gyXWMxbmMobltuSF0xKVtDQEBIXTJbQ0gyXVtDQEBIXShbT0hdKVtDSDJdW05IXTI=

> <s_epik_cmdline>
J2VwaWtfcHl0aG9uJywgJy1waCcsICc3LjAnLCAnLXRuJywgJzgnLCAnLW1hJywgJzIwMCcsICctbWV0YWxfYmluZGluZycsICctaW1hZScsICc8aW5maWxlLm1hZT4nLCAnLW9tYWUnLCAnPG91dGZpbGUubWFlPic=

> <r_lp_tautomer_probability>
0.0517155

> <r_epik_Ionization_Penalty>
0.939819

> <r_epik_Ionization_Penalty_Charging>
0.0688988

> <r_epik_Ionization_Penalty_Neutral>
0.87092

> <r_epik_State_Penalty>
2.1224

> <r_epik_Charging_Adjusted_Penalty>
2.1913

> <i_epik_Tot_Q>
1

> <i_epik_Tot_abs_Q>
1

> <r_epik_Metal_State_Penalty>
2.39725

> <b_epik_Metal_Only>
0

> <s_lp_Force_Field>
OPLS_2005

> <r_lp_Energy>
21.0642

> <b_lp_Chiralities_Consistent>
1

> <s_lp_Variant>
AV-unprocessed.smi:49-18

> <Gold.Version>
5.8.1

> <Gold.Id.Protein>
6NUR|6NUR_protein|mol2

> <Gold.PLP.Fitness>
37.2717

> <Gold.PLP.PLP>
-25.3596

> <Gold.PLP.part.hbond>
-2.9082

> <Gold.PLP.part.metal>
0.0000

> <Gold.PLP.part.buried>
-5.0112

> <Gold.PLP.part.nonpolar>
-19.6917

> <Gold.PLP.part.repulsive>
2.6516

> <Gold.PLP.ligand.clash>
0.0000

> <Gold.PLP.ligand.torsion>
0.0370

> <Gold.PLP.Chemscore.Hbond>
3.9913

> <Gold.PLP.Chemscore.CHOScore>
0.0000

> <Gold.PLP.Chemscore.Metal>
0.0000

> <Gold.Chemscore.Hbonds>
donor molecule, donor type, donor heavy atom, donor atom, acceptor molecule, acceptor atom, score
      L1  H     4    16       P1  8028  0.91
      L1  H     9    24       P1 10175  1.00
      L1  H    11    27       P1  8028  1.95

> <Gold.PLP.Chemscore.Internal.Correction>
0.0125

> <Gold.Rescore>
     Score         DG    S(hbond)    S(metal)    S(lipo)     H(rot)  DE(clash)    DE(int)     intcor
     15.02     -16.30       2.92        0.00      50.56       1.89       1.19       0.09       ----

> <Gold.Chemscore.Fitness>
15.0239

> <Gold.Chemscore.DG>
-16.3010

> <Gold.Chemscore.ZeroCoef>
-5.4800

> <Gold.Chemscore.Hbond>
2.9159

> <Gold.Chemscore.Metal>
0.0000

> <Gold.Chemscore.Lipo>
50.5625

> <Gold.Chemscore.Internal_Hbond>
0.0000

> <Gold.Chemscore.DEClash>
1.1893

> <Gold.Chemscore.DEInternal>
0.0878

> <Gold.Chemscore.Rot>
1.8883

> <Gold.Chemscore.Internal.Correction>
   9.000000E+99

> <Gold.Chemscore.Hbonds>
donor molecule, donor type, donor heavy atom, donor atom, acceptor molecule, acceptor atom, score
      L1  H     4    16       P1  8028  0.87
      L1  H     9    24       P1 10175  0.98
      L1  H    11    27       P1  8028  0.92

> <Gold.Chemscore.Hbond.Weighted>
-9.7392

> <Gold.Chemscore.Metal.Weighted>
-0.0000

> <Gold.Chemscore.Lipo.Weighted>
-5.9158

> <Gold.Chemscore.Internal_Hbond.Weighted>
0.0000

> <Gold.Chemscore.DEClash.Weighted>
1.1893

> <Gold.Chemscore.DEInternal.Weighted>
0.0878

> <Gold.Chemscore.Rot.Weighted>
4.8340

> <Gold.Chemscore.Internal.Correction.Weighted>
   9.000000E+99

> <Gold.Protein.RotatedTorsions>
[ 6907 6896 6895 6894 ] final -157.27 input  -60.11 | X-H torsion
[ 7974 7965 7964 7962 ] final    3.72 input  175.53 | X-H torsion
[ 8008 7997 7996 7995 ] final -169.88 input   59.86 | X-H torsion
[ 10167 10162 10161 10158 ] final  -54.96 input  -65.29 | X-H torsion
[ 10718 10713 10712 10709 ] final   77.91 input   66.30 | X-H torsion
[ 10763 10752 10751 10750 ] final   44.22 input  -60.55 | X-H torsion
[ 11005 11000 10999 10996 ] final  -82.04 input  -57.11 | X-H torsion

> <Gold.Protein.ActiveResidues>
 VAL166  LYS551  ARG553  GLY616  TRP617  ASP618  TYR619  PRO620  LYS621  CYS622 
 ASP623  PHE694  ASN695  SER759  ASP760  ASP761  ALA762  ILE779  LEU786  VAL792 
 PHE793  MET794  SER795  GLU796  ALA797  LYS798  CYS799  TRP800  GLU811  SER814 

> <Gold.Protein.RotatedAtoms>
  151.3003  133.4125  159.2638 H   0  0  0  0  0  0  0  0  0  0  0  0  # atno 6907 bound_to 6896
  151.0201  134.9463  159.8065 H   0  0  0  0  0  0  0  0  0  0  0  0  # atno 6908 bound_to 6896
  152.5322  134.2966  159.9115 H   0  0  0  0  0  0  0  0  0  0  0  0  # atno 6909 bound_to 6896
  146.2445  140.0643  142.8366 H   0  0  0  0  0  0  0  0  0  0  0  0  # atno 7974 bound_to 7965
  155.9109  140.1057  157.1280 H   0  0  0  0  0  0  0  0  0  0  0  0  # atno 8008 bound_to 7997
  154.4039  140.1274  156.4621 H   0  0  0  0  0  0  0  0  0  0  0  0  # atno 8009 bound_to 7997
  155.7311  140.3468  155.5062 H   0  0  0  0  0  0  0  0  0  0  0  0  # atno 8010 bound_to 7997
  140.6401  143.2503  151.5012 H   0  0  0  0  0  0  0  0  0  0  0  0  # atno 10167 bound_to 10162
  157.6727  130.9844  150.1710 H   0  0  0  0  0  0  0  0  0  0  0  0  # atno 10718 bound_to 10713
  152.9845  135.6077  154.3239 H   0  0  0  0  0  0  0  0  0  0  0  0  # atno 10763 bound_to 10752
  154.2947  135.2774  155.2640 H   0  0  0  0  0  0  0  0  0  0  0  0  # atno 10764 bound_to 10752
  154.4920  135.5889  153.6522 H   0  0  0  0  0  0  0  0  0  0  0  0  # atno 10765 bound_to 10752
  141.1664  133.7225  156.8512 H   0  0  0  0  0  0  0  0  0  0  0  0  # atno 11005 bound_to 11000
  145.0872  140.9261  143.4790 LP  0  0  0  0  0  0  0  0  0  0  0  0  # atno 17320 bound_to 7965
  145.0808  139.2961  143.5784 LP  0  0  0  0  0  0  0  0  0  0  0  0  # atno 17321 bound_to 7965
  139.5610  144.2156  152.1692 LP  0  0  0  0  0  0  0  0  0  0  0  0  # atno 17342 bound_to 10162
  140.1423  144.5190  150.6736 LP  0  0  0  0  0  0  0  0  0  0  0  0  # atno 17343 bound_to 10162
  156.2464  130.3696  149.8280 LP  0  0  0  0  0  0  0  0  0  0  0  0  # atno 17370 bound_to 10713
  156.6065  130.8568  151.3444 LP  0  0  0  0  0  0  0  0  0  0  0  0  # atno 17371 bound_to 10713
  140.1914  134.8962  157.3065 LP  0  0  0  0  0  0  0  0  0  0  0  0  # atno 17394 bound_to 11000
  140.2286  134.3937  155.7532 LP  0  0  0  0  0  0  0  0  0  0  0  0  # atno 17395 bound_to 11000

$$$$
