AV-unprocessed.smi:116|AV-procd|sdf|1128|dock4
  -GOLD-   2262018253D 1   1.00000     0.00000
 Structure written by MMmdl.
 38 41  0  0  0  0  0  0  0  0  1 V2000
  151.4815  136.9657  159.1116 O   0  0  0  0  0  0  0  0  0  0  0  0
  151.3411  138.1894  159.0821 C   0  0  0  0  0  0  0  0  0  0  0  0
  152.3454  139.1210  159.5834 C   0  0  0  0  0  0  0  0  0  0  0  0
  153.4770  138.6463  160.1313 F   0  0  0  0  0  0  0  0  0  0  0  0
  152.1579  140.4561  159.5094 C   0  0  0  0  0  0  0  0  0  0  0  0
  151.0237  141.0300  158.9605 N   0  0  0  0  0  0  0  0  0  0  0  0
  150.8567  142.5318  158.8955 C   0  0  1  0  0  0  0  0  0  0  0  0
  151.8371  143.2159  159.8546 C   0  0  0  0  0  0  0  0  0  0  0  0
  152.9964  143.5396  158.9375 C   0  0  0  0  0  0  0  0  0  0  0  0
  152.2748  143.8522  157.6318 C   0  0  0  0  0  0  0  0  0  0  0  0
  151.1570  142.9687  157.6008 O   0  0  0  0  0  0  0  0  0  0  0  0
  149.9879  140.2049  158.4704 C   0  0  0  0  0  0  0  0  0  0  0  0
  148.9610  140.6964  157.9967 O   0  0  0  0  0  0  0  0  0  0  0  0
  150.1811  138.8044  158.5480 N   0  0  0  0  0  0  0  0  0  0  0  0
  149.1419  137.9445  158.0030 C   0  0  0  0  0  0  0  0  0  0  0  0
  148.5634  137.0678  159.0722 C   0  0  0  0  0  0  0  0  0  0  0  0
  148.3153  137.5231  160.3073 N   0  0  0  0  0  0  0  0  0  0  0  0
  147.7733  136.5104  161.0932 C   0  0  0  0  0  0  0  0  0  0  0  0
  147.3730  136.6066  162.4465 C   0  0  0  0  0  0  0  0  0  0  0  0
  146.8343  135.4968  163.1276 C   0  0  0  0  0  0  0  0  0  0  0  0
  146.6850  134.2631  162.4660 C   0  0  0  0  0  0  0  0  0  0  0  0
  147.0754  134.1385  161.1202 C   0  0  0  0  0  0  0  0  0  0  0  0
  147.6124  135.2504  160.4452 C   0  0  0  0  0  0  0  0  0  0  0  0
  148.1750  135.3661  158.7813 S   0  0  0  0  0  0  0  0  0  0  0  0
  152.9356  141.0933  159.9030 H   0  0  0  0  0  0  0  0  0  0  0  0
  149.8072  142.7346  159.1144 H   0  0  0  0  0  0  0  0  0  0  0  0
  151.3770  144.1322  160.2262 H   0  0  0  0  0  0  0  0  0  0  0  0
  152.1020  142.5832  160.7025 H   0  0  0  0  0  0  0  0  0  0  0  0
  153.6086  144.3677  159.2955 H   0  0  0  0  0  0  0  0  0  0  0  0
  153.6387  142.6666  158.8164 H   0  0  0  0  0  0  0  0  0  0  0  0
  151.9085  144.8797  157.6378 H   0  0  0  0  0  0  0  0  0  0  0  0
  152.9120  143.7231  156.7567 H   0  0  0  0  0  0  0  0  0  0  0  0
  148.3706  138.5663  157.5468 H   0  0  0  0  0  0  0  0  0  0  0  0
  149.5706  137.3524  157.1927 H   0  0  0  0  0  0  0  0  0  0  0  0
  147.4818  137.5470  162.9661 H   0  0  0  0  0  0  0  0  0  0  0  0
  146.5349  135.5932  164.1608 H   0  0  0  0  0  0  0  0  0  0  0  0
  146.2720  133.4142  162.9907 H   0  0  0  0  0  0  0  0  0  0  0  0
  146.9637  133.1949  160.6069 H   0  0  0  0  0  0  0  0  0  0  0  0
  1  2  2  0  0  0  0
  2 14  1  0  0  0  0
  2  3  1  0  0  0  0
  3  4  1  0  0  0  0
  3  5  2  0  0  0  0
  5  6  1  0  0  0  0
  5 25  1  0  0  0  0
  6  7  1  0  0  0  0
  6 12  1  0  0  0  0
  7 11  1  0  0  0  0
  7  8  1  0  0  0  0
  7 26  1  0  0  0  0
  8  9  1  0  0  0  0
  8 27  1  0  0  0  0
  8 28  1  0  0  0  0
  9 10  1  0  0  0  0
  9 29  1  0  0  0  0
  9 30  1  0  0  0  0
 10 11  1  0  0  0  0
 10 31  1  0  0  0  0
 10 32  1  0  0  0  0
 12 13  2  0  0  0  0
 12 14  1  0  0  0  0
 14 15  1  0  0  0  0
 15 16  1  0  0  0  0
 15 33  1  0  0  0  0
 15 34  1  0  0  0  0
 16 24  1  0  0  0  0
 16 17  2  0  0  0  0
 17 18  1  0  0  0  0
 18 23  2  0  0  0  0
 18 19  1  0  0  0  0
 19 20  2  0  0  0  0
 19 35  1  0  0  0  0
 20 21  1  0  0  0  0
 20 36  1  0  0  0  0
 21 22  2  0  0  0  0
 21 37  1  0  0  0  0
 22 23  1  0  0  0  0
 22 38  1  0  0  0  0
 23 24  1  0  0  0  0
M  END
> <s_m_source_file>
AV-unprocessed.smi

> <i_m_source_file_index>
116

> <i_lp_mmshare_version>
43012

> <i_f3d_flags>
0

> <s_epik_input>
TzFbQ0gyXVtDSDJdW0NIMl1bQ0BIXTFuKFtjSF1jKEYpYzI9TyljKD1PKW4yW0NIMl1jKG4zKXNjKGMzNClbY0hdW2NIXVtjSF1bY0hdNA==

> <s_epik_cmdline>
J2VwaWtfcHl0aG9uJywgJy1waCcsICc3LjAnLCAnLXRuJywgJzgnLCAnLW1hJywgJzIwMCcsICctbWV0YWxfYmluZGluZycsICctaW1hZScsICc8aW5maWxlLm1hZT4nLCAnLW9tYWUnLCAnPG91dGZpbGUubWFlPic=

> <r_lp_tautomer_probability>
1

> <r_epik_Ionization_Penalty>
4.2492e-05

> <r_epik_Ionization_Penalty_Charging>
2.84664e-09

> <r_epik_Ionization_Penalty_Neutral>
4.24891e-05

> <r_epik_State_Penalty>
-0

> <r_epik_Charging_Adjusted_Penalty>
2.84664e-09

> <i_epik_Tot_Q>
0

> <i_epik_Tot_abs_Q>
0

> <r_epik_Metal_State_Penalty>
-0

> <b_epik_Metal_Only>
0

> <s_epik_Chemistry_Notes>
This compound contains an acetal/aminal-like group ( X-CH(R)-Y where X, Y are N, S, or O) that may be acid/base labile, releasing an aldehyde.

> <s_lp_Force_Field>
OPLS_2005

> <r_lp_Energy>
30.7685

> <b_lp_Chiralities_Consistent>
1

> <s_lp_Variant>
AV-unprocessed.smi:116-2

> <Gold.Version>
5.8.1

> <Gold.Id.Protein>
6NUR|6NUR_protein|mol2

> <Gold.PLP.Fitness>
48.5751

> <Gold.PLP.PLP>
-45.9913

> <Gold.PLP.part.hbond>
-3.0000

> <Gold.PLP.part.metal>
0.0000

> <Gold.PLP.part.buried>
-6.2062

> <Gold.PLP.part.nonpolar>
-38.7068

> <Gold.PLP.part.repulsive>
0.1221

> <Gold.PLP.ligand.clash>
0.0000

> <Gold.PLP.ligand.torsion>
0.7934

> <Gold.PLP.Chemscore.Hbond>
1.3853

> <Gold.PLP.Chemscore.CHOScore>
0.0000

> <Gold.PLP.Chemscore.Metal>
0.0000

> <Gold.Chemscore.Hbonds>
donor molecule, donor type, donor heavy atom, donor atom, acceptor molecule, acceptor atom, score
      P1  H  6896  6909       L1     1  1.00
      P1  H  6931  6943       L1    17  0.21
      P1  H  6934  6947       L1    17  0.51

> <Gold.PLP.Chemscore.Internal.Correction>
0.0145

> <Gold.Rescore>
     Score         DG    S(hbond)    S(metal)    S(lipo)     H(rot)  DE(clash)    DE(int)     intcor
     16.03     -17.95       1.18        0.00     106.20       1.52       0.10       1.82       ----

> <Gold.Chemscore.Fitness>
16.0310

> <Gold.Chemscore.DG>
-17.9518

> <Gold.Chemscore.ZeroCoef>
-5.4800

> <Gold.Chemscore.Hbond>
1.1766

> <Gold.Chemscore.Metal>
0.0000

> <Gold.Chemscore.Lipo>
106.2045

> <Gold.Chemscore.Internal_Hbond>
0.0000

> <Gold.Chemscore.DEClash>
0.1037

> <Gold.Chemscore.DEInternal>
1.8171

> <Gold.Chemscore.Rot>
1.5172

> <Gold.Chemscore.Internal.Correction>
   9.000000E+99

> <Gold.Chemscore.Hbonds>
donor molecule, donor type, donor heavy atom, donor atom, acceptor molecule, acceptor atom, score
      P1  H  6896  6909       L1     1  0.94
      P1  H  6931  6943       L1    17  0.01
      P1  H  6934  6947       L1    17  0.13

> <Gold.Chemscore.Hbond.Weighted>
-3.9300

> <Gold.Chemscore.Metal.Weighted>
-0.0000

> <Gold.Chemscore.Lipo.Weighted>
-12.4259

> <Gold.Chemscore.Internal_Hbond.Weighted>
0.0000

> <Gold.Chemscore.DEClash.Weighted>
0.1037

> <Gold.Chemscore.DEInternal.Weighted>
1.8171

> <Gold.Chemscore.Rot.Weighted>
3.8841

> <Gold.Chemscore.Internal.Correction.Weighted>
   9.000000E+99

> <Gold.Protein.RotatedTorsions>
[ 6907 6896 6895 6894 ] final  117.20 input  -60.11 | X-H torsion
[ 7974 7965 7964 7962 ] final  167.31 input  175.53 | X-H torsion
[ 8008 7997 7996 7995 ] final -130.26 input   59.86 | X-H torsion
[ 10167 10162 10161 10158 ] final   64.34 input  -65.29 | X-H torsion
[ 10718 10713 10712 10709 ] final  -74.59 input   66.30 | X-H torsion
[ 10763 10752 10751 10750 ] final  -88.85 input  -60.55 | X-H torsion
[ 11005 11000 10999 10996 ] final  -25.15 input  -57.11 | X-H torsion

> <Gold.Protein.ActiveResidues>
 VAL166  LYS551  ARG553  GLY616  TRP617  ASP618  TYR619  PRO620  LYS621  CYS622 
 ASP623  PHE694  ASN695  SER759  ASP760  ASP761  ALA762  ILE779  LEU786  VAL792 
 PHE793  MET794  SER795  GLU796  ALA797  LYS798  CYS799  TRP800  GLU811  SER814 

> <Gold.Protein.RotatedAtoms>
  152.4628  133.7858  159.6874 H   0  0  0  0  0  0  0  0  0  0  0  0  # atno 6907 bound_to 6896
  150.8579  133.7678  159.3009 H   0  0  0  0  0  0  0  0  0  0  0  0  # atno 6908 bound_to 6896
  151.5253  135.1071  159.9941 H   0  0  0  0  0  0  0  0  0  0  0  0  # atno 6909 bound_to 6896
  144.7429  139.8743  143.6391 H   0  0  0  0  0  0  0  0  0  0  0  0  # atno 7974 bound_to 7965
  155.2928  140.0449  157.3024 H   0  0  0  0  0  0  0  0  0  0  0  0  # atno 8008 bound_to 7997
  154.5531  140.2323  155.8420 H   0  0  0  0  0  0  0  0  0  0  0  0  # atno 8009 bound_to 7997
  156.1984  140.3032  155.9483 H   0  0  0  0  0  0  0  0  0  0  0  0  # atno 8010 bound_to 7997
  140.1233  144.4711  150.6908 H   0  0  0  0  0  0  0  0  0  0  0  0  # atno 10167 bound_to 10162
  156.0237  130.4420  150.2915 H   0  0  0  0  0  0  0  0  0  0  0  0  # atno 10718 bound_to 10713
  154.6490  135.5362  153.7879 H   0  0  0  0  0  0  0  0  0  0  0  0  # atno 10763 bound_to 10752
  153.0375  135.6478  154.1046 H   0  0  0  0  0  0  0  0  0  0  0  0  # atno 10764 bound_to 10752
  154.0964  135.2936  155.3241 H   0  0  0  0  0  0  0  0  0  0  0  0  # atno 10765 bound_to 10752
  140.8911  133.7588  156.0422 H   0  0  0  0  0  0  0  0  0  0  0  0  # atno 11005 bound_to 11000
  146.1258  139.4283  143.0200 LP  0  0  0  0  0  0  0  0  0  0  0  0  # atno 17320 bound_to 7965
  145.7238  141.0066  143.1388 LP  0  0  0  0  0  0  0  0  0  0  0  0  # atno 17321 bound_to 7965
  140.6860  143.2350  151.5260 LP  0  0  0  0  0  0  0  0  0  0  0  0  # atno 17342 bound_to 10162
  139.5557  144.2281  152.1608 LP  0  0  0  0  0  0  0  0  0  0  0  0  # atno 17343 bound_to 10162
  157.1018  131.0197  151.3082 LP  0  0  0  0  0  0  0  0  0  0  0  0  # atno 17370 bound_to 10713
  157.4774  130.7744  149.7381 LP  0  0  0  0  0  0  0  0  0  0  0  0  # atno 17371 bound_to 10713
  140.8346  134.3138  157.5336 LP  0  0  0  0  0  0  0  0  0  0  0  0  # atno 17394 bound_to 11000
  139.8730  134.9382  156.3708 LP  0  0  0  0  0  0  0  0  0  0  0  0  # atno 17395 bound_to 11000

$$$$
