AV-unprocessed.smi:338|AV-procd|sdf|2376|dock9
  -GOLD-   2262022303D 1   1.00000     0.00000
 Structure written by MMmdl.
 42 44  0  0  0  0  0  0  0  0  2 V2000
  147.7138  131.2766  161.3955 C   0  0  0  0  0  0  0  0  0  0  0  0
  147.9467  132.4719  160.4725 C   0  0  0  0  0  0  0  0  0  0  0  0
  148.2871  132.2606  159.3088 O   0  0  0  0  0  0  0  0  0  0  0  0
  147.7463  133.8377  161.0373 C   0  0  0  0  0  0  0  0  0  0  0  0
  147.1428  134.0360  162.3011 C   0  0  0  0  0  0  0  0  0  0  0  0
  146.9660  135.3364  162.8073 C   0  0  0  0  0  0  0  0  0  0  0  0
  147.3884  136.4494  162.0587 C   0  0  0  0  0  0  0  0  0  0  0  0
  147.9934  136.2797  160.7982 C   0  0  0  0  0  0  0  0  0  0  0  0
  148.3758  137.4244  160.1319 O   0  0  0  0  0  0  0  0  0  0  0  0
  149.4679  137.3465  159.2252 C   0  0  0  0  0  0  0  0  0  0  0  0
  149.5052  138.6276  158.3786 C   0  0  2  0  0  0  0  0  0  0  0  0
  149.4079  138.2664  157.0149 O   0  0  0  0  0  0  0  0  0  0  0  0
  150.7850  139.4537  158.6170 C   0  0  0  0  0  0  0  0  0  0  0  0
  150.7029  140.8082  158.0518 N   0  0  0  0  0  0  0  0  0  0  0  0
  149.9580  141.2686  157.0104 C   0  0  0  0  0  0  0  0  0  0  0  0
  150.2209  142.5975  156.8713 N   0  3  0  0  0  0  0  0  0  0  0  0
  151.1492  142.9927  157.8367 C   0  0  0  0  0  0  0  0  0  0  0  0
  151.7220  144.2346  158.0939 C   0  0  0  0  0  0  0  0  0  0  0  0
  152.6448  144.2976  159.1585 C   0  0  0  0  0  0  0  0  0  0  0  0
  152.9673  143.1553  159.9193 C   0  0  0  0  0  0  0  0  0  0  0  0
  152.3794  141.9016  159.6505 C   0  0  0  0  0  0  0  0  0  0  0  0
  151.4659  141.8475  158.5978 C   0  0  0  0  0  0  0  0  0  0  0  0
  148.1694  134.9656  160.2949 C   0  0  0  0  0  0  0  0  0  0  0  0
  146.6918  131.2790  161.7749 H   0  0  0  0  0  0  0  0  0  0  0  0
  148.4035  131.3055  162.2392 H   0  0  0  0  0  0  0  0  0  0  0  0
  147.8746  130.3422  160.8571 H   0  0  0  0  0  0  0  0  0  0  0  0
  146.8070  133.2041  162.9018 H   0  0  0  0  0  0  0  0  0  0  0  0
  146.5050  135.4807  163.7733 H   0  0  0  0  0  0  0  0  0  0  0  0
  147.2470  137.4438  162.4564 H   0  0  0  0  0  0  0  0  0  0  0  0
  150.4095  137.2255  159.7639 H   0  0  0  0  0  0  0  0  0  0  0  0
  149.3359  136.4815  158.5727 H   0  0  0  0  0  0  0  0  0  0  0  0
  148.6320  139.2358  158.6183 H   0  0  0  0  0  0  0  0  0  0  0  0
  150.2648  138.3403  156.6230 H   0  0  0  0  0  0  0  0  0  0  0  0
  150.9593  139.5680  159.6876 H   0  0  0  0  0  0  0  0  0  0  0  0
  151.6646  138.9471  158.2196 H   0  0  0  0  0  0  0  0  0  0  0  0
  149.2798  140.6847  156.4050 H   0  0  0  0  0  0  0  0  0  0  0  0
  151.4780  145.1108  157.5113 H   0  0  0  0  0  0  0  0  0  0  0  0
  153.1162  145.2407  159.3948 H   0  0  0  0  0  0  0  0  0  0  0  0
  153.6815  143.2410  160.7254 H   0  0  0  0  0  0  0  0  0  0  0  0
  152.6391  141.0324  160.2365 H   0  0  0  0  0  0  0  0  0  0  0  0
  148.6296  134.8080  159.3312 H   0  0  0  0  0  0  0  0  0  0  0  0
  149.7969  143.1886  156.1678 H   0  0  0  0  0  0  0  0  0  0  0  0
  1  2  1  0  0  0  0
  1 24  1  0  0  0  0
  1 25  1  0  0  0  0
  1 26  1  0  0  0  0
  2  3  2  0  0  0  0
  2  4  1  0  0  0  0
  4 23  1  0  0  0  0
  4  5  2  0  0  0  0
  5  6  1  0  0  0  0
  5 27  1  0  0  0  0
  6  7  2  0  0  0  0
  6 28  1  0  0  0  0
  7  8  1  0  0  0  0
  7 29  1  0  0  0  0
  8  9  1  0  0  0  0
  8 23  2  0  0  0  0
  9 10  1  0  0  0  0
 10 11  1  0  0  0  0
 10 30  1  0  0  0  0
 10 31  1  0  0  0  0
 11 12  1  0  0  0  0
 11 13  1  0  0  0  0
 11 32  1  0  0  0  0
 12 33  1  0  0  0  0
 13 14  1  0  0  0  0
 13 34  1  0  0  0  0
 13 35  1  0  0  0  0
 14 22  1  0  0  0  0
 14 15  1  0  0  0  0
 15 16  2  0  0  0  0
 15 36  1  0  0  0  0
 16 17  1  0  0  0  0
 16 42  1  0  0  0  0
 17 22  2  0  0  0  0
 17 18  1  0  0  0  0
 18 19  2  0  0  0  0
 18 37  1  0  0  0  0
 19 20  1  0  0  0  0
 19 38  1  0  0  0  0
 20 21  2  0  0  0  0
 20 39  1  0  0  0  0
 21 22  1  0  0  0  0
 21 40  1  0  0  0  0
 23 41  1  0  0  0  0
M  CHG  1  16   1
M  END
> <s_m_source_file>
AV-unprocessed.smi

> <i_m_source_file_index>
338

> <i_lp_mmshare_version>
43012

> <i_f3d_flags>
0

> <s_epik_input>
W0NIM11DKD1PKWMxW2NIXVtjSF1bY0hdYyhbY0hdMSlPW0NIMl1bQ0BIXShbT0hdKVtDSDJdbihbY0hdbjIpYyhjMjMpW2NIXVtjSF1bY0hdW2NIXTM=

> <s_epik_cmdline>
J2VwaWtfcHl0aG9uJywgJy1waCcsICc3LjAnLCAnLXRuJywgJzgnLCAnLW1hJywgJzIwMCcsICctbWV0YWxfYmluZGluZycsICctaW1hZScsICc8aW5maWxlLm1hZT4nLCAnLW9tYWUnLCAnPG91dGZpbGUubWFlPic=

> <r_lp_tautomer_probability>
0.99995

> <r_epik_Ionization_Penalty>
1.35015

> <r_epik_Ionization_Penalty_Charging>
1.35015

> <r_epik_Ionization_Penalty_Neutral>
2.3993e-06

> <r_epik_State_Penalty>
1.42814

> <r_epik_Charging_Adjusted_Penalty>
2.77829

> <i_epik_Tot_Q>
1

> <i_epik_Tot_abs_Q>
1

> <r_epik_Metal_State_Penalty>
5.46522

> <b_epik_Metal_Only>
0

> <s_lp_Force_Field>
OPLS_2005

> <r_lp_Energy>
26.3487

> <b_lp_Chiralities_Consistent>
1

> <s_lp_Variant>
AV-unprocessed.smi:338-3

> <Gold.Version>
5.8.1

> <Gold.Id.Protein>
6NUR|6NUR_protein|mol2

> <Gold.PLP.Fitness>
55.6536

> <Gold.PLP.PLP>
-51.0218

> <Gold.PLP.part.hbond>
-3.0000

> <Gold.PLP.part.metal>
0.0000

> <Gold.PLP.part.buried>
-5.3381

> <Gold.PLP.part.nonpolar>
-43.8621

> <Gold.PLP.part.repulsive>
0.0396

> <Gold.PLP.ligand.clash>
0.0000

> <Gold.PLP.ligand.torsion>
1.6419

> <Gold.PLP.Chemscore.Hbond>
2.6085

> <Gold.PLP.Chemscore.CHOScore>
0.0000

> <Gold.PLP.Chemscore.Metal>
0.0000

> <Gold.Chemscore.Hbonds>
donor molecule, donor type, donor heavy atom, donor atom, acceptor molecule, acceptor atom, score
      L1  H    16    42       P1  8028  2.00
      P1  H  6931  6943       L1     9  0.27
      P1  H  6934  6947       L1     9  0.38

> <Gold.PLP.Chemscore.Internal.Correction>
0.0901

> <Gold.Rescore>
     Score         DG    S(hbond)    S(metal)    S(lipo)     H(rot)  DE(clash)    DE(int)     intcor
     17.47     -19.37       1.35        0.00     134.58       2.48       0.08       1.82       ----

> <Gold.Chemscore.Fitness>
17.4662

> <Gold.Chemscore.DG>
-19.3684

> <Gold.Chemscore.ZeroCoef>
-5.4800

> <Gold.Chemscore.Hbond>
1.3479

> <Gold.Chemscore.Metal>
0.0000

> <Gold.Chemscore.Lipo>
134.5792

> <Gold.Chemscore.Internal_Hbond>
0.0000

> <Gold.Chemscore.DEClash>
0.0804

> <Gold.Chemscore.DEInternal>
1.8219

> <Gold.Chemscore.Rot>
2.4842

> <Gold.Chemscore.Internal.Correction>
   9.000000E+99

> <Gold.Chemscore.Hbonds>
donor molecule, donor type, donor heavy atom, donor atom, acceptor molecule, acceptor atom, score
      L1  H    16    42       P1  8028  0.95
      P1  H  6931  6943       L1     9  0.01
      P1  H  6934  6947       L1     9  0.25

> <Gold.Chemscore.Hbond.Weighted>
-4.5021

> <Gold.Chemscore.Metal.Weighted>
-0.0000

> <Gold.Chemscore.Lipo.Weighted>
-15.7458

> <Gold.Chemscore.Internal_Hbond.Weighted>
0.0000

> <Gold.Chemscore.DEClash.Weighted>
0.0804

> <Gold.Chemscore.DEInternal.Weighted>
1.8219

> <Gold.Chemscore.Rot.Weighted>
6.3594

> <Gold.Chemscore.Internal.Correction.Weighted>
   9.000000E+99

> <Gold.Protein.RotatedTorsions>
[ 6907 6896 6895 6894 ] final -101.79 input  -60.11 | X-H torsion
[ 7974 7965 7964 7962 ] final -162.75 input  175.53 | X-H torsion
[ 8008 7997 7996 7995 ] final -111.73 input   59.86 | X-H torsion
[ 10167 10162 10161 10158 ] final   65.46 input  -65.29 | X-H torsion
[ 10718 10713 10712 10709 ] final   71.99 input   66.30 | X-H torsion
[ 10763 10752 10751 10750 ] final  -73.89 input  -60.55 | X-H torsion
[ 11005 11000 10999 10996 ] final  -85.02 input  -57.11 | X-H torsion

> <Gold.Protein.ActiveResidues>
 VAL166  LYS551  ARG553  GLY616  TRP617  ASP618  TYR619  PRO620  LYS621  CYS622 
 ASP623  PHE694  ASN695  SER759  ASP760  ASP761  ALA762  ILE779  LEU786  VAL792 
 PHE793  MET794  SER795  GLU796  ALA797  LYS798  CYS799  TRP800  GLU811  SER814 

> <Gold.Protein.RotatedAtoms>
  150.7169  134.0680  159.3854 H   0  0  0  0  0  0  0  0  0  0  0  0  # atno 6907 bound_to 6896
  151.8662  135.0504  160.0484 H   0  0  0  0  0  0  0  0  0  0  0  0  # atno 6908 bound_to 6896
  152.2679  133.5320  159.5458 H   0  0  0  0  0  0  0  0  0  0  0  0  # atno 6909 bound_to 6896
  144.7347  140.3208  143.6171 H   0  0  0  0  0  0  0  0  0  0  0  0  # atno 7974 bound_to 7965
  154.9943  140.0395  157.2333 H   0  0  0  0  0  0  0  0  0  0  0  0  # atno 8008 bound_to 7997
  154.7600  140.2783  155.6199 H   0  0  0  0  0  0  0  0  0  0  0  0  # atno 8009 bound_to 7997
  156.2902  140.2630  156.2377 H   0  0  0  0  0  0  0  0  0  0  0  0  # atno 8010 bound_to 7997
  140.1111  144.4817  150.6977 H   0  0  0  0  0  0  0  0  0  0  0  0  # atno 10167 bound_to 10162
  157.6479  130.9556  150.0866 H   0  0  0  0  0  0  0  0  0  0  0  0  # atno 10718 bound_to 10713
  154.4656  135.5882  153.6286 H   0  0  0  0  0  0  0  0  0  0  0  0  # atno 10763 bound_to 10752
  152.9828  135.6054  154.3431 H   0  0  0  0  0  0  0  0  0  0  0  0  # atno 10764 bound_to 10752
  154.3307  135.2842  155.2452 H   0  0  0  0  0  0  0  0  0  0  0  0  # atno 10765 bound_to 10752
  141.1645  133.7377  156.8953 H   0  0  0  0  0  0  0  0  0  0  0  0  # atno 11005 bound_to 11000
  145.7571  139.1812  143.2288 LP  0  0  0  0  0  0  0  0  0  0  0  0  # atno 17320 bound_to 7965
  146.1016  140.7537  142.9546 LP  0  0  0  0  0  0  0  0  0  0  0  0  # atno 17321 bound_to 7965
  140.6925  143.2384  151.5092 LP  0  0  0  0  0  0  0  0  0  0  0  0  # atno 17342 bound_to 10162
  139.5619  144.2136  152.1704 LP  0  0  0  0  0  0  0  0  0  0  0  0  # atno 17343 bound_to 10162
  156.1827  130.3651  149.9014 LP  0  0  0  0  0  0  0  0  0  0  0  0  # atno 17370 bound_to 10713
  156.6962  130.8915  151.3594 LP  0  0  0  0  0  0  0  0  0  0  0  0  # atno 17371 bound_to 10713
  140.1620  134.9159  157.2727 LP  0  0  0  0  0  0  0  0  0  0  0  0  # atno 17394 bound_to 11000
  140.2600  134.3582  155.7410 LP  0  0  0  0  0  0  0  0  0  0  0  0  # atno 17395 bound_to 11000

$$$$
