AV-unprocessed.smi:1047|AV-procd|sdf|4566|dock8
  -GOLD-   22720 3 13D 1   1.00000     0.00000
 Structure written by MMmdl.
 57 59  0  0  0  0  0  0  0  0  3 V2000
  146.8537  130.0890  152.3441 C   0  0  0  0  0  0  0  0  0  0  0  0
  147.8529  130.9648  153.1129 C   0  0  0  0  0  0  0  0  0  0  0  0
  148.1717  132.2281  152.3956 N   0  3  1  0  0  0  0  0  0  0  0  0
  146.9829  133.0754  152.1341 C   0  0  0  0  0  0  0  0  0  0  0  0
  146.5554  133.8391  153.3996 C   0  0  0  0  0  0  0  0  0  0  0  0
  147.6497  134.6121  153.8775 O   0  0  0  0  0  0  0  0  0  0  0  0
  148.7699  133.8153  154.2490 C   0  0  2  0  0  0  0  0  0  0  0  0
  149.8366  134.7683  154.8144 C   0  0  0  0  0  0  0  0  0  0  0  0
  149.5949  136.1715  154.4186 N   0  3  0  0  0  0  0  0  0  0  0  0
  150.4750  137.1450  155.0966 C   0  0  0  0  0  0  0  0  0  0  0  0
  150.4448  138.5137  154.3965 C   0  0  1  0  0  0  0  0  0  0  0  0
  149.5101  138.4565  153.3356 O   0  0  0  0  0  0  0  0  0  0  0  0
  150.0501  139.6439  155.3670 C   0  0  0  0  0  0  0  0  0  0  0  0
  151.0569  139.8818  156.3866 N   0  0  0  0  0  0  0  0  0  0  0  0
  152.1531  139.1381  156.6303 C   0  0  0  0  0  0  0  0  0  0  0  0
  152.9503  139.5336  157.6180 N   0  0  0  0  0  0  0  0  0  0  0  0
  152.2912  140.6624  158.0739 C   0  0  0  0  0  0  0  0  0  0  0  0
  152.6165  141.5537  159.1194 C   0  0  0  0  0  0  0  0  0  0  0  0
  151.7859  142.6576  159.4158 C   0  0  0  0  0  0  0  0  0  0  0  0
  152.1723  143.5882  160.5521 C   0  0  0  0  0  0  0  0  0  0  0  0
  150.6079  142.8835  158.6592 C   0  0  0  0  0  0  0  0  0  0  0  0
  149.6990  144.0620  158.9610 C   0  0  0  0  0  0  0  0  0  0  0  0
  150.2693  142.0041  157.6094 C   0  0  0  0  0  0  0  0  0  0  0  0
  151.1029  140.9078  157.3253 C   0  0  0  0  0  0  0  0  0  0  0  0
  149.2600  133.0368  153.0047 C   0  0  0  0  0  0  0  0  0  0  0  0
  146.5675  129.2224  152.9406 H   0  0  0  0  0  0  0  0  0  0  0  0
  147.2692  129.7126  151.4100 H   0  0  0  0  0  0  0  0  0  0  0  0
  145.9433  130.6419  152.1108 H   0  0  0  0  0  0  0  0  0  0  0  0
  147.4015  131.2095  154.0752 H   0  0  0  0  0  0  0  0  0  0  0  0
  148.7587  130.4015  153.3367 H   0  0  0  0  0  0  0  0  0  0  0  0
  147.2369  133.7912  151.3510 H   0  0  0  0  0  0  0  0  0  0  0  0
  146.1587  132.4770  151.7439 H   0  0  0  0  0  0  0  0  0  0  0  0
  145.7277  134.5097  153.1685 H   0  0  0  0  0  0  0  0  0  0  0  0
  146.2035  133.1586  154.1765 H   0  0  0  0  0  0  0  0  0  0  0  0
  148.4645  133.1268  155.0385 H   0  0  0  0  0  0  0  0  0  0  0  0
  149.8734  134.6932  155.9021 H   0  0  0  0  0  0  0  0  0  0  0  0
  150.8186  134.4722  154.4425 H   0  0  0  0  0  0  0  0  0  0  0  0
  149.7302  136.2601  153.4216 H   0  0  0  0  0  0  0  0  0  0  0  0
  150.1794  137.2476  156.1420 H   0  0  0  0  0  0  0  0  0  0  0  0
  151.4918  136.7498  155.0907 H   0  0  0  0  0  0  0  0  0  0  0  0
  151.4281  138.7325  153.9775 H   0  0  0  0  0  0  0  0  0  0  0  0
  149.7012  137.6954  152.8072 H   0  0  0  0  0  0  0  0  0  0  0  0
  149.8769  140.5728  154.8221 H   0  0  0  0  0  0  0  0  0  0  0  0
  149.1123  139.3998  155.8678 H   0  0  0  0  0  0  0  0  0  0  0  0
  152.3805  138.2579  156.0468 H   0  0  0  0  0  0  0  0  0  0  0  0
  153.5132  141.3806  159.6964 H   0  0  0  0  0  0  0  0  0  0  0  0
  151.4364  143.5336  161.3544 H   0  0  0  0  0  0  0  0  0  0  0  0
  152.2287  144.6193  160.2033 H   0  0  0  0  0  0  0  0  0  0  0  0
  153.1443  143.3245  160.9697 H   0  0  0  0  0  0  0  0  0  0  0  0
  148.8123  144.0536  158.3268 H   0  0  0  0  0  0  0  0  0  0  0  0
  150.2245  145.0016  158.7900 H   0  0  0  0  0  0  0  0  0  0  0  0
  149.3669  144.0342  159.9986 H   0  0  0  0  0  0  0  0  0  0  0  0
  149.3750  142.1670  157.0261 H   0  0  0  0  0  0  0  0  0  0  0  0
  150.1179  132.4116  153.2484 H   0  0  0  0  0  0  0  0  0  0  0  0
  149.6095  133.7446  152.2517 H   0  0  0  0  0  0  0  0  0  0  0  0
  148.6383  136.4115  154.6388 H   0  0  0  0  0  0  0  0  0  0  0  0
  148.5028  131.9350  151.4870 H   0  0  0  0  0  0  0  0  0  0  0  0
  1  2  1  0  0  0  0
  1 26  1  0  0  0  0
  1 27  1  0  0  0  0
  1 28  1  0  0  0  0
  2  3  1  0  0  0  0
  2 29  1  0  0  0  0
  2 30  1  0  0  0  0
  3 25  1  0  0  0  0
  3  4  1  0  0  0  0
  3 57  1  0  0  0  0
  4  5  1  0  0  0  0
  4 31  1  0  0  0  0
  4 32  1  0  0  0  0
  5  6  1  0  0  0  0
  5 33  1  0  0  0  0
  5 34  1  0  0  0  0
  6  7  1  0  0  0  0
  7  8  1  0  0  0  0
  7 25  1  0  0  0  0
  7 35  1  0  0  0  0
  8  9  1  0  0  0  0
  8 36  1  0  0  0  0
  8 37  1  0  0  0  0
  9 10  1  0  0  0  0
  9 38  1  0  0  0  0
  9 56  1  0  0  0  0
 10 11  1  0  0  0  0
 10 39  1  0  0  0  0
 10 40  1  0  0  0  0
 11 12  1  0  0  0  0
 11 13  1  0  0  0  0
 11 41  1  0  0  0  0
 12 42  1  0  0  0  0
 13 14  1  0  0  0  0
 13 43  1  0  0  0  0
 13 44  1  0  0  0  0
 14 24  1  0  0  0  0
 14 15  1  0  0  0  0
 15 16  2  0  0  0  0
 15 45  1  0  0  0  0
 16 17  1  0  0  0  0
 17 24  2  0  0  0  0
 17 18  1  0  0  0  0
 18 19  2  0  0  0  0
 18 46  1  0  0  0  0
 19 20  1  0  0  0  0
 19 21  1  0  0  0  0
 20 47  1  0  0  0  0
 20 48  1  0  0  0  0
 20 49  1  0  0  0  0
 21 22  1  0  0  0  0
 21 23  2  0  0  0  0
 22 50  1  0  0  0  0
 22 51  1  0  0  0  0
 22 52  1  0  0  0  0
 23 24  1  0  0  0  0
 23 53  1  0  0  0  0
 25 54  1  0  0  0  0
 25 55  1  0  0  0  0
M  CHG  1   3   1
M  CHG  1   9   1
M  END
> <s_m_source_file>
AV-unprocessed.smi

> <i_m_source_file_index>
1047

> <i_lp_mmshare_version>
43012

> <i_f3d_flags>
0

> <s_epik_input>
W0NIM11bQ0gyXU4xW0NIMl1bQ0gyXU9bQ0BIXShbQ0gyXTEpW0NIMl1bTkhdW0NIMl1bQ0BIXShbT0hdKVtDSDJdbihbY0hdbjIpYyhjMjMpW2NIXWMoW0NIM10pYyhbY0hdMylbQ0gzXQ==

> <s_epik_cmdline>
J2VwaWtfcHl0aG9uJywgJy1waCcsICc3LjAnLCAnLXRuJywgJzgnLCAnLW1hJywgJzIwMCcsICctbWV0YWxfYmluZGluZycsICctaW1hZScsICc8aW5maWxlLm1hZT4nLCAnLW9tYWUnLCAnPG91dGZpbGUubWFlPic=

> <r_epik_Ionization_Penalty>
0.528991

> <r_epik_Ionization_Penalty_Charging>
0.438567

> <r_epik_Ionization_Penalty_Neutral>
0.0904237

> <r_epik_State_Penalty>
0.533036

> <r_epik_Charging_Adjusted_Penalty>
0.971603

> <i_epik_Tot_Q>
2

> <i_epik_Tot_abs_Q>
2

> <r_epik_Metal_State_Penalty>
0.448985

> <b_epik_Metal_Only>
0

> <s_lp_Force_Field>
OPLS_2005

> <r_lp_Energy>
33.3507

> <b_lp_Chiralities_Consistent>
1

> <s_lp_Variant>
AV-unprocessed.smi:1047-7

> <Gold.Version>
5.8.1

> <Gold.Id.Protein>
6NUR|6NUR_protein|mol2

> <Gold.PLP.Fitness>
58.7295

> <Gold.PLP.PLP>
-46.5155

> <Gold.PLP.part.hbond>
-5.0000

> <Gold.PLP.part.metal>
0.0000

> <Gold.PLP.part.buried>
-7.0745

> <Gold.PLP.part.nonpolar>
-35.8948

> <Gold.PLP.part.repulsive>
0.7836

> <Gold.PLP.ligand.clash>
0.0000

> <Gold.PLP.ligand.torsion>
1.5084

> <Gold.PLP.Chemscore.Hbond>
5.0000

> <Gold.PLP.Chemscore.CHOScore>
0.0000

> <Gold.PLP.Chemscore.Metal>
0.0000

> <Gold.Chemscore.Hbonds>
donor molecule, donor type, donor heavy atom, donor atom, acceptor molecule, acceptor atom, score
      L1  H     3    57       P1 10747  1.00
      L1  H     9    38       P1  7948  1.79
      L1  H    12    42       P1  7948  0.93
      P1  H  7997  8009       L1    16  1.00

> <Gold.PLP.Chemscore.Internal.Correction>
0.2307

> <Gold.Rescore>
     Score         DG    S(hbond)    S(metal)    S(lipo)     H(rot)  DE(clash)    DE(int)     intcor
     22.50     -24.23       3.73        0.00     112.83       2.70       0.18       1.55       ----

> <Gold.Chemscore.Fitness>
22.5048

> <Gold.Chemscore.DG>
-24.2310

> <Gold.Chemscore.ZeroCoef>
-5.4800

> <Gold.Chemscore.Hbond>
3.7301

> <Gold.Chemscore.Metal>
0.0000

> <Gold.Chemscore.Lipo>
112.8264

> <Gold.Chemscore.Internal_Hbond>
0.0000

> <Gold.Chemscore.DEClash>
0.1779

> <Gold.Chemscore.DEInternal>
1.5483

> <Gold.Chemscore.Rot>
2.6985

> <Gold.Chemscore.Internal.Correction>
   9.000000E+99

> <Gold.Chemscore.Hbonds>
donor molecule, donor type, donor heavy atom, donor atom, acceptor molecule, acceptor atom, score
      L1  H     3    57       P1 10747  0.99
      L1  H     9    38       P1  7948  0.20
      L1  H    12    42       P1  7948  0.45
      P1  H  7997  8009       L1    16  0.39

> <Gold.Chemscore.Hbond.Weighted>
-12.4584

> <Gold.Chemscore.Metal.Weighted>
-0.0000

> <Gold.Chemscore.Lipo.Weighted>
-13.2007

> <Gold.Chemscore.Internal_Hbond.Weighted>
0.0000

> <Gold.Chemscore.DEClash.Weighted>
0.1779

> <Gold.Chemscore.DEInternal.Weighted>
1.5483

> <Gold.Chemscore.Rot.Weighted>
6.9081

> <Gold.Chemscore.Internal.Correction.Weighted>
   9.000000E+99

> <Gold.Protein.RotatedTorsions>
[ 6907 6896 6895 6894 ] final  157.34 input  -60.11 | X-H torsion
[ 7974 7965 7964 7962 ] final  -43.09 input  175.53 | X-H torsion
[ 8008 7997 7996 7995 ] final  164.30 input   59.86 | X-H torsion
[ 10167 10162 10161 10158 ] final    0.46 input  -65.29 | X-H torsion
[ 10718 10713 10712 10709 ] final   91.56 input   66.30 | X-H torsion
[ 10763 10752 10751 10750 ] final  -32.59 input  -60.55 | X-H torsion
[ 11005 11000 10999 10996 ] final  -35.80 input  -57.11 | X-H torsion

> <Gold.Protein.ActiveResidues>
 VAL166  LYS551  ARG553  GLY616  TRP617  ASP618  TYR619  PRO620  LYS621  CYS622 
 ASP623  PHE694  ASN695  SER759  ASP760  ASP761  ALA762  ILE779  LEU786  VAL792 
 PHE793  MET794  SER795  GLU796  ALA797  LYS798  CYS799  TRP800  GLU811  SER814 

> <Gold.Protein.RotatedAtoms>
  152.0165  133.3882  159.4240 H   0  0  0  0  0  0  0  0  0  0  0  0  # atno 6907 bound_to 6896
  150.6894  134.3672  159.4985 H   0  0  0  0  0  0  0  0  0  0  0  0  # atno 6908 bound_to 6896
  152.1440  134.9040  160.0603 H   0  0  0  0  0  0  0  0  0  0  0  0  # atno 6909 bound_to 6896
  146.0053  140.7027  142.9250 H   0  0  0  0  0  0  0  0  0  0  0  0  # atno 7974 bound_to 7965
  156.1891  140.1700  156.8128 H   0  0  0  0  0  0  0  0  0  0  0  0  # atno 8008 bound_to 7997
  154.5449  140.0729  156.8604 H   0  0  0  0  0  0  0  0  0  0  0  0  # atno 8009 bound_to 7997
  155.3142  140.3369  155.4245 H   0  0  0  0  0  0  0  0  0  0  0  0  # atno 8010 bound_to 7997
  140.6728  143.7002  150.7958 H   0  0  0  0  0  0  0  0  0  0  0  0  # atno 10167 bound_to 10162
  157.6960  131.0412  150.3748 H   0  0  0  0  0  0  0  0  0  0  0  0  # atno 10718 bound_to 10713
  153.8162  135.6878  153.4833 H   0  0  0  0  0  0  0  0  0  0  0  0  # atno 10763 bound_to 10752
  153.1597  135.4584  154.9753 H   0  0  0  0  0  0  0  0  0  0  0  0  # atno 10764 bound_to 10752
  154.7947  135.3314  154.7638 H   0  0  0  0  0  0  0  0  0  0  0  0  # atno 10765 bound_to 10752
  140.9825  133.7049  156.1708 H   0  0  0  0  0  0  0  0  0  0  0  0  # atno 11005 bound_to 11000
  144.6933  140.3304  143.7217 LP  0  0  0  0  0  0  0  0  0  0  0  0  # atno 17320 bound_to 7965
  145.7425  139.1768  143.2367 LP  0  0  0  0  0  0  0  0  0  0  0  0  # atno 17321 bound_to 7965
  140.0690  143.5080  152.2589 LP  0  0  0  0  0  0  0  0  0  0  0  0  # atno 17342 bound_to 10162
  139.6004  144.7581  151.3185 LP  0  0  0  0  0  0  0  0  0  0  0  0  # atno 17343 bound_to 10162
  156.4169  130.3945  149.6852 LP  0  0  0  0  0  0  0  0  0  0  0  0  # atno 17370 bound_to 10713
  156.4116  130.7725  151.2738 LP  0  0  0  0  0  0  0  0  0  0  0  0  # atno 17371 bound_to 10713
  140.7165  134.4405  157.5578 LP  0  0  0  0  0  0  0  0  0  0  0  0  # atno 17394 bound_to 11000
  139.8956  134.8679  156.2124 LP  0  0  0  0  0  0  0  0  0  0  0  0  # atno 17395 bound_to 11000

$$$$
