AV-unprocessed.smi:1748|AV-procd|sdf|7038|dock3
  -GOLD-   22720 8253D 1   1.00000     0.00000
 Structure written by MMmdl.
 40 41  0  0  0  0  0  0  0  0  2 V2000
  144.2330  141.4535  155.3831 C   0  0  0  0  0  0  0  0  0  0  0  0
  145.4578  141.0286  154.6723 N   0  3  1  0  0  0  0  0  0  0  0  0
  146.2356  142.1786  154.1469 C   0  0  0  0  0  0  0  0  0  0  0  0
  147.4307  141.7013  153.3041 C   0  0  0  0  0  0  0  0  0  0  0  0
  148.3180  140.7241  154.0944 C   0  0  0  0  0  0  0  0  0  0  0  0
  147.4861  139.5631  154.6695 C   0  0  2  0  0  0  0  0  0  0  0  0
  147.0318  138.6910  153.5859 N   0  0  0  0  0  0  0  0  0  0  0  0
  146.1024  137.7316  153.7002 C   0  0  0  0  0  0  0  0  0  0  0  0
  145.5119  137.4881  154.7521 O   0  0  0  0  0  0  0  0  0  0  0  0
  145.8992  137.1163  152.5212 N   0  0  0  0  0  0  0  0  0  0  0  0
  145.0209  136.0648  152.2111 C   0  0  0  0  0  0  0  0  0  0  0  0
  145.3323  134.9999  151.4267 C   0  0  0  0  0  0  0  0  0  0  0  0
  144.3702  133.9494  151.1357 C   0  0  0  0  0  0  0  0  0  0  0  0
  144.7482  132.7179  150.3274 C   0  0  0  0  0  0  0  0  0  0  0  0
  146.0579  132.6913  150.0775 F   0  0  0  0  0  0  0  0  0  0  0  0
  144.4340  131.6163  151.0077 F   0  0  0  0  0  0  0  0  0  0  0  0
  144.0990  132.6873  149.1634 F   0  0  0  0  0  0  0  0  0  0  0  0
  143.1510  134.0824  151.6894 C   0  0  0  0  0  0  0  0  0  0  0  0
  142.8157  135.1862  152.4767 N   0  0  0  0  0  0  0  0  0  0  0  0
  143.6677  136.1919  152.7769 C   0  0  0  0  0  0  0  0  0  0  0  0
  143.2982  137.1313  153.4808 O   0  0  0  0  0  0  0  0  0  0  0  0
  146.3016  140.1213  155.4901 C   0  0  0  0  0  0  0  0  0  0  0  0
  141.8743  135.2215  152.8407 H   0  0  0  0  0  0  0  0  0  0  0  0
  144.4780  142.0398  156.2698 H   0  0  0  0  0  0  0  0  0  0  0  0
  143.6497  140.5867  155.6958 H   0  0  0  0  0  0  0  0  0  0  0  0
  143.6021  142.0611  154.7336 H   0  0  0  0  0  0  0  0  0  0  0  0
  145.5891  142.8099  153.5359 H   0  0  0  0  0  0  0  0  0  0  0  0
  146.5846  142.7928  154.9788 H   0  0  0  0  0  0  0  0  0  0  0  0
  147.0674  141.2191  152.3957 H   0  0  0  0  0  0  0  0  0  0  0  0
  148.0211  142.5585  152.9789 H   0  0  0  0  0  0  0  0  0  0  0  0
  149.1209  140.3438  153.4614 H   0  0  0  0  0  0  0  0  0  0  0  0
  148.8017  141.2602  154.9123 H   0  0  0  0  0  0  0  0  0  0  0  0
  148.1291  138.9766  155.3282 H   0  0  0  0  0  0  0  0  0  0  0  0
  147.4695  138.8195  152.6850 H   0  0  0  0  0  0  0  0  0  0  0  0
  146.4106  137.4794  151.7297 H   0  0  0  0  0  0  0  0  0  0  0  0
  146.3063  134.9130  150.9734 H   0  0  0  0  0  0  0  0  0  0  0  0
  142.3525  133.3635  151.5790 H   0  0  0  0  0  0  0  0  0  0  0  0
  146.6754  140.6634  156.3603 H   0  0  0  0  0  0  0  0  0  0  0  0
  145.6922  139.3035  155.8770 H   0  0  0  0  0  0  0  0  0  0  0  0
  145.1527  140.4937  153.8716 H   0  0  0  0  0  0  0  0  0  0  0  0
  1  2  1  0  0  0  0
  1 24  1  0  0  0  0
  1 25  1  0  0  0  0
  1 26  1  0  0  0  0
  2 22  1  0  0  0  0
  2  3  1  0  0  0  0
  2 40  1  0  0  0  0
  3  4  1  0  0  0  0
  3 27  1  0  0  0  0
  3 28  1  0  0  0  0
  4  5  1  0  0  0  0
  4 29  1  0  0  0  0
  4 30  1  0  0  0  0
  5  6  1  0  0  0  0
  5 31  1  0  0  0  0
  5 32  1  0  0  0  0
  6  7  1  0  0  0  0
  6 22  1  0  0  0  0
  6 33  1  0  0  0  0
  7  8  1  0  0  0  0
  7 34  1  0  0  0  0
  8  9  2  0  0  0  0
  8 10  1  0  0  0  0
 10 11  1  0  0  0  0
 10 35  1  0  0  0  0
 11 20  1  0  0  0  0
 11 12  2  0  0  0  0
 12 13  1  0  0  0  0
 12 36  1  0  0  0  0
 13 14  1  0  0  0  0
 13 18  2  0  0  0  0
 14 15  1  0  0  0  0
 14 16  1  0  0  0  0
 14 17  1  0  0  0  0
 18 19  1  0  0  0  0
 18 37  1  0  0  0  0
 19 23  1  0  0  0  0
 19 20  1  0  0  0  0
 20 21  2  0  0  0  0
 22 38  1  0  0  0  0
 22 39  1  0  0  0  0
M  CHG  1   2   1
M  END
> <s_m_source_file>
AV-unprocessed.smi

> <i_m_source_file_index>
1748

> <i_lp_mmshare_version>
43012

> <i_f3d_flags>
0

> <s_epik_input>
W0NIM11OMVtDSDJdW0NIMl1bQ0gyXVtDQEhdKFtDSDJdMSlbTkhdQyg9TylbTkhdYzJbY0hdYyhDKEYpKEYpRilbY0hdW25IXWMyPU8=

> <s_epik_cmdline>
J2VwaWtfcHl0aG9uJywgJy1waCcsICc3LjAnLCAnLXRuJywgJzgnLCAnLW1hJywgJzIwMCcsICctbWV0YWxfYmluZGluZycsICctaW1hZScsICc8aW5maWxlLm1hZT4nLCAnLW9tYWUnLCAnPG91dGZpbGUubWFlPic=

> <r_lp_tautomer_probability>
1

> <r_epik_Ionization_Penalty>
0.00746315

> <r_epik_Ionization_Penalty_Charging>
0.00744398

> <r_epik_Ionization_Penalty_Neutral>
1.91704e-05

> <r_epik_State_Penalty>
-0

> <r_epik_Charging_Adjusted_Penalty>
0.00744398

> <i_epik_Tot_Q>
1

> <i_epik_Tot_abs_Q>
1

> <r_epik_Metal_State_Penalty>
0.379332

> <b_epik_Metal_Only>
0

> <s_lp_Force_Field>
OPLS_2005

> <r_lp_Energy>
33.9877

> <b_lp_Chiralities_Consistent>
1

> <s_lp_Variant>
AV-unprocessed.smi:1748-3

> <Gold.Version>
5.8.1

> <Gold.Id.Protein>
6NUR|6NUR_protein|mol2

> <Gold.PLP.Fitness>
36.1924

> <Gold.PLP.PLP>
-31.9676

> <Gold.PLP.part.hbond>
-1.3028

> <Gold.PLP.part.metal>
0.0000

> <Gold.PLP.part.buried>
-4.1761

> <Gold.PLP.part.nonpolar>
-26.6765

> <Gold.PLP.part.repulsive>
0.2101

> <Gold.PLP.ligand.clash>
0.0000

> <Gold.PLP.ligand.torsion>
0.7243

> <Gold.PLP.Chemscore.Hbond>
1.6000

> <Gold.PLP.Chemscore.CHOScore>
0.2794

> <Gold.PLP.Chemscore.Metal>
0.0000

> <Gold.Chemscore.Hbonds>
donor molecule, donor type, donor heavy atom, donor atom, acceptor molecule, acceptor atom, score
      L1  H     2    40       P1 10175  1.57
      L1  C    18    37       P1 10186  0.31

> <Gold.PLP.Chemscore.Internal.Correction>
0.0350

> <Gold.Rescore>
     Score         DG    S(hbond)    S(metal)    S(lipo)     H(rot)  DE(clash)    DE(int)     intcor
      7.37     -11.75       0.82        0.00      52.13       1.00       0.16       4.22       ----

> <Gold.Chemscore.Fitness>
7.3708

> <Gold.Chemscore.DG>
-11.7477

> <Gold.Chemscore.ZeroCoef>
-5.4800

> <Gold.Chemscore.Hbond>
0.8168

> <Gold.Chemscore.Metal>
0.0000

> <Gold.Chemscore.Lipo>
52.1320

> <Gold.Chemscore.Internal_Hbond>
0.0000

> <Gold.Chemscore.DEClash>
0.1599

> <Gold.Chemscore.DEInternal>
4.2170

> <Gold.Chemscore.Rot>
1.0000

> <Gold.Chemscore.Internal.Correction>
   9.000000E+99

> <Gold.Chemscore.Hbonds>
donor molecule, donor type, donor heavy atom, donor atom, acceptor molecule, acceptor atom, score
      L1  H     2    40       P1 10175  0.72

> <Gold.Chemscore.Hbond.Weighted>
-2.7283

> <Gold.Chemscore.Metal.Weighted>
-0.0000

> <Gold.Chemscore.Lipo.Weighted>
-6.0994

> <Gold.Chemscore.Internal_Hbond.Weighted>
0.0000

> <Gold.Chemscore.DEClash.Weighted>
0.1599

> <Gold.Chemscore.DEInternal.Weighted>
4.2170

> <Gold.Chemscore.Rot.Weighted>
2.5600

> <Gold.Chemscore.Internal.Correction.Weighted>
   9.000000E+99

> <Gold.Protein.RotatedTorsions>
[ 6907 6896 6895 6894 ] final  -86.83 input  -60.11 | X-H torsion
[ 7974 7965 7964 7962 ] final   52.42 input  175.53 | X-H torsion
[ 8008 7997 7996 7995 ] final  -22.72 input   59.86 | X-H torsion
[ 10167 10162 10161 10158 ] final   11.92 input  -65.29 | X-H torsion
[ 10718 10713 10712 10709 ] final   97.78 input   66.30 | X-H torsion
[ 10763 10752 10751 10750 ] final -158.36 input  -60.55 | X-H torsion
[ 11005 11000 10999 10996 ] final  169.20 input  -57.11 | X-H torsion

> <Gold.Protein.ActiveResidues>
 VAL166  LYS551  ARG553  GLY616  TRP617  ASP618  TYR619  PRO620  LYS621  CYS622 
 ASP623  PHE694  ASN695  SER759  ASP760  ASP761  ALA762  ILE779  LEU786  VAL792 
 PHE793  MET794  SER795  GLU796  ALA797  LYS798  CYS799  TRP800  GLU811  SER814 

> <Gold.Protein.RotatedAtoms>
  150.6866  134.2989  159.4697 H   0  0  0  0  0  0  0  0  0  0  0  0  # atno 6907 bound_to 6896
  152.0887  134.9419  160.0581 H   0  0  0  0  0  0  0  0  0  0  0  0  # atno 6908 bound_to 6896
  152.0744  133.4087  159.4510 H   0  0  0  0  0  0  0  0  0  0  0  0  # atno 6909 bound_to 6896
  145.9815  139.4246  143.0129 H   0  0  0  0  0  0  0  0  0  0  0  0  # atno 7974 bound_to 7965
  154.4627  140.2000  156.0201 H   0  0  0  0  0  0  0  0  0  0  0  0  # atno 8008 bound_to 7997
  156.0870  140.3263  155.7738 H   0  0  0  0  0  0  0  0  0  0  0  0  # atno 8009 bound_to 7997
  155.5018  140.0554  157.2928 H   0  0  0  0  0  0  0  0  0  0  0  0  # atno 8010 bound_to 7997
  140.6101  143.8425  150.7056 H   0  0  0  0  0  0  0  0  0  0  0  0  # atno 10167 bound_to 10162
  157.6907  131.0620  150.4696 H   0  0  0  0  0  0  0  0  0  0  0  0  # atno 10718 bound_to 10713
  154.7563  135.3105  154.8464 H   0  0  0  0  0  0  0  0  0  0  0  0  # atno 10763 bound_to 10752
  153.9237  135.6793  153.4751 H   0  0  0  0  0  0  0  0  0  0  0  0  # atno 10764 bound_to 10752
  153.1160  135.4844  154.9046 H   0  0  0  0  0  0  0  0  0  0  0  0  # atno 10765 bound_to 10752
  140.2953  134.7640  157.3872 H   0  0  0  0  0  0  0  0  0  0  0  0  # atno 11005 bound_to 11000
  145.7763  140.9875  143.1123 LP  0  0  0  0  0  0  0  0  0  0  0  0  # atno 17320 bound_to 7965
  144.6863  139.9509  143.7478 LP  0  0  0  0  0  0  0  0  0  0  0  0  # atno 17321 bound_to 7965
  140.1992  143.3973  152.1805 LP  0  0  0  0  0  0  0  0  0  0  0  0  # atno 17342 bound_to 10162
  139.5355  144.7204  151.4909 LP  0  0  0  0  0  0  0  0  0  0  0  0  # atno 17343 bound_to 10162
  156.5035  130.4122  149.6340 LP  0  0  0  0  0  0  0  0  0  0  0  0  # atno 17370 bound_to 10713
  156.3306  130.7330  151.2258 LP  0  0  0  0  0  0  0  0  0  0  0  0  # atno 17371 bound_to 10713
  140.1158  134.5285  155.8226 LP  0  0  0  0  0  0  0  0  0  0  0  0  # atno 17394 bound_to 11000
  141.2138  133.6739  156.6774 LP  0  0  0  0  0  0  0  0  0  0  0  0  # atno 17395 bound_to 11000

$$$$
