AV-unprocessed.smi:3176|AV-procd|sdf|12125|dock5
  -GOLD-   2272017563D 1   1.00000     0.00000
 Structure written by MMmdl.
 32 33  0  0  0  0  0  0  0  0  1 V2000
  150.4053  140.5061  154.9380 O   0  0  0  0  0  0  0  0  0  0  0  0
  149.7719  141.5407  155.1485 C   0  0  0  0  0  0  0  0  0  0  0  0
  150.2099  142.5070  155.9706 N   0  0  0  0  0  0  0  0  0  0  0  0
  151.4153  142.4371  156.7904 C   0  0  0  0  0  0  0  0  0  0  0  0
  151.6376  143.7142  157.6259 C   0  0  0  0  0  0  0  0  0  0  0  0
  151.9438  143.4350  159.0884 C   0  0  0  0  0  0  0  0  0  0  0  0
  151.8051  144.4503  160.0593 C   0  0  0  0  0  0  0  0  0  0  0  0
  152.1283  144.1498  161.3962 C   0  0  0  0  0  0  0  0  0  0  0  0
  152.5708  142.8507  161.7106 C   0  0  0  0  0  0  0  0  0  0  0  0
  152.6711  141.9064  160.6692 C   0  0  0  0  0  0  0  0  0  0  0  0
  152.3666  142.1851  159.3833 N   0  0  0  0  0  0  0  0  0  0  0  0
  148.4164  141.7762  154.4615 C   0  0  1  0  0  0  0  0  0  0  0  0
  147.9383  140.5944  153.5973 C   0  0  0  0  0  0  0  0  0  0  0  0
  146.8705  139.9443  154.4516 C   0  0  0  0  0  0  0  0  0  0  0  0
  146.2760  141.1510  155.1616 C   0  0  0  0  0  0  0  0  0  0  0  0
  147.4046  141.9608  155.4572 O   0  0  0  0  0  0  0  0  0  0  0  0
  149.6315  143.3281  156.0785 H   0  0  0  0  0  0  0  0  0  0  0  0
  151.3886  141.5570  157.4345 H   0  0  0  0  0  0  0  0  0  0  0  0
  152.2583  142.2980  156.1133 H   0  0  0  0  0  0  0  0  0  0  0  0
  152.4586  144.2917  157.1991 H   0  0  0  0  0  0  0  0  0  0  0  0
  150.7572  144.3544  157.5608 H   0  0  0  0  0  0  0  0  0  0  0  0
  151.4705  145.4399  159.7849 H   0  0  0  0  0  0  0  0  0  0  0  0
  152.0407  144.9030  162.1652 H   0  0  0  0  0  0  0  0  0  0  0  0
  152.8272  142.5839  162.7250 H   0  0  0  0  0  0  0  0  0  0  0  0
  153.0069  140.9007  160.8744 H   0  0  0  0  0  0  0  0  0  0  0  0
  148.4911  142.6777  153.8525 H   0  0  0  0  0  0  0  0  0  0  0  0
  147.4946  140.9723  152.6753 H   0  0  0  0  0  0  0  0  0  0  0  0
  148.7206  139.8890  153.3146 H   0  0  0  0  0  0  0  0  0  0  0  0
  146.1369  139.3855  153.8707 H   0  0  0  0  0  0  0  0  0  0  0  0
  147.3252  139.2673  155.1754 H   0  0  0  0  0  0  0  0  0  0  0  0
  145.6043  141.6970  154.4977 H   0  0  0  0  0  0  0  0  0  0  0  0
  145.7275  140.8827  156.0644 H   0  0  0  0  0  0  0  0  0  0  0  0
  1  2  2  0  0  0  0
  2  3  1  0  0  0  0
  2 12  1  0  0  0  0
  3  4  1  0  0  0  0
  3 17  1  0  0  0  0
  4  5  1  0  0  0  0
  4 18  1  0  0  0  0
  4 19  1  0  0  0  0
  5  6  1  0  0  0  0
  5 20  1  0  0  0  0
  5 21  1  0  0  0  0
  6 11  1  0  0  0  0
  6  7  2  0  0  0  0
  7  8  1  0  0  0  0
  7 22  1  0  0  0  0
  8  9  2  0  0  0  0
  8 23  1  0  0  0  0
  9 10  1  0  0  0  0
  9 24  1  0  0  0  0
 10 11  2  0  0  0  0
 10 25  1  0  0  0  0
 12 16  1  0  0  0  0
 12 13  1  0  0  0  0
 12 26  1  0  0  0  0
 13 14  1  0  0  0  0
 13 27  1  0  0  0  0
 13 28  1  0  0  0  0
 14 15  1  0  0  0  0
 14 29  1  0  0  0  0
 14 30  1  0  0  0  0
 15 16  1  0  0  0  0
 15 31  1  0  0  0  0
 15 32  1  0  0  0  0
M  END
> <s_m_source_file>
AV-unprocessed.smi

> <i_m_source_file_index>
3176

> <i_lp_mmshare_version>
43012

> <i_f3d_flags>
0

> <s_epik_input>
TzFbQ0gyXVtDSDJdW0NIMl1bQ0BIXTFDKD1PKVtOSF1bQ0gyXVtDSDJdYzJbY0hdW2NIXVtjSF1bY0hdbjI=

> <s_epik_cmdline>
J2VwaWtfcHl0aG9uJywgJy1waCcsICc3LjAnLCAnLXRuJywgJzgnLCAnLW1hJywgJzIwMCcsICctbWV0YWxfYmluZGluZycsICctaW1hZScsICc8aW5maWxlLm1hZT4nLCAnLW9tYWUnLCAnPG91dGZpbGUubWFlPic=

> <r_epik_Ionization_Penalty>
0.0282744

> <r_epik_Ionization_Penalty_Charging>
0

> <r_epik_Ionization_Penalty_Neutral>
0.0282744

> <r_epik_State_Penalty>
0.0231919

> <r_epik_Charging_Adjusted_Penalty>
0.0231919

> <i_epik_Tot_Q>
0

> <i_epik_Tot_abs_Q>
0

> <r_epik_Metal_State_Penalty>
0.02213

> <b_epik_Metal_Only>
0

> <s_lp_Force_Field>
OPLS_2005

> <r_lp_Energy>
16.341

> <b_lp_Chiralities_Consistent>
1

> <s_lp_Variant>
AV-unprocessed.smi:3176-2

> <Gold.Version>
5.8.1

> <Gold.Id.Protein>
6NUR|6NUR_protein|mol2

> <Gold.PLP.Fitness>
41.6167

> <Gold.PLP.PLP>
-36.8395

> <Gold.PLP.part.hbond>
-2.0000

> <Gold.PLP.part.metal>
0.0000

> <Gold.PLP.part.buried>
-5.2069

> <Gold.PLP.part.nonpolar>
-30.1060

> <Gold.PLP.part.repulsive>
0.3401

> <Gold.PLP.ligand.clash>
0.0000

> <Gold.PLP.ligand.torsion>
0.6047

> <Gold.PLP.Chemscore.Hbond>
1.9920

> <Gold.PLP.Chemscore.CHOScore>
0.0000

> <Gold.PLP.Chemscore.Metal>
0.0000

> <Gold.Chemscore.Hbonds>
donor molecule, donor type, donor heavy atom, donor atom, acceptor molecule, acceptor atom, score
      L1  H     3    17       P1  8028  1.00
      P1  H  7989  7998       L1     1  0.99

> <Gold.PLP.Chemscore.Internal.Correction>
0.0107

> <Gold.Rescore>
     Score         DG    S(hbond)    S(metal)    S(lipo)     H(rot)  DE(clash)    DE(int)     intcor
     18.20     -18.83       1.67        0.00      99.54       1.52       0.15       0.48       ----

> <Gold.Chemscore.Fitness>
18.1978

> <Gold.Chemscore.DG>
-18.8258

> <Gold.Chemscore.ZeroCoef>
-5.4800

> <Gold.Chemscore.Hbond>
1.6708

> <Gold.Chemscore.Metal>
0.0000

> <Gold.Chemscore.Lipo>
99.5377

> <Gold.Chemscore.Internal_Hbond>
0.0000

> <Gold.Chemscore.DEClash>
0.1504

> <Gold.Chemscore.DEInternal>
0.4775

> <Gold.Chemscore.Rot>
1.5159

> <Gold.Chemscore.Internal.Correction>
   9.000000E+99

> <Gold.Chemscore.Hbonds>
donor molecule, donor type, donor heavy atom, donor atom, acceptor molecule, acceptor atom, score
      L1  H     3    17       P1  8028  0.99
      P1  H  7989  7998       L1     1  0.57

> <Gold.Chemscore.Hbond.Weighted>
-5.5805

> <Gold.Chemscore.Metal.Weighted>
-0.0000

> <Gold.Chemscore.Lipo.Weighted>
-11.6459

> <Gold.Chemscore.Internal_Hbond.Weighted>
0.0000

> <Gold.Chemscore.DEClash.Weighted>
0.1504

> <Gold.Chemscore.DEInternal.Weighted>
0.4775

> <Gold.Chemscore.Rot.Weighted>
3.8807

> <Gold.Chemscore.Internal.Correction.Weighted>
   9.000000E+99

> <Gold.Protein.RotatedTorsions>
[ 6907 6896 6895 6894 ] final   28.55 input  -60.11 | X-H torsion
[ 7974 7965 7964 7962 ] final -127.83 input  175.53 | X-H torsion
[ 8008 7997 7996 7995 ] final   36.96 input   59.86 | X-H torsion
[ 10167 10162 10161 10158 ] final   99.63 input  -65.29 | X-H torsion
[ 10718 10713 10712 10709 ] final   19.43 input   66.30 | X-H torsion
[ 10763 10752 10751 10750 ] final  -43.08 input  -60.55 | X-H torsion
[ 11005 11000 10999 10996 ] final  109.59 input  -57.11 | X-H torsion

> <Gold.Protein.ActiveResidues>
 VAL166  LYS551  ARG553  GLY616  TRP617  ASP618  TYR619  PRO620  LYS621  CYS622 
 ASP623  PHE694  ASN695  SER759  ASP760  ASP761  ALA762  ILE779  LEU786  VAL792 
 PHE793  MET794  SER795  GLU796  ALA797  LYS798  CYS799  TRP800  GLU811  SER814 

> <Gold.Protein.RotatedAtoms>
  152.0185  134.9836  160.0569 H   0  0  0  0  0  0  0  0  0  0  0  0  # atno 6907 bound_to 6896
  152.1360  133.4431  159.4752 H   0  0  0  0  0  0  0  0  0  0  0  0  # atno 6908 bound_to 6896
  150.6860  134.2281  159.4467 H   0  0  0  0  0  0  0  0  0  0  0  0  # atno 6909 bound_to 6896
  144.9731  140.7566  143.4658 H   0  0  0  0  0  0  0  0  0  0  0  0  # atno 7974 bound_to 7965
  155.1960  140.3312  155.4351 H   0  0  0  0  0  0  0  0  0  0  0  0  # atno 8008 bound_to 7997
  156.2424  140.1902  156.7000 H   0  0  0  0  0  0  0  0  0  0  0  0  # atno 8009 bound_to 7997
  154.6173  140.0600  156.9557 H   0  0  0  0  0  0  0  0  0  0  0  0  # atno 8010 bound_to 7997
  139.7600  144.6957  151.0306 H   0  0  0  0  0  0  0  0  0  0  0  0  # atno 10167 bound_to 10162
  157.1103  130.6506  149.5896 H   0  0  0  0  0  0  0  0  0  0  0  0  # atno 10718 bound_to 10713
  153.9896  135.6707  153.4753 H   0  0  0  0  0  0  0  0  0  0  0  0  # atno 10763 bound_to 10752
  153.0711  135.4974  154.8302 H   0  0  0  0  0  0  0  0  0  0  0  0  # atno 10764 bound_to 10752
  154.7117  135.3098  154.9149 H   0  0  0  0  0  0  0  0  0  0  0  0  # atno 10765 bound_to 10752
  139.8865  134.9462  156.6149 H   0  0  0  0  0  0  0  0  0  0  0  0  # atno 11005 bound_to 11000
  145.2529  139.2024  143.4932 LP  0  0  0  0  0  0  0  0  0  0  0  0  # atno 17320 bound_to 7965
  146.3388  140.2446  142.8596 LP  0  0  0  0  0  0  0  0  0  0  0  0  # atno 17321 bound_to 7965
  140.7806  143.4708  151.0149 LP  0  0  0  0  0  0  0  0  0  0  0  0  # atno 17342 bound_to 10162
  139.8394  143.7583  152.3180 LP  0  0  0  0  0  0  0  0  0  0  0  0  # atno 17343 bound_to 10162
  155.9852  130.4881  150.7020 LP  0  0  0  0  0  0  0  0  0  0  0  0  # atno 17370 bound_to 10713
  157.4565  131.0878  151.0791 LP  0  0  0  0  0  0  0  0  0  0  0  0  # atno 17371 bound_to 10713
  140.7784  133.8681  155.8547 LP  0  0  0  0  0  0  0  0  0  0  0  0  # atno 17394 bound_to 11000
  140.9782  134.1441  157.4518 LP  0  0  0  0  0  0  0  0  0  0  0  0  # atno 17395 bound_to 11000

$$$$
