AV-unprocessed.smi:2287|AV-procd|sdf|9205|dock5
  -GOLD-   2272012423D 1   1.00000     0.00000
 Structure written by MMmdl.
 38 39  0  0  0  0  0  0  0  0  2 V2000
  146.4197  134.1669  152.9772 C   0  0  0  0  0  0  0  0  0  0  0  0
  146.4901  134.5095  151.5380 N   0  3  0  0  0  0  0  0  0  0  0  0
  146.4973  133.2958  150.6917 C   0  0  0  0  0  0  0  0  0  0  0  0
  145.4510  135.4806  151.1114 C   0  0  0  0  0  0  0  0  0  0  0  0
  145.3570  136.6948  152.0497 C   0  0  0  0  0  0  0  0  0  0  0  0
  146.6873  137.1637  152.4154 N   0  0  0  0  0  0  0  0  0  0  0  0
  146.9253  138.2568  153.1524 C   0  0  0  0  0  0  0  0  0  0  0  0
  146.0337  138.9884  153.5810 O   0  0  0  0  0  0  0  0  0  0  0  0
  148.2433  138.4432  153.3369 N   0  0  0  0  0  0  0  0  0  0  0  0
  148.8979  139.4361  154.1151 C   0  0  0  0  0  0  0  0  0  0  0  0
  148.2797  140.5879  154.6628 C   0  0  0  0  0  0  0  0  0  0  0  0
  148.9680  141.4719  155.4171 N   0  0  0  0  0  0  0  0  0  0  0  0
  150.2636  141.2182  155.6197 C   0  0  0  0  0  0  0  0  0  0  0  0
  151.0063  142.1754  156.4999 C   0  0  0  0  0  0  0  0  0  0  0  0
  151.6918  141.6966  157.7633 C   0  0  0  0  0  0  0  0  0  0  0  0
  150.4651  142.5603  157.8617 C   0  0  0  0  0  0  0  0  0  0  0  0
  150.9467  140.1617  155.1706 N   0  0  0  0  0  0  0  0  0  0  0  0
  150.2663  139.2719  154.4168 C   0  0  0  0  0  0  0  0  0  0  0  0
  145.4643  133.7009  153.2225 H   0  0  0  0  0  0  0  0  0  0  0  0
  146.5424  135.0482  153.6058 H   0  0  0  0  0  0  0  0  0  0  0  0
  147.2145  133.4693  153.2436 H   0  0  0  0  0  0  0  0  0  0  0  0
  145.5518  132.7580  150.7723 H   0  0  0  0  0  0  0  0  0  0  0  0
  147.3008  132.6212  150.9896 H   0  0  0  0  0  0  0  0  0  0  0  0
  146.6570  133.5541  149.6444 H   0  0  0  0  0  0  0  0  0  0  0  0
  145.6962  135.8437  150.1119 H   0  0  0  0  0  0  0  0  0  0  0  0
  144.4859  134.9775  151.0297 H   0  0  0  0  0  0  0  0  0  0  0  0
  144.8240  137.5191  151.5756 H   0  0  0  0  0  0  0  0  0  0  0  0
  144.8016  136.4243  152.9496 H   0  0  0  0  0  0  0  0  0  0  0  0
  147.4753  136.6201  152.0946 H   0  0  0  0  0  0  0  0  0  0  0  0
  148.8556  137.8018  152.8544 H   0  0  0  0  0  0  0  0  0  0  0  0
  147.2327  140.8105  154.5316 H   0  0  0  0  0  0  0  0  0  0  0  0
  151.5027  142.9465  155.9139 H   0  0  0  0  0  0  0  0  0  0  0  0
  151.5878  140.6472  158.0323 H   0  0  0  0  0  0  0  0  0  0  0  0
  152.6483  142.1498  158.0156 H   0  0  0  0  0  0  0  0  0  0  0  0
  150.5999  143.5918  158.1803 H   0  0  0  0  0  0  0  0  0  0  0  0
  149.5448  142.0853  158.1964 H   0  0  0  0  0  0  0  0  0  0  0  0
  150.8207  138.4182  154.0549 H   0  0  0  0  0  0  0  0  0  0  0  0
  147.3825  134.9586  151.3872 H   0  0  0  0  0  0  0  0  0  0  0  0
  1  2  1  0  0  0  0
  1 19  1  0  0  0  0
  1 20  1  0  0  0  0
  1 21  1  0  0  0  0
  2  3  1  0  0  0  0
  2  4  1  0  0  0  0
  2 38  1  0  0  0  0
  3 22  1  0  0  0  0
  3 23  1  0  0  0  0
  3 24  1  0  0  0  0
  4  5  1  0  0  0  0
  4 25  1  0  0  0  0
  4 26  1  0  0  0  0
  5  6  1  0  0  0  0
  5 27  1  0  0  0  0
  5 28  1  0  0  0  0
  6  7  1  0  0  0  0
  6 29  1  0  0  0  0
  7  8  2  0  0  0  0
  7  9  1  0  0  0  0
  9 10  1  0  0  0  0
  9 30  1  0  0  0  0
 10 18  1  0  0  0  0
 10 11  2  0  0  0  0
 11 12  1  0  0  0  0
 11 31  1  0  0  0  0
 12 13  2  0  0  0  0
 13 14  1  0  0  0  0
 13 17  1  0  0  0  0
 14 16  1  0  0  0  0
 14 15  1  0  0  0  0
 14 32  1  0  0  0  0
 15 16  1  0  0  0  0
 15 33  1  0  0  0  0
 15 34  1  0  0  0  0
 16 35  1  0  0  0  0
 16 36  1  0  0  0  0
 17 18  2  0  0  0  0
 18 37  1  0  0  0  0
M  CHG  1   2   1
M  END
> <s_m_source_file>
AV-unprocessed.smi

> <i_m_source_file_index>
2287

> <i_lp_mmshare_version>
43012

> <i_f3d_flags>
0

> <s_epik_input>
W0NIM11OKFtDSDNdKVtDSDJdW0NIMl1bTkhdQyg9TylbTkhdYzFbY0hdbmMobltjSF0xKVtDSF0yW0NIMl1bQ0gyXTI=

> <s_epik_cmdline>
J2VwaWtfcHl0aG9uJywgJy1waCcsICc3LjAnLCAnLXRuJywgJzgnLCAnLW1hJywgJzIwMCcsICctbWV0YWxfYmluZGluZycsICctaW1hZScsICc8aW5maWxlLm1hZT4nLCAnLW9tYWUnLCAnPG91dGZpbGUubWFlPic=

> <r_lp_tautomer_probability>
1

> <r_epik_Ionization_Penalty>
0.00435795

> <r_epik_Ionization_Penalty_Charging>
0.00433655

> <r_epik_Ionization_Penalty_Neutral>
2.14019e-05

> <r_epik_State_Penalty>
0.00312208

> <r_epik_Charging_Adjusted_Penalty>
0.00745864

> <i_epik_Tot_Q>
1

> <i_epik_Tot_abs_Q>
1

> <r_epik_Metal_State_Penalty>
-0

> <b_epik_Metal_Only>
0

> <s_lp_Force_Field>
OPLS_2005

> <r_lp_Energy>
7.96618

> <b_lp_Chiralities_Consistent>
1

> <s_lp_Variant>
AV-unprocessed.smi:2287-1

> <Gold.Version>
5.8.1

> <Gold.Id.Protein>
6NUR|6NUR_protein|mol2

> <Gold.PLP.Fitness>
43.3242

> <Gold.PLP.PLP>
-30.8127

> <Gold.PLP.part.hbond>
-4.8769

> <Gold.PLP.part.metal>
0.0000

> <Gold.PLP.part.buried>
-3.6192

> <Gold.PLP.part.nonpolar>
-23.6400

> <Gold.PLP.part.repulsive>
1.5180

> <Gold.PLP.ligand.clash>
0.0000

> <Gold.PLP.ligand.torsion>
0.2351

> <Gold.PLP.Chemscore.Hbond>
4.2693

> <Gold.PLP.Chemscore.CHOScore>
0.0000

> <Gold.PLP.Chemscore.Metal>
0.0000

> <Gold.Chemscore.Hbonds>
donor molecule, donor type, donor heavy atom, donor atom, acceptor molecule, acceptor atom, score
      L1  H     2    38       P1  7948  2.00
      L1  H     6    29       P1  7948  0.99
      L1  H     9    30       P1  7948  0.93
      P1  H  7989  7998       L1    17  0.35

> <Gold.PLP.Chemscore.Internal.Correction>
0.1739

> <Gold.Rescore>
     Score         DG    S(hbond)    S(metal)    S(lipo)     H(rot)  DE(clash)    DE(int)     intcor
     16.36     -18.34       2.84        0.00      66.66       1.73       0.63       1.35       ----

> <Gold.Chemscore.Fitness>
16.3589

> <Gold.Chemscore.DG>
-18.3416

> <Gold.Chemscore.ZeroCoef>
-5.4800

> <Gold.Chemscore.Hbond>
2.8388

> <Gold.Chemscore.Metal>
0.0000

> <Gold.Chemscore.Lipo>
66.6554

> <Gold.Chemscore.Internal_Hbond>
0.0000

> <Gold.Chemscore.DEClash>
0.6302

> <Gold.Chemscore.DEInternal>
1.3525

> <Gold.Chemscore.Rot>
1.7260

> <Gold.Chemscore.Internal.Correction>
   9.000000E+99

> <Gold.Chemscore.Hbonds>
donor molecule, donor type, donor heavy atom, donor atom, acceptor molecule, acceptor atom, score
      L1  H     2    38       P1  7948  0.52
      L1  H     6    29       P1  7948  0.92
      L1  H     9    30       P1  7948  0.91

> <Gold.Chemscore.Hbond.Weighted>
-9.4816

> <Gold.Chemscore.Metal.Weighted>
-0.0000

> <Gold.Chemscore.Lipo.Weighted>
-7.7987

> <Gold.Chemscore.Internal_Hbond.Weighted>
0.0000

> <Gold.Chemscore.DEClash.Weighted>
0.6302

> <Gold.Chemscore.DEInternal.Weighted>
1.3525

> <Gold.Chemscore.Rot.Weighted>
4.4186

> <Gold.Chemscore.Internal.Correction.Weighted>
   9.000000E+99

> <Gold.Protein.RotatedTorsions>
[ 6907 6896 6895 6894 ] final  130.85 input  -60.11 | X-H torsion
[ 7974 7965 7964 7962 ] final -139.42 input  175.53 | X-H torsion
[ 8008 7997 7996 7995 ] final  -38.24 input   59.86 | X-H torsion
[ 10167 10162 10161 10158 ] final   47.43 input  -65.29 | X-H torsion
[ 10718 10713 10712 10709 ] final  148.39 input   66.30 | X-H torsion
[ 10763 10752 10751 10750 ] final   81.70 input  -60.55 | X-H torsion
[ 11005 11000 10999 10996 ] final   92.97 input  -57.11 | X-H torsion

> <Gold.Protein.ActiveResidues>
 VAL166  LYS551  ARG553  GLY616  TRP617  ASP618  TYR619  PRO620  LYS621  CYS622 
 ASP623  PHE694  ASN695  SER759  ASP760  ASP761  ALA762  ILE779  LEU786  VAL792 
 PHE793  MET794  SER795  GLU796  ALA797  LYS798  CYS799  TRP800  GLU811  SER814 

> <Gold.Protein.RotatedAtoms>
  152.3485  133.6151  159.5927 H   0  0  0  0  0  0  0  0  0  0  0  0  # atno 6907 bound_to 6896
  150.7522  133.9612  159.3525 H   0  0  0  0  0  0  0  0  0  0  0  0  # atno 6908 bound_to 6896
  151.7467  135.0843  160.0375 H   0  0  0  0  0  0  0  0  0  0  0  0  # atno 6909 bound_to 6896
  144.8679  140.6321  143.5286 H   0  0  0  0  0  0  0  0  0  0  0  0  # atno 7974 bound_to 7965
  154.4040  140.1583  156.2668 H   0  0  0  0  0  0  0  0  0  0  0  0  # atno 8008 bound_to 7997
  155.8988  140.3434  155.5989 H   0  0  0  0  0  0  0  0  0  0  0  0  # atno 8009 bound_to 7997
  155.7472  140.0800  157.2209 H   0  0  0  0  0  0  0  0  0  0  0  0  # atno 8010 bound_to 7997
  140.3037  144.2904  150.6214 H   0  0  0  0  0  0  0  0  0  0  0  0  # atno 10167 bound_to 10162
  157.3092  131.0885  151.1330 H   0  0  0  0  0  0  0  0  0  0  0  0  # atno 10718 bound_to 10713
  153.1139  135.4756  154.9082 H   0  0  0  0  0  0  0  0  0  0  0  0  # atno 10763 bound_to 10752
  154.7508  135.3105  154.8563 H   0  0  0  0  0  0  0  0  0  0  0  0  # atno 10764 bound_to 10752
  153.9144  135.6861  153.4803 H   0  0  0  0  0  0  0  0  0  0  0  0  # atno 10765 bound_to 10752
  139.8816  134.8763  156.3650 H   0  0  0  0  0  0  0  0  0  0  0  0  # atno 11005 bound_to 11000
  145.4187  139.1567  143.4086 LP  0  0  0  0  0  0  0  0  0  0  0  0  # atno 17320 bound_to 7965
  146.2909  140.4296  142.8740 LP  0  0  0  0  0  0  0  0  0  0  0  0  # atno 17321 bound_to 7965
  140.5629  143.2190  151.7734 LP  0  0  0  0  0  0  0  0  0  0  0  0  # atno 17342 bound_to 10162
  139.4909  144.4324  151.9857 LP  0  0  0  0  0  0  0  0  0  0  0  0  # atno 17343 bound_to 10162
  157.2658  130.6681  149.5996 LP  0  0  0  0  0  0  0  0  0  0  0  0  # atno 17370 bound_to 10713
  155.9676  130.4494  150.5658 LP  0  0  0  0  0  0  0  0  0  0  0  0  # atno 17371 bound_to 10713
  140.9503  133.7455  156.0264 LP  0  0  0  0  0  0  0  0  0  0  0  0  # atno 17394 bound_to 11000
  140.8113  134.3396  157.5411 LP  0  0  0  0  0  0  0  0  0  0  0  0  # atno 17395 bound_to 11000

$$$$
