AV-unprocessed.smi:372|AV-procd|sdf|2445|dock3
  -GOLD-   2262022383D 1   1.00000     0.00000
 Structure written by MMmdl.
 22 23  0  0  0  0  0  0  0  0  2 V2000
  150.1509  139.1969  157.9376 C   0  0  0  0  0  0  0  0  0  0  0  0
  151.4878  139.7057  157.3611 C   0  0  1  0  0  0  0  0  0  0  0  0
  152.3126  140.4638  158.4190 C   0  0  0  0  0  0  0  0  0  0  0  0
  151.8307  141.6409  159.0454 C   0  0  0  0  0  0  0  0  0  0  0  0
  152.6388  142.2844  160.0022 C   0  0  0  0  0  0  0  0  0  0  0  0
  153.9006  141.7407  160.3042 C   0  0  0  0  0  0  0  0  0  0  0  0
  154.3000  140.5717  159.6300 C   0  0  0  0  0  0  0  0  0  0  0  0
  153.5334  139.9495  158.7104 N   0  0  0  0  0  0  0  0  0  0  0  0
  152.2034  138.5854  156.7800 N   0  0  0  0  0  0  0  0  0  0  0  0
  152.4220  138.7587  155.4785 C   0  0  0  0  0  0  0  0  0  0  0  0
  153.0399  137.9319  154.8117 O   0  0  0  0  0  0  0  0  0  0  0  0
  151.8763  139.9184  155.0674 N   0  5  0  0  0  0  0  0  0  0  0  0
  151.2733  140.5556  156.0951 C   0  0  0  0  0  0  0  0  0  0  0  0
  150.6311  141.6059  156.0980 O   0  0  0  0  0  0  0  0  0  0  0  0
  149.5404  140.0165  158.3181 H   0  0  0  0  0  0  0  0  0  0  0  0
  150.3196  138.5028  158.7614 H   0  0  0  0  0  0  0  0  0  0  0  0
  149.5603  138.6751  157.1831 H   0  0  0  0  0  0  0  0  0  0  0  0
  150.8616  142.0553  158.8122 H   0  0  0  0  0  0  0  0  0  0  0  0
  152.2951  143.1812  160.4961 H   0  0  0  0  0  0  0  0  0  0  0  0
  154.5459  142.2072  161.0335 H   0  0  0  0  0  0  0  0  0  0  0  0
  155.2620  140.1248  159.8333 H   0  0  0  0  0  0  0  0  0  0  0  0
  152.5208  137.7922  157.3168 H   0  0  0  0  0  0  0  0  0  0  0  0
  1  2  1  0  0  0  0
  1 15  1  0  0  0  0
  1 16  1  0  0  0  0
  1 17  1  0  0  0  0
  2 13  1  0  0  0  0
  2  3  1  0  0  0  0
  2  9  1  0  0  0  0
  3  8  1  0  0  0  0
  3  4  2  0  0  0  0
  4  5  1  0  0  0  0
  4 18  1  0  0  0  0
  5  6  2  0  0  0  0
  5 19  1  0  0  0  0
  6  7  1  0  0  0  0
  6 20  1  0  0  0  0
  7  8  2  0  0  0  0
  7 21  1  0  0  0  0
  9 10  1  0  0  0  0
  9 22  1  0  0  0  0
 10 11  2  0  0  0  0
 10 12  1  0  0  0  0
 12 13  1  0  0  0  0
 13 14  2  0  0  0  0
M  CHG  1  12  -1
M  END
> <s_m_source_file>
AV-unprocessed.smi

> <i_m_source_file_index>
372

> <i_lp_mmshare_version>
43012

> <i_f3d_flags>
0

> <s_epik_input>
Tz1DMVtOSF1DKD1PKVtOSF1bQ0BAXTEoW0NIM10pYzJbY0hdW2NIXVtjSF1bY0hdbjI=

> <s_epik_cmdline>
J2VwaWtfcHl0aG9uJywgJy1waCcsICc3LjAnLCAnLXRuJywgJzgnLCAnLW1hJywgJzIwMCcsICctbWV0YWxfYmluZGluZycsICctaW1hZScsICc8aW5maWxlLm1hZT4nLCAnLW9tYWUnLCAnPG91dGZpbGUubWFlPic=

> <r_epik_Ionization_Penalty>
1.82492

> <r_epik_Ionization_Penalty_Charging>
1.82122

> <r_epik_Ionization_Penalty_Neutral>
0.00370144

> <r_epik_State_Penalty>
1.71448

> <r_epik_Charging_Adjusted_Penalty>
3.5357

> <i_epik_Tot_Q>
-1

> <i_epik_Tot_abs_Q>
1

> <r_epik_Metal_State_Penalty>
0.405927

> <b_epik_Metal_Only>
0

> <s_lp_Force_Field>
OPLS_2005

> <r_lp_Energy>
9.53623

> <b_lp_Chiralities_Consistent>
1

> <s_lp_Variant>
AV-unprocessed.smi:372-3

> <Gold.Version>
5.8.1

> <Gold.Id.Protein>
6NUR|6NUR_protein|mol2

> <Gold.PLP.Fitness>
33.1358

> <Gold.PLP.PLP>
-27.2559

> <Gold.PLP.part.hbond>
-2.7926

> <Gold.PLP.part.metal>
0.0000

> <Gold.PLP.part.buried>
-4.1711

> <Gold.PLP.part.nonpolar>
-20.0157

> <Gold.PLP.part.repulsive>
0.2758

> <Gold.PLP.ligand.clash>
0.0000

> <Gold.PLP.ligand.torsion>
0.0408

> <Gold.PLP.Chemscore.Hbond>
1.9600

> <Gold.PLP.Chemscore.CHOScore>
0.0000

> <Gold.PLP.Chemscore.Metal>
0.0000

> <Gold.Chemscore.Hbonds>
donor molecule, donor type, donor heavy atom, donor atom, acceptor molecule, acceptor atom, score
      P1  H  7989  7998       L1    12  0.93
      P1  H  7997  8009       L1     8  1.00
      P1  H 10752 10763       L1    11  0.02

> <Gold.PLP.Chemscore.Internal.Correction>
0.0815

> <Gold.Rescore>
     Score         DG    S(hbond)    S(metal)    S(lipo)     H(rot)  DE(clash)    DE(int)     intcor
     13.85     -13.93       1.52        0.00      50.69       1.00       0.02       0.06       ----

> <Gold.Chemscore.Fitness>
13.8462

> <Gold.Chemscore.DG>
-13.9255

> <Gold.Chemscore.ZeroCoef>
-5.4800

> <Gold.Chemscore.Hbond>
1.5193

> <Gold.Chemscore.Metal>
0.0000

> <Gold.Chemscore.Lipo>
50.6928

> <Gold.Chemscore.Internal_Hbond>
0.0000

> <Gold.Chemscore.DEClash>
0.0162

> <Gold.Chemscore.DEInternal>
0.0632

> <Gold.Chemscore.Rot>
1.0000

> <Gold.Chemscore.Internal.Correction>
   9.000000E+99

> <Gold.Chemscore.Hbonds>
donor molecule, donor type, donor heavy atom, donor atom, acceptor molecule, acceptor atom, score
      P1  H  7989  7998       L1    12  0.70
      P1  H  7997  8009       L1     8  0.22
      P1  H 10752 10763       L1    11  0.02

> <Gold.Chemscore.Hbond.Weighted>
-5.0745

> <Gold.Chemscore.Metal.Weighted>
-0.0000

> <Gold.Chemscore.Lipo.Weighted>
-5.9311

> <Gold.Chemscore.Internal_Hbond.Weighted>
0.0000

> <Gold.Chemscore.DEClash.Weighted>
0.0162

> <Gold.Chemscore.DEInternal.Weighted>
0.0632

> <Gold.Chemscore.Rot.Weighted>
2.5600

> <Gold.Chemscore.Internal.Correction.Weighted>
   9.000000E+99

> <Gold.Protein.RotatedTorsions>
[ 6907 6896 6895 6894 ] final  119.95 input  -60.11 | X-H torsion
[ 7974 7965 7964 7962 ] final  129.26 input  175.53 | X-H torsion
[ 8008 7997 7996 7995 ] final  153.28 input   59.86 | X-H torsion
[ 10167 10162 10161 10158 ] final  173.07 input  -65.29 | X-H torsion
[ 10718 10713 10712 10709 ] final  -53.75 input   66.30 | X-H torsion
[ 10763 10752 10751 10750 ] final   11.71 input  -60.55 | X-H torsion
[ 11005 11000 10999 10996 ] final -172.43 input  -57.11 | X-H torsion

> <Gold.Protein.ActiveResidues>
 VAL166  LYS551  ARG553  GLY616  TRP617  ASP618  TYR619  PRO620  LYS621  CYS622 
 ASP623  PHE694  ASN695  SER759  ASP760  ASP761  ALA762  ILE779  LEU786  VAL792 
 PHE793  MET794  SER795  GLU796  ALA797  LYS798  CYS799  TRP800  GLU811  SER814 

> <Gold.Protein.RotatedAtoms>
  152.4434  133.7490  159.6683 H   0  0  0  0  0  0  0  0  0  0  0  0  # atno 6907 bound_to 6896
  150.8329  133.8051  159.3097 H   0  0  0  0  0  0  0  0  0  0  0  0  # atno 6908 bound_to 6896
  151.5700  135.1065  160.0044 H   0  0  0  0  0  0  0  0  0  0  0  0  # atno 6909 bound_to 6896
  145.0305  139.4050  143.5152 H   0  0  0  0  0  0  0  0  0  0  0  0  # atno 7974 bound_to 7965
  156.2589  140.1998  156.6466 H   0  0  0  0  0  0  0  0  0  0  0  0  # atno 8008 bound_to 7997
  154.6568  140.0565  157.0043 H   0  0  0  0  0  0  0  0  0  0  0  0  # atno 8009 bound_to 7997
  155.1335  140.3236  155.4471 H   0  0  0  0  0  0  0  0  0  0  0  0  # atno 8010 bound_to 7997
  139.5096  144.3303  152.0118 H   0  0  0  0  0  0  0  0  0  0  0  0  # atno 10167 bound_to 10162
  156.1508  130.4151  149.9948 H   0  0  0  0  0  0  0  0  0  0  0  0  # atno 10718 bound_to 10713
  153.1898  135.6840  153.8368 H   0  0  0  0  0  0  0  0  0  0  0  0  # atno 10763 bound_to 10752
  153.7671  135.3201  155.3347 H   0  0  0  0  0  0  0  0  0  0  0  0  # atno 10764 bound_to 10752
  154.8110  135.4717  154.0615 H   0  0  0  0  0  0  0  0  0  0  0  0  # atno 10765 bound_to 10752
  140.4970  134.5930  157.4975 H   0  0  0  0  0  0  0  0  0  0  0  0  # atno 11005 bound_to 11000
  146.3498  139.9853  142.8691 LP  0  0  0  0  0  0  0  0  0  0  0  0  # atno 17320 bound_to 7965
  145.1776  140.9751  143.4285 LP  0  0  0  0  0  0  0  0  0  0  0  0  # atno 17321 bound_to 7965
  140.2742  144.3930  150.6140 LP  0  0  0  0  0  0  0  0  0  0  0  0  # atno 17342 bound_to 10162
  140.6066  143.2168  151.6969 LP  0  0  0  0  0  0  0  0  0  0  0  0  # atno 17343 bound_to 10162
  156.7806  130.9220  151.3646 LP  0  0  0  0  0  0  0  0  0  0  0  0  # atno 17370 bound_to 10713
  157.6655  130.9004  149.9923 LP  0  0  0  0  0  0  0  0  0  0  0  0  # atno 17371 bound_to 10713
  139.9735  134.7253  155.9995 LP  0  0  0  0  0  0  0  0  0  0  0  0  # atno 17394 bound_to 11000
  141.1455  133.6557  156.3854 LP  0  0  0  0  0  0  0  0  0  0  0  0  # atno 17395 bound_to 11000

$$$$
