AV-unprocessed.smi:1512|AV-procd|sdf|6105|dock9
  -GOLD-   22720 6233D 1   1.00000     0.00000
 Structure written by MMmdl.
 44 46  0  0  0  0  0  0  0  0  3 V2000
  148.0708  132.2311  153.1439 C   0  0  0  0  0  0  0  0  0  0  0  0
  146.9510  133.2595  152.9141 C   0  0  1  0  0  0  0  0  0  0  0  0
  147.3999  134.5856  153.3235 N   0  0  0  0  0  0  0  0  0  0  0  0
  146.8150  135.3767  154.2388 C   0  0  0  0  0  0  0  0  0  0  0  0
  145.8653  135.0119  154.9303 O   0  0  0  0  0  0  0  0  0  0  0  0
  147.3520  136.8109  154.3940 C   0  0  0  0  0  0  0  0  0  0  0  0
  148.7715  136.8950  154.7899 N   0  0  0  0  0  0  0  0  0  0  0  0
  149.3639  135.7212  155.2921 C   0  0  0  0  0  0  0  0  0  0  0  0
  150.6541  135.6774  155.6534 C   0  0  0  0  0  0  0  0  0  0  0  0
  151.4468  136.8733  155.5026 C   0  0  0  0  0  0  0  0  0  0  0  0
  150.8997  138.0131  155.0216 C   0  0  0  0  0  0  0  0  0  0  0  0
  151.7550  139.1664  154.8677 N   0  3  0  0  0  0  0  0  0  0  0  0
  151.2666  140.2136  154.4538 O   0  0  0  0  0  0  0  0  0  0  0  0
  152.9461  139.0530  155.1404 O   0  5  0  0  0  0  0  0  0  0  0  0
  149.4705  138.0655  154.6527 C   0  0  0  0  0  0  0  0  0  0  0  0
  148.9248  139.0898  154.2382 O   0  0  0  0  0  0  0  0  0  0  0  0
  146.5053  133.3256  151.4342 C   0  0  2  0  0  0  0  0  0  0  0  0
  145.3531  134.3155  151.1400 C   0  0  0  0  0  0  0  0  0  0  0  0
  144.3764  133.4692  150.3035 C   0  0  2  0  0  0  0  0  0  0  0  0
  143.6560  132.4743  151.2312 C   0  0  0  0  0  0  0  0  0  0  0  0
  144.7603  131.4497  151.5495 C   0  0  0  0  0  0  0  0  0  0  0  0
  145.9823  132.0150  150.7957 C   0  0  1  0  0  0  0  0  0  0  0  0
  145.3199  132.5534  149.5311 C   0  0  0  0  0  0  0  0  0  0  0  0
  147.7418  131.2248  152.8843 H   0  0  0  0  0  0  0  0  0  0  0  0
  148.3802  132.2105  154.1893 H   0  0  0  0  0  0  0  0  0  0  0  0
  148.9500  132.4605  152.5411 H   0  0  0  0  0  0  0  0  0  0  0  0
  146.0955  132.9905  153.5338 H   0  0  0  0  0  0  0  0  0  0  0  0
  148.1840  134.9662  152.8139 H   0  0  0  0  0  0  0  0  0  0  0  0
  147.1973  137.3432  153.4538 H   0  0  0  0  0  0  0  0  0  0  0  0
  146.7201  137.3284  155.1167 H   0  0  0  0  0  0  0  0  0  0  0  0
  148.7082  134.8654  155.3618 H   0  0  0  0  0  0  0  0  0  0  0  0
  151.0916  134.7670  156.0365 H   0  0  0  0  0  0  0  0  0  0  0  0
  152.4951  136.8393  155.7622 H   0  0  0  0  0  0  0  0  0  0  0  0
  147.3696  133.6465  150.8493 H   0  0  0  0  0  0  0  0  0  0  0  0
  144.8770  134.7021  152.0422 H   0  0  0  0  0  0  0  0  0  0  0  0
  145.7203  135.1710  150.5714 H   0  0  0  0  0  0  0  0  0  0  0  0
  143.6995  134.0628  149.6886 H   0  0  0  0  0  0  0  0  0  0  0  0
  143.2629  132.9545  152.1281 H   0  0  0  0  0  0  0  0  0  0  0  0
  142.8231  131.9936  150.7169 H   0  0  0  0  0  0  0  0  0  0  0  0
  144.9258  131.3222  152.6183 H   0  0  0  0  0  0  0  0  0  0  0  0
  144.4899  130.4715  151.1499 H   0  0  0  0  0  0  0  0  0  0  0  0
  146.7623  131.2753  150.6137 H   0  0  0  0  0  0  0  0  0  0  0  0
  144.8020  131.7864  148.9524 H   0  0  0  0  0  0  0  0  0  0  0  0
  146.0059  133.0925  148.8749 H   0  0  0  0  0  0  0  0  0  0  0  0
  1  2  1  0  0  0  0
  1 24  1  0  0  0  0
  1 25  1  0  0  0  0
  1 26  1  0  0  0  0
  2  3  1  0  0  0  0
  2 17  1  0  0  0  0
  2 27  1  0  0  0  0
  3  4  1  0  0  0  0
  3 28  1  0  0  0  0
  4  5  2  0  0  0  0
  4  6  1  0  0  0  0
  6  7  1  0  0  0  0
  6 29  1  0  0  0  0
  6 30  1  0  0  0  0
  7 15  1  0  0  0  0
  7  8  1  0  0  0  0
  8  9  2  0  0  0  0
  8 31  1  0  0  0  0
  9 10  1  0  0  0  0
  9 32  1  0  0  0  0
 10 11  2  0  0  0  0
 10 33  1  0  0  0  0
 11 12  1  0  0  0  0
 11 15  1  0  0  0  0
 12 13  2  0  0  0  0
 12 14  1  0  0  0  0
 15 16  2  0  0  0  0
 17 22  1  0  0  0  0
 17 18  1  0  0  0  0
 17 34  1  0  0  0  0
 18 19  1  0  0  0  0
 18 35  1  0  0  0  0
 18 36  1  0  0  0  0
 19 23  1  0  0  0  0
 19 20  1  0  0  0  0
 19 37  1  0  0  0  0
 20 21  1  0  0  0  0
 20 38  1  0  0  0  0
 20 39  1  0  0  0  0
 21 22  1  0  0  0  0
 21 40  1  0  0  0  0
 21 41  1  0  0  0  0
 22 23  1  0  0  0  0
 22 42  1  0  0  0  0
 23 43  1  0  0  0  0
 23 44  1  0  0  0  0
M  CHG  1  12   1
M  CHG  1  14  -1
M  END
> <s_m_source_file>
AV-unprocessed.smi

> <i_m_source_file_index>
1512

> <i_lp_mmshare_version>
43012

> <i_f3d_flags>
0

> <s_epik_input>
W0NIMl0xW0NIMl1bQ0BIXShbQ0gyXTIpW0NAQEhdKFtDSDJdW0NAQEhdMTIpW0NASF0oW0NIM10pW05IXUMoPU8pW0NIMl1uM1tjSF1bY0hdW2NIXWMoW04rXSg9TylbTy1dKWMzPU8=

> <s_epik_cmdline>
J2VwaWtfcHl0aG9uJywgJy1waCcsICc3LjAnLCAnLXRuJywgJzgnLCAnLW1hJywgJzIwMCcsICctbWV0YWxfYmluZGluZycsICctaW1hZScsICc8aW5maWxlLm1hZT4nLCAnLW9tYWUnLCAnPG91dGZpbGUubWFlPic=

> <r_lp_tautomer_probability>
1

> <r_epik_Ionization_Penalty>
2.17697e-08

> <r_epik_Ionization_Penalty_Charging>
1.42735e-10

> <r_epik_Ionization_Penalty_Neutral>
2.16269e-08

> <r_epik_State_Penalty>
-0

> <r_epik_Charging_Adjusted_Penalty>
1.42735e-10

> <i_epik_Tot_Q>
0

> <i_epik_Tot_abs_Q>
2

> <r_epik_Metal_State_Penalty>
-0

> <b_epik_Metal_Only>
0

> <s_lp_Force_Field>
OPLS_2005

> <r_lp_Energy>
64.4109

> <b_lp_Chiralities_Consistent>
1

> <s_lp_Variant>
AV-unprocessed.smi:1512-6

> <Gold.Version>
5.8.1

> <Gold.Id.Protein>
6NUR|6NUR_protein|mol2

> <Gold.PLP.Fitness>
44.0012

> <Gold.PLP.PLP>
-35.4587

> <Gold.PLP.part.hbond>
-2.9180

> <Gold.PLP.part.metal>
0.0000

> <Gold.PLP.part.buried>
-4.4987

> <Gold.PLP.part.nonpolar>
-28.7458

> <Gold.PLP.part.repulsive>
0.2511

> <Gold.PLP.ligand.clash>
0.0000

> <Gold.PLP.ligand.torsion>
0.2238

> <Gold.PLP.Chemscore.Hbond>
2.9913

> <Gold.PLP.Chemscore.CHOScore>
0.0000

> <Gold.PLP.Chemscore.Metal>
0.0000

> <Gold.Chemscore.Hbonds>
donor molecule, donor type, donor heavy atom, donor atom, acceptor molecule, acceptor atom, score
      L1  H     3    28       P1  7948  1.00
      P1  H  7989  7998       L1    13  0.21
      P1  H  7997  8008       L1    14  0.99

> <Gold.PLP.Chemscore.Internal.Correction>
0.0162

> <Gold.Rescore>
     Score         DG    S(hbond)    S(metal)    S(lipo)     H(rot)  DE(clash)    DE(int)     intcor
     16.44     -20.74       2.89        0.00      86.14       1.75       1.45       2.85       ----

> <Gold.Chemscore.Fitness>
16.4447

> <Gold.Chemscore.DG>
-20.7448

> <Gold.Chemscore.ZeroCoef>
-5.4800

> <Gold.Chemscore.Hbond>
2.8921

> <Gold.Chemscore.Metal>
0.0000

> <Gold.Chemscore.Lipo>
86.1410

> <Gold.Chemscore.Internal_Hbond>
0.0000

> <Gold.Chemscore.DEClash>
1.4478

> <Gold.Chemscore.DEInternal>
2.8523

> <Gold.Chemscore.Rot>
1.7474

> <Gold.Chemscore.Internal.Correction>
   9.000000E+99

> <Gold.Chemscore.Hbonds>
donor molecule, donor type, donor heavy atom, donor atom, acceptor molecule, acceptor atom, score
      L1  H     3    28       P1  7948  0.83
      P1  H  7989  7998       L1    13  0.21
      P1  H  7997  8008       L1    14  0.92

> <Gold.Chemscore.Hbond.Weighted>
-9.6596

> <Gold.Chemscore.Metal.Weighted>
-0.0000

> <Gold.Chemscore.Lipo.Weighted>
-10.0785

> <Gold.Chemscore.Internal_Hbond.Weighted>
0.0000

> <Gold.Chemscore.DEClash.Weighted>
1.4478

> <Gold.Chemscore.DEInternal.Weighted>
2.8523

> <Gold.Chemscore.Rot.Weighted>
4.4733

> <Gold.Chemscore.Internal.Correction.Weighted>
   9.000000E+99

> <Gold.Protein.RotatedTorsions>
[ 6907 6896 6895 6894 ] final  -86.15 input  -60.11 | X-H torsion
[ 7974 7965 7964 7962 ] final  180.00 input  175.53 | X-H torsion
[ 8008 7997 7996 7995 ] final  -29.03 input   59.86 | X-H torsion
[ 10167 10162 10161 10158 ] final   35.25 input  -65.29 | X-H torsion
[ 10718 10713 10712 10709 ] final  -27.79 input   66.30 | X-H torsion
[ 10763 10752 10751 10750 ] final  -63.38 input  -60.55 | X-H torsion
[ 11005 11000 10999 10996 ] final  152.97 input  -57.11 | X-H torsion

> <Gold.Protein.ActiveResidues>
 VAL166  LYS551  ARG553  GLY616  TRP617  ASP618  TYR619  PRO620  LYS621  CYS622 
 ASP623  PHE694  ASN695  SER759  ASP760  ASP761  ALA762  ILE779  LEU786  VAL792 
 PHE793  MET794  SER795  GLU796  ALA797  LYS798  CYS799  TRP800  GLU811  SER814 

> <Gold.Protein.RotatedAtoms>
  150.6868  134.3095  159.4740 H   0  0  0  0  0  0  0  0  0  0  0  0  # atno 6907 bound_to 6896
  152.0983  134.9357  160.0579 H   0  0  0  0  0  0  0  0  0  0  0  0  # atno 6908 bound_to 6896
  152.0646  133.4043  159.4469 H   0  0  0  0  0  0  0  0  0  0  0  0  # atno 6909 bound_to 6896
  144.7141  140.0632  143.6432 H   0  0  0  0  0  0  0  0  0  0  0  0  # atno 7974 bound_to 7965
  154.4307  140.1829  156.1184 H   0  0  0  0  0  0  0  0  0  0  0  0  # atno 8008 bound_to 7997
  156.0163  140.3345  155.6966 H   0  0  0  0  0  0  0  0  0  0  0  0  # atno 8009 bound_to 7997
  155.6040  140.0643  157.2715 H   0  0  0  0  0  0  0  0  0  0  0  0  # atno 8010 bound_to 7997
  140.4239  144.1420  150.6151 H   0  0  0  0  0  0  0  0  0  0  0  0  # atno 10167 bound_to 10162
  156.4336  130.4450  149.7100 H   0  0  0  0  0  0  0  0  0  0  0  0  # atno 10718 bound_to 10713
  154.3142  135.6209  153.5479 H   0  0  0  0  0  0  0  0  0  0  0  0  # atno 10763 bound_to 10752
  152.9826  135.5708  154.5143 H   0  0  0  0  0  0  0  0  0  0  0  0  # atno 10764 bound_to 10752
  154.4798  135.2862  155.1555 H   0  0  0  0  0  0  0  0  0  0  0  0  # atno 10765 bound_to 10752
  140.1356  134.8773  157.2262 H   0  0  0  0  0  0  0  0  0  0  0  0  # atno 11005 bound_to 11000
  145.9846  139.2967  143.1021 LP  0  0  0  0  0  0  0  0  0  0  0  0  # atno 17320 bound_to 7965
  145.8972  140.9266  143.0522 LP  0  0  0  0  0  0  0  0  0  0  0  0  # atno 17321 bound_to 7965
  140.4503  143.2490  151.9357 LP  0  0  0  0  0  0  0  0  0  0  0  0  # atno 17342 bound_to 10162
  139.4783  144.5569  151.8300 LP  0  0  0  0  0  0  0  0  0  0  0  0  # atno 17343 bound_to 10162
  156.3993  130.7667  151.2673 LP  0  0  0  0  0  0  0  0  0  0  0  0  # atno 17370 bound_to 10713
  157.7508  131.0244  150.3876 LP  0  0  0  0  0  0  0  0  0  0  0  0  # atno 17371 bound_to 10713
  140.2787  134.3375  155.7350 LP  0  0  0  0  0  0  0  0  0  0  0  0  # atno 17394 bound_to 11000
  141.2177  133.7465  156.9331 LP  0  0  0  0  0  0  0  0  0  0  0  0  # atno 17395 bound_to 11000

$$$$
