AV-unprocessed.smi:287|AV-procd|sdf|2178|dock9
  -GOLD-   2262021543D 1   1.00000     0.00000
 Structure written by MMmdl.
 55 58  0  0  0  0  0  0  0  0  1 V2000
  151.2020  144.8313  160.6057 C   0  0  0  0  0  0  0  0  0  0  0  0
  151.4770  143.5468  159.9019 C   0  0  0  0  0  0  0  0  0  0  0  0
  150.8862  142.8969  158.8578 C   0  0  0  0  0  0  0  0  0  0  0  0
  151.6209  141.6943  158.6331 C   0  0  0  0  0  0  0  0  0  0  0  0
  151.3245  140.6485  157.5668 C   0  0  2  0  0  0  0  0  0  0  0  0
  150.1657  139.7500  158.0291 C   0  0  0  0  0  0  0  0  0  0  0  0
  152.4126  139.7734  157.3401 O   0  0  0  0  0  0  0  0  0  0  0  0
  150.9941  141.2789  156.1942 C   0  0  0  0  0  0  0  0  0  0  0  0
  149.7305  142.0096  156.1947 N   0  0  0  0  0  0  0  0  0  0  0  0
  148.6717  141.5379  155.5041 C   0  0  0  0  0  0  0  0  0  0  0  0
  148.7290  141.3773  154.1559 N   0  0  0  0  0  0  0  0  0  0  0  0
  147.6676  140.9053  153.4939 C   0  0  0  0  0  0  0  0  0  0  0  0
  146.4760  140.5427  153.9754 N   0  0  0  0  0  0  0  0  0  0  0  0
  146.4163  140.7065  155.3286 C   0  0  0  0  0  0  0  0  0  0  0  0
  147.4628  141.1913  156.1602 C   0  0  0  0  0  0  0  0  0  0  0  0
  147.0401  141.2129  157.4831 N   0  0  0  0  0  0  0  0  0  0  0  0
  145.8131  140.7675  157.4302 C   0  0  0  0  0  0  0  0  0  0  0  0
  145.3584  140.4427  156.1696 N   0  0  0  0  0  0  0  0  0  0  0  0
  144.0270  139.9083  155.7539 C   0  0  2  0  0  0  0  0  0  0  0  0
  143.2621  139.7268  156.9101 O   0  0  0  0  0  0  0  0  0  0  0  0
  142.8683  138.3628  157.0532 C   0  0  2  0  0  0  0  0  0  0  0  0
  142.8156  137.9875  158.5421 C   0  0  0  0  0  0  0  0  0  0  0  0
  144.0702  138.2196  159.1450 O   0  0  0  0  0  0  0  0  0  0  0  0
  143.9370  137.6017  156.2681 C   0  0  1  0  0  0  0  0  0  0  0  0
  143.5236  136.3131  155.8563 O   0  0  0  0  0  0  0  0  0  0  0  0
  144.2127  138.5347  155.0982 C   0  0  1  0  0  0  0  0  0  0  0  0
  143.3073  138.3622  154.0228 O   0  0  0  0  0  0  0  0  0  0  0  0
  152.6081  141.7034  159.5893 C   0  0  0  0  0  0  0  0  0  0  0  0
  153.7113  140.7637  159.9495 C   0  0  0  0  0  0  0  0  0  0  0  0
  152.5306  142.8248  160.3591 O   0  0  0  0  0  0  0  0  0  0  0  0
  143.6078  140.6753  155.1009 H   0  0  0  0  0  0  0  0  0  0  0  0
  141.8970  138.2238  156.5744 H   0  0  0  0  0  0  0  0  0  0  0  0
  144.8397  137.5077  156.8739 H   0  0  0  0  0  0  0  0  0  0  0  0
  145.2259  138.4162  154.7107 H   0  0  0  0  0  0  0  0  0  0  0  0
  150.4301  145.4012  160.0879 H   0  0  0  0  0  0  0  0  0  0  0  0
  152.1005  145.4470  160.6534 H   0  0  0  0  0  0  0  0  0  0  0  0
  150.8609  144.6481  161.6246 H   0  0  0  0  0  0  0  0  0  0  0  0
  150.0245  143.2479  158.3095 H   0  0  0  0  0  0  0  0  0  0  0  0
  149.2587  140.3314  158.1987 H   0  0  0  0  0  0  0  0  0  0  0  0
  150.4074  139.2404  158.9629 H   0  0  0  0  0  0  0  0  0  0  0  0
  149.9301  138.9860  157.2870 H   0  0  0  0  0  0  0  0  0  0  0  0
  152.0726  138.9437  157.0418 H   0  0  0  0  0  0  0  0  0  0  0  0
  151.8063  141.9246  155.8567 H   0  0  0  0  0  0  0  0  0  0  0  0
  150.9044  140.4797  155.4569 H   0  0  0  0  0  0  0  0  0  0  0  0
  149.7081  142.8584  156.7422 H   0  0  0  0  0  0  0  0  0  0  0  0
  147.7912  140.8038  152.4258 H   0  0  0  0  0  0  0  0  0  0  0  0
  145.2057  140.6646  158.3172 H   0  0  0  0  0  0  0  0  0  0  0  0
  142.0848  138.6093  159.0601 H   0  0  0  0  0  0  0  0  0  0  0  0
  142.5136  136.9494  158.6817 H   0  0  0  0  0  0  0  0  0  0  0  0
  144.7297  138.2407  158.4684 H   0  0  0  0  0  0  0  0  0  0  0  0
  142.7350  136.0907  156.3281 H   0  0  0  0  0  0  0  0  0  0  0  0
  143.4623  139.0465  153.3893 H   0  0  0  0  0  0  0  0  0  0  0  0
  153.3214  139.7618  160.1301 H   0  0  0  0  0  0  0  0  0  0  0  0
  154.2289  141.0895  160.8520 H   0  0  0  0  0  0  0  0  0  0  0  0
  154.4447  140.7032  159.1457 H   0  0  0  0  0  0  0  0  0  0  0  0
  1  2  1  0  0  0  0
  1 35  1  0  0  0  0
  1 36  1  0  0  0  0
  1 37  1  0  0  0  0
  2 30  1  0  0  0  0
  2  3  2  0  0  0  0
  3  4  1  0  0  0  0
  3 38  1  0  0  0  0
  4  5  1  0  0  0  0
  4 28  2  0  0  0  0
  5  6  1  0  0  0  0
  5  7  1  0  0  0  0
  5  8  1  0  0  0  0
  6 39  1  0  0  0  0
  6 40  1  0  0  0  0
  6 41  1  0  0  0  0
  7 42  1  0  0  0  0
  8  9  1  0  0  0  0
  8 43  1  0  0  0  0
  8 44  1  0  0  0  0
  9 10  1  0  0  0  0
  9 45  1  0  0  0  0
 10 15  1  0  0  0  0
 10 11  2  0  0  0  0
 11 12  1  0  0  0  0
 12 13  2  0  0  0  0
 12 46  1  0  0  0  0
 13 14  1  0  0  0  0
 14 18  1  0  0  0  0
 14 15  2  0  0  0  0
 15 16  1  0  0  0  0
 16 17  2  0  0  0  0
 17 18  1  0  0  0  0
 17 47  1  0  0  0  0
 18 19  1  0  0  0  0
 19 31  1  0  0  0  0
 19 26  1  0  0  0  0
 19 20  1  0  0  0  0
 20 21  1  0  0  0  0
 21 32  1  0  0  0  0
 21 22  1  0  0  0  0
 21 24  1  0  0  0  0
 22 23  1  0  0  0  0
 22 48  1  0  0  0  0
 22 49  1  0  0  0  0
 23 50  1  0  0  0  0
 24 33  1  0  0  0  0
 24 25  1  0  0  0  0
 24 26  1  0  0  0  0
 25 51  1  0  0  0  0
 26 34  1  0  0  0  0
 26 27  1  0  0  0  0
 27 52  1  0  0  0  0
 28 29  1  0  0  0  0
 28 30  1  0  0  0  0
 29 53  1  0  0  0  0
 29 54  1  0  0  0  0
 29 55  1  0  0  0  0
M  END
> <s_m_source_file>
AV-unprocessed.smi

> <i_m_source_file_index>
287

> <i_lp_mmshare_version>
43012

> <i_f3d_flags>
0

> <s_epik_input>
W0NIM11jMVtjSF1jKGMobzEpW0NIM10pW0NAQF0oW0NIM10pKFtPSF0pW0NIMl1bTkhdYyhuW2NIXW4yKWMoYzIzKW5bY0hdbjNbQ0BASF00T1tDQEhdKFtDSDJdW09IXSlbQ0BASF0oW09IXSlbQ0BIXTRbT0hd

> <s_epik_cmdline>
J2VwaWtfcHl0aG9uJywgJy1waCcsICc3LjAnLCAnLXRuJywgJzgnLCAnLW1hJywgJzIwMCcsICctbWV0YWxfYmluZGluZycsICctaW1hZScsICc8aW5maWxlLm1hZT4nLCAnLW9tYWUnLCAnPG91dGZpbGUubWFlPic=

> <r_lp_tautomer_probability>
1

> <r_epik_Ionization_Penalty>
0.000992612

> <r_epik_Ionization_Penalty_Charging>
0

> <r_epik_Ionization_Penalty_Neutral>
0.000992612

> <r_epik_State_Penalty>
-0

> <r_epik_Charging_Adjusted_Penalty>
0

> <i_epik_Tot_Q>
0

> <i_epik_Tot_abs_Q>
0

> <r_epik_Metal_State_Penalty>
-0

> <b_epik_Metal_Only>
0

> <s_epik_Chemistry_Notes>
This compound contains an acetal/aminal-like group ( X-CH(R)-Y where X, Y are N, S, or O) that may be acid/base labile, releasing an aldehyde.

> <s_lp_Force_Field>
OPLS_2005

> <r_lp_Energy>
40.8374

> <b_lp_Chiralities_Consistent>
1

> <s_lp_Variant>
AV-unprocessed.smi:287-2

> <Gold.Version>
5.8.1

> <Gold.Id.Protein>
6NUR|6NUR_protein|mol2

> <Gold.PLP.Fitness>
46.8473

> <Gold.PLP.PLP>
-37.8974

> <Gold.PLP.part.hbond>
-3.9748

> <Gold.PLP.part.metal>
0.0000

> <Gold.PLP.part.buried>
-4.7979

> <Gold.PLP.part.nonpolar>
-29.5302

> <Gold.PLP.part.repulsive>
0.5722

> <Gold.PLP.ligand.clash>
0.0000

> <Gold.PLP.ligand.torsion>
1.4009

> <Gold.PLP.Chemscore.Hbond>
2.8993

> <Gold.PLP.Chemscore.CHOScore>
1.0000

> <Gold.PLP.Chemscore.Metal>
0.0000

> <Gold.Chemscore.Hbonds>
donor molecule, donor type, donor heavy atom, donor atom, acceptor molecule, acceptor atom, score
      L1  H     9    45       P1  8028  0.10
      L1  H    27    52       P1 10175  1.00
      P1  H  7997  8008       L1     7  0.81
      P1  H  8011  8017       L1    11  0.12
      L1  C    12    46       P1  7957  1.00

> <Gold.PLP.Chemscore.Internal.Correction>
0.0540

> <Gold.Rescore>
     Score         DG    S(hbond)    S(metal)    S(lipo)     H(rot)  DE(clash)    DE(int)     intcor
      7.74      -9.86       2.49        0.00      81.66       5.27       0.20       1.92       ----

> <Gold.Chemscore.Fitness>
7.7449

> <Gold.Chemscore.DG>
-9.8641

> <Gold.Chemscore.ZeroCoef>
-5.4800

> <Gold.Chemscore.Hbond>
2.4892

> <Gold.Chemscore.Metal>
0.0000

> <Gold.Chemscore.Lipo>
81.6597

> <Gold.Chemscore.Internal_Hbond>
0.0000

> <Gold.Chemscore.DEClash>
0.1972

> <Gold.Chemscore.DEInternal>
1.9221

> <Gold.Chemscore.Rot>
5.2672

> <Gold.Chemscore.Internal.Correction>
   9.000000E+99

> <Gold.Chemscore.Hbonds>
donor molecule, donor type, donor heavy atom, donor atom, acceptor molecule, acceptor atom, score
      L1  H     9    45       P1  8028  0.10
      L1  H    27    52       P1 10175  1.00
      P1  H  7997  8008       L1     7  0.63
      P1  H  8011  8017       L1    11  0.03

> <Gold.Chemscore.Hbond.Weighted>
-8.3139

> <Gold.Chemscore.Metal.Weighted>
-0.0000

> <Gold.Chemscore.Lipo.Weighted>
-9.5542

> <Gold.Chemscore.Internal_Hbond.Weighted>
0.0000

> <Gold.Chemscore.DEClash.Weighted>
0.1972

> <Gold.Chemscore.DEInternal.Weighted>
1.9221

> <Gold.Chemscore.Rot.Weighted>
13.4839

> <Gold.Chemscore.Internal.Correction.Weighted>
   9.000000E+99

> <Gold.Protein.RotatedTorsions>
[ 6907 6896 6895 6894 ] final  -13.53 input  -60.11 | X-H torsion
[ 7974 7965 7964 7962 ] final   27.75 input  175.53 | X-H torsion
[ 8008 7997 7996 7995 ] final  -58.47 input   59.86 | X-H torsion
[ 10167 10162 10161 10158 ] final -170.37 input  -65.29 | X-H torsion
[ 10718 10713 10712 10709 ] final   64.75 input   66.30 | X-H torsion
[ 10763 10752 10751 10750 ] final   46.27 input  -60.55 | X-H torsion
[ 11005 11000 10999 10996 ] final -126.78 input  -57.11 | X-H torsion

> <Gold.Protein.ActiveResidues>
 VAL166  LYS551  ARG553  GLY616  TRP617  ASP618  TYR619  PRO620  LYS621  CYS622 
 ASP623  PHE694  ASN695  SER759  ASP760  ASP761  ALA762  ILE779  LEU786  VAL792 
 PHE793  MET794  SER795  GLU796  ALA797  LYS798  CYS799  TRP800  GLU811  SER814 

> <Gold.Protein.RotatedAtoms>
  151.3535  135.0889  159.9410 H   0  0  0  0  0  0  0  0  0  0  0  0  # atno 6907 bound_to 6896
  152.5181  133.9329  159.7599 H   0  0  0  0  0  0  0  0  0  0  0  0  # atno 6908 bound_to 6896
  150.9709  133.6291  159.2767 H   0  0  0  0  0  0  0  0  0  0  0  0  # atno 6909 bound_to 6896
  146.1767  139.7149  142.8929 H   0  0  0  0  0  0  0  0  0  0  0  0  # atno 7974 bound_to 7965
  154.4310  140.1083  156.5962 H   0  0  0  0  0  0  0  0  0  0  0  0  # atno 8008 bound_to 7997
  155.5959  140.3492  155.4561 H   0  0  0  0  0  0  0  0  0  0  0  0  # atno 8009 bound_to 7997
  156.0210  140.1239  157.0346 H   0  0  0  0  0  0  0  0  0  0  0  0  # atno 8010 bound_to 7997
  139.5866  144.1305  152.1582 H   0  0  0  0  0  0  0  0  0  0  0  0  # atno 10167 bound_to 10162
  157.6060  130.9177  149.9886 H   0  0  0  0  0  0  0  0  0  0  0  0  # atno 10718 bound_to 10713
  152.9813  135.6013  154.3572 H   0  0  0  0  0  0  0  0  0  0  0  0  # atno 10763 bound_to 10752
  154.3257  135.2769  155.2499 H   0  0  0  0  0  0  0  0  0  0  0  0  # atno 10764 bound_to 10752
  154.4646  135.5957  153.6334 H   0  0  0  0  0  0  0  0  0  0  0  0  # atno 10765 bound_to 10752
  140.9653  134.0880  157.3926 H   0  0  0  0  0  0  0  0  0  0  0  0  # atno 11005 bound_to 11000
  145.4191  141.0404  143.2974 LP  0  0  0  0  0  0  0  0  0  0  0  0  # atno 17320 bound_to 7965
  144.8248  139.5729  143.6970 LP  0  0  0  0  0  0  0  0  0  0  0  0  # atno 17321 bound_to 7965
  140.0870  144.5652  150.7081 LP  0  0  0  0  0  0  0  0  0  0  0  0  # atno 17342 bound_to 10162
  140.7136  143.2526  151.4503 LP  0  0  0  0  0  0  0  0  0  0  0  0  # atno 17343 bound_to 10162
  156.1147  130.3648  149.9989 LP  0  0  0  0  0  0  0  0  0  0  0  0  # atno 17370 bound_to 10713
  156.8080  130.9314  151.3645 LP  0  0  0  0  0  0  0  0  0  0  0  0  # atno 17371 bound_to 10713
  139.8892  135.0103  156.6668 LP  0  0  0  0  0  0  0  0  0  0  0  0  # atno 17394 bound_to 11000
  140.7408  133.8980  155.8276 LP  0  0  0  0  0  0  0  0  0  0  0  0  # atno 17395 bound_to 11000

$$$$
