AV-unprocessed.smi:1033|AV-procd|sdf|4500|dock8
  -GOLD-   22720 2493D 1   1.00000     0.00000
 Structure written by MMmdl.
 57 59  0  0  0  0  0  0  0  0  3 V2000
  152.4397  143.8417  160.4838 C   0  0  0  0  0  0  0  0  0  0  0  0
  152.0642  142.8500  159.3958 C   0  0  0  0  0  0  0  0  0  0  0  0
  151.2265  143.2868  158.3449 C   0  0  0  0  0  0  0  0  0  0  0  0
  150.8993  142.3561  157.3660 C   0  0  0  0  0  0  0  0  0  0  0  0
  150.1071  142.4735  156.2222 N   0  3  0  0  0  0  0  0  0  0  0  0
  150.0799  141.2822  155.5635 C   0  0  0  0  0  0  0  0  0  0  0  0
  150.8415  140.4035  156.2709 N   0  0  0  0  0  0  0  0  0  0  0  0
  151.1488  138.9931  155.9906 C   0  0  0  0  0  0  0  0  0  0  0  0
  150.4250  138.4565  154.7398 C   0  0  2  0  0  0  0  0  0  0  0  0
  150.8683  139.1620  153.5969 O   0  0  0  0  0  0  0  0  0  0  0  0
  148.8959  138.6185  154.8572 C   0  0  0  0  0  0  0  0  0  0  0  0
  148.1451  137.5015  154.2290 N   0  3  0  0  0  0  0  0  0  0  0  0
  146.7206  137.8467  153.9837 C   0  0  0  0  0  0  0  0  0  0  0  0
  145.9970  136.6852  153.2714 C   0  0  0  0  0  0  0  0  0  0  0  0
  146.0767  135.4203  154.0014 N   0  0  0  0  0  0  0  0  0  0  0  0
  145.2444  135.4108  155.2134 C   0  0  0  0  0  0  0  0  0  0  0  0
  145.1257  134.0655  155.9651 C   0  0  1  0  0  0  0  0  0  0  0  0
  144.0079  134.0158  157.0184 C   0  0  0  0  0  0  0  0  0  0  0  0
  144.9967  132.9927  155.0546 O   0  0  0  0  0  0  0  0  0  0  0  0
  147.4901  135.1045  154.2217 C   0  0  0  0  0  0  0  0  0  0  0  0
  148.2539  136.2156  154.9688 C   0  0  0  0  0  0  0  0  0  0  0  0
  151.3754  141.0307  157.4039 C   0  0  0  0  0  0  0  0  0  0  0  0
  152.2020  140.5846  158.4328 C   0  0  0  0  0  0  0  0  0  0  0  0
  152.5457  141.5159  159.4389 C   0  0  0  0  0  0  0  0  0  0  0  0
  153.4445  141.0569  160.5746 C   0  0  0  0  0  0  0  0  0  0  0  0
  151.9713  144.8124  160.3180 H   0  0  0  0  0  0  0  0  0  0  0  0
  153.5192  143.9925  160.5084 H   0  0  0  0  0  0  0  0  0  0  0  0
  152.1178  143.4801  161.4606 H   0  0  0  0  0  0  0  0  0  0  0  0
  150.8565  144.3010  158.3053 H   0  0  0  0  0  0  0  0  0  0  0  0
  149.5513  141.0741  154.6440 H   0  0  0  0  0  0  0  0  0  0  0  0
  152.2284  138.9268  155.8487 H   0  0  0  0  0  0  0  0  0  0  0  0
  150.9224  138.3918  156.8717 H   0  0  0  0  0  0  0  0  0  0  0  0
  150.6891  137.4070  154.6149 H   0  0  0  0  0  0  0  0  0  0  0  0
  150.1305  139.2958  153.0210 H   0  0  0  0  0  0  0  0  0  0  0  0
  148.5991  138.7043  155.9036 H   0  0  0  0  0  0  0  0  0  0  0  0
  148.6121  139.5598  154.3834 H   0  0  0  0  0  0  0  0  0  0  0  0
  146.2297  138.0933  154.9260 H   0  0  0  0  0  0  0  0  0  0  0  0
  146.6646  138.7387  153.3587 H   0  0  0  0  0  0  0  0  0  0  0  0
  144.9530  136.9491  153.0988 H   0  0  0  0  0  0  0  0  0  0  0  0
  146.4353  136.5515  152.2814 H   0  0  0  0  0  0  0  0  0  0  0  0
  145.5546  136.1915  155.9077 H   0  0  0  0  0  0  0  0  0  0  0  0
  144.2310  135.6833  154.9157 H   0  0  0  0  0  0  0  0  0  0  0  0
  146.0720  133.8966  156.4801 H   0  0  0  0  0  0  0  0  0  0  0  0
  144.1125  134.8300  157.7359 H   0  0  0  0  0  0  0  0  0  0  0  0
  144.0393  133.0793  157.5762 H   0  0  0  0  0  0  0  0  0  0  0  0
  143.0192  134.0946  156.5658 H   0  0  0  0  0  0  0  0  0  0  0  0
  144.0783  132.8547  154.8800 H   0  0  0  0  0  0  0  0  0  0  0  0
  147.5938  134.1583  154.7501 H   0  0  0  0  0  0  0  0  0  0  0  0
  147.9685  134.9440  153.2544 H   0  0  0  0  0  0  0  0  0  0  0  0
  149.2982  135.9197  155.0594 H   0  0  0  0  0  0  0  0  0  0  0  0
  147.8736  136.3322  155.9842 H   0  0  0  0  0  0  0  0  0  0  0  0
  152.5672  139.5691  158.4707 H   0  0  0  0  0  0  0  0  0  0  0  0
  153.7463  140.0165  160.4498 H   0  0  0  0  0  0  0  0  0  0  0  0
  152.9265  141.1412  161.5301 H   0  0  0  0  0  0  0  0  0  0  0  0
  154.3502  141.6624  160.6161 H   0  0  0  0  0  0  0  0  0  0  0  0
  148.5585  137.3546  153.3188 H   0  0  0  0  0  0  0  0  0  0  0  0
  149.6227  143.3056  155.9098 H   0  0  0  0  0  0  0  0  0  0  0  0
  1  2  1  0  0  0  0
  1 26  1  0  0  0  0
  1 27  1  0  0  0  0
  1 28  1  0  0  0  0
  2 24  1  0  0  0  0
  2  3  2  0  0  0  0
  3  4  1  0  0  0  0
  3 29  1  0  0  0  0
  4 22  2  0  0  0  0
  4  5  1  0  0  0  0
  5  6  2  0  0  0  0
  5 57  1  0  0  0  0
  6  7  1  0  0  0  0
  6 30  1  0  0  0  0
  7  8  1  0  0  0  0
  7 22  1  0  0  0  0
  8  9  1  0  0  0  0
  8 31  1  0  0  0  0
  8 32  1  0  0  0  0
  9 10  1  0  0  0  0
  9 11  1  0  0  0  0
  9 33  1  0  0  0  0
 10 34  1  0  0  0  0
 11 12  1  0  0  0  0
 11 35  1  0  0  0  0
 11 36  1  0  0  0  0
 12 21  1  0  0  0  0
 12 13  1  0  0  0  0
 12 56  1  0  0  0  0
 13 14  1  0  0  0  0
 13 37  1  0  0  0  0
 13 38  1  0  0  0  0
 14 15  1  0  0  0  0
 14 39  1  0  0  0  0
 14 40  1  0  0  0  0
 15 16  1  0  0  0  0
 15 20  1  0  0  0  0
 16 17  1  0  0  0  0
 16 41  1  0  0  0  0
 16 42  1  0  0  0  0
 17 18  1  0  0  0  0
 17 19  1  0  0  0  0
 17 43  1  0  0  0  0
 18 44  1  0  0  0  0
 18 45  1  0  0  0  0
 18 46  1  0  0  0  0
 19 47  1  0  0  0  0
 20 21  1  0  0  0  0
 20 48  1  0  0  0  0
 20 49  1  0  0  0  0
 21 50  1  0  0  0  0
 21 51  1  0  0  0  0
 22 23  1  0  0  0  0
 23 24  2  0  0  0  0
 23 52  1  0  0  0  0
 24 25  1  0  0  0  0
 25 53  1  0  0  0  0
 25 54  1  0  0  0  0
 25 55  1  0  0  0  0
M  CHG  1   5   1
M  CHG  1  12   1
M  END
> <s_m_source_file>
AV-unprocessed.smi

> <i_m_source_file_index>
1033

> <i_lp_mmshare_version>
43012

> <i_f3d_flags>
0

> <s_epik_input>
W0NIM11jKFtjSF0xKWMoW0NIM10pW2NIXWMoYzEyKW4oW2NIXW4yKVtDSDJdW0NASF0oW09IXSlbQ0gyXU4zW0NIMl1bQ0gyXU4oW0NIMl1bQ0gyXTMpW0NIMl1bQ0BIXShbQ0gzXSlbT0hd

> <s_epik_cmdline>
J2VwaWtfcHl0aG9uJywgJy1waCcsICc3LjAnLCAnLXRuJywgJzgnLCAnLW1hJywgJzIwMCcsICctbWV0YWxfYmluZGluZycsICctaW1hZScsICc8aW5maWxlLm1hZT4nLCAnLW9tYWUnLCAnPG91dGZpbGUubWFlPic=

> <r_epik_Ionization_Penalty>
1.22049

> <r_epik_Ionization_Penalty_Charging>
1.17952

> <r_epik_Ionization_Penalty_Neutral>
0.0409743

> <r_epik_State_Penalty>
1.61468

> <r_epik_Charging_Adjusted_Penalty>
2.7942

> <i_epik_Tot_Q>
2

> <i_epik_Tot_abs_Q>
2

> <r_epik_Metal_State_Penalty>
5.63169

> <b_epik_Metal_Only>
0

> <s_lp_Force_Field>
OPLS_2005

> <r_lp_Energy>
46.6999

> <b_lp_Chiralities_Consistent>
1

> <s_lp_Variant>
AV-unprocessed.smi:1033-11

> <Gold.Version>
5.8.1

> <Gold.Id.Protein>
6NUR|6NUR_protein|mol2

> <Gold.PLP.Fitness>
55.9386

> <Gold.PLP.PLP>
-37.5784

> <Gold.PLP.part.hbond>
-4.8590

> <Gold.PLP.part.metal>
0.0000

> <Gold.PLP.part.buried>
0.1884

> <Gold.PLP.part.nonpolar>
-31.7804

> <Gold.PLP.part.repulsive>
0.2075

> <Gold.PLP.ligand.clash>
0.1074

> <Gold.PLP.ligand.torsion>
0.7277

> <Gold.PLP.Chemscore.Hbond>
6.6029

> <Gold.PLP.Chemscore.CHOScore>
0.0000

> <Gold.PLP.Chemscore.Metal>
0.0000

> <Gold.Chemscore.Hbonds>
donor molecule, donor type, donor heavy atom, donor atom, acceptor molecule, acceptor atom, score
      L1  H     5    57       P1  8028  2.00
      L1  H    10    34       P1  7957  0.77
      L1  H    12    56       P1  7948  2.00
      L1  H    19    47       P1 10957  0.98
      P1  H  7989  7998       L1    10  0.81

> <Gold.PLP.Chemscore.Internal.Correction>
0.1144

> <Gold.Rescore>
     Score         DG    S(hbond)    S(metal)    S(lipo)     H(rot)  DE(clash)    DE(int)     intcor
     20.23     -23.71       4.26        0.00     102.97       3.15       1.42       2.06       ----

> <Gold.Chemscore.Fitness>
20.2287

> <Gold.Chemscore.DG>
-23.7121

> <Gold.Chemscore.ZeroCoef>
-5.4800

> <Gold.Chemscore.Hbond>
4.2648

> <Gold.Chemscore.Metal>
0.0000

> <Gold.Chemscore.Lipo>
102.9686

> <Gold.Chemscore.Internal_Hbond>
0.0000

> <Gold.Chemscore.DEClash>
1.4206

> <Gold.Chemscore.DEInternal>
2.0628

> <Gold.Chemscore.Rot>
3.1483

> <Gold.Chemscore.Internal.Correction>
   9.000000E+99

> <Gold.Chemscore.Hbonds>
donor molecule, donor type, donor heavy atom, donor atom, acceptor molecule, acceptor atom, score
      L1  H     5    57       P1  8028  0.99
      L1  H    10    34       P1  7957  0.70
      L1  H    12    56       P1  7948  0.95
      L1  H    19    47       P1 10957  0.93
      P1  H  7989  7998       L1    10  0.16

> <Gold.Chemscore.Hbond.Weighted>
-14.2445

> <Gold.Chemscore.Metal.Weighted>
-0.0000

> <Gold.Chemscore.Lipo.Weighted>
-12.0473

> <Gold.Chemscore.Internal_Hbond.Weighted>
0.0000

> <Gold.Chemscore.DEClash.Weighted>
1.4206

> <Gold.Chemscore.DEInternal.Weighted>
2.0628

> <Gold.Chemscore.Rot.Weighted>
8.0597

> <Gold.Chemscore.Internal.Correction.Weighted>
   9.000000E+99

> <Gold.Protein.RotatedTorsions>
[ 6907 6896 6895 6894 ] final -105.27 input  -60.11 | X-H torsion
[ 7974 7965 7964 7962 ] final -122.03 input  175.53 | X-H torsion
[ 8008 7997 7996 7995 ] final  146.06 input   59.86 | X-H torsion
[ 10167 10162 10161 10158 ] final -175.74 input  -65.29 | X-H torsion
[ 10718 10713 10712 10709 ] final  106.41 input   66.30 | X-H torsion
[ 10763 10752 10751 10750 ] final   26.99 input  -60.55 | X-H torsion
[ 11005 11000 10999 10996 ] final  142.05 input  -57.11 | X-H torsion

> <Gold.Protein.ActiveResidues>
 VAL166  LYS551  ARG553  GLY616  TRP617  ASP618  TYR619  PRO620  LYS621  CYS622 
 ASP623  PHE694  ASN695  SER759  ASP760  ASP761  ALA762  ILE779  LEU786  VAL792 
 PHE793  MET794  SER795  GLU796  ALA797  LYS798  CYS799  TRP800  GLU811  SER814 

> <Gold.Protein.RotatedAtoms>
  150.7328  134.0152  159.3682 H   0  0  0  0  0  0  0  0  0  0  0  0  # atno 6907 bound_to 6896
  151.8113  135.0677  160.0422 H   0  0  0  0  0  0  0  0  0  0  0  0  # atno 6908 bound_to 6896
  152.3070  133.5677  159.5692 H   0  0  0  0  0  0  0  0  0  0  0  0  # atno 6909 bound_to 6896
  145.0338  140.8089  143.4307 H   0  0  0  0  0  0  0  0  0  0  0  0  # atno 7974 bound_to 7965
  156.2866  140.2192  156.5316 H   0  0  0  0  0  0  0  0  0  0  0  0  # atno 8008 bound_to 7997
  154.7444  140.0485  157.0861 H   0  0  0  0  0  0  0  0  0  0  0  0  # atno 8009 bound_to 7997
  155.0190  140.3122  155.4804 H   0  0  0  0  0  0  0  0  0  0  0  0  # atno 8010 bound_to 7997
  139.5565  144.1975  152.1168 H   0  0  0  0  0  0  0  0  0  0  0  0  # atno 10167 bound_to 10162
  157.6669  131.0850  150.6003 H   0  0  0  0  0  0  0  0  0  0  0  0  # atno 10718 bound_to 10713
  153.0585  135.6547  154.0518 H   0  0  0  0  0  0  0  0  0  0  0  0  # atno 10763 bound_to 10752
  154.0191  135.2921  155.3384 H   0  0  0  0  0  0  0  0  0  0  0  0  # atno 10764 bound_to 10752
  154.6913  135.5282  153.8464 H   0  0  0  0  0  0  0  0  0  0  0  0  # atno 10765 bound_to 10752
  140.0448  134.9286  157.0909 H   0  0  0  0  0  0  0  0  0  0  0  0  # atno 11005 bound_to 11000
  145.1736  139.2391  143.5329 LP  0  0  0  0  0  0  0  0  0  0  0  0  # atno 17320 bound_to 7965
  146.3502  140.1492  142.8593 LP  0  0  0  0  0  0  0  0  0  0  0  0  # atno 17321 bound_to 7965
  140.1481  144.5140  150.6704 LP  0  0  0  0  0  0  0  0  0  0  0  0  # atno 17342 bound_to 10162
  140.6839  143.2340  151.5312 LP  0  0  0  0  0  0  0  0  0  0  0  0  # atno 17343 bound_to 10162
  156.6304  130.4430  149.5789 LP  0  0  0  0  0  0  0  0  0  0  0  0  # atno 17370 bound_to 10713
  156.2286  130.6781  151.1441 LP  0  0  0  0  0  0  0  0  0  0  0  0  # atno 17371 bound_to 10713
  140.4012  134.2081  155.7163 LP  0  0  0  0  0  0  0  0  0  0  0  0  # atno 17394 bound_to 11000
  141.1901  133.8224  157.0931 LP  0  0  0  0  0  0  0  0  0  0  0  0  # atno 17395 bound_to 11000

$$$$
