AV-unprocessed.smi:3078|AV-procd|sdf|11734|dock4
  -GOLD-   2272017133D 1   1.00000     0.00000
 Structure written by MMmdl.
 23 23  0  0  0  0  0  0  0  0  2 V2000
  146.3788  136.5676  151.6718 C   0  0  0  0  0  0  0  0  0  0  0  0
  145.5966  135.3553  151.5578 N   0  0  0  0  0  0  0  0  0  0  0  0
  145.0582  134.7820  150.4263 C   0  0  0  0  0  0  0  0  0  0  0  0
  144.4103  133.6397  150.8104 C   0  0  0  0  0  0  0  0  0  0  0  0
  143.6564  132.6374  149.9717 C   0  0  1  0  0  0  0  0  0  0  0  0
  142.3201  132.4189  150.5491 N   0  3  0  0  0  0  0  0  0  0  0  0
  143.5373  133.0594  148.4948 C   0  0  0  0  0  0  0  0  0  0  0  0
  142.9035  134.3589  148.3773 N   0  0  0  0  0  0  0  0  0  0  0  0
  144.6152  133.6076  152.2200 C   0  0  0  0  0  0  0  0  0  0  0  0
  145.3222  134.6337  152.6632 N   0  0  0  0  0  0  0  0  0  0  0  0
  146.3373  137.1287  150.7379 H   0  0  0  0  0  0  0  0  0  0  0  0
  147.4170  136.3153  151.8888 H   0  0  0  0  0  0  0  0  0  0  0  0
  145.9852  137.1905  152.4759 H   0  0  0  0  0  0  0  0  0  0  0  0
  145.1835  135.2284  149.4506 H   0  0  0  0  0  0  0  0  0  0  0  0
  144.1600  131.6702  150.0090 H   0  0  0  0  0  0  0  0  0  0  0  0
  141.8457  131.6922  150.0326 H   0  0  0  0  0  0  0  0  0  0  0  0
  141.7854  133.2741  150.4953 H   0  0  0  0  0  0  0  0  0  0  0  0
  144.5269  133.1268  148.0421 H   0  0  0  0  0  0  0  0  0  0  0  0
  142.9710  132.3257  147.9202 H   0  0  0  0  0  0  0  0  0  0  0  0
  142.3035  134.3805  147.5647 H   0  0  0  0  0  0  0  0  0  0  0  0
  142.3094  134.5258  149.1774 H   0  0  0  0  0  0  0  0  0  0  0  0
  144.2726  132.8705  152.9313 H   0  0  0  0  0  0  0  0  0  0  0  0
  142.4123  132.1392  151.5150 H   0  0  0  0  0  0  0  0  0  0  0  0
  1  2  1  0  0  0  0
  1 11  1  0  0  0  0
  1 12  1  0  0  0  0
  1 13  1  0  0  0  0
  2 10  1  0  0  0  0
  2  3  1  0  0  0  0
  3  4  2  0  0  0  0
  3 14  1  0  0  0  0
  4  5  1  0  0  0  0
  4  9  1  0  0  0  0
  5  6  1  0  0  0  0
  5  7  1  0  0  0  0
  5 15  1  0  0  0  0
  6 16  1  0  0  0  0
  6 17  1  0  0  0  0
  6 23  1  0  0  0  0
  7  8  1  0  0  0  0
  7 18  1  0  0  0  0
  7 19  1  0  0  0  0
  8 20  1  0  0  0  0
  8 21  1  0  0  0  0
  9 10  2  0  0  0  0
  9 22  1  0  0  0  0
M  CHG  1   6   1
M  END
> <s_m_source_file>
AV-unprocessed.smi

> <i_m_source_file_index>
3078

> <i_lp_mmshare_version>
43012

> <i_f3d_flags>
0

> <s_epik_input>
W0NIM11uMVtjSF1jKFtjSF1uMSlbQ0BIXShbTkgyXSlbQ0gyXVtOSDJd

> <s_epik_cmdline>
J2VwaWtfcHl0aG9uJywgJy1waCcsICc3LjAnLCAnLXRuJywgJzgnLCAnLW1hJywgJzIwMCcsICctbWV0YWxfYmluZGluZycsICctaW1hZScsICc8aW5maWxlLm1hZT4nLCAnLW9tYWUnLCAnPG91dGZpbGUubWFlPic=

> <r_epik_Ionization_Penalty>
0.19937

> <r_epik_Ionization_Penalty_Charging>
0.0290541

> <r_epik_Ionization_Penalty_Neutral>
0.170316

> <r_epik_State_Penalty>
1.07715

> <r_epik_Charging_Adjusted_Penalty>
1.1062

> <i_epik_Tot_Q>
1

> <i_epik_Tot_abs_Q>
1

> <r_epik_Metal_State_Penalty>
1.07718

> <b_epik_Metal_Only>
0

> <s_lp_Force_Field>
OPLS_2005

> <r_lp_Energy>
0.880833

> <b_lp_Chiralities_Consistent>
1

> <s_lp_Variant>
AV-unprocessed.smi:3078-4

> <Gold.Version>
5.8.1

> <Gold.Id.Protein>
6NUR|6NUR_protein|mol2

> <Gold.PLP.Fitness>
43.5538

> <Gold.PLP.PLP>
-22.9590

> <Gold.PLP.part.hbond>
-5.9609

> <Gold.PLP.part.metal>
0.0000

> <Gold.PLP.part.buried>
0.1334

> <Gold.PLP.part.nonpolar>
-18.5498

> <Gold.PLP.part.repulsive>
0.2040

> <Gold.PLP.ligand.clash>
0.0000

> <Gold.PLP.ligand.torsion>
0.1019

> <Gold.PLP.Chemscore.Hbond>
4.9760

> <Gold.PLP.Chemscore.CHOScore>
1.9524

> <Gold.PLP.Chemscore.Metal>
0.0000

> <Gold.Chemscore.Hbonds>
donor molecule, donor type, donor heavy atom, donor atom, acceptor molecule, acceptor atom, score
      L1  H     6    16       P1 10952  1.00
      L1  H     6    17       P1 10186  1.98
      L1  H     8    20       P1 10195  0.10
      L1  H     8    21       P1 10186  0.42
      L1  C     3    14       P1  7921  1.00
      L1  C     9    22       P1 10957  0.63

> <Gold.PLP.Chemscore.Internal.Correction>
0.0135

> <Gold.Rescore>
     Score         DG    S(hbond)    S(metal)    S(lipo)     H(rot)  DE(clash)    DE(int)     intcor
     19.28     -20.76       3.84        0.00      51.77       1.40       1.45       0.03       ----

> <Gold.Chemscore.Fitness>
19.2807

> <Gold.Chemscore.DG>
-20.7550

> <Gold.Chemscore.ZeroCoef>
-5.4800

> <Gold.Chemscore.Hbond>
3.8364

> <Gold.Chemscore.Metal>
0.0000

> <Gold.Chemscore.Lipo>
51.7684

> <Gold.Chemscore.Internal_Hbond>
0.0000

> <Gold.Chemscore.DEClash>
1.4481

> <Gold.Chemscore.DEInternal>
0.0262

> <Gold.Chemscore.Rot>
1.4045

> <Gold.Chemscore.Internal.Correction>
   9.000000E+99

> <Gold.Chemscore.Hbonds>
donor molecule, donor type, donor heavy atom, donor atom, acceptor molecule, acceptor atom, score
      L1  H     6    16       P1 10952  0.82
      L1  H     6    17       P1 10186  0.92
      L1  H     8    20       P1 10195  0.03
      L1  H     8    21       P1 10186  0.40

> <Gold.Chemscore.Hbond.Weighted>
-12.8137

> <Gold.Chemscore.Metal.Weighted>
-0.0000

> <Gold.Chemscore.Lipo.Weighted>
-6.0569

> <Gold.Chemscore.Internal_Hbond.Weighted>
0.0000

> <Gold.Chemscore.DEClash.Weighted>
1.4481

> <Gold.Chemscore.DEInternal.Weighted>
0.0262

> <Gold.Chemscore.Rot.Weighted>
3.5956

> <Gold.Chemscore.Internal.Correction.Weighted>
   9.000000E+99

> <Gold.Protein.RotatedTorsions>
[ 6907 6896 6895 6894 ] final  142.50 input  -60.11 | X-H torsion
[ 7974 7965 7964 7962 ] final  120.31 input  175.53 | X-H torsion
[ 8008 7997 7996 7995 ] final  114.22 input   59.86 | X-H torsion
[ 10167 10162 10161 10158 ] final  149.28 input  -65.29 | X-H torsion
[ 10718 10713 10712 10709 ] final   56.57 input   66.30 | X-H torsion
[ 10763 10752 10751 10750 ] final   35.09 input  -60.55 | X-H torsion
[ 11005 11000 10999 10996 ] final  -37.40 input  -57.11 | X-H torsion

> <Gold.Protein.ActiveResidues>
 VAL166  LYS551  ARG553  GLY616  TRP617  ASP618  TYR619  PRO620  LYS621  CYS622 
 ASP623  PHE694  ASN695  SER759  ASP760  ASP761  ALA762  ILE779  LEU786  VAL792 
 PHE793  MET794  SER795  GLU796  ALA797  LYS798  CYS799  TRP800  GLU811  SER814 

> <Gold.Protein.RotatedAtoms>
  152.2180  133.4961  159.5146 H   0  0  0  0  0  0  0  0  0  0  0  0  # atno 6907 bound_to 6896
  150.7006  134.1380  159.4103 H   0  0  0  0  0  0  0  0  0  0  0  0  # atno 6908 bound_to 6896
  151.9300  135.0260  160.0579 H   0  0  0  0  0  0  0  0  0  0  0  0  # atno 6909 bound_to 6896
  145.1327  139.3317  143.4656 H   0  0  0  0  0  0  0  0  0  0  0  0  # atno 7974 bound_to 7965
  156.2308  140.2963  156.0183 H   0  0  0  0  0  0  0  0  0  0  0  0  # atno 8008 bound_to 7997
  155.2231  140.0416  157.2968 H   0  0  0  0  0  0  0  0  0  0  0  0  # atno 8009 bound_to 7997
  154.5992  140.2422  155.7823 H   0  0  0  0  0  0  0  0  0  0  0  0  # atno 8010 bound_to 7997
  139.4863  144.5614  151.7224 H   0  0  0  0  0  0  0  0  0  0  0  0  # atno 10167 bound_to 10162
  157.5442  130.8719  149.8867 H   0  0  0  0  0  0  0  0  0  0  0  0  # atno 10718 bound_to 10713
  153.0135  135.6343  154.1771 H   0  0  0  0  0  0  0  0  0  0  0  0  # atno 10763 bound_to 10752
  154.1512  135.2829  155.3136 H   0  0  0  0  0  0  0  0  0  0  0  0  # atno 10764 bound_to 10752
  154.6052  135.5574  153.7476 H   0  0  0  0  0  0  0  0  0  0  0  0  # atno 10765 bound_to 10752
  140.9949  133.6985  156.1917 H   0  0  0  0  0  0  0  0  0  0  0  0  # atno 11005 bound_to 11000
  146.3512  140.1333  142.8596 LP  0  0  0  0  0  0  0  0  0  0  0  0  # atno 17320 bound_to 7965
  145.0617  140.9093  143.4934 LP  0  0  0  0  0  0  0  0  0  0  0  0  # atno 17321 bound_to 7965
  140.5185  144.0916  150.6015 LP  0  0  0  0  0  0  0  0  0  0  0  0  # atno 17342 bound_to 10162
  140.3866  143.2774  152.0109 LP  0  0  0  0  0  0  0  0  0  0  0  0  # atno 17343 bound_to 10162
  156.0522  130.3715  150.1175 LP  0  0  0  0  0  0  0  0  0  0  0  0  # atno 17370 bound_to 10713
  156.9352  130.9727  151.3526 LP  0  0  0  0  0  0  0  0  0  0  0  0  # atno 17371 bound_to 10713
  140.6981  134.4593  157.5587 LP  0  0  0  0  0  0  0  0  0  0  0  0  # atno 17394 bound_to 11000
  139.9010  134.8556  156.1897 LP  0  0  0  0  0  0  0  0  0  0  0  0  # atno 17395 bound_to 11000

$$$$
