AV-unprocessed.smi:203|AV-procd|sdf|1587|dock10
  -GOLD-   2262019483D 1   1.00000     0.00000
 Structure written by MMmdl.
 57 61  0  0  0  0  0  0  0  0  1 V2000
  150.7181  145.7886  160.0186 O   0  0  0  0  0  0  0  0  0  0  0  0
  151.4877  144.8711  160.2936 C   0  0  0  0  0  0  0  0  0  0  0  0
  152.5956  144.3994  159.3670 C   0  0  0  0  0  0  0  0  0  0  0  0
  153.1031  143.1057  160.0346 C   0  0  2  0  0  0  0  0  0  0  0  0
  152.7843  141.8067  159.2280 C   0  0  2  0  0  0  0  0  0  0  0  0
  151.3680  141.8263  158.5937 C   0  0  0  0  0  0  0  0  0  0  0  0
  151.0774  140.5419  157.8064 C   0  0  0  0  0  0  0  0  0  0  0  0
  151.2748  139.3196  158.7088 C   0  0  0  0  0  0  0  0  0  0  0  0
  152.6850  139.3250  159.3128 C   0  0  0  0  0  0  0  0  0  0  0  0
  152.9561  140.5758  160.0210 N   0  0  0  0  0  0  0  0  0  0  0  0
  154.0993  140.4751  160.7351 C   0  0  0  0  0  0  0  0  0  0  0  0
  154.0357  140.7889  162.0523 N   0  0  0  0  0  0  0  0  0  0  0  0
  155.1348  140.7128  162.8093 C   0  0  0  0  0  0  0  0  0  0  0  0
  156.3693  140.3477  162.4561 N   0  0  0  0  0  0  0  0  0  0  0  0
  156.4321  140.0259  161.1317 C   0  0  0  0  0  0  0  0  0  0  0  0
  155.3538  140.0628  160.2041 C   0  0  0  0  0  0  0  0  0  0  0  0
  155.7954  139.6705  158.9460 N   0  0  0  0  0  0  0  0  0  0  0  0
  157.0634  139.4146  159.1207 C   0  0  0  0  0  0  0  0  0  0  0  0
  157.5280  139.5996  160.4029 N   0  0  0  0  0  0  0  0  0  0  0  0
  158.8847  139.3847  160.8734 C   0  0  0  0  0  0  0  0  0  0  0  0
  159.8096  140.5828  160.5706 C   0  0  1  0  0  0  0  0  0  0  0  0
  159.2378  141.7858  161.0445 O   0  0  0  0  0  0  0  0  0  0  0  0
  161.2324  140.4490  161.1520 C   0  0  2  0  0  0  0  0  0  0  0  0
  162.2514  141.4351  160.5667 C   0  0  0  0  0  0  0  0  0  0  0  0
  163.5654  140.6643  160.5604 C   0  0  0  0  0  0  0  0  0  0  0  0
  163.1956  139.2876  161.1097 C   0  0  0  0  0  0  0  0  0  0  0  0
  161.8042  139.1822  160.8583 O   0  0  0  0  0  0  0  0  0  0  0  0
  152.4966  143.1272  161.4561 C   0  0  0  0  0  0  0  0  0  0  0  0
  151.4814  144.1615  161.4197 N   0  0  0  0  0  0  0  0  0  0  0  0
  152.2362  144.2523  158.3486 H   0  0  0  0  0  0  0  0  0  0  0  0
  153.3780  145.1584  159.3391 H   0  0  0  0  0  0  0  0  0  0  0  0
  154.1852  143.2080  160.1234 H   0  0  0  0  0  0  0  0  0  0  0  0
  153.4986  141.7544  158.4058 H   0  0  0  0  0  0  0  0  0  0  0  0
  150.6082  141.9426  159.3668 H   0  0  0  0  0  0  0  0  0  0  0  0
  151.2528  142.6780  157.9245 H   0  0  0  0  0  0  0  0  0  0  0  0
  150.0593  140.5611  157.4165 H   0  0  0  0  0  0  0  0  0  0  0  0
  151.7431  140.4780  156.9448 H   0  0  0  0  0  0  0  0  0  0  0  0
  150.5323  139.3264  159.5078 H   0  0  0  0  0  0  0  0  0  0  0  0
  151.1147  138.4030  158.1407 H   0  0  0  0  0  0  0  0  0  0  0  0
  152.7903  138.4796  159.9947 H   0  0  0  0  0  0  0  0  0  0  0  0
  153.4233  139.1882  158.5212 H   0  0  0  0  0  0  0  0  0  0  0  0
  155.0067  140.9823  163.8474 H   0  0  0  0  0  0  0  0  0  0  0  0
  157.6996  139.0811  158.3139 H   0  0  0  0  0  0  0  0  0  0  0  0
  158.8513  139.1847  161.9451 H   0  0  0  0  0  0  0  0  0  0  0  0
  159.2640  138.4781  160.4017 H   0  0  0  0  0  0  0  0  0  0  0  0
  159.8946  140.6987  159.4893 H   0  0  0  0  0  0  0  0  0  0  0  0
  159.9322  142.4137  161.1759 H   0  0  0  0  0  0  0  0  0  0  0  0
  161.2118  140.5805  162.2359 H   0  0  0  0  0  0  0  0  0  0  0  0
  161.9918  141.7219  159.5472 H   0  0  0  0  0  0  0  0  0  0  0  0
  162.3098  142.3486  161.1592 H   0  0  0  0  0  0  0  0  0  0  0  0
  163.9427  140.5799  159.5406 H   0  0  0  0  0  0  0  0  0  0  0  0
  164.3356  141.1448  161.1642 H   0  0  0  0  0  0  0  0  0  0  0  0
  163.7526  138.4800  160.6345 H   0  0  0  0  0  0  0  0  0  0  0  0
  163.3726  139.2399  162.1854 H   0  0  0  0  0  0  0  0  0  0  0  0
  152.0672  142.1713  161.7563 H   0  0  0  0  0  0  0  0  0  0  0  0
  153.2516  143.3964  162.1957 H   0  0  0  0  0  0  0  0  0  0  0  0
  150.8318  144.3109  162.1782 H   0  0  0  0  0  0  0  0  0  0  0  0
  1  2  2  0  0  0  0
  2 29  1  0  0  0  0
  2  3  1  0  0  0  0
  3  4  1  0  0  0  0
  3 30  1  0  0  0  0
  3 31  1  0  0  0  0
  4  5  1  0  0  0  0
  4 28  1  0  0  0  0
  4 32  1  0  0  0  0
  5 10  1  0  0  0  0
  5  6  1  0  0  0  0
  5 33  1  0  0  0  0
  6  7  1  0  0  0  0
  6 34  1  0  0  0  0
  6 35  1  0  0  0  0
  7  8  1  0  0  0  0
  7 36  1  0  0  0  0
  7 37  1  0  0  0  0
  8  9  1  0  0  0  0
  8 38  1  0  0  0  0
  8 39  1  0  0  0  0
  9 10  1  0  0  0  0
  9 40  1  0  0  0  0
  9 41  1  0  0  0  0
 10 11  1  0  0  0  0
 11 16  1  0  0  0  0
 11 12  2  0  0  0  0
 12 13  1  0  0  0  0
 13 14  2  0  0  0  0
 13 42  1  0  0  0  0
 14 15  1  0  0  0  0
 15 19  1  0  0  0  0
 15 16  2  0  0  0  0
 16 17  1  0  0  0  0
 17 18  2  0  0  0  0
 18 19  1  0  0  0  0
 18 43  1  0  0  0  0
 19 20  1  0  0  0  0
 20 21  1  0  0  0  0
 20 44  1  0  0  0  0
 20 45  1  0  0  0  0
 21 22  1  0  0  0  0
 21 23  1  0  0  0  0
 21 46  1  0  0  0  0
 22 47  1  0  0  0  0
 23 27  1  0  0  0  0
 23 24  1  0  0  0  0
 23 48  1  0  0  0  0
 24 25  1  0  0  0  0
 24 49  1  0  0  0  0
 24 50  1  0  0  0  0
 25 26  1  0  0  0  0
 25 51  1  0  0  0  0
 25 52  1  0  0  0  0
 26 27  1  0  0  0  0
 26 53  1  0  0  0  0
 26 54  1  0  0  0  0
 28 29  1  0  0  0  0
 28 55  1  0  0  0  0
 28 56  1  0  0  0  0
 29 57  1  0  0  0  0
M  END
> <s_m_source_file>
AV-unprocessed.smi

> <i_m_source_file_index>
203

> <i_lp_mmshare_version>
43012

> <i_f3d_flags>
0

> <s_epik_input>
Tz1DMVtDSDJdW0NASF0oW0NIMl1bTkhdMSlbQ0BASF0yW0NIMl1bQ0gyXVtDSDJdW0NIMl1OMmMobltjSF1uMyljKGMzNCluW2NIXW40W0NIMl1bQ0BIXShbT0hdKVtDQEBIXTVbQ0gyXVtDSDJdW0NIMl1PNQ==

> <s_epik_cmdline>
J2VwaWtfcHl0aG9uJywgJy1waCcsICc3LjAnLCAnLXRuJywgJzgnLCAnLW1hJywgJzIwMCcsICctbWV0YWxfYmluZGluZycsICctaW1hZScsICc8aW5maWxlLm1hZT4nLCAnLW9tYWUnLCAnPG91dGZpbGUubWFlPic=

> <r_lp_tautomer_probability>
1

> <r_epik_Ionization_Penalty>
0.00175146

> <r_epik_Ionization_Penalty_Charging>
0

> <r_epik_Ionization_Penalty_Neutral>
0.00175146

> <r_epik_State_Penalty>
0.00109045

> <r_epik_Charging_Adjusted_Penalty>
0.00109045

> <i_epik_Tot_Q>
0

> <i_epik_Tot_abs_Q>
0

> <r_epik_Metal_State_Penalty>
-0

> <b_epik_Metal_Only>
0

> <s_lp_Force_Field>
OPLS_2005

> <r_lp_Energy>
57.3727

> <b_lp_Chiralities_Consistent>
1

> <s_lp_Variant>
AV-unprocessed.smi:203-6

> <Gold.Version>
5.8.1

> <Gold.Id.Protein>
6NUR|6NUR_protein|mol2

> <Gold.PLP.Fitness>
45.1921

> <Gold.PLP.PLP>
-44.1553

> <Gold.PLP.part.hbond>
-5.0264

> <Gold.PLP.part.metal>
0.0000

> <Gold.PLP.part.buried>
-4.4026

> <Gold.PLP.part.nonpolar>
-35.4386

> <Gold.PLP.part.repulsive>
0.7058

> <Gold.PLP.ligand.clash>
0.0000

> <Gold.PLP.ligand.torsion>
1.1190

> <Gold.PLP.Chemscore.Hbond>
1.0000

> <Gold.PLP.Chemscore.CHOScore>
0.0000

> <Gold.PLP.Chemscore.Metal>
0.0000

> <Gold.Chemscore.Hbonds>
donor molecule, donor type, donor heavy atom, donor atom, acceptor molecule, acceptor atom, score
      P1  H  7997  8010       L1    17  1.00

> <Gold.PLP.Chemscore.Internal.Correction>
0.2749

> <Gold.Rescore>
     Score         DG    S(hbond)    S(metal)    S(lipo)     H(rot)  DE(clash)    DE(int)     intcor
      8.51     -11.38       0.99        0.00      81.61       2.72       2.13       0.74       ----

> <Gold.Chemscore.Fitness>
8.5147

> <Gold.Chemscore.DG>
-11.3822

> <Gold.Chemscore.ZeroCoef>
-5.4800

> <Gold.Chemscore.Hbond>
0.9909

> <Gold.Chemscore.Metal>
0.0000

> <Gold.Chemscore.Lipo>
81.6092

> <Gold.Chemscore.Internal_Hbond>
0.0000

> <Gold.Chemscore.DEClash>
2.1276

> <Gold.Chemscore.DEInternal>
0.7399

> <Gold.Chemscore.Rot>
2.7171

> <Gold.Chemscore.Internal.Correction>
   9.000000E+99

> <Gold.Chemscore.Hbonds>
donor molecule, donor type, donor heavy atom, donor atom, acceptor molecule, acceptor atom, score
      P1  H  7997  8010       L1    17  0.34

> <Gold.Chemscore.Hbond.Weighted>
-3.3096

> <Gold.Chemscore.Metal.Weighted>
-0.0000

> <Gold.Chemscore.Lipo.Weighted>
-9.5483

> <Gold.Chemscore.Internal_Hbond.Weighted>
0.0000

> <Gold.Chemscore.DEClash.Weighted>
2.1276

> <Gold.Chemscore.DEInternal.Weighted>
0.7399

> <Gold.Chemscore.Rot.Weighted>
6.9557

> <Gold.Chemscore.Internal.Correction.Weighted>
   9.000000E+99

> <Gold.Protein.RotatedTorsions>
[ 6907 6896 6895 6894 ] final   25.51 input  -60.11 | X-H torsion
[ 7974 7965 7964 7962 ] final  123.41 input  175.53 | X-H torsion
[ 8008 7997 7996 7995 ] final  -36.58 input   59.86 | X-H torsion
[ 10167 10162 10161 10158 ] final   74.46 input  -65.29 | X-H torsion
[ 10718 10713 10712 10709 ] final   47.42 input   66.30 | X-H torsion
[ 10763 10752 10751 10750 ] final  -25.93 input  -60.55 | X-H torsion
[ 11005 11000 10999 10996 ] final  111.78 input  -57.11 | X-H torsion

> <Gold.Protein.ActiveResidues>
 VAL166  LYS551  ARG553  GLY616  TRP617  ASP618  TYR619  PRO620  LYS621  CYS622 
 ASP623  PHE694  ASN695  SER759  ASP760  ASP761  ALA762  ILE779  LEU786  VAL792 
 PHE793  MET794  SER795  GLU796  ALA797  LYS798  CYS799  TRP800  GLU811  SER814 

> <Gold.Protein.RotatedAtoms>
  151.9737  135.0064  160.0553 H   0  0  0  0  0  0  0  0  0  0  0  0  # atno 6907 bound_to 6896
  152.1760  133.4670  159.4942 H   0  0  0  0  0  0  0  0  0  0  0  0  # atno 6908 bound_to 6896
  150.6909  134.1811  159.4292 H   0  0  0  0  0  0  0  0  0  0  0  0  # atno 6909 bound_to 6896
  145.0963  139.3551  143.4835 H   0  0  0  0  0  0  0  0  0  0  0  0  # atno 7974 bound_to 7965
  154.4070  140.1627  156.2397 H   0  0  0  0  0  0  0  0  0  0  0  0  # atno 8008 bound_to 7997
  155.9212  140.3421  155.6151 H   0  0  0  0  0  0  0  0  0  0  0  0  # atno 8009 bound_to 7997
  155.7220  140.0769  157.2317 H   0  0  0  0  0  0  0  0  0  0  0  0  # atno 8010 bound_to 7997
  140.0135  144.5596  150.7639 H   0  0  0  0  0  0  0  0  0  0  0  0  # atno 10167 bound_to 10162
  157.4583  130.8180  149.7859 H   0  0  0  0  0  0  0  0  0  0  0  0  # atno 10718 bound_to 10713
  153.7077  135.6952  153.5046 H   0  0  0  0  0  0  0  0  0  0  0  0  # atno 10763 bound_to 10752
  153.2296  135.4342  155.0579 H   0  0  0  0  0  0  0  0  0  0  0  0  # atno 10764 bound_to 10752
  154.8324  135.3481  154.6615 H   0  0  0  0  0  0  0  0  0  0  0  0  # atno 10765 bound_to 10752
  139.8911  134.9515  156.6485 H   0  0  0  0  0  0  0  0  0  0  0  0  # atno 11005 bound_to 11000
  146.3530  140.0820  142.8617 LP  0  0  0  0  0  0  0  0  0  0  0  0  # atno 17320 bound_to 7965
  145.1007  140.9344  143.4714 LP  0  0  0  0  0  0  0  0  0  0  0  0  # atno 17321 bound_to 7965
  140.7372  143.2762  151.3735 LP  0  0  0  0  0  0  0  0  0  0  0  0  # atno 17342 bound_to 10162
  139.6188  144.0948  152.2372 LP  0  0  0  0  0  0  0  0  0  0  0  0  # atno 17343 bound_to 10162
  156.0017  130.3877  150.2581 LP  0  0  0  0  0  0  0  0  0  0  0  0  # atno 17370 bound_to 10713
  157.0757  131.0129  151.3174 LP  0  0  0  0  0  0  0  0  0  0  0  0  # atno 17371 bound_to 10713
  140.7539  133.8874  155.8367 LP  0  0  0  0  0  0  0  0  0  0  0  0  # atno 17394 bound_to 11000
  140.9978  134.1191  157.4347 LP  0  0  0  0  0  0  0  0  0  0  0  0  # atno 17395 bound_to 11000

$$$$
