AV-unprocessed.smi:1355|AV-procd|sdf|5537|dock4
  -GOLD-   22720 5133D 1   1.00000     0.00000
 Structure written by MMmdl.
 32 33  0  0  0  0  0  0  0  0  1 V2000
  151.2291  138.6917  154.5994 C   0  0  0  0  0  0  0  0  0  0  0  0
  150.9680  140.0549  154.8819 O   0  0  0  0  0  0  0  0  0  0  0  0
  151.8278  140.5793  155.8793 C   0  0  0  0  0  0  0  0  0  0  0  0
  151.4519  140.0071  157.2533 C   0  0  0  0  0  0  0  0  0  0  0  0
  152.0895  140.7297  158.3472 N   0  0  0  0  0  0  0  0  0  0  0  0
  152.9251  140.2685  159.3174 C   0  0  0  0  0  0  0  0  0  0  0  0
  153.3673  138.8334  159.4226 C   0  0  1  0  0  0  0  0  0  0  0  0
  152.1806  137.8696  159.5706 C   0  0  0  0  0  0  0  0  0  0  0  0
  154.1277  138.4373  158.3003 O   0  0  0  0  0  0  0  0  0  0  0  0
  153.3261  141.1779  160.2094 N   0  0  0  0  0  0  0  0  0  0  0  0
  152.7218  142.3356  159.7644 C   0  0  0  0  0  0  0  0  0  0  0  0
  152.7684  143.6513  160.2784 C   0  0  0  0  0  0  0  0  0  0  0  0
  152.0595  144.6913  159.6424 C   0  0  0  0  0  0  0  0  0  0  0  0
  151.2951  144.4305  158.4867 C   0  0  0  0  0  0  0  0  0  0  0  0
  151.2334  143.1258  157.9606 C   0  0  0  0  0  0  0  0  0  0  0  0
  151.9435  142.0909  158.5990 C   0  0  0  0  0  0  0  0  0  0  0  0
  150.5505  138.3426  153.8217 H   0  0  0  0  0  0  0  0  0  0  0  0
  151.0756  138.0709  155.4828 H   0  0  0  0  0  0  0  0  0  0  0  0
  152.2504  138.5498  154.2441 H   0  0  0  0  0  0  0  0  0  0  0  0
  152.8650  140.3315  155.6473 H   0  0  0  0  0  0  0  0  0  0  0  0
  151.7505  141.6673  155.8997 H   0  0  0  0  0  0  0  0  0  0  0  0
  150.3716  140.0701  157.3866 H   0  0  0  0  0  0  0  0  0  0  0  0
  151.6880  138.9460  157.3165 H   0  0  0  0  0  0  0  0  0  0  0  0
  154.0075  138.6981  160.2907 H   0  0  0  0  0  0  0  0  0  0  0  0
  151.5818  138.1126  160.4482 H   0  0  0  0  0  0  0  0  0  0  0  0
  152.5224  136.8401  159.6811 H   0  0  0  0  0  0  0  0  0  0  0  0
  151.5226  137.9087  158.7017 H   0  0  0  0  0  0  0  0  0  0  0  0
  153.7257  137.6665  157.9296 H   0  0  0  0  0  0  0  0  0  0  0  0
  153.3516  143.8606  161.1628 H   0  0  0  0  0  0  0  0  0  0  0  0
  152.1028  145.6936  160.0427 H   0  0  0  0  0  0  0  0  0  0  0  0
  150.7558  145.2326  158.0046 H   0  0  0  0  0  0  0  0  0  0  0  0
  150.6480  142.9245  157.0758 H   0  0  0  0  0  0  0  0  0  0  0  0
  1  2  1  0  0  0  0
  1 17  1  0  0  0  0
  1 18  1  0  0  0  0
  1 19  1  0  0  0  0
  2  3  1  0  0  0  0
  3  4  1  0  0  0  0
  3 20  1  0  0  0  0
  3 21  1  0  0  0  0
  4  5  1  0  0  0  0
  4 22  1  0  0  0  0
  4 23  1  0  0  0  0
  5 16  1  0  0  0  0
  5  6  1  0  0  0  0
  6  7  1  0  0  0  0
  6 10  2  0  0  0  0
  7  8  1  0  0  0  0
  7  9  1  0  0  0  0
  7 24  1  0  0  0  0
  8 25  1  0  0  0  0
  8 26  1  0  0  0  0
  8 27  1  0  0  0  0
  9 28  1  0  0  0  0
 10 11  1  0  0  0  0
 11 16  2  0  0  0  0
 11 12  1  0  0  0  0
 12 13  2  0  0  0  0
 12 29  1  0  0  0  0
 13 14  1  0  0  0  0
 13 30  1  0  0  0  0
 14 15  2  0  0  0  0
 14 31  1  0  0  0  0
 15 16  1  0  0  0  0
 15 32  1  0  0  0  0
M  END
> <s_m_source_file>
AV-unprocessed.smi

> <i_m_source_file_index>
1355

> <i_lp_mmshare_version>
43012

> <i_f3d_flags>
0

> <s_epik_input>
W0NIM11PW0NIMl1bQ0gyXW4oYyhuMSlbQ0BIXShbQ0gzXSlbT0hdKWMoYzEyKVtjSF1bY0hdW2NIXVtjSF0y

> <s_epik_cmdline>
J2VwaWtfcHl0aG9uJywgJy1waCcsICc3LjAnLCAnLXRuJywgJzgnLCAnLW1hJywgJzIwMCcsICctbWV0YWxfYmluZGluZycsICctaW1hZScsICc8aW5maWxlLm1hZT4nLCAnLW9tYWUnLCAnPG91dGZpbGUubWFlPic=

> <r_epik_Ionization_Penalty>
0.055138

> <r_epik_Ionization_Penalty_Charging>
0

> <r_epik_Ionization_Penalty_Neutral>
0.055138

> <r_epik_State_Penalty>
0.0474756

> <r_epik_Charging_Adjusted_Penalty>
0.0474756

> <i_epik_Tot_Q>
0

> <i_epik_Tot_abs_Q>
0

> <r_epik_Metal_State_Penalty>
4.94275e-05

> <b_epik_Metal_Only>
0

> <s_lp_Force_Field>
OPLS_2005

> <r_lp_Energy>
6.46782

> <b_lp_Chiralities_Consistent>
1

> <s_lp_Variant>
AV-unprocessed.smi:1355-2

> <Gold.Version>
5.8.1

> <Gold.Id.Protein>
6NUR|6NUR_protein|mol2

> <Gold.PLP.Fitness>
42.2899

> <Gold.PLP.PLP>
-36.4619

> <Gold.PLP.part.hbond>
-2.0000

> <Gold.PLP.part.metal>
0.0000

> <Gold.PLP.part.buried>
-5.2820

> <Gold.PLP.part.nonpolar>
-28.7021

> <Gold.PLP.part.repulsive>
0.0554

> <Gold.PLP.ligand.clash>
0.0000

> <Gold.PLP.ligand.torsion>
0.0901

> <Gold.PLP.Chemscore.Hbond>
2.0000

> <Gold.PLP.Chemscore.CHOScore>
0.0000

> <Gold.PLP.Chemscore.Metal>
0.0000

> <Gold.Chemscore.Hbonds>
donor molecule, donor type, donor heavy atom, donor atom, acceptor molecule, acceptor atom, score
      P1  H  7989  7998       L1     2  0.95
      P1  H  7997  8009       L1     9  1.00

> <Gold.PLP.Chemscore.Internal.Correction>
0.0082

> <Gold.Rescore>
     Score         DG    S(hbond)    S(metal)    S(lipo)     H(rot)  DE(clash)    DE(int)     intcor
     15.92     -16.39       1.38        0.00      98.38       2.04       0.35       0.13       ----

> <Gold.Chemscore.Fitness>
15.9178

> <Gold.Chemscore.DG>
-16.3907

> <Gold.Chemscore.ZeroCoef>
-5.4800

> <Gold.Chemscore.Hbond>
1.3834

> <Gold.Chemscore.Metal>
0.0000

> <Gold.Chemscore.Lipo>
98.3772

> <Gold.Chemscore.Internal_Hbond>
0.0000

> <Gold.Chemscore.DEClash>
0.3461

> <Gold.Chemscore.DEInternal>
0.1267

> <Gold.Chemscore.Rot>
2.0390

> <Gold.Chemscore.Internal.Correction>
   9.000000E+99

> <Gold.Chemscore.Hbonds>
donor molecule, donor type, donor heavy atom, donor atom, acceptor molecule, acceptor atom, score
      P1  H  7989  7998       L1     2  0.09
      P1  H  7997  8009       L1     9  0.82

> <Gold.Chemscore.Hbond.Weighted>
-4.6204

> <Gold.Chemscore.Metal.Weighted>
-0.0000

> <Gold.Chemscore.Lipo.Weighted>
-11.5101

> <Gold.Chemscore.Internal_Hbond.Weighted>
0.0000

> <Gold.Chemscore.DEClash.Weighted>
0.3461

> <Gold.Chemscore.DEInternal.Weighted>
0.1267

> <Gold.Chemscore.Rot.Weighted>
5.2199

> <Gold.Chemscore.Internal.Correction.Weighted>
   9.000000E+99

> <Gold.Protein.RotatedTorsions>
[ 6907 6896 6895 6894 ] final  -75.61 input  -60.11 | X-H torsion
[ 7974 7965 7964 7962 ] final -146.24 input  175.53 | X-H torsion
[ 8008 7997 7996 7995 ] final  138.49 input   59.86 | X-H torsion
[ 10167 10162 10161 10158 ] final -123.38 input  -65.29 | X-H torsion
[ 10718 10713 10712 10709 ] final  157.53 input   66.30 | X-H torsion
[ 10763 10752 10751 10750 ] final  -55.22 input  -60.55 | X-H torsion
[ 11005 11000 10999 10996 ] final -127.05 input  -57.11 | X-H torsion

> <Gold.Protein.ActiveResidues>
 VAL166  LYS551  ARG553  GLY616  TRP617  ASP618  TYR619  PRO620  LYS621  CYS622 
 ASP623  PHE694  ASN695  SER759  ASP760  ASP761  ALA762  ILE779  LEU786  VAL792 
 PHE793  MET794  SER795  GLU796  ALA797  LYS798  CYS799  TRP800  GLU811  SER814 

> <Gold.Protein.RotatedAtoms>
  150.7053  134.4696  159.5418 H   0  0  0  0  0  0  0  0  0  0  0  0  # atno 6907 bound_to 6896
  152.2354  134.8278  160.0477 H   0  0  0  0  0  0  0  0  0  0  0  0  # atno 6908 bound_to 6896
  151.9078  133.3518  159.3890 H   0  0  0  0  0  0  0  0  0  0  0  0  # atno 6909 bound_to 6896
  144.8173  140.5481  143.5602 H   0  0  0  0  0  0  0  0  0  0  0  0  # atno 7974 bound_to 7965
  156.2997  140.2392  156.4082 H   0  0  0  0  0  0  0  0  0  0  0  0  # atno 8008 bound_to 7997
  154.8465  140.0426  157.1596 H   0  0  0  0  0  0  0  0  0  0  0  0  # atno 8009 bound_to 7997
  154.9045  140.2981  155.5303 H   0  0  0  0  0  0  0  0  0  0  0  0  # atno 8010 bound_to 7997
  140.0041  143.5510  152.2291 H   0  0  0  0  0  0  0  0  0  0  0  0  # atno 10167 bound_to 10162
  157.1902  131.0652  151.2084 H   0  0  0  0  0  0  0  0  0  0  0  0  # atno 10718 bound_to 10713
  154.1874  135.6433  153.5050 H   0  0  0  0  0  0  0  0  0  0  0  0  # atno 10763 bound_to 10752
  153.0044  135.5420  154.6451 H   0  0  0  0  0  0  0  0  0  0  0  0  # atno 10764 bound_to 10752
  154.5831  135.2927  155.0685 H   0  0  0  0  0  0  0  0  0  0  0  0  # atno 10765 bound_to 10752
  140.9631  134.0909  157.3948 H   0  0  0  0  0  0  0  0  0  0  0  0  # atno 11005 bound_to 11000
  145.5186  139.1477  143.3565 LP  0  0  0  0  0  0  0  0  0  0  0  0  # atno 17320 bound_to 7965
  146.2477  140.5326  142.8907 LP  0  0  0  0  0  0  0  0  0  0  0  0  # atno 17321 bound_to 7965
  139.6251  144.7636  151.2656 LP  0  0  0  0  0  0  0  0  0  0  0  0  # atno 17342 bound_to 10162
  140.7407  143.6578  150.8191 LP  0  0  0  0  0  0  0  0  0  0  0  0  # atno 17343 bound_to 10162
  157.3868  130.7261  149.6669 LP  0  0  0  0  0  0  0  0  0  0  0  0  # atno 17370 bound_to 10713
  155.9713  130.4157  150.4196 LP  0  0  0  0  0  0  0  0  0  0  0  0  # atno 17371 bound_to 10713
  139.8885  135.0098  156.6623 LP  0  0  0  0  0  0  0  0  0  0  0  0  # atno 17394 bound_to 11000
  140.7439  133.8955  155.8297 LP  0  0  0  0  0  0  0  0  0  0  0  0  # atno 17395 bound_to 11000

$$$$
