AV-unprocessed.smi:2439|AV-procd|sdf|9607|dock9
  -GOLD-   2272013243D 1   1.00000     0.00000
 Structure written by MMmdl.
 41 43  0  0  0  0  0  0  0  0  2 V2000
  148.8519  132.9290  153.0932 N   0  0  0  0  0  0  0  0  0  0  0  0
  147.8596  132.9011  152.4988 C   0  0  0  0  0  0  0  0  0  0  0  0
  146.6083  132.8670  151.7515 C   0  0  0  0  0  0  0  0  0  0  0  0
  145.9737  131.6259  151.5339 C   0  0  0  0  0  0  0  0  0  0  0  0
  144.7681  131.5898  150.8094 C   0  0  0  0  0  0  0  0  0  0  0  0
  144.2419  132.8034  150.3308 C   0  0  0  0  0  0  0  0  0  0  0  0
  144.8376  133.9973  150.5326 N   0  0  0  0  0  0  0  0  0  0  0  0
  146.0010  134.0395  151.2273 C   0  0  0  0  0  0  0  0  0  0  0  0
  146.5964  135.2988  151.4204 N   0  0  0  0  0  0  0  0  0  0  0  0
  145.9932  136.4985  150.8572 C   0  0  0  0  0  0  0  0  0  0  0  0
  145.6213  137.5111  151.9484 C   0  0  2  0  0  0  0  0  0  0  0  0
  146.7267  138.5663  152.1385 C   0  0  0  0  0  0  0  0  0  0  0  0
  146.3968  139.4752  153.2643 N   0  3  2  0  0  0  0  0  0  0  0  0
  147.3957  140.5551  153.4776 C   0  0  0  0  0  0  0  0  0  0  0  0
  148.6834  140.0342  154.1445 C   0  0  0  0  0  0  0  0  0  0  0  0
  148.3676  139.2876  155.4479 C   0  0  0  0  0  0  0  0  0  0  0  0
  147.3407  138.1753  155.1929 C   0  0  0  0  0  0  0  0  0  0  0  0
  146.0710  138.7367  154.5155 C   0  0  2  0  0  0  0  0  0  0  0  0
  145.0186  137.6478  154.2304 C   0  0  0  0  0  0  0  0  0  0  0  0
  145.4585  136.8040  153.1735 O   0  0  0  0  0  0  0  0  0  0  0  0
  146.4015  130.7095  151.9148 H   0  0  0  0  0  0  0  0  0  0  0  0
  144.2594  130.6550  150.6253 H   0  0  0  0  0  0  0  0  0  0  0  0
  143.3183  132.8173  149.7714 H   0  0  0  0  0  0  0  0  0  0  0  0
  147.5557  135.3437  151.7331 H   0  0  0  0  0  0  0  0  0  0  0  0
  146.6775  136.9537  150.1399 H   0  0  0  0  0  0  0  0  0  0  0  0
  145.0963  136.2084  150.3087 H   0  0  0  0  0  0  0  0  0  0  0  0
  144.6864  138.0060  151.6773 H   0  0  0  0  0  0  0  0  0  0  0  0
  147.6820  138.0718  152.3158 H   0  0  0  0  0  0  0  0  0  0  0  0
  146.8401  139.1511  151.2250 H   0  0  0  0  0  0  0  0  0  0  0  0
  147.6263  141.0427  152.5296 H   0  0  0  0  0  0  0  0  0  0  0  0
  146.9431  141.3181  154.1125 H   0  0  0  0  0  0  0  0  0  0  0  0
  149.2207  139.3744  153.4626 H   0  0  0  0  0  0  0  0  0  0  0  0
  149.3555  140.8676  154.3505 H   0  0  0  0  0  0  0  0  0  0  0  0
  149.2801  138.8675  155.8714 H   0  0  0  0  0  0  0  0  0  0  0  0
  147.9746  139.9877  156.1863 H   0  0  0  0  0  0  0  0  0  0  0  0
  147.7892  137.3959  154.5758 H   0  0  0  0  0  0  0  0  0  0  0  0
  147.0778  137.6988  156.1378 H   0  0  0  0  0  0  0  0  0  0  0  0
  145.6223  139.4538  155.2045 H   0  0  0  0  0  0  0  0  0  0  0  0
  144.8434  137.0433  155.1206 H   0  0  0  0  0  0  0  0  0  0  0  0
  144.0602  138.0982  153.9664 H   0  0  0  0  0  0  0  0  0  0  0  0
  145.5438  139.9395  152.9869 H   0  0  0  0  0  0  0  0  0  0  0  0
  1  2  3  0  0  0  0
  2  3  1  0  0  0  0
  3  8  1  0  0  0  0
  3  4  2  0  0  0  0
  4  5  1  0  0  0  0
  4 21  1  0  0  0  0
  5  6  2  0  0  0  0
  5 22  1  0  0  0  0
  6  7  1  0  0  0  0
  6 23  1  0  0  0  0
  7  8  2  0  0  0  0
  8  9  1  0  0  0  0
  9 10  1  0  0  0  0
  9 24  1  0  0  0  0
 10 11  1  0  0  0  0
 10 25  1  0  0  0  0
 10 26  1  0  0  0  0
 11 20  1  0  0  0  0
 11 12  1  0  0  0  0
 11 27  1  0  0  0  0
 12 13  1  0  0  0  0
 12 28  1  0  0  0  0
 12 29  1  0  0  0  0
 13 18  1  0  0  0  0
 13 14  1  0  0  0  0
 13 41  1  0  0  0  0
 14 15  1  0  0  0  0
 14 30  1  0  0  0  0
 14 31  1  0  0  0  0
 15 16  1  0  0  0  0
 15 32  1  0  0  0  0
 15 33  1  0  0  0  0
 16 17  1  0  0  0  0
 16 34  1  0  0  0  0
 16 35  1  0  0  0  0
 17 18  1  0  0  0  0
 17 36  1  0  0  0  0
 17 37  1  0  0  0  0
 18 19  1  0  0  0  0
 18 38  1  0  0  0  0
 19 20  1  0  0  0  0
 19 39  1  0  0  0  0
 19 40  1  0  0  0  0
M  CHG  1  13   1
M  END
> <s_m_source_file>
AV-unprocessed.smi

> <i_m_source_file_index>
2439

> <i_lp_mmshare_version>
43012

> <i_f3d_flags>
0

> <s_epik_input>
TiNDYzFbY0hdW2NIXVtjSF1uYzFbTkhdW0NIMl1bQ0BIXShbQ0gyXTIpT1tDSDJdW0NAQEhdKE4yMylbQ0gyXVtDSDJdW0NIMl1bQ0gyXTM=

> <s_epik_cmdline>
J2VwaWtfcHl0aG9uJywgJy1waCcsICc3LjAnLCAnLXRuJywgJzgnLCAnLW1hJywgJzIwMCcsICctbWV0YWxfYmluZGluZycsICctaW1hZScsICc8aW5maWxlLm1hZT4nLCAnLW9tYWUnLCAnPG91dGZpbGUubWFlPic=

> <r_epik_Ionization_Penalty>
0.0803594

> <r_epik_Ionization_Penalty_Charging>
0.0803403

> <r_epik_Ionization_Penalty_Neutral>
1.90988e-05

> <r_epik_State_Penalty>
0.0711481

> <r_epik_Charging_Adjusted_Penalty>
0.151488

> <i_epik_Tot_Q>
1

> <i_epik_Tot_abs_Q>
1

> <r_epik_Metal_State_Penalty>
0.0711482

> <b_epik_Metal_Only>
0

> <s_lp_Force_Field>
OPLS_2005

> <r_lp_Energy>
31.0257

> <b_lp_Chiralities_Consistent>
1

> <s_lp_Variant>
AV-unprocessed.smi:2439-5

> <Gold.Version>
5.8.1

> <Gold.Id.Protein>
6NUR|6NUR_protein|mol2

> <Gold.PLP.Fitness>
40.6296

> <Gold.PLP.PLP>
-29.6862

> <Gold.PLP.part.hbond>
-2.0000

> <Gold.PLP.part.metal>
0.0000

> <Gold.PLP.part.buried>
-0.0375

> <Gold.PLP.part.nonpolar>
-28.9192

> <Gold.PLP.part.repulsive>
0.6035

> <Gold.PLP.ligand.clash>
0.0000

> <Gold.PLP.ligand.torsion>
0.4926

> <Gold.PLP.Chemscore.Hbond>
2.9760

> <Gold.PLP.Chemscore.CHOScore>
1.0000

> <Gold.PLP.Chemscore.Metal>
0.0000

> <Gold.Chemscore.Hbonds>
donor molecule, donor type, donor heavy atom, donor atom, acceptor molecule, acceptor atom, score
      L1  H     9    24       P1  7948  0.96
      L1  H    13    41       P1 10175  2.00
      L1  C     6    23       P1 10186  0.27

> <Gold.PLP.Chemscore.Internal.Correction>
0.0006

> <Gold.Rescore>
     Score         DG    S(hbond)    S(metal)    S(lipo)     H(rot)  DE(clash)    DE(int)     intcor
     16.48     -17.72       1.93        0.00      77.26       1.27       0.83       0.42       ----

> <Gold.Chemscore.Fitness>
16.4792

> <Gold.Chemscore.DG>
-17.7247

> <Gold.Chemscore.ZeroCoef>
-5.4800

> <Gold.Chemscore.Hbond>
1.9298

> <Gold.Chemscore.Metal>
0.0000

> <Gold.Chemscore.Lipo>
77.2634

> <Gold.Chemscore.Internal_Hbond>
0.0000

> <Gold.Chemscore.DEClash>
0.8275

> <Gold.Chemscore.DEInternal>
0.4180

> <Gold.Chemscore.Rot>
1.2659

> <Gold.Chemscore.Internal.Correction>
   9.000000E+99

> <Gold.Chemscore.Hbonds>
donor molecule, donor type, donor heavy atom, donor atom, acceptor molecule, acceptor atom, score
      L1  H     9    24       P1  7948  0.86
      L1  H    13    41       P1 10175  0.96

> <Gold.Chemscore.Hbond.Weighted>
-6.4456

> <Gold.Chemscore.Metal.Weighted>
-0.0000

> <Gold.Chemscore.Lipo.Weighted>
-9.0398

> <Gold.Chemscore.Internal_Hbond.Weighted>
0.0000

> <Gold.Chemscore.DEClash.Weighted>
0.8275

> <Gold.Chemscore.DEInternal.Weighted>
0.4180

> <Gold.Chemscore.Rot.Weighted>
3.2408

> <Gold.Chemscore.Internal.Correction.Weighted>
   9.000000E+99

> <Gold.Protein.RotatedTorsions>
[ 6907 6896 6895 6894 ] final -153.70 input  -60.11 | X-H torsion
[ 7974 7965 7964 7962 ] final  116.70 input  175.53 | X-H torsion
[ 8008 7997 7996 7995 ] final   48.63 input   59.86 | X-H torsion
[ 10167 10162 10161 10158 ] final  -12.34 input  -65.29 | X-H torsion
[ 10718 10713 10712 10709 ] final  117.84 input   66.30 | X-H torsion
[ 10763 10752 10751 10750 ] final   67.62 input  -60.55 | X-H torsion
[ 11005 11000 10999 10996 ] final  -95.81 input  -57.11 | X-H torsion

> <Gold.Protein.ActiveResidues>
 VAL166  LYS551  ARG553  GLY616  TRP617  ASP618  TYR619  PRO620  LYS621  CYS622 
 ASP623  PHE694  ASN695  SER759  ASP760  ASP761  ALA762  ILE779  LEU786  VAL792 
 PHE793  MET794  SER795  GLU796  ALA797  LYS798  CYS799  TRP800  GLU811  SER814 

> <Gold.Protein.RotatedAtoms>
  151.2465  133.4372  159.2609 H   0  0  0  0  0  0  0  0  0  0  0  0  # atno 6907 bound_to 6896
  151.0657  134.9766  159.8293 H   0  0  0  0  0  0  0  0  0  0  0  0  # atno 6908 bound_to 6896
  152.5405  134.2413  159.8916 H   0  0  0  0  0  0  0  0  0  0  0  0  # atno 6909 bound_to 6896
  145.1764  139.3073  143.4441 H   0  0  0  0  0  0  0  0  0  0  0  0  # atno 7974 bound_to 7965
  155.3888  140.3432  155.4250 H   0  0  0  0  0  0  0  0  0  0  0  0  # atno 8008 bound_to 7997
  156.1569  140.1588  156.8710 H   0  0  0  0  0  0  0  0  0  0  0  0  # atno 8009 bound_to 7997
  154.5103  140.0791  156.7959 H   0  0  0  0  0  0  0  0  0  0  0  0  # atno 8010 bound_to 7997
  140.7159  143.5542  150.9267 H   0  0  0  0  0  0  0  0  0  0  0  0  # atno 10167 bound_to 10162
  157.6070  131.1041  150.7672 H   0  0  0  0  0  0  0  0  0  0  0  0  # atno 10718 bound_to 10713
  153.0195  135.5277  154.7008 H   0  0  0  0  0  0  0  0  0  0  0  0  # atno 10763 bound_to 10752
  154.6117  135.2879  155.0426 H   0  0  0  0  0  0  0  0  0  0  0  0  # atno 10764 bound_to 10752
  154.1446  135.6572  153.5002 H   0  0  0  0  0  0  0  0  0  0  0  0  # atno 10765 bound_to 10752
  141.1430  133.8053  157.0486 H   0  0  0  0  0  0  0  0  0  0  0  0  # atno 11005 bound_to 11000
  146.3460  140.1928  142.8589 LP  0  0  0  0  0  0  0  0  0  0  0  0  # atno 17320 bound_to 7965
  145.0180  140.8770  143.5184 LP  0  0  0  0  0  0  0  0  0  0  0  0  # atno 17321 bound_to 7965
  139.9267  143.6542  152.3085 LP  0  0  0  0  0  0  0  0  0  0  0  0  # atno 17342 bound_to 10162
  139.6978  144.7639  151.1326 LP  0  0  0  0  0  0  0  0  0  0  0  0  # atno 17343 bound_to 10162
  156.8058  130.4936  149.5363 LP  0  0  0  0  0  0  0  0  0  0  0  0  # atno 17370 bound_to 10713
  156.1159  130.6075  151.0120 LP  0  0  0  0  0  0  0  0  0  0  0  0  # atno 17371 bound_to 10713
  140.0646  134.9736  157.1364 LP  0  0  0  0  0  0  0  0  0  0  0  0  # atno 17394 bound_to 11000
  140.3798  134.2299  155.7172 LP  0  0  0  0  0  0  0  0  0  0  0  0  # atno 17395 bound_to 11000

$$$$
