AV-unprocessed.smi:2527|AV-procd|sdf|9943|dock2
  -GOLD-   2272013583D 1   1.00000     0.00000
 Structure written by MMmdl.
 35 37  0  0  0  0  0  0  0  0  2 V2000
  150.8253  138.3530  154.2966 C   0  0  0  0  0  0  0  0  0  0  0  0
  151.0396  139.7100  154.6403 O   0  0  0  0  0  0  0  0  0  0  0  0
  152.0626  139.8700  155.6104 C   0  0  0  0  0  0  0  0  0  0  0  0
  151.5518  139.4065  156.9820 C   0  0  0  0  0  0  0  0  0  0  0  0
  152.1493  140.1639  158.0720 N   0  0  0  0  0  0  0  0  0  0  0  0
  153.0214  139.7222  159.0125 C   0  0  0  0  0  0  0  0  0  0  0  0
  153.5859  138.0451  159.0236 S   0  0  0  0  0  0  0  0  0  0  0  0
  152.9972  137.5154  160.6593 C   0  0  0  0  0  0  0  0  0  0  0  0
  153.7893  136.3849  161.2495 C   0  0  0  0  0  0  0  0  0  0  0  0
  153.9554  135.2445  160.5276 N   0  5  0  0  0  0  0  0  0  0  0  0
  154.6967  134.4624  161.3324 C   0  0  0  0  0  0  0  0  0  0  0  0
  155.1200  133.3235  161.1464 O   0  0  0  0  0  0  0  0  0  0  0  0
  154.9204  135.1598  162.4486 N   0  0  0  0  0  0  0  0  0  0  0  0
  154.3491  136.3748  162.4013 N   0  0  0  0  0  0  0  0  0  0  0  0
  153.4181  140.6389  159.8981 N   0  0  0  0  0  0  0  0  0  0  0  0
  152.7411  141.7727  159.4961 C   0  0  0  0  0  0  0  0  0  0  0  0
  152.7397  143.0801  160.0326 C   0  0  0  0  0  0  0  0  0  0  0  0
  151.9583  144.0939  159.4402 C   0  0  0  0  0  0  0  0  0  0  0  0
  151.9681  145.6848  160.1075 Cl  0  0  0  0  0  0  0  0  0  0  0  0
  151.1700  143.8143  158.3046 C   0  0  0  0  0  0  0  0  0  0  0  0
  151.1572  142.5179  157.7551 C   0  0  0  0  0  0  0  0  0  0  0  0
  151.9377  141.5099  158.3523 C   0  0  0  0  0  0  0  0  0  0  0  0
  155.4414  134.8740  163.2646 H   0  0  0  0  0  0  0  0  0  0  0  0
  150.0327  138.2851  153.5516 H   0  0  0  0  0  0  0  0  0  0  0  0
  150.5212  137.7692  155.1665 H   0  0  0  0  0  0  0  0  0  0  0  0
  151.7255  137.9070  153.8720 H   0  0  0  0  0  0  0  0  0  0  0  0
  152.9395  139.2866  155.3267 H   0  0  0  0  0  0  0  0  0  0  0  0
  152.3698  140.9158  155.6607 H   0  0  0  0  0  0  0  0  0  0  0  0
  150.4684  139.5177  157.0326 H   0  0  0  0  0  0  0  0  0  0  0  0
  151.7540  138.3453  157.1274 H   0  0  0  0  0  0  0  0  0  0  0  0
  153.0305  138.3706  161.3350 H   0  0  0  0  0  0  0  0  0  0  0  0
  151.9487  137.2255  160.5766 H   0  0  0  0  0  0  0  0  0  0  0  0
  153.3423  143.3016  160.9012 H   0  0  0  0  0  0  0  0  0  0  0  0
  150.5751  144.5951  157.8537 H   0  0  0  0  0  0  0  0  0  0  0  0
  150.5569  142.3017  156.8840 H   0  0  0  0  0  0  0  0  0  0  0  0
  1  2  1  0  0  0  0
  1 24  1  0  0  0  0
  1 25  1  0  0  0  0
  1 26  1  0  0  0  0
  2  3  1  0  0  0  0
  3  4  1  0  0  0  0
  3 27  1  0  0  0  0
  3 28  1  0  0  0  0
  4  5  1  0  0  0  0
  4 29  1  0  0  0  0
  4 30  1  0  0  0  0
  5 22  1  0  0  0  0
  5  6  1  0  0  0  0
  6  7  1  0  0  0  0
  6 15  2  0  0  0  0
  7  8  1  0  0  0  0
  8 31  1  0  0  0  0
  8 32  1  0  0  0  0
  8  9  1  0  0  0  0
  9 14  2  0  0  0  0
  9 10  1  0  0  0  0
 10 11  1  0  0  0  0
 11 13  1  0  0  0  0
 11 12  2  0  0  0  0
 13 14  1  0  0  0  0
 13 23  1  0  0  0  0
 15 16  1  0  0  0  0
 16 22  2  0  0  0  0
 16 17  1  0  0  0  0
 17 18  2  0  0  0  0
 17 33  1  0  0  0  0
 18 19  1  0  0  0  0
 18 20  1  0  0  0  0
 20 21  2  0  0  0  0
 20 34  1  0  0  0  0
 21 22  1  0  0  0  0
 21 35  1  0  0  0  0
M  CHG  1  10  -1
M  END
> <s_m_source_file>
AV-unprocessed.smi

> <i_m_source_file_index>
2527

> <i_lp_mmshare_version>
43012

> <i_f3d_flags>
0

> <s_epik_input>
W2NIXTFjKENsKVtjSF1bY0hdYyhjMTIpbihbQ0gyXVtDSDJdT1tDSDNdKWMobjIpU1tDSDJdYzNuYyg9TylbbkhdW25IXTM=

> <s_epik_cmdline>
J2VwaWtfcHl0aG9uJywgJy1waCcsICc3LjAnLCAnLXRuJywgJzgnLCAnLW1hJywgJzIwMCcsICctbWV0YWxfYmluZGluZycsICctaW1hZScsICc8aW5maWxlLm1hZT4nLCAnLW9tYWUnLCAnPG91dGZpbGUubWFlPic=

> <r_lp_tautomer_probability>
0.992605

> <r_epik_Ionization_Penalty>
1.73518

> <r_epik_Ionization_Penalty_Charging>
3.40377e-05

> <r_epik_Ionization_Penalty_Neutral>
1.73514

> <r_epik_State_Penalty>
1.84086

> <r_epik_Charging_Adjusted_Penalty>
1.8409

> <i_epik_Tot_Q>
-1

> <i_epik_Tot_abs_Q>
1

> <r_epik_Metal_State_Penalty>
0.488407

> <b_epik_Metal_Only>
0

> <s_lp_Force_Field>
OPLS_2005

> <r_lp_Energy>
20.2593

> <b_lp_Chiralities_Consistent>
1

> <s_lp_Variant>
AV-unprocessed.smi:2527-2

> <Gold.Version>
5.8.1

> <Gold.Id.Protein>
6NUR|6NUR_protein|mol2

> <Gold.PLP.Fitness>
51.4792

> <Gold.PLP.PLP>
-43.4395

> <Gold.PLP.part.hbond>
-2.0000

> <Gold.PLP.part.metal>
0.0000

> <Gold.PLP.part.buried>
-6.0673

> <Gold.PLP.part.nonpolar>
-35.3884

> <Gold.PLP.part.repulsive>
0.0939

> <Gold.PLP.ligand.clash>
0.0000

> <Gold.PLP.ligand.torsion>
0.4881

> <Gold.PLP.Chemscore.Hbond>
3.0000

> <Gold.PLP.Chemscore.CHOScore>
0.0000

> <Gold.PLP.Chemscore.Metal>
0.0000

> <Gold.Chemscore.Hbonds>
donor molecule, donor type, donor heavy atom, donor atom, acceptor molecule, acceptor atom, score
      P1  H  6896  6907       L1    10  2.00
      P1  H  7989  7998       L1     2  0.85

> <Gold.PLP.Chemscore.Internal.Correction>
0.0158

> <Gold.Rescore>
     Score         DG    S(hbond)    S(metal)    S(lipo)     H(rot)  DE(clash)    DE(int)     intcor
     16.10     -16.79       1.84        0.00     105.67       2.81       0.15       0.54       ----

> <Gold.Chemscore.Fitness>
16.0956

> <Gold.Chemscore.DG>
-16.7893

> <Gold.Chemscore.ZeroCoef>
-5.4800

> <Gold.Chemscore.Hbond>
1.8375

> <Gold.Chemscore.Metal>
0.0000

> <Gold.Chemscore.Lipo>
105.6733

> <Gold.Chemscore.Internal_Hbond>
0.0000

> <Gold.Chemscore.DEClash>
0.1506

> <Gold.Chemscore.DEInternal>
0.5432

> <Gold.Chemscore.Rot>
2.8092

> <Gold.Chemscore.Internal.Correction>
   9.000000E+99

> <Gold.Chemscore.Hbonds>
donor molecule, donor type, donor heavy atom, donor atom, acceptor molecule, acceptor atom, score
      P1  H  6896  6907       L1    10  0.80
      P1  H  7989  7998       L1     2  0.14

> <Gold.Chemscore.Hbond.Weighted>
-6.1372

> <Gold.Chemscore.Metal.Weighted>
-0.0000

> <Gold.Chemscore.Lipo.Weighted>
-12.3638

> <Gold.Chemscore.Internal_Hbond.Weighted>
0.0000

> <Gold.Chemscore.DEClash.Weighted>
0.1506

> <Gold.Chemscore.DEInternal.Weighted>
0.5432

> <Gold.Chemscore.Rot.Weighted>
7.1916

> <Gold.Chemscore.Internal.Correction.Weighted>
   9.000000E+99

> <Gold.Protein.RotatedTorsions>
[ 6907 6896 6895 6894 ] final   70.02 input  -60.11 | X-H torsion
[ 7974 7965 7964 7962 ] final   31.01 input  175.53 | X-H torsion
[ 8008 7997 7996 7995 ] final  132.65 input   59.86 | X-H torsion
[ 10167 10162 10161 10158 ] final   66.56 input  -65.29 | X-H torsion
[ 10718 10713 10712 10709 ] final  -40.89 input   66.30 | X-H torsion
[ 10763 10752 10751 10750 ] final -157.51 input  -60.55 | X-H torsion
[ 11005 11000 10999 10996 ] final   18.34 input  -57.11 | X-H torsion

> <Gold.Protein.ActiveResidues>
 VAL166  LYS551  ARG553  GLY616  TRP617  ASP618  TYR619  PRO620  LYS621  CYS622 
 ASP623  PHE694  ASN695  SER759  ASP760  ASP761  ALA762  ILE779  LEU786  VAL792 
 PHE793  MET794  SER795  GLU796  ALA797  LYS798  CYS799  TRP800  GLU811  SER814 

> <Gold.Protein.RotatedAtoms>
  152.4723  134.4929  159.9700 H   0  0  0  0  0  0  0  0  0  0  0  0  # atno 6907 bound_to 6896
  151.4953  133.3510  159.2868 H   0  0  0  0  0  0  0  0  0  0  0  0  # atno 6908 bound_to 6896
  150.8741  134.8147  159.7238 H   0  0  0  0  0  0  0  0  0  0  0  0  # atno 6909 bound_to 6896
  146.1576  139.6713  142.9055 H   0  0  0  0  0  0  0  0  0  0  0  0  # atno 7974 bound_to 7965
  156.2985  140.2541  156.3124 H   0  0  0  0  0  0  0  0  0  0  0  0  # atno 8008 bound_to 7997
  154.9313  140.0398  157.2068 H   0  0  0  0  0  0  0  0  0  0  0  0  # atno 8009 bound_to 7997
  154.8215  140.2861  155.5788 H   0  0  0  0  0  0  0  0  0  0  0  0  # atno 8010 bound_to 7997
  140.0991  144.4920  150.7049 H   0  0  0  0  0  0  0  0  0  0  0  0  # atno 10167 bound_to 10162
  156.2764  130.4212  149.8383 H   0  0  0  0  0  0  0  0  0  0  0  0  # atno 10718 bound_to 10713
  154.7630  135.3123  154.8342 H   0  0  0  0  0  0  0  0  0  0  0  0  # atno 10763 bound_to 10752
  153.9097  135.6807  153.4755 H   0  0  0  0  0  0  0  0  0  0  0  0  # atno 10764 bound_to 10752
  153.1232  135.4813  154.9162 H   0  0  0  0  0  0  0  0  0  0  0  0  # atno 10765 bound_to 10752
  140.4258  134.1471  155.7676 H   0  0  0  0  0  0  0  0  0  0  0  0  # atno 11005 bound_to 11000
  145.4668  141.0435  143.2721 LP  0  0  0  0  0  0  0  0  0  0  0  0  # atno 17320 bound_to 7965
  144.7984  139.6188  143.7082 LP  0  0  0  0  0  0  0  0  0  0  0  0  # atno 17321 bound_to 7965
  140.6988  143.2421  151.4925 LP  0  0  0  0  0  0  0  0  0  0  0  0  # atno 17342 bound_to 10162
  139.5681  144.1993  152.1796 LP  0  0  0  0  0  0  0  0  0  0  0  0  # atno 17343 bound_to 10162
  156.5846  130.8480  151.3392 LP  0  0  0  0  0  0  0  0  0  0  0  0  # atno 17370 bound_to 10713
  157.7300  130.9680  150.1815 LP  0  0  0  0  0  0  0  0  0  0  0  0  # atno 17371 bound_to 10713
  141.1765  133.8502  157.1402 LP  0  0  0  0  0  0  0  0  0  0  0  0  # atno 17394 bound_to 11000
  140.0168  134.9964  157.0510 LP  0  0  0  0  0  0  0  0  0  0  0  0  # atno 17395 bound_to 11000

$$$$
