AV-unprocessed.smi:1782|AV-procd|sdf|7190|dock10
  -GOLD-   22720 8433D 1   1.00000     0.00000
 Structure written by MMmdl.
 42 44  0  0  0  0  0  0  0  0  2 V2000
  149.7715  142.1287  158.3587 O   0  0  0  0  0  0  0  0  0  0  0  0
  150.8367  142.1091  157.7438 C   0  0  0  0  0  0  0  0  0  0  0  0
  152.0429  142.8775  158.3129 C   0  0  0  0  0  0  0  0  0  0  0  0
  152.7376  142.2132  159.4320 N   0  0  0  0  0  0  0  0  0  0  0  0
  152.9010  142.9623  160.6108 C   0  0  0  0  0  0  0  0  0  0  0  0
  153.5198  142.4585  161.6870 C   0  0  0  0  0  0  0  0  0  0  0  0
  154.0254  141.1094  161.6139 C   0  0  0  0  0  0  0  0  0  0  0  0
  153.8874  140.3653  160.4923 C   0  0  0  0  0  0  0  0  0  0  0  0
  154.4220  138.9380  160.3957 C   0  0  0  0  0  0  0  0  0  0  0  0
  153.4306  138.0809  160.1499 F   0  0  0  0  0  0  0  0  0  0  0  0
  155.3133  138.8394  159.4085 F   0  0  0  0  0  0  0  0  0  0  0  0
  155.0211  138.5566  161.5248 F   0  0  0  0  0  0  0  0  0  0  0  0
  153.2041  140.9310  159.3112 C   0  0  0  0  0  0  0  0  0  0  0  0
  153.0655  140.2985  158.2631 O   0  0  0  0  0  0  0  0  0  0  0  0
  150.9938  141.4377  156.5907 N   0  0  0  0  0  0  0  0  0  0  0  0
  149.9633  140.6404  155.9376 C   0  0  2  0  0  0  0  0  0  0  0  0
  150.4608  139.3322  155.3300 C   0  0  0  0  0  0  0  0  0  0  0  0
  149.3652  139.0032  154.3103 C   0  0  0  0  0  0  0  0  0  0  0  0
  148.7838  140.2985  153.8773 N   0  3  1  0  0  0  0  0  0  0  0  0
  147.3047  140.3119  153.8701 C   0  0  0  0  0  0  0  0  0  0  0  0
  146.6859  139.3361  154.8424 C   0  0  0  0  0  0  0  0  0  0  0  0
  146.6937  139.0282  153.3606 C   0  0  0  0  0  0  0  0  0  0  0  0
  149.3813  141.3577  154.7202 C   0  0  0  0  0  0  0  0  0  0  0  0
  152.7394  143.0608  157.4934 H   0  0  0  0  0  0  0  0  0  0  0  0
  151.7060  143.8701  158.6170 H   0  0  0  0  0  0  0  0  0  0  0  0
  152.4983  143.9646  160.5819 H   0  0  0  0  0  0  0  0  0  0  0  0
  153.6387  143.0474  162.5847 H   0  0  0  0  0  0  0  0  0  0  0  0
  154.5237  140.7012  162.4807 H   0  0  0  0  0  0  0  0  0  0  0  0
  151.8982  141.4747  156.1431 H   0  0  0  0  0  0  0  0  0  0  0  0
  149.1582  140.4313  156.6451 H   0  0  0  0  0  0  0  0  0  0  0  0
  151.4123  139.4887  154.8189 H   0  0  0  0  0  0  0  0  0  0  0  0
  150.6000  138.5426  156.0692 H   0  0  0  0  0  0  0  0  0  0  0  0
  149.7521  138.4428  153.4590 H   0  0  0  0  0  0  0  0  0  0  0  0
  148.5996  138.3888  154.7875 H   0  0  0  0  0  0  0  0  0  0  0  0
  146.8283  141.2701  153.6685 H   0  0  0  0  0  0  0  0  0  0  0  0
  147.3491  138.7549  155.4810 H   0  0  0  0  0  0  0  0  0  0  0  0
  145.7317  139.6088  155.2890 H   0  0  0  0  0  0  0  0  0  0  0  0
  145.7452  139.0988  152.8317 H   0  0  0  0  0  0  0  0  0  0  0  0
  147.3617  138.2415  153.0139 H   0  0  0  0  0  0  0  0  0  0  0  0
  148.6665  142.1344  154.9969 H   0  0  0  0  0  0  0  0  0  0  0  0
  150.1758  141.8341  154.1435 H   0  0  0  0  0  0  0  0  0  0  0  0
  149.0873  140.4707  152.9295 H   0  0  0  0  0  0  0  0  0  0  0  0
  1  2  2  0  0  0  0
  2  3  1  0  0  0  0
  2 15  1  0  0  0  0
  3  4  1  0  0  0  0
  3 24  1  0  0  0  0
  3 25  1  0  0  0  0
  4 13  1  0  0  0  0
  4  5  1  0  0  0  0
  5  6  2  0  0  0  0
  5 26  1  0  0  0  0
  6  7  1  0  0  0  0
  6 27  1  0  0  0  0
  7  8  2  0  0  0  0
  7 28  1  0  0  0  0
  8  9  1  0  0  0  0
  8 13  1  0  0  0  0
  9 10  1  0  0  0  0
  9 11  1  0  0  0  0
  9 12  1  0  0  0  0
 13 14  2  0  0  0  0
 15 16  1  0  0  0  0
 15 29  1  0  0  0  0
 16 23  1  0  0  0  0
 16 17  1  0  0  0  0
 16 30  1  0  0  0  0
 17 18  1  0  0  0  0
 17 31  1  0  0  0  0
 17 32  1  0  0  0  0
 18 19  1  0  0  0  0
 18 33  1  0  0  0  0
 18 34  1  0  0  0  0
 19 20  1  0  0  0  0
 19 23  1  0  0  0  0
 19 42  1  0  0  0  0
 20 22  1  0  0  0  0
 20 21  1  0  0  0  0
 20 35  1  0  0  0  0
 21 22  1  0  0  0  0
 21 36  1  0  0  0  0
 21 37  1  0  0  0  0
 22 38  1  0  0  0  0
 22 39  1  0  0  0  0
 23 40  1  0  0  0  0
 23 41  1  0  0  0  0
M  CHG  1  19   1
M  END
> <s_m_source_file>
AV-unprocessed.smi

> <i_m_source_file_index>
1782

> <i_lp_mmshare_version>
43012

> <i_f3d_flags>
0

> <s_epik_input>
W0NIMl0xW0NIMl1bQ0hdMU4oW0NIMl0yKVtDSDJdW0NIMl1bQ0BIXTJbTkhdQyg9TylbQ0gyXW4zW2NIXVtjSF1bY0hdYyhDKEYpKEYpRiljMz1P

> <s_epik_cmdline>
J2VwaWtfcHl0aG9uJywgJy1waCcsICc3LjAnLCAnLXRuJywgJzgnLCAnLW1hJywgJzIwMCcsICctbWV0YWxfYmluZGluZycsICctaW1hZScsICc8aW5maWxlLm1hZT4nLCAnLW9tYWUnLCAnPG91dGZpbGUubWFlPic=

> <r_lp_tautomer_probability>
1

> <r_epik_Ionization_Penalty>
0.00106789

> <r_epik_Ionization_Penalty_Charging>
0.00106781

> <r_epik_Ionization_Penalty_Neutral>
8.2288e-08

> <r_epik_State_Penalty>
0.000699156

> <r_epik_Charging_Adjusted_Penalty>
0.00176697

> <i_epik_Tot_Q>
1

> <i_epik_Tot_abs_Q>
1

> <r_epik_Metal_State_Penalty>
-0

> <b_epik_Metal_Only>
0

> <s_lp_Force_Field>
OPLS_2005

> <r_lp_Energy>
47.5501

> <b_lp_Chiralities_Consistent>
1

> <s_lp_Variant>
AV-unprocessed.smi:1782-3

> <Gold.Version>
5.8.1

> <Gold.Id.Protein>
6NUR|6NUR_protein|mol2

> <Gold.PLP.Fitness>
49.5263

> <Gold.PLP.PLP>
-44.8939

> <Gold.PLP.part.hbond>
-2.0000

> <Gold.PLP.part.metal>
0.0000

> <Gold.PLP.part.buried>
-4.2417

> <Gold.PLP.part.nonpolar>
-38.4635

> <Gold.PLP.part.repulsive>
0.3421

> <Gold.PLP.ligand.clash>
0.3046

> <Gold.PLP.ligand.torsion>
1.1497

> <Gold.PLP.Chemscore.Hbond>
1.8800

> <Gold.PLP.Chemscore.CHOScore>
0.0000

> <Gold.PLP.Chemscore.Metal>
0.0000

> <Gold.Chemscore.Hbonds>
donor molecule, donor type, donor heavy atom, donor atom, acceptor molecule, acceptor atom, score
      L1  H    19    42       P1  7957  1.00
      P1  H  7997  8009       L1    14  0.91

> <Gold.PLP.Chemscore.Internal.Correction>
1.5963

> <Gold.Rescore>
     Score         DG    S(hbond)    S(metal)    S(lipo)     H(rot)  DE(clash)    DE(int)     intcor
     14.73     -18.84       1.89        0.00      99.86       1.81       0.02       4.09       ----

> <Gold.Chemscore.Fitness>
14.7291

> <Gold.Chemscore.DG>
-18.8414

> <Gold.Chemscore.ZeroCoef>
-5.4800

> <Gold.Chemscore.Hbond>
1.8897

> <Gold.Chemscore.Metal>
0.0000

> <Gold.Chemscore.Lipo>
99.8587

> <Gold.Chemscore.Internal_Hbond>
0.0000

> <Gold.Chemscore.DEClash>
0.0211

> <Gold.Chemscore.DEInternal>
4.0911

> <Gold.Chemscore.Rot>
1.8101

> <Gold.Chemscore.Internal.Correction>
   9.000000E+99

> <Gold.Chemscore.Hbonds>
donor molecule, donor type, donor heavy atom, donor atom, acceptor molecule, acceptor atom, score
      L1  H    19    42       P1  7957  0.99
      P1  H  7997  8009       L1    14  0.86

> <Gold.Chemscore.Hbond.Weighted>
-6.3117

> <Gold.Chemscore.Metal.Weighted>
-0.0000

> <Gold.Chemscore.Lipo.Weighted>
-11.6835

> <Gold.Chemscore.Internal_Hbond.Weighted>
0.0000

> <Gold.Chemscore.DEClash.Weighted>
0.0211

> <Gold.Chemscore.DEInternal.Weighted>
4.0911

> <Gold.Chemscore.Rot.Weighted>
4.6338

> <Gold.Chemscore.Internal.Correction.Weighted>
   9.000000E+99

> <Gold.Protein.RotatedTorsions>
[ 6907 6896 6895 6894 ] final  140.48 input  -60.11 | X-H torsion
[ 7974 7965 7964 7962 ] final -141.01 input  175.53 | X-H torsion
[ 8008 7997 7996 7995 ] final  154.83 input   59.86 | X-H torsion
[ 10167 10162 10161 10158 ] final   -7.41 input  -65.29 | X-H torsion
[ 10718 10713 10712 10709 ] final  142.58 input   66.30 | X-H torsion
[ 10763 10752 10751 10750 ] final -135.65 input  -60.55 | X-H torsion
[ 11005 11000 10999 10996 ] final -128.17 input  -57.11 | X-H torsion

> <Gold.Protein.ActiveResidues>
 VAL166  LYS551  ARG553  GLY616  TRP617  ASP618  TYR619  PRO620  LYS621  CYS622 
 ASP623  PHE694  ASN695  SER759  ASP760  ASP761  ALA762  ILE779  LEU786  VAL792 
 PHE793  MET794  SER795  GLU796  ALA797  LYS798  CYS799  TRP800  GLU811  SER814 

> <Gold.Protein.RotatedAtoms>
  152.2425  133.5147  159.5277 H   0  0  0  0  0  0  0  0  0  0  0  0  # atno 6907 bound_to 6896
  150.7068  134.1070  159.3995 H   0  0  0  0  0  0  0  0  0  0  0  0  # atno 6908 bound_to 6896
  151.8991  135.0385  160.0555 H   0  0  0  0  0  0  0  0  0  0  0  0  # atno 6909 bound_to 6896
  144.8552  140.6131  143.5364 H   0  0  0  0  0  0  0  0  0  0  0  0  # atno 7974 bound_to 7965
  156.2511  140.1956  156.6707 H   0  0  0  0  0  0  0  0  0  0  0  0  # atno 8008 bound_to 7997
  154.6395  140.0585  156.9854 H   0  0  0  0  0  0  0  0  0  0  0  0  # atno 8009 bound_to 7997
  155.1585  140.3257  155.4419 H   0  0  0  0  0  0  0  0  0  0  0  0  # atno 8010 bound_to 7997
  140.7028  143.6084  150.8728 H   0  0  0  0  0  0  0  0  0  0  0  0  # atno 10167 bound_to 10162
  157.3789  131.0989  151.0757 H   0  0  0  0  0  0  0  0  0  0  0  0  # atno 10718 bound_to 10713
  154.8699  135.3697  154.4932 H   0  0  0  0  0  0  0  0  0  0  0  0  # atno 10763 bound_to 10752
  153.5577  135.7023  153.5566 H   0  0  0  0  0  0  0  0  0  0  0  0  # atno 10764 bound_to 10752
  153.3656  135.4035  155.1714 H   0  0  0  0  0  0  0  0  0  0  0  0  # atno 10765 bound_to 10752
  140.9538  134.1029  157.4036 H   0  0  0  0  0  0  0  0  0  0  0  0  # atno 11005 bound_to 11000
  145.4420  139.1534  143.3965 LP  0  0  0  0  0  0  0  0  0  0  0  0  # atno 17320 bound_to 7965
  146.2817  140.4542  142.8773 LP  0  0  0  0  0  0  0  0  0  0  0  0  # atno 17321 bound_to 7965
  139.9807  143.5954  152.2944 LP  0  0  0  0  0  0  0  0  0  0  0  0  # atno 17342 bound_to 10162
  139.6574  144.7662  151.2029 LP  0  0  0  0  0  0  0  0  0  0  0  0  # atno 17343 bound_to 10162
  157.1834  130.6319  149.5679 LP  0  0  0  0  0  0  0  0  0  0  0  0  # atno 17370 bound_to 10713
  155.9771  130.4746  150.6573 LP  0  0  0  0  0  0  0  0  0  0  0  0  # atno 17371 bound_to 10713
  139.8856  135.0073  156.6444 LP  0  0  0  0  0  0  0  0  0  0  0  0  # atno 17394 bound_to 11000
  140.7564  133.8854  155.8385 LP  0  0  0  0  0  0  0  0  0  0  0  0  # atno 17395 bound_to 11000

$$$$
