AV-unprocessed.smi:101|AV-procd|sdf|938|dock6
  -GOLD-   2262017453D 1   1.00000     0.00000
 Structure written by MMmdl.
 43 45  0  0  0  0  0  0  0  0  2 V2000
  151.0846  132.2489  154.2384 C   0  0  0  0  0  0  0  0  0  0  0  0
  150.7724  133.2249  155.3593 C   0  0  0  0  0  0  0  0  0  0  0  0
  150.4261  134.5095  155.1215 C   0  0  0  0  0  0  0  0  0  0  0  0
  150.1438  135.3944  156.1476 N   0  0  0  0  0  0  0  0  0  0  0  0
  149.7404  136.8213  155.8565 C   0  0  1  0  0  0  0  0  0  0  0  0
  150.5952  137.6854  156.5450 O   0  0  0  0  0  0  0  0  0  0  0  0
  150.9885  138.7510  155.6911 C   0  0  1  0  0  0  0  0  0  0  0  0
  152.3057  139.3825  156.1636 C   0  0  0  0  0  0  0  0  0  0  0  0
  152.0763  140.1011  157.3642 O   0  0  0  0  0  0  0  0  0  0  0  0
  153.0166  140.1187  158.3287 C   0  0  0  0  0  0  0  0  0  0  0  0
  153.9751  139.3441  158.3606 O   0  0  0  0  0  0  0  0  0  0  0  0
  152.7790  141.1772  159.3523 C   0  0  0  0  0  0  0  0  0  0  0  0
  153.4843  141.1271  160.5775 C   0  0  0  0  0  0  0  0  0  0  0  0
  153.2827  142.1136  161.5623 C   0  0  0  0  0  0  0  0  0  0  0  0
  152.3730  143.1624  161.3341 C   0  0  0  0  0  0  0  0  0  0  0  0
  151.6634  143.2224  160.1206 C   0  0  0  0  0  0  0  0  0  0  0  0
  151.8632  142.2364  159.1346 C   0  0  0  0  0  0  0  0  0  0  0  0
  151.0229  138.1115  154.2984 C   0  0  1  0  0  0  0  0  0  0  0  0
  152.2479  137.4367  154.0744 O   0  0  0  0  0  0  0  0  0  0  0  0
  149.8699  137.1178  154.3513 C   0  0  2  0  0  0  0  0  0  0  0  0
  148.6888  137.7075  153.8471 O   0  0  0  0  0  0  0  0  0  0  0  0
  150.1798  134.9454  157.4927 C   0  0  0  0  0  0  0  0  0  0  0  0
  149.8773  135.7458  158.3786 O   0  0  0  0  0  0  0  0  0  0  0  0
  150.5362  133.6535  157.7429 N   0  5  0  0  0  0  0  0  0  0  0  0
  150.8410  132.7664  156.7523 C   0  0  0  0  0  0  0  0  0  0  0  0
  151.1664  131.6040  156.9930 O   0  0  0  0  0  0  0  0  0  0  0  0
  150.9996  132.7268  153.2620 H   0  0  0  0  0  0  0  0  0  0  0  0
  150.3939  131.4055  154.2638 H   0  0  0  0  0  0  0  0  0  0  0  0
  152.1005  131.8662  154.3398 H   0  0  0  0  0  0  0  0  0  0  0  0
  150.3637  134.8465  154.0975 H   0  0  0  0  0  0  0  0  0  0  0  0
  148.7298  136.9407  156.2510 H   0  0  0  0  0  0  0  0  0  0  0  0
  150.1958  139.5014  155.7019 H   0  0  0  0  0  0  0  0  0  0  0  0
  153.0681  138.6168  156.3157 H   0  0  0  0  0  0  0  0  0  0  0  0
  152.6762  140.0734  155.4051 H   0  0  0  0  0  0  0  0  0  0  0  0
  154.1889  140.3321  160.7752 H   0  0  0  0  0  0  0  0  0  0  0  0
  153.8275  142.0650  162.4936 H   0  0  0  0  0  0  0  0  0  0  0  0
  152.2194  143.9195  162.0888 H   0  0  0  0  0  0  0  0  0  0  0  0
  150.9638  144.0261  159.9443 H   0  0  0  0  0  0  0  0  0  0  0  0
  151.3008  142.3116  158.2153 H   0  0  0  0  0  0  0  0  0  0  0  0
  150.9011  138.8537  153.5082 H   0  0  0  0  0  0  0  0  0  0  0  0
  152.1815  136.9526  153.2660 H   0  0  0  0  0  0  0  0  0  0  0  0
  150.0738  136.2105  153.7796 H   0  0  0  0  0  0  0  0  0  0  0  0
  148.7120  138.6308  154.0503 H   0  0  0  0  0  0  0  0  0  0  0  0
  1  2  1  0  0  0  0
  1 27  1  0  0  0  0
  1 28  1  0  0  0  0
  1 29  1  0  0  0  0
  2 25  1  0  0  0  0
  2  3  2  0  0  0  0
  3  4  1  0  0  0  0
  3 30  1  0  0  0  0
  4  5  1  0  0  0  0
  4 22  1  0  0  0  0
  5 20  1  0  0  0  0
  5  6  1  0  0  0  0
  5 31  1  0  0  0  0
  6  7  1  0  0  0  0
  7  8  1  0  0  0  0
  7 18  1  0  0  0  0
  7 32  1  0  0  0  0
  8  9  1  0  0  0  0
  8 33  1  0  0  0  0
  8 34  1  0  0  0  0
  9 10  1  0  0  0  0
 10 11  2  0  0  0  0
 10 12  1  0  0  0  0
 12 17  1  0  0  0  0
 12 13  2  0  0  0  0
 13 14  1  0  0  0  0
 13 35  1  0  0  0  0
 14 15  2  0  0  0  0
 14 36  1  0  0  0  0
 15 16  1  0  0  0  0
 15 37  1  0  0  0  0
 16 17  2  0  0  0  0
 16 38  1  0  0  0  0
 17 39  1  0  0  0  0
 18 19  1  0  0  0  0
 18 20  1  0  0  0  0
 18 40  1  0  0  0  0
 19 41  1  0  0  0  0
 20 21  1  0  0  0  0
 20 42  1  0  0  0  0
 21 43  1  0  0  0  0
 22 23  2  0  0  0  0
 22 24  1  0  0  0  0
 24 25  1  0  0  0  0
 25 26  2  0  0  0  0
M  CHG  1  24  -1
M  END
> <s_m_source_file>
AV-unprocessed.smi

> <i_m_source_file_index>
101

> <i_lp_mmshare_version>
43012

> <i_f3d_flags>
0

> <s_epik_input>
Tz1jMVtuSF1jKD1PKW4oW2NIXWMxW0NIM10pW0NAQEhdMk9bQ0BIXShbQ0BASF0oW09IXSlbQ0BIXTJbT0hdKVtDSDJdT0MoPU8pYzNbY0hdW2NIXVtjSF1bY0hdW2NIXTM=

> <s_epik_cmdline>
J2VwaWtfcHl0aG9uJywgJy1waCcsICc3LjAnLCAnLXRuJywgJzgnLCAnLW1hJywgJzIwMCcsICctbWV0YWxfYmluZGluZycsICctaW1hZScsICc8aW5maWxlLm1hZT4nLCAnLW9tYWUnLCAnPG91dGZpbGUubWFlPic=

> <r_lp_tautomer_probability>
0.999537

> <r_epik_Ionization_Penalty>
3.21006

> <r_epik_Ionization_Penalty_Charging>
5.75142e-08

> <r_epik_Ionization_Penalty_Neutral>
3.21006

> <r_epik_State_Penalty>
3.20925

> <r_epik_Charging_Adjusted_Penalty>
3.20925

> <i_epik_Tot_Q>
-1

> <i_epik_Tot_abs_Q>
1

> <r_epik_Metal_State_Penalty>
0.119957

> <b_epik_Metal_Only>
1

> <s_epik_Chemistry_Notes>
This compound has an ester and may undergo hydrolysis at high or low pH. This compound contains an acetal/aminal-like group ( X-CH(R)-Y where X, Y are N, S, or O) that may be acid/base labile, releasing an aldehyde.

> <s_lp_Force_Field>
OPLS_2005

> <r_lp_Energy>
38.3605

> <b_lp_Chiralities_Consistent>
1

> <s_lp_Variant>
AV-unprocessed.smi:101-26

> <Gold.Version>
5.8.1

> <Gold.Id.Protein>
6NUR|6NUR_protein|mol2

> <Gold.PLP.Fitness>
52.7879

> <Gold.PLP.PLP>
-39.7096

> <Gold.PLP.part.hbond>
-4.4038

> <Gold.PLP.part.metal>
0.0000

> <Gold.PLP.part.buried>
-2.7960

> <Gold.PLP.part.nonpolar>
-32.9553

> <Gold.PLP.part.repulsive>
0.0000

> <Gold.PLP.ligand.clash>
0.0000

> <Gold.PLP.ligand.torsion>
0.6191

> <Gold.PLP.Chemscore.Hbond>
3.7313

> <Gold.PLP.Chemscore.CHOScore>
1.0000

> <Gold.PLP.Chemscore.Metal>
0.0000

> <Gold.Chemscore.Hbonds>
donor molecule, donor type, donor heavy atom, donor atom, acceptor molecule, acceptor atom, score
      L1  H    19    41       P1  7949  0.44
      P1  H  6896  6908       L1    24  0.66
      P1  H  7997  8010       L1    11  1.00

> <Gold.PLP.Chemscore.Internal.Correction>
0.1227

> <Gold.Rescore>
     Score         DG    S(hbond)    S(metal)    S(lipo)     H(rot)  DE(clash)    DE(int)     intcor
     13.56     -16.86       2.38        0.00     100.88       3.27       1.30       2.00       ----

> <Gold.Chemscore.Fitness>
13.5596

> <Gold.Chemscore.DG>
-16.8562

> <Gold.Chemscore.ZeroCoef>
-5.4800

> <Gold.Chemscore.Hbond>
2.3752

> <Gold.Chemscore.Metal>
0.0000

> <Gold.Chemscore.Lipo>
100.8805

> <Gold.Chemscore.Internal_Hbond>
0.0000

> <Gold.Chemscore.DEClash>
1.2963

> <Gold.Chemscore.DEInternal>
2.0004

> <Gold.Chemscore.Rot>
3.2656

> <Gold.Chemscore.Internal.Correction>
   9.000000E+99

> <Gold.Chemscore.Hbonds>
donor molecule, donor type, donor heavy atom, donor atom, acceptor molecule, acceptor atom, score
      L1  H    19    41       P1  7949  0.43
      P1  H  6896  6908       L1    24  0.01
      P1  H  7997  8010       L1    11  0.30

> <Gold.Chemscore.Hbond.Weighted>
-7.9330

> <Gold.Chemscore.Metal.Weighted>
-0.0000

> <Gold.Chemscore.Lipo.Weighted>
-11.8030

> <Gold.Chemscore.Internal_Hbond.Weighted>
0.0000

> <Gold.Chemscore.DEClash.Weighted>
1.2963

> <Gold.Chemscore.DEInternal.Weighted>
2.0004

> <Gold.Chemscore.Rot.Weighted>
8.3598

> <Gold.Chemscore.Internal.Correction.Weighted>
   9.000000E+99

> <Gold.Protein.RotatedTorsions>
[ 6907 6896 6895 6894 ] final  134.84 input  -60.11 | X-H torsion
[ 7974 7965 7964 7962 ] final   17.31 input  175.53 | X-H torsion
[ 8008 7997 7996 7995 ] final    8.93 input   59.86 | X-H torsion
[ 10167 10162 10161 10158 ] final   26.50 input  -65.29 | X-H torsion
[ 10718 10713 10712 10709 ] final   51.91 input   66.30 | X-H torsion
[ 10763 10752 10751 10750 ] final  -95.73 input  -60.55 | X-H torsion
[ 11005 11000 10999 10996 ] final -119.86 input  -57.11 | X-H torsion

> <Gold.Protein.ActiveResidues>
 VAL166  LYS551  ARG553  GLY616  TRP617  ASP618  TYR619  PRO620  LYS621  CYS622 
 ASP623  PHE694  ASN695  SER759  ASP760  ASP761  ALA762  ILE779  LEU786  VAL792 
 PHE793  MET794  SER795  GLU796  ALA797  LYS798  CYS799  TRP800  GLU811  SER814 

> <Gold.Protein.RotatedAtoms>
  152.3069  133.5712  159.5654 H   0  0  0  0  0  0  0  0  0  0  0  0  # atno 6907 bound_to 6896
  150.7304  134.0209  159.3710 H   0  0  0  0  0  0  0  0  0  0  0  0  # atno 6908 bound_to 6896
  151.8105  135.0682  160.0463 H   0  0  0  0  0  0  0  0  0  0  0  0  # atno 6909 bound_to 6896
  146.2222  139.8620  142.8603 H   0  0  0  0  0  0  0  0  0  0  0  0  # atno 7974 bound_to 7965
  154.7733  140.2806  155.6120 H   0  0  0  0  0  0  0  0  0  0  0  0  # atno 8008 bound_to 7997
  156.2937  140.2637  156.2469 H   0  0  0  0  0  0  0  0  0  0  0  0  # atno 8009 bound_to 7997
  154.9873  140.0374  157.2293 H   0  0  0  0  0  0  0  0  0  0  0  0  # atno 8010 bound_to 7997
  140.5018  144.0303  150.6336 H   0  0  0  0  0  0  0  0  0  0  0  0  # atno 10167 bound_to 10162
  157.5025  130.8447  149.8334 H   0  0  0  0  0  0  0  0  0  0  0  0  # atno 10718 bound_to 10713
  154.7175  135.5110  153.8760 H   0  0  0  0  0  0  0  0  0  0  0  0  # atno 10763 bound_to 10752
  153.0833  135.6638  154.0010 H   0  0  0  0  0  0  0  0  0  0  0  0  # atno 10764 bound_to 10752
  153.9839  135.3026  155.3397 H   0  0  0  0  0  0  0  0  0  0  0  0  # atno 10765 bound_to 10752
  141.0185  134.0159  157.3315 H   0  0  0  0  0  0  0  0  0  0  0  0  # atno 11005 bound_to 11000
  145.2694  141.0104  143.3780 LP  0  0  0  0  0  0  0  0  0  0  0  0  # atno 17320 bound_to 7965
  144.9235  139.4383  143.6529 LP  0  0  0  0  0  0  0  0  0  0  0  0  # atno 17321 bound_to 7965
  140.3601  143.2913  152.0393 LP  0  0  0  0  0  0  0  0  0  0  0  0  # atno 17342 bound_to 10162
  139.4874  144.6309  151.7071 LP  0  0  0  0  0  0  0  0  0  0  0  0  # atno 17343 bound_to 10162
  156.0238  130.3786  150.1883 LP  0  0  0  0  0  0  0  0  0  0  0  0  # atno 17370 bound_to 10713
  157.0073  130.9940  151.3375 LP  0  0  0  0  0  0  0  0  0  0  0  0  # atno 17371 bound_to 10713
  139.9132  135.0193  156.7775 LP  0  0  0  0  0  0  0  0  0  0  0  0  # atno 17394 bound_to 11000
  140.6613  133.9643  155.7806 LP  0  0  0  0  0  0  0  0  0  0  0  0  # atno 17395 bound_to 11000

$$$$
