AV-unprocessed.smi:1701|AV-procd|sdf|6837|dock3
  -GOLD-   22720 8 13D 1   1.00000     0.00000
 Structure written by MMmdl.
 54 56  0  0  0  0  0  0  0  0  4 V2000
  152.9159  142.5512  159.3057 C   0  0  0  0  0  0  0  0  0  0  0  0
  151.9689  141.6939  158.4516 C   0  0  0  0  0  0  0  0  0  0  0  0
  151.5584  142.3595  157.2157 N   0  0  0  0  0  0  0  0  0  0  0  0
  151.1919  143.7742  157.3105 C   0  0  0  0  0  0  0  0  0  0  0  0
  150.4433  144.1176  158.6085 C   0  0  0  0  0  0  0  0  0  0  0  0
  150.8577  141.5384  156.3042 C   0  0  0  0  0  0  0  0  0  0  0  0
  151.2470  140.2036  156.0430 C   0  0  0  0  0  0  0  0  0  0  0  0
  150.5057  139.4223  155.1335 C   0  0  0  0  0  0  0  0  0  0  0  0
  149.3858  139.9793  154.4827 C   0  0  0  0  0  0  0  0  0  0  0  0
  148.6558  139.1493  153.5904 N   0  0  0  0  0  0  0  0  0  0  0  0
  147.3277  139.1435  153.3169 C   0  0  0  0  0  0  0  0  0  0  0  0
  146.6046  139.9834  153.8495 O   0  0  0  0  0  0  0  0  0  0  0  0
  146.8186  138.2281  152.4376 N   0  5  0  0  0  0  0  0  0  0  0  0
  145.6053  137.3989  152.5540 C   0  0  2  0  0  0  0  0  0  0  0  0
  145.5587  136.7327  153.9420 C   0  0  0  0  0  0  0  0  0  0  0  0
  146.2371  135.3610  153.7746 C   0  0  0  0  0  0  0  0  0  0  0  0
  146.5836  135.2542  152.3416 N   0  3  1  0  0  0  0  0  0  0  0  0
  146.7018  133.8847  151.7794 C   0  0  0  0  0  0  0  0  0  0  0  0
  145.3363  133.2621  151.4440 C   0  0  0  0  0  0  0  0  0  0  0  0
  144.5176  134.1994  150.5493 C   0  0  0  0  0  0  0  0  0  0  0  0
  144.3395  135.5500  151.2522 C   0  0  0  0  0  0  0  0  0  0  0  0
  145.7117  136.1936  151.5988 C   0  0  1  0  0  0  0  0  0  0  0  0
  149.0256  141.3124  154.7904 C   0  0  0  0  0  0  0  0  0  0  0  0
  149.7636  142.0247  155.6686 N   0  3  0  0  0  0  0  0  0  0  0  0
  153.2143  142.0132  160.2056 H   0  0  0  0  0  0  0  0  0  0  0  0
  152.4387  143.4798  159.6208 H   0  0  0  0  0  0  0  0  0  0  0  0
  153.8238  142.8084  158.7597 H   0  0  0  0  0  0  0  0  0  0  0  0
  152.4678  140.7601  158.1909 H   0  0  0  0  0  0  0  0  0  0  0  0
  151.1005  141.4038  159.0417 H   0  0  0  0  0  0  0  0  0  0  0  0
  152.0831  144.3955  157.2137 H   0  0  0  0  0  0  0  0  0  0  0  0
  150.5542  144.0309  156.4639 H   0  0  0  0  0  0  0  0  0  0  0  0
  150.1503  145.1675  158.6141 H   0  0  0  0  0  0  0  0  0  0  0  0
  151.0518  143.9451  159.4958 H   0  0  0  0  0  0  0  0  0  0  0  0
  149.5353  143.5218  158.7056 H   0  0  0  0  0  0  0  0  0  0  0  0
  152.1140  139.7736  156.5217 H   0  0  0  0  0  0  0  0  0  0  0  0
  150.8029  138.4032  154.9325 H   0  0  0  0  0  0  0  0  0  0  0  0
  149.2105  138.5045  153.0468 H   0  0  0  0  0  0  0  0  0  0  0  0
  144.6953  137.9688  152.3607 H   0  0  0  0  0  0  0  0  0  0  0  0
  146.0293  137.3345  154.7212 H   0  0  0  0  0  0  0  0  0  0  0  0
  144.5203  136.5864  154.2417 H   0  0  0  0  0  0  0  0  0  0  0  0
  147.1396  135.2752  154.3810 H   0  0  0  0  0  0  0  0  0  0  0  0
  145.5562  134.5636  154.0750 H   0  0  0  0  0  0  0  0  0  0  0  0
  147.2969  133.9513  150.8679 H   0  0  0  0  0  0  0  0  0  0  0  0
  147.2596  133.2489  152.4678 H   0  0  0  0  0  0  0  0  0  0  0  0
  145.4801  132.3030  150.9455 H   0  0  0  0  0  0  0  0  0  0  0  0
  144.7851  133.0521  152.3611 H   0  0  0  0  0  0  0  0  0  0  0  0
  145.0206  134.3398  149.5916 H   0  0  0  0  0  0  0  0  0  0  0  0
  143.5445  133.7576  150.3326 H   0  0  0  0  0  0  0  0  0  0  0  0
  143.7605  136.2161  150.6098 H   0  0  0  0  0  0  0  0  0  0  0  0
  143.7310  135.3848  152.1445 H   0  0  0  0  0  0  0  0  0  0  0  0
  146.2031  136.4722  150.6647 H   0  0  0  0  0  0  0  0  0  0  0  0
  148.1727  141.8344  154.3830 H   0  0  0  0  0  0  0  0  0  0  0  0
  147.5036  135.6679  152.2800 H   0  0  0  0  0  0  0  0  0  0  0  0
  149.4766  142.9833  155.8671 H   0  0  0  0  0  0  0  0  0  0  0  0
  1  2  1  0  0  0  0
  1 25  1  0  0  0  0
  1 26  1  0  0  0  0
  1 27  1  0  0  0  0
  2  3  1  0  0  0  0
  2 28  1  0  0  0  0
  2 29  1  0  0  0  0
  3  4  1  0  0  0  0
  3  6  1  0  0  0  0
  4  5  1  0  0  0  0
  4 30  1  0  0  0  0
  4 31  1  0  0  0  0
  5 32  1  0  0  0  0
  5 33  1  0  0  0  0
  5 34  1  0  0  0  0
  6 24  1  0  0  0  0
  6  7  2  0  0  0  0
  7  8  1  0  0  0  0
  7 35  1  0  0  0  0
  8  9  2  0  0  0  0
  8 36  1  0  0  0  0
  9 10  1  0  0  0  0
  9 23  1  0  0  0  0
 10 11  1  0  0  0  0
 10 37  1  0  0  0  0
 11 12  2  0  0  0  0
 11 13  1  0  0  0  0
 13 14  1  0  0  0  0
 14 22  1  0  0  0  0
 14 15  1  0  0  0  0
 14 38  1  0  0  0  0
 15 16  1  0  0  0  0
 15 39  1  0  0  0  0
 15 40  1  0  0  0  0
 16 17  1  0  0  0  0
 16 41  1  0  0  0  0
 16 42  1  0  0  0  0
 17 22  1  0  0  0  0
 17 18  1  0  0  0  0
 17 53  1  0  0  0  0
 18 19  1  0  0  0  0
 18 43  1  0  0  0  0
 18 44  1  0  0  0  0
 19 20  1  0  0  0  0
 19 45  1  0  0  0  0
 19 46  1  0  0  0  0
 20 21  1  0  0  0  0
 20 47  1  0  0  0  0
 20 48  1  0  0  0  0
 21 22  1  0  0  0  0
 21 49  1  0  0  0  0
 21 50  1  0  0  0  0
 22 51  1  0  0  0  0
 23 24  2  0  0  0  0
 23 52  1  0  0  0  0
 24 54  1  0  0  0  0
M  CHG  1  13  -1
M  CHG  1  17   1
M  CHG  1  24   1
M  END
> <s_m_source_file>
AV-unprocessed.smi

> <i_m_source_file_index>
1701

> <i_lp_mmshare_version>
43012

> <i_f3d_flags>
0

> <s_epik_input>
W0NIM11bQ0gyXU4oW0NIMl1bQ0gzXSljMVtjSF1bY0hdYyhbY0hdbjEpW05IXUMoPU8pW05IXVtDQEhdKFtDSDJdW0NIMl0yKVtDQEBIXShOMjMpW0NIMl1bQ0gyXVtDSDJdW0NIMl0z

> <s_epik_cmdline>
J2VwaWtfcHl0aG9uJywgJy1waCcsICc3LjAnLCAnLXRuJywgJzgnLCAnLW1hJywgJzIwMCcsICctbWV0YWxfYmluZGluZycsICctaW1hZScsICc8aW5maWxlLm1hZT4nLCAnLW9tYWUnLCAnPG91dGZpbGUubWFlPic=

> <r_lp_tautomer_probability>
0.999994

> <r_epik_Ionization_Penalty>
7.37095

> <r_epik_Ionization_Penalty_Charging>
7.37095

> <r_epik_Ionization_Penalty_Neutral>
3.78969e-06

> <r_epik_State_Penalty>
6.83842

> <r_epik_Charging_Adjusted_Penalty>
14.2094

> <i_epik_Tot_Q>
1

> <i_epik_Tot_abs_Q>
3

> <r_epik_Metal_State_Penalty>
2.78552

> <b_epik_Metal_Only>
1

> <s_lp_Force_Field>
OPLS_2005

> <r_lp_Energy>
52.1931

> <b_lp_Chiralities_Consistent>
1

> <s_lp_Variant>
AV-unprocessed.smi:1701-17

> <Gold.Version>
5.8.1

> <Gold.Id.Protein>
6NUR|6NUR_protein|mol2

> <Gold.PLP.Fitness>
53.9685

> <Gold.PLP.PLP>
-44.0209

> <Gold.PLP.part.hbond>
-3.0000

> <Gold.PLP.part.metal>
0.0000

> <Gold.PLP.part.buried>
-3.4663

> <Gold.PLP.part.nonpolar>
-38.2906

> <Gold.PLP.part.repulsive>
0.9067

> <Gold.PLP.ligand.clash>
0.0000

> <Gold.PLP.ligand.torsion>
1.5380

> <Gold.PLP.Chemscore.Hbond>
4.0120

> <Gold.PLP.Chemscore.CHOScore>
0.0000

> <Gold.PLP.Chemscore.Metal>
0.0000

> <Gold.Chemscore.Hbonds>
donor molecule, donor type, donor heavy atom, donor atom, acceptor molecule, acceptor atom, score
      L1  H    17    53       P1  7948  2.00
      L1  H    24    54       P1  8028  2.00

> <Gold.PLP.Chemscore.Internal.Correction>
0.9878

> <Gold.Rescore>
     Score         DG    S(hbond)    S(metal)    S(lipo)     H(rot)  DE(clash)    DE(int)     intcor
     17.68     -21.32       2.04        0.00     105.37       1.28       0.90       2.74       ----

> <Gold.Chemscore.Fitness>
17.6753

> <Gold.Chemscore.DG>
-21.3213

> <Gold.Chemscore.ZeroCoef>
-5.4800

> <Gold.Chemscore.Hbond>
2.0358

> <Gold.Chemscore.Metal>
0.0000

> <Gold.Chemscore.Lipo>
105.3703

> <Gold.Chemscore.Internal_Hbond>
0.0000

> <Gold.Chemscore.DEClash>
0.9049

> <Gold.Chemscore.DEInternal>
2.7411

> <Gold.Chemscore.Rot>
1.2838

> <Gold.Chemscore.Internal.Correction>
   9.000000E+99

> <Gold.Chemscore.Hbonds>
donor molecule, donor type, donor heavy atom, donor atom, acceptor molecule, acceptor atom, score
      L1  H    17    53       P1  7948  0.98
      L1  H    24    54       P1  8028  1.00

> <Gold.Chemscore.Hbond.Weighted>
-6.7995

> <Gold.Chemscore.Metal.Weighted>
-0.0000

> <Gold.Chemscore.Lipo.Weighted>
-12.3283

> <Gold.Chemscore.Internal_Hbond.Weighted>
0.0000

> <Gold.Chemscore.DEClash.Weighted>
0.9049

> <Gold.Chemscore.DEInternal.Weighted>
2.7411

> <Gold.Chemscore.Rot.Weighted>
3.2865

> <Gold.Chemscore.Internal.Correction.Weighted>
   9.000000E+99

> <Gold.Protein.RotatedTorsions>
[ 6907 6896 6895 6894 ] final  -48.70 input  -60.11 | X-H torsion
[ 7974 7965 7964 7962 ] final    5.67 input  175.53 | X-H torsion
[ 8008 7997 7996 7995 ] final   96.34 input   59.86 | X-H torsion
[ 10167 10162 10161 10158 ] final  167.98 input  -65.29 | X-H torsion
[ 10718 10713 10712 10709 ] final -175.86 input   66.30 | X-H torsion
[ 10763 10752 10751 10750 ] final -135.89 input  -60.55 | X-H torsion
[ 11005 11000 10999 10996 ] final  -83.28 input  -57.11 | X-H torsion

> <Gold.Protein.ActiveResidues>
 VAL166  LYS551  ARG553  GLY616  TRP617  ASP618  TYR619  PRO620  LYS621  CYS622 
 ASP623  PHE694  ASN695  SER759  ASP760  ASP761  ALA762  ILE779  LEU786  VAL792 
 PHE793  MET794  SER795  GLU796  ALA797  LYS798  CYS799  TRP800  GLU811  SER814 

> <Gold.Protein.RotatedAtoms>
  150.8879  134.8279  159.7272 H   0  0  0  0  0  0  0  0  0  0  0  0  # atno 6907 bound_to 6896
  152.4819  134.4693  159.9640 H   0  0  0  0  0  0  0  0  0  0  0  0  # atno 6908 bound_to 6896
  151.4759  133.3519  159.2866 H   0  0  0  0  0  0  0  0  0  0  0  0  # atno 6909 bound_to 6896
  146.2439  140.0349  142.8386 H   0  0  0  0  0  0  0  0  0  0  0  0  # atno 7974 bound_to 7965
  156.0785  140.3274  155.7664 H   0  0  0  0  0  0  0  0  0  0  0  0  # atno 8008 bound_to 7997
  155.5191  140.0583  157.2927 H   0  0  0  0  0  0  0  0  0  0  0  0  # atno 8009 bound_to 7997
  154.4569  140.1947  156.0372 H   0  0  0  0  0  0  0  0  0  0  0  0  # atno 8010 bound_to 7997
  139.4957  144.3863  151.9567 H   0  0  0  0  0  0  0  0  0  0  0  0  # atno 10167 bound_to 10162
  156.8062  130.9570  151.3117 H   0  0  0  0  0  0  0  0  0  0  0  0  # atno 10718 bound_to 10713
  154.8694  135.3689  154.4972 H   0  0  0  0  0  0  0  0  0  0  0  0  # atno 10763 bound_to 10752
  153.5615  135.7023  153.5550 H   0  0  0  0  0  0  0  0  0  0  0  0  # atno 10764 bound_to 10752
  153.3624  135.4043  155.1691 H   0  0  0  0  0  0  0  0  0  0  0  0  # atno 10765 bound_to 10752
  141.1658  133.7286  156.8697 H   0  0  0  0  0  0  0  0  0  0  0  0  # atno 11005 bound_to 11000
  145.1121  140.9411  143.4650 LP  0  0  0  0  0  0  0  0  0  0  0  0  # atno 17320 bound_to 7965
  145.0565  139.3139  143.5902 LP  0  0  0  0  0  0  0  0  0  0  0  0  # atno 17321 bound_to 7965
  140.3300  144.3327  150.5989 LP  0  0  0  0  0  0  0  0  0  0  0  0  # atno 17342 bound_to 10162
  140.5653  143.2187  151.7695 LP  0  0  0  0  0  0  0  0  0  0  0  0  # atno 17343 bound_to 10162
  157.6529  130.8899  149.9669 LP  0  0  0  0  0  0  0  0  0  0  0  0  # atno 17370 bound_to 10713
  156.1072  130.3652  150.0113 LP  0  0  0  0  0  0  0  0  0  0  0  0  # atno 17371 bound_to 10713
  140.1790  134.9046  157.2926 LP  0  0  0  0  0  0  0  0  0  0  0  0  # atno 17394 bound_to 11000
  140.2416  134.3789  155.7478 LP  0  0  0  0  0  0  0  0  0  0  0  0  # atno 17395 bound_to 11000

$$$$
