AV-unprocessed.smi:2799|AV-procd|sdf|10789|dock10
  -GOLD-   2272015223D 1   1.00000     0.00000
 Structure written by MMmdl.
 52 53  0  0  0  0  0  0  0  0  2 V2000
  143.7565  133.1257  149.0699 C   0  0  0  0  0  0  0  0  0  0  0  0
  144.6042  133.4851  150.3014 C   0  0  0  0  0  0  0  0  0  0  0  0
  146.0975  133.2875  150.0007 C   0  0  0  0  0  0  0  0  0  0  0  0
  144.1857  132.6744  151.5442 C   0  0  0  0  0  0  0  0  0  0  0  0
  143.5963  133.5479  152.6001 N   0  3  2  0  0  0  0  0  0  0  0  0
  142.1491  133.7727  152.3239 C   0  0  0  0  0  0  0  0  0  0  0  0
  141.4569  134.5671  153.4341 C   0  0  0  0  0  0  0  0  0  0  0  0
  142.1465  135.9176  153.6011 C   0  0  0  0  0  0  0  0  0  0  0  0
  143.6230  135.6872  153.9257 C   0  0  0  0  0  0  0  0  0  0  0  0
  144.3592  134.8121  152.8745 C   0  0  1  0  0  0  0  0  0  0  0  0
  145.8033  134.5167  153.3738 C   0  0  0  0  0  0  0  0  0  0  0  0
  146.7174  135.6380  153.1664 N   0  0  0  0  0  0  0  0  0  0  0  0
  146.7019  136.7940  153.8462 C   0  0  0  0  0  0  0  0  0  0  0  0
  145.8765  137.0496  154.7223 O   0  0  0  0  0  0  0  0  0  0  0  0
  147.7017  137.5997  153.4432 N   0  0  0  0  0  0  0  0  0  0  0  0
  148.0330  138.8968  153.8734 C   0  0  0  0  0  0  0  0  0  0  0  0
  147.2675  139.9981  153.6683 C   0  0  0  0  0  0  0  0  0  0  0  0
  147.6913  141.2945  154.1400 C   0  0  0  0  0  0  0  0  0  0  0  0
  148.8681  141.3888  154.7743 C   0  0  0  0  0  0  0  0  0  0  0  0
  149.6839  140.2646  154.9853 N   0  0  0  0  0  0  0  0  0  0  0  0
  150.9518  140.4707  155.6901 C   0  0  0  0  0  0  0  0  0  0  0  0
  149.3298  139.0120  154.5699 C   0  0  0  0  0  0  0  0  0  0  0  0
  150.0629  138.0410  154.7731 O   0  0  0  0  0  0  0  0  0  0  0  0
  143.8508  132.0688  148.8185 H   0  0  0  0  0  0  0  0  0  0  0  0
  144.0668  133.7029  148.1983 H   0  0  0  0  0  0  0  0  0  0  0  0
  142.6999  133.3357  149.2362 H   0  0  0  0  0  0  0  0  0  0  0  0
  144.4562  134.5449  150.5126 H   0  0  0  0  0  0  0  0  0  0  0  0
  146.3224  132.2446  149.7745 H   0  0  0  0  0  0  0  0  0  0  0  0
  146.7138  133.5848  150.8495 H   0  0  0  0  0  0  0  0  0  0  0  0
  146.4095  133.8875  149.1452 H   0  0  0  0  0  0  0  0  0  0  0  0
  143.5217  131.8705  151.2381 H   0  0  0  0  0  0  0  0  0  0  0  0
  145.0537  132.1513  151.9492 H   0  0  0  0  0  0  0  0  0  0  0  0
  142.0368  134.3017  151.3759 H   0  0  0  0  0  0  0  0  0  0  0  0
  141.6473  132.8113  152.2087 H   0  0  0  0  0  0  0  0  0  0  0  0
  140.4044  134.7131  153.1890 H   0  0  0  0  0  0  0  0  0  0  0  0
  141.4863  134.0086  154.3709 H   0  0  0  0  0  0  0  0  0  0  0  0
  142.0502  136.5064  152.6879 H   0  0  0  0  0  0  0  0  0  0  0  0
  141.6697  136.4897  154.3974 H   0  0  0  0  0  0  0  0  0  0  0  0
  144.1061  136.6600  154.0174 H   0  0  0  0  0  0  0  0  0  0  0  0
  143.6982  135.2165  154.9073 H   0  0  0  0  0  0  0  0  0  0  0  0
  144.4141  135.3715  151.9390 H   0  0  0  0  0  0  0  0  0  0  0  0
  145.7801  134.2223  154.4243 H   0  0  0  0  0  0  0  0  0  0  0  0
  146.2618  133.6824  152.8491 H   0  0  0  0  0  0  0  0  0  0  0  0
  147.4330  135.5150  152.4647 H   0  0  0  0  0  0  0  0  0  0  0  0
  148.3348  137.2165  152.7561 H   0  0  0  0  0  0  0  0  0  0  0  0
  146.3305  139.9513  153.1378 H   0  0  0  0  0  0  0  0  0  0  0  0
  147.0737  142.1671  153.9875 H   0  0  0  0  0  0  0  0  0  0  0  0
  149.2535  142.3219  155.1586 H   0  0  0  0  0  0  0  0  0  0  0  0
  151.7870  140.0705  155.1131 H   0  0  0  0  0  0  0  0  0  0  0  0
  150.9342  139.9669  156.6575 H   0  0  0  0  0  0  0  0  0  0  0  0
  151.1650  141.5246  155.8728 H   0  0  0  0  0  0  0  0  0  0  0  0
  143.6423  133.0194  153.4596 H   0  0  0  0  0  0  0  0  0  0  0  0
  1  2  1  0  0  0  0
  1 24  1  0  0  0  0
  1 25  1  0  0  0  0
  1 26  1  0  0  0  0
  2  3  1  0  0  0  0
  2  4  1  0  0  0  0
  2 27  1  0  0  0  0
  3 28  1  0  0  0  0
  3 29  1  0  0  0  0
  3 30  1  0  0  0  0
  4  5  1  0  0  0  0
  4 31  1  0  0  0  0
  4 32  1  0  0  0  0
  5 10  1  0  0  0  0
  5  6  1  0  0  0  0
  5 52  1  0  0  0  0
  6  7  1  0  0  0  0
  6 33  1  0  0  0  0
  6 34  1  0  0  0  0
  7  8  1  0  0  0  0
  7 35  1  0  0  0  0
  7 36  1  0  0  0  0
  8  9  1  0  0  0  0
  8 37  1  0  0  0  0
  8 38  1  0  0  0  0
  9 10  1  0  0  0  0
  9 39  1  0  0  0  0
  9 40  1  0  0  0  0
 10 11  1  0  0  0  0
 10 41  1  0  0  0  0
 11 12  1  0  0  0  0
 11 42  1  0  0  0  0
 11 43  1  0  0  0  0
 12 13  1  0  0  0  0
 12 44  1  0  0  0  0
 13 14  2  0  0  0  0
 13 15  1  0  0  0  0
 15 16  1  0  0  0  0
 15 45  1  0  0  0  0
 16 22  1  0  0  0  0
 16 17  2  0  0  0  0
 17 18  1  0  0  0  0
 17 46  1  0  0  0  0
 18 19  2  0  0  0  0
 18 47  1  0  0  0  0
 19 20  1  0  0  0  0
 19 48  1  0  0  0  0
 20 21  1  0  0  0  0
 20 22  1  0  0  0  0
 21 49  1  0  0  0  0
 21 50  1  0  0  0  0
 21 51  1  0  0  0  0
 22 23  2  0  0  0  0
M  CHG  1   5   1
M  END
> <s_m_source_file>
AV-unprocessed.smi

> <i_m_source_file_index>
2799

> <i_lp_mmshare_version>
43012

> <i_f3d_flags>
0

> <s_epik_input>
W0NIM11bQ0hdKFtDSDNdKVtDSDJdTjFbQ0gyXVtDSDJdW0NIMl1bQ0gyXVtDQEhdMVtDSDJdW05IXUMoPU8pW05IXWMyW2NIXVtjSF1bY0hdbihbQ0gzXSljMj1P

> <s_epik_cmdline>
J2VwaWtfcHl0aG9uJywgJy1waCcsICc3LjAnLCAnLXRuJywgJzgnLCAnLW1hJywgJzIwMCcsICctbWV0YWxfYmluZGluZycsICctaW1hZScsICc8aW5maWxlLm1hZT4nLCAnLW9tYWUnLCAnPG91dGZpbGUubWFlPic=

> <r_lp_tautomer_probability>
1

> <r_epik_Ionization_Penalty>
0.0010885

> <r_epik_Ionization_Penalty_Charging>
0.00106921

> <r_epik_Ionization_Penalty_Neutral>
1.92865e-05

> <r_epik_State_Penalty>
0.000697184

> <r_epik_Charging_Adjusted_Penalty>
0.0017664

> <i_epik_Tot_Q>
1

> <i_epik_Tot_abs_Q>
1

> <r_epik_Metal_State_Penalty>
-0

> <b_epik_Metal_Only>
0

> <s_lp_Force_Field>
OPLS_2005

> <r_lp_Energy>
37.4199

> <b_lp_Chiralities_Consistent>
1

> <s_lp_Variant>
AV-unprocessed.smi:2799-1

> <Gold.Version>
5.8.1

> <Gold.Id.Protein>
6NUR|6NUR_protein|mol2

> <Gold.PLP.Fitness>
51.4045

> <Gold.PLP.PLP>
-40.5475

> <Gold.PLP.part.hbond>
-3.0000

> <Gold.PLP.part.metal>
0.0000

> <Gold.PLP.part.buried>
-2.1727

> <Gold.PLP.part.nonpolar>
-34.8821

> <Gold.PLP.part.repulsive>
0.2339

> <Gold.PLP.ligand.clash>
0.0000

> <Gold.PLP.ligand.torsion>
1.8025

> <Gold.PLP.Chemscore.Hbond>
3.7840

> <Gold.PLP.Chemscore.CHOScore>
1.0000

> <Gold.PLP.Chemscore.Metal>
0.0000

> <Gold.Chemscore.Hbonds>
donor molecule, donor type, donor heavy atom, donor atom, acceptor molecule, acceptor atom, score
      L1  H     5    52       P1 10957  1.75
      L1  H    12    44       P1  7948  0.88
      L1  H    15    45       P1  7948  0.81
      L1  C    19    48       P1  8028  1.00

> <Gold.PLP.Chemscore.Internal.Correction>
0.1100

> <Gold.Rescore>
     Score         DG    S(hbond)    S(metal)    S(lipo)     H(rot)  DE(clash)    DE(int)     intcor
     19.02     -21.77       2.72        0.00      96.03       1.57       0.80       1.94       ----

> <Gold.Chemscore.Fitness>
19.0238

> <Gold.Chemscore.DG>
-21.7697

> <Gold.Chemscore.ZeroCoef>
-5.4800

> <Gold.Chemscore.Hbond>
2.7156

> <Gold.Chemscore.Metal>
0.0000

> <Gold.Chemscore.Lipo>
96.0306

> <Gold.Chemscore.Internal_Hbond>
0.0000

> <Gold.Chemscore.DEClash>
0.8032

> <Gold.Chemscore.DEInternal>
1.9428

> <Gold.Chemscore.Rot>
1.5688

> <Gold.Chemscore.Internal.Correction>
   9.000000E+99

> <Gold.Chemscore.Hbonds>
donor molecule, donor type, donor heavy atom, donor atom, acceptor molecule, acceptor atom, score
      L1  H     5    52       P1 10957  0.69
      L1  H    12    44       P1  7948  0.87
      L1  H    15    45       P1  7948  0.80

> <Gold.Chemscore.Hbond.Weighted>
-9.0702

> <Gold.Chemscore.Metal.Weighted>
-0.0000

> <Gold.Chemscore.Lipo.Weighted>
-11.2356

> <Gold.Chemscore.Internal_Hbond.Weighted>
0.0000

> <Gold.Chemscore.DEClash.Weighted>
0.8032

> <Gold.Chemscore.DEInternal.Weighted>
1.9428

> <Gold.Chemscore.Rot.Weighted>
4.0161

> <Gold.Chemscore.Internal.Correction.Weighted>
   9.000000E+99

> <Gold.Protein.RotatedTorsions>
[ 6907 6896 6895 6894 ] final  154.30 input  -60.11 | X-H torsion
[ 7974 7965 7964 7962 ] final -148.44 input  175.53 | X-H torsion
[ 8008 7997 7996 7995 ] final -161.57 input   59.86 | X-H torsion
[ 10167 10162 10161 10158 ] final  144.07 input  -65.29 | X-H torsion
[ 10718 10713 10712 10709 ] final -115.38 input   66.30 | X-H torsion
[ 10763 10752 10751 10750 ] final -114.78 input  -60.55 | X-H torsion
[ 11005 11000 10999 10996 ] final   -2.40 input  -57.11 | X-H torsion

> <Gold.Protein.ActiveResidues>
 VAL166  LYS551  ARG553  GLY616  TRP617  ASP618  TYR619  PRO620  LYS621  CYS622 
 ASP623  PHE694  ASN695  SER759  ASP760  ASP761  ALA762  ILE779  LEU786  VAL792 
 PHE793  MET794  SER795  GLU796  ALA797  LYS798  CYS799  TRP800  GLU811  SER814 

> <Gold.Protein.RotatedAtoms>
  152.0604  133.4059  159.4414 H   0  0  0  0  0  0  0  0  0  0  0  0  # atno 6907 bound_to 6896
  150.6866  134.3207  159.4794 H   0  0  0  0  0  0  0  0  0  0  0  0  # atno 6908 bound_to 6896
  152.1027  134.9329  160.0619 H   0  0  0  0  0  0  0  0  0  0  0  0  # atno 6909 bound_to 6896
  144.8029  140.5196  143.5695 H   0  0  0  0  0  0  0  0  0  0  0  0  # atno 7974 bound_to 7965
  155.7941  140.0882  157.1993 H   0  0  0  0  0  0  0  0  0  0  0  0  # atno 8008 bound_to 7997
  154.3984  140.1484  156.3255 H   0  0  0  0  0  0  0  0  0  0  0  0  # atno 8009 bound_to 7997
  155.8529  140.3434  155.5708 H   0  0  0  0  0  0  0  0  0  0  0  0  # atno 8010 bound_to 7997
  139.4955  144.5997  151.6507 H   0  0  0  0  0  0  0  0  0  0  0  0  # atno 10167 bound_to 10162
  156.0891  130.6077  150.8898 H   0  0  0  0  0  0  0  0  0  0  0  0  # atno 10718 bound_to 10713
  154.8454  135.4405  154.1559 H   0  0  0  0  0  0  0  0  0  0  0  0  # atno 10763 bound_to 10752
  153.2708  135.6945  153.7488 H   0  0  0  0  0  0  0  0  0  0  0  0  # atno 10764 bound_to 10752
  153.6730  135.3416  155.3133 H   0  0  0  0  0  0  0  0  0  0  0  0  # atno 10765 bound_to 10752
  140.6580  133.9345  155.8419 H   0  0  0  0  0  0  0  0  0  0  0  0  # atno 11005 bound_to 11000
  145.5509  139.1477  143.3395 LP  0  0  0  0  0  0  0  0  0  0  0  0  # atno 17320 bound_to 7965
  146.2314  140.5647  142.8973 LP  0  0  0  0  0  0  0  0  0  0  0  0  # atno 17321 bound_to 7965
  140.5644  144.0215  150.6185 LP  0  0  0  0  0  0  0  0  0  0  0  0  # atno 17342 bound_to 10162
  140.3311  143.3077  152.0686 LP  0  0  0  0  0  0  0  0  0  0  0  0  # atno 17343 bound_to 10162
  157.6035  131.0940  150.8919 LP  0  0  0  0  0  0  0  0  0  0  0  0  # atno 17370 bound_to 10713
  156.9071  130.5267  149.5281 LP  0  0  0  0  0  0  0  0  0  0  0  0  # atno 17371 bound_to 10713
  141.0487  134.0517  157.3811 LP  0  0  0  0  0  0  0  0  0  0  0  0  # atno 17394 bound_to 11000
  139.9023  135.0168  156.7325 LP  0  0  0  0  0  0  0  0  0  0  0  0  # atno 17395 bound_to 11000

$$$$
