AV-unprocessed.smi:189|AV-procd|sdf|1490|dock8
  -GOLD-   2262019313D 1   1.00000     0.00000
 Structure written by MMmdl.
 53 57  0  0  0  0  0  0  0  0  1 V2000
  153.1766  139.1322  153.9133 C   0  0  0  0  0  0  0  0  0  0  0  0
  151.8284  138.9536  154.6315 C   0  0  1  0  0  0  0  0  0  0  0  0
  152.0010  138.6237  156.1214 C   0  0  0  0  0  0  0  0  0  0  0  0
  152.0134  139.9908  156.8200 C   0  0  2  0  0  0  0  0  0  0  0  0
  151.1998  140.0436  158.1254 C   0  0  0  0  0  0  0  0  0  0  0  0
  151.1484  141.4670  158.7196 C   0  0  0  0  0  0  0  0  0  0  0  0
  151.0295  142.5818  157.6557 C   0  0  0  0  0  0  0  0  0  0  0  0
  150.5184  142.0506  156.3088 C   0  0  0  0  0  0  0  0  0  0  0  0
  151.4975  140.9830  155.7548 C   0  0  2  0  0  0  0  0  0  0  0  0
  151.0457  140.1873  154.6082 N   0  0  0  0  0  0  0  0  0  0  0  0
  149.7088  140.0621  154.4146 C   0  0  0  0  0  0  0  0  0  0  0  0
  148.9497  141.1388  154.0778 N   0  0  0  0  0  0  0  0  0  0  0  0
  147.6388  140.9936  153.8628 C   0  0  0  0  0  0  0  0  0  0  0  0
  146.9000  139.8838  153.9277 N   0  0  0  0  0  0  0  0  0  0  0  0
  147.6592  138.8023  154.2665 C   0  0  0  0  0  0  0  0  0  0  0  0
  149.0586  138.8043  154.5225 C   0  0  0  0  0  0  0  0  0  0  0  0
  149.4906  137.5200  154.8281 N   0  0  0  0  0  0  0  0  0  0  0  0
  148.4060  136.7978  154.7570 C   0  0  0  0  0  0  0  0  0  0  0  0
  147.2587  137.4883  154.4342 N   0  0  0  0  0  0  0  0  0  0  0  0
  145.9200  136.9377  154.2932 C   0  0  0  0  0  0  0  0  0  0  0  0
  145.7335  136.0949  153.0100 C   0  0  2  0  0  0  0  0  0  0  0  0
  146.2664  136.8058  151.9062 O   0  0  0  0  0  0  0  0  0  0  0  0
  144.2807  135.7413  152.7006 C   0  0  0  0  0  0  0  0  0  0  0  0
  144.3963  134.3759  152.0375 C   0  0  0  0  0  0  0  0  0  0  0  0
  145.4154  133.7509  152.7985 O   0  0  0  0  0  0  0  0  0  0  0  0
  146.4220  134.7173  153.0825 C   0  0  0  0  0  0  0  0  0  0  0  0
  153.7492  138.2047  153.9263 H   0  0  0  0  0  0  0  0  0  0  0  0
  153.7897  139.9042  154.3790 H   0  0  0  0  0  0  0  0  0  0  0  0
  153.0268  139.4107  152.8698 H   0  0  0  0  0  0  0  0  0  0  0  0
  151.2941  138.1424  154.1341 H   0  0  0  0  0  0  0  0  0  0  0  0
  151.1499  138.0337  156.4634 H   0  0  0  0  0  0  0  0  0  0  0  0
  152.8982  138.0388  156.3269 H   0  0  0  0  0  0  0  0  0  0  0  0
  153.0463  140.2549  157.0511 H   0  0  0  0  0  0  0  0  0  0  0  0
  150.1815  139.7081  157.9224 H   0  0  0  0  0  0  0  0  0  0  0  0
  151.6076  139.3470  158.8584 H   0  0  0  0  0  0  0  0  0  0  0  0
  150.3064  141.5255  159.4103 H   0  0  0  0  0  0  0  0  0  0  0  0
  152.0404  141.6475  159.3203 H   0  0  0  0  0  0  0  0  0  0  0  0
  150.3805  143.3777  158.0220 H   0  0  0  0  0  0  0  0  0  0  0  0
  152.0085  143.0375  157.5019 H   0  0  0  0  0  0  0  0  0  0  0  0
  149.5211  141.6395  156.4688 H   0  0  0  0  0  0  0  0  0  0  0  0
  150.4090  142.8671  155.5945 H   0  0  0  0  0  0  0  0  0  0  0  0
  152.3660  141.5337  155.3907 H   0  0  0  0  0  0  0  0  0  0  0  0
  147.1064  141.8953  153.5991 H   0  0  0  0  0  0  0  0  0  0  0  0
  148.4133  135.7338  154.9434 H   0  0  0  0  0  0  0  0  0  0  0  0
  145.6977  136.3371  155.1764 H   0  0  0  0  0  0  0  0  0  0  0  0
  145.2118  137.7673  154.3026 H   0  0  0  0  0  0  0  0  0  0  0  0
  147.1688  136.5502  151.7913 H   0  0  0  0  0  0  0  0  0  0  0  0
  143.7132  135.6314  153.6255 H   0  0  0  0  0  0  0  0  0  0  0  0
  143.7678  136.4791  152.0822 H   0  0  0  0  0  0  0  0  0  0  0  0
  143.4649  133.8104  152.0686 H   0  0  0  0  0  0  0  0  0  0  0  0
  144.7138  134.4676  150.9977 H   0  0  0  0  0  0  0  0  0  0  0  0
  147.2320  134.6242  152.3575 H   0  0  0  0  0  0  0  0  0  0  0  0
  146.8436  134.5140  154.0673 H   0  0  0  0  0  0  0  0  0  0  0  0
  1  2  1  0  0  0  0
  1 27  1  0  0  0  0
  1 28  1  0  0  0  0
  1 29  1  0  0  0  0
  2 10  1  0  0  0  0
  2  3  1  0  0  0  0
  2 30  1  0  0  0  0
  3  4  1  0  0  0  0
  3 31  1  0  0  0  0
  3 32  1  0  0  0  0
  4  9  1  0  0  0  0
  4  5  1  0  0  0  0
  4 33  1  0  0  0  0
  5  6  1  0  0  0  0
  5 34  1  0  0  0  0
  5 35  1  0  0  0  0
  6  7  1  0  0  0  0
  6 36  1  0  0  0  0
  6 37  1  0  0  0  0
  7  8  1  0  0  0  0
  7 38  1  0  0  0  0
  7 39  1  0  0  0  0
  8  9  1  0  0  0  0
  8 40  1  0  0  0  0
  8 41  1  0  0  0  0
  9 10  1  0  0  0  0
  9 42  1  0  0  0  0
 10 11  1  0  0  0  0
 11 16  1  0  0  0  0
 11 12  2  0  0  0  0
 12 13  1  0  0  0  0
 13 14  2  0  0  0  0
 13 43  1  0  0  0  0
 14 15  1  0  0  0  0
 15 19  1  0  0  0  0
 15 16  2  0  0  0  0
 16 17  1  0  0  0  0
 17 18  2  0  0  0  0
 18 19  1  0  0  0  0
 18 44  1  0  0  0  0
 19 20  1  0  0  0  0
 20 21  1  0  0  0  0
 20 45  1  0  0  0  0
 20 46  1  0  0  0  0
 21 26  1  0  0  0  0
 21 22  1  0  0  0  0
 21 23  1  0  0  0  0
 22 47  1  0  0  0  0
 23 24  1  0  0  0  0
 23 48  1  0  0  0  0
 23 49  1  0  0  0  0
 24 25  1  0  0  0  0
 24 50  1  0  0  0  0
 24 51  1  0  0  0  0
 25 26  1  0  0  0  0
 26 52  1  0  0  0  0
 26 53  1  0  0  0  0
M  END
> <s_m_source_file>
AV-unprocessed.smi

> <i_m_source_file_index>
189

> <i_lp_mmshare_version>
43012

> <i_f3d_flags>
0

> <s_epik_input>
W0NIMl0xW0NIMl1bQ0gyXVtDSDJdW0NASF0oW0NASF0xMilOKFtDQEhdKFtDSDNdKVtDSDJdMiljKG5bY0hdbjMpYyhjMzQpbltjSF1uNFtDSDJdW0NAQF01KFtPSF0pW0NIMl1bQ0gyXU9bQ0gyXTU=

> <s_epik_cmdline>
J2VwaWtfcHl0aG9uJywgJy1waCcsICc3LjAnLCAnLXRuJywgJzgnLCAnLW1hJywgJzIwMCcsICctbWV0YWxfYmluZGluZycsICctaW1hZScsICc8aW5maWxlLm1hZT4nLCAnLW9tYWUnLCAnPG91dGZpbGUubWFlPic=

> <r_lp_tautomer_probability>
1

> <r_epik_Ionization_Penalty>
0.00594261

> <r_epik_Ionization_Penalty_Charging>
0

> <r_epik_Ionization_Penalty_Neutral>
0.00594261

> <r_epik_State_Penalty>
0.00429776

> <r_epik_Charging_Adjusted_Penalty>
0.00429776

> <i_epik_Tot_Q>
0

> <i_epik_Tot_abs_Q>
0

> <r_epik_Metal_State_Penalty>
-0

> <b_epik_Metal_Only>
0

> <s_lp_Force_Field>
OPLS_2005

> <r_lp_Energy>
66.7565

> <b_lp_Chiralities_Consistent>
1

> <s_lp_Variant>
AV-unprocessed.smi:189-16

> <Gold.Version>
5.8.1

> <Gold.Id.Protein>
6NUR|6NUR_protein|mol2

> <Gold.PLP.Fitness>
41.8851

> <Gold.PLP.PLP>
-35.7150

> <Gold.PLP.part.hbond>
-3.4131

> <Gold.PLP.part.metal>
0.0000

> <Gold.PLP.part.buried>
-4.7633

> <Gold.PLP.part.nonpolar>
-28.0280

> <Gold.PLP.part.repulsive>
1.6115

> <Gold.PLP.ligand.clash>
0.0229

> <Gold.PLP.ligand.torsion>
0.4781

> <Gold.PLP.Chemscore.Hbond>
2.3572

> <Gold.PLP.Chemscore.CHOScore>
0.0000

> <Gold.PLP.Chemscore.Metal>
0.0000

> <Gold.Chemscore.Hbonds>
donor molecule, donor type, donor heavy atom, donor atom, acceptor molecule, acceptor atom, score
      L1  H    22    47       P1  7948  1.00
      P1  H  7989  7998       L1    10  0.75
      P1  H  8011  8017       L1    12  0.23

> <Gold.PLP.Chemscore.Internal.Correction>
0.0777

> <Gold.Rescore>
     Score         DG    S(hbond)    S(metal)    S(lipo)     H(rot)  DE(clash)    DE(int)     intcor
     10.13     -13.18       1.07        0.00      79.63       2.03       0.00       3.05       ----

> <Gold.Chemscore.Fitness>
10.1350

> <Gold.Chemscore.DG>
-13.1818

> <Gold.Chemscore.ZeroCoef>
-5.4800

> <Gold.Chemscore.Hbond>
1.0720

> <Gold.Chemscore.Metal>
0.0000

> <Gold.Chemscore.Lipo>
79.6346

> <Gold.Chemscore.Internal_Hbond>
0.0000

> <Gold.Chemscore.DEClash>
0.0000

> <Gold.Chemscore.DEInternal>
3.0468

> <Gold.Chemscore.Rot>
2.0297

> <Gold.Chemscore.Internal.Correction>
   9.000000E+99

> <Gold.Chemscore.Hbonds>
donor molecule, donor type, donor heavy atom, donor atom, acceptor molecule, acceptor atom, score
      L1  H    22    47       P1  7948  1.00
      P1  H  7989  7998       L1    10  0.07
      P1  H  8011  8017       L1    12  0.12

> <Gold.Chemscore.Hbond.Weighted>
-3.5805

> <Gold.Chemscore.Metal.Weighted>
-0.0000

> <Gold.Chemscore.Lipo.Weighted>
-9.3172

> <Gold.Chemscore.Internal_Hbond.Weighted>
0.0000

> <Gold.Chemscore.DEClash.Weighted>
0.0000

> <Gold.Chemscore.DEInternal.Weighted>
3.0468

> <Gold.Chemscore.Rot.Weighted>
5.1960

> <Gold.Chemscore.Internal.Correction.Weighted>
   9.000000E+99

> <Gold.Protein.RotatedTorsions>
[ 6907 6896 6895 6894 ] final  -84.89 input  -60.11 | X-H torsion
[ 7974 7965 7964 7962 ] final  164.39 input  175.53 | X-H torsion
[ 8008 7997 7996 7995 ] final  -49.92 input   59.86 | X-H torsion
[ 10167 10162 10161 10158 ] final  175.23 input  -65.29 | X-H torsion
[ 10718 10713 10712 10709 ] final  -33.36 input   66.30 | X-H torsion
[ 10763 10752 10751 10750 ] final  134.39 input  -60.55 | X-H torsion
[ 11005 11000 10999 10996 ] final   37.57 input  -57.11 | X-H torsion

> <Gold.Protein.ActiveResidues>
 VAL166  LYS551  ARG553  GLY616  TRP617  ASP618  TYR619  PRO620  LYS621  CYS622 
 ASP623  PHE694  ASN695  SER759  ASP760  ASP761  ALA762  ILE779  LEU786  VAL792 
 PHE793  MET794  SER795  GLU796  ALA797  LYS798  CYS799  TRP800  GLU811  SER814 

> <Gold.Protein.RotatedAtoms>
  150.6873  134.3288  159.4818 H   0  0  0  0  0  0  0  0  0  0  0  0  # atno 6907 bound_to 6896
  152.1155  134.9241  160.0574 H   0  0  0  0  0  0  0  0  0  0  0  0  # atno 6908 bound_to 6896
  152.0467  133.3966  159.4396 H   0  0  0  0  0  0  0  0  0  0  0  0  # atno 6909 bound_to 6896
  144.7547  139.8319  143.6354 H   0  0  0  0  0  0  0  0  0  0  0  0  # atno 7974 bound_to 7965
  154.4052  140.1285  156.4582 H   0  0  0  0  0  0  0  0  0  0  0  0  # atno 8008 bound_to 7997
  155.7299  140.3491  155.5035 H   0  0  0  0  0  0  0  0  0  0  0  0  # atno 8009 bound_to 7997
  155.9137  140.1040  157.1250 H   0  0  0  0  0  0  0  0  0  0  0  0  # atno 8010 bound_to 7997
  139.5170  144.3055  152.0340 H   0  0  0  0  0  0  0  0  0  0  0  0  # atno 10167 bound_to 10162
  156.3637  130.4328  149.7603 H   0  0  0  0  0  0  0  0  0  0  0  0  # atno 10718 bound_to 10713
  153.8227  135.3114  155.3412 H   0  0  0  0  0  0  0  0  0  0  0  0  # atno 10763 bound_to 10752
  154.8006  135.4729  154.0269 H   0  0  0  0  0  0  0  0  0  0  0  0  # atno 10764 bound_to 10752
  153.1683  135.6873  153.8734 H   0  0  0  0  0  0  0  0  0  0  0  0  # atno 10765 bound_to 10752
  140.2212  134.3638  155.8004 H   0  0  0  0  0  0  0  0  0  0  0  0  # atno 11005 bound_to 11000
  146.1543  139.4636  143.0029 LP  0  0  0  0  0  0  0  0  0  0  0  0  # atno 17320 bound_to 7965
  145.6820  141.0188  143.1601 LP  0  0  0  0  0  0  0  0  0  0  0  0  # atno 17321 bound_to 7965
  140.2501  144.4178  150.6225 LP  0  0  0  0  0  0  0  0  0  0  0  0  # atno 17342 bound_to 10162
  140.6230  143.2178  151.6654 LP  0  0  0  0  0  0  0  0  0  0  0  0  # atno 17343 bound_to 10162
  156.4757  130.8017  151.3034 LP  0  0  0  0  0  0  0  0  0  0  0  0  # atno 17370 bound_to 10713
  157.7476  131.0022  150.2990 LP  0  0  0  0  0  0  0  0  0  0  0  0  # atno 17371 bound_to 10713
  141.2223  133.7194  156.8579 LP  0  0  0  0  0  0  0  0  0  0  0  0  # atno 17394 bound_to 11000
  140.1848  134.9008  157.2991 LP  0  0  0  0  0  0  0  0  0  0  0  0  # atno 17395 bound_to 11000

$$$$
