AV-unprocessed.smi:362|AV-procd|sdf|2421|dock3
  -GOLD-   2262022363D 1   1.00000     0.00000
 Structure written by MMmdl.
 36 38  0  0  0  0  0  0  0  0  1 V2000
  146.0184  133.5973  154.8070 O   0  0  0  0  0  0  0  0  0  0  0  0
  146.6862  134.1611  153.9392 C   0  0  0  0  0  0  0  0  0  0  0  0
  146.0118  135.0560  152.8898 C   0  0  0  0  0  0  0  0  0  0  0  0
  145.4823  134.3002  151.7451 N   0  0  0  0  0  0  0  0  0  0  0  0
  146.2834  133.3833  151.0792 C   0  0  0  0  0  0  0  0  0  0  0  0
  145.8631  132.6620  150.0131 C   0  0  0  0  0  0  0  0  0  0  0  0
  144.5066  132.8228  149.5009 C   0  0  0  0  0  0  0  0  0  0  0  0
  144.0332  132.2151  148.5434 O   0  0  0  0  0  0  0  0  0  0  0  0
  143.7326  133.7558  150.1958 N   0  0  0  0  0  0  0  0  0  0  0  0
  144.1598  134.5033  151.2942 C   0  0  0  0  0  0  0  0  0  0  0  0
  143.3957  135.3038  151.8324 O   0  0  0  0  0  0  0  0  0  0  0  0
  148.0216  134.0597  153.8542 N   0  0  0  0  0  0  0  0  0  0  0  0
  148.8759  133.2731  154.7375 C   0  0  0  0  0  0  0  0  0  0  0  0
  148.3320  131.8743  154.9783 C   0  0  0  0  0  0  0  0  0  0  0  0
  149.2492  130.6759  155.0494 C   0  0  0  0  0  0  0  0  0  0  0  0
  148.3066  130.8383  153.8791 C   0  0  0  0  0  0  0  0  0  0  0  0
  149.1106  133.9834  156.0582 C   0  0  0  0  0  0  0  0  0  0  0  0
  150.1695  135.0519  156.1894 C   0  0  0  0  0  0  0  0  0  0  0  0
  150.3456  133.7222  156.8879 C   0  0  0  0  0  0  0  0  0  0  0  0
  142.7866  133.9033  149.8753 H   0  0  0  0  0  0  0  0  0  0  0  0
  145.2106  135.6086  153.3824 H   0  0  0  0  0  0  0  0  0  0  0  0
  146.7145  135.8163  152.5425 H   0  0  0  0  0  0  0  0  0  0  0  0
  147.2980  133.2346  151.4210 H   0  0  0  0  0  0  0  0  0  0  0  0
  146.5349  131.9632  149.5358 H   0  0  0  0  0  0  0  0  0  0  0  0
  148.4841  134.5643  153.1119 H   0  0  0  0  0  0  0  0  0  0  0  0
  149.8526  133.1669  154.2605 H   0  0  0  0  0  0  0  0  0  0  0  0
  147.4858  131.8536  155.6628 H   0  0  0  0  0  0  0  0  0  0  0  0
  150.3091  130.8295  154.8578 H   0  0  0  0  0  0  0  0  0  0  0  0
  149.0145  129.9078  155.7834 H   0  0  0  0  0  0  0  0  0  0  0  0
  147.4425  130.1791  153.8318 H   0  0  0  0  0  0  0  0  0  0  0  0
  148.7446  131.1026  152.9187 H   0  0  0  0  0  0  0  0  0  0  0  0
  148.1963  134.1576  156.6228 H   0  0  0  0  0  0  0  0  0  0  0  0
  150.7986  135.2514  155.3239 H   0  0  0  0  0  0  0  0  0  0  0  0
  149.9352  135.9177  156.8053 H   0  0  0  0  0  0  0  0  0  0  0  0
  150.2282  133.7020  157.9694 H   0  0  0  0  0  0  0  0  0  0  0  0
  151.0979  133.0455  156.4878 H   0  0  0  0  0  0  0  0  0  0  0  0
  1  2  2  0  0  0  0
  2  3  1  0  0  0  0
  2 12  1  0  0  0  0
  3  4  1  0  0  0  0
  3 21  1  0  0  0  0
  3 22  1  0  0  0  0
  4 10  1  0  0  0  0
  4  5  1  0  0  0  0
  5  6  2  0  0  0  0
  5 23  1  0  0  0  0
  6  7  1  0  0  0  0
  6 24  1  0  0  0  0
  7  8  2  0  0  0  0
  7  9  1  0  0  0  0
  9 20  1  0  0  0  0
  9 10  1  0  0  0  0
 10 11  2  0  0  0  0
 12 13  1  0  0  0  0
 12 25  1  0  0  0  0
 13 14  1  0  0  0  0
 13 17  1  0  0  0  0
 13 26  1  0  0  0  0
 14 16  1  0  0  0  0
 14 15  1  0  0  0  0
 14 27  1  0  0  0  0
 15 16  1  0  0  0  0
 15 28  1  0  0  0  0
 15 29  1  0  0  0  0
 16 30  1  0  0  0  0
 16 31  1  0  0  0  0
 17 19  1  0  0  0  0
 17 18  1  0  0  0  0
 17 32  1  0  0  0  0
 18 19  1  0  0  0  0
 18 33  1  0  0  0  0
 18 34  1  0  0  0  0
 19 35  1  0  0  0  0
 19 36  1  0  0  0  0
M  END
> <s_m_source_file>
AV-unprocessed.smi

> <i_m_source_file_index>
362

> <i_lp_mmshare_version>
43012

> <i_f3d_flags>
0

> <s_epik_input>
W0NIMl0xW0NIMl1bQ0hdMVtDSF0oW0NIXTJbQ0gyXVtDSDJdMilbTkhdQyg9TylbQ0gyXW4zW2NIXVtjSF1jKD1PKVtuSF1jMz1P

> <s_epik_cmdline>
J2VwaWtfcHl0aG9uJywgJy1waCcsICc3LjAnLCAnLXRuJywgJzgnLCAnLW1hJywgJzIwMCcsICctbWV0YWxfYmluZGluZycsICctaW1hZScsICc8aW5maWxlLm1hZT4nLCAnLW9tYWUnLCAnPG91dGZpbGUubWFlPic=

> <r_lp_tautomer_probability>
0.999537

> <r_epik_Ionization_Penalty>
0.00315598

> <r_epik_Ionization_Penalty_Charging>
0.00315596

> <r_epik_Ionization_Penalty_Neutral>
2.04126e-08

> <r_epik_State_Penalty>
0.00222351

> <r_epik_Charging_Adjusted_Penalty>
0.00537947

> <i_epik_Tot_Q>
0

> <i_epik_Tot_abs_Q>
0

> <r_epik_Metal_State_Penalty>
0.363464

> <b_epik_Metal_Only>
0

> <s_lp_Force_Field>
OPLS_2005

> <r_lp_Energy>
23.1626

> <b_lp_Chiralities_Consistent>
1

> <s_lp_Variant>
AV-unprocessed.smi:362-1

> <Gold.Version>
5.8.1

> <Gold.Id.Protein>
6NUR|6NUR_protein|mol2

> <Gold.PLP.Fitness>
40.2271

> <Gold.PLP.PLP>
-33.0012

> <Gold.PLP.part.hbond>
-3.0000

> <Gold.PLP.part.metal>
0.0000

> <Gold.PLP.part.buried>
-5.5855

> <Gold.PLP.part.nonpolar>
-24.9046

> <Gold.PLP.part.repulsive>
0.5343

> <Gold.PLP.ligand.clash>
0.0000

> <Gold.PLP.ligand.torsion>
1.7410

> <Gold.PLP.Chemscore.Hbond>
2.8640

> <Gold.PLP.Chemscore.CHOScore>
0.0000

> <Gold.PLP.Chemscore.Metal>
0.0000

> <Gold.Chemscore.Hbonds>
donor molecule, donor type, donor heavy atom, donor atom, acceptor molecule, acceptor atom, score
      L1  H     9    20       P1 10186  1.00
      L1  H    12    25       P1  7948  0.84
      P1  H 10785 10796       L1     8  0.27

> <Gold.PLP.Chemscore.Internal.Correction>
2.1160

> <Gold.Rescore>
     Score         DG    S(hbond)    S(metal)    S(lipo)     H(rot)  DE(clash)    DE(int)     intcor
     10.88     -13.92       2.29        0.00      53.88       2.15       0.18       2.86       ----

> <Gold.Chemscore.Fitness>
10.8797

> <Gold.Chemscore.DG>
-13.9152

> <Gold.Chemscore.ZeroCoef>
-5.4800

> <Gold.Chemscore.Hbond>
2.2859

> <Gold.Chemscore.Metal>
0.0000

> <Gold.Chemscore.Lipo>
53.8839

> <Gold.Chemscore.Internal_Hbond>
0.0000

> <Gold.Chemscore.DEClash>
0.1768

> <Gold.Chemscore.DEInternal>
2.8588

> <Gold.Chemscore.Rot>
2.1500

> <Gold.Chemscore.Internal.Correction>
   9.000000E+99

> <Gold.Chemscore.Hbonds>
donor molecule, donor type, donor heavy atom, donor atom, acceptor molecule, acceptor atom, score
      L1  H     9    20       P1 10186  1.00
      L1  H    12    25       P1  7948  0.32
      P1  H 10785 10796       L1     8  0.27

> <Gold.Chemscore.Hbond.Weighted>
-7.6348

> <Gold.Chemscore.Metal.Weighted>
-0.0000

> <Gold.Chemscore.Lipo.Weighted>
-6.3044

> <Gold.Chemscore.Internal_Hbond.Weighted>
0.0000

> <Gold.Chemscore.DEClash.Weighted>
0.1768

> <Gold.Chemscore.DEInternal.Weighted>
2.8588

> <Gold.Chemscore.Rot.Weighted>
5.5040

> <Gold.Chemscore.Internal.Correction.Weighted>
   9.000000E+99

> <Gold.Protein.RotatedTorsions>
[ 6907 6896 6895 6894 ] final  -99.86 input  -60.11 | X-H torsion
[ 7974 7965 7964 7962 ] final  -81.76 input  175.53 | X-H torsion
[ 8008 7997 7996 7995 ] final -177.90 input   59.86 | X-H torsion
[ 10167 10162 10161 10158 ] final -143.57 input  -65.29 | X-H torsion
[ 10718 10713 10712 10709 ] final  -81.43 input   66.30 | X-H torsion
[ 10763 10752 10751 10750 ] final   55.06 input  -60.55 | X-H torsion
[ 11005 11000 10999 10996 ] final  107.08 input  -57.11 | X-H torsion

> <Gold.Protein.ActiveResidues>
 VAL166  LYS551  ARG553  GLY616  TRP617  ASP618  TYR619  PRO620  LYS621  CYS622 
 ASP623  PHE694  ASN695  SER759  ASP760  ASP761  ALA762  ILE779  LEU786  VAL792 
 PHE793  MET794  SER795  GLU796  ALA797  LYS798  CYS799  TRP800  GLU811  SER814 

> <Gold.Protein.RotatedAtoms>
  150.7095  134.0976  159.3953 H   0  0  0  0  0  0  0  0  0  0  0  0  # atno 6907 bound_to 6896
  151.8962  135.0394  160.0511 H   0  0  0  0  0  0  0  0  0  0  0  0  # atno 6908 bound_to 6896
  152.2451  133.5132  159.5329 H   0  0  0  0  0  0  0  0  0  0  0  0  # atno 6909 bound_to 6896
  145.5423  140.9508  143.1544 H   0  0  0  0  0  0  0  0  0  0  0  0  # atno 7974 bound_to 7965
  156.0124  140.1243  157.0440 H   0  0  0  0  0  0  0  0  0  0  0  0  # atno 8008 bound_to 7997
  154.4280  140.1085  156.5918 H   0  0  0  0  0  0  0  0  0  0  0  0  # atno 8009 bound_to 7997
  155.6061  140.3471  155.4610 H   0  0  0  0  0  0  0  0  0  0  0  0  # atno 8010 bound_to 7997
  139.7981  143.7872  152.2656 H   0  0  0  0  0  0  0  0  0  0  0  0  # atno 10167 bound_to 10162
  156.0050  130.4604  150.3952 H   0  0  0  0  0  0  0  0  0  0  0  0  # atno 10718 bound_to 10713
  152.9812  135.5723  154.5006 H   0  0  0  0  0  0  0  0  0  0  0  0  # atno 10763 bound_to 10752
  154.4526  135.2779  155.1772 H   0  0  0  0  0  0  0  0  0  0  0  0  # atno 10764 bound_to 10752
  154.3394  135.6232  153.5642 H   0  0  0  0  0  0  0  0  0  0  0  0  # atno 10765 bound_to 10752
  139.8823  134.9389  156.5765 H   0  0  0  0  0  0  0  0  0  0  0  0  # atno 11005 bound_to 11000
  144.7571  139.7048  143.7249 LP  0  0  0  0  0  0  0  0  0  0  0  0  # atno 17320 bound_to 7965
  146.1973  139.5246  142.9766 LP  0  0  0  0  0  0  0  0  0  0  0  0  # atno 17321 bound_to 7965
  139.7983  144.7384  150.9859 LP  0  0  0  0  0  0  0  0  0  0  0  0  # atno 17342 bound_to 10162
  140.7820  143.4371  151.0607 LP  0  0  0  0  0  0  0  0  0  0  0  0  # atno 17343 bound_to 10162
  157.2024  131.0441  151.2643 LP  0  0  0  0  0  0  0  0  0  0  0  0  # atno 17370 bound_to 10713
  157.3963  130.7309  149.6734 LP  0  0  0  0  0  0  0  0  0  0  0  0  # atno 17371 bound_to 10713
  140.8059  133.8468  155.8767 LP  0  0  0  0  0  0  0  0  0  0  0  0  # atno 17394 bound_to 11000
  140.9550  134.1729  157.4698 LP  0  0  0  0  0  0  0  0  0  0  0  0  # atno 17395 bound_to 11000

$$$$
