AV-unprocessed.smi:977|AV-procd|sdf|4307|dock2
  -GOLD-   22720 2213D 1   1.00000     0.00000
 Structure written by MMmdl.
 37 38  0  0  0  0  0  0  0  0  1 V2000
  146.1861  133.2333  151.3604 C   0  0  0  0  0  0  0  0  0  0  0  0
  147.0613  132.3372  152.1921 C   0  0  0  0  0  0  0  0  0  0  0  0
  146.8609  131.0280  152.1552 N   0  0  0  0  0  0  0  0  0  0  0  0
  147.8517  130.4449  152.9602 O   0  0  0  0  0  0  0  0  0  0  0  0
  148.6372  131.4281  153.4721 C   0  0  0  0  0  0  0  0  0  0  0  0
  149.7687  131.0062  154.3471 C   0  0  0  0  0  0  0  0  0  0  0  0
  148.1661  132.6339  153.0439 C   0  0  0  0  0  0  0  0  0  0  0  0
  148.7534  133.8854  153.3559 N   0  0  0  0  0  0  0  0  0  0  0  0
  149.1598  134.3039  154.5636 C   0  0  0  0  0  0  0  0  0  0  0  0
  149.1244  133.6266  155.5903 O   0  0  0  0  0  0  0  0  0  0  0  0
  149.6310  135.5581  154.5116 N   0  0  0  0  0  0  0  0  0  0  0  0
  150.1602  136.3216  155.6408 C   0  0  1  0  0  0  0  0  0  0  0  0
  151.2286  135.4757  156.3485 C   0  0  0  0  0  0  0  0  0  0  0  0
  150.7252  137.6763  155.1633 C   0  0  1  0  0  0  0  0  0  0  0  0
  151.0870  138.6604  156.2777 C   0  0  0  0  0  0  0  0  0  0  0  0
  152.0752  139.5637  155.5773 C   0  0  0  0  0  0  0  0  0  0  0  0
  152.8386  138.5758  154.6994 C   0  0  0  0  0  0  0  0  0  0  0  0
  151.9482  137.4888  154.4555 O   0  0  0  0  0  0  0  0  0  0  0  0
  146.7419  134.0944  150.9891 H   0  0  0  0  0  0  0  0  0  0  0  0
  145.3403  133.6027  151.9403 H   0  0  0  0  0  0  0  0  0  0  0  0
  145.7859  132.7074  150.4930 H   0  0  0  0  0  0  0  0  0  0  0  0
  150.4517  131.8353  154.5322 H   0  0  0  0  0  0  0  0  0  0  0  0
  150.3365  130.1995  153.8831 H   0  0  0  0  0  0  0  0  0  0  0  0
  149.3997  130.6509  155.3092 H   0  0  0  0  0  0  0  0  0  0  0  0
  148.9564  134.4881  152.5720 H   0  0  0  0  0  0  0  0  0  0  0  0
  149.6210  136.0277  153.6180 H   0  0  0  0  0  0  0  0  0  0  0  0
  149.3633  136.5131  156.3618 H   0  0  0  0  0  0  0  0  0  0  0  0
  151.6231  135.9908  157.2246 H   0  0  0  0  0  0  0  0  0  0  0  0
  152.0671  135.2578  155.6859 H   0  0  0  0  0  0  0  0  0  0  0  0
  150.8158  134.5250  156.6877 H   0  0  0  0  0  0  0  0  0  0  0  0
  150.0196  138.1574  154.4832 H   0  0  0  0  0  0  0  0  0  0  0  0
  150.2237  139.1975  156.6717 H   0  0  0  0  0  0  0  0  0  0  0  0
  151.5767  138.1434  157.1042 H   0  0  0  0  0  0  0  0  0  0  0  0
  151.5439  140.2866  154.9567 H   0  0  0  0  0  0  0  0  0  0  0  0
  152.7203  140.1113  156.2648 H   0  0  0  0  0  0  0  0  0  0  0  0
  153.1752  139.0299  153.7669 H   0  0  0  0  0  0  0  0  0  0  0  0
  153.7143  138.1928  155.2247 H   0  0  0  0  0  0  0  0  0  0  0  0
  1  2  1  0  0  0  0
  1 19  1  0  0  0  0
  1 20  1  0  0  0  0
  1 21  1  0  0  0  0
  2  7  1  0  0  0  0
  2  3  2  0  0  0  0
  3  4  1  0  0  0  0
  4  5  1  0  0  0  0
  5  6  1  0  0  0  0
  5  7  2  0  0  0  0
  6 22  1  0  0  0  0
  6 23  1  0  0  0  0
  6 24  1  0  0  0  0
  7  8  1  0  0  0  0
  8  9  1  0  0  0  0
  8 25  1  0  0  0  0
  9 10  2  0  0  0  0
  9 11  1  0  0  0  0
 11 12  1  0  0  0  0
 11 26  1  0  0  0  0
 12 13  1  0  0  0  0
 12 14  1  0  0  0  0
 12 27  1  0  0  0  0
 13 28  1  0  0  0  0
 13 29  1  0  0  0  0
 13 30  1  0  0  0  0
 14 18  1  0  0  0  0
 14 15  1  0  0  0  0
 14 31  1  0  0  0  0
 15 16  1  0  0  0  0
 15 32  1  0  0  0  0
 15 33  1  0  0  0  0
 16 17  1  0  0  0  0
 16 34  1  0  0  0  0
 16 35  1  0  0  0  0
 17 18  1  0  0  0  0
 17 36  1  0  0  0  0
 17 37  1  0  0  0  0
M  END
> <s_m_source_file>
AV-unprocessed.smi

> <i_m_source_file_index>
977

> <i_lp_mmshare_version>
43012

> <i_f3d_flags>
0

> <s_epik_input>
W0NIM11jMW5vYyhbQ0gzXSljMVtOSF1DKD1PKVtOSF1bQ0BIXShbQ0gzXSlbQ0BASF0yW0NIMl1bQ0gyXVtDSDJdTzI=

> <s_epik_cmdline>
J2VwaWtfcHl0aG9uJywgJy1waCcsICc3LjAnLCAnLXRuJywgJzgnLCAnLW1hJywgJzIwMCcsICctbWV0YWxfYmluZGluZycsICctaW1hZScsICc8aW5maWxlLm1hZT4nLCAnLW9tYWUnLCAnPG91dGZpbGUubWFlPic=

> <r_lp_tautomer_probability>
1

> <r_epik_Ionization_Penalty>
3.41601e-05

> <r_epik_Ionization_Penalty_Charging>
0

> <r_epik_Ionization_Penalty_Neutral>
3.41601e-05

> <r_epik_State_Penalty>
-0

> <r_epik_Charging_Adjusted_Penalty>
0

> <i_epik_Tot_Q>
0

> <i_epik_Tot_abs_Q>
0

> <r_epik_Metal_State_Penalty>
-0

> <b_epik_Metal_Only>
0

> <s_lp_Force_Field>
OPLS_2005

> <r_lp_Energy>
19.4669

> <b_lp_Chiralities_Consistent>
1

> <s_lp_Variant>
AV-unprocessed.smi:977-4

> <Gold.Version>
5.8.1

> <Gold.Id.Protein>
6NUR|6NUR_protein|mol2

> <Gold.PLP.Fitness>
35.1193

> <Gold.PLP.PLP>
-28.8280

> <Gold.PLP.part.hbond>
-3.0000

> <Gold.PLP.part.metal>
0.0000

> <Gold.PLP.part.buried>
-4.9049

> <Gold.PLP.part.nonpolar>
-23.1589

> <Gold.PLP.part.repulsive>
0.4520

> <Gold.PLP.ligand.clash>
0.0000

> <Gold.PLP.ligand.torsion>
0.5304

> <Gold.PLP.Chemscore.Hbond>
2.3460

> <Gold.PLP.Chemscore.CHOScore>
0.0000

> <Gold.PLP.Chemscore.Metal>
0.0000

> <Gold.Chemscore.Hbonds>
donor molecule, donor type, donor heavy atom, donor atom, acceptor molecule, acceptor atom, score
      L1  H     8    25       P1  7948  0.20
      L1  H    11    26       P1  7948  1.00
      P1  H 10752 10764       L1    18  0.76

> <Gold.PLP.Chemscore.Internal.Correction>
0.3142

> <Gold.Rescore>
     Score         DG    S(hbond)    S(metal)    S(lipo)     H(rot)  DE(clash)    DE(int)     intcor
     14.40     -16.73       2.20        0.00      60.05       1.22       0.03       2.31       ----

> <Gold.Chemscore.Fitness>
14.3956

> <Gold.Chemscore.DG>
-16.7342

> <Gold.Chemscore.ZeroCoef>
-5.4800

> <Gold.Chemscore.Hbond>
2.2009

> <Gold.Chemscore.Metal>
0.0000

> <Gold.Chemscore.Lipo>
60.0539

> <Gold.Chemscore.Internal_Hbond>
0.0000

> <Gold.Chemscore.DEClash>
0.0251

> <Gold.Chemscore.DEInternal>
2.3135

> <Gold.Chemscore.Rot>
1.2200

> <Gold.Chemscore.Internal.Correction>
   9.000000E+99

> <Gold.Chemscore.Hbonds>
donor molecule, donor type, donor heavy atom, donor atom, acceptor molecule, acceptor atom, score
      L1  H    11    26       P1  7948  0.33
      P1  H 10752 10764       L1    18  0.59

> <Gold.Chemscore.Hbond.Weighted>
-7.3511

> <Gold.Chemscore.Metal.Weighted>
-0.0000

> <Gold.Chemscore.Lipo.Weighted>
-7.0263

> <Gold.Chemscore.Internal_Hbond.Weighted>
0.0000

> <Gold.Chemscore.DEClash.Weighted>
0.0251

> <Gold.Chemscore.DEInternal.Weighted>
2.3135

> <Gold.Chemscore.Rot.Weighted>
3.1232

> <Gold.Chemscore.Internal.Correction.Weighted>
   9.000000E+99

> <Gold.Protein.RotatedTorsions>
[ 6907 6896 6895 6894 ] final  -23.36 input  -60.11 | X-H torsion
[ 7974 7965 7964 7962 ] final -115.37 input  175.53 | X-H torsion
[ 8008 7997 7996 7995 ] final  -21.04 input   59.86 | X-H torsion
[ 10167 10162 10161 10158 ] final  111.16 input  -65.29 | X-H torsion
[ 10718 10713 10712 10709 ] final   71.90 input   66.30 | X-H torsion
[ 10763 10752 10751 10750 ] final  -72.54 input  -60.55 | X-H torsion
[ 11005 11000 10999 10996 ] final  169.87 input  -57.11 | X-H torsion

> <Gold.Protein.ActiveResidues>
 VAL166  LYS551  ARG553  GLY616  TRP617  ASP618  TYR619  PRO620  LYS621  CYS622 
 ASP623  PHE694  ASN695  SER759  ASP760  ASP761  ALA762  ILE779  LEU786  VAL792 
 PHE793  MET794  SER795  GLU796  ALA797  LYS798  CYS799  TRP800  GLU811  SER814 

> <Gold.Protein.RotatedAtoms>
  151.2051  135.0458  159.8887 H   0  0  0  0  0  0  0  0  0  0  0  0  # atno 6907 bound_to 6896
  152.5429  134.0807  159.8244 H   0  0  0  0  0  0  0  0  0  0  0  0  # atno 6908 bound_to 6896
  151.0953  133.5237  159.2644 H   0  0  0  0  0  0  0  0  0  0  0  0  # atno 6909 bound_to 6896
  145.1092  140.8601  143.3880 H   0  0  0  0  0  0  0  0  0  0  0  0  # atno 7974 bound_to 7965
  154.4731  140.2045  155.9946 H   0  0  0  0  0  0  0  0  0  0  0  0  # atno 8008 bound_to 7997
  156.1044  140.3239  155.7956 H   0  0  0  0  0  0  0  0  0  0  0  0  # atno 8009 bound_to 7997
  155.4743  140.0533  157.2966 H   0  0  0  0  0  0  0  0  0  0  0  0  # atno 8010 bound_to 7997
  139.6632  144.7128  151.1825 H   0  0  0  0  0  0  0  0  0  0  0  0  # atno 10167 bound_to 10162
  157.6474  130.9551  150.0853 H   0  0  0  0  0  0  0  0  0  0  0  0  # atno 10718 bound_to 10713
  154.4471  135.5926  153.6167 H   0  0  0  0  0  0  0  0  0  0  0  0  # atno 10763 bound_to 10752
  152.9810  135.6012  154.3651 H   0  0  0  0  0  0  0  0  0  0  0  0  # atno 10764 bound_to 10752
  154.3508  135.2841  155.2352 H   0  0  0  0  0  0  0  0  0  0  0  0  # atno 10765 bound_to 10752
  140.3023  134.7585  157.3926 H   0  0  0  0  0  0  0  0  0  0  0  0  # atno 11005 bound_to 11000
  145.0867  139.2920  143.5756 LP  0  0  0  0  0  0  0  0  0  0  0  0  # atno 17320 bound_to 7965
  146.3527  140.0390  142.8644 LP  0  0  0  0  0  0  0  0  0  0  0  0  # atno 17321 bound_to 7965
  140.7589  143.5960  150.8747 LP  0  0  0  0  0  0  0  0  0  0  0  0  # atno 17342 bound_to 10162
  139.9620  143.6153  152.2999 LP  0  0  0  0  0  0  0  0  0  0  0  0  # atno 17343 bound_to 10162
  156.1818  130.3650  149.9025 LP  0  0  0  0  0  0  0  0  0  0  0  0  # atno 17370 bound_to 10713
  156.6976  130.8920  151.3595 LP  0  0  0  0  0  0  0  0  0  0  0  0  # atno 17371 bound_to 10713
  140.1098  134.5361  155.8276 LP  0  0  0  0  0  0  0  0  0  0  0  0  # atno 17394 bound_to 11000
  141.2125  133.6721  156.6668 LP  0  0  0  0  0  0  0  0  0  0  0  0  # atno 17395 bound_to 11000

$$$$
