AV-unprocessed.smi:837|AV-procd|sdf|3901|dock7
  -GOLD-   22720 1363D 1   1.00000     0.00000
 Structure written by MMmdl.
 48 50  0  0  0  0  0  0  0  0  2 V2000
  150.3447  141.0481  155.7960 C   0  0  0  0  0  0  0  0  0  0  0  0
  151.3378  141.3169  156.9482 C   0  0  1  0  0  0  0  0  0  0  0  0
  150.6726  142.2122  158.0180 C   0  0  0  0  0  0  0  0  0  0  0  0
  151.6448  142.5732  159.1504 C   0  0  0  0  0  0  0  0  0  0  0  0
  152.2291  141.3148  159.8042 C   0  0  0  0  0  0  0  0  0  0  0  0
  152.9079  140.4145  158.7574 C   0  0  0  0  0  0  0  0  0  0  0  0
  151.9786  140.0323  157.5735 C   0  0  2  0  0  0  0  0  0  0  0  0
  152.7684  139.3251  156.5802 N   0  5  0  0  0  0  0  0  0  0  0  0
  152.3001  138.0614  156.4571 C   0  0  0  0  0  0  0  0  0  0  0  0
  152.7431  137.1813  155.7200 O   0  0  0  0  0  0  0  0  0  0  0  0
  151.2445  137.8566  157.2670 N   0  0  0  0  0  0  0  0  0  0  0  0
  150.5120  136.5889  157.3939 C   0  0  0  0  0  0  0  0  0  0  0  0
  149.8685  136.1173  156.0815 C   0  0  0  0  0  0  0  0  0  0  0  0
  149.0540  136.8193  155.4797 O   0  0  0  0  0  0  0  0  0  0  0  0
  150.2579  134.9105  155.6430 N   0  0  0  0  0  0  0  0  0  0  0  0
  149.7829  134.2724  154.4212 C   0  0  0  0  0  0  0  0  0  0  0  0
  149.4270  132.7952  154.6555 C   0  0  0  0  0  0  0  0  0  0  0  0
  148.3015  132.3314  153.7516 C   0  0  0  0  0  0  0  0  0  0  0  0
  147.8009  131.0162  153.8397 C   0  0  0  0  0  0  0  0  0  0  0  0
  146.7508  130.6317  152.9837 C   0  0  0  0  0  0  0  0  0  0  0  0
  146.2445  131.5822  152.0746 C   0  0  0  0  0  0  0  0  0  0  0  0
  146.7155  132.8447  151.9823 N   0  0  0  0  0  0  0  0  0  0  0  0
  147.7232  133.2051  152.8061 C   0  0  0  0  0  0  0  0  0  0  0  0
  150.9695  138.9579  157.9748 C   0  0  0  0  0  0  0  0  0  0  0  0
  150.0712  139.1015  158.8055 O   0  0  0  0  0  0  0  0  0  0  0  0
  149.4623  140.5069  156.1382 H   0  0  0  0  0  0  0  0  0  0  0  0
  150.8036  140.4671  154.9960 H   0  0  0  0  0  0  0  0  0  0  0  0
  150.0009  141.9839  155.3548 H   0  0  0  0  0  0  0  0  0  0  0  0
  152.1531  141.9014  156.5178 H   0  0  0  0  0  0  0  0  0  0  0  0
  150.3093  143.1304  157.5552 H   0  0  0  0  0  0  0  0  0  0  0  0
  149.7942  141.7179  158.4334 H   0  0  0  0  0  0  0  0  0  0  0  0
  152.4540  143.1882  158.7545 H   0  0  0  0  0  0  0  0  0  0  0  0
  151.1341  143.1783  159.9000 H   0  0  0  0  0  0  0  0  0  0  0  0
  152.9532  141.5988  160.5681 H   0  0  0  0  0  0  0  0  0  0  0  0
  151.4419  140.7679  160.3229 H   0  0  0  0  0  0  0  0  0  0  0  0
  153.7878  140.9341  158.3740 H   0  0  0  0  0  0  0  0  0  0  0  0
  153.2868  139.5170  159.2500 H   0  0  0  0  0  0  0  0  0  0  0  0
  151.1824  135.8060  157.7520 H   0  0  0  0  0  0  0  0  0  0  0  0
  149.7362  136.6825  158.1556 H   0  0  0  0  0  0  0  0  0  0  0  0
  150.9316  134.3998  156.1951 H   0  0  0  0  0  0  0  0  0  0  0  0
  148.9223  134.8162  154.0273 H   0  0  0  0  0  0  0  0  0  0  0  0
  150.5694  134.3509  153.6700 H   0  0  0  0  0  0  0  0  0  0  0  0
  150.3025  132.1670  154.4842 H   0  0  0  0  0  0  0  0  0  0  0  0
  149.1328  132.6351  155.6939 H   0  0  0  0  0  0  0  0  0  0  0  0
  148.2121  130.3146  154.5508 H   0  0  0  0  0  0  0  0  0  0  0  0
  146.3429  129.6326  153.0234 H   0  0  0  0  0  0  0  0  0  0  0  0
  145.4393  131.3213  151.4039 H   0  0  0  0  0  0  0  0  0  0  0  0
  148.0762  134.2213  152.7091 H   0  0  0  0  0  0  0  0  0  0  0  0
  1  2  1  0  0  0  0
  1 26  1  0  0  0  0
  1 27  1  0  0  0  0
  1 28  1  0  0  0  0
  2  7  1  0  0  0  0
  2  3  1  0  0  0  0
  2 29  1  0  0  0  0
  3  4  1  0  0  0  0
  3 30  1  0  0  0  0
  3 31  1  0  0  0  0
  4  5  1  0  0  0  0
  4 32  1  0  0  0  0
  4 33  1  0  0  0  0
  5  6  1  0  0  0  0
  5 34  1  0  0  0  0
  5 35  1  0  0  0  0
  6  7  1  0  0  0  0
  6 36  1  0  0  0  0
  6 37  1  0  0  0  0
  7 24  1  0  0  0  0
  7  8  1  0  0  0  0
  8  9  1  0  0  0  0
  9 10  2  0  0  0  0
  9 11  1  0  0  0  0
 11 12  1  0  0  0  0
 11 24  1  0  0  0  0
 12 13  1  0  0  0  0
 12 38  1  0  0  0  0
 12 39  1  0  0  0  0
 13 14  2  0  0  0  0
 13 15  1  0  0  0  0
 15 16  1  0  0  0  0
 15 40  1  0  0  0  0
 16 17  1  0  0  0  0
 16 41  1  0  0  0  0
 16 42  1  0  0  0  0
 17 18  1  0  0  0  0
 17 43  1  0  0  0  0
 17 44  1  0  0  0  0
 18 23  1  0  0  0  0
 18 19  2  0  0  0  0
 19 20  1  0  0  0  0
 19 45  1  0  0  0  0
 20 21  2  0  0  0  0
 20 46  1  0  0  0  0
 21 22  1  0  0  0  0
 21 47  1  0  0  0  0
 22 23  2  0  0  0  0
 23 48  1  0  0  0  0
 24 25  2  0  0  0  0
M  CHG  1   8  -1
M  END
> <s_m_source_file>
AV-unprocessed.smi

> <i_m_source_file_index>
837

> <i_lp_mmshare_version>
43012

> <i_f3d_flags>
0

> <s_epik_input>
W0NIMl0xW0NIMl1bQ0gyXVtDSDJdW0NAQEhdKFtDSDNdKVtDQEBdMTJbTkhdQyg9TylOKEMyPU8pW0NIMl1DKD1PKVtOSF1bQ0gyXVtDSDJdYzNbY0hdW2NIXVtjSF1uW2NIXTM=

> <s_epik_cmdline>
J2VwaWtfcHl0aG9uJywgJy1waCcsICc3LjAnLCAnLXRuJywgJzgnLCAnLW1hJywgJzIwMCcsICctbWV0YWxfYmluZGluZycsICctaW1hZScsICc8aW5maWxlLm1hZT4nLCAnLW9tYWUnLCAnPG91dGZpbGUubWFlPic=

> <r_lp_tautomer_probability>
1

> <r_epik_Ionization_Penalty>
6.03002

> <r_epik_Ionization_Penalty_Charging>
6.01728

> <r_epik_Ionization_Penalty_Neutral>
0.0127382

> <r_epik_State_Penalty>
6.02713

> <r_epik_Charging_Adjusted_Penalty>
12.0444

> <i_epik_Tot_Q>
-1

> <i_epik_Tot_abs_Q>
1

> <r_epik_Metal_State_Penalty>
1.99078

> <b_epik_Metal_Only>
1

> <s_lp_Force_Field>
OPLS_2005

> <r_lp_Energy>
14.5441

> <b_lp_Chiralities_Consistent>
1

> <s_lp_Variant>
AV-unprocessed.smi:837-10

> <Gold.Version>
5.8.1

> <Gold.Id.Protein>
6NUR|6NUR_protein|mol2

> <Gold.PLP.Fitness>
46.1881

> <Gold.PLP.PLP>
-35.8821

> <Gold.PLP.part.hbond>
-2.3523

> <Gold.PLP.part.metal>
0.0000

> <Gold.PLP.part.buried>
-5.6725

> <Gold.PLP.part.nonpolar>
-29.2741

> <Gold.PLP.part.repulsive>
0.3429

> <Gold.PLP.ligand.clash>
0.0000

> <Gold.PLP.ligand.torsion>
0.2978

> <Gold.PLP.Chemscore.Hbond>
2.6240

> <Gold.PLP.Chemscore.CHOScore>
1.0000

> <Gold.PLP.Chemscore.Metal>
0.0000

> <Gold.Chemscore.Hbonds>
donor molecule, donor type, donor heavy atom, donor atom, acceptor molecule, acceptor atom, score
      P1  H  7997  8008       L1     8  2.00
      P1  H 10752 10763       L1    10  0.62
      L1  C    23    48       P1  7948  1.00

> <Gold.PLP.Chemscore.Internal.Correction>
0.0296

> <Gold.Rescore>
     Score         DG    S(hbond)    S(metal)    S(lipo)     H(rot)  DE(clash)    DE(int)     intcor
     16.16     -16.48       1.51        0.00      90.47       1.81       0.01       0.31       ----

> <Gold.Chemscore.Fitness>
16.1644

> <Gold.Chemscore.DG>
-16.4801

> <Gold.Chemscore.ZeroCoef>
-5.4800

> <Gold.Chemscore.Hbond>
1.5110

> <Gold.Chemscore.Metal>
0.0000

> <Gold.Chemscore.Lipo>
90.4650

> <Gold.Chemscore.Internal_Hbond>
0.0000

> <Gold.Chemscore.DEClash>
0.0073

> <Gold.Chemscore.DEInternal>
0.3083

> <Gold.Chemscore.Rot>
1.8090

> <Gold.Chemscore.Internal.Correction>
   9.000000E+99

> <Gold.Chemscore.Hbonds>
donor molecule, donor type, donor heavy atom, donor atom, acceptor molecule, acceptor atom, score
      P1  H  7997  8008       L1     8  0.70
      P1  H 10752 10763       L1    10  0.62

> <Gold.Chemscore.Hbond.Weighted>
-5.0467

> <Gold.Chemscore.Metal.Weighted>
-0.0000

> <Gold.Chemscore.Lipo.Weighted>
-10.5844

> <Gold.Chemscore.Internal_Hbond.Weighted>
0.0000

> <Gold.Chemscore.DEClash.Weighted>
0.0073

> <Gold.Chemscore.DEInternal.Weighted>
0.3083

> <Gold.Chemscore.Rot.Weighted>
4.6310

> <Gold.Chemscore.Internal.Correction.Weighted>
   9.000000E+99

> <Gold.Protein.RotatedTorsions>
[ 6907 6896 6895 6894 ] final   58.35 input  -60.11 | X-H torsion
[ 7974 7965 7964 7962 ] final  -61.97 input  175.53 | X-H torsion
[ 8008 7997 7996 7995 ] final  -49.58 input   59.86 | X-H torsion
[ 10167 10162 10161 10158 ] final  -72.14 input  -65.29 | X-H torsion
[ 10718 10713 10712 10709 ] final  -80.21 input   66.30 | X-H torsion
[ 10763 10752 10751 10750 ] final   81.47 input  -60.55 | X-H torsion
[ 11005 11000 10999 10996 ] final  117.85 input  -57.11 | X-H torsion

> <Gold.Protein.ActiveResidues>
 VAL166  LYS551  ARG553  GLY616  TRP617  ASP618  TYR619  PRO620  LYS621  CYS622 
 ASP623  PHE694  ASN695  SER759  ASP760  ASP761  ALA762  ILE779  LEU786  VAL792 
 PHE793  MET794  SER795  GLU796  ALA797  LYS798  CYS799  TRP800  GLU811  SER814 

> <Gold.Protein.RotatedAtoms>
  152.3816  134.6581  160.0140 H   0  0  0  0  0  0  0  0  0  0  0  0  # atno 6907 bound_to 6896
  151.6843  133.3306  159.3235 H   0  0  0  0  0  0  0  0  0  0  0  0  # atno 6908 bound_to 6896
  150.7752  134.6690  159.6426 H   0  0  0  0  0  0  0  0  0  0  0  0  # atno 6909 bound_to 6896
  145.7970  140.8677  143.0251 H   0  0  0  0  0  0  0  0  0  0  0  0  # atno 7974 bound_to 7965
  154.4046  140.1293  156.4526 H   0  0  0  0  0  0  0  0  0  0  0  0  # atno 8008 bound_to 7997
  155.7351  140.3491  155.5058 H   0  0  0  0  0  0  0  0  0  0  0  0  # atno 8009 bound_to 7997
  155.9091  140.1032  157.1283 H   0  0  0  0  0  0  0  0  0  0  0  0  # atno 8010 bound_to 7997
  140.5216  143.2331  151.7419 H   0  0  0  0  0  0  0  0  0  0  0  0  # atno 10167 bound_to 10162
  156.0075  130.4567  150.3765 H   0  0  0  0  0  0  0  0  0  0  0  0  # atno 10718 bound_to 10713
  153.1120  135.4764  154.9050 H   0  0  0  0  0  0  0  0  0  0  0  0  # atno 10763 bound_to 10752
  154.7490  135.3101  154.8595 H   0  0  0  0  0  0  0  0  0  0  0  0  # atno 10764 bound_to 10752
  153.9182  135.6858  153.4802 H   0  0  0  0  0  0  0  0  0  0  0  0  # atno 10765 bound_to 10752
  139.9088  134.9614  156.7413 H   0  0  0  0  0  0  0  0  0  0  0  0  # atno 11005 bound_to 11000
  144.6774  140.0205  143.7484 LP  0  0  0  0  0  0  0  0  0  0  0  0  # atno 17320 bound_to 7965
  145.9917  139.3020  143.0981 LP  0  0  0  0  0  0  0  0  0  0  0  0  # atno 17321 bound_to 7965
  139.4925  144.4246  151.9940 LP  0  0  0  0  0  0  0  0  0  0  0  0  # atno 17342 bound_to 10162
  140.3343  144.3279  150.5980 LP  0  0  0  0  0  0  0  0  0  0  0  0  # atno 17343 bound_to 10162
  157.1847  131.0401  151.2730 LP  0  0  0  0  0  0  0  0  0  0  0  0  # atno 17370 bound_to 10713
  157.4114  130.7387  149.6842 LP  0  0  0  0  0  0  0  0  0  0  0  0  # atno 17371 bound_to 10713
  140.6847  133.9443  155.7931 LP  0  0  0  0  0  0  0  0  0  0  0  0  # atno 17394 bound_to 11000
  141.0485  134.0519  157.3814 LP  0  0  0  0  0  0  0  0  0  0  0  0  # atno 17395 bound_to 11000

$$$$
