AV-unprocessed.smi:260|AV-procd|sdf|1979|dock2
  -GOLD-   2262021153D 1   1.00000     0.00000
 Structure written by MMmdl.
 53 56  0  0  0  0  0  0  0  0  1 V2000
  141.9858  138.3619  153.1185 C   0  0  0  0  0  0  0  0  0  0  0  0
  143.2799  137.9983  152.5624 N   0  0  0  0  0  0  0  0  0  0  0  0
  144.3297  137.5858  153.2906 C   0  0  0  0  0  0  0  0  0  0  0  0
  144.2712  137.4777  154.5165 O   0  0  0  0  0  0  0  0  0  0  0  0
  145.6320  137.2388  152.5206 C   0  0  1  0  0  0  0  0  0  0  0  0
  145.4116  136.0307  151.5833 C   0  0  0  0  0  0  0  0  0  0  0  0
  146.1772  138.4559  151.7393 C   0  0  0  0  0  0  0  0  0  0  0  0
  147.0173  139.2485  152.7505 C   0  0  0  0  0  0  0  0  0  0  0  0
  147.3303  138.3126  153.8200 N   0  0  0  0  0  0  0  0  0  0  0  0
  148.4387  138.4632  154.5908 C   0  0  0  0  0  0  0  0  0  0  0  0
  148.9697  137.3648  155.1916 N   0  0  0  0  0  0  0  0  0  0  0  0
  150.0608  137.4681  155.9556 C   0  0  0  0  0  0  0  0  0  0  0  0
  150.7701  138.5575  156.2535 N   0  0  0  0  0  0  0  0  0  0  0  0
  150.2385  139.6668  155.6662 C   0  0  0  0  0  0  0  0  0  0  0  0
  149.0854  139.7122  154.8301 C   0  0  0  0  0  0  0  0  0  0  0  0
  148.8505  141.0252  154.4337 N   0  0  0  0  0  0  0  0  0  0  0  0
  149.8103  141.7099  154.9920 C   0  0  0  0  0  0  0  0  0  0  0  0
  150.6897  140.9716  155.7493 N   0  0  0  0  0  0  0  0  0  0  0  0
  151.8442  141.4685  156.4770 C   0  0  0  0  0  0  0  0  0  0  0  0
  151.4765  142.5728  157.4873 C   0  0  2  0  0  0  0  0  0  0  0  0
  151.3980  143.8146  156.8131 O   0  0  0  0  0  0  0  0  0  0  0  0
  152.5107  142.6886  158.6225 C   0  0  1  0  0  0  0  0  0  0  0  0
  152.1291  143.6657  159.7330 C   0  0  0  0  0  0  0  0  0  0  0  0
  153.0070  143.2059  160.8792 C   0  0  0  0  0  0  0  0  0  0  0  0
  153.1765  141.7070  160.6176 C   0  0  0  0  0  0  0  0  0  0  0  0
  152.6164  141.4614  159.3307 O   0  0  0  0  0  0  0  0  0  0  0  0
  146.7854  136.9968  153.5112 C   0  0  0  0  0  0  0  0  0  0  0  0
  141.3127  138.6744  152.3202 H   0  0  0  0  0  0  0  0  0  0  0  0
  142.0845  139.1875  153.8244 H   0  0  0  0  0  0  0  0  0  0  0  0
  141.5333  137.5142  153.6344 H   0  0  0  0  0  0  0  0  0  0  0  0
  143.3874  138.0635  151.5607 H   0  0  0  0  0  0  0  0  0  0  0  0
  146.2976  135.8299  150.9801 H   0  0  0  0  0  0  0  0  0  0  0  0
  144.5839  136.2080  150.8952 H   0  0  0  0  0  0  0  0  0  0  0  0
  145.1970  135.1174  152.1393 H   0  0  0  0  0  0  0  0  0  0  0  0
  146.8294  138.1186  150.9325 H   0  0  0  0  0  0  0  0  0  0  0  0
  145.4016  139.0673  151.2761 H   0  0  0  0  0  0  0  0  0  0  0  0
  147.9154  139.6505  152.2801 H   0  0  0  0  0  0  0  0  0  0  0  0
  146.4439  140.0793  153.1630 H   0  0  0  0  0  0  0  0  0  0  0  0
  150.4166  136.5454  156.3892 H   0  0  0  0  0  0  0  0  0  0  0  0
  149.9014  142.7791  154.8685 H   0  0  0  0  0  0  0  0  0  0  0  0
  152.3077  140.6250  156.9901 H   0  0  0  0  0  0  0  0  0  0  0  0
  152.5781  141.8358  155.7585 H   0  0  0  0  0  0  0  0  0  0  0  0
  150.4951  142.3595  157.9134 H   0  0  0  0  0  0  0  0  0  0  0  0
  150.5609  143.8675  156.3783 H   0  0  0  0  0  0  0  0  0  0  0  0
  153.4934  142.9469  158.2225 H   0  0  0  0  0  0  0  0  0  0  0  0
  152.2979  144.7082  159.4615 H   0  0  0  0  0  0  0  0  0  0  0  0
  151.0775  143.5479  159.9986 H   0  0  0  0  0  0  0  0  0  0  0  0
  153.9763  143.7039  160.8305 H   0  0  0  0  0  0  0  0  0  0  0  0
  152.5671  143.4184  161.8541 H   0  0  0  0  0  0  0  0  0  0  0  0
  154.2299  141.4248  160.6298 H   0  0  0  0  0  0  0  0  0  0  0  0
  152.6556  141.1040  161.3618 H   0  0  0  0  0  0  0  0  0  0  0  0
  146.4481  136.4937  154.4188 H   0  0  0  0  0  0  0  0  0  0  0  0
  147.5622  136.3795  153.0576 H   0  0  0  0  0  0  0  0  0  0  0  0
  1  2  1  0  0  0  0
  1 28  1  0  0  0  0
  1 29  1  0  0  0  0
  1 30  1  0  0  0  0
  2  3  1  0  0  0  0
  2 31  1  0  0  0  0
  3  4  2  0  0  0  0
  3  5  1  0  0  0  0
  5 27  1  0  0  0  0
  5  6  1  0  0  0  0
  5  7  1  0  0  0  0
  6 32  1  0  0  0  0
  6 33  1  0  0  0  0
  6 34  1  0  0  0  0
  7  8  1  0  0  0  0
  7 35  1  0  0  0  0
  7 36  1  0  0  0  0
  8  9  1  0  0  0  0
  8 37  1  0  0  0  0
  8 38  1  0  0  0  0
  9 10  1  0  0  0  0
  9 27  1  0  0  0  0
 10 15  1  0  0  0  0
 10 11  2  0  0  0  0
 11 12  1  0  0  0  0
 12 13  2  0  0  0  0
 12 39  1  0  0  0  0
 13 14  1  0  0  0  0
 14 18  1  0  0  0  0
 14 15  2  0  0  0  0
 15 16  1  0  0  0  0
 16 17  2  0  0  0  0
 17 18  1  0  0  0  0
 17 40  1  0  0  0  0
 18 19  1  0  0  0  0
 19 20  1  0  0  0  0
 19 41  1  0  0  0  0
 19 42  1  0  0  0  0
 20 21  1  0  0  0  0
 20 22  1  0  0  0  0
 20 43  1  0  0  0  0
 21 44  1  0  0  0  0
 22 26  1  0  0  0  0
 22 23  1  0  0  0  0
 22 45  1  0  0  0  0
 23 24  1  0  0  0  0
 23 46  1  0  0  0  0
 23 47  1  0  0  0  0
 24 25  1  0  0  0  0
 24 48  1  0  0  0  0
 24 49  1  0  0  0  0
 25 26  1  0  0  0  0
 25 50  1  0  0  0  0
 25 51  1  0  0  0  0
 27 52  1  0  0  0  0
 27 53  1  0  0  0  0
M  END
> <s_m_source_file>
AV-unprocessed.smi

> <i_m_source_file_index>
260

> <i_lp_mmshare_version>
43012

> <i_f3d_flags>
0

> <s_epik_input>
W0NIM11bTkhdQyg9TylbQ0BAXTEoW0NIM10pW0NIMl1bQ0gyXU4oW0NIMl0xKWMobltjSF1uMiljKGMyMyluW2NIXW4zW0NIMl1bQ0BIXShbT0hdKVtDQEBIXTRbQ0gyXVtDSDJdW0NIMl1PNA==

> <s_epik_cmdline>
J2VwaWtfcHl0aG9uJywgJy1waCcsICc3LjAnLCAnLXRuJywgJzgnLCAnLW1hJywgJzIwMCcsICctbWV0YWxfYmluZGluZycsICctaW1hZScsICc8aW5maWxlLm1hZT4nLCAnLW9tYWUnLCAnPG91dGZpbGUubWFlPic=

> <r_lp_tautomer_probability>
1

> <r_epik_Ionization_Penalty>
0.00115068

> <r_epik_Ionization_Penalty_Charging>
0

> <r_epik_Ionization_Penalty_Neutral>
0.00115068

> <r_epik_State_Penalty>
0.000668876

> <r_epik_Charging_Adjusted_Penalty>
0.000668876

> <i_epik_Tot_Q>
0

> <i_epik_Tot_abs_Q>
0

> <r_epik_Metal_State_Penalty>
-0

> <b_epik_Metal_Only>
0

> <s_lp_Force_Field>
OPLS_2005

> <r_lp_Energy>
50.4513

> <b_lp_Chiralities_Consistent>
1

> <s_lp_Variant>
AV-unprocessed.smi:260-5

> <Gold.Version>
5.8.1

> <Gold.Id.Protein>
6NUR|6NUR_protein|mol2

> <Gold.PLP.Fitness>
48.7357

> <Gold.PLP.PLP>
-40.4414

> <Gold.PLP.part.hbond>
-3.0000

> <Gold.PLP.part.metal>
0.0000

> <Gold.PLP.part.buried>
0.6362

> <Gold.PLP.part.nonpolar>
-38.7370

> <Gold.PLP.part.repulsive>
0.3578

> <Gold.PLP.ligand.clash>
0.0000

> <Gold.PLP.ligand.torsion>
0.5139

> <Gold.PLP.Chemscore.Hbond>
1.9760

> <Gold.PLP.Chemscore.CHOScore>
1.0000

> <Gold.PLP.Chemscore.Metal>
0.0000

> <Gold.Chemscore.Hbonds>
donor molecule, donor type, donor heavy atom, donor atom, acceptor molecule, acceptor atom, score
      L1  H     2    31       P1 10171  1.00
      L1  H    21    44       P1  8028  1.00
      L1  C    17    40       P1  8028  1.00

> <Gold.PLP.Chemscore.Internal.Correction>
0.3941

> <Gold.Rescore>
     Score         DG    S(hbond)    S(metal)    S(lipo)     H(rot)  DE(clash)    DE(int)     intcor
     11.84     -14.82       1.32        0.00      97.35       2.53       2.11       0.87       ----

> <Gold.Chemscore.Fitness>
11.8369

> <Gold.Chemscore.DG>
-14.8188

> <Gold.Chemscore.ZeroCoef>
-5.4800

> <Gold.Chemscore.Hbond>
1.3220

> <Gold.Chemscore.Metal>
0.0000

> <Gold.Chemscore.Lipo>
97.3460

> <Gold.Chemscore.Internal_Hbond>
0.0000

> <Gold.Chemscore.DEClash>
2.1135

> <Gold.Chemscore.DEInternal>
0.8684

> <Gold.Chemscore.Rot>
2.5259

> <Gold.Chemscore.Internal.Correction>
   9.000000E+99

> <Gold.Chemscore.Hbonds>
donor molecule, donor type, donor heavy atom, donor atom, acceptor molecule, acceptor atom, score
      L1  H     2    31       P1 10171  0.74
      L1  H    21    44       P1  8028  0.96

> <Gold.Chemscore.Hbond.Weighted>
-4.4156

> <Gold.Chemscore.Metal.Weighted>
-0.0000

> <Gold.Chemscore.Lipo.Weighted>
-11.3895

> <Gold.Chemscore.Internal_Hbond.Weighted>
0.0000

> <Gold.Chemscore.DEClash.Weighted>
2.1135

> <Gold.Chemscore.DEInternal.Weighted>
0.8684

> <Gold.Chemscore.Rot.Weighted>
6.4663

> <Gold.Chemscore.Internal.Correction.Weighted>
   9.000000E+99

> <Gold.Protein.RotatedTorsions>
[ 6907 6896 6895 6894 ] final   33.40 input  -60.11 | X-H torsion
[ 7974 7965 7964 7962 ] final  175.02 input  175.53 | X-H torsion
[ 8008 7997 7996 7995 ] final  -94.12 input   59.86 | X-H torsion
[ 10167 10162 10161 10158 ] final    4.90 input  -65.29 | X-H torsion
[ 10718 10713 10712 10709 ] final  133.40 input   66.30 | X-H torsion
[ 10763 10752 10751 10750 ] final   67.52 input  -60.55 | X-H torsion
[ 11005 11000 10999 10996 ] final   33.06 input  -57.11 | X-H torsion

> <Gold.Protein.ActiveResidues>
 VAL166  LYS551  ARG553  GLY616  TRP617  ASP618  TYR619  PRO620  LYS621  CYS622 
 ASP623  PHE694  ASN695  SER759  ASP760  ASP761  ALA762  ILE779  LEU786  VAL792 
 PHE793  MET794  SER795  GLU796  ALA797  LYS798  CYS799  TRP800  GLU811  SER814 

> <Gold.Protein.RotatedAtoms>
  152.0880  134.9426  160.0572 H   0  0  0  0  0  0  0  0  0  0  0  0  # atno 6907 bound_to 6896
  152.0689  133.4092  159.4458 H   0  0  0  0  0  0  0  0  0  0  0  0  # atno 6908 bound_to 6896
  150.6836  134.3035  159.4760 H   0  0  0  0  0  0  0  0  0  0  0  0  # atno 6909 bound_to 6896
  144.7210  139.9884  143.6439 H   0  0  0  0  0  0  0  0  0  0  0  0  # atno 7974 bound_to 7965
  154.7443  140.0492  157.0839 H   0  0  0  0  0  0  0  0  0  0  0  0  # atno 8008 bound_to 7997
  155.0138  140.3139  155.4800 H   0  0  0  0  0  0  0  0  0  0  0  0  # atno 8009 bound_to 7997
  156.2871  140.2179  156.5253 H   0  0  0  0  0  0  0  0  0  0  0  0  # atno 8010 bound_to 7997
  140.6510  143.7544  150.7576 H   0  0  0  0  0  0  0  0  0  0  0  0  # atno 10167 bound_to 10162
  157.4776  131.1084  150.9723 H   0  0  0  0  0  0  0  0  0  0  0  0  # atno 10718 bound_to 10713
  153.0190  135.5281  154.6991 H   0  0  0  0  0  0  0  0  0  0  0  0  # atno 10763 bound_to 10752
  154.6105  135.2878  155.0439 H   0  0  0  0  0  0  0  0  0  0  0  0  # atno 10764 bound_to 10752
  154.1463  135.6570  153.5006 H   0  0  0  0  0  0  0  0  0  0  0  0  # atno 10765 bound_to 10752
  140.2670  134.3126  155.7839 H   0  0  0  0  0  0  0  0  0  0  0  0  # atno 11005 bound_to 11000
  146.0431  139.3440  143.0685 LP  0  0  0  0  0  0  0  0  0  0  0  0  # atno 17320 bound_to 7965
  145.8309  140.9631  143.0849 LP  0  0  0  0  0  0  0  0  0  0  0  0  # atno 17321 bound_to 7965
  140.1194  143.4625  152.2322 LP  0  0  0  0  0  0  0  0  0  0  0  0  # atno 17342 bound_to 10162
  139.5726  144.7470  151.3851 LP  0  0  0  0  0  0  0  0  0  0  0  0  # atno 17343 bound_to 10162
  157.0466  130.5770  149.5364 LP  0  0  0  0  0  0  0  0  0  0  0  0  # atno 17370 bound_to 10713
  156.0105  130.5196  150.7972 LP  0  0  0  0  0  0  0  0  0  0  0  0  # atno 17371 bound_to 10713
  141.2183  133.7444  156.9276 LP  0  0  0  0  0  0  0  0  0  0  0  0  # atno 17394 bound_to 11000
  140.1409  134.9294  157.2466 LP  0  0  0  0  0  0  0  0  0  0  0  0  # atno 17395 bound_to 11000

$$$$
