AV-unprocessed.smi:117|AV-procd|sdf|1130|dock5
  -GOLD-   2262018253D 1   1.00000     0.00000
 Structure written by MMmdl.
 53 55  0  0  0  0  0  0  0  0  1 V2000
  152.1942  143.8074  158.8009 C   0  0  0  0  0  0  0  0  0  0  0  0
  152.4884  142.3375  159.0479 C   0  0  0  0  0  0  0  0  0  0  0  0
  153.6322  141.9899  159.7951 C   0  0  0  0  0  0  0  0  0  0  0  0
  153.9268  140.6416  160.0569 C   0  0  0  0  0  0  0  0  0  0  0  0
  153.0794  139.6317  159.5712 C   0  0  0  0  0  0  0  0  0  0  0  0
  151.9351  139.9606  158.8075 C   0  0  0  0  0  0  0  0  0  0  0  0
  151.0430  138.9462  158.3694 N   0  0  0  0  0  0  0  0  0  0  0  0
  150.9526  137.6718  158.7980 C   0  0  0  0  0  0  0  0  0  0  0  0
  151.7062  137.1779  159.6360 O   0  0  0  0  0  0  0  0  0  0  0  0
  149.8455  136.7936  158.1906 C   0  0  0  0  0  0  0  0  0  0  0  0
  150.2444  136.1176  156.9570 N   0  0  0  0  0  0  0  0  0  0  0  0
  150.2723  134.7887  156.7554 C   0  0  0  0  0  0  0  0  0  0  0  0
  149.8535  133.9794  157.5816 O   0  0  0  0  0  0  0  0  0  0  0  0
  150.9142  134.2724  155.4545 C   0  0  0  0  0  0  0  0  0  0  0  0
  150.2182  133.1154  154.8415 N   0  0  0  0  0  0  0  0  0  0  0  0
  150.8213  131.8350  154.9051 C   0  0  0  0  0  0  0  0  0  0  0  0
  151.9068  131.6662  155.4614 O   0  0  0  0  0  0  0  0  0  0  0  0
  150.0677  130.7534  154.2805 C   0  0  0  0  0  0  0  0  0  0  0  0
  150.5769  129.5100  154.2647 F   0  0  0  0  0  0  0  0  0  0  0  0
  148.8614  130.9799  153.7204 C   0  0  0  0  0  0  0  0  0  0  0  0
  148.2623  132.2241  153.7053 N   0  0  0  0  0  0  0  0  0  0  0  0
  146.9009  132.3773  153.0621 C   0  0  1  0  0  0  0  0  0  0  0  0
  146.9324  133.1830  151.7554 C   0  0  0  0  0  0  0  0  0  0  0  0
  145.8489  132.4915  150.9581 C   0  0  0  0  0  0  0  0  0  0  0  0
  146.0082  131.0412  151.4009 C   0  0  0  0  0  0  0  0  0  0  0  0
  146.3753  131.1125  152.7776 O   0  0  0  0  0  0  0  0  0  0  0  0
  148.9539  133.3342  154.2416 C   0  0  0  0  0  0  0  0  0  0  0  0
  148.4696  134.4650  154.2016 O   0  0  0  0  0  0  0  0  0  0  0  0
  151.6310  141.3242  158.5473 C   0  0  0  0  0  0  0  0  0  0  0  0
  150.4061  141.7235  157.7279 C   0  0  0  0  0  0  0  0  0  0  0  0
  152.9390  144.4472  159.2745 H   0  0  0  0  0  0  0  0  0  0  0  0
  151.2190  144.0757  159.2078 H   0  0  0  0  0  0  0  0  0  0  0  0
  152.1987  144.0255  157.7329 H   0  0  0  0  0  0  0  0  0  0  0  0
  154.2873  142.7584  160.1787 H   0  0  0  0  0  0  0  0  0  0  0  0
  154.7985  140.3816  160.6390 H   0  0  0  0  0  0  0  0  0  0  0  0
  153.3103  138.6041  159.8091 H   0  0  0  0  0  0  0  0  0  0  0  0
  150.4563  139.1913  157.5848 H   0  0  0  0  0  0  0  0  0  0  0  0
  149.5101  136.0725  158.9377 H   0  0  0  0  0  0  0  0  0  0  0  0
  148.9868  137.4263  157.9644 H   0  0  0  0  0  0  0  0  0  0  0  0
  150.6020  136.7073  156.2196 H   0  0  0  0  0  0  0  0  0  0  0  0
  150.9555  135.0984  154.7420 H   0  0  0  0  0  0  0  0  0  0  0  0
  151.9623  134.0544  155.6632 H   0  0  0  0  0  0  0  0  0  0  0  0
  148.3441  130.1431  153.2738 H   0  0  0  0  0  0  0  0  0  0  0  0
  146.2634  132.8459  153.8128 H   0  0  0  0  0  0  0  0  0  0  0  0
  146.7342  134.2390  151.9399 H   0  0  0  0  0  0  0  0  0  0  0  0
  147.8943  133.0906  151.2543 H   0  0  0  0  0  0  0  0  0  0  0  0
  144.8686  132.8675  151.2536 H   0  0  0  0  0  0  0  0  0  0  0  0
  145.9568  132.6244  149.8818 H   0  0  0  0  0  0  0  0  0  0  0  0
  145.0968  130.4598  151.2621 H   0  0  0  0  0  0  0  0  0  0  0  0
  146.8040  130.5560  150.8359 H   0  0  0  0  0  0  0  0  0  0  0  0
  150.7093  142.3138  156.8630 H   0  0  0  0  0  0  0  0  0  0  0  0
  149.7297  142.3289  158.3310 H   0  0  0  0  0  0  0  0  0  0  0  0
  149.8341  140.8783  157.3480 H   0  0  0  0  0  0  0  0  0  0  0  0
  1  2  1  0  0  0  0
  1 31  1  0  0  0  0
  1 32  1  0  0  0  0
  1 33  1  0  0  0  0
  2 29  1  0  0  0  0
  2  3  2  0  0  0  0
  3  4  1  0  0  0  0
  3 34  1  0  0  0  0
  4  5  2  0  0  0  0
  4 35  1  0  0  0  0
  5  6  1  0  0  0  0
  5 36  1  0  0  0  0
  6  7  1  0  0  0  0
  6 29  2  0  0  0  0
  7  8  1  0  0  0  0
  7 37  1  0  0  0  0
  8  9  2  0  0  0  0
  8 10  1  0  0  0  0
 10 11  1  0  0  0  0
 10 38  1  0  0  0  0
 10 39  1  0  0  0  0
 11 12  1  0  0  0  0
 11 40  1  0  0  0  0
 12 13  2  0  0  0  0
 12 14  1  0  0  0  0
 14 15  1  0  0  0  0
 14 41  1  0  0  0  0
 14 42  1  0  0  0  0
 15 27  1  0  0  0  0
 15 16  1  0  0  0  0
 16 17  2  0  0  0  0
 16 18  1  0  0  0  0
 18 19  1  0  0  0  0
 18 20  2  0  0  0  0
 20 21  1  0  0  0  0
 20 43  1  0  0  0  0
 21 22  1  0  0  0  0
 21 27  1  0  0  0  0
 22 26  1  0  0  0  0
 22 23  1  0  0  0  0
 22 44  1  0  0  0  0
 23 24  1  0  0  0  0
 23 45  1  0  0  0  0
 23 46  1  0  0  0  0
 24 25  1  0  0  0  0
 24 47  1  0  0  0  0
 24 48  1  0  0  0  0
 25 26  1  0  0  0  0
 25 49  1  0  0  0  0
 25 50  1  0  0  0  0
 27 28  2  0  0  0  0
 29 30  1  0  0  0  0
 30 51  1  0  0  0  0
 30 52  1  0  0  0  0
 30 53  1  0  0  0  0
M  END
> <s_m_source_file>
AV-unprocessed.smi

> <i_m_source_file_index>
117

> <i_lp_mmshare_version>
43012

> <i_f3d_flags>
0

> <s_epik_input>
W0NIM11jMVtjSF1bY0hdW2NIXWMoYzFbQ0gzXSlbTkhdQyg9TylbQ0gyXVtOSF1DKD1PKVtDSDJdbjJjKD1PKWMoRilbY0hdbihjMj1PKVtDQEBIXTNbQ0gyXVtDSDJdW0NIMl1PMw==

> <s_epik_cmdline>
J2VwaWtfcHl0aG9uJywgJy1waCcsICc3LjAnLCAnLXRuJywgJzgnLCAnLW1hJywgJzIwMCcsICctbWV0YWxfYmluZGluZycsICctaW1hZScsICc8aW5maWxlLm1hZT4nLCAnLW9tYWUnLCAnPG91dGZpbGUubWFlPic=

> <r_lp_tautomer_probability>
1

> <r_epik_Ionization_Penalty>
1.58439e-06

> <r_epik_Ionization_Penalty_Charging>
4.14583e-09

> <r_epik_Ionization_Penalty_Neutral>
1.58025e-06

> <r_epik_State_Penalty>
-0

> <r_epik_Charging_Adjusted_Penalty>
4.14583e-09

> <i_epik_Tot_Q>
0

> <i_epik_Tot_abs_Q>
0

> <r_epik_Metal_State_Penalty>
-0

> <b_epik_Metal_Only>
0

> <s_epik_Chemistry_Notes>
This compound contains an acetal/aminal-like group ( X-CH(R)-Y where X, Y are N, S, or O) that may be acid/base labile, releasing an aldehyde.

> <s_lp_Force_Field>
OPLS_2005

> <r_lp_Energy>
23.1061

> <b_lp_Chiralities_Consistent>
1

> <s_lp_Variant>
AV-unprocessed.smi:117-2

> <Gold.Version>
5.8.1

> <Gold.Id.Protein>
6NUR|6NUR_protein|mol2

> <Gold.PLP.Fitness>
57.2163

> <Gold.PLP.PLP>
-53.1445

> <Gold.PLP.part.hbond>
-2.0000

> <Gold.PLP.part.metal>
0.0000

> <Gold.PLP.part.buried>
-8.1566

> <Gold.PLP.part.nonpolar>
-45.2117

> <Gold.PLP.part.repulsive>
2.0208

> <Gold.PLP.ligand.clash>
0.0000

> <Gold.PLP.ligand.torsion>
0.9856

> <Gold.PLP.Chemscore.Hbond>
2.0000

> <Gold.PLP.Chemscore.CHOScore>
0.0000

> <Gold.PLP.Chemscore.Metal>
0.0000

> <Gold.Chemscore.Hbonds>
donor molecule, donor type, donor heavy atom, donor atom, acceptor molecule, acceptor atom, score
      P1  H  6896  6908       L1    13  1.00
      P1  H  6896  6909       L1     9  0.96

> <Gold.PLP.Chemscore.Internal.Correction>
0.0429

> <Gold.Rescore>
     Score         DG    S(hbond)    S(metal)    S(lipo)     H(rot)  DE(clash)    DE(int)     intcor
     16.20     -18.59       1.86        0.00     109.74       2.32       0.04       2.35       ----

> <Gold.Chemscore.Fitness>
16.1950

> <Gold.Chemscore.DG>
-18.5897

> <Gold.Chemscore.ZeroCoef>
-5.4800

> <Gold.Chemscore.Hbond>
1.8567

> <Gold.Chemscore.Metal>
0.0000

> <Gold.Chemscore.Lipo>
109.7355

> <Gold.Chemscore.Internal_Hbond>
0.0000

> <Gold.Chemscore.DEClash>
0.0402

> <Gold.Chemscore.DEInternal>
2.3545

> <Gold.Chemscore.Rot>
2.3166

> <Gold.Chemscore.Internal.Correction>
   9.000000E+99

> <Gold.Chemscore.Hbonds>
donor molecule, donor type, donor heavy atom, donor atom, acceptor molecule, acceptor atom, score
      P1  H  6896  6908       L1    13  0.92
      P1  H  6896  6909       L1     9  0.88

> <Gold.Chemscore.Hbond.Weighted>
-6.2013

> <Gold.Chemscore.Metal.Weighted>
-0.0000

> <Gold.Chemscore.Lipo.Weighted>
-12.8390

> <Gold.Chemscore.Internal_Hbond.Weighted>
0.0000

> <Gold.Chemscore.DEClash.Weighted>
0.0402

> <Gold.Chemscore.DEInternal.Weighted>
2.3545

> <Gold.Chemscore.Rot.Weighted>
5.9306

> <Gold.Chemscore.Internal.Correction.Weighted>
   9.000000E+99

> <Gold.Protein.RotatedTorsions>
[ 6907 6896 6895 6894 ] final  126.95 input  -60.11 | X-H torsion
[ 7974 7965 7964 7962 ] final  179.91 input  175.53 | X-H torsion
[ 8008 7997 7996 7995 ] final  159.63 input   59.86 | X-H torsion
[ 10167 10162 10161 10158 ] final  -12.64 input  -65.29 | X-H torsion
[ 10718 10713 10712 10709 ] final -167.27 input   66.30 | X-H torsion
[ 10763 10752 10751 10750 ] final  117.01 input  -60.55 | X-H torsion
[ 11005 11000 10999 10996 ] final  116.17 input  -57.11 | X-H torsion

> <Gold.Protein.ActiveResidues>
 VAL166  LYS551  ARG553  GLY616  TRP617  ASP618  TYR619  PRO620  LYS621  CYS622 
 ASP623  PHE694  ASN695  SER759  ASP760  ASP761  ALA762  ILE779  LEU786  VAL792 
 PHE793  MET794  SER795  GLU796  ALA797  LYS798  CYS799  TRP800  GLU811  SER814 

> <Gold.Protein.RotatedAtoms>
  152.3857  133.6608  159.6196 H   0  0  0  0  0  0  0  0  0  0  0  0  # atno 6907 bound_to 6896
  150.7777  133.9039  159.3358 H   0  0  0  0  0  0  0  0  0  0  0  0  # atno 6908 bound_to 6896
  151.6835  135.0959  160.0272 H   0  0  0  0  0  0  0  0  0  0  0  0  # atno 6909 bound_to 6896
  144.7141  140.0619  143.6432 H   0  0  0  0  0  0  0  0  0  0  0  0  # atno 7974 bound_to 7965
  156.2226  140.1826  156.7440 H   0  0  0  0  0  0  0  0  0  0  0  0  # atno 8008 bound_to 7997
  154.5889  140.0654  156.9240 H   0  0  0  0  0  0  0  0  0  0  0  0  # atno 8009 bound_to 7997
  155.2370  140.3319  155.4299 H   0  0  0  0  0  0  0  0  0  0  0  0  # atno 8010 bound_to 7997
  140.7165  143.5511  150.9300 H   0  0  0  0  0  0  0  0  0  0  0  0  # atno 10167 bound_to 10162
  156.6799  130.9118  151.3055 H   0  0  0  0  0  0  0  0  0  0  0  0  # atno 10718 bound_to 10713
  153.5460  135.3549  155.2739 H   0  0  0  0  0  0  0  0  0  0  0  0  # atno 10763 bound_to 10752
  154.8712  135.4102  154.2991 H   0  0  0  0  0  0  0  0  0  0  0  0  # atno 10764 bound_to 10752
  153.3707  135.7064  153.6708 H   0  0  0  0  0  0  0  0  0  0  0  0  # atno 10765 bound_to 10752
  139.9033  134.9594  156.7157 H   0  0  0  0  0  0  0  0  0  0  0  0  # atno 11005 bound_to 11000
  145.9856  139.2975  143.1015 LP  0  0  0  0  0  0  0  0  0  0  0  0  # atno 17320 bound_to 7965
  145.8961  140.9273  143.0527 LP  0  0  0  0  0  0  0  0  0  0  0  0  # atno 17321 bound_to 7965
  139.9235  143.6577  152.3092 LP  0  0  0  0  0  0  0  0  0  0  0  0  # atno 17342 bound_to 10162
  139.7003  144.7636  151.1285 LP  0  0  0  0  0  0  0  0  0  0  0  0  # atno 17343 bound_to 10162
  157.7047  130.9372  150.0894 LP  0  0  0  0  0  0  0  0  0  0  0  0  # atno 17370 bound_to 10713
  156.1875  130.3653  149.8953 LP  0  0  0  0  0  0  0  0  0  0  0  0  # atno 17371 bound_to 10713
  140.7040  133.9281  155.8042 LP  0  0  0  0  0  0  0  0  0  0  0  0  # atno 17394 bound_to 11000
  141.0350  134.0702  157.3970 LP  0  0  0  0  0  0  0  0  0  0  0  0  # atno 17395 bound_to 11000

$$$$
