AV-unprocessed.smi:1429|AV-procd|sdf|5819|dock1
  -GOLD-   22720 5473D 1   1.00000     0.00000
 Structure written by MMmdl.
 30 31  0  0  0  0  0  0  0  0  1 V2000
  145.6339  129.9969  151.9329 C   0  0  0  0  0  0  0  0  0  0  0  0
  146.5943  130.9271  152.5918 C   0  0  0  0  0  0  0  0  0  0  0  0
  147.3923  130.5536  153.5997 N   0  0  0  0  0  0  0  0  0  0  0  0
  148.1954  131.5932  154.0475 N   0  0  0  0  0  0  0  0  0  0  0  0
  147.9779  132.7240  153.3619 C   0  0  0  0  0  0  0  0  0  0  0  0
  148.6648  133.9418  153.6091 N   0  0  0  0  0  0  0  0  0  0  0  0
  149.4466  134.2599  154.6558 C   0  0  0  0  0  0  0  0  0  0  0  0
  149.6886  133.5242  155.6129 O   0  0  0  0  0  0  0  0  0  0  0  0
  149.9479  135.4969  154.5279 N   0  0  0  0  0  0  0  0  0  0  0  0
  150.8577  136.1432  155.4691 C   0  0  0  0  0  0  0  0  0  0  0  0
  150.6520  137.6691  155.5032 C   0  0  1  0  0  0  0  0  0  0  0  0
  151.7561  138.4227  156.2160 C   0  0  0  0  0  0  0  0  0  0  0  0
  151.5461  139.8478  155.7114 C   0  0  0  0  0  0  0  0  0  0  0  0
  150.9900  139.7235  154.4053 O   0  0  0  0  0  0  0  0  0  0  0  0
  150.6699  138.3617  154.1393 C   0  0  0  0  0  0  0  0  0  0  0  0
  146.7614  132.6085  152.1018 S   0  0  0  0  0  0  0  0  0  0  0  0
  145.7560  128.9824  152.3139 H   0  0  0  0  0  0  0  0  0  0  0  0
  145.8035  129.9876  150.8562 H   0  0  0  0  0  0  0  0  0  0  0  0
  144.6112  130.3218  152.1245 H   0  0  0  0  0  0  0  0  0  0  0  0
  148.5584  134.6499  152.8979 H   0  0  0  0  0  0  0  0  0  0  0  0
  149.6925  136.0296  153.7092 H   0  0  0  0  0  0  0  0  0  0  0  0
  150.6586  135.7288  156.4576 H   0  0  0  0  0  0  0  0  0  0  0  0
  151.8964  135.8975  155.2405 H   0  0  0  0  0  0  0  0  0  0  0  0
  149.7061  137.8950  155.9989 H   0  0  0  0  0  0  0  0  0  0  0  0
  151.6974  138.3451  157.3020 H   0  0  0  0  0  0  0  0  0  0  0  0
  152.7339  138.0557  155.9001 H   0  0  0  0  0  0  0  0  0  0  0  0
  150.8292  140.3736  156.3432 H   0  0  0  0  0  0  0  0  0  0  0  0
  152.4716  140.4241  155.6977 H   0  0  0  0  0  0  0  0  0  0  0  0
  151.4520  137.9432  153.5039 H   0  0  0  0  0  0  0  0  0  0  0  0
  149.7208  138.2727  153.6102 H   0  0  0  0  0  0  0  0  0  0  0  0
  1  2  1  0  0  0  0
  1 17  1  0  0  0  0
  1 18  1  0  0  0  0
  1 19  1  0  0  0  0
  2 16  1  0  0  0  0
  2  3  2  0  0  0  0
  3  4  1  0  0  0  0
  4  5  2  0  0  0  0
  5  6  1  0  0  0  0
  5 16  1  0  0  0  0
  6  7  1  0  0  0  0
  6 20  1  0  0  0  0
  7  8  2  0  0  0  0
  7  9  1  0  0  0  0
  9 10  1  0  0  0  0
  9 21  1  0  0  0  0
 10 11  1  0  0  0  0
 10 22  1  0  0  0  0
 10 23  1  0  0  0  0
 11 15  1  0  0  0  0
 11 12  1  0  0  0  0
 11 24  1  0  0  0  0
 12 13  1  0  0  0  0
 12 25  1  0  0  0  0
 12 26  1  0  0  0  0
 13 14  1  0  0  0  0
 13 27  1  0  0  0  0
 13 28  1  0  0  0  0
 14 15  1  0  0  0  0
 15 29  1  0  0  0  0
 15 30  1  0  0  0  0
M  END
> <s_m_source_file>
AV-unprocessed.smi

> <i_m_source_file_index>
1429

> <i_lp_mmshare_version>
43012

> <i_f3d_flags>
0

> <s_epik_input>
W0NIM11jMW5uYyhzMSlbTkhdQyg9TylbTkhdW0NIMl1bQ0BASF0yW0NIMl1bQ0gyXU9bQ0gyXTI=

> <s_epik_cmdline>
J2VwaWtfcHl0aG9uJywgJy1waCcsICc3LjAnLCAnLXRuJywgJzgnLCAnLW1hJywgJzIwMCcsICctbWV0YWxfYmluZGluZycsICctaW1hZScsICc8aW5maWxlLm1hZT4nLCAnLW9tYWUnLCAnPG91dGZpbGUubWFlPic=

> <r_lp_tautomer_probability>
1

> <r_epik_Ionization_Penalty>
0.000468089

> <r_epik_Ionization_Penalty_Charging>
0

> <r_epik_Ionization_Penalty_Neutral>
0.000468089

> <r_epik_State_Penalty>
-0

> <r_epik_Charging_Adjusted_Penalty>
0

> <i_epik_Tot_Q>
0

> <i_epik_Tot_abs_Q>
0

> <r_epik_Metal_State_Penalty>
0.211262

> <b_epik_Metal_Only>
0

> <s_lp_Force_Field>
OPLS_2005

> <r_lp_Energy>
17.5985

> <b_lp_Chiralities_Consistent>
1

> <s_lp_Variant>
AV-unprocessed.smi:1429-2

> <Gold.Version>
5.8.1

> <Gold.Id.Protein>
6NUR|6NUR_protein|mol2

> <Gold.PLP.Fitness>
34.7205

> <Gold.PLP.PLP>
-26.2686

> <Gold.PLP.part.hbond>
-3.1767

> <Gold.PLP.part.metal>
0.0000

> <Gold.PLP.part.buried>
-4.1601

> <Gold.PLP.part.nonpolar>
-19.6860

> <Gold.PLP.part.repulsive>
0.3522

> <Gold.PLP.ligand.clash>
0.0000

> <Gold.PLP.ligand.torsion>
0.2793

> <Gold.PLP.Chemscore.Hbond>
3.0000

> <Gold.PLP.Chemscore.CHOScore>
0.0000

> <Gold.PLP.Chemscore.Metal>
0.0000

> <Gold.Chemscore.Hbonds>
donor molecule, donor type, donor heavy atom, donor atom, acceptor molecule, acceptor atom, score
      L1  H     6    20       P1  7948  1.00
      L1  H     9    21       P1  7948  1.00
      P1  H  7989  7998       L1    14  1.00

> <Gold.PLP.Chemscore.Internal.Correction>
0.0106

> <Gold.Rescore>
     Score         DG    S(hbond)    S(metal)    S(lipo)     H(rot)  DE(clash)    DE(int)     intcor
     14.32     -15.86       2.42        0.00      48.48       1.31       0.01       1.53       ----

> <Gold.Chemscore.Fitness>
14.3203

> <Gold.Chemscore.DG>
-15.8595

> <Gold.Chemscore.ZeroCoef>
-5.4800

> <Gold.Chemscore.Hbond>
2.4155

> <Gold.Chemscore.Metal>
0.0000

> <Gold.Chemscore.Lipo>
48.4780

> <Gold.Chemscore.Internal_Hbond>
0.0000

> <Gold.Chemscore.DEClash>
0.0073

> <Gold.Chemscore.DEInternal>
1.5319

> <Gold.Chemscore.Rot>
1.3125

> <Gold.Chemscore.Internal.Correction>
   9.000000E+99

> <Gold.Chemscore.Hbonds>
donor molecule, donor type, donor heavy atom, donor atom, acceptor molecule, acceptor atom, score
      L1  H     6    20       P1  7948  0.25
      L1  H     9    21       P1  7948  0.29
      P1  H  7989  7998       L1    14  0.64

> <Gold.Chemscore.Hbond.Weighted>
-8.0676

> <Gold.Chemscore.Metal.Weighted>
-0.0000

> <Gold.Chemscore.Lipo.Weighted>
-5.6719

> <Gold.Chemscore.Internal_Hbond.Weighted>
0.0000

> <Gold.Chemscore.DEClash.Weighted>
0.0073

> <Gold.Chemscore.DEInternal.Weighted>
1.5319

> <Gold.Chemscore.Rot.Weighted>
3.3600

> <Gold.Chemscore.Internal.Correction.Weighted>
   9.000000E+99

> <Gold.Protein.RotatedTorsions>
[ 6907 6896 6895 6894 ] final   86.25 input  -60.11 | X-H torsion
[ 7974 7965 7964 7962 ] final -104.91 input  175.53 | X-H torsion
[ 8008 7997 7996 7995 ] final   83.56 input   59.86 | X-H torsion
[ 10167 10162 10161 10158 ] final  159.05 input  -65.29 | X-H torsion
[ 10718 10713 10712 10709 ] final -113.07 input   66.30 | X-H torsion
[ 10763 10752 10751 10750 ] final  -47.20 input  -60.55 | X-H torsion
[ 11005 11000 10999 10996 ] final  -30.98 input  -57.11 | X-H torsion

> <Gold.Protein.ActiveResidues>
 VAL166  LYS551  ARG553  GLY616  TRP617  ASP618  TYR619  PRO620  LYS621  CYS622 
 ASP623  PHE694  ASN695  SER759  ASP760  ASP761  ALA762  ILE779  LEU786  VAL792 
 PHE793  MET794  SER795  GLU796  ALA797  LYS798  CYS799  TRP800  GLU811  SER814 

> <Gold.Protein.RotatedAtoms>
  152.5391  134.2461  159.8880 H   0  0  0  0  0  0  0  0  0  0  0  0  # atno 6907 bound_to 6896
  151.2426  133.4385  159.2615 H   0  0  0  0  0  0  0  0  0  0  0  0  # atno 6908 bound_to 6896
  151.0613  134.9752  159.8318 H   0  0  0  0  0  0  0  0  0  0  0  0  # atno 6909 bound_to 6896
  145.2371  140.9192  143.3171 H   0  0  0  0  0  0  0  0  0  0  0  0  # atno 7974 bound_to 7965
  155.9255  140.3418  155.6207 H   0  0  0  0  0  0  0  0  0  0  0  0  # atno 8008 bound_to 7997
  155.7222  140.0785  157.2344 H   0  0  0  0  0  0  0  0  0  0  0  0  # atno 8009 bound_to 7997
  154.4076  140.1603  156.2402 H   0  0  0  0  0  0  0  0  0  0  0  0  # atno 8010 bound_to 7997
  139.4830  144.4766  151.8502 H   0  0  0  0  0  0  0  0  0  0  0  0  # atno 10167 bound_to 10162
  156.0744  130.5953  150.8593 H   0  0  0  0  0  0  0  0  0  0  0  0  # atno 10718 bound_to 10713
  154.0576  135.6622  153.4808 H   0  0  0  0  0  0  0  0  0  0  0  0  # atno 10763 bound_to 10752
  153.0439  135.5127  154.7691 H   0  0  0  0  0  0  0  0  0  0  0  0  # atno 10764 bound_to 10752
  154.6717  135.3030  154.9700 H   0  0  0  0  0  0  0  0  0  0  0  0  # atno 10765 bound_to 10752
  140.9429  133.7267  156.1103 H   0  0  0  0  0  0  0  0  0  0  0  0  # atno 11005 bound_to 11000
  144.9623  139.3967  143.6350 LP  0  0  0  0  0  0  0  0  0  0  0  0  # atno 17320 bound_to 7965
  146.3338  139.8681  142.8844 LP  0  0  0  0  0  0  0  0  0  0  0  0  # atno 17321 bound_to 7965
  140.4239  144.2206  150.5887 LP  0  0  0  0  0  0  0  0  0  0  0  0  # atno 17342 bound_to 10162
  140.4846  143.2367  151.8906 LP  0  0  0  0  0  0  0  0  0  0  0  0  # atno 17343 bound_to 10162
  157.5832  131.0946  150.9238 LP  0  0  0  0  0  0  0  0  0  0  0  0  # atno 17370 bound_to 10713
  156.9429  130.5391  149.5280 LP  0  0  0  0  0  0  0  0  0  0  0  0  # atno 17371 bound_to 10713
  140.7709  134.3834  157.5508 LP  0  0  0  0  0  0  0  0  0  0  0  0  # atno 17394 bound_to 11000
  139.8825  134.9021  156.2826 LP  0  0  0  0  0  0  0  0  0  0  0  0  # atno 17395 bound_to 11000

$$$$
