AV-unprocessed.smi:3241|AV-procd|sdf|12386|dock8
  -GOLD-   2272018253D 1   1.00000     0.00000
 Structure written by MMmdl.
 44 45  0  0  0  0  0  0  0  0  2 V2000
  145.9268  142.8455  153.8027 C   0  0  0  0  0  0  0  0  0  0  0  0
  147.1863  142.2733  154.4711 C   0  0  1  0  0  0  0  0  0  0  0  0
  146.9131  141.8487  155.9277 C   0  0  0  0  0  0  0  0  0  0  0  0
  148.1884  141.3340  156.6130 C   0  0  0  0  0  0  0  0  0  0  0  0
  148.8229  140.1826  155.8188 C   0  0  0  0  0  0  0  0  0  0  0  0
  149.0905  140.5892  154.3594 C   0  0  0  0  0  0  0  0  0  0  0  0
  147.8202  141.1145  153.6646 C   0  0  1  0  0  0  0  0  0  0  0  0
  146.8972  140.0362  153.5684 O   0  0  0  0  0  0  0  0  0  0  0  0
  147.2143  139.0675  152.5809 C   0  0  0  0  0  0  0  0  0  0  0  0
  145.9717  138.2003  152.3611 C   0  0  0  0  0  0  0  0  0  0  0  0
  146.2301  137.2021  151.3062 N   0  3  0  0  0  0  0  0  0  0  0  0
  145.1836  136.1723  151.1584 C   0  0  0  0  0  0  0  0  0  0  0  0
  145.5592  134.8841  151.9088 C   0  0  0  0  0  0  0  0  0  0  0  0
  145.3583  133.6977  151.0949 N   0  0  0  0  0  0  0  0  0  0  0  0
  144.1927  133.2445  150.5140 C   0  0  0  0  0  0  0  0  0  0  0  0
  144.4964  132.1001  149.8337 C   0  0  0  0  0  0  0  0  0  0  0  0
  145.8906  131.9303  150.0613 C   0  0  0  0  0  0  0  0  0  0  0  0
  146.4043  132.8890  150.8152 N   0  0  0  0  0  0  0  0  0  0  0  0
  145.1209  142.1125  153.7723 H   0  0  0  0  0  0  0  0  0  0  0  0
  146.1331  143.1615  152.7799 H   0  0  0  0  0  0  0  0  0  0  0  0
  145.5574  143.7151  154.3469 H   0  0  0  0  0  0  0  0  0  0  0  0
  147.9184  143.0820  154.5009 H   0  0  0  0  0  0  0  0  0  0  0  0
  146.5106  142.6901  156.4929 H   0  0  0  0  0  0  0  0  0  0  0  0
  146.1496  141.0701  155.9497 H   0  0  0  0  0  0  0  0  0  0  0  0
  148.9056  142.1499  156.7092 H   0  0  0  0  0  0  0  0  0  0  0  0
  147.9584  141.0042  157.6265 H   0  0  0  0  0  0  0  0  0  0  0  0
  149.7543  139.8739  156.2942 H   0  0  0  0  0  0  0  0  0  0  0  0
  148.1630  139.3146  155.8435 H   0  0  0  0  0  0  0  0  0  0  0  0
  149.8583  141.3634  154.3383 H   0  0  0  0  0  0  0  0  0  0  0  0
  149.4965  139.7421  153.8057 H   0  0  0  0  0  0  0  0  0  0  0  0
  148.1034  141.4747  152.6733 H   0  0  0  0  0  0  0  0  0  0  0  0
  147.5137  139.5377  151.6429 H   0  0  0  0  0  0  0  0  0  0  0  0
  148.0507  138.4586  152.9263 H   0  0  0  0  0  0  0  0  0  0  0  0
  145.7043  137.6828  153.2832 H   0  0  0  0  0  0  0  0  0  0  0  0
  145.1241  138.8280  152.0829 H   0  0  0  0  0  0  0  0  0  0  0  0
  146.3043  137.6936  150.4262 H   0  0  0  0  0  0  0  0  0  0  0  0
  144.2426  136.5658  151.5444 H   0  0  0  0  0  0  0  0  0  0  0  0
  145.0307  135.9541  150.1005 H   0  0  0  0  0  0  0  0  0  0  0  0
  146.5984  134.9190  152.2401 H   0  0  0  0  0  0  0  0  0  0  0  0
  144.9488  134.7880  152.8075 H   0  0  0  0  0  0  0  0  0  0  0  0
  143.2553  133.7690  150.6292 H   0  0  0  0  0  0  0  0  0  0  0  0
  143.8245  131.4787  149.2604 H   0  0  0  0  0  0  0  0  0  0  0  0
  146.5407  131.1466  149.7004 H   0  0  0  0  0  0  0  0  0  0  0  0
  147.1131  136.7485  151.4920 H   0  0  0  0  0  0  0  0  0  0  0  0
  1  2  1  0  0  0  0
  1 19  1  0  0  0  0
  1 20  1  0  0  0  0
  1 21  1  0  0  0  0
  2  7  1  0  0  0  0
  2  3  1  0  0  0  0
  2 22  1  0  0  0  0
  3  4  1  0  0  0  0
  3 23  1  0  0  0  0
  3 24  1  0  0  0  0
  4  5  1  0  0  0  0
  4 25  1  0  0  0  0
  4 26  1  0  0  0  0
  5  6  1  0  0  0  0
  5 27  1  0  0  0  0
  5 28  1  0  0  0  0
  6  7  1  0  0  0  0
  6 29  1  0  0  0  0
  6 30  1  0  0  0  0
  7  8  1  0  0  0  0
  7 31  1  0  0  0  0
  8  9  1  0  0  0  0
  9 10  1  0  0  0  0
  9 32  1  0  0  0  0
  9 33  1  0  0  0  0
 10 11  1  0  0  0  0
 10 34  1  0  0  0  0
 10 35  1  0  0  0  0
 11 12  1  0  0  0  0
 11 36  1  0  0  0  0
 11 44  1  0  0  0  0
 12 13  1  0  0  0  0
 12 37  1  0  0  0  0
 12 38  1  0  0  0  0
 13 14  1  0  0  0  0
 13 39  1  0  0  0  0
 13 40  1  0  0  0  0
 14 18  1  0  0  0  0
 14 15  1  0  0  0  0
 15 16  2  0  0  0  0
 15 41  1  0  0  0  0
 16 17  1  0  0  0  0
 16 42  1  0  0  0  0
 17 18  2  0  0  0  0
 17 43  1  0  0  0  0
M  CHG  1  11   1
M  END
> <s_m_source_file>
AV-unprocessed.smi

> <i_m_source_file_index>
3241

> <i_lp_mmshare_version>
43012

> <i_f3d_flags>
0

> <s_epik_input>
W0NIM11bQ0BASF0xW0NIMl1bQ0gyXVtDSDJdW0NIMl1bQ0BIXTFPW0NIMl1bQ0gyXVtOSF1bQ0gyXVtDSDJdbjJbY0hdW2NIXVtjSF1uMg==

> <s_epik_cmdline>
J2VwaWtfcHl0aG9uJywgJy1waCcsICc3LjAnLCAnLXRuJywgJzgnLCAnLW1hJywgJzIwMCcsICctbWV0YWxfYmluZGluZycsICctaW1hZScsICc8aW5maWxlLm1hZT4nLCAnLW9tYWUnLCAnPG91dGZpbGUubWFlPic=

> <r_lp_tautomer_probability>
1

> <r_epik_Ionization_Penalty>
0.00924946

> <r_epik_Ionization_Penalty_Charging>
0.00924645

> <r_epik_Ionization_Penalty_Neutral>
3.00629e-06

> <r_epik_State_Penalty>
0.0070118

> <r_epik_Charging_Adjusted_Penalty>
0.0162583

> <i_epik_Tot_Q>
1

> <i_epik_Tot_abs_Q>
1

> <r_epik_Metal_State_Penalty>
0.00702523

> <b_epik_Metal_Only>
0

> <s_lp_Force_Field>
OPLS_2005

> <r_lp_Energy>
14.1188

> <b_lp_Chiralities_Consistent>
1

> <s_lp_Variant>
AV-unprocessed.smi:3241-2

> <Gold.Version>
5.8.1

> <Gold.Id.Protein>
6NUR|6NUR_protein|mol2

> <Gold.PLP.Fitness>
46.8752

> <Gold.PLP.PLP>
-36.3534

> <Gold.PLP.part.hbond>
-1.7901

> <Gold.PLP.part.metal>
0.0000

> <Gold.PLP.part.buried>
-1.7809

> <Gold.PLP.part.nonpolar>
-34.0453

> <Gold.PLP.part.repulsive>
0.4606

> <Gold.PLP.ligand.clash>
0.0000

> <Gold.PLP.ligand.torsion>
0.7735

> <Gold.PLP.Chemscore.Hbond>
2.0000

> <Gold.PLP.Chemscore.CHOScore>
1.9610

> <Gold.PLP.Chemscore.Metal>
0.0000

> <Gold.Chemscore.Hbonds>
donor molecule, donor type, donor heavy atom, donor atom, acceptor molecule, acceptor atom, score
      L1  H    11    44       P1  7948  2.00
      L1  C    15    41       P1 10186  0.89
      L1  C    17    43       P1 10747  0.94

> <Gold.PLP.Chemscore.Internal.Correction>
0.1857

> <Gold.Rescore>
     Score         DG    S(hbond)    S(metal)    S(lipo)     H(rot)  DE(clash)    DE(int)     intcor
     13.83     -15.19       1.00        0.00      95.91       1.89       0.54       0.81       ----

> <Gold.Chemscore.Fitness>
13.8320

> <Gold.Chemscore.DG>
-15.1907

> <Gold.Chemscore.ZeroCoef>
-5.4800

> <Gold.Chemscore.Hbond>
0.9968

> <Gold.Chemscore.Metal>
0.0000

> <Gold.Chemscore.Lipo>
95.9098

> <Gold.Chemscore.Internal_Hbond>
0.0000

> <Gold.Chemscore.DEClash>
0.5445

> <Gold.Chemscore.DEInternal>
0.8143

> <Gold.Chemscore.Rot>
1.8906

> <Gold.Chemscore.Internal.Correction>
   9.000000E+99

> <Gold.Chemscore.Hbonds>
donor molecule, donor type, donor heavy atom, donor atom, acceptor molecule, acceptor atom, score
      L1  H    11    44       P1  7948  1.00

> <Gold.Chemscore.Hbond.Weighted>
-3.3293

> <Gold.Chemscore.Metal.Weighted>
-0.0000

> <Gold.Chemscore.Lipo.Weighted>
-11.2214

> <Gold.Chemscore.Internal_Hbond.Weighted>
0.0000

> <Gold.Chemscore.DEClash.Weighted>
0.5445

> <Gold.Chemscore.DEInternal.Weighted>
0.8143

> <Gold.Chemscore.Rot.Weighted>
4.8400

> <Gold.Chemscore.Internal.Correction.Weighted>
   9.000000E+99

> <Gold.Protein.RotatedTorsions>
[ 6907 6896 6895 6894 ] final   15.95 input  -60.11 | X-H torsion
[ 7974 7965 7964 7962 ] final  -51.00 input  175.53 | X-H torsion
[ 8008 7997 7996 7995 ] final -156.43 input   59.86 | X-H torsion
[ 10167 10162 10161 10158 ] final   25.88 input  -65.29 | X-H torsion
[ 10718 10713 10712 10709 ] final   95.64 input   66.30 | X-H torsion
[ 10763 10752 10751 10750 ] final   24.18 input  -60.55 | X-H torsion
[ 11005 11000 10999 10996 ] final  103.83 input  -57.11 | X-H torsion

> <Gold.Protein.ActiveResidues>
 VAL166  LYS551  ARG553  GLY616  TRP617  ASP618  TYR619  PRO620  LYS621  CYS622 
 ASP623  PHE694  ASN695  SER759  ASP760  ASP761  ALA762  ILE779  LEU786  VAL792 
 PHE793  MET794  SER795  GLU796  ALA797  LYS798  CYS799  TRP800  GLU811  SER814 

> <Gold.Protein.RotatedAtoms>
  151.8261  135.0636  160.0430 H   0  0  0  0  0  0  0  0  0  0  0  0  # atno 6907 bound_to 6896
  152.2915  133.5561  159.5569 H   0  0  0  0  0  0  0  0  0  0  0  0  # atno 6908 bound_to 6896
  150.7232  134.0338  159.3784 H   0  0  0  0  0  0  0  0  0  0  0  0  # atno 6909 bound_to 6896
  145.9238  140.7810  142.9634 H   0  0  0  0  0  0  0  0  0  0  0  0  # atno 7974 bound_to 7965
  155.7171  140.0785  157.2346 H   0  0  0  0  0  0  0  0  0  0  0  0  # atno 8008 bound_to 7997
  154.4050  140.1619  156.2414 H   0  0  0  0  0  0  0  0  0  0  0  0  # atno 8009 bound_to 7997
  155.9230  140.3396  155.6191 H   0  0  0  0  0  0  0  0  0  0  0  0  # atno 8010 bound_to 7997
  140.5069  144.0224  150.6356 H   0  0  0  0  0  0  0  0  0  0  0  0  # atno 10167 bound_to 10162
  157.6936  131.0552  150.4369 H   0  0  0  0  0  0  0  0  0  0  0  0  # atno 10718 bound_to 10713
  153.0783  135.6611  154.0099 H   0  0  0  0  0  0  0  0  0  0  0  0  # atno 10763 bound_to 10752
  153.9727  135.2963  155.3427 H   0  0  0  0  0  0  0  0  0  0  0  0  # atno 10764 bound_to 10752
  154.7176  135.5178  153.8833 H   0  0  0  0  0  0  0  0  0  0  0  0  # atno 10765 bound_to 10752
  139.8787  134.9278  156.5270 H   0  0  0  0  0  0  0  0  0  0  0  0  # atno 11005 bound_to 11000
  144.6756  140.2017  143.7386 LP  0  0  0  0  0  0  0  0  0  0  0  0  # atno 17320 bound_to 7965
  145.8516  139.2178  143.1769 LP  0  0  0  0  0  0  0  0  0  0  0  0  # atno 17321 bound_to 7965
  140.3536  143.2949  152.0461 LP  0  0  0  0  0  0  0  0  0  0  0  0  # atno 17342 bound_to 10162
  139.4886  144.6356  151.6983 LP  0  0  0  0  0  0  0  0  0  0  0  0  # atno 17343 bound_to 10162
  156.4731  130.4057  149.6506 LP  0  0  0  0  0  0  0  0  0  0  0  0  # atno 17370 bound_to 10713
  156.3579  130.7466  151.2434 LP  0  0  0  0  0  0  0  0  0  0  0  0  # atno 17371 bound_to 10713
  140.8409  133.8206  155.9074 LP  0  0  0  0  0  0  0  0  0  0  0  0  # atno 17394 bound_to 11000
  140.9238  134.2108  157.4909 LP  0  0  0  0  0  0  0  0  0  0  0  0  # atno 17395 bound_to 11000

$$$$
