AV-unprocessed.smi:2583|AV-procd|sdf|10142|dock10
  -GOLD-   2272014153D 1   1.00000     0.00000
 Structure written by MMmdl.
 54 56  0  0  0  0  0  0  0  0  2 V2000
  153.3674  142.3951  161.2627 C   0  0  0  0  0  0  0  0  0  0  0  0
  152.4572  143.2623  160.4187 C   0  0  0  0  0  0  0  0  0  0  0  0
  152.1847  144.5984  160.7783 C   0  0  0  0  0  0  0  0  0  0  0  0
  151.3715  145.4055  160.0652 N   0  0  0  0  0  0  0  0  0  0  0  0
  150.7993  144.9014  158.9513 C   0  0  0  0  0  0  0  0  0  0  0  0
  151.0117  143.5855  158.4889 C   0  0  0  0  0  0  0  0  0  0  0  0
  150.3309  143.1733  157.3121 N   0  0  0  0  0  0  0  0  0  0  0  0
  150.5251  142.0621  156.5819 C   0  0  0  0  0  0  0  0  0  0  0  0
  151.3931  141.2157  156.7930 O   0  0  0  0  0  0  0  0  0  0  0  0
  149.6553  141.9967  155.5638 N   0  0  0  0  0  0  0  0  0  0  0  0
  149.5808  140.9284  154.5708 C   0  0  2  0  0  0  0  0  0  0  0  0
  148.2249  140.9811  153.8421 C   0  0  0  0  0  0  0  0  0  0  0  0
  148.0407  139.7609  152.9191 C   0  0  0  0  0  0  0  0  0  0  0  0
  148.1764  138.4764  153.6645 N   0  3  2  0  0  0  0  0  0  0  0  0
  147.0400  138.1508  154.5920 C   0  0  0  0  0  0  0  0  0  0  0  0
  147.2313  136.7875  155.2992 C   0  0  0  0  0  0  0  0  0  0  0  0
  146.0127  136.3975  156.1526 C   0  0  0  0  0  0  0  0  0  0  0  0
  144.8162  136.3348  155.3184 N   0  0  0  0  0  0  0  0  0  0  0  0
  143.6880  135.8899  156.1245 C   0  0  0  0  0  0  0  0  0  0  0  0
  144.5323  137.6602  154.7762 C   0  0  0  0  0  0  0  0  0  0  0  0
  145.6791  138.1111  153.8562 C   0  0  0  0  0  0  0  0  0  0  0  0
  149.5359  138.4063  154.2725 C   0  0  0  0  0  0  0  0  0  0  0  0
  149.7803  139.5648  155.2578 C   0  0  0  0  0  0  0  0  0  0  0  0
  151.8563  142.7451  159.2535 C   0  0  0  0  0  0  0  0  0  0  0  0
  153.7774  142.9523  162.1057 H   0  0  0  0  0  0  0  0  0  0  0  0
  154.1985  142.0239  160.6624 H   0  0  0  0  0  0  0  0  0  0  0  0
  152.8166  141.5391  161.6535 H   0  0  0  0  0  0  0  0  0  0  0  0
  152.6243  145.0321  161.6646 H   0  0  0  0  0  0  0  0  0  0  0  0
  150.1521  145.5748  158.4084 H   0  0  0  0  0  0  0  0  0  0  0  0
  149.6438  143.8241  156.9607 H   0  0  0  0  0  0  0  0  0  0  0  0
  148.9856  142.7465  155.4708 H   0  0  0  0  0  0  0  0  0  0  0  0
  150.3692  141.0426  153.8245 H   0  0  0  0  0  0  0  0  0  0  0  0
  147.4083  141.0281  154.5634 H   0  0  0  0  0  0  0  0  0  0  0  0
  148.1596  141.8968  153.2534 H   0  0  0  0  0  0  0  0  0  0  0  0
  147.1017  139.8230  152.3733 H   0  0  0  0  0  0  0  0  0  0  0  0
  148.8093  139.7861  152.1452 H   0  0  0  0  0  0  0  0  0  0  0  0
  146.9795  138.9185  155.3632 H   0  0  0  0  0  0  0  0  0  0  0  0
  147.4249  136.0068  154.5619 H   0  0  0  0  0  0  0  0  0  0  0  0
  148.0915  136.8118  155.9664 H   0  0  0  0  0  0  0  0  0  0  0  0
  146.1886  135.4230  156.6100 H   0  0  0  0  0  0  0  0  0  0  0  0
  145.8730  137.1120  156.9658 H   0  0  0  0  0  0  0  0  0  0  0  0
  142.7843  135.8296  155.5168 H   0  0  0  0  0  0  0  0  0  0  0  0
  143.4965  136.5703  156.9557 H   0  0  0  0  0  0  0  0  0  0  0  0
  143.8779  134.8965  156.5325 H   0  0  0  0  0  0  0  0  0  0  0  0
  143.6027  137.6282  154.2062 H   0  0  0  0  0  0  0  0  0  0  0  0
  144.3870  138.3792  155.5843 H   0  0  0  0  0  0  0  0  0  0  0  0
  145.4127  139.0957  153.4747 H   0  0  0  0  0  0  0  0  0  0  0  0
  145.7389  137.4445  152.9942 H   0  0  0  0  0  0  0  0  0  0  0  0
  149.7275  137.4447  154.7441 H   0  0  0  0  0  0  0  0  0  0  0  0
  150.2706  138.4675  153.4684 H   0  0  0  0  0  0  0  0  0  0  0  0
  150.7939  139.4987  155.6551 H   0  0  0  0  0  0  0  0  0  0  0  0
  149.1130  139.4705  156.1153 H   0  0  0  0  0  0  0  0  0  0  0  0
  152.0396  141.7176  158.9794 H   0  0  0  0  0  0  0  0  0  0  0  0
  148.1544  137.7499  152.9630 H   0  0  0  0  0  0  0  0  0  0  0  0
  1  2  1  0  0  0  0
  1 25  1  0  0  0  0
  1 26  1  0  0  0  0
  1 27  1  0  0  0  0
  2 24  1  0  0  0  0
  2  3  2  0  0  0  0
  3  4  1  0  0  0  0
  3 28  1  0  0  0  0
  4  5  2  0  0  0  0
  5  6  1  0  0  0  0
  5 29  1  0  0  0  0
  6  7  1  0  0  0  0
  6 24  2  0  0  0  0
  7  8  1  0  0  0  0
  7 30  1  0  0  0  0
  8  9  2  0  0  0  0
  8 10  1  0  0  0  0
 10 11  1  0  0  0  0
 10 31  1  0  0  0  0
 11 23  1  0  0  0  0
 11 12  1  0  0  0  0
 11 32  1  0  0  0  0
 12 13  1  0  0  0  0
 12 33  1  0  0  0  0
 12 34  1  0  0  0  0
 13 14  1  0  0  0  0
 13 35  1  0  0  0  0
 13 36  1  0  0  0  0
 14 15  1  0  0  0  0
 14 22  1  0  0  0  0
 14 54  1  0  0  0  0
 15 21  1  0  0  0  0
 15 16  1  0  0  0  0
 15 37  1  0  0  0  0
 16 17  1  0  0  0  0
 16 38  1  0  0  0  0
 16 39  1  0  0  0  0
 17 18  1  0  0  0  0
 17 40  1  0  0  0  0
 17 41  1  0  0  0  0
 18 19  1  0  0  0  0
 18 20  1  0  0  0  0
 19 42  1  0  0  0  0
 19 43  1  0  0  0  0
 19 44  1  0  0  0  0
 20 21  1  0  0  0  0
 20 45  1  0  0  0  0
 20 46  1  0  0  0  0
 21 47  1  0  0  0  0
 21 48  1  0  0  0  0
 22 23  1  0  0  0  0
 22 49  1  0  0  0  0
 22 50  1  0  0  0  0
 23 51  1  0  0  0  0
 23 52  1  0  0  0  0
 24 53  1  0  0  0  0
M  CHG  1  14   1
M  END
> <s_m_source_file>
AV-unprocessed.smi

> <i_m_source_file_index>
2583

> <i_lp_mmshare_version>
43012

> <i_f3d_flags>
0

> <s_epik_input>
W0NIM11jMVtjSF1uW2NIXWMoW2NIXTEpW05IXUMoPU8pW05IXVtDSF0yW0NIMl1bQ0gyXU4oW0NIMl1bQ0gyXTIpW0NIXTNbQ0gyXVtDSDJdTihbQ0gzXSlbQ0gyXVtDSDJdMw==

> <s_epik_cmdline>
J2VwaWtfcHl0aG9uJywgJy1waCcsICc3LjAnLCAnLXRuJywgJzgnLCAnLW1hJywgJzIwMCcsICctbWV0YWxfYmluZGluZycsICctaW1hZScsICc8aW5maWxlLm1hZT4nLCAnLW9tYWUnLCAnPG91dGZpbGUubWFlPic=

> <r_epik_Ionization_Penalty>
1.38006

> <r_epik_Ionization_Penalty_Charging>
0.00081195

> <r_epik_Ionization_Penalty_Neutral>
1.37925

> <r_epik_State_Penalty>
1.55585

> <r_epik_Charging_Adjusted_Penalty>
1.55666

> <i_epik_Tot_Q>
1

> <i_epik_Tot_abs_Q>
1

> <r_epik_Metal_State_Penalty>
1.55173

> <b_epik_Metal_Only>
0

> <s_lp_Force_Field>
OPLS_2005

> <r_lp_Energy>
35.4229

> <b_lp_Chiralities_Consistent>
1

> <s_lp_Variant>
AV-unprocessed.smi:2583-8

> <Gold.Version>
5.8.1

> <Gold.Id.Protein>
6NUR|6NUR_protein|mol2

> <Gold.PLP.Fitness>
49.4324

> <Gold.PLP.PLP>
-35.5632

> <Gold.PLP.part.hbond>
-3.1987

> <Gold.PLP.part.metal>
0.0000

> <Gold.PLP.part.buried>
0.6260

> <Gold.PLP.part.nonpolar>
-33.1602

> <Gold.PLP.part.repulsive>
0.3848

> <Gold.PLP.ligand.clash>
0.0000

> <Gold.PLP.ligand.torsion>
0.3011

> <Gold.PLP.Chemscore.Hbond>
3.8160

> <Gold.PLP.Chemscore.CHOScore>
0.9937

> <Gold.PLP.Chemscore.Metal>
0.0000

> <Gold.Chemscore.Hbonds>
donor molecule, donor type, donor heavy atom, donor atom, acceptor molecule, acceptor atom, score
      L1  H     7    30       P1  8028  1.00
      L1  H    10    31       P1  8028  0.82
      L1  H    14    54       P1  7948  2.00
      L1  C     5    29       P1  8029  1.00

> <Gold.PLP.Chemscore.Internal.Correction>
0.0421

> <Gold.Rescore>
     Score         DG    S(hbond)    S(metal)    S(lipo)     H(rot)  DE(clash)    DE(int)     intcor
     19.12     -24.31       2.68        0.00     110.44       1.19       2.26       2.93       ----

> <Gold.Chemscore.Fitness>
19.1245

> <Gold.Chemscore.DG>
-24.3105

> <Gold.Chemscore.ZeroCoef>
-5.4800

> <Gold.Chemscore.Hbond>
2.6821

> <Gold.Chemscore.Metal>
0.0000

> <Gold.Chemscore.Lipo>
110.4371

> <Gold.Chemscore.Internal_Hbond>
0.0000

> <Gold.Chemscore.DEClash>
2.2550

> <Gold.Chemscore.DEInternal>
2.9309

> <Gold.Chemscore.Rot>
1.1910

> <Gold.Chemscore.Internal.Correction>
   9.000000E+99

> <Gold.Chemscore.Hbonds>
donor molecule, donor type, donor heavy atom, donor atom, acceptor molecule, acceptor atom, score
      L1  H     7    30       P1  8028  0.88
      L1  H    10    31       P1  8028  0.78
      L1  H    14    54       P1  7948  0.91

> <Gold.Chemscore.Hbond.Weighted>
-8.9582

> <Gold.Chemscore.Metal.Weighted>
-0.0000

> <Gold.Chemscore.Lipo.Weighted>
-12.9211

> <Gold.Chemscore.Internal_Hbond.Weighted>
0.0000

> <Gold.Chemscore.DEClash.Weighted>
2.2550

> <Gold.Chemscore.DEInternal.Weighted>
2.9309

> <Gold.Chemscore.Rot.Weighted>
3.0489

> <Gold.Chemscore.Internal.Correction.Weighted>
   9.000000E+99

> <Gold.Protein.RotatedTorsions>
[ 6907 6896 6895 6894 ] final  -33.01 input  -60.11 | X-H torsion
[ 7974 7965 7964 7962 ] final -104.86 input  175.53 | X-H torsion
[ 8008 7997 7996 7995 ] final  141.20 input   59.86 | X-H torsion
[ 10167 10162 10161 10158 ] final  103.39 input  -65.29 | X-H torsion
[ 10718 10713 10712 10709 ] final  -95.42 input   66.30 | X-H torsion
[ 10763 10752 10751 10750 ] final  159.98 input  -60.55 | X-H torsion
[ 11005 11000 10999 10996 ] final  171.83 input  -57.11 | X-H torsion

> <Gold.Protein.ActiveResidues>
 VAL166  LYS551  ARG553  GLY616  TRP617  ASP618  TYR619  PRO620  LYS621  CYS622 
 ASP623  PHE694  ASN695  SER759  ASP760  ASP761  ALA762  ILE779  LEU786  VAL792 
 PHE793  MET794  SER795  GLU796  ALA797  LYS798  CYS799  TRP800  GLU811  SER814 

> <Gold.Protein.RotatedAtoms>
  151.0712  134.9799  159.8309 H   0  0  0  0  0  0  0  0  0  0  0  0  # atno 6907 bound_to 6896
  152.5408  134.2297  159.8830 H   0  0  0  0  0  0  0  0  0  0  0  0  # atno 6908 bound_to 6896
  151.2321  133.4401  159.2638 H   0  0  0  0  0  0  0  0  0  0  0  0  # atno 6909 bound_to 6896
  145.2378  140.9194  143.3167 H   0  0  0  0  0  0  0  0  0  0  0  0  # atno 7974 bound_to 7965
  156.2969  140.2321  156.4525 H   0  0  0  0  0  0  0  0  0  0  0  0  # atno 8008 bound_to 7997
  154.8089  140.0444  157.1348 H   0  0  0  0  0  0  0  0  0  0  0  0  # atno 8009 bound_to 7997
  154.9447  140.3034  155.5107 H   0  0  0  0  0  0  0  0  0  0  0  0  # atno 8010 bound_to 7997
  139.7267  144.7046  151.0786 H   0  0  0  0  0  0  0  0  0  0  0  0  # atno 10167 bound_to 10162
  156.0043  130.5108  150.6073 H   0  0  0  0  0  0  0  0  0  0  0  0  # atno 10718 bound_to 10713
  154.2403  135.2775  155.2856 H   0  0  0  0  0  0  0  0  0  0  0  0  # atno 10763 bound_to 10752
  154.5551  135.5664  153.6960 H   0  0  0  0  0  0  0  0  0  0  0  0  # atno 10764 bound_to 10752
  153.0001  135.6284  154.2547 H   0  0  0  0  0  0  0  0  0  0  0  0  # atno 10765 bound_to 10752
  140.3232  134.7420  157.4079 H   0  0  0  0  0  0  0  0  0  0  0  0  # atno 11005 bound_to 11000
  144.9617  139.3973  143.6353 LP  0  0  0  0  0  0  0  0  0  0  0  0  # atno 17320 bound_to 7965
  146.3336  139.8673  142.8846 LP  0  0  0  0  0  0  0  0  0  0  0  0  # atno 17321 bound_to 7965
  140.7764  143.5096  150.9669 LP  0  0  0  0  0  0  0  0  0  0  0  0  # atno 17342 bound_to 10162
  139.8783  143.7104  152.3159 LP  0  0  0  0  0  0  0  0  0  0  0  0  # atno 17343 bound_to 10162
  157.3912  131.0796  151.1392 LP  0  0  0  0  0  0  0  0  0  0  0  0  # atno 17370 bound_to 10713
  157.2083  130.6426  149.5764 LP  0  0  0  0  0  0  0  0  0  0  0  0  # atno 17371 bound_to 10713
  140.0924  134.5583  155.8431 LP  0  0  0  0  0  0  0  0  0  0  0  0  # atno 17394 bound_to 11000
  141.2081  133.6671  156.6352 LP  0  0  0  0  0  0  0  0  0  0  0  0  # atno 17395 bound_to 11000

$$$$
