AV-unprocessed.smi:2606|AV-procd|sdf|10197|dock9
  -GOLD-   2272014203D 1   1.00000     0.00000
 Structure written by MMmdl.
 42 43  0  0  0  0  0  0  0  0  1 V2000
  151.2821  138.1461  159.2734 O   0  0  0  0  0  0  0  0  0  0  0  0
  151.6182  138.2120  158.0897 C   0  0  0  0  0  0  0  0  0  0  0  0
  152.5544  139.3392  157.6415 C   0  0  0  0  0  0  0  0  0  0  0  0
  152.7715  140.3207  158.7157 N   0  0  0  0  0  0  0  0  0  0  0  0
  152.3650  141.6451  158.4597 C   0  0  0  0  0  0  0  0  0  0  0  0
  152.5178  142.6444  159.3496 C   0  0  0  0  0  0  0  0  0  0  0  0
  152.0218  144.0532  159.0628 C   0  0  0  0  0  0  0  0  0  0  0  0
  150.6949  144.0784  158.9350 F   0  0  0  0  0  0  0  0  0  0  0  0
  152.3579  144.8641  160.0649 F   0  0  0  0  0  0  0  0  0  0  0  0
  152.5600  144.5341  157.9414 F   0  0  0  0  0  0  0  0  0  0  0  0
  153.1005  142.2861  160.6278 C   0  0  0  0  0  0  0  0  0  0  0  0
  153.4893  141.0234  160.8912 C   0  0  0  0  0  0  0  0  0  0  0  0
  153.3415  139.9530  159.9024 C   0  0  0  0  0  0  0  0  0  0  0  0
  153.7095  138.7994  160.1259 O   0  0  0  0  0  0  0  0  0  0  0  0
  151.2241  137.3613  157.1201 N   0  0  0  0  0  0  0  0  0  0  0  0
  150.3999  136.3036  157.2396 C   0  0  0  0  0  0  0  0  0  0  0  0
  149.8129  135.9617  158.2687 O   0  0  0  0  0  0  0  0  0  0  0  0
  150.2901  135.6478  156.0747 N   0  0  0  0  0  0  0  0  0  0  0  0
  149.7983  134.2821  155.9174 C   0  0  0  0  0  0  0  0  0  0  0  0
  150.7863  133.2724  156.5378 C   0  0  0  0  0  0  0  0  0  0  0  0
  150.3257  131.8232  156.3117 C   0  0  0  0  0  0  0  0  0  0  0  0
  150.1072  131.5331  154.8187 C   0  0  0  0  0  0  0  0  0  0  0  0
  149.1180  132.5329  154.1995 C   0  0  0  0  0  0  0  0  0  0  0  0
  149.5782  133.9829  154.4224 C   0  0  0  0  0  0  0  0  0  0  0  0
  153.5057  138.9050  157.3301 H   0  0  0  0  0  0  0  0  0  0  0  0
  152.1561  139.8127  156.7421 H   0  0  0  0  0  0  0  0  0  0  0  0
  151.9227  141.7973  157.4855 H   0  0  0  0  0  0  0  0  0  0  0  0
  153.2319  143.0438  161.3861 H   0  0  0  0  0  0  0  0  0  0  0  0
  153.9223  140.7933  161.8538 H   0  0  0  0  0  0  0  0  0  0  0  0
  151.5821  137.5473  156.1946 H   0  0  0  0  0  0  0  0  0  0  0  0
  150.5642  136.1294  155.2308 H   0  0  0  0  0  0  0  0  0  0  0  0
  148.8359  134.1912  156.4250 H   0  0  0  0  0  0  0  0  0  0  0  0
  151.7770  133.4085  156.1018 H   0  0  0  0  0  0  0  0  0  0  0  0
  150.8928  133.4565  157.6076 H   0  0  0  0  0  0  0  0  0  0  0  0
  151.0619  131.1312  156.7216 H   0  0  0  0  0  0  0  0  0  0  0  0
  149.3979  131.6467  156.8574 H   0  0  0  0  0  0  0  0  0  0  0  0
  151.0608  131.5883  154.2917 H   0  0  0  0  0  0  0  0  0  0  0  0
  149.7392  130.5153  154.6872 H   0  0  0  0  0  0  0  0  0  0  0  0
  149.0108  132.3369  153.1323 H   0  0  0  0  0  0  0  0  0  0  0  0
  148.1306  132.3909  154.6408 H   0  0  0  0  0  0  0  0  0  0  0  0
  148.8387  134.6696  154.0080 H   0  0  0  0  0  0  0  0  0  0  0  0
  150.5033  134.1557  153.8701 H   0  0  0  0  0  0  0  0  0  0  0  0
  1  2  2  0  0  0  0
  2  3  1  0  0  0  0
  2 15  1  0  0  0  0
  3  4  1  0  0  0  0
  3 25  1  0  0  0  0
  3 26  1  0  0  0  0
  4 13  1  0  0  0  0
  4  5  1  0  0  0  0
  5  6  2  0  0  0  0
  5 27  1  0  0  0  0
  6  7  1  0  0  0  0
  6 11  1  0  0  0  0
  7  8  1  0  0  0  0
  7  9  1  0  0  0  0
  7 10  1  0  0  0  0
 11 12  2  0  0  0  0
 11 28  1  0  0  0  0
 12 13  1  0  0  0  0
 12 29  1  0  0  0  0
 13 14  2  0  0  0  0
 15 16  1  0  0  0  0
 15 30  1  0  0  0  0
 16 17  2  0  0  0  0
 16 18  1  0  0  0  0
 18 19  1  0  0  0  0
 18 31  1  0  0  0  0
 19 24  1  0  0  0  0
 19 20  1  0  0  0  0
 19 32  1  0  0  0  0
 20 21  1  0  0  0  0
 20 33  1  0  0  0  0
 20 34  1  0  0  0  0
 21 22  1  0  0  0  0
 21 35  1  0  0  0  0
 21 36  1  0  0  0  0
 22 23  1  0  0  0  0
 22 37  1  0  0  0  0
 22 38  1  0  0  0  0
 23 24  1  0  0  0  0
 23 39  1  0  0  0  0
 23 40  1  0  0  0  0
 24 41  1  0  0  0  0
 24 42  1  0  0  0  0
M  END
> <s_m_source_file>
AV-unprocessed.smi

> <i_m_source_file_index>
2606

> <i_lp_mmshare_version>
43012

> <i_f3d_flags>
0

> <s_epik_input>
Tz1jMVtjSF1bY0hdYyhDKEYpKEYpRilbY0hdbjFbQ0gyXUMoPU8pW05IXUMoPU8pW05IXVtDSF0yW0NIMl1bQ0gyXVtDSDJdW0NIMl1bQ0gyXTI=

> <s_epik_cmdline>
J2VwaWtfcHl0aG9uJywgJy1waCcsICc3LjAnLCAnLXRuJywgJzgnLCAnLW1hJywgJzIwMCcsICctbWV0YWxfYmluZGluZycsICctaW1hZScsICc8aW5maWxlLm1hZT4nLCAnLW9tYWUnLCAnPG91dGZpbGUubWFlPic=

> <r_lp_tautomer_probability>
1

> <r_epik_Ionization_Penalty>
3.27177e-05

> <r_epik_Ionization_Penalty_Charging>
1.42456e-08

> <r_epik_Ionization_Penalty_Neutral>
3.27035e-05

> <r_epik_State_Penalty>
-0

> <r_epik_Charging_Adjusted_Penalty>
1.42456e-08

> <i_epik_Tot_Q>
0

> <i_epik_Tot_abs_Q>
0

> <r_epik_Metal_State_Penalty>
-0

> <b_epik_Metal_Only>
0

> <s_lp_Force_Field>
OPLS_2005

> <r_lp_Energy>
22.0809

> <b_lp_Chiralities_Consistent>
1

> <s_lp_Variant>
AV-unprocessed.smi:2606-1

> <Gold.Version>
5.8.1

> <Gold.Id.Protein>
6NUR|6NUR_protein|mol2

> <Gold.PLP.Fitness>
49.9844

> <Gold.PLP.PLP>
-47.9258

> <Gold.PLP.part.hbond>
-1.0000

> <Gold.PLP.part.metal>
0.0000

> <Gold.PLP.part.buried>
-5.8584

> <Gold.PLP.part.nonpolar>
-40.6287

> <Gold.PLP.part.repulsive>
0.1376

> <Gold.PLP.ligand.clash>
0.3189

> <Gold.PLP.ligand.torsion>
0.3189

> <Gold.PLP.Chemscore.Hbond>
0.9833

> <Gold.PLP.Chemscore.CHOScore>
0.0000

> <Gold.PLP.Chemscore.Metal>
0.0000

> <Gold.Chemscore.Hbonds>
donor molecule, donor type, donor heavy atom, donor atom, acceptor molecule, acceptor atom, score
      P1  H  6896  6908       L1    17  0.91

> <Gold.PLP.Chemscore.Internal.Correction>
0.0654

> <Gold.Rescore>
     Score         DG    S(hbond)    S(metal)    S(lipo)     H(rot)  DE(clash)    DE(int)     intcor
     11.82     -14.42       0.96        0.00      85.17       1.65       0.06       2.55       ----

> <Gold.Chemscore.Fitness>
11.8180

> <Gold.Chemscore.DG>
-14.4200

> <Gold.Chemscore.ZeroCoef>
-5.4800

> <Gold.Chemscore.Hbond>
0.9572

> <Gold.Chemscore.Metal>
0.0000

> <Gold.Chemscore.Lipo>
85.1671

> <Gold.Chemscore.Internal_Hbond>
0.0000

> <Gold.Chemscore.DEClash>
0.0560

> <Gold.Chemscore.DEInternal>
2.5460

> <Gold.Chemscore.Rot>
1.6491

> <Gold.Chemscore.Internal.Correction>
   9.000000E+99

> <Gold.Chemscore.Hbonds>
donor molecule, donor type, donor heavy atom, donor atom, acceptor molecule, acceptor atom, score
      P1  H  6896  6908       L1    17  0.82

> <Gold.Chemscore.Hbond.Weighted>
-3.1970

> <Gold.Chemscore.Metal.Weighted>
-0.0000

> <Gold.Chemscore.Lipo.Weighted>
-9.9646

> <Gold.Chemscore.Internal_Hbond.Weighted>
0.0000

> <Gold.Chemscore.DEClash.Weighted>
0.0560

> <Gold.Chemscore.DEInternal.Weighted>
2.5460

> <Gold.Chemscore.Rot.Weighted>
4.2216

> <Gold.Chemscore.Internal.Correction.Weighted>
   9.000000E+99

> <Gold.Protein.RotatedTorsions>
[ 6907 6896 6895 6894 ] final  169.04 input  -60.11 | X-H torsion
[ 7974 7965 7964 7962 ] final  138.47 input  175.53 | X-H torsion
[ 8008 7997 7996 7995 ] final  147.75 input   59.86 | X-H torsion
[ 10167 10162 10161 10158 ] final   95.88 input  -65.29 | X-H torsion
[ 10718 10713 10712 10709 ] final -101.49 input   66.30 | X-H torsion
[ 10763 10752 10751 10750 ] final  -46.28 input  -60.55 | X-H torsion
[ 11005 11000 10999 10996 ] final  -92.47 input  -57.11 | X-H torsion

> <Gold.Protein.ActiveResidues>
 VAL166  LYS551  ARG553  GLY616  TRP617  ASP618  TYR619  PRO620  LYS621  CYS622 
 ASP623  PHE694  ASN695  SER759  ASP760  ASP761  ALA762  ILE779  LEU786  VAL792 
 PHE793  MET794  SER795  GLU796  ALA797  LYS798  CYS799  TRP800  GLU811  SER814 

> <Gold.Protein.RotatedAtoms>
  151.8381  133.3419  159.3634 H   0  0  0  0  0  0  0  0  0  0  0  0  # atno 6907 bound_to 6896
  150.7243  134.5417  159.5760 H   0  0  0  0  0  0  0  0  0  0  0  0  # atno 6908 bound_to 6896
  152.2885  134.7749  160.0433 H   0  0  0  0  0  0  0  0  0  0  0  0  # atno 6909 bound_to 6896
  144.9370  139.4977  143.5590 H   0  0  0  0  0  0  0  0  0  0  0  0  # atno 7974 bound_to 7965
  156.2814  140.2147  156.5588 H   0  0  0  0  0  0  0  0  0  0  0  0  # atno 8008 bound_to 7997
  154.7230  140.0502  157.0679 H   0  0  0  0  0  0  0  0  0  0  0  0  # atno 8009 bound_to 7997
  155.0453  140.3150  155.4713 H   0  0  0  0  0  0  0  0  0  0  0  0  # atno 8010 bound_to 7997
  139.7946  144.6838  150.9846 H   0  0  0  0  0  0  0  0  0  0  0  0  # atno 10167 bound_to 10162
  156.0196  130.5376  150.6970 H   0  0  0  0  0  0  0  0  0  0  0  0  # atno 10718 bound_to 10713
  154.0425  135.6642  153.4791 H   0  0  0  0  0  0  0  0  0  0  0  0  # atno 10763 bound_to 10752
  153.0496  135.5093  154.7829 H   0  0  0  0  0  0  0  0  0  0  0  0  # atno 10764 bound_to 10752
  154.6809  135.3045  154.9580 H   0  0  0  0  0  0  0  0  0  0  0  0  # atno 10765 bound_to 10752
  141.1521  133.7823  157.0025 H   0  0  0  0  0  0  0  0  0  0  0  0  # atno 11005 bound_to 11000
  146.3270  139.8361  142.8899 LP  0  0  0  0  0  0  0  0  0  0  0  0  # atno 17320 bound_to 7965
  145.3051  141.0205  143.3586 LP  0  0  0  0  0  0  0  0  0  0  0  0  # atno 17321 bound_to 7965
  140.7820  143.4344  151.0645 LP  0  0  0  0  0  0  0  0  0  0  0  0  # atno 17342 bound_to 10162
  139.8019  143.8071  152.3163 LP  0  0  0  0  0  0  0  0  0  0  0  0  # atno 17343 bound_to 10162
  157.4639  131.0886  151.0716 LP  0  0  0  0  0  0  0  0  0  0  0  0  # atno 17370 bound_to 10713
  157.1196  130.6056  149.5502 LP  0  0  0  0  0  0  0  0  0  0  0  0  # atno 17371 bound_to 10713
  140.0931  134.9581  157.1807 LP  0  0  0  0  0  0  0  0  0  0  0  0  # atno 17394 bound_to 11000
  140.3419  134.2694  155.7211 LP  0  0  0  0  0  0  0  0  0  0  0  0  # atno 17395 bound_to 11000

$$$$
