AV-unprocessed.smi:685|AV-procd|sdf|3334|dock7
  -GOLD-   22720 0303D 1   1.00000     0.00000
 Structure written by MMmdl.
 50 51  0  0  0  0  0  0  0  0  1 V2000
  154.3476  134.2939  159.6608 C   0  0  0  0  0  0  0  0  0  0  0  0
  153.6815  134.5607  160.9807 C   0  0  0  0  0  0  0  0  0  0  0  0
  153.3790  133.5452  161.7723 N   0  0  0  0  0  0  0  0  0  0  0  0
  152.8003  134.1104  162.8506 N   0  0  0  0  0  0  0  0  0  0  0  0
  152.3399  133.2658  163.9354 C   0  0  0  0  0  0  0  0  0  0  0  0
  152.7340  135.4856  162.7390 C   0  0  0  0  0  0  0  0  0  0  0  0
  152.1278  136.3403  163.8052 C   0  0  0  0  0  0  0  0  0  0  0  0
  153.2982  135.8166  161.5358 C   0  0  0  0  0  0  0  0  0  0  0  0
  153.4831  137.1776  160.9151 C   0  0  0  0  0  0  0  0  0  0  0  0
  154.2326  138.1543  161.8466 C   0  0  1  0  0  0  0  0  0  0  0  0
  155.7558  137.9495  161.8222 C   0  0  0  0  0  0  0  0  0  0  0  0
  153.9332  139.5349  161.4769 N   0  0  0  0  0  0  0  0  0  0  0  0
  154.1738  140.0866  160.2770 C   0  0  0  0  0  0  0  0  0  0  0  0
  154.6816  139.4693  159.3402 O   0  0  0  0  0  0  0  0  0  0  0  0
  153.7769  141.5567  160.1134 C   0  0  0  0  0  0  0  0  0  0  0  0
  152.7435  141.7744  158.9918 C   0  0  0  0  0  0  0  0  0  0  0  0
  152.1042  143.1742  159.0188 C   0  0  0  0  0  0  0  0  0  0  0  0
  152.9574  144.2451  158.3351 C   0  0  0  0  0  0  0  0  0  0  0  0
  152.4195  145.5776  158.8656 C   0  0  0  0  0  0  0  0  0  0  0  0
  151.7652  145.2664  160.2201 C   0  0  0  0  0  0  0  0  0  0  0  0
  151.8883  143.7513  160.4215 C   0  0  0  0  0  0  0  0  0  0  0  0
  155.1335  135.0231  159.4631 H   0  0  0  0  0  0  0  0  0  0  0  0
  153.6281  134.3527  158.8439 H   0  0  0  0  0  0  0  0  0  0  0  0
  154.8036  133.3036  159.6316 H   0  0  0  0  0  0  0  0  0  0  0  0
  151.2594  133.3643  164.0425 H   0  0  0  0  0  0  0  0  0  0  0  0
  152.8200  133.5700  164.8659 H   0  0  0  0  0  0  0  0  0  0  0  0
  152.5813  132.2199  163.7400 H   0  0  0  0  0  0  0  0  0  0  0  0
  152.0611  137.3815  163.4909 H   0  0  0  0  0  0  0  0  0  0  0  0
  152.7251  136.3024  164.7164 H   0  0  0  0  0  0  0  0  0  0  0  0
  151.1193  136.0031  164.0460 H   0  0  0  0  0  0  0  0  0  0  0  0
  154.0126  137.1059  159.9648 H   0  0  0  0  0  0  0  0  0  0  0  0
  152.5084  137.5962  160.6627 H   0  0  0  0  0  0  0  0  0  0  0  0
  153.8940  137.9933  162.8719 H   0  0  0  0  0  0  0  0  0  0  0  0
  156.0303  136.9515  162.1639 H   0  0  0  0  0  0  0  0  0  0  0  0
  156.2576  138.6635  162.4762 H   0  0  0  0  0  0  0  0  0  0  0  0
  156.1578  138.0787  160.8166 H   0  0  0  0  0  0  0  0  0  0  0  0
  153.5105  140.1144  162.1874 H   0  0  0  0  0  0  0  0  0  0  0  0
  153.3746  141.9089  161.0636 H   0  0  0  0  0  0  0  0  0  0  0  0
  154.6703  142.1498  159.9133 H   0  0  0  0  0  0  0  0  0  0  0  0
  153.2099  141.6011  158.0208 H   0  0  0  0  0  0  0  0  0  0  0  0
  151.9491  141.0321  159.0836 H   0  0  0  0  0  0  0  0  0  0  0  0
  151.1401  143.1360  158.5087 H   0  0  0  0  0  0  0  0  0  0  0  0
  154.0017  144.1327  158.6315 H   0  0  0  0  0  0  0  0  0  0  0  0
  152.9145  144.1826  157.2473 H   0  0  0  0  0  0  0  0  0  0  0  0
  153.2113  146.3222  158.9535 H   0  0  0  0  0  0  0  0  0  0  0  0
  151.6711  145.9765  158.1797 H   0  0  0  0  0  0  0  0  0  0  0  0
  152.2406  145.8121  161.0357 H   0  0  0  0  0  0  0  0  0  0  0  0
  150.7154  145.5618  160.1993 H   0  0  0  0  0  0  0  0  0  0  0  0
  151.0139  143.3297  160.9178 H   0  0  0  0  0  0  0  0  0  0  0  0
  152.7561  143.5395  161.0479 H   0  0  0  0  0  0  0  0  0  0  0  0
  1  2  1  0  0  0  0
  1 22  1  0  0  0  0
  1 23  1  0  0  0  0
  1 24  1  0  0  0  0
  2  8  1  0  0  0  0
  2  3  2  0  0  0  0
  3  4  1  0  0  0  0
  4  5  1  0  0  0  0
  4  6  1  0  0  0  0
  5 25  1  0  0  0  0
  5 26  1  0  0  0  0
  5 27  1  0  0  0  0
  6  7  1  0  0  0  0
  6  8  2  0  0  0  0
  7 28  1  0  0  0  0
  7 29  1  0  0  0  0
  7 30  1  0  0  0  0
  8  9  1  0  0  0  0
  9 10  1  0  0  0  0
  9 31  1  0  0  0  0
  9 32  1  0  0  0  0
 10 11  1  0  0  0  0
 10 12  1  0  0  0  0
 10 33  1  0  0  0  0
 11 34  1  0  0  0  0
 11 35  1  0  0  0  0
 11 36  1  0  0  0  0
 12 13  1  0  0  0  0
 12 37  1  0  0  0  0
 13 14  2  0  0  0  0
 13 15  1  0  0  0  0
 15 16  1  0  0  0  0
 15 38  1  0  0  0  0
 15 39  1  0  0  0  0
 16 17  1  0  0  0  0
 16 40  1  0  0  0  0
 16 41  1  0  0  0  0
 17 21  1  0  0  0  0
 17 18  1  0  0  0  0
 17 42  1  0  0  0  0
 18 19  1  0  0  0  0
 18 43  1  0  0  0  0
 18 44  1  0  0  0  0
 19 20  1  0  0  0  0
 19 45  1  0  0  0  0
 19 46  1  0  0  0  0
 20 21  1  0  0  0  0
 20 47  1  0  0  0  0
 20 48  1  0  0  0  0
 21 49  1  0  0  0  0
 21 50  1  0  0  0  0
M  END
> <s_m_source_file>
AV-unprocessed.smi

> <i_m_source_file_index>
685

> <i_lp_mmshare_version>
43012

> <i_f3d_flags>
0

> <s_epik_input>
W0NIM11jMW5uKFtDSDNdKWMoW0NIM10pYzFbQ0gyXVtDQEhdKFtDSDNdKVtOSF1DKD1PKVtDSDJdW0NIMl1bQ0hdMltDSDJdW0NIMl1bQ0gyXVtDSDJdMg==

> <s_epik_cmdline>
J2VwaWtfcHl0aG9uJywgJy1waCcsICc3LjAnLCAnLXRuJywgJzgnLCAnLW1hJywgJzIwMCcsICctbWV0YWxfYmluZGluZycsICctaW1hZScsICc8aW5maWxlLm1hZT4nLCAnLW9tYWUnLCAnPG91dGZpbGUubWFlPic=

> <r_lp_tautomer_probability>
1

> <r_epik_Ionization_Penalty>
0.0131144

> <r_epik_Ionization_Penalty_Charging>
0

> <r_epik_Ionization_Penalty_Neutral>
0.0131144

> <r_epik_State_Penalty>
0.0101889

> <r_epik_Charging_Adjusted_Penalty>
0.0101889

> <i_epik_Tot_Q>
0

> <i_epik_Tot_abs_Q>
0

> <r_epik_Metal_State_Penalty>
0.00996794

> <b_epik_Metal_Only>
0

> <s_lp_Force_Field>
OPLS_2005

> <r_lp_Energy>
16.0397

> <b_lp_Chiralities_Consistent>
1

> <s_lp_Variant>
AV-unprocessed.smi:685-2

> <Gold.Version>
5.8.1

> <Gold.Id.Protein>
6NUR|6NUR_protein|mol2

> <Gold.PLP.Fitness>
51.2893

> <Gold.PLP.PLP>
-49.3250

> <Gold.PLP.part.hbond>
-1.0000

> <Gold.PLP.part.metal>
0.0000

> <Gold.PLP.part.buried>
-4.3445

> <Gold.PLP.part.nonpolar>
-42.8253

> <Gold.PLP.part.repulsive>
0.0000

> <Gold.PLP.ligand.clash>
0.0000

> <Gold.PLP.ligand.torsion>
0.5569

> <Gold.PLP.Chemscore.Hbond>
1.0000

> <Gold.PLP.Chemscore.CHOScore>
0.0000

> <Gold.PLP.Chemscore.Metal>
0.0000

> <Gold.Chemscore.Hbonds>
donor molecule, donor type, donor heavy atom, donor atom, acceptor molecule, acceptor atom, score
      P1  H  7997  8010       L1    14  0.60

> <Gold.PLP.Chemscore.Internal.Correction>
0.0781

> <Gold.Rescore>
     Score         DG    S(hbond)    S(metal)    S(lipo)     H(rot)  DE(clash)    DE(int)     intcor
     18.24     -20.31       0.91        0.00     134.11       1.53       0.36       1.71       ----

> <Gold.Chemscore.Fitness>
18.2405

> <Gold.Chemscore.DG>
-20.3136

> <Gold.Chemscore.ZeroCoef>
-5.4800

> <Gold.Chemscore.Hbond>
0.9136

> <Gold.Chemscore.Metal>
0.0000

> <Gold.Chemscore.Lipo>
134.1091

> <Gold.Chemscore.Internal_Hbond>
0.0000

> <Gold.Chemscore.DEClash>
0.3632

> <Gold.Chemscore.DEInternal>
1.7099

> <Gold.Chemscore.Rot>
1.5268

> <Gold.Chemscore.Internal.Correction>
   9.000000E+99

> <Gold.Chemscore.Hbonds>
donor molecule, donor type, donor heavy atom, donor atom, acceptor molecule, acceptor atom, score
      P1  H  7997  8010       L1    14  0.58

> <Gold.Chemscore.Hbond.Weighted>
-3.0514

> <Gold.Chemscore.Metal.Weighted>
-0.0000

> <Gold.Chemscore.Lipo.Weighted>
-15.6908

> <Gold.Chemscore.Internal_Hbond.Weighted>
0.0000

> <Gold.Chemscore.DEClash.Weighted>
0.3632

> <Gold.Chemscore.DEInternal.Weighted>
1.7099

> <Gold.Chemscore.Rot.Weighted>
3.9086

> <Gold.Chemscore.Internal.Correction.Weighted>
   9.000000E+99

> <Gold.Protein.RotatedTorsions>
[ 6907 6896 6895 6894 ] final -163.02 input  -60.11 | X-H torsion
[ 7974 7965 7964 7962 ] final -104.27 input  175.53 | X-H torsion
[ 8008 7997 7996 7995 ] final  -19.77 input   59.86 | X-H torsion
[ 10167 10162 10161 10158 ] final  -30.44 input  -65.29 | X-H torsion
[ 10718 10713 10712 10709 ] final   26.12 input   66.30 | X-H torsion
[ 10763 10752 10751 10750 ] final -125.08 input  -60.55 | X-H torsion
[ 11005 11000 10999 10996 ] final -156.72 input  -57.11 | X-H torsion

> <Gold.Protein.ActiveResidues>
 VAL166  LYS551  ARG553  GLY616  TRP617  ASP618  TYR619  PRO620  LYS621  CYS622 
 ASP623  PHE694  ASN695  SER759  ASP760  ASP761  ALA762  ILE779  LEU786  VAL792 
 PHE793  MET794  SER795  GLU796  ALA797  LYS798  CYS799  TRP800  GLU811  SER814 

> <Gold.Protein.RotatedAtoms>
  151.3895  133.3794  159.2718 H   0  0  0  0  0  0  0  0  0  0  0  0  # atno 6907 bound_to 6896
  150.9516  134.8916  159.7686 H   0  0  0  0  0  0  0  0  0  0  0  0  # atno 6908 bound_to 6896
  152.5114  134.3850  159.9416 H   0  0  0  0  0  0  0  0  0  0  0  0  # atno 6909 bound_to 6896
  145.2452  140.9219  143.3127 H   0  0  0  0  0  0  0  0  0  0  0  0  # atno 7974 bound_to 7965
  154.4814  140.2080  155.9754 H   0  0  0  0  0  0  0  0  0  0  0  0  # atno 8008 bound_to 7997
  156.1171  140.3219  155.8124 H   0  0  0  0  0  0  0  0  0  0  0  0  # atno 8009 bound_to 7997
  155.4534  140.0518  157.2989 H   0  0  0  0  0  0  0  0  0  0  0  0  # atno 8010 bound_to 7997
  140.7249  143.3848  151.1535 H   0  0  0  0  0  0  0  0  0  0  0  0  # atno 10167 bound_to 10162
  157.2025  130.6897  149.6194 H   0  0  0  0  0  0  0  0  0  0  0  0  # atno 10718 bound_to 10713
  154.8731  135.4041  154.3210 H   0  0  0  0  0  0  0  0  0  0  0  0  # atno 10763 bound_to 10752
  153.4039  135.7019  153.6412 H   0  0  0  0  0  0  0  0  0  0  0  0  # atno 10764 bound_to 10752
  153.5143  135.3700  155.2572 H   0  0  0  0  0  0  0  0  0  0  0  0  # atno 10765 bound_to 10752
  140.6724  134.4232  157.5231 H   0  0  0  0  0  0  0  0  0  0  0  0  # atno 11005 bound_to 11000
  144.9552  139.4039  143.6383 LP  0  0  0  0  0  0  0  0  0  0  0  0  # atno 17320 bound_to 7965
  146.3317  139.8579  142.8861 LP  0  0  0  0  0  0  0  0  0  0  0  0  # atno 17321 bound_to 7965
  139.7443  143.8875  152.3059 LP  0  0  0  0  0  0  0  0  0  0  0  0  # atno 17342 bound_to 10162
  139.8707  144.7069  150.8990 LP  0  0  0  0  0  0  0  0  0  0  0  0  # atno 17343 bound_to 10162
  155.9699  130.4578  150.5975 LP  0  0  0  0  0  0  0  0  0  0  0  0  # atno 17370 bound_to 10713
  157.3753  131.0772  151.1523 LP  0  0  0  0  0  0  0  0  0  0  0  0  # atno 17371 bound_to 10713
  139.8977  134.8630  156.2032 LP  0  0  0  0  0  0  0  0  0  0  0  0  # atno 17394 bound_to 11000
  141.0381  133.6952  156.1549 LP  0  0  0  0  0  0  0  0  0  0  0  0  # atno 17395 bound_to 11000

$$$$
