AV-unprocessed.smi:1053|AV-procd|sdf|4621|dock6
  -GOLD-   22720 3123D 1   1.00000     0.00000
 Structure written by MMmdl.
 37 38  0  0  0  0  0  0  0  0  1 V2000
  150.4342  142.1010  158.2473 C   0  0  0  0  0  0  0  0  0  0  0  0
  151.4392  141.2151  157.4970 C   0  0  0  0  0  0  0  0  0  0  0  0
  150.8648  140.0251  156.8715 N   0  0  0  0  0  0  0  0  0  0  0  0
  151.7823  139.3883  155.9302 C   0  0  0  0  0  0  0  0  0  0  0  0
  151.1741  138.1197  155.3092 C   0  0  0  0  0  0  0  0  0  0  0  0
  150.7942  137.2191  156.3440 O   0  0  0  0  0  0  0  0  0  0  0  0
  149.8499  137.7807  157.2526 C   0  0  1  0  0  0  0  0  0  0  0  0
  149.5168  136.7290  158.3191 C   0  0  0  0  0  0  0  0  0  0  0  0
  148.6163  137.2551  159.3339 N   0  0  0  0  0  0  0  0  0  0  0  0
  148.1719  136.5328  160.4250 C   0  0  0  0  0  0  0  0  0  0  0  0
  147.8750  137.1985  161.5471 N   0  0  0  0  0  0  0  0  0  0  0  0
  147.4402  136.4691  162.5969 C   0  0  0  0  0  0  0  0  0  0  0  0
  147.3018  135.0693  162.5216 C   0  0  0  0  0  0  0  0  0  0  0  0
  147.6429  134.4720  161.2874 C   0  0  0  0  0  0  0  0  0  0  0  0
  147.5455  132.9707  161.0611 C   0  0  0  0  0  0  0  0  0  0  0  0
  148.3030  132.2951  161.9261 F   0  0  0  0  0  0  0  0  0  0  0  0
  146.2812  132.5737  161.2076 F   0  0  0  0  0  0  0  0  0  0  0  0
  147.9491  132.6763  159.8252 F   0  0  0  0  0  0  0  0  0  0  0  0
  148.0794  135.2138  160.2427 N   0  0  0  0  0  0  0  0  0  0  0  0
  150.4673  139.0473  157.8789 C   0  0  0  0  0  0  0  0  0  0  0  0
  150.9504  142.9031  158.7749 H   0  0  0  0  0  0  0  0  0  0  0  0
  149.8773  141.5244  158.9865 H   0  0  0  0  0  0  0  0  0  0  0  0
  149.7179  142.5678  157.5718 H   0  0  0  0  0  0  0  0  0  0  0  0
  151.9634  141.8118  156.7491 H   0  0  0  0  0  0  0  0  0  0  0  0
  152.1978  140.9023  158.2157 H   0  0  0  0  0  0  0  0  0  0  0  0
  152.0434  140.0789  155.1289 H   0  0  0  0  0  0  0  0  0  0  0  0
  152.7130  139.1296  156.4374 H   0  0  0  0  0  0  0  0  0  0  0  0
  150.3072  138.3670  154.6946 H   0  0  0  0  0  0  0  0  0  0  0  0
  151.8992  137.6305  154.6588 H   0  0  0  0  0  0  0  0  0  0  0  0
  148.9402  138.0519  156.7129 H   0  0  0  0  0  0  0  0  0  0  0  0
  149.0719  135.8472  157.8562 H   0  0  0  0  0  0  0  0  0  0  0  0
  150.4347  136.4050  158.8110 H   0  0  0  0  0  0  0  0  0  0  0  0
  148.2555  138.1908  159.2167 H   0  0  0  0  0  0  0  0  0  0  0  0
  147.2012  137.0056  163.5030 H   0  0  0  0  0  0  0  0  0  0  0  0
  146.9539  134.4940  163.3667 H   0  0  0  0  0  0  0  0  0  0  0  0
  151.3326  138.7682  158.4826 H   0  0  0  0  0  0  0  0  0  0  0  0
  149.7457  139.4976  158.5617 H   0  0  0  0  0  0  0  0  0  0  0  0
  1  2  1  0  0  0  0
  1 21  1  0  0  0  0
  1 22  1  0  0  0  0
  1 23  1  0  0  0  0
  2  3  1  0  0  0  0
  2 24  1  0  0  0  0
  2 25  1  0  0  0  0
  3 20  1  0  0  0  0
  3  4  1  0  0  0  0
  4  5  1  0  0  0  0
  4 26  1  0  0  0  0
  4 27  1  0  0  0  0
  5  6  1  0  0  0  0
  5 28  1  0  0  0  0
  5 29  1  0  0  0  0
  6  7  1  0  0  0  0
  7  8  1  0  0  0  0
  7 20  1  0  0  0  0
  7 30  1  0  0  0  0
  8  9  1  0  0  0  0
  8 31  1  0  0  0  0
  8 32  1  0  0  0  0
  9 10  1  0  0  0  0
  9 33  1  0  0  0  0
 10 19  1  0  0  0  0
 10 11  2  0  0  0  0
 11 12  1  0  0  0  0
 12 13  2  0  0  0  0
 12 34  1  0  0  0  0
 13 14  1  0  0  0  0
 13 35  1  0  0  0  0
 14 15  1  0  0  0  0
 14 19  2  0  0  0  0
 15 16  1  0  0  0  0
 15 17  1  0  0  0  0
 15 18  1  0  0  0  0
 20 36  1  0  0  0  0
 20 37  1  0  0  0  0
M  END
> <s_m_source_file>
AV-unprocessed.smi

> <i_m_source_file_index>
1053

> <i_lp_mmshare_version>
43012

> <i_f3d_flags>
0

> <s_epik_input>
W0NIM11bQ0gyXU4xW0NIMl1bQ0gyXU9bQ0BIXShbQ0gyXTEpW0NIMl1bTkhdYzJuW2NIXVtjSF1jKG4yKUMoRikoRilG

> <s_epik_cmdline>
J2VwaWtfcHl0aG9uJywgJy1waCcsICc3LjAnLCAnLXRuJywgJzgnLCAnLW1hJywgJzIwMCcsICctbWV0YWxfYmluZGluZycsICctaW1hZScsICc8aW5maWxlLm1hZT4nLCAnLW9tYWUnLCAnPG91dGZpbGUubWFlPic=

> <r_lp_tautomer_probability>
1

> <r_epik_Ionization_Penalty>
0.797829

> <r_epik_Ionization_Penalty_Charging>
0

> <r_epik_Ionization_Penalty_Neutral>
0.797829

> <r_epik_State_Penalty>
0.828842

> <r_epik_Charging_Adjusted_Penalty>
0.828842

> <i_epik_Tot_Q>
0

> <i_epik_Tot_abs_Q>
0

> <r_epik_Metal_State_Penalty>
0.828842

> <b_epik_Metal_Only>
0

> <s_lp_Force_Field>
OPLS_2005

> <r_lp_Energy>
17.4925

> <b_lp_Chiralities_Consistent>
1

> <s_lp_Variant>
AV-unprocessed.smi:1053-5

> <Gold.Version>
5.8.1

> <Gold.Id.Protein>
6NUR|6NUR_protein|mol2

> <Gold.PLP.Fitness>
37.6085

> <Gold.PLP.PLP>
-33.0711

> <Gold.PLP.part.hbond>
-2.0000

> <Gold.PLP.part.metal>
0.0000

> <Gold.PLP.part.buried>
-4.6609

> <Gold.PLP.part.nonpolar>
-25.6181

> <Gold.PLP.part.repulsive>
0.2109

> <Gold.PLP.ligand.clash>
0.0000

> <Gold.PLP.ligand.torsion>
0.2607

> <Gold.PLP.Chemscore.Hbond>
1.6820

> <Gold.PLP.Chemscore.CHOScore>
0.0000

> <Gold.PLP.Chemscore.Metal>
0.0000

> <Gold.Chemscore.Hbonds>
donor molecule, donor type, donor heavy atom, donor atom, acceptor molecule, acceptor atom, score
      P1  H  6931  6943       L1    11  1.00
      P1  H  6934  6947       L1    11  0.67

> <Gold.PLP.Chemscore.Internal.Correction>
0.0129

> <Gold.Rescore>
     Score         DG    S(hbond)    S(metal)    S(lipo)     H(rot)  DE(clash)    DE(int)     intcor
     13.29     -13.63       1.30        0.00      65.91       1.52       0.06       0.28       ----

> <Gold.Chemscore.Fitness>
13.2920

> <Gold.Chemscore.DG>
-13.6291

> <Gold.Chemscore.ZeroCoef>
-5.4800

> <Gold.Chemscore.Hbond>
1.2966

> <Gold.Chemscore.Metal>
0.0000

> <Gold.Chemscore.Lipo>
65.9098

> <Gold.Chemscore.Internal_Hbond>
0.0000

> <Gold.Chemscore.DEClash>
0.0580

> <Gold.Chemscore.DEInternal>
0.2791

> <Gold.Chemscore.Rot>
1.5208

> <Gold.Chemscore.Internal.Correction>
   9.000000E+99

> <Gold.Chemscore.Hbonds>
donor molecule, donor type, donor heavy atom, donor atom, acceptor molecule, acceptor atom, score
      P1  H  6931  6943       L1    11  0.67
      P1  H  6934  6947       L1    11  0.35

> <Gold.Chemscore.Hbond.Weighted>
-4.3308

> <Gold.Chemscore.Metal.Weighted>
-0.0000

> <Gold.Chemscore.Lipo.Weighted>
-7.7115

> <Gold.Chemscore.Internal_Hbond.Weighted>
0.0000

> <Gold.Chemscore.DEClash.Weighted>
0.0580

> <Gold.Chemscore.DEInternal.Weighted>
0.2791

> <Gold.Chemscore.Rot.Weighted>
3.8932

> <Gold.Chemscore.Internal.Correction.Weighted>
   9.000000E+99

> <Gold.Protein.RotatedTorsions>
[ 6907 6896 6895 6894 ] final  -45.86 input  -60.11 | X-H torsion
[ 7974 7965 7964 7962 ] final  -52.03 input  175.53 | X-H torsion
[ 8008 7997 7996 7995 ] final   83.52 input   59.86 | X-H torsion
[ 10167 10162 10161 10158 ] final   31.57 input  -65.29 | X-H torsion
[ 10718 10713 10712 10709 ] final  -32.20 input   66.30 | X-H torsion
[ 10763 10752 10751 10750 ] final  121.57 input  -60.55 | X-H torsion
[ 11005 11000 10999 10996 ] final    0.02 input  -57.11 | X-H torsion

> <Gold.Protein.ActiveResidues>
 VAL166  LYS551  ARG553  GLY616  TRP617  ASP618  TYR619  PRO620  LYS621  CYS622 
 ASP623  PHE694  ASN695  SER759  ASP760  ASP761  ALA762  ILE779  LEU786  VAL792 
 PHE793  MET794  SER795  GLU796  ALA797  LYS798  CYS799  TRP800  GLU811  SER814 

> <Gold.Protein.RotatedAtoms>
  150.9174  134.8592  159.7465 H   0  0  0  0  0  0  0  0  0  0  0  0  # atno 6907 bound_to 6896
  152.4975  134.4269  159.9509 H   0  0  0  0  0  0  0  0  0  0  0  0  # atno 6908 bound_to 6896
  151.4305  133.3632  159.2803 H   0  0  0  0  0  0  0  0  0  0  0  0  # atno 6909 bound_to 6896
  145.9125  140.7903  142.9688 H   0  0  0  0  0  0  0  0  0  0  0  0  # atno 7974 bound_to 7965
  155.9250  140.3419  155.6203 H   0  0  0  0  0  0  0  0  0  0  0  0  # atno 8008 bound_to 7997
  155.7227  140.0785  157.2342 H   0  0  0  0  0  0  0  0  0  0  0  0  # atno 8009 bound_to 7997
  154.4075  140.1602  156.2407 H   0  0  0  0  0  0  0  0  0  0  0  0  # atno 8010 bound_to 7997
  140.4576  144.0954  150.6205 H   0  0  0  0  0  0  0  0  0  0  0  0  # atno 10167 bound_to 10162
  156.3778  130.4351  149.7493 H   0  0  0  0  0  0  0  0  0  0  0  0  # atno 10718 bound_to 10713
  153.6162  135.3421  155.2995 H   0  0  0  0  0  0  0  0  0  0  0  0  # atno 10763 bound_to 10752
  154.8609  135.4262  154.2256 H   0  0  0  0  0  0  0  0  0  0  0  0  # atno 10764 bound_to 10752
  153.3118  135.7032  153.7181 H   0  0  0  0  0  0  0  0  0  0  0  0  # atno 10765 bound_to 10752
  140.6312  133.9573  155.8275 H   0  0  0  0  0  0  0  0  0  0  0  0  # atno 11005 bound_to 11000
  144.6744  140.1848  143.7402 LP  0  0  0  0  0  0  0  0  0  0  0  0  # atno 17320 bound_to 7965
  145.8654  139.2244  143.1692 LP  0  0  0  0  0  0  0  0  0  0  0  0  # atno 17321 bound_to 7965
  140.4132  143.2647  151.9807 LP  0  0  0  0  0  0  0  0  0  0  0  0  # atno 17342 bound_to 10162
  139.4803  144.5897  151.7793 LP  0  0  0  0  0  0  0  0  0  0  0  0  # atno 17343 bound_to 10162
  156.4595  130.7945  151.2965 LP  0  0  0  0  0  0  0  0  0  0  0  0  # atno 17370 bound_to 10713
  157.7490  131.0070  150.3174 LP  0  0  0  0  0  0  0  0  0  0  0  0  # atno 17371 bound_to 10713
  141.0674  134.0256  157.3575 LP  0  0  0  0  0  0  0  0  0  0  0  0  # atno 17394 bound_to 11000
  139.9115  135.0191  156.7712 LP  0  0  0  0  0  0  0  0  0  0  0  0  # atno 17395 bound_to 11000

$$$$
