AV-unprocessed.smi:2198|AV-procd|sdf|8918|dock2
  -GOLD-   2272012133D 1   1.00000     0.00000
 Structure written by MMmdl.
 43 44  0  0  0  0  0  0  0  0  1 V2000
  150.7688  134.4754  155.4463 C   0  0  0  0  0  0  0  0  0  0  0  0
  150.6896  135.7391  156.2754 C   0  0  0  0  0  0  0  0  0  0  0  0
  150.8276  136.9015  155.5350 N   0  0  0  0  0  0  0  0  0  0  0  0
  150.7857  138.1086  156.2105 C   0  0  0  0  0  0  0  0  0  0  0  0
  150.9625  139.3313  155.3271 C   0  0  0  0  0  0  0  0  0  0  0  0
  150.6029  138.1551  157.5548 C   0  0  0  0  0  0  0  0  0  0  0  0
  150.5579  139.4646  158.3390 C   0  0  0  0  0  0  0  0  0  0  0  0
  151.8498  140.2828  158.3206 C   0  0  0  0  0  0  0  0  0  0  0  0
  152.8369  139.8611  157.7188 O   0  0  0  0  0  0  0  0  0  0  0  0
  151.8291  141.4483  158.9846 N   0  0  0  0  0  0  0  0  0  0  0  0
  152.9422  142.3894  159.0908 C   0  0  1  0  0  0  0  0  0  0  0  0
  152.5179  143.8089  158.6595 C   0  0  0  0  0  0  0  0  0  0  0  0
  151.5472  144.4525  159.6643 C   0  0  0  0  0  0  0  0  0  0  0  0
  152.1341  144.4572  161.0845 C   0  0  0  0  0  0  0  0  0  0  0  0
  152.5281  143.0391  161.5403 C   0  0  2  0  0  0  0  0  0  0  0  0
  153.1215  143.0499  162.9559 C   0  0  0  0  0  0  0  0  0  0  0  0
  153.4990  142.3939  160.5284 C   0  0  0  0  0  0  0  0  0  0  0  0
  150.4416  136.8784  158.2899 C   0  0  0  0  0  0  0  0  0  0  0  0
  150.2513  136.8541  159.5051 O   0  0  0  0  0  0  0  0  0  0  0  0
  150.5075  135.6808  157.5595 N   0  0  0  0  0  0  0  0  0  0  0  0
  150.9660  136.9120  154.5348 H   0  0  0  0  0  0  0  0  0  0  0  0
  150.8195  133.5929  156.0854 H   0  0  0  0  0  0  0  0  0  0  0  0
  151.6573  134.4872  154.8140 H   0  0  0  0  0  0  0  0  0  0  0  0
  149.8890  134.3851  154.8085 H   0  0  0  0  0  0  0  0  0  0  0  0
  151.8433  139.8975  155.6305 H   0  0  0  0  0  0  0  0  0  0  0  0
  150.0912  139.9825  155.3973 H   0  0  0  0  0  0  0  0  0  0  0  0
  151.0881  139.0556  154.2793 H   0  0  0  0  0  0  0  0  0  0  0  0
  150.2899  139.2406  159.3722 H   0  0  0  0  0  0  0  0  0  0  0  0
  149.7479  140.1006  157.9804 H   0  0  0  0  0  0  0  0  0  0  0  0
  150.9720  141.7095  159.4496 H   0  0  0  0  0  0  0  0  0  0  0  0
  153.7397  142.0491  158.4274 H   0  0  0  0  0  0  0  0  0  0  0  0
  153.4067  144.4354  158.5744 H   0  0  0  0  0  0  0  0  0  0  0  0
  152.0685  143.7888  157.6658 H   0  0  0  0  0  0  0  0  0  0  0  0
  151.3184  145.4726  159.3551 H   0  0  0  0  0  0  0  0  0  0  0  0
  150.6000  143.9116  159.6607 H   0  0  0  0  0  0  0  0  0  0  0  0
  153.0070  145.1107  161.1142 H   0  0  0  0  0  0  0  0  0  0  0  0
  151.4071  144.8830  161.7771 H   0  0  0  0  0  0  0  0  0  0  0  0
  151.6209  142.4344  161.5750 H   0  0  0  0  0  0  0  0  0  0  0  0
  154.0371  143.6407  162.9983 H   0  0  0  0  0  0  0  0  0  0  0  0
  153.3615  142.0396  163.2885 H   0  0  0  0  0  0  0  0  0  0  0  0
  152.4182  143.4742  163.6731 H   0  0  0  0  0  0  0  0  0  0  0  0
  153.7395  141.3751  160.8355 H   0  0  0  0  0  0  0  0  0  0  0  0
  154.4425  142.9416  160.5391 H   0  0  0  0  0  0  0  0  0  0  0  0
  1 22  1  0  0  0  0
  1 23  1  0  0  0  0
  1 24  1  0  0  0  0
  1  2  1  0  0  0  0
  2  3  1  0  0  0  0
  2 20  2  0  0  0  0
  3  4  1  0  0  0  0
  3 21  1  0  0  0  0
  4  6  2  0  0  0  0
  4  5  1  0  0  0  0
  5 25  1  0  0  0  0
  5 26  1  0  0  0  0
  5 27  1  0  0  0  0
  6 18  1  0  0  0  0
  6  7  1  0  0  0  0
  7  8  1  0  0  0  0
  7 28  1  0  0  0  0
  7 29  1  0  0  0  0
  8  9  2  0  0  0  0
  8 10  1  0  0  0  0
 10 11  1  0  0  0  0
 10 30  1  0  0  0  0
 11 17  1  0  0  0  0
 11 12  1  0  0  0  0
 11 31  1  0  0  0  0
 12 13  1  0  0  0  0
 12 32  1  0  0  0  0
 12 33  1  0  0  0  0
 13 14  1  0  0  0  0
 13 34  1  0  0  0  0
 13 35  1  0  0  0  0
 14 15  1  0  0  0  0
 14 36  1  0  0  0  0
 14 37  1  0  0  0  0
 15 16  1  0  0  0  0
 15 17  1  0  0  0  0
 15 38  1  0  0  0  0
 16 39  1  0  0  0  0
 16 40  1  0  0  0  0
 16 41  1  0  0  0  0
 17 42  1  0  0  0  0
 17 43  1  0  0  0  0
 18 19  2  0  0  0  0
 18 20  1  0  0  0  0
M  END
> <s_m_source_file>
AV-unprocessed.smi

> <i_m_source_file_index>
2198

> <i_lp_mmshare_version>
43012

> <i_f3d_flags>
0

> <s_epik_input>
W0NIM11jMW5jKFtDSDNdKWMoYyg9TylbbkhdMSlbQ0gyXUMoPU8pW05IXVtDQEBIXTJbQ0gyXVtDSDJdW0NIMl1bQ0BASF0oW0NIM10pW0NIMl0y

> <s_epik_cmdline>
J2VwaWtfcHl0aG9uJywgJy1waCcsICc3LjAnLCAnLXRuJywgJzgnLCAnLW1hJywgJzIwMCcsICctbWV0YWxfYmluZGluZycsICctaW1hZScsICc8aW5maWxlLm1hZT4nLCAnLW9tYWUnLCAnPG91dGZpbGUubWFlPic=

> <r_lp_tautomer_probability>
0.156392

> <r_epik_Ionization_Penalty>
0.0136514

> <r_epik_Ionization_Penalty_Charging>
0.0135207

> <r_epik_Ionization_Penalty_Neutral>
0.000130657

> <r_epik_State_Penalty>
1.15342

> <r_epik_Charging_Adjusted_Penalty>
1.16694

> <i_epik_Tot_Q>
0

> <i_epik_Tot_abs_Q>
0

> <r_epik_Metal_State_Penalty>
1.31404

> <b_epik_Metal_Only>
0

> <s_lp_Force_Field>
OPLS_2005

> <r_lp_Energy>
13.6567

> <b_lp_Chiralities_Consistent>
1

> <s_lp_Variant>
AV-unprocessed.smi:2198-8

> <Gold.Version>
5.8.1

> <Gold.Id.Protein>
6NUR|6NUR_protein|mol2

> <Gold.PLP.Fitness>
47.9480

> <Gold.PLP.PLP>
-42.1088

> <Gold.PLP.part.hbond>
-2.6810

> <Gold.PLP.part.metal>
0.0000

> <Gold.PLP.part.buried>
-6.5551

> <Gold.PLP.part.nonpolar>
-33.2132

> <Gold.PLP.part.repulsive>
0.1917

> <Gold.PLP.ligand.clash>
0.0000

> <Gold.PLP.ligand.torsion>
0.0841

> <Gold.PLP.Chemscore.Hbond>
2.0000

> <Gold.PLP.Chemscore.CHOScore>
0.0000

> <Gold.PLP.Chemscore.Metal>
0.0000

> <Gold.Chemscore.Hbonds>
donor molecule, donor type, donor heavy atom, donor atom, acceptor molecule, acceptor atom, score
      P1  H  6896  6907       L1    19  0.85
      P1  H  7997  8010       L1     9  1.00

> <Gold.PLP.Chemscore.Internal.Correction>
0.0076

> <Gold.Rescore>
     Score         DG    S(hbond)    S(metal)    S(lipo)     H(rot)  DE(clash)    DE(int)     intcor
     20.50     -20.60       1.98        0.00     105.15       1.48       0.00       0.10       ----

> <Gold.Chemscore.Fitness>
20.5018

> <Gold.Chemscore.DG>
-20.6048

> <Gold.Chemscore.ZeroCoef>
-5.4800

> <Gold.Chemscore.Hbond>
1.9796

> <Gold.Chemscore.Metal>
0.0000

> <Gold.Chemscore.Lipo>
105.1451

> <Gold.Chemscore.Internal_Hbond>
0.0000

> <Gold.Chemscore.DEClash>
0.0009

> <Gold.Chemscore.DEInternal>
0.1021

> <Gold.Chemscore.Rot>
1.4801

> <Gold.Chemscore.Internal.Correction>
   9.000000E+99

> <Gold.Chemscore.Hbonds>
donor molecule, donor type, donor heavy atom, donor atom, acceptor molecule, acceptor atom, score
      P1  H  6896  6907       L1    19  0.14
      P1  H  7997  8010       L1     9  0.94

> <Gold.Chemscore.Hbond.Weighted>
-6.6120

> <Gold.Chemscore.Metal.Weighted>
-0.0000

> <Gold.Chemscore.Lipo.Weighted>
-12.3020

> <Gold.Chemscore.Internal_Hbond.Weighted>
0.0000

> <Gold.Chemscore.DEClash.Weighted>
0.0009

> <Gold.Chemscore.DEInternal.Weighted>
0.1021

> <Gold.Chemscore.Rot.Weighted>
3.7891

> <Gold.Chemscore.Internal.Correction.Weighted>
   9.000000E+99

> <Gold.Protein.RotatedTorsions>
[ 6907 6896 6895 6894 ] final  -31.07 input  -60.11 | X-H torsion
[ 7974 7965 7964 7962 ] final  -51.68 input  175.53 | X-H torsion
[ 8008 7997 7996 7995 ] final   62.59 input   59.86 | X-H torsion
[ 10167 10162 10161 10158 ] final   29.70 input  -65.29 | X-H torsion
[ 10718 10713 10712 10709 ] final  -81.62 input   66.30 | X-H torsion
[ 10763 10752 10751 10750 ] final -172.26 input  -60.55 | X-H torsion
[ 11005 11000 10999 10996 ] final   95.42 input  -57.11 | X-H torsion

> <Gold.Protein.ActiveResidues>
 VAL166  LYS551  ARG553  GLY616  TRP617  ASP618  TYR619  PRO620  LYS621  CYS622 
 ASP623  PHE694  ASN695  SER759  ASP760  ASP761  ALA762  ILE779  LEU786  VAL792 
 PHE793  MET794  SER795  GLU796  ALA797  LYS798  CYS799  TRP800  GLU811  SER814 

> <Gold.Protein.RotatedAtoms>
  151.0970  134.9950  159.8429 H   0  0  0  0  0  0  0  0  0  0  0  0  # atno 6907 bound_to 6896
  152.5434  134.1996  159.8717 H   0  0  0  0  0  0  0  0  0  0  0  0  # atno 6908 bound_to 6896
  151.2036  133.4552  159.2630 H   0  0  0  0  0  0  0  0  0  0  0  0  # atno 6909 bound_to 6896
  145.9163  140.7872  142.9670 H   0  0  0  0  0  0  0  0  0  0  0  0  # atno 7974 bound_to 7965
  155.6168  140.3495  155.4639 H   0  0  0  0  0  0  0  0  0  0  0  0  # atno 8008 bound_to 7997
  156.0111  140.1233  157.0477 H   0  0  0  0  0  0  0  0  0  0  0  0  # atno 8009 bound_to 7997
  154.4281  140.1081  156.5816 H   0  0  0  0  0  0  0  0  0  0  0  0  # atno 8010 bound_to 7997
  140.4742  144.0715  150.6246 H   0  0  0  0  0  0  0  0  0  0  0  0  # atno 10167 bound_to 10162
  156.0047  130.4609  150.3980 H   0  0  0  0  0  0  0  0  0  0  0  0  # atno 10718 bound_to 10713
  154.6213  135.2875  155.0323 H   0  0  0  0  0  0  0  0  0  0  0  0  # atno 10763 bound_to 10752
  154.1517  135.6502  153.4969 H   0  0  0  0  0  0  0  0  0  0  0  0  # atno 10764 bound_to 10752
  153.0237  135.5357  154.7003 H   0  0  0  0  0  0  0  0  0  0  0  0  # atno 10765 bound_to 10752
  139.8789  134.8898  156.4008 H   0  0  0  0  0  0  0  0  0  0  0  0  # atno 11005 bound_to 11000
  144.6748  140.1905  143.7397 LP  0  0  0  0  0  0  0  0  0  0  0  0  # atno 17320 bound_to 7965
  145.8607  139.2221  143.1718 LP  0  0  0  0  0  0  0  0  0  0  0  0  # atno 17321 bound_to 7965
  140.3939  143.2738  152.0028 LP  0  0  0  0  0  0  0  0  0  0  0  0  # atno 17342 bound_to 10162
  139.4823  144.6054  151.7530 LP  0  0  0  0  0  0  0  0  0  0  0  0  # atno 17343 bound_to 10162
  157.2051  131.0447  151.2629 LP  0  0  0  0  0  0  0  0  0  0  0  0  # atno 17370 bound_to 10713
  157.3940  130.7297  149.6718 LP  0  0  0  0  0  0  0  0  0  0  0  0  # atno 17371 bound_to 10713
  140.9268  133.7607  155.9975 LP  0  0  0  0  0  0  0  0  0  0  0  0  # atno 17394 bound_to 11000
  140.8376  134.3104  157.5325 LP  0  0  0  0  0  0  0  0  0  0  0  0  # atno 17395 bound_to 11000

$$$$
