AV-unprocessed.smi:1522|AV-procd|sdf|6136|dock2
  -GOLD-   22720 6283D 1   1.00000     0.00000
 Structure written by MMmdl.
 34 35  0  0  0  0  0  0  0  0  3 V2000
  146.4213  136.5725  155.9350 C   0  0  0  0  0  0  0  0  0  0  0  0
  147.5738  136.3270  154.9358 C   0  0  2  0  0  0  0  0  0  0  0  0
  148.9264  136.2551  155.6864 C   0  0  0  0  0  0  0  0  0  0  0  0
  148.8231  135.5329  156.9538 N   0  0  0  0  0  0  0  0  0  0  0  0
  148.8933  136.0584  158.1848 C   0  0  0  0  0  0  0  0  0  0  0  0
  149.1234  137.2601  158.3316 O   0  0  0  0  0  0  0  0  0  0  0  0
  148.6744  135.1603  159.1699 N   0  5  0  0  0  0  0  0  0  0  0  0
  148.0862  135.5506  160.3127 C   0  0  0  0  0  0  0  0  0  0  0  0
  147.9387  136.8451  160.6380 N   0  0  0  0  0  0  0  0  0  0  0  0
  147.3070  137.0319  161.8598 N   0  0  0  0  0  0  0  0  0  0  0  0
  146.9838  135.8677  162.4228 C   0  0  0  0  0  0  0  0  0  0  0  0
  147.4231  134.4378  161.5123 S   0  0  0  0  0  0  0  0  0  0  0  0
  147.6108  137.3485  153.8485 N   0  3  0  0  0  0  0  0  0  0  0  0
  146.3519  137.4959  153.0889 C   0  0  0  0  0  0  0  0  0  0  0  0
  146.5283  138.7839  152.2896 C   0  0  0  0  0  0  0  0  0  0  0  0
  147.4318  139.6582  153.1628 C   0  0  0  0  0  0  0  0  0  0  0  0
  147.9827  138.7240  154.2489 C   0  0  0  0  0  0  0  0  0  0  0  0
  146.4685  135.8654  156.7637 H   0  0  0  0  0  0  0  0  0  0  0  0
  145.4431  136.4451  155.4717 H   0  0  0  0  0  0  0  0  0  0  0  0
  146.4609  137.5773  156.3577 H   0  0  0  0  0  0  0  0  0  0  0  0
  147.3937  135.3556  154.4730 H   0  0  0  0  0  0  0  0  0  0  0  0
  149.6529  135.7246  155.0702 H   0  0  0  0  0  0  0  0  0  0  0  0
  149.3497  137.2486  155.8388 H   0  0  0  0  0  0  0  0  0  0  0  0
  148.6464  134.5404  156.8929 H   0  0  0  0  0  0  0  0  0  0  0  0
  146.4824  135.8507  163.3790 H   0  0  0  0  0  0  0  0  0  0  0  0
  146.1395  136.6433  152.4454 H   0  0  0  0  0  0  0  0  0  0  0  0
  145.5170  137.6063  153.7828 H   0  0  0  0  0  0  0  0  0  0  0  0
  147.0324  138.5629  151.3475 H   0  0  0  0  0  0  0  0  0  0  0  0
  145.5772  139.2620  152.0538 H   0  0  0  0  0  0  0  0  0  0  0  0
  148.2355  140.0942  152.5680 H   0  0  0  0  0  0  0  0  0  0  0  0
  146.8725  140.4793  153.6126 H   0  0  0  0  0  0  0  0  0  0  0  0
  147.5123  138.9697  155.2023 H   0  0  0  0  0  0  0  0  0  0  0  0
  149.0622  138.8253  154.3662 H   0  0  0  0  0  0  0  0  0  0  0  0
  148.3132  137.0491  153.1858 H   0  0  0  0  0  0  0  0  0  0  0  0
  1  2  1  0  0  0  0
  1 18  1  0  0  0  0
  1 19  1  0  0  0  0
  1 20  1  0  0  0  0
  2  3  1  0  0  0  0
  2 13  1  0  0  0  0
  2 21  1  0  0  0  0
  3  4  1  0  0  0  0
  3 22  1  0  0  0  0
  3 23  1  0  0  0  0
  4  5  1  0  0  0  0
  4 24  1  0  0  0  0
  5  6  2  0  0  0  0
  5  7  1  0  0  0  0
  7  8  1  0  0  0  0
  8 12  1  0  0  0  0
  8  9  2  0  0  0  0
  9 10  1  0  0  0  0
 10 11  2  0  0  0  0
 11 12  1  0  0  0  0
 11 25  1  0  0  0  0
 13 17  1  0  0  0  0
 13 14  1  0  0  0  0
 13 34  1  0  0  0  0
 14 15  1  0  0  0  0
 14 26  1  0  0  0  0
 14 27  1  0  0  0  0
 15 16  1  0  0  0  0
 15 28  1  0  0  0  0
 15 29  1  0  0  0  0
 16 17  1  0  0  0  0
 16 30  1  0  0  0  0
 16 31  1  0  0  0  0
 17 32  1  0  0  0  0
 17 33  1  0  0  0  0
M  CHG  1   7  -1
M  CHG  1  13   1
M  END
> <s_m_source_file>
AV-unprocessed.smi

> <i_m_source_file_index>
1522

> <i_lp_mmshare_version>
43012

> <i_f3d_flags>
0

> <s_epik_input>
W0NIMl0xW0NIMl1bQ0gyXVtDSDJdTjFbQ0BIXShbQ0gzXSlbQ0gyXVtOSF1DKD1PKVtOSF1jMm5uW2NIXXMy

> <s_epik_cmdline>
J2VwaWtfcHl0aG9uJywgJy1waCcsICc3LjAnLCAnLXRuJywgJzgnLCAnLW1hJywgJzIwMCcsICctbWV0YWxfYmluZGluZycsICctaW1hZScsICc8aW5maWxlLm1hZT4nLCAnLW9tYWUnLCAnPG91dGZpbGUubWFlPic=

> <r_lp_tautomer_probability>
1

> <r_epik_Ionization_Penalty>
3.04208

> <r_epik_Ionization_Penalty_Charging>
3.00964

> <r_epik_Ionization_Penalty_Neutral>
0.0324455

> <r_epik_State_Penalty>
3.0051

> <r_epik_Charging_Adjusted_Penalty>
6.01474

> <i_epik_Tot_Q>
0

> <i_epik_Tot_abs_Q>
2

> <r_epik_Metal_State_Penalty>
0.454155

> <b_epik_Metal_Only>
1

> <s_lp_Force_Field>
OPLS_2005

> <r_lp_Energy>
27.863

> <b_lp_Chiralities_Consistent>
1

> <s_lp_Variant>
AV-unprocessed.smi:1522-3

> <Gold.Version>
5.8.1

> <Gold.Id.Protein>
6NUR|6NUR_protein|mol2

> <Gold.PLP.Fitness>
35.1357

> <Gold.PLP.PLP>
-23.9528

> <Gold.PLP.part.hbond>
-6.0000

> <Gold.PLP.part.metal>
0.0000

> <Gold.PLP.part.buried>
-1.5436

> <Gold.PLP.part.nonpolar>
-16.1717

> <Gold.PLP.part.repulsive>
0.0459

> <Gold.PLP.ligand.clash>
0.0000

> <Gold.PLP.ligand.torsion>
0.4801

> <Gold.PLP.Chemscore.Hbond>
4.0000

> <Gold.PLP.Chemscore.CHOScore>
0.0000

> <Gold.PLP.Chemscore.Metal>
0.0000

> <Gold.Chemscore.Hbonds>
donor molecule, donor type, donor heavy atom, donor atom, acceptor molecule, acceptor atom, score
      L1  H    13    34       P1  7948  2.00
      P1  H  6896  6909       L1     7  1.50

> <Gold.PLP.Chemscore.Internal.Correction>
0.1431

> <Gold.Rescore>
     Score         DG    S(hbond)    S(metal)    S(lipo)     H(rot)  DE(clash)    DE(int)     intcor
     10.29     -12.50       1.85        0.00      44.02       1.68       0.03       2.18       ----

> <Gold.Chemscore.Fitness>
10.2897

> <Gold.Chemscore.DG>
-12.5022

> <Gold.Chemscore.ZeroCoef>
-5.4800

> <Gold.Chemscore.Hbond>
1.8453

> <Gold.Chemscore.Metal>
0.0000

> <Gold.Chemscore.Lipo>
44.0162

> <Gold.Chemscore.Internal_Hbond>
0.0000

> <Gold.Chemscore.DEClash>
0.0309

> <Gold.Chemscore.DEInternal>
2.1816

> <Gold.Chemscore.Rot>
1.6762

> <Gold.Chemscore.Internal.Correction>
   9.000000E+99

> <Gold.Chemscore.Hbonds>
donor molecule, donor type, donor heavy atom, donor atom, acceptor molecule, acceptor atom, score
      L1  H    13    34       P1  7948  0.99
      P1  H  6896  6909       L1     7  0.22

> <Gold.Chemscore.Hbond.Weighted>
-6.1633

> <Gold.Chemscore.Metal.Weighted>
-0.0000

> <Gold.Chemscore.Lipo.Weighted>
-5.1499

> <Gold.Chemscore.Internal_Hbond.Weighted>
0.0000

> <Gold.Chemscore.DEClash.Weighted>
0.0309

> <Gold.Chemscore.DEInternal.Weighted>
2.1816

> <Gold.Chemscore.Rot.Weighted>
4.2910

> <Gold.Chemscore.Internal.Correction.Weighted>
   9.000000E+99

> <Gold.Protein.RotatedTorsions>
[ 6907 6896 6895 6894 ] final   34.07 input  -60.11 | X-H torsion
[ 7974 7965 7964 7962 ] final  -74.72 input  175.53 | X-H torsion
[ 8008 7997 7996 7995 ] final -153.12 input   59.86 | X-H torsion
[ 10167 10162 10161 10158 ] final  154.07 input  -65.29 | X-H torsion
[ 10718 10713 10712 10709 ] final  171.35 input   66.30 | X-H torsion
[ 10763 10752 10751 10750 ] final   49.42 input  -60.55 | X-H torsion
[ 11005 11000 10999 10996 ] final   40.37 input  -57.11 | X-H torsion

> <Gold.Protein.ActiveResidues>
 VAL166  LYS551  ARG553  GLY616  TRP617  ASP618  TYR619  PRO620  LYS621  CYS622 
 ASP623  PHE694  ASN695  SER759  ASP760  ASP761  ALA762  ILE779  LEU786  VAL792 
 PHE793  MET794  SER795  GLU796  ALA797  LYS798  CYS799  TRP800  GLU811  SER814 

> <Gold.Protein.RotatedAtoms>
  152.0973  134.9366  160.0570 H   0  0  0  0  0  0  0  0  0  0  0  0  # atno 6907 bound_to 6896
  152.0594  133.4050  159.4419 H   0  0  0  0  0  0  0  0  0  0  0  0  # atno 6908 bound_to 6896
  150.6838  134.3138  159.4801 H   0  0  0  0  0  0  0  0  0  0  0  0  # atno 6909 bound_to 6896
  145.6354  140.9326  143.1065 H   0  0  0  0  0  0  0  0  0  0  0  0  # atno 7974 bound_to 7965
  155.6658  140.0728  157.2537 H   0  0  0  0  0  0  0  0  0  0  0  0  # atno 8008 bound_to 7997
  154.4133  140.1708  156.1877 H   0  0  0  0  0  0  0  0  0  0  0  0  # atno 8009 bound_to 7997
  155.9658  140.3366  155.6534 H   0  0  0  0  0  0  0  0  0  0  0  0  # atno 8010 bound_to 7997
  139.4824  144.5219  151.7863 H   0  0  0  0  0  0  0  0  0  0  0  0  # atno 10167 bound_to 10162
  156.9949  131.0158  151.2847 H   0  0  0  0  0  0  0  0  0  0  0  0  # atno 10718 bound_to 10713
  152.9787  135.5912  154.4086 H   0  0  0  0  0  0  0  0  0  0  0  0  # atno 10763 bound_to 10752
  154.3724  135.2767  155.2261 H   0  0  0  0  0  0  0  0  0  0  0  0  # atno 10764 bound_to 10752
  154.4210  135.6059  153.6065 H   0  0  0  0  0  0  0  0  0  0  0  0  # atno 10765 bound_to 10752
  140.1937  134.3955  155.8133 H   0  0  0  0  0  0  0  0  0  0  0  0  # atno 11005 bound_to 11000
  144.7178  139.8136  143.7393 LP  0  0  0  0  0  0  0  0  0  0  0  0  # atno 17320 bound_to 7965
  146.1324  139.4362  143.0160 LP  0  0  0  0  0  0  0  0  0  0  0  0  # atno 17321 bound_to 7965
  140.4734  144.1554  150.5921 LP  0  0  0  0  0  0  0  0  0  0  0  0  # atno 17342 bound_to 10162
  140.4357  143.2548  151.9538 LP  0  0  0  0  0  0  0  0  0  0  0  0  # atno 17343 bound_to 10162
  157.5432  130.8133  149.8054 LP  0  0  0  0  0  0  0  0  0  0  0  0  # atno 17370 bound_to 10713
  156.0193  130.3801  150.2012 LP  0  0  0  0  0  0  0  0  0  0  0  0  # atno 17371 bound_to 10713
  141.2227  133.7059  156.8139 LP  0  0  0  0  0  0  0  0  0  0  0  0  # atno 17394 bound_to 11000
  140.2131  134.8813  157.3296 LP  0  0  0  0  0  0  0  0  0  0  0  0  # atno 17395 bound_to 11000

$$$$
