AV-unprocessed.smi:164|AV-procd|sdf|1384|dock2
  -GOLD-   2262019113D 1   1.00000     0.00000
 Structure written by MMmdl.
 53 55  0  0  0  0  0  0  0  0  1 V2000
  151.4154  144.5142  159.5291 C   0  0  0  0  0  0  0  0  0  0  0  0
  152.2416  143.2405  159.5800 C   0  0  0  0  0  0  0  0  0  0  0  0
  153.0502  142.9964  160.7088 C   0  0  0  0  0  0  0  0  0  0  0  0
  153.8316  141.8306  160.7864 C   0  0  0  0  0  0  0  0  0  0  0  0
  153.8043  140.8894  159.7392 C   0  0  0  0  0  0  0  0  0  0  0  0
  154.6594  139.6394  159.8316 C   0  0  0  0  0  0  0  0  0  0  0  0
  152.9823  141.1156  158.6113 C   0  0  0  0  0  0  0  0  0  0  0  0
  152.9532  140.1841  157.6056 O   0  0  0  0  0  0  0  0  0  0  0  0
  151.7414  139.4439  157.5542 C   0  0  0  0  0  0  0  0  0  0  0  0
  151.4526  139.0534  156.0977 C   0  0  2  0  0  0  0  0  0  0  0  0
  151.6059  140.2205  155.3156 O   0  0  0  0  0  0  0  0  0  0  0  0
  150.0165  138.5117  155.9200 C   0  0  0  0  0  0  0  0  0  0  0  0
  149.8404  137.1636  156.4342 N   0  0  0  0  0  0  0  0  0  0  0  0
  148.9843  136.9817  157.5471 C   0  0  0  0  0  0  0  0  0  0  0  0
  148.4147  137.9236  158.1008 O   0  0  0  0  0  0  0  0  0  0  0  0
  148.8242  135.5935  157.9632 C   0  0  0  0  0  0  0  0  0  0  0  0
  148.0070  135.2976  158.9881 F   0  0  0  0  0  0  0  0  0  0  0  0
  149.4699  134.5936  157.3251 C   0  0  0  0  0  0  0  0  0  0  0  0
  150.3318  134.8021  156.2577 N   0  0  0  0  0  0  0  0  0  0  0  0
  150.9843  133.6598  155.4930 C   0  0  1  0  0  0  0  0  0  0  0  0
  151.8106  132.7051  156.3649 C   0  0  0  0  0  0  0  0  0  0  0  0
  150.8386  131.5646  156.6554 C   0  0  0  0  0  0  0  0  0  0  0  0
  149.5573  131.9410  155.9036 C   0  0  0  0  0  0  0  0  0  0  0  0
  149.9817  132.8797  154.9247 O   0  0  0  0  0  0  0  0  0  0  0  0
  150.4989  136.1118  155.7539 C   0  0  0  0  0  0  0  0  0  0  0  0
  151.1904  136.3227  154.7543 O   0  0  0  0  0  0  0  0  0  0  0  0
  152.2132  142.3029  158.5173 C   0  0  0  0  0  0  0  0  0  0  0  0
  151.3618  142.5690  157.2829 C   0  0  0  0  0  0  0  0  0  0  0  0
  151.4296  145.0351  160.4871 H   0  0  0  0  0  0  0  0  0  0  0  0
  150.3756  144.2914  159.2884 H   0  0  0  0  0  0  0  0  0  0  0  0
  151.8103  145.1924  158.7725 H   0  0  0  0  0  0  0  0  0  0  0  0
  153.0794  143.7076  161.5213 H   0  0  0  0  0  0  0  0  0  0  0  0
  154.4517  141.6624  161.6547 H   0  0  0  0  0  0  0  0  0  0  0  0
  155.2321  139.5001  158.9145 H   0  0  0  0  0  0  0  0  0  0  0  0
  154.0336  138.7602  159.9841 H   0  0  0  0  0  0  0  0  0  0  0  0
  155.3650  139.7019  160.6603 H   0  0  0  0  0  0  0  0  0  0  0  0
  151.8004  138.5528  158.1817 H   0  0  0  0  0  0  0  0  0  0  0  0
  150.9294  140.0591  157.9450 H   0  0  0  0  0  0  0  0  0  0  0  0
  152.1931  138.3203  155.7756 H   0  0  0  0  0  0  0  0  0  0  0  0
  151.4364  140.9728  155.8617 H   0  0  0  0  0  0  0  0  0  0  0  0
  149.2919  139.1298  156.4523 H   0  0  0  0  0  0  0  0  0  0  0  0
  149.6822  138.5477  154.8820 H   0  0  0  0  0  0  0  0  0  0  0  0
  149.2772  133.5918  157.6741 H   0  0  0  0  0  0  0  0  0  0  0  0
  151.6028  134.1376  154.7313 H   0  0  0  0  0  0  0  0  0  0  0  0
  152.6416  132.3321  155.7651 H   0  0  0  0  0  0  0  0  0  0  0  0
  152.2325  133.1925  157.2437 H   0  0  0  0  0  0  0  0  0  0  0  0
  151.2428  130.6243  156.2785 H   0  0  0  0  0  0  0  0  0  0  0  0
  150.6515  131.4417  157.7225 H   0  0  0  0  0  0  0  0  0  0  0  0
  149.0752  131.0792  155.4425 H   0  0  0  0  0  0  0  0  0  0  0  0
  148.8354  132.4096  156.5736 H   0  0  0  0  0  0  0  0  0  0  0  0
  151.6376  141.9277  156.4462 H   0  0  0  0  0  0  0  0  0  0  0  0
  151.4770  143.5985  156.9442 H   0  0  0  0  0  0  0  0  0  0  0  0
  150.3094  142.3970  157.5091 H   0  0  0  0  0  0  0  0  0  0  0  0
  1  2  1  0  0  0  0
  1 29  1  0  0  0  0
  1 30  1  0  0  0  0
  1 31  1  0  0  0  0
  2 27  1  0  0  0  0
  2  3  2  0  0  0  0
  3  4  1  0  0  0  0
  3 32  1  0  0  0  0
  4  5  2  0  0  0  0
  4 33  1  0  0  0  0
  5  6  1  0  0  0  0
  5  7  1  0  0  0  0
  6 34  1  0  0  0  0
  6 35  1  0  0  0  0
  6 36  1  0  0  0  0
  7  8  1  0  0  0  0
  7 27  2  0  0  0  0
  8  9  1  0  0  0  0
  9 10  1  0  0  0  0
  9 37  1  0  0  0  0
  9 38  1  0  0  0  0
 10 11  1  0  0  0  0
 10 12  1  0  0  0  0
 10 39  1  0  0  0  0
 11 40  1  0  0  0  0
 12 13  1  0  0  0  0
 12 41  1  0  0  0  0
 12 42  1  0  0  0  0
 13 25  1  0  0  0  0
 13 14  1  0  0  0  0
 14 15  2  0  0  0  0
 14 16  1  0  0  0  0
 16 17  1  0  0  0  0
 16 18  2  0  0  0  0
 18 19  1  0  0  0  0
 18 43  1  0  0  0  0
 19 20  1  0  0  0  0
 19 25  1  0  0  0  0
 20 24  1  0  0  0  0
 20 21  1  0  0  0  0
 20 44  1  0  0  0  0
 21 22  1  0  0  0  0
 21 45  1  0  0  0  0
 21 46  1  0  0  0  0
 22 23  1  0  0  0  0
 22 47  1  0  0  0  0
 22 48  1  0  0  0  0
 23 24  1  0  0  0  0
 23 49  1  0  0  0  0
 23 50  1  0  0  0  0
 25 26  2  0  0  0  0
 27 28  1  0  0  0  0
 28 51  1  0  0  0  0
 28 52  1  0  0  0  0
 28 53  1  0  0  0  0
M  END
> <s_m_source_file>
AV-unprocessed.smi

> <i_m_source_file_index>
164

> <i_lp_mmshare_version>
43012

> <i_f3d_flags>
0

> <s_epik_input>
W0NIM11jMVtjSF1bY0hdYyhbQ0gzXSljKGMxW0NIM10pT1tDSDJdW0NASF0oW09IXSlbQ0gyXW4yYyg9TyljKEYpW2NIXW4oYzI9TylbQ0BASF0zW0NIMl1bQ0gyXVtDSDJdTzM=

> <s_epik_cmdline>
J2VwaWtfcHl0aG9uJywgJy1waCcsICc3LjAnLCAnLXRuJywgJzgnLCAnLW1hJywgJzIwMCcsICctbWV0YWxfYmluZGluZycsICctaW1hZScsICc8aW5maWxlLm1hZT4nLCAnLW9tYWUnLCAnPG91dGZpbGUubWFlPic=

> <r_lp_tautomer_probability>
1

> <r_epik_Ionization_Penalty>
1.45842e-07

> <r_epik_Ionization_Penalty_Charging>
2.86622e-08

> <r_epik_Ionization_Penalty_Neutral>
1.1718e-07

> <r_epik_State_Penalty>
-0

> <r_epik_Charging_Adjusted_Penalty>
2.86622e-08

> <i_epik_Tot_Q>
0

> <i_epik_Tot_abs_Q>
0

> <r_epik_Metal_State_Penalty>
-0

> <b_epik_Metal_Only>
0

> <s_epik_Chemistry_Notes>
This compound contains an acetal/aminal-like group ( X-CH(R)-Y where X, Y are N, S, or O) that may be acid/base labile, releasing an aldehyde.

> <s_lp_Force_Field>
OPLS_2005

> <r_lp_Energy>
42.2677

> <b_lp_Chiralities_Consistent>
1

> <s_lp_Variant>
AV-unprocessed.smi:164-3

> <Gold.Version>
5.8.1

> <Gold.Id.Protein>
6NUR|6NUR_protein|mol2

> <Gold.PLP.Fitness>
50.1824

> <Gold.PLP.PLP>
-42.4344

> <Gold.PLP.part.hbond>
-3.0000

> <Gold.PLP.part.metal>
0.0000

> <Gold.PLP.part.buried>
-6.6034

> <Gold.PLP.part.nonpolar>
-31.8863

> <Gold.PLP.part.repulsive>
0.1886

> <Gold.PLP.ligand.clash>
0.0000

> <Gold.PLP.ligand.torsion>
0.6394

> <Gold.PLP.Chemscore.Hbond>
2.9280

> <Gold.PLP.Chemscore.CHOScore>
0.0000

> <Gold.PLP.Chemscore.Metal>
0.0000

> <Gold.Chemscore.Hbonds>
donor molecule, donor type, donor heavy atom, donor atom, acceptor molecule, acceptor atom, score
      P1  H  7989  7998       L1    11  0.93
      P1  H  7997  8008       L1     8  1.00
      P1  H 10752 10765       L1    26  1.00

> <Gold.PLP.Chemscore.Internal.Correction>
0.2429

> <Gold.Rescore>
     Score         DG    S(hbond)    S(metal)    S(lipo)     H(rot)  DE(clash)    DE(int)     intcor
     17.29     -20.81       2.43        0.00     121.45       2.73       0.07       3.45       ----

> <Gold.Chemscore.Fitness>
17.2852

> <Gold.Chemscore.DG>
-20.8119

> <Gold.Chemscore.ZeroCoef>
-5.4800

> <Gold.Chemscore.Hbond>
2.4295

> <Gold.Chemscore.Metal>
0.0000

> <Gold.Chemscore.Lipo>
121.4530

> <Gold.Chemscore.Internal_Hbond>
0.0000

> <Gold.Chemscore.DEClash>
0.0718

> <Gold.Chemscore.DEInternal>
3.4549

> <Gold.Chemscore.Rot>
2.7315

> <Gold.Chemscore.Internal.Correction>
   9.000000E+99

> <Gold.Chemscore.Hbonds>
donor molecule, donor type, donor heavy atom, donor atom, acceptor molecule, acceptor atom, score
      P1  H  7989  7998       L1    11  0.49
      P1  H  7997  8008       L1     8  0.78
      P1  H 10752 10765       L1    26  0.93

> <Gold.Chemscore.Hbond.Weighted>
-8.1144

> <Gold.Chemscore.Metal.Weighted>
-0.0000

> <Gold.Chemscore.Lipo.Weighted>
-14.2100

> <Gold.Chemscore.Internal_Hbond.Weighted>
0.0000

> <Gold.Chemscore.DEClash.Weighted>
0.0718

> <Gold.Chemscore.DEInternal.Weighted>
3.4549

> <Gold.Chemscore.Rot.Weighted>
6.9925

> <Gold.Chemscore.Internal.Correction.Weighted>
   9.000000E+99

> <Gold.Protein.RotatedTorsions>
[ 6907 6896 6895 6894 ] final -150.62 input  -60.11 | X-H torsion
[ 7974 7965 7964 7962 ] final -147.46 input  175.53 | X-H torsion
[ 8008 7997 7996 7995 ] final  -69.05 input   59.86 | X-H torsion
[ 10167 10162 10161 10158 ] final   16.83 input  -65.29 | X-H torsion
[ 10718 10713 10712 10709 ] final   96.57 input   66.30 | X-H torsion
[ 10763 10752 10751 10750 ] final -170.95 input  -60.55 | X-H torsion
[ 11005 11000 10999 10996 ] final  105.22 input  -57.11 | X-H torsion

> <Gold.Protein.ActiveResidues>
 VAL166  LYS551  ARG553  GLY616  TRP617  ASP618  TYR619  PRO620  LYS621  CYS622 
 ASP623  PHE694  ASN695  SER759  ASP760  ASP761  ALA762  ILE779  LEU786  VAL792 
 PHE793  MET794  SER795  GLU796  ALA797  LYS798  CYS799  TRP800  GLU811  SER814 

> <Gold.Protein.RotatedAtoms>
  151.2012  133.4610  159.2596 H   0  0  0  0  0  0  0  0  0  0  0  0  # atno 6907 bound_to 6896
  151.1067  135.0003  159.8485 H   0  0  0  0  0  0  0  0  0  0  0  0  # atno 6908 bound_to 6896
  152.5447  134.1934  159.8736 H   0  0  0  0  0  0  0  0  0  0  0  0  # atno 6909 bound_to 6896
  144.8092  140.5324  143.5654 H   0  0  0  0  0  0  0  0  0  0  0  0  # atno 7974 bound_to 7965
  154.4911  140.0861  156.7596 H   0  0  0  0  0  0  0  0  0  0  0  0  # atno 8008 bound_to 7997
  155.4229  140.3446  155.4255 H   0  0  0  0  0  0  0  0  0  0  0  0  # atno 8009 bound_to 7997
  156.1331  140.1507  156.9024 H   0  0  0  0  0  0  0  0  0  0  0  0  # atno 8010 bound_to 7997
  140.5769  143.9055  150.6757 H   0  0  0  0  0  0  0  0  0  0  0  0  # atno 10167 bound_to 10162
  157.6925  131.0582  150.4512 H   0  0  0  0  0  0  0  0  0  0  0  0  # atno 10718 bound_to 10713
  154.6359  135.2892  155.0161 H   0  0  0  0  0  0  0  0  0  0  0  0  # atno 10763 bound_to 10752
  154.1305  135.6534  153.4925 H   0  0  0  0  0  0  0  0  0  0  0  0  # atno 10764 bound_to 10752
  153.0302  135.5309  154.7206 H   0  0  0  0  0  0  0  0  0  0  0  0  # atno 10765 bound_to 10752
  139.8800  134.9328  156.5481 H   0  0  0  0  0  0  0  0  0  0  0  0  # atno 11005 bound_to 11000
  145.5365  139.1475  143.3471 LP  0  0  0  0  0  0  0  0  0  0  0  0  # atno 17320 bound_to 7965
  146.2388  140.5505  142.8943 LP  0  0  0  0  0  0  0  0  0  0  0  0  # atno 17321 bound_to 7965
  140.2544  143.3569  152.1377 LP  0  0  0  0  0  0  0  0  0  0  0  0  # atno 17342 bound_to 10162
  139.5148  144.6953  151.5648 LP  0  0  0  0  0  0  0  0  0  0  0  0  # atno 17343 bound_to 10162
  156.4863  130.4085  149.6432 LP  0  0  0  0  0  0  0  0  0  0  0  0  # atno 17370 bound_to 10713
  156.3459  130.7406  151.2359 LP  0  0  0  0  0  0  0  0  0  0  0  0  # atno 17371 bound_to 10713
  140.8260  133.8316  155.8939 LP  0  0  0  0  0  0  0  0  0  0  0  0  # atno 17394 bound_to 11000
  140.9373  134.1945  157.4822 LP  0  0  0  0  0  0  0  0  0  0  0  0  # atno 17395 bound_to 11000

$$$$
