AV-unprocessed.smi:1138|AV-procd|sdf|4868|dock3
  -GOLD-   22720 3433D 1   1.00000     0.00000
 Structure written by MMmdl.
 49 51  0  0  0  0  0  0  0  0  1 V2000
  151.8586  144.2675  157.9620 C   0  0  0  0  0  0  0  0  0  0  0  0
  152.1108  144.3909  159.3942 N   0  0  0  0  0  0  0  0  0  0  0  0
  151.6111  145.5538  160.1176 C   0  0  0  0  0  0  0  0  0  0  0  0
  152.6643  143.3008  160.1045 C   0  0  0  0  0  0  0  0  0  0  0  0
  152.9110  142.0560  159.4740 C   0  0  0  0  0  0  0  0  0  0  0  0
  153.4706  141.0043  160.2239 C   0  0  0  0  0  0  0  0  0  0  0  0
  153.7813  141.2127  161.5810 C   0  0  0  0  0  0  0  0  0  0  0  0
  154.3358  140.1293  162.3144 N   0  0  0  0  0  0  0  0  0  0  0  0
  154.2842  138.8164  162.0308 C   0  0  0  0  0  0  0  0  0  0  0  0
  153.7246  138.3203  161.0531 O   0  0  0  0  0  0  0  0  0  0  0  0
  154.9106  138.0928  162.9696 N   0  0  0  0  0  0  0  0  0  0  0  0
  155.0138  136.6364  162.9796 C   0  0  0  0  0  0  0  0  0  0  0  0
  153.6357  136.0191  163.3001 C   0  0  0  0  0  0  0  0  0  0  0  0
  153.7363  134.4958  163.4994 C   0  0  0  0  0  0  0  0  0  0  0  0
  154.7192  134.2219  164.5553 N   0  0  0  0  0  0  0  0  0  0  0  0
  154.3690  133.7267  165.7689 C   0  0  0  0  0  0  0  0  0  0  0  0
  155.1822  133.6011  166.6859 O   0  0  0  0  0  0  0  0  0  0  0  0
  152.9414  133.3091  165.9505 C   0  0  0  0  0  0  0  0  0  0  0  0
  152.6984  131.8902  166.4208 C   0  0  0  0  0  0  0  0  0  0  0  0
  152.3657  132.2721  165.0026 C   0  0  0  0  0  0  0  0  0  0  0  0
  156.0682  134.6393  164.1477 C   0  0  0  0  0  0  0  0  0  0  0  0
  156.0883  136.1697  163.9884 C   0  0  0  0  0  0  0  0  0  0  0  0
  153.4847  142.4811  162.1320 C   0  0  0  0  0  0  0  0  0  0  0  0
  152.9463  143.4912  161.4168 N   0  0  0  0  0  0  0  0  0  0  0  0
  152.7819  144.0442  157.4266 H   0  0  0  0  0  0  0  0  0  0  0  0
  151.4510  145.1899  157.5487 H   0  0  0  0  0  0  0  0  0  0  0  0
  151.1431  143.4675  157.7675 H   0  0  0  0  0  0  0  0  0  0  0  0
  152.4261  146.0659  160.6299 H   0  0  0  0  0  0  0  0  0  0  0  0
  150.8651  145.2559  160.8550 H   0  0  0  0  0  0  0  0  0  0  0  0
  151.1426  146.2697  159.4420 H   0  0  0  0  0  0  0  0  0  0  0  0
  152.6829  141.8860  158.4328 H   0  0  0  0  0  0  0  0  0  0  0  0
  153.6635  140.0501  159.7554 H   0  0  0  0  0  0  0  0  0  0  0  0
  154.7645  140.3770  163.1942 H   0  0  0  0  0  0  0  0  0  0  0  0
  155.3395  138.5833  163.7406 H   0  0  0  0  0  0  0  0  0  0  0  0
  155.3038  136.2918  161.9850 H   0  0  0  0  0  0  0  0  0  0  0  0
  153.2295  136.4701  164.2070 H   0  0  0  0  0  0  0  0  0  0  0  0
  152.9294  136.2437  162.5001 H   0  0  0  0  0  0  0  0  0  0  0  0
  152.7489  134.0878  163.7197 H   0  0  0  0  0  0  0  0  0  0  0  0
  154.0543  134.0150  162.5731 H   0  0  0  0  0  0  0  0  0  0  0  0
  152.2473  134.0800  166.2804 H   0  0  0  0  0  0  0  0  0  0  0  0
  153.5622  131.2455  166.5760 H   0  0  0  0  0  0  0  0  0  0  0  0
  151.8769  131.7354  167.1169 H   0  0  0  0  0  0  0  0  0  0  0  0
  151.3157  132.3762  164.7366 H   0  0  0  0  0  0  0  0  0  0  0  0
  152.9967  131.8572  164.2188 H   0  0  0  0  0  0  0  0  0  0  0  0
  156.8551  134.3198  164.8295 H   0  0  0  0  0  0  0  0  0  0  0  0
  156.3135  134.1680  163.1948 H   0  0  0  0  0  0  0  0  0  0  0  0
  157.0772  136.4948  163.6630 H   0  0  0  0  0  0  0  0  0  0  0  0
  155.9136  136.6343  164.9603 H   0  0  0  0  0  0  0  0  0  0  0  0
  153.6563  142.7088  163.1722 H   0  0  0  0  0  0  0  0  0  0  0  0
  1  2  1  0  0  0  0
  1 25  1  0  0  0  0
  1 26  1  0  0  0  0
  1 27  1  0  0  0  0
  2  3  1  0  0  0  0
  2  4  1  0  0  0  0
  3 28  1  0  0  0  0
  3 29  1  0  0  0  0
  3 30  1  0  0  0  0
  4 24  1  0  0  0  0
  4  5  2  0  0  0  0
  5  6  1  0  0  0  0
  5 31  1  0  0  0  0
  6  7  2  0  0  0  0
  6 32  1  0  0  0  0
  7  8  1  0  0  0  0
  7 23  1  0  0  0  0
  8  9  1  0  0  0  0
  8 33  1  0  0  0  0
  9 10  2  0  0  0  0
  9 11  1  0  0  0  0
 11 12  1  0  0  0  0
 11 34  1  0  0  0  0
 12 22  1  0  0  0  0
 12 13  1  0  0  0  0
 12 35  1  0  0  0  0
 13 14  1  0  0  0  0
 13 36  1  0  0  0  0
 13 37  1  0  0  0  0
 14 15  1  0  0  0  0
 14 38  1  0  0  0  0
 14 39  1  0  0  0  0
 15 16  1  0  0  0  0
 15 21  1  0  0  0  0
 16 17  2  0  0  0  0
 16 18  1  0  0  0  0
 18 20  1  0  0  0  0
 18 19  1  0  0  0  0
 18 40  1  0  0  0  0
 19 20  1  0  0  0  0
 19 41  1  0  0  0  0
 19 42  1  0  0  0  0
 20 43  1  0  0  0  0
 20 44  1  0  0  0  0
 21 22  1  0  0  0  0
 21 45  1  0  0  0  0
 21 46  1  0  0  0  0
 22 47  1  0  0  0  0
 22 48  1  0  0  0  0
 23 24  2  0  0  0  0
 23 49  1  0  0  0  0
M  END
> <s_m_source_file>
AV-unprocessed.smi

> <i_m_source_file_index>
1138

> <i_lp_mmshare_version>
43012

> <i_f3d_flags>
0

> <s_epik_input>
W0NIM11OKFtDSDNdKWMxW2NIXVtjSF1jKFtjSF1uMSlbTkhdQyg9TylbTkhdW0NIXTJbQ0gyXVtDSDJdTihbQ0gyXVtDSDJdMilDKD1PKVtDSF0zW0NIMl1bQ0gyXTM=

> <s_epik_cmdline>
J2VwaWtfcHl0aG9uJywgJy1waCcsICc3LjAnLCAnLXRuJywgJzgnLCAnLW1hJywgJzIwMCcsICctbWV0YWxfYmluZGluZycsICctaW1hZScsICc8aW5maWxlLm1hZT4nLCAnLW9tYWUnLCAnPG91dGZpbGUubWFlPic=

> <r_lp_tautomer_probability>
1

> <r_epik_Ionization_Penalty>
0.622325

> <r_epik_Ionization_Penalty_Charging>
0

> <r_epik_Ionization_Penalty_Neutral>
0.622325

> <r_epik_State_Penalty>
0.637335

> <r_epik_Charging_Adjusted_Penalty>
0.637335

> <i_epik_Tot_Q>
0

> <i_epik_Tot_abs_Q>
0

> <r_epik_Metal_State_Penalty>
0.306682

> <b_epik_Metal_Only>
0

> <s_lp_Force_Field>
OPLS_2005

> <r_lp_Energy>
33.2088

> <b_lp_Chiralities_Consistent>
1

> <s_lp_Variant>
AV-unprocessed.smi:1138-2

> <Gold.Version>
5.8.1

> <Gold.Id.Protein>
6NUR|6NUR_protein|mol2

> <Gold.PLP.Fitness>
49.1513

> <Gold.PLP.PLP>
-49.6764

> <Gold.PLP.part.hbond>
0.0000

> <Gold.PLP.part.metal>
0.0000

> <Gold.PLP.part.buried>
-5.7220

> <Gold.PLP.part.nonpolar>
-44.8151

> <Gold.PLP.part.repulsive>
0.6432

> <Gold.PLP.ligand.clash>
0.0000

> <Gold.PLP.ligand.torsion>
0.3287

> <Gold.PLP.Chemscore.Hbond>
0.0000

> <Gold.PLP.Chemscore.CHOScore>
0.0000

> <Gold.PLP.Chemscore.Metal>
0.0000

> <Gold.PLP.Chemscore.Internal.Correction>
0.1322

> <Gold.Rescore>
     Score         DG    S(hbond)    S(metal)    S(lipo)     H(rot)  DE(clash)    DE(int)     intcor
     13.44     -15.09       0.00        0.00     108.36       1.20       0.03       1.63       ----

> <Gold.Chemscore.Fitness>
13.4359

> <Gold.Chemscore.DG>
-15.0940

> <Gold.Chemscore.ZeroCoef>
-5.4800

> <Gold.Chemscore.Hbond>
0.0000

> <Gold.Chemscore.Metal>
0.0000

> <Gold.Chemscore.Lipo>
108.3602

> <Gold.Chemscore.Internal_Hbond>
0.0000

> <Gold.Chemscore.DEClash>
0.0291

> <Gold.Chemscore.DEInternal>
1.6290

> <Gold.Chemscore.Rot>
1.1969

> <Gold.Chemscore.Internal.Correction>
   9.000000E+99

> <Gold.Chemscore.Hbond.Weighted>
-0.0000

> <Gold.Chemscore.Metal.Weighted>
-0.0000

> <Gold.Chemscore.Lipo.Weighted>
-12.6781

> <Gold.Chemscore.Internal_Hbond.Weighted>
0.0000

> <Gold.Chemscore.DEClash.Weighted>
0.0291

> <Gold.Chemscore.DEInternal.Weighted>
1.6290

> <Gold.Chemscore.Rot.Weighted>
3.0641

> <Gold.Chemscore.Internal.Correction.Weighted>
   9.000000E+99

> <Gold.Protein.RotatedTorsions>
[ 6907 6896 6895 6894 ] final    1.92 input  -60.11 | X-H torsion
[ 7974 7965 7964 7962 ] final   -6.74 input  175.53 | X-H torsion
[ 8008 7997 7996 7995 ] final  -24.17 input   59.86 | X-H torsion
[ 10167 10162 10161 10158 ] final   61.50 input  -65.29 | X-H torsion
[ 10718 10713 10712 10709 ] final   31.34 input   66.30 | X-H torsion
[ 10763 10752 10751 10750 ] final -132.36 input  -60.55 | X-H torsion
[ 11005 11000 10999 10996 ] final  -39.39 input  -57.11 | X-H torsion

> <Gold.Protein.ActiveResidues>
 VAL166  LYS551  ARG553  GLY616  TRP617  ASP618  TYR619  PRO620  LYS621  CYS622 
 ASP623  PHE694  ASN695  SER759  ASP760  ASP761  ALA762  ILE779  LEU786  VAL792 
 PHE793  MET794  SER795  GLU796  ALA797  LYS798  CYS799  TRP800  GLU811  SER814 

> <Gold.Protein.RotatedAtoms>
  151.6005  135.1047  160.0058 H   0  0  0  0  0  0  0  0  0  0  0  0  # atno 6907 bound_to 6896
  152.4260  133.7192  159.6534 H   0  0  0  0  0  0  0  0  0  0  0  0  # atno 6908 bound_to 6896
  150.8149  133.8283  159.3187 H   0  0  0  0  0  0  0  0  0  0  0  0  # atno 6909 bound_to 6896
  146.2324  140.2215  142.8337 H   0  0  0  0  0  0  0  0  0  0  0  0  # atno 7974 bound_to 7965
  154.4544  140.1961  156.0423 H   0  0  0  0  0  0  0  0  0  0  0  0  # atno 8008 bound_to 7997
  156.0716  140.3284  155.7554 H   0  0  0  0  0  0  0  0  0  0  0  0  # atno 8009 bound_to 7997
  155.5255  140.0573  157.2889 H   0  0  0  0  0  0  0  0  0  0  0  0  # atno 8010 bound_to 7997
  140.1541  144.4434  150.6744 H   0  0  0  0  0  0  0  0  0  0  0  0  # atno 10167 bound_to 10162
  157.2712  130.7209  149.6505 H   0  0  0  0  0  0  0  0  0  0  0  0  # atno 10718 bound_to 10713
  154.8743  135.3800  154.4397 H   0  0  0  0  0  0  0  0  0  0  0  0  # atno 10763 bound_to 10752
  153.5083  135.7030  153.5799 H   0  0  0  0  0  0  0  0  0  0  0  0  # atno 10764 bound_to 10752
  153.4100  135.3927  155.2010 H   0  0  0  0  0  0  0  0  0  0  0  0  # atno 10765 bound_to 10752
  141.0098  133.6913  156.2180 H   0  0  0  0  0  0  0  0  0  0  0  0  # atno 11005 bound_to 11000
  144.9628  140.8292  143.5503 LP  0  0  0  0  0  0  0  0  0  0  0  0  # atno 17320 bound_to 7965
  145.2188  139.2169  143.5104 LP  0  0  0  0  0  0  0  0  0  0  0  0  # atno 17321 bound_to 7965
  140.6684  143.2276  151.5685 LP  0  0  0  0  0  0  0  0  0  0  0  0  # atno 17342 bound_to 10162
  139.5412  144.2643  152.1354 LP  0  0  0  0  0  0  0  0  0  0  0  0  # atno 17343 bound_to 10162
  155.9663  130.4367  150.5144 LP  0  0  0  0  0  0  0  0  0  0  0  0  # atno 17370 bound_to 10713
  157.3069  131.0656  151.2029 LP  0  0  0  0  0  0  0  0  0  0  0  0  # atno 17371 bound_to 10713
  140.6752  134.4825  157.5588 LP  0  0  0  0  0  0  0  0  0  0  0  0  # atno 17394 bound_to 11000
  139.9083  134.8399  156.1621 LP  0  0  0  0  0  0  0  0  0  0  0  0  # atno 17395 bound_to 11000

$$$$
