AV-unprocessed.smi:3106|AV-procd|sdf|11823|dock1
  -GOLD-   2272017193D 1   1.00000     0.00000
 Structure written by MMmdl.
 29 30  0  0  0  0  0  0  0  0  1 V2000
  153.7345  142.8697  163.3068 C   0  0  0  0  0  0  0  0  0  0  0  0
  153.1417  142.6731  161.9275 C   0  0  0  0  0  0  0  0  0  0  0  0
  152.3561  143.6751  161.3274 C   0  0  0  0  0  0  0  0  0  0  0  0
  151.8292  143.4452  160.0419 C   0  0  0  0  0  0  0  0  0  0  0  0
  152.0995  142.2224  159.3873 C   0  0  0  0  0  0  0  0  0  0  0  0
  151.5209  142.0911  158.0974 N   0  0  0  0  0  0  0  0  0  0  0  0
  151.7213  141.1221  157.1836 C   0  0  0  0  0  0  0  0  0  0  0  0
  152.4595  140.1505  157.3497 O   0  0  0  0  0  0  0  0  0  0  0  0
  150.9400  141.2613  155.8694 C   0  0  2  0  0  0  0  0  0  0  0  0
  149.4202  141.3308  156.0449 C   0  0  0  0  0  0  0  0  0  0  0  0
  148.9345  140.8067  154.7125 C   0  0  0  0  0  0  0  0  0  0  0  0
  149.9535  139.7123  154.4132 C   0  0  0  0  0  0  0  0  0  0  0  0
  151.1688  140.1264  155.0321 O   0  0  0  0  0  0  0  0  0  0  0  0
  152.8594  141.2637  159.9734 N   0  0  0  0  0  0  0  0  0  0  0  0
  153.3643  141.4847  161.2052 C   0  0  0  0  0  0  0  0  0  0  0  0
  153.0842  143.4918  163.9226 H   0  0  0  0  0  0  0  0  0  0  0  0
  154.7071  143.3564  163.2319 H   0  0  0  0  0  0  0  0  0  0  0  0
  153.8658  141.9128  163.8127 H   0  0  0  0  0  0  0  0  0  0  0  0
  152.1588  144.6049  161.8405 H   0  0  0  0  0  0  0  0  0  0  0  0
  151.2238  144.2035  159.5670 H   0  0  0  0  0  0  0  0  0  0  0  0
  150.8834  142.8262  157.8285 H   0  0  0  0  0  0  0  0  0  0  0  0
  151.2898  142.1472  155.3374 H   0  0  0  0  0  0  0  0  0  0  0  0
  149.0825  140.6758  156.8503 H   0  0  0  0  0  0  0  0  0  0  0  0
  149.0640  142.3404  156.2516 H   0  0  0  0  0  0  0  0  0  0  0  0
  147.9086  140.4386  154.7423 H   0  0  0  0  0  0  0  0  0  0  0  0
  148.9950  141.5929  153.9586 H   0  0  0  0  0  0  0  0  0  0  0  0
  149.6413  138.7694  154.8640 H   0  0  0  0  0  0  0  0  0  0  0  0
  150.0860  139.5486  153.3434 H   0  0  0  0  0  0  0  0  0  0  0  0
  153.9630  140.6892  161.6240 H   0  0  0  0  0  0  0  0  0  0  0  0
  1  2  1  0  0  0  0
  1 16  1  0  0  0  0
  1 17  1  0  0  0  0
  1 18  1  0  0  0  0
  2 15  1  0  0  0  0
  2  3  2  0  0  0  0
  3  4  1  0  0  0  0
  3 19  1  0  0  0  0
  4  5  2  0  0  0  0
  4 20  1  0  0  0  0
  5  6  1  0  0  0  0
  5 14  1  0  0  0  0
  6  7  1  0  0  0  0
  6 21  1  0  0  0  0
  7  8  2  0  0  0  0
  7  9  1  0  0  0  0
  9 13  1  0  0  0  0
  9 10  1  0  0  0  0
  9 22  1  0  0  0  0
 10 11  1  0  0  0  0
 10 23  1  0  0  0  0
 10 24  1  0  0  0  0
 11 12  1  0  0  0  0
 11 25  1  0  0  0  0
 11 26  1  0  0  0  0
 12 13  1  0  0  0  0
 12 27  1  0  0  0  0
 12 28  1  0  0  0  0
 14 15  2  0  0  0  0
 15 29  1  0  0  0  0
M  END
> <s_m_source_file>
AV-unprocessed.smi

> <i_m_source_file_index>
3106

> <i_lp_mmshare_version>
43012

> <i_f3d_flags>
0

> <s_epik_input>
W0NIM11jMVtjSF1bY0hdYyhuW2NIXTEpW05IXUMoPU8pW0NAQEhdMltDSDJdW0NIMl1bQ0gyXU8y

> <s_epik_cmdline>
J2VwaWtfcHl0aG9uJywgJy1waCcsICc3LjAnLCAnLXRuJywgJzgnLCAnLW1hJywgJzIwMCcsICctbWV0YWxfYmluZGluZycsICctaW1hZScsICc8aW5maWxlLm1hZT4nLCAnLW9tYWUnLCAnPG91dGZpbGUubWFlPic=

> <r_epik_Ionization_Penalty>
0.00356606

> <r_epik_Ionization_Penalty_Charging>
0

> <r_epik_Ionization_Penalty_Neutral>
0.00356606

> <r_epik_State_Penalty>
0.00372088

> <r_epik_Charging_Adjusted_Penalty>
0.00372088

> <i_epik_Tot_Q>
0

> <i_epik_Tot_abs_Q>
0

> <r_epik_Metal_State_Penalty>
-0

> <b_epik_Metal_Only>
0

> <s_lp_Force_Field>
OPLS_2005

> <r_lp_Energy>
20.8335

> <b_lp_Chiralities_Consistent>
1

> <s_lp_Variant>
AV-unprocessed.smi:3106-1

> <Gold.Version>
5.8.1

> <Gold.Id.Protein>
6NUR|6NUR_protein|mol2

> <Gold.PLP.Fitness>
40.3846

> <Gold.PLP.PLP>
-36.3932

> <Gold.PLP.part.hbond>
-2.0000

> <Gold.PLP.part.metal>
0.0000

> <Gold.PLP.part.buried>
-4.8031

> <Gold.PLP.part.nonpolar>
-27.8871

> <Gold.PLP.part.repulsive>
0.1017

> <Gold.PLP.ligand.clash>
0.0000

> <Gold.PLP.ligand.torsion>
0.0316

> <Gold.PLP.Chemscore.Hbond>
1.3500

> <Gold.PLP.Chemscore.CHOScore>
0.0000

> <Gold.PLP.Chemscore.Metal>
0.0000

> <Gold.Chemscore.Hbonds>
donor molecule, donor type, donor heavy atom, donor atom, acceptor molecule, acceptor atom, score
      P1  H  7989  7998       L1    13  0.45
      P1  H  7997  8009       L1     8  0.89

> <Gold.PLP.Chemscore.Internal.Correction>
0.0047

> <Gold.Rescore>
     Score         DG    S(hbond)    S(metal)    S(lipo)     H(rot)  DE(clash)    DE(int)     intcor
     14.62     -15.94       0.94        0.00      84.34       1.00       0.02       1.30       ----

> <Gold.Chemscore.Fitness>
14.6233

> <Gold.Chemscore.DG>
-15.9404

> <Gold.Chemscore.ZeroCoef>
-5.4800

> <Gold.Chemscore.Hbond>
0.9438

> <Gold.Chemscore.Metal>
0.0000

> <Gold.Chemscore.Lipo>
84.3431

> <Gold.Chemscore.Internal_Hbond>
0.0000

> <Gold.Chemscore.DEClash>
0.0174

> <Gold.Chemscore.DEInternal>
1.2997

> <Gold.Chemscore.Rot>
1.0000

> <Gold.Chemscore.Internal.Correction>
   9.000000E+99

> <Gold.Chemscore.Hbonds>
donor molecule, donor type, donor heavy atom, donor atom, acceptor molecule, acceptor atom, score
      P1  H  7989  7998       L1    13  0.01
      P1  H  7997  8009       L1     8  0.82

> <Gold.Chemscore.Hbond.Weighted>
-3.1522

> <Gold.Chemscore.Metal.Weighted>
-0.0000

> <Gold.Chemscore.Lipo.Weighted>
-9.8681

> <Gold.Chemscore.Internal_Hbond.Weighted>
0.0000

> <Gold.Chemscore.DEClash.Weighted>
0.0174

> <Gold.Chemscore.DEInternal.Weighted>
1.2997

> <Gold.Chemscore.Rot.Weighted>
2.5600

> <Gold.Chemscore.Internal.Correction.Weighted>
   9.000000E+99

> <Gold.Protein.RotatedTorsions>
[ 6907 6896 6895 6894 ] final -110.60 input  -60.11 | X-H torsion
[ 7974 7965 7964 7962 ] final  -13.47 input  175.53 | X-H torsion
[ 8008 7997 7996 7995 ] final  166.38 input   59.86 | X-H torsion
[ 10167 10162 10161 10158 ] final -147.90 input  -65.29 | X-H torsion
[ 10718 10713 10712 10709 ] final  107.33 input   66.30 | X-H torsion
[ 10763 10752 10751 10750 ] final -178.77 input  -60.55 | X-H torsion
[ 11005 11000 10999 10996 ] final  -40.31 input  -57.11 | X-H torsion

> <Gold.Protein.ActiveResidues>
 VAL166  LYS551  ARG553  GLY616  TRP617  ASP618  TYR619  PRO620  LYS621  CYS622 
 ASP623  PHE694  ASN695  SER759  ASP760  ASP761  ALA762  ILE779  LEU786  VAL792 
 PHE793  MET794  SER795  GLU796  ALA797  LYS798  CYS799  TRP800  GLU811  SER814 

> <Gold.Protein.RotatedAtoms>
  150.7635  133.9358  159.3440 H   0  0  0  0  0  0  0  0  0  0  0  0  # atno 6907 bound_to 6896
  151.7261  135.0882  160.0302 H   0  0  0  0  0  0  0  0  0  0  0  0  # atno 6908 bound_to 6896
  152.3619  133.6270  159.6057 H   0  0  0  0  0  0  0  0  0  0  0  0  # atno 6909 bound_to 6896
  146.2113  140.3208  142.8390 H   0  0  0  0  0  0  0  0  0  0  0  0  # atno 7974 bound_to 7965
  156.1723  140.1645  156.8424 H   0  0  0  0  0  0  0  0  0  0  0  0  # atno 8008 bound_to 7997
  154.5270  140.0765  156.8311 H   0  0  0  0  0  0  0  0  0  0  0  0  # atno 8009 bound_to 7997
  155.3486  140.3388  155.4241 H   0  0  0  0  0  0  0  0  0  0  0  0  # atno 8010 bound_to 7997
  139.7580  143.8419  152.2601 H   0  0  0  0  0  0  0  0  0  0  0  0  # atno 10167 bound_to 10162
  157.6633  131.0870  150.6139 H   0  0  0  0  0  0  0  0  0  0  0  0  # atno 10718 bound_to 10713
  154.5435  135.2808  155.1074 H   0  0  0  0  0  0  0  0  0  0  0  0  # atno 10763 bound_to 10752
  154.2547  135.6333  153.5256 H   0  0  0  0  0  0  0  0  0  0  0  0  # atno 10764 bound_to 10752
  152.9985  135.5591  154.5981 H   0  0  0  0  0  0  0  0  0  0  0  0  # atno 10765 bound_to 10752
  141.0166  133.6882  156.2305 H   0  0  0  0  0  0  0  0  0  0  0  0  # atno 11005 bound_to 11000
  144.8921  140.7537  143.5920 LP  0  0  0  0  0  0  0  0  0  0  0  0  # atno 17320 bound_to 7965
  145.3131  139.1812  143.4628 LP  0  0  0  0  0  0  0  0  0  0  0  0  # atno 17321 bound_to 7965
  139.8417  144.7207  150.9323 LP  0  0  0  0  0  0  0  0  0  0  0  0  # atno 17342 bound_to 10162
  140.7804  143.3977  151.1201 LP  0  0  0  0  0  0  0  0  0  0  0  0  # atno 17343 bound_to 10162
  156.6441  130.4467  149.5742 LP  0  0  0  0  0  0  0  0  0  0  0  0  # atno 17370 bound_to 10713
  156.2187  130.6723  151.1345 LP  0  0  0  0  0  0  0  0  0  0  0  0  # atno 17371 bound_to 10713
  140.6645  134.4933  157.5585 LP  0  0  0  0  0  0  0  0  0  0  0  0  # atno 17394 bound_to 11000
  139.9120  134.8324  156.1494 LP  0  0  0  0  0  0  0  0  0  0  0  0  # atno 17395 bound_to 11000

$$$$
