AV-unprocessed.smi:877|AV-procd|sdf|4028|dock2
  -GOLD-   22720 1523D 1   1.00000     0.00000
 Structure written by MMmdl.
 43 45  0  0  0  0  0  0  0  0  1 V2000
  143.7065  142.0645  156.4812 C   0  0  0  0  0  0  0  0  0  0  0  0
  144.4656  142.6808  155.4513 O   0  0  0  0  0  0  0  0  0  0  0  0
  145.7953  142.3377  155.3324 C   0  0  0  0  0  0  0  0  0  0  0  0
  146.5212  142.3722  154.1149 C   0  0  0  0  0  0  0  0  0  0  0  0
  147.8799  142.0029  154.0839 C   0  0  0  0  0  0  0  0  0  0  0  0
  148.5332  141.5944  155.2637 C   0  0  0  0  0  0  0  0  0  0  0  0
  149.9976  141.1920  155.2208 C   0  0  0  0  0  0  0  0  0  0  0  0
  150.7655  141.5748  156.4573 C   0  0  0  0  0  0  0  0  0  0  0  0
  150.8064  142.8302  156.9110 N   0  0  0  0  0  0  0  0  0  0  0  0
  151.6047  142.7284  158.0321 C   0  0  0  0  0  0  0  0  0  0  0  0
  152.0217  143.7130  158.9559 C   0  0  0  0  0  0  0  0  0  0  0  0
  152.8528  143.3671  160.0415 C   0  0  0  0  0  0  0  0  0  0  0  0
  153.2791  142.0346  160.2174 C   0  0  0  0  0  0  0  0  0  0  0  0
  152.8751  141.0385  159.3076 C   0  0  0  0  0  0  0  0  0  0  0  0
  152.0441  141.3894  158.2267 C   0  0  0  0  0  0  0  0  0  0  0  0
  151.4797  140.6707  157.1776 N   0  0  0  0  0  0  0  0  0  0  0  0
  151.6508  139.2426  156.9422 C   0  0  0  0  0  0  0  0  0  0  0  0
  152.0400  138.9265  155.4838 C   0  0  1  0  0  0  0  0  0  0  0  0
  153.4480  138.8433  155.3777 O   0  0  0  0  0  0  0  0  0  0  0  0
  151.4328  137.5971  155.0056 C   0  0  0  0  0  0  0  0  0  0  0  0
  152.1299  137.1214  153.8729 O   0  0  0  0  0  0  0  0  0  0  0  0
  147.8177  141.5586  156.4774 C   0  0  0  0  0  0  0  0  0  0  0  0
  146.4593  141.9278  156.5070 C   0  0  0  0  0  0  0  0  0  0  0  0
  142.6823  142.4354  156.4445 H   0  0  0  0  0  0  0  0  0  0  0  0
  144.1066  142.3004  157.4683 H   0  0  0  0  0  0  0  0  0  0  0  0
  143.6700  140.9816  156.3547 H   0  0  0  0  0  0  0  0  0  0  0  0
  146.0583  142.6771  153.1889 H   0  0  0  0  0  0  0  0  0  0  0  0
  148.4202  142.0304  153.1487 H   0  0  0  0  0  0  0  0  0  0  0  0
  150.0342  140.1142  155.0687 H   0  0  0  0  0  0  0  0  0  0  0  0
  150.4822  141.6457  154.3558 H   0  0  0  0  0  0  0  0  0  0  0  0
  151.7011  144.7364  158.8288 H   0  0  0  0  0  0  0  0  0  0  0  0
  153.1649  144.1278  160.7417 H   0  0  0  0  0  0  0  0  0  0  0  0
  153.9161  141.7778  161.0510 H   0  0  0  0  0  0  0  0  0  0  0  0
  153.1987  140.0167  159.4396 H   0  0  0  0  0  0  0  0  0  0  0  0
  152.3810  138.8355  157.6413 H   0  0  0  0  0  0  0  0  0  0  0  0
  150.7078  138.7508  157.1840 H   0  0  0  0  0  0  0  0  0  0  0  0
  151.6923  139.7388  154.8435 H   0  0  0  0  0  0  0  0  0  0  0  0
  153.6833  138.9608  154.4698 H   0  0  0  0  0  0  0  0  0  0  0  0
  151.4423  136.8457  155.7965 H   0  0  0  0  0  0  0  0  0  0  0  0
  150.3924  137.7425  154.7128 H   0  0  0  0  0  0  0  0  0  0  0  0
  151.5004  136.8985  153.2041 H   0  0  0  0  0  0  0  0  0  0  0  0
  148.3064  141.2428  157.3877 H   0  0  0  0  0  0  0  0  0  0  0  0
  145.9204  141.8947  157.4427 H   0  0  0  0  0  0  0  0  0  0  0  0
  1  2  1  0  0  0  0
  1 24  1  0  0  0  0
  1 25  1  0  0  0  0
  1 26  1  0  0  0  0
  2  3  1  0  0  0  0
  3 23  1  0  0  0  0
  3  4  2  0  0  0  0
  4  5  1  0  0  0  0
  4 27  1  0  0  0  0
  5  6  2  0  0  0  0
  5 28  1  0  0  0  0
  6  7  1  0  0  0  0
  6 22  1  0  0  0  0
  7  8  1  0  0  0  0
  7 29  1  0  0  0  0
  7 30  1  0  0  0  0
  8 16  1  0  0  0  0
  8  9  2  0  0  0  0
  9 10  1  0  0  0  0
 10 15  2  0  0  0  0
 10 11  1  0  0  0  0
 11 12  2  0  0  0  0
 11 31  1  0  0  0  0
 12 13  1  0  0  0  0
 12 32  1  0  0  0  0
 13 14  2  0  0  0  0
 13 33  1  0  0  0  0
 14 15  1  0  0  0  0
 14 34  1  0  0  0  0
 15 16  1  0  0  0  0
 16 17  1  0  0  0  0
 17 18  1  0  0  0  0
 17 35  1  0  0  0  0
 17 36  1  0  0  0  0
 18 19  1  0  0  0  0
 18 20  1  0  0  0  0
 18 37  1  0  0  0  0
 19 38  1  0  0  0  0
 20 21  1  0  0  0  0
 20 39  1  0  0  0  0
 20 40  1  0  0  0  0
 21 41  1  0  0  0  0
 22 23  2  0  0  0  0
 22 42  1  0  0  0  0
 23 43  1  0  0  0  0
M  END
> <s_m_source_file>
AV-unprocessed.smi

> <i_m_source_file_index>
877

> <i_lp_mmshare_version>
43012

> <i_f3d_flags>
0

> <s_epik_input>
W0NIM11PYzFbY0hdW2NIXWMoW2NIXVtjSF0xKVtDSDJdYyhuMiluKFtDSDJdW0NASF0oW09IXSlbQ0gyXVtPSF0pYyhjMjMpW2NIXVtjSF1bY0hdW2NIXTM=

> <s_epik_cmdline>
J2VwaWtfcHl0aG9uJywgJy1waCcsICc3LjAnLCAnLXRuJywgJzgnLCAnLW1hJywgJzIwMCcsICctbWV0YWxfYmluZGluZycsICctaW1hZScsICc8aW5maWxlLm1hZT4nLCAnLW9tYWUnLCAnPG91dGZpbGUubWFlPic=

> <r_lp_tautomer_probability>
1

> <r_epik_Ionization_Penalty>
0.0616669

> <r_epik_Ionization_Penalty_Charging>
0

> <r_epik_Ionization_Penalty_Neutral>
0.0616669

> <r_epik_State_Penalty>
0.0535415

> <r_epik_Charging_Adjusted_Penalty>
0.0535415

> <i_epik_Tot_Q>
0

> <i_epik_Tot_abs_Q>
0

> <r_epik_Metal_State_Penalty>
5.60326e-05

> <b_epik_Metal_Only>
0

> <s_lp_Force_Field>
OPLS_2005

> <r_lp_Energy>
19.9882

> <b_lp_Chiralities_Consistent>
1

> <s_lp_Variant>
AV-unprocessed.smi:877-2

> <Gold.Version>
5.8.1

> <Gold.Id.Protein>
6NUR|6NUR_protein|mol2

> <Gold.PLP.Fitness>
54.4288

> <Gold.PLP.PLP>
-48.4051

> <Gold.PLP.part.hbond>
-3.0000

> <Gold.PLP.part.metal>
0.0000

> <Gold.PLP.part.buried>
-5.6175

> <Gold.PLP.part.nonpolar>
-41.0557

> <Gold.PLP.part.repulsive>
1.3379

> <Gold.PLP.ligand.clash>
0.0000

> <Gold.PLP.ligand.torsion>
1.4959

> <Gold.PLP.Chemscore.Hbond>
2.9280

> <Gold.PLP.Chemscore.CHOScore>
0.0000

> <Gold.PLP.Chemscore.Metal>
0.0000

> <Gold.Chemscore.Hbonds>
donor molecule, donor type, donor heavy atom, donor atom, acceptor molecule, acceptor atom, score
      L1  H    21    41       P1  7949  0.93
      P1  H  7997  8010       L1    19  0.89
      P1  H 10752 10763       L1    21  0.96

> <Gold.PLP.Chemscore.Internal.Correction>
0.2317

> <Gold.Rescore>
     Score         DG    S(hbond)    S(metal)    S(lipo)     H(rot)  DE(clash)    DE(int)     intcor
     16.72     -18.59       2.25        0.00     116.67       3.15       0.33       1.55       ----

> <Gold.Chemscore.Fitness>
16.7177

> <Gold.Chemscore.DG>
-18.5914

> <Gold.Chemscore.ZeroCoef>
-5.4800

> <Gold.Chemscore.Hbond>
2.2519

> <Gold.Chemscore.Metal>
0.0000

> <Gold.Chemscore.Lipo>
116.6733

> <Gold.Chemscore.Internal_Hbond>
0.0000

> <Gold.Chemscore.DEClash>
0.3268

> <Gold.Chemscore.DEInternal>
1.5469

> <Gold.Chemscore.Rot>
3.1488

> <Gold.Chemscore.Internal.Correction>
   9.000000E+99

> <Gold.Chemscore.Hbonds>
donor molecule, donor type, donor heavy atom, donor atom, acceptor molecule, acceptor atom, score
      L1  H    21    41       P1  7949  0.81
      P1  H  7997  8010       L1    19  0.16
      P1  H 10752 10763       L1    21  0.27

> <Gold.Chemscore.Hbond.Weighted>
-7.5215

> <Gold.Chemscore.Metal.Weighted>
-0.0000

> <Gold.Chemscore.Lipo.Weighted>
-13.6508

> <Gold.Chemscore.Internal_Hbond.Weighted>
0.0000

> <Gold.Chemscore.DEClash.Weighted>
0.3268

> <Gold.Chemscore.DEInternal.Weighted>
1.5469

> <Gold.Chemscore.Rot.Weighted>
8.0608

> <Gold.Chemscore.Internal.Correction.Weighted>
   9.000000E+99

> <Gold.Protein.RotatedTorsions>
[ 6907 6896 6895 6894 ] final  -48.47 input  -60.11 | X-H torsion
[ 7974 7965 7964 7962 ] final  -80.65 input  175.53 | X-H torsion
[ 8008 7997 7996 7995 ] final   93.90 input   59.86 | X-H torsion
[ 10167 10162 10161 10158 ] final  171.16 input  -65.29 | X-H torsion
[ 10718 10713 10712 10709 ] final  171.89 input   66.30 | X-H torsion
[ 10763 10752 10751 10750 ] final   15.93 input  -60.55 | X-H torsion
[ 11005 11000 10999 10996 ] final   93.47 input  -57.11 | X-H torsion

> <Gold.Protein.ActiveResidues>
 VAL166  LYS551  ARG553  GLY616  TRP617  ASP618  TYR619  PRO620  LYS621  CYS622 
 ASP623  PHE694  ASN695  SER759  ASP760  ASP761  ALA762  ILE779  LEU786  VAL792 
 PHE793  MET794  SER795  GLU796  ALA797  LYS798  CYS799  TRP800  GLU811  SER814 

> <Gold.Protein.RotatedAtoms>
  150.8902  134.8305  159.7287 H   0  0  0  0  0  0  0  0  0  0  0  0  # atno 6907 bound_to 6896
  152.4832  134.4660  159.9630 H   0  0  0  0  0  0  0  0  0  0  0  0  # atno 6908 bound_to 6896
  151.4723  133.3527  159.2861 H   0  0  0  0  0  0  0  0  0  0  0  0  # atno 6909 bound_to 6896
  145.5571  140.9488  143.1467 H   0  0  0  0  0  0  0  0  0  0  0  0  # atno 7974 bound_to 7965
  156.0519  140.3307  155.7361 H   0  0  0  0  0  0  0  0  0  0  0  0  # atno 8008 bound_to 7997
  155.5587  140.0617  157.2851 H   0  0  0  0  0  0  0  0  0  0  0  0  # atno 8009 bound_to 7997
  154.4440  140.1881  156.0749 H   0  0  0  0  0  0  0  0  0  0  0  0  # atno 8010 bound_to 7997
  139.5039  144.3517  151.9916 H   0  0  0  0  0  0  0  0  0  0  0  0  # atno 10167 bound_to 10162
  156.9869  131.0136  151.2867 H   0  0  0  0  0  0  0  0  0  0  0  0  # atno 10718 bound_to 10713
  153.1479  135.6773  153.8927 H   0  0  0  0  0  0  0  0  0  0  0  0  # atno 10763 bound_to 10752
  153.8363  135.3111  155.3424 H   0  0  0  0  0  0  0  0  0  0  0  0  # atno 10764 bound_to 10752
  154.7839  135.4873  153.9990 H   0  0  0  0  0  0  0  0  0  0  0  0  # atno 10765 bound_to 10752
  139.8810  134.8791  156.3722 H   0  0  0  0  0  0  0  0  0  0  0  0  # atno 11005 bound_to 11000
  144.7501  139.7217  143.7276 LP  0  0  0  0  0  0  0  0  0  0  0  0  # atno 17320 bound_to 7965
  146.1877  139.5100  142.9825 LP  0  0  0  0  0  0  0  0  0  0  0  0  # atno 17321 bound_to 7965
  140.2953  144.3707  150.6076 LP  0  0  0  0  0  0  0  0  0  0  0  0  # atno 17342 bound_to 10162
  140.5915  143.2168  151.7244 LP  0  0  0  0  0  0  0  0  0  0  0  0  # atno 17343 bound_to 10162
  157.5486  130.8167  149.8117 LP  0  0  0  0  0  0  0  0  0  0  0  0  # atno 17370 bound_to 10713
  156.0222  130.3791  150.1927 LP  0  0  0  0  0  0  0  0  0  0  0  0  # atno 17371 bound_to 10713
  140.9456  133.7485  156.0204 LP  0  0  0  0  0  0  0  0  0  0  0  0  # atno 17394 bound_to 11000
  140.8167  134.3337  157.5395 LP  0  0  0  0  0  0  0  0  0  0  0  0  # atno 17395 bound_to 11000

$$$$
