AV-unprocessed.smi:3237|AV-procd|sdf|12371|dock1
  -GOLD-   2272018233D 1   1.00000     0.00000
 Structure written by MMmdl.
 36 38  0  0  0  0  0  0  0  0  3 V2000
  152.7961  143.0490  159.7902 C   0  0  0  0  0  0  0  0  0  0  0  0
  151.9325  142.4959  158.7090 C   0  0  0  0  0  0  0  0  0  0  0  0
  151.2171  143.0785  157.7012 C   0  0  0  0  0  0  0  0  0  0  0  0
  150.6270  141.9672  157.0421 C   0  0  0  0  0  0  0  0  0  0  0  0
  149.7881  142.1584  155.9126 N   0  0  0  0  0  0  0  0  0  0  0  0
  149.6751  141.3985  154.8080 C   0  0  0  0  0  0  0  0  0  0  0  0
  150.3534  140.3722  154.6826 O   0  0  0  0  0  0  0  0  0  0  0  0
  148.7688  141.9040  153.9263 N   0  5  0  0  0  0  0  0  0  0  0  0
  147.3285  141.6481  153.9718 C   0  0  2  0  0  0  0  0  0  0  0  0
  146.7087  142.0616  155.3090 C   0  0  0  0  0  0  0  0  0  0  0  0
  145.4905  141.1401  155.4653 C   0  0  0  0  0  0  0  0  0  0  0  0
  145.6692  140.0301  154.4996 N   0  3  2  0  0  0  0  0  0  0  0  0
  145.3618  138.6903  155.0451 C   0  0  0  0  0  0  0  0  0  0  0  0
  144.9283  137.6953  153.9952 C   0  0  0  0  0  0  0  0  0  0  0  0
  143.9056  138.3099  154.9267 C   0  0  0  0  0  0  0  0  0  0  0  0
  147.0242  140.1523  153.9268 C   0  0  0  0  0  0  0  0  0  0  0  0
  150.9561  140.8100  157.5972 N   0  0  0  0  0  0  0  0  0  0  0  0
  151.7941  141.1430  158.6681 O   0  0  0  0  0  0  0  0  0  0  0  0
  152.6499  144.1243  159.8932 H   0  0  0  0  0  0  0  0  0  0  0  0
  153.8487  142.8700  159.5715 H   0  0  0  0  0  0  0  0  0  0  0  0
  152.5643  142.5835  160.7482 H   0  0  0  0  0  0  0  0  0  0  0  0
  151.1302  144.1306  157.4739 H   0  0  0  0  0  0  0  0  0  0  0  0
  149.1956  142.9747  155.9441 H   0  0  0  0  0  0  0  0  0  0  0  0
  146.7848  142.1358  153.1608 H   0  0  0  0  0  0  0  0  0  0  0  0
  147.4058  141.8767  156.1287 H   0  0  0  0  0  0  0  0  0  0  0  0
  146.4407  143.1187  155.3359 H   0  0  0  0  0  0  0  0  0  0  0  0
  145.4144  140.7786  156.4922 H   0  0  0  0  0  0  0  0  0  0  0  0
  144.5616  141.6636  155.2329 H   0  0  0  0  0  0  0  0  0  0  0  0
  145.9501  138.3687  155.9029 H   0  0  0  0  0  0  0  0  0  0  0  0
  144.9183  138.0157  152.9548 H   0  0  0  0  0  0  0  0  0  0  0  0
  145.1866  136.6506  154.1569 H   0  0  0  0  0  0  0  0  0  0  0  0
  143.4894  137.6694  155.7015 H   0  0  0  0  0  0  0  0  0  0  0  0
  143.2160  139.0396  154.5058 H   0  0  0  0  0  0  0  0  0  0  0  0
  147.0694  139.7452  152.9164 H   0  0  0  0  0  0  0  0  0  0  0  0
  147.7319  139.5984  154.5475 H   0  0  0  0  0  0  0  0  0  0  0  0
  145.0271  140.2106  153.7415 H   0  0  0  0  0  0  0  0  0  0  0  0
  1  2  1  0  0  0  0
  1 19  1  0  0  0  0
  1 20  1  0  0  0  0
  1 21  1  0  0  0  0
  2 18  1  0  0  0  0
  2  3  2  0  0  0  0
  3  4  1  0  0  0  0
  3 22  1  0  0  0  0
  4  5  1  0  0  0  0
  4 17  2  0  0  0  0
  5  6  1  0  0  0  0
  5 23  1  0  0  0  0
  6  7  2  0  0  0  0
  6  8  1  0  0  0  0
  8  9  1  0  0  0  0
  9 16  1  0  0  0  0
  9 10  1  0  0  0  0
  9 24  1  0  0  0  0
 10 11  1  0  0  0  0
 10 25  1  0  0  0  0
 10 26  1  0  0  0  0
 11 12  1  0  0  0  0
 11 27  1  0  0  0  0
 11 28  1  0  0  0  0
 12 13  1  0  0  0  0
 12 16  1  0  0  0  0
 12 36  1  0  0  0  0
 13 15  1  0  0  0  0
 13 14  1  0  0  0  0
 13 29  1  0  0  0  0
 14 15  1  0  0  0  0
 14 30  1  0  0  0  0
 14 31  1  0  0  0  0
 15 32  1  0  0  0  0
 15 33  1  0  0  0  0
 16 34  1  0  0  0  0
 16 35  1  0  0  0  0
 17 18  1  0  0  0  0
M  CHG  1   8  -1
M  CHG  1  12   1
M  END
> <s_m_source_file>
AV-unprocessed.smi

> <i_m_source_file_index>
3237

> <i_lp_mmshare_version>
43012

> <i_f3d_flags>
0

> <s_epik_input>
W0NIM11jMVtjSF1jKG5vMSlbTkhdQyg9TylbTkhdW0NAQEhdMltDSDJdW0NIMl1OKFtDSDJdMilbQ0hdM1tDSDJdW0NIMl0z

> <s_epik_cmdline>
J2VwaWtfcHl0aG9uJywgJy1waCcsICc3LjAnLCAnLXRuJywgJzgnLCAnLW1hJywgJzIwMCcsICctbWV0YWxfYmluZGluZycsICctaW1hZScsICc8aW5maWxlLm1hZT4nLCAnLW9tYWUnLCAnPG91dGZpbGUubWFlPic=

> <r_epik_Ionization_Penalty>
6.76456

> <r_epik_Ionization_Penalty_Charging>
6.76456

> <r_epik_Ionization_Penalty_Neutral>
5.76722e-06

> <r_epik_State_Penalty>
6.78919

> <r_epik_Charging_Adjusted_Penalty>
13.5538

> <i_epik_Tot_Q>
0

> <i_epik_Tot_abs_Q>
2

> <r_epik_Metal_State_Penalty>
2.728

> <b_epik_Metal_Only>
1

> <s_lp_Force_Field>
OPLS_2005

> <r_lp_Energy>
30.701

> <b_lp_Chiralities_Consistent>
1

> <s_lp_Variant>
AV-unprocessed.smi:3237-9

> <Gold.Version>
5.8.1

> <Gold.Id.Protein>
6NUR|6NUR_protein|mol2

> <Gold.PLP.Fitness>
40.1739

> <Gold.PLP.PLP>
-28.6311

> <Gold.PLP.part.hbond>
-4.0000

> <Gold.PLP.part.metal>
0.0000

> <Gold.PLP.part.buried>
-4.4342

> <Gold.PLP.part.nonpolar>
-20.5797

> <Gold.PLP.part.repulsive>
0.4317

> <Gold.PLP.ligand.clash>
0.0000

> <Gold.PLP.ligand.torsion>
1.6474

> <Gold.PLP.Chemscore.Hbond>
4.5120

> <Gold.PLP.Chemscore.CHOScore>
0.0000

> <Gold.PLP.Chemscore.Metal>
0.0000

> <Gold.Chemscore.Hbonds>
donor molecule, donor type, donor heavy atom, donor atom, acceptor molecule, acceptor atom, score
      L1  H     5    23       P1  8028  1.00
      L1  H    12    36       P1 10175  2.00
      P1  H  7989  7998       L1     7  1.00
      P1  H  8011  8017       L1     8  0.48

> <Gold.PLP.Chemscore.Internal.Correction>
1.3016

> <Gold.Rescore>
     Score         DG    S(hbond)    S(metal)    S(lipo)     H(rot)  DE(clash)    DE(int)     intcor
     15.39     -17.30       2.54        0.00      55.76       1.25       0.12       1.79       ----

> <Gold.Chemscore.Fitness>
15.3851

> <Gold.Chemscore.DG>
-17.2974

> <Gold.Chemscore.ZeroCoef>
-5.4800

> <Gold.Chemscore.Hbond>
2.5401

> <Gold.Chemscore.Metal>
0.0000

> <Gold.Chemscore.Lipo>
55.7629

> <Gold.Chemscore.Internal_Hbond>
0.0000

> <Gold.Chemscore.DEClash>
0.1214

> <Gold.Chemscore.DEInternal>
1.7908

> <Gold.Chemscore.Rot>
1.2464

> <Gold.Chemscore.Internal.Correction>
   9.000000E+99

> <Gold.Chemscore.Hbonds>
donor molecule, donor type, donor heavy atom, donor atom, acceptor molecule, acceptor atom, score
      L1  H     5    23       P1  8028  0.96
      L1  H    12    36       P1 10175  1.00
      P1  H  7989  7998       L1     7  0.34
      P1  H  8011  8017       L1     8  0.26

> <Gold.Chemscore.Hbond.Weighted>
-8.4840

> <Gold.Chemscore.Metal.Weighted>
-0.0000

> <Gold.Chemscore.Lipo.Weighted>
-6.5243

> <Gold.Chemscore.Internal_Hbond.Weighted>
0.0000

> <Gold.Chemscore.DEClash.Weighted>
0.1214

> <Gold.Chemscore.DEInternal.Weighted>
1.7908

> <Gold.Chemscore.Rot.Weighted>
3.1909

> <Gold.Chemscore.Internal.Correction.Weighted>
   9.000000E+99

> <Gold.Protein.RotatedTorsions>
[ 6907 6896 6895 6894 ] final  148.98 input  -60.11 | X-H torsion
[ 7974 7965 7964 7962 ] final  -91.93 input  175.53 | X-H torsion
[ 8008 7997 7996 7995 ] final  121.94 input   59.86 | X-H torsion
[ 10167 10162 10161 10158 ] final  -34.00 input  -65.29 | X-H torsion
[ 10718 10713 10712 10709 ] final  -41.00 input   66.30 | X-H torsion
[ 10763 10752 10751 10750 ] final  153.03 input  -60.55 | X-H torsion
[ 11005 11000 10999 10996 ] final  102.48 input  -57.11 | X-H torsion

> <Gold.Protein.ActiveResidues>
 VAL166  LYS551  ARG553  GLY616  TRP617  ASP618  TYR619  PRO620  LYS621  CYS622 
 ASP623  PHE694  ASN695  SER759  ASP760  ASP761  ALA762  ILE779  LEU786  VAL792 
 PHE793  MET794  SER795  GLU796  ALA797  LYS798  CYS799  TRP800  GLU811  SER814 

> <Gold.Protein.RotatedAtoms>
  152.1342  133.4425  159.4735 H   0  0  0  0  0  0  0  0  0  0  0  0  # atno 6907 bound_to 6896
  150.6880  134.2384  159.4471 H   0  0  0  0  0  0  0  0  0  0  0  0  # atno 6908 bound_to 6896
  152.0270  134.9789  160.0622 H   0  0  0  0  0  0  0  0  0  0  0  0  # atno 6909 bound_to 6896
  145.4066  140.9541  143.2257 H   0  0  0  0  0  0  0  0  0  0  0  0  # atno 7974 bound_to 7965
  156.2707  140.2797  156.1389 H   0  0  0  0  0  0  0  0  0  0  0  0  # atno 8008 bound_to 7997
  155.0975  140.0389  157.2704 H   0  0  0  0  0  0  0  0  0  0  0  0  # atno 8009 bound_to 7997
  154.6841  140.2615  155.6884 H   0  0  0  0  0  0  0  0  0  0  0  0  # atno 8010 bound_to 7997
  140.7194  143.3579  151.2022 H   0  0  0  0  0  0  0  0  0  0  0  0  # atno 10167 bound_to 10162
  156.2752  130.4211  149.8395 H   0  0  0  0  0  0  0  0  0  0  0  0  # atno 10718 bound_to 10713
  154.1296  135.2827  155.3188 H   0  0  0  0  0  0  0  0  0  0  0  0  # atno 10763 bound_to 10752
  154.6365  135.5417  153.7743 H   0  0  0  0  0  0  0  0  0  0  0  0  # atno 10764 bound_to 10752
  153.0286  135.6475  154.1447 H   0  0  0  0  0  0  0  0  0  0  0  0  # atno 10765 bound_to 10752
  139.8778  134.9226  156.5065 H   0  0  0  0  0  0  0  0  0  0  0  0  # atno 11005 bound_to 11000
  144.8338  139.5585  143.6932 LP  0  0  0  0  0  0  0  0  0  0  0  0  # atno 17320 bound_to 7965
  146.2726  139.6672  142.9285 LP  0  0  0  0  0  0  0  0  0  0  0  0  # atno 17321 bound_to 7965
  139.7124  143.9354  152.2953 LP  0  0  0  0  0  0  0  0  0  0  0  0  # atno 17342 bound_to 10162
  139.9084  144.6871  150.8589 LP  0  0  0  0  0  0  0  0  0  0  0  0  # atno 17343 bound_to 10162
  156.5863  130.8487  151.3396 LP  0  0  0  0  0  0  0  0  0  0  0  0  # atno 17370 bound_to 10713
  157.7297  130.9674  150.1798 LP  0  0  0  0  0  0  0  0  0  0  0  0  # atno 17371 bound_to 10713
  140.8551  133.8102  155.9208 LP  0  0  0  0  0  0  0  0  0  0  0  0  # atno 17394 bound_to 11000
  140.9105  134.2266  157.4988 LP  0  0  0  0  0  0  0  0  0  0  0  0  # atno 17395 bound_to 11000

$$$$
