AV-unprocessed.smi:837|AV-procd|sdf|3893|dock10
  -GOLD-   22720 1353D 1   1.00000     0.00000
 Structure written by MMmdl.
 49 51  0  0  0  0  0  0  0  0  1 V2000
  145.0179  135.2689  153.0511 C   0  0  0  0  0  0  0  0  0  0  0  0
  144.5834  133.9891  152.3063 C   0  0  1  0  0  0  0  0  0  0  0  0
  144.4145  134.2663  150.7967 C   0  0  0  0  0  0  0  0  0  0  0  0
  143.8894  133.0316  150.0475 C   0  0  0  0  0  0  0  0  0  0  0  0
  144.7954  131.8120  150.2681 C   0  0  0  0  0  0  0  0  0  0  0  0
  144.9761  131.5173  151.7680 C   0  0  0  0  0  0  0  0  0  0  0  0
  145.4846  132.7414  152.5712 C   0  0  2  0  0  0  0  0  0  0  0  0
  145.5244  132.4126  153.9856 N   0  0  0  0  0  0  0  0  0  0  0  0
  146.7611  132.4280  154.4977 C   0  0  0  0  0  0  0  0  0  0  0  0
  147.0491  132.1646  155.6642 O   0  0  0  0  0  0  0  0  0  0  0  0
  147.6176  132.7759  153.5216 N   0  0  0  0  0  0  0  0  0  0  0  0
  149.0740  132.8681  153.6914 C   0  0  0  0  0  0  0  0  0  0  0  0
  149.4991  133.8456  154.7972 C   0  0  0  0  0  0  0  0  0  0  0  0
  149.8571  133.4385  155.9039 O   0  0  0  0  0  0  0  0  0  0  0  0
  149.4450  135.1475  154.4791 N   0  0  0  0  0  0  0  0  0  0  0  0
  149.7968  136.2420  155.3759 C   0  0  0  0  0  0  0  0  0  0  0  0
  150.8068  137.2021  154.7262 C   0  0  0  0  0  0  0  0  0  0  0  0
  150.3553  138.6468  154.8116 C   0  0  0  0  0  0  0  0  0  0  0  0
  151.0638  139.5793  155.5969 C   0  0  0  0  0  0  0  0  0  0  0  0
  150.6100  140.9117  155.6410 C   0  0  0  0  0  0  0  0  0  0  0  0
  149.4642  141.2551  154.8958 C   0  0  0  0  0  0  0  0  0  0  0  0
  148.7784  140.3705  154.1398 N   0  0  0  0  0  0  0  0  0  0  0  0
  149.2201  139.0949  154.1029 C   0  0  0  0  0  0  0  0  0  0  0  0
  146.9811  132.9810  152.3603 C   0  0  0  0  0  0  0  0  0  0  0  0
  147.4943  133.3042  151.2887 O   0  0  0  0  0  0  0  0  0  0  0  0
  145.9869  135.6298  152.7057 H   0  0  0  0  0  0  0  0  0  0  0  0
  145.0855  135.1063  154.1268 H   0  0  0  0  0  0  0  0  0  0  0  0
  144.2977  136.0719  152.8930 H   0  0  0  0  0  0  0  0  0  0  0  0
  143.5917  133.7426  152.6894 H   0  0  0  0  0  0  0  0  0  0  0  0
  143.7203  135.0943  150.6489 H   0  0  0  0  0  0  0  0  0  0  0  0
  145.3610  134.5864  150.3605 H   0  0  0  0  0  0  0  0  0  0  0  0
  142.8791  132.8012  150.3882 H   0  0  0  0  0  0  0  0  0  0  0  0
  143.8133  133.2484  148.9816 H   0  0  0  0  0  0  0  0  0  0  0  0
  144.3671  130.9412  149.7713 H   0  0  0  0  0  0  0  0  0  0  0  0
  145.7630  131.9823  149.7962 H   0  0  0  0  0  0  0  0  0  0  0  0
  144.0204  131.1896  152.1794 H   0  0  0  0  0  0  0  0  0  0  0  0
  145.6564  130.6724  151.8886 H   0  0  0  0  0  0  0  0  0  0  0  0
  144.6959  132.1794  154.5135 H   0  0  0  0  0  0  0  0  0  0  0  0
  149.4842  131.8814  153.9142 H   0  0  0  0  0  0  0  0  0  0  0  0
  149.5406  133.1779  152.7548 H   0  0  0  0  0  0  0  0  0  0  0  0
  149.1398  135.3982  153.5496 H   0  0  0  0  0  0  0  0  0  0  0  0
  148.8967  136.7805  155.6787 H   0  0  0  0  0  0  0  0  0  0  0  0
  150.2217  135.8128  156.2838 H   0  0  0  0  0  0  0  0  0  0  0  0
  151.7807  137.1048  155.2083 H   0  0  0  0  0  0  0  0  0  0  0  0
  150.9569  136.9426  153.6771 H   0  0  0  0  0  0  0  0  0  0  0  0
  151.9402  139.2813  156.1540 H   0  0  0  0  0  0  0  0  0  0  0  0
  151.1278  141.6531  156.2315 H   0  0  0  0  0  0  0  0  0  0  0  0
  149.0888  142.2679  154.9069 H   0  0  0  0  0  0  0  0  0  0  0  0
  148.6522  138.4127  153.4873 H   0  0  0  0  0  0  0  0  0  0  0  0
  1  2  1  0  0  0  0
  1 26  1  0  0  0  0
  1 27  1  0  0  0  0
  1 28  1  0  0  0  0
  2  7  1  0  0  0  0
  2  3  1  0  0  0  0
  2 29  1  0  0  0  0
  3  4  1  0  0  0  0
  3 30  1  0  0  0  0
  3 31  1  0  0  0  0
  4  5  1  0  0  0  0
  4 32  1  0  0  0  0
  4 33  1  0  0  0  0
  5  6  1  0  0  0  0
  5 34  1  0  0  0  0
  5 35  1  0  0  0  0
  6  7  1  0  0  0  0
  6 36  1  0  0  0  0
  6 37  1  0  0  0  0
  7 24  1  0  0  0  0
  7  8  1  0  0  0  0
  8  9  1  0  0  0  0
  8 38  1  0  0  0  0
  9 10  2  0  0  0  0
  9 11  1  0  0  0  0
 11 12  1  0  0  0  0
 11 24  1  0  0  0  0
 12 13  1  0  0  0  0
 12 39  1  0  0  0  0
 12 40  1  0  0  0  0
 13 14  2  0  0  0  0
 13 15  1  0  0  0  0
 15 16  1  0  0  0  0
 15 41  1  0  0  0  0
 16 17  1  0  0  0  0
 16 42  1  0  0  0  0
 16 43  1  0  0  0  0
 17 18  1  0  0  0  0
 17 44  1  0  0  0  0
 17 45  1  0  0  0  0
 18 23  1  0  0  0  0
 18 19  2  0  0  0  0
 19 20  1  0  0  0  0
 19 46  1  0  0  0  0
 20 21  2  0  0  0  0
 20 47  1  0  0  0  0
 21 22  1  0  0  0  0
 21 48  1  0  0  0  0
 22 23  2  0  0  0  0
 23 49  1  0  0  0  0
 24 25  2  0  0  0  0
M  END
> <s_m_source_file>
AV-unprocessed.smi

> <i_m_source_file_index>
837

> <i_lp_mmshare_version>
43012

> <i_f3d_flags>
0

> <s_epik_input>
W0NIMl0xW0NIMl1bQ0gyXVtDSDJdW0NAQEhdKFtDSDNdKVtDQEBdMTJbTkhdQyg9TylOKEMyPU8pW0NIMl1DKD1PKVtOSF1bQ0gyXVtDSDJdYzNbY0hdW2NIXVtjSF1uW2NIXTM=

> <s_epik_cmdline>
J2VwaWtfcHl0aG9uJywgJy1waCcsICc3LjAnLCAnLXRuJywgJzgnLCAnLW1hJywgJzIwMCcsICctbWV0YWxfYmluZGluZycsICctaW1hZScsICc8aW5maWxlLm1hZT4nLCAnLW9tYWUnLCAnPG91dGZpbGUubWFlPic=

> <r_lp_tautomer_probability>
1

> <r_epik_Ionization_Penalty>
0.0127837

> <r_epik_Ionization_Penalty_Charging>
0

> <r_epik_Ionization_Penalty_Neutral>
0.0127837

> <r_epik_State_Penalty>
0.00987657

> <r_epik_Charging_Adjusted_Penalty>
0.00987657

> <i_epik_Tot_Q>
0

> <i_epik_Tot_abs_Q>
0

> <r_epik_Metal_State_Penalty>
0.0309865

> <b_epik_Metal_Only>
0

> <s_lp_Force_Field>
OPLS_2005

> <r_lp_Energy>
18.239

> <b_lp_Chiralities_Consistent>
1

> <s_lp_Variant>
AV-unprocessed.smi:837-2

> <Gold.Version>
5.8.1

> <Gold.Id.Protein>
6NUR|6NUR_protein|mol2

> <Gold.PLP.Fitness>
49.9737

> <Gold.PLP.PLP>
-41.1580

> <Gold.PLP.part.hbond>
-2.0000

> <Gold.PLP.part.metal>
0.0000

> <Gold.PLP.part.buried>
-3.3158

> <Gold.PLP.part.nonpolar>
-37.1879

> <Gold.PLP.part.repulsive>
1.5202

> <Gold.PLP.ligand.clash>
0.0000

> <Gold.PLP.ligand.torsion>
0.6876

> <Gold.PLP.Chemscore.Hbond>
1.9100

> <Gold.PLP.Chemscore.CHOScore>
1.4762

> <Gold.PLP.Chemscore.Metal>
0.0000

> <Gold.Chemscore.Hbonds>
donor molecule, donor type, donor heavy atom, donor atom, acceptor molecule, acceptor atom, score
      L1  H     8    38       P1 10957  0.91
      L1  H    15    41       P1  7948  1.00
      L1  C    21    48       P1  8028  0.92
      L1  C    23    49       P1  7948  0.54

> <Gold.PLP.Chemscore.Internal.Correction>
0.0321

> <Gold.Rescore>
     Score         DG    S(hbond)    S(metal)    S(lipo)     H(rot)  DE(clash)    DE(int)     intcor
     15.12     -18.08       1.83        0.00      96.10       1.86       1.59       1.37       ----

> <Gold.Chemscore.Fitness>
15.1206

> <Gold.Chemscore.DG>
-18.0789

> <Gold.Chemscore.ZeroCoef>
-5.4800

> <Gold.Chemscore.Hbond>
1.8278

> <Gold.Chemscore.Metal>
0.0000

> <Gold.Chemscore.Lipo>
96.1014

> <Gold.Chemscore.Internal_Hbond>
0.0000

> <Gold.Chemscore.DEClash>
1.5858

> <Gold.Chemscore.DEInternal>
1.3725

> <Gold.Chemscore.Rot>
1.8553

> <Gold.Chemscore.Internal.Correction>
   9.000000E+99

> <Gold.Chemscore.Hbonds>
donor molecule, donor type, donor heavy atom, donor atom, acceptor molecule, acceptor atom, score
      L1  H     8    38       P1 10957  0.35
      L1  H    15    41       P1  7948  0.50

> <Gold.Chemscore.Hbond.Weighted>
-6.1047

> <Gold.Chemscore.Metal.Weighted>
-0.0000

> <Gold.Chemscore.Lipo.Weighted>
-11.2439

> <Gold.Chemscore.Internal_Hbond.Weighted>
0.0000

> <Gold.Chemscore.DEClash.Weighted>
1.5858

> <Gold.Chemscore.DEInternal.Weighted>
1.3725

> <Gold.Chemscore.Rot.Weighted>
4.7497

> <Gold.Chemscore.Internal.Correction.Weighted>
   9.000000E+99

> <Gold.Protein.RotatedTorsions>
[ 6907 6896 6895 6894 ] final  -32.18 input  -60.11 | X-H torsion
[ 7974 7965 7964 7962 ] final -155.60 input  175.53 | X-H torsion
[ 8008 7997 7996 7995 ] final  -24.47 input   59.86 | X-H torsion
[ 10167 10162 10161 10158 ] final  -56.91 input  -65.29 | X-H torsion
[ 10718 10713 10712 10709 ] final -123.20 input   66.30 | X-H torsion
[ 10763 10752 10751 10750 ] final  129.64 input  -60.55 | X-H torsion
[ 11005 11000 10999 10996 ] final  108.99 input  -57.11 | X-H torsion

> <Gold.Protein.ActiveResidues>
 VAL166  LYS551  ARG553  GLY616  TRP617  ASP618  TYR619  PRO620  LYS621  CYS622 
 ASP623  PHE694  ASN695  SER759  ASP760  ASP761  ALA762  ILE779  LEU786  VAL792 
 PHE793  MET794  SER795  GLU796  ALA797  LYS798  CYS799  TRP800  GLU811  SER814 

> <Gold.Protein.RotatedAtoms>
  151.0821  134.9865  159.8361 H   0  0  0  0  0  0  0  0  0  0  0  0  # atno 6907 bound_to 6896
  152.5420  134.2168  159.8782 H   0  0  0  0  0  0  0  0  0  0  0  0  # atno 6908 bound_to 6896
  151.2199  133.4464  159.2634 H   0  0  0  0  0  0  0  0  0  0  0  0  # atno 6909 bound_to 6896
  144.7632  140.4226  143.5961 H   0  0  0  0  0  0  0  0  0  0  0  0  # atno 7974 bound_to 7965
  154.4527  140.1952  156.0470 H   0  0  0  0  0  0  0  0  0  0  0  0  # atno 8008 bound_to 7997
  156.0682  140.3288  155.7516 H   0  0  0  0  0  0  0  0  0  0  0  0  # atno 8009 bound_to 7997
  155.5304  140.0577  157.2880 H   0  0  0  0  0  0  0  0  0  0  0  0  # atno 8010 bound_to 7997
  140.6289  143.2450  151.5292 H   0  0  0  0  0  0  0  0  0  0  0  0  # atno 10167 bound_to 10162
  156.1482  130.6515  150.9874 H   0  0  0  0  0  0  0  0  0  0  0  0  # atno 10718 bound_to 10713
  153.7450  135.3218  155.3311 H   0  0  0  0  0  0  0  0  0  0  0  0  # atno 10763 bound_to 10752
  154.8282  135.4554  154.0988 H   0  0  0  0  0  0  0  0  0  0  0  0  # atno 10764 bound_to 10752
  153.2174  135.6944  153.8122 H   0  0  0  0  0  0  0  0  0  0  0  0  # atno 10765 bound_to 10752
  139.8854  134.9446  156.6057 H   0  0  0  0  0  0  0  0  0  0  0  0  # atno 11005 bound_to 11000
  145.6552  139.1571  143.2839 LP  0  0  0  0  0  0  0  0  0  0  0  0  # atno 17320 bound_to 7965
  146.1716  140.6637  142.9231 LP  0  0  0  0  0  0  0  0  0  0  0  0  # atno 17321 bound_to 7965
  139.5506  144.2406  152.1523 LP  0  0  0  0  0  0  0  0  0  0  0  0  # atno 17342 bound_to 10162
  140.1645  144.4994  150.6614 LP  0  0  0  0  0  0  0  0  0  0  0  0  # atno 17343 bound_to 10162
  157.6634  131.0876  150.7784 LP  0  0  0  0  0  0  0  0  0  0  0  0  # atno 17370 bound_to 10713
  156.7854  130.4873  149.5394 LP  0  0  0  0  0  0  0  0  0  0  0  0  # atno 17371 bound_to 10713
  140.7850  133.8629  155.8599 LP  0  0  0  0  0  0  0  0  0  0  0  0  # atno 17394 bound_to 11000
  140.9727  134.1509  157.4562 LP  0  0  0  0  0  0  0  0  0  0  0  0  # atno 17395 bound_to 11000

$$$$
