AV-unprocessed.smi:3013|AV-procd|sdf|11465|dock3
  -GOLD-   2272016403D 1   1.00000     0.00000
 Structure written by MMmdl.
 45 46  0  0  0  0  0  0  0  0  2 V2000
  146.7319  131.7561  154.6599 C   0  0  0  0  0  0  0  0  0  0  0  0
  147.1688  132.6968  153.5213 C   0  0  1  0  0  0  0  0  0  0  0  0
  148.5789  132.3611  152.9775 C   0  0  0  0  0  0  0  0  0  0  0  0
  149.7251  132.8205  153.8989 C   0  0  0  0  0  0  0  0  0  0  0  0
  149.9536  134.2578  153.8001 N   0  0  0  0  0  0  0  0  0  0  0  0
  150.9154  134.9288  154.4506 C   0  0  0  0  0  0  0  0  0  0  0  0
  151.7284  134.3895  155.2020 O   0  0  0  0  0  0  0  0  0  0  0  0
  150.8686  136.2428  154.1729 N   0  0  0  0  0  0  0  0  0  0  0  0
  151.7226  137.2668  154.6637 C   0  0  0  0  0  0  0  0  0  0  0  0
  153.0427  137.1879  154.7984 N   0  0  0  0  0  0  0  0  0  0  0  0
  153.2958  138.4347  155.2957 C   0  0  0  0  0  0  0  0  0  0  0  0
  152.2351  139.2261  155.4576 N   0  0  0  0  0  0  0  0  0  0  0  0
  151.2129  138.4436  155.0385 N   0  0  0  0  0  0  0  0  0  0  0  0
  149.8473  138.9306  155.0479 C   0  0  0  0  0  0  0  0  0  0  0  0
  146.1245  132.7392  152.4554 N   0  3  0  0  0  0  0  0  0  0  0  0
  146.1009  131.5643  151.5404 C   0  0  0  0  0  0  0  0  0  0  0  0
  144.8486  131.5918  150.6484 C   0  0  0  0  0  0  0  0  0  0  0  0
  144.7691  132.9034  149.8554 C   0  0  0  0  0  0  0  0  0  0  0  0
  144.8396  134.1022  150.8112 C   0  0  0  0  0  0  0  0  0  0  0  0
  146.0885  134.0238  151.7059 C   0  0  0  0  0  0  0  0  0  0  0  0
  147.3729  131.8652  155.5344 H   0  0  0  0  0  0  0  0  0  0  0  0
  146.7659  130.7086  154.3605 H   0  0  0  0  0  0  0  0  0  0  0  0
  145.7143  131.9778  154.9825 H   0  0  0  0  0  0  0  0  0  0  0  0
  147.2101  133.6958  153.9578 H   0  0  0  0  0  0  0  0  0  0  0  0
  148.6616  131.2869  152.8086 H   0  0  0  0  0  0  0  0  0  0  0  0
  148.7195  132.8326  152.0048 H   0  0  0  0  0  0  0  0  0  0  0  0
  149.4844  132.5889  154.9367 H   0  0  0  0  0  0  0  0  0  0  0  0
  150.6511  132.2924  153.6684 H   0  0  0  0  0  0  0  0  0  0  0  0
  149.3268  134.7795  153.2047 H   0  0  0  0  0  0  0  0  0  0  0  0
  150.1414  136.5471  153.5427 H   0  0  0  0  0  0  0  0  0  0  0  0
  154.2918  138.7694  155.5456 H   0  0  0  0  0  0  0  0  0  0  0  0
  149.2163  138.2436  155.6130 H   0  0  0  0  0  0  0  0  0  0  0  0
  149.4758  138.9967  154.0250 H   0  0  0  0  0  0  0  0  0  0  0  0
  149.7951  139.9178  155.5091 H   0  0  0  0  0  0  0  0  0  0  0  0
  146.9930  131.5602  150.9127 H   0  0  0  0  0  0  0  0  0  0  0  0
  146.1100  130.6366  152.1117 H   0  0  0  0  0  0  0  0  0  0  0  0
  144.8596  130.7431  149.9639 H   0  0  0  0  0  0  0  0  0  0  0  0
  143.9561  131.4805  151.2655 H   0  0  0  0  0  0  0  0  0  0  0  0
  145.5917  132.9528  149.1407 H   0  0  0  0  0  0  0  0  0  0  0  0
  143.8473  132.9379  149.2740 H   0  0  0  0  0  0  0  0  0  0  0  0
  144.8466  135.0322  150.2417 H   0  0  0  0  0  0  0  0  0  0  0  0
  143.9442  134.1271  151.4338 H   0  0  0  0  0  0  0  0  0  0  0  0
  146.0785  134.8628  152.4026 H   0  0  0  0  0  0  0  0  0  0  0  0
  146.9875  134.1271  151.0972 H   0  0  0  0  0  0  0  0  0  0  0  0
  145.2473  132.7103  152.9556 H   0  0  0  0  0  0  0  0  0  0  0  0
  1  2  1  0  0  0  0
  1 21  1  0  0  0  0
  1 22  1  0  0  0  0
  1 23  1  0  0  0  0
  2  3  1  0  0  0  0
  2 15  1  0  0  0  0
  2 24  1  0  0  0  0
  3  4  1  0  0  0  0
  3 25  1  0  0  0  0
  3 26  1  0  0  0  0
  4  5  1  0  0  0  0
  4 27  1  0  0  0  0
  4 28  1  0  0  0  0
  5  6  1  0  0  0  0
  5 29  1  0  0  0  0
  6  7  2  0  0  0  0
  6  8  1  0  0  0  0
  8  9  1  0  0  0  0
  8 30  1  0  0  0  0
  9 13  1  0  0  0  0
  9 10  2  0  0  0  0
 10 11  1  0  0  0  0
 11 12  2  0  0  0  0
 11 31  1  0  0  0  0
 12 13  1  0  0  0  0
 13 14  1  0  0  0  0
 14 32  1  0  0  0  0
 14 33  1  0  0  0  0
 14 34  1  0  0  0  0
 15 20  1  0  0  0  0
 15 16  1  0  0  0  0
 15 45  1  0  0  0  0
 16 17  1  0  0  0  0
 16 35  1  0  0  0  0
 16 36  1  0  0  0  0
 17 18  1  0  0  0  0
 17 37  1  0  0  0  0
 17 38  1  0  0  0  0
 18 19  1  0  0  0  0
 18 39  1  0  0  0  0
 18 40  1  0  0  0  0
 19 20  1  0  0  0  0
 19 41  1  0  0  0  0
 19 42  1  0  0  0  0
 20 43  1  0  0  0  0
 20 44  1  0  0  0  0
M  CHG  1  15   1
M  END
> <s_m_source_file>
AV-unprocessed.smi

> <i_m_source_file_index>
3013

> <i_lp_mmshare_version>
43012

> <i_f3d_flags>
0

> <s_epik_input>
W0NIMl0xW0NIMl1bQ0gyXVtDSDJdW0NIMl1OMVtDQEhdKFtDSDNdKVtDSDJdW0NIMl1bTkhdQyg9TylbTkhdYzJuW2NIXW5uMltDSDNd

> <s_epik_cmdline>
J2VwaWtfcHl0aG9uJywgJy1waCcsICc3LjAnLCAnLXRuJywgJzgnLCAnLW1hJywgJzIwMCcsICctbWV0YWxfYmluZGluZycsICctaW1hZScsICc8aW5maWxlLm1hZT4nLCAnLW9tYWUnLCAnPG91dGZpbGUubWFlPic=

> <r_lp_tautomer_probability>
1

> <r_epik_Ionization_Penalty>
0.000375855

> <r_epik_Ionization_Penalty_Charging>
0.000355659

> <r_epik_Ionization_Penalty_Neutral>
2.01955e-05

> <r_epik_State_Penalty>
0.000216264

> <r_epik_Charging_Adjusted_Penalty>
0.000571923

> <i_epik_Tot_Q>
1

> <i_epik_Tot_abs_Q>
1

> <r_epik_Metal_State_Penalty>
-0

> <b_epik_Metal_Only>
0

> <s_lp_Force_Field>
OPLS_2005

> <r_lp_Energy>
21.9092

> <b_lp_Chiralities_Consistent>
1

> <s_lp_Variant>
AV-unprocessed.smi:3013-2

> <Gold.Version>
5.8.1

> <Gold.Id.Protein>
6NUR|6NUR_protein|mol2

> <Gold.PLP.Fitness>
48.1454

> <Gold.PLP.PLP>
-38.7709

> <Gold.PLP.part.hbond>
-6.0000

> <Gold.PLP.part.metal>
0.0000

> <Gold.PLP.part.buried>
-4.6694

> <Gold.PLP.part.nonpolar>
-28.9336

> <Gold.PLP.part.repulsive>
0.2786

> <Gold.PLP.ligand.clash>
0.0000

> <Gold.PLP.ligand.torsion>
0.9602

> <Gold.PLP.Chemscore.Hbond>
3.7176

> <Gold.PLP.Chemscore.CHOScore>
0.0000

> <Gold.PLP.Chemscore.Metal>
0.0000

> <Gold.Chemscore.Hbonds>
donor molecule, donor type, donor heavy atom, donor atom, acceptor molecule, acceptor atom, score
      L1  H     5    29       P1  7948  0.40
      L1  H     8    30       P1  7948  0.69
      P1  H 10752 10765       L1     7  0.34

> <Gold.PLP.Chemscore.Internal.Correction>
0.1420

> <Gold.Rescore>
     Score         DG    S(hbond)    S(metal)    S(lipo)     H(rot)  DE(clash)    DE(int)     intcor
     12.36     -13.53       1.87        0.00      59.55       2.01       0.14       1.03       ----

> <Gold.Chemscore.Fitness>
12.3571

> <Gold.Chemscore.DG>
-13.5320

> <Gold.Chemscore.ZeroCoef>
-5.4800

> <Gold.Chemscore.Hbond>
1.8689

> <Gold.Chemscore.Metal>
0.0000

> <Gold.Chemscore.Lipo>
59.5522

> <Gold.Chemscore.Internal_Hbond>
0.0000

> <Gold.Chemscore.DEClash>
0.1403

> <Gold.Chemscore.DEInternal>
1.0347

> <Gold.Chemscore.Rot>
2.0148

> <Gold.Chemscore.Internal.Correction>
   9.000000E+99

> <Gold.Chemscore.Hbonds>
donor molecule, donor type, donor heavy atom, donor atom, acceptor molecule, acceptor atom, score
      L1  H     5    29       P1  7948  0.01
      L1  H     8    30       P1  7948  0.06
      P1  H 10752 10765       L1     7  0.06

> <Gold.Chemscore.Hbond.Weighted>
-6.2423

> <Gold.Chemscore.Metal.Weighted>
-0.0000

> <Gold.Chemscore.Lipo.Weighted>
-6.9676

> <Gold.Chemscore.Internal_Hbond.Weighted>
0.0000

> <Gold.Chemscore.DEClash.Weighted>
0.1403

> <Gold.Chemscore.DEInternal.Weighted>
1.0347

> <Gold.Chemscore.Rot.Weighted>
5.1579

> <Gold.Chemscore.Internal.Correction.Weighted>
   9.000000E+99

> <Gold.Protein.RotatedTorsions>
[ 6907 6896 6895 6894 ] final   80.98 input  -60.11 | X-H torsion
[ 7974 7965 7964 7962 ] final  -90.55 input  175.53 | X-H torsion
[ 8008 7997 7996 7995 ] final  177.37 input   59.86 | X-H torsion
[ 10167 10162 10161 10158 ] final  -59.83 input  -65.29 | X-H torsion
[ 10718 10713 10712 10709 ] final  -82.63 input   66.30 | X-H torsion
[ 10763 10752 10751 10750 ] final -161.44 input  -60.55 | X-H torsion
[ 11005 11000 10999 10996 ] final  -15.63 input  -57.11 | X-H torsion

> <Gold.Protein.ActiveResidues>
 VAL166  LYS551  ARG553  GLY616  TRP617  ASP618  TYR619  PRO620  LYS621  CYS622 
 ASP623  PHE694  ASN695  SER759  ASP760  ASP761  ALA762  ILE779  LEU786  VAL792 
 PHE793  MET794  SER795  GLU796  ALA797  LYS798  CYS799  TRP800  GLU811  SER814 

> <Gold.Protein.RotatedAtoms>
  152.5253  134.3275  159.9170 H   0  0  0  0  0  0  0  0  0  0  0  0  # atno 6907 bound_to 6896
  151.3224  133.4028  159.2663 H   0  0  0  0  0  0  0  0  0  0  0  0  # atno 6908 bound_to 6896
  150.9948  134.9292  159.7978 H   0  0  0  0  0  0  0  0  0  0  0  0  # atno 6909 bound_to 6896
  145.4249  140.9553  143.2160 H   0  0  0  0  0  0  0  0  0  0  0  0  # atno 7974 bound_to 7965
  156.0664  140.1360  156.9881 H   0  0  0  0  0  0  0  0  0  0  0  0  # atno 8008 bound_to 7997
  154.4508  140.0981  156.6664 H   0  0  0  0  0  0  0  0  0  0  0  0  # atno 8009 bound_to 7997
  155.5297  140.3458  155.4426 H   0  0  0  0  0  0  0  0  0  0  0  0  # atno 8010 bound_to 7997
  140.6110  143.2387  151.5709 H   0  0  0  0  0  0  0  0  0  0  0  0  # atno 10167 bound_to 10162
  156.0030  130.4640  150.4134 H   0  0  0  0  0  0  0  0  0  0  0  0  # atno 10718 bound_to 10713
  154.7303  135.3045  154.8902 H   0  0  0  0  0  0  0  0  0  0  0  0  # atno 10763 bound_to 10752
  153.9747  135.6737  153.4752 H   0  0  0  0  0  0  0  0  0  0  0  0  # atno 10764 bound_to 10752
  153.0912  135.4958  154.8614 H   0  0  0  0  0  0  0  0  0  0  0  0  # atno 10765 bound_to 10752
  140.7986  133.8232  155.9448 H   0  0  0  0  0  0  0  0  0  0  0  0  # atno 11005 bound_to 11000
  144.8221  139.5774  143.6982 LP  0  0  0  0  0  0  0  0  0  0  0  0  # atno 17320 bound_to 7965
  146.2637  139.6470  142.9344 LP  0  0  0  0  0  0  0  0  0  0  0  0  # atno 17321 bound_to 7965
  139.5361  144.2777  152.1254 LP  0  0  0  0  0  0  0  0  0  0  0  0  # atno 17342 bound_to 10162
  140.1976  144.4690  150.6447 LP  0  0  0  0  0  0  0  0  0  0  0  0  # atno 17343 bound_to 10162
  157.2195  131.0479  151.2554 LP  0  0  0  0  0  0  0  0  0  0  0  0  # atno 17370 bound_to 10713
  157.3813  130.7233  149.6632 LP  0  0  0  0  0  0  0  0  0  0  0  0  # atno 17371 bound_to 10713
  140.9318  134.2012  157.4859 LP  0  0  0  0  0  0  0  0  0  0  0  0  # atno 17394 bound_to 11000
  139.8724  134.9836  156.5203 LP  0  0  0  0  0  0  0  0  0  0  0  0  # atno 17395 bound_to 11000

$$$$
