AV-unprocessed.smi:148|AV-procd|sdf|1228|dock7
  -GOLD-   2262018433D 1   1.00000     0.00000
 Structure written by MMmdl.
 63 67  0  0  0  0  0  0  0  0  1 V2000
  154.7007  140.1759  159.3112 O   0  0  0  0  0  0  0  0  0  0  0  0
  153.4896  140.0831  160.0327 C   0  0  0  0  0  0  0  0  0  0  0  0
  152.4607  141.1349  159.5499 C   0  0  2  0  0  0  0  0  0  0  0  0
  152.2965  141.1476  158.0095 C   0  0  0  0  0  0  0  0  0  0  0  0
  151.5475  140.0084  157.5086 N   0  0  0  0  0  0  0  0  0  0  0  0
  150.3900  139.4903  158.0435 C   0  0  0  0  0  0  0  0  0  0  0  0
  149.9061  138.4506  157.4206 N   0  0  0  0  0  0  0  0  0  0  0  0
  150.7946  138.2415  156.3724 C   0  0  0  0  0  0  0  0  0  0  0  0
  150.8780  137.2950  155.3118 C   0  0  0  0  0  0  0  0  0  0  0  0
  150.0017  136.2875  155.1093 N   0  0  0  0  0  0  0  0  0  0  0  0
  150.3957  135.1518  155.9469 C   0  0  0  0  0  0  0  0  0  0  0  0
  149.6128  133.8859  155.5881 C   0  0  0  0  0  0  0  0  0  0  0  0
  148.1126  134.1627  155.6845 C   0  0  0  0  0  0  0  0  0  0  0  0
  147.7463  135.3492  154.7849 C   0  0  0  0  0  0  0  0  0  0  0  0
  148.5630  136.6305  155.1111 C   0  0  2  0  0  0  0  0  0  0  0  0
  148.1801  137.7766  154.1104 C   0  0  2  0  0  0  0  0  0  0  0  0
  148.7376  139.1879  154.3977 C   0  0  0  0  0  0  0  0  0  0  0  0
  147.8122  140.1888  153.6911 C   0  0  0  0  0  0  0  0  0  0  0  0
  146.6011  139.3856  153.2090 C   0  0  0  0  0  0  0  0  0  0  0  0
  146.6689  138.0565  153.9630 C   0  0  2  0  0  0  0  0  0  0  0  0
  146.0506  138.2232  155.2271 O   0  0  0  0  0  0  0  0  0  0  0  0
  151.9255  137.3862  154.4559 N   0  0  0  0  0  0  0  0  0  0  0  0
  152.8284  138.3595  154.6094 C   0  0  0  0  0  0  0  0  0  0  0  0
  152.8744  139.3176  155.5379 N   0  0  0  0  0  0  0  0  0  0  0  0
  151.8301  139.2163  156.4096 C   0  0  0  0  0  0  0  0  0  0  0  0
  152.7643  142.5496  160.1054 C   0  0  1  0  0  0  0  0  0  0  0  0
  151.9098  143.6611  159.5216 C   0  0  0  0  0  0  0  0  0  0  0  0
  152.0874  144.7739  160.5479 C   0  0  0  0  0  0  0  0  0  0  0  0
  152.2220  144.1162  161.8023 O   0  0  0  0  0  0  0  0  0  0  0  0
  152.4737  142.7289  161.6001 C   0  0  0  0  0  0  0  0  0  0  0  0
  155.2352  140.8483  159.7050 H   0  0  0  0  0  0  0  0  0  0  0  0
  153.0967  139.0717  159.9297 H   0  0  0  0  0  0  0  0  0  0  0  0
  153.7071  140.2106  161.0929 H   0  0  0  0  0  0  0  0  0  0  0  0
  151.4983  140.8296  159.9638 H   0  0  0  0  0  0  0  0  0  0  0  0
  151.7755  142.0486  157.6859 H   0  0  0  0  0  0  0  0  0  0  0  0
  153.2726  141.1667  157.5236 H   0  0  0  0  0  0  0  0  0  0  0  0
  149.9171  139.9073  158.9209 H   0  0  0  0  0  0  0  0  0  0  0  0
  151.4637  134.9563  155.8347 H   0  0  0  0  0  0  0  0  0  0  0  0
  150.2274  135.3959  156.9968 H   0  0  0  0  0  0  0  0  0  0  0  0
  149.8694  133.5642  154.5779 H   0  0  0  0  0  0  0  0  0  0  0  0
  149.8898  133.0713  156.2576 H   0  0  0  0  0  0  0  0  0  0  0  0
  147.5471  133.2778  155.3907 H   0  0  0  0  0  0  0  0  0  0  0  0
  147.8392  134.3826  156.7172 H   0  0  0  0  0  0  0  0  0  0  0  0
  147.9081  135.0703  153.7424 H   0  0  0  0  0  0  0  0  0  0  0  0
  146.6772  135.5267  154.8921 H   0  0  0  0  0  0  0  0  0  0  0  0
  148.2951  136.9456  156.1202 H   0  0  0  0  0  0  0  0  0  0  0  0
  148.5396  137.4821  153.1225 H   0  0  0  0  0  0  0  0  0  0  0  0
  148.7228  139.3844  155.4703 H   0  0  0  0  0  0  0  0  0  0  0  0
  149.7626  139.3146  154.0526 H   0  0  0  0  0  0  0  0  0  0  0  0
  147.5080  140.9738  154.3843 H   0  0  0  0  0  0  0  0  0  0  0  0
  148.3128  140.6713  152.8511 H   0  0  0  0  0  0  0  0  0  0  0  0
  145.6580  139.9142  153.3541 H   0  0  0  0  0  0  0  0  0  0  0  0
  146.7030  139.1952  152.1397 H   0  0  0  0  0  0  0  0  0  0  0  0
  146.1516  137.2702  153.4126 H   0  0  0  0  0  0  0  0  0  0  0  0
  146.6953  138.0649  155.8995 H   0  0  0  0  0  0  0  0  0  0  0  0
  153.6287  138.3721  153.8845 H   0  0  0  0  0  0  0  0  0  0  0  0
  153.8123  142.7959  159.9250 H   0  0  0  0  0  0  0  0  0  0  0  0
  152.2205  143.9656  158.5218 H   0  0  0  0  0  0  0  0  0  0  0  0
  150.8632  143.3562  159.4781 H   0  0  0  0  0  0  0  0  0  0  0  0
  153.0023  145.3328  160.3483 H   0  0  0  0  0  0  0  0  0  0  0  0
  151.2541  145.4767  160.5518 H   0  0  0  0  0  0  0  0  0  0  0  0
  151.5785  142.1771  161.8903 H   0  0  0  0  0  0  0  0  0  0  0  0
  153.2977  142.3865  162.2266 H   0  0  0  0  0  0  0  0  0  0  0  0
  1  2  1  0  0  0  0
  1 31  1  0  0  0  0
  2  3  1  0  0  0  0
  2 32  1  0  0  0  0
  2 33  1  0  0  0  0
  3  4  1  0  0  0  0
  3 26  1  0  0  0  0
  3 34  1  0  0  0  0
  4  5  1  0  0  0  0
  4 35  1  0  0  0  0
  4 36  1  0  0  0  0
  5 25  1  0  0  0  0
  5  6  1  0  0  0  0
  6  7  2  0  0  0  0
  6 37  1  0  0  0  0
  7  8  1  0  0  0  0
  8 25  2  0  0  0  0
  8  9  1  0  0  0  0
  9 10  1  0  0  0  0
  9 22  2  0  0  0  0
 10 15  1  0  0  0  0
 10 11  1  0  0  0  0
 11 12  1  0  0  0  0
 11 38  1  0  0  0  0
 11 39  1  0  0  0  0
 12 13  1  0  0  0  0
 12 40  1  0  0  0  0
 12 41  1  0  0  0  0
 13 14  1  0  0  0  0
 13 42  1  0  0  0  0
 13 43  1  0  0  0  0
 14 15  1  0  0  0  0
 14 44  1  0  0  0  0
 14 45  1  0  0  0  0
 15 16  1  0  0  0  0
 15 46  1  0  0  0  0
 16 20  1  0  0  0  0
 16 17  1  0  0  0  0
 16 47  1  0  0  0  0
 17 18  1  0  0  0  0
 17 48  1  0  0  0  0
 17 49  1  0  0  0  0
 18 19  1  0  0  0  0
 18 50  1  0  0  0  0
 18 51  1  0  0  0  0
 19 20  1  0  0  0  0
 19 52  1  0  0  0  0
 19 53  1  0  0  0  0
 20 21  1  0  0  0  0
 20 54  1  0  0  0  0
 21 55  1  0  0  0  0
 22 23  1  0  0  0  0
 23 24  2  0  0  0  0
 23 56  1  0  0  0  0
 24 25  1  0  0  0  0
 26 30  1  0  0  0  0
 26 27  1  0  0  0  0
 26 57  1  0  0  0  0
 27 28  1  0  0  0  0
 27 58  1  0  0  0  0
 27 59  1  0  0  0  0
 28 29  1  0  0  0  0
 28 60  1  0  0  0  0
 28 61  1  0  0  0  0
 29 30  1  0  0  0  0
 30 62  1  0  0  0  0
 30 63  1  0  0  0  0
M  END
> <s_m_source_file>
AV-unprocessed.smi

> <i_m_source_file_index>
148

> <i_lp_mmshare_version>
43012

> <i_f3d_flags>
0

> <s_epik_input>
W0NIMl0xT1tDSDJdW0NIMl1bQ0BIXTFbQ0BIXShbQ0gyXVtPSF0pW0NIMl1uKFtjSF1uMiljKGMyMyluW2NIXW5jM040W0NIMl1bQ0gyXVtDSDJdW0NIMl1bQ0BIXTRbQ0BASF01W0NIMl1bQ0gyXVtDSDJdW0NASF01W09IXQ==

> <s_epik_cmdline>
J2VwaWtfcHl0aG9uJywgJy1waCcsICc3LjAnLCAnLXRuJywgJzgnLCAnLW1hJywgJzIwMCcsICctbWV0YWxfYmluZGluZycsICctaW1hZScsICc8aW5maWxlLm1hZT4nLCAnLW9tYWUnLCAnPG91dGZpbGUubWFlPic=

> <r_lp_tautomer_probability>
1

> <r_epik_Ionization_Penalty>
0.00556303

> <r_epik_Ionization_Penalty_Charging>
0

> <r_epik_Ionization_Penalty_Neutral>
0.00556303

> <r_epik_State_Penalty>
0.00401767

> <r_epik_Charging_Adjusted_Penalty>
0.00401767

> <i_epik_Tot_Q>
0

> <i_epik_Tot_abs_Q>
0

> <r_epik_Metal_State_Penalty>
-0

> <b_epik_Metal_Only>
0

> <s_lp_Force_Field>
OPLS_2005

> <r_lp_Energy>
70.1865

> <b_lp_Chiralities_Consistent>
1

> <s_lp_Variant>
AV-unprocessed.smi:148-27

> <Gold.Version>
5.8.1

> <Gold.Id.Protein>
6NUR|6NUR_protein|mol2

> <Gold.PLP.Fitness>
49.8005

> <Gold.PLP.PLP>
-43.2137

> <Gold.PLP.part.hbond>
-3.0000

> <Gold.PLP.part.metal>
0.0000

> <Gold.PLP.part.buried>
-3.3497

> <Gold.PLP.part.nonpolar>
-37.2718

> <Gold.PLP.part.repulsive>
0.4756

> <Gold.PLP.ligand.clash>
0.0000

> <Gold.PLP.ligand.torsion>
1.1979

> <Gold.PLP.Chemscore.Hbond>
2.7920

> <Gold.PLP.Chemscore.CHOScore>
0.0000

> <Gold.PLP.Chemscore.Metal>
0.0000

> <Gold.Chemscore.Hbonds>
donor molecule, donor type, donor heavy atom, donor atom, acceptor molecule, acceptor atom, score
      P1  H  7997  8008       L1    24  1.00
      P1  H  7997  8010       L1     1  0.83
      P1  H 10752 10765       L1    22  0.93

> <Gold.PLP.Chemscore.Internal.Correction>
0.6066

> <Gold.Rescore>
     Score         DG    S(hbond)    S(metal)    S(lipo)     H(rot)  DE(clash)    DE(int)     intcor
     14.27     -16.94       1.90        0.00     116.37       3.32       0.79       1.87       ----

> <Gold.Chemscore.Fitness>
14.2719

> <Gold.Chemscore.DG>
-16.9382

> <Gold.Chemscore.ZeroCoef>
-5.4800

> <Gold.Chemscore.Hbond>
1.8989

> <Gold.Chemscore.Metal>
0.0000

> <Gold.Chemscore.Lipo>
116.3738

> <Gold.Chemscore.Internal_Hbond>
0.0000

> <Gold.Chemscore.DEClash>
0.7922

> <Gold.Chemscore.DEInternal>
1.8741

> <Gold.Chemscore.Rot>
3.3203

> <Gold.Chemscore.Internal.Correction>
   9.000000E+99

> <Gold.Chemscore.Hbonds>
donor molecule, donor type, donor heavy atom, donor atom, acceptor molecule, acceptor atom, score
      P1  H  7997  8008       L1    24  0.97
      P1  H  7997  8010       L1     1  0.39
      P1  H 10752 10765       L1    22  0.44

> <Gold.Chemscore.Hbond.Weighted>
-6.3424

> <Gold.Chemscore.Metal.Weighted>
-0.0000

> <Gold.Chemscore.Lipo.Weighted>
-13.6157

> <Gold.Chemscore.Internal_Hbond.Weighted>
0.0000

> <Gold.Chemscore.DEClash.Weighted>
0.7922

> <Gold.Chemscore.DEInternal.Weighted>
1.8741

> <Gold.Chemscore.Rot.Weighted>
8.5000

> <Gold.Chemscore.Internal.Correction.Weighted>
   9.000000E+99

> <Gold.Protein.RotatedTorsions>
[ 6907 6896 6895 6894 ] final -146.40 input  -60.11 | X-H torsion
[ 7974 7965 7964 7962 ] final  100.22 input  175.53 | X-H torsion
[ 8008 7997 7996 7995 ] final  -13.99 input   59.86 | X-H torsion
[ 10167 10162 10161 10158 ] final   73.49 input  -65.29 | X-H torsion
[ 10718 10713 10712 10709 ] final -150.94 input   66.30 | X-H torsion
[ 10763 10752 10751 10750 ] final  157.01 input  -60.55 | X-H torsion
[ 11005 11000 10999 10996 ] final   -4.08 input  -57.11 | X-H torsion

> <Gold.Protein.ActiveResidues>
 VAL166  LYS551  ARG553  GLY616  TRP617  ASP618  TYR619  PRO620  LYS621  CYS622 
 ASP623  PHE694  ASN695  SER759  ASP760  ASP761  ALA762  ILE779  LEU786  VAL792 
 PHE793  MET794  SER795  GLU796  ALA797  LYS798  CYS799  TRP800  GLU811  SER814 

> <Gold.Protein.RotatedAtoms>
  151.1411  133.4971  159.2596 H   0  0  0  0  0  0  0  0  0  0  0  0  # atno 6907 bound_to 6896
  151.1654  135.0293  159.8738 H   0  0  0  0  0  0  0  0  0  0  0  0  # atno 6908 bound_to 6896
  152.5462  134.1280  159.8480 H   0  0  0  0  0  0  0  0  0  0  0  0  # atno 6909 bound_to 6896
  145.3885  139.2367  143.3365 H   0  0  0  0  0  0  0  0  0  0  0  0  # atno 7974 bound_to 7965
  154.5246  140.2235  155.8912 H   0  0  0  0  0  0  0  0  0  0  0  0  # atno 8008 bound_to 7997
  156.1700  140.3124  155.8921 H   0  0  0  0  0  0  0  0  0  0  0  0  # atno 8009 bound_to 7997
  155.3578  140.0459  157.3037 H   0  0  0  0  0  0  0  0  0  0  0  0  # atno 8010 bound_to 7997
  140.0240  144.5518  150.7559 H   0  0  0  0  0  0  0  0  0  0  0  0  # atno 10167 bound_to 10162
  156.4527  130.8175  151.2406 H   0  0  0  0  0  0  0  0  0  0  0  0  # atno 10718 bound_to 10713
  154.1935  135.2793  155.3014 H   0  0  0  0  0  0  0  0  0  0  0  0  # atno 10763 bound_to 10752
  154.5910  135.5559  153.7282 H   0  0  0  0  0  0  0  0  0  0  0  0  # atno 10764 bound_to 10752
  153.0106  135.6368  154.2073 H   0  0  0  0  0  0  0  0  0  0  0  0  # atno 10765 bound_to 10752
  140.6764  133.9191  155.8527 H   0  0  0  0  0  0  0  0  0  0  0  0  # atno 11005 bound_to 11000
  146.2809  140.4564  142.8777 LP  0  0  0  0  0  0  0  0  0  0  0  0  # atno 17320 bound_to 7965
  144.8457  140.6925  143.6200 LP  0  0  0  0  0  0  0  0  0  0  0  0  # atno 17321 bound_to 7965
  140.7330  143.2713  151.3881 LP  0  0  0  0  0  0  0  0  0  0  0  0  # atno 17342 bound_to 10162
  139.6121  144.1078  152.2309 LP  0  0  0  0  0  0  0  0  0  0  0  0  # atno 17343 bound_to 10162
  157.7502  131.0132  150.3417 LP  0  0  0  0  0  0  0  0  0  0  0  0  # atno 17370 bound_to 10713
  156.3799  130.3878  149.7110 LP  0  0  0  0  0  0  0  0  0  0  0  0  # atno 17371 bound_to 10713
  141.0352  134.0700  157.3968 LP  0  0  0  0  0  0  0  0  0  0  0  0  # atno 17394 bound_to 11000
  139.8965  135.0146  156.7056 LP  0  0  0  0  0  0  0  0  0  0  0  0  # atno 17395 bound_to 11000

$$$$
