AV-unprocessed.smi:21|AV-procd|sdf|150|dock9
  -GOLD-   2262015373D 1   1.00000     0.00000
 Structure written by MMmdl.
 62 65  0  0  0  0  0  0  0  0  2 V2000
  145.6435  129.0534  152.0182 C   0  0  0  0  0  0  0  0  0  0  0  0
  145.9244  130.3402  152.5460 O   0  0  0  0  0  0  0  0  0  0  0  0
  145.8942  131.3783  151.5749 C   0  0  2  0  0  0  0  0  0  0  0  0
  146.7215  132.5504  152.0851 C   0  0  0  0  0  0  0  0  0  0  0  0
  145.7743  133.2750  153.0487 C   0  0  1  0  0  0  0  0  0  0  0  0
  146.1538  134.7508  153.3253 C   0  0  0  0  0  0  0  0  0  0  0  0
  147.1826  134.8812  154.3598 N   0  0  0  0  0  0  0  0  0  0  0  0
  148.3835  134.0632  154.2458 C   0  0  0  0  0  0  0  0  0  0  0  0
  147.1830  135.9717  155.1767 C   0  0  0  0  0  0  0  0  0  0  0  0
  145.9905  136.5637  155.4515 N   0  0  0  0  0  0  0  0  0  0  0  0
  145.9253  137.6362  156.2441 C   0  0  0  0  0  0  0  0  0  0  0  0
  146.9187  138.2795  156.8569 N   0  0  0  0  0  0  0  0  0  0  0  0
  148.1225  137.7008  156.5860 C   0  0  0  0  0  0  0  0  0  0  0  0
  148.3463  136.5559  155.7663 C   0  0  0  0  0  0  0  0  0  0  0  0
  149.7100  136.2818  155.7209 N   0  0  0  0  0  0  0  0  0  0  0  0
  150.2543  137.1984  156.4723 C   0  0  0  0  0  0  0  0  0  0  0  0
  149.3720  138.0881  157.0377 N   0  0  0  0  0  0  0  0  0  0  0  0
  149.7069  139.2018  157.9086 C   0  0  0  0  0  0  0  0  0  0  0  0
  150.6267  140.2506  157.2363 C   0  0  1  0  0  0  0  0  0  0  0  0
  150.2429  140.4288  155.7486 C   0  0  0  0  0  0  0  0  0  0  0  0
  151.3822  140.3062  154.9226 O   0  0  0  0  0  0  0  0  0  0  0  0
  150.6830  141.5887  158.0260 C   0  0  1  0  0  0  0  0  0  0  0  0
  151.6097  141.6004  159.2428 C   0  0  0  0  0  0  0  0  0  0  0  0
  152.3867  142.9115  159.1116 C   0  0  0  0  0  0  0  0  0  0  0  0
  151.6044  143.6999  158.2289 O   0  0  0  0  0  0  0  0  0  0  0  0
  151.1162  142.8237  157.2276 C   0  0  0  0  0  0  0  0  0  0  0  0
  144.4033  133.0437  152.5078 N   0  3  1  0  0  0  0  0  0  0  0  0
  143.6332  134.2301  152.0640 C   0  0  0  0  0  0  0  0  0  0  0  0
  144.4928  131.9908  151.4668 C   0  0  0  0  0  0  0  0  0  0  0  0
  146.2724  131.0223  150.6150 H   0  0  0  0  0  0  0  0  0  0  0  0
  145.7956  132.7362  153.9972 H   0  0  0  0  0  0  0  0  0  0  0  0
  145.6781  128.3168  152.8208 H   0  0  0  0  0  0  0  0  0  0  0  0
  146.3836  128.7665  151.2702 H   0  0  0  0  0  0  0  0  0  0  0  0
  144.6533  129.0067  151.5649 H   0  0  0  0  0  0  0  0  0  0  0  0
  147.6533  132.2367  152.5574 H   0  0  0  0  0  0  0  0  0  0  0  0
  146.9759  133.2052  151.2502 H   0  0  0  0  0  0  0  0  0  0  0  0
  146.4499  135.2511  152.4038 H   0  0  0  0  0  0  0  0  0  0  0  0
  145.2761  135.2905  153.6819 H   0  0  0  0  0  0  0  0  0  0  0  0
  148.8138  133.8619  155.2276 H   0  0  0  0  0  0  0  0  0  0  0  0
  149.1318  134.5597  153.6276 H   0  0  0  0  0  0  0  0  0  0  0  0
  148.1519  133.1023  153.7860 H   0  0  0  0  0  0  0  0  0  0  0  0
  144.9359  138.0359  156.4116 H   0  0  0  0  0  0  0  0  0  0  0  0
  151.3207  137.2506  156.6386 H   0  0  0  0  0  0  0  0  0  0  0  0
  148.7708  139.6627  158.2256 H   0  0  0  0  0  0  0  0  0  0  0  0
  150.1775  138.8135  158.8124 H   0  0  0  0  0  0  0  0  0  0  0  0
  151.6412  139.8488  157.2584 H   0  0  0  0  0  0  0  0  0  0  0  0
  149.5072  139.6860  155.4402 H   0  0  0  0  0  0  0  0  0  0  0  0
  149.8039  141.4073  155.5596 H   0  0  0  0  0  0  0  0  0  0  0  0
  151.8856  139.5608  155.2131 H   0  0  0  0  0  0  0  0  0  0  0  0
  149.6898  141.8040  158.4213 H   0  0  0  0  0  0  0  0  0  0  0  0
  151.0178  141.5968  160.1590 H   0  0  0  0  0  0  0  0  0  0  0  0
  152.2834  140.7456  159.2951 H   0  0  0  0  0  0  0  0  0  0  0  0
  152.5359  143.4103  160.0695 H   0  0  0  0  0  0  0  0  0  0  0  0
  153.3652  142.7346  158.6626 H   0  0  0  0  0  0  0  0  0  0  0  0
  151.9234  142.6056  156.5285 H   0  0  0  0  0  0  0  0  0  0  0  0
  150.2954  143.2742  156.6699 H   0  0  0  0  0  0  0  0  0  0  0  0
  144.1486  134.7622  151.2633 H   0  0  0  0  0  0  0  0  0  0  0  0
  143.4565  134.9200  152.8889 H   0  0  0  0  0  0  0  0  0  0  0  0
  142.6571  133.9223  151.6880 H   0  0  0  0  0  0  0  0  0  0  0  0
  144.3893  132.4441  150.4794 H   0  0  0  0  0  0  0  0  0  0  0  0
  143.6891  131.2624  151.5723 H   0  0  0  0  0  0  0  0  0  0  0  0
  143.8791  132.6429  153.2727 H   0  0  0  0  0  0  0  0  0  0  0  0
  1  2  1  0  0  0  0
  1 32  1  0  0  0  0
  1 33  1  0  0  0  0
  1 34  1  0  0  0  0
  2  3  1  0  0  0  0
  3 30  1  0  0  0  0
  3 29  1  0  0  0  0
  3  4  1  0  0  0  0
  4  5  1  0  0  0  0
  4 35  1  0  0  0  0
  4 36  1  0  0  0  0
  5 31  1  0  0  0  0
  5  6  1  0  0  0  0
  5 27  1  0  0  0  0
  6  7  1  0  0  0  0
  6 37  1  0  0  0  0
  6 38  1  0  0  0  0
  7  8  1  0  0  0  0
  7  9  1  0  0  0  0
  8 39  1  0  0  0  0
  8 40  1  0  0  0  0
  8 41  1  0  0  0  0
  9 14  1  0  0  0  0
  9 10  2  0  0  0  0
 10 11  1  0  0  0  0
 11 12  2  0  0  0  0
 11 42  1  0  0  0  0
 12 13  1  0  0  0  0
 13 17  1  0  0  0  0
 13 14  2  0  0  0  0
 14 15  1  0  0  0  0
 15 16  2  0  0  0  0
 16 17  1  0  0  0  0
 16 43  1  0  0  0  0
 17 18  1  0  0  0  0
 18 19  1  0  0  0  0
 18 44  1  0  0  0  0
 18 45  1  0  0  0  0
 19 20  1  0  0  0  0
 19 22  1  0  0  0  0
 19 46  1  0  0  0  0
 20 21  1  0  0  0  0
 20 47  1  0  0  0  0
 20 48  1  0  0  0  0
 21 49  1  0  0  0  0
 22 26  1  0  0  0  0
 22 23  1  0  0  0  0
 22 50  1  0  0  0  0
 23 24  1  0  0  0  0
 23 51  1  0  0  0  0
 23 52  1  0  0  0  0
 24 25  1  0  0  0  0
 24 53  1  0  0  0  0
 24 54  1  0  0  0  0
 25 26  1  0  0  0  0
 26 55  1  0  0  0  0
 26 56  1  0  0  0  0
 27 28  1  0  0  0  0
 27 29  1  0  0  0  0
 27 62  1  0  0  0  0
 28 57  1  0  0  0  0
 28 58  1  0  0  0  0
 28 59  1  0  0  0  0
 29 60  1  0  0  0  0
 29 61  1  0  0  0  0
M  CHG  1  27   1
M  END
> <s_m_source_file>
AV-unprocessed.smi

> <i_m_source_file_index>
21

> <i_lp_mmshare_version>
43012

> <i_f3d_flags>
0

> <s_epik_input>
W0NIM11PW0NASF0xW0NIMl1bQ0BIXShOKFtDSDNdKVtDSDJdMSlbQ0gyXU4oW0NIM10pYyhuW2NIXW4yKWMoYzIzKW5bY0hdbjNbQ0gyXVtDQEhdKFtDSDJdW09IXSlbQ0BASF00W0NIMl1bQ0gyXU9bQ0gyXTQ=

> <s_epik_cmdline>
J2VwaWtfcHl0aG9uJywgJy1waCcsICc3LjAnLCAnLXRuJywgJzgnLCAnLW1hJywgJzIwMCcsICctbWV0YWxfYmluZGluZycsICctaW1hZScsICc8aW5maWxlLm1hZT4nLCAnLW9tYWUnLCAnPG91dGZpbGUubWFlPic=

> <r_lp_tautomer_probability>
1

> <r_epik_Ionization_Penalty>
0.0157465

> <r_epik_Ionization_Penalty_Charging>
0.015354

> <r_epik_Ionization_Penalty_Neutral>
0.000392529

> <r_epik_State_Penalty>
0.0120612

> <r_epik_Charging_Adjusted_Penalty>
0.0274152

> <i_epik_Tot_Q>
1

> <i_epik_Tot_abs_Q>
1

> <r_epik_Metal_State_Penalty>
0.0121253

> <b_epik_Metal_Only>
0

> <s_lp_Force_Field>
OPLS_2005

> <r_lp_Energy>
62.4591

> <b_lp_Chiralities_Consistent>
1

> <s_lp_Variant>
AV-unprocessed.smi:21-30

> <Gold.Version>
5.8.1

> <Gold.Id.Protein>
6NUR|6NUR_protein|mol2

> <Gold.PLP.Fitness>
40.9151

> <Gold.PLP.PLP>
-35.9661

> <Gold.PLP.part.hbond>
-1.9847

> <Gold.PLP.part.metal>
0.0000

> <Gold.PLP.part.buried>
-7.5213

> <Gold.PLP.part.nonpolar>
-27.7091

> <Gold.PLP.part.repulsive>
0.3393

> <Gold.PLP.ligand.clash>
0.0000

> <Gold.PLP.ligand.torsion>
2.3841

> <Gold.PLP.Chemscore.Hbond>
3.0000

> <Gold.PLP.Chemscore.CHOScore>
0.0000

> <Gold.PLP.Chemscore.Metal>
0.0000

> <Gold.Chemscore.Hbonds>
donor molecule, donor type, donor heavy atom, donor atom, acceptor molecule, acceptor atom, score
      L1  H    27    62       P1 10957  1.59
      P1  H  7989  7998       L1    21  1.00

> <Gold.PLP.Chemscore.Internal.Correction>
0.7171

> <Gold.Rescore>
     Score         DG    S(hbond)    S(metal)    S(lipo)     H(rot)  DE(clash)    DE(int)     intcor
     10.81     -14.23       1.75        0.00      92.16       3.08       0.10       3.33       ----

> <Gold.Chemscore.Fitness>
10.8071

> <Gold.Chemscore.DG>
-14.2350

> <Gold.Chemscore.ZeroCoef>
-5.4800

> <Gold.Chemscore.Hbond>
1.7505

> <Gold.Chemscore.Metal>
0.0000

> <Gold.Chemscore.Lipo>
92.1567

> <Gold.Chemscore.Internal_Hbond>
0.0000

> <Gold.Chemscore.DEClash>
0.1019

> <Gold.Chemscore.DEInternal>
3.3259

> <Gold.Chemscore.Rot>
3.0758

> <Gold.Chemscore.Internal.Correction>
   9.000000E+99

> <Gold.Chemscore.Hbonds>
donor molecule, donor type, donor heavy atom, donor atom, acceptor molecule, acceptor atom, score
      L1  H    27    62       P1 10957  0.24
      P1  H  7989  7998       L1    21  0.89

> <Gold.Chemscore.Hbond.Weighted>
-5.8468

> <Gold.Chemscore.Metal.Weighted>
-0.0000

> <Gold.Chemscore.Lipo.Weighted>
-10.7823

> <Gold.Chemscore.Internal_Hbond.Weighted>
0.0000

> <Gold.Chemscore.DEClash.Weighted>
0.1019

> <Gold.Chemscore.DEInternal.Weighted>
3.3259

> <Gold.Chemscore.Rot.Weighted>
7.8741

> <Gold.Chemscore.Internal.Correction.Weighted>
   9.000000E+99

> <Gold.Protein.RotatedTorsions>
[ 6907 6896 6895 6894 ] final -118.09 input  -60.11 | X-H torsion
[ 7974 7965 7964 7962 ] final  -97.28 input  175.53 | X-H torsion
[ 8008 7997 7996 7995 ] final  -38.04 input   59.86 | X-H torsion
[ 10167 10162 10161 10158 ] final -166.98 input  -65.29 | X-H torsion
[ 10718 10713 10712 10709 ] final  126.97 input   66.30 | X-H torsion
[ 10763 10752 10751 10750 ] final   48.49 input  -60.55 | X-H torsion
[ 11005 11000 10999 10996 ] final  114.65 input  -57.11 | X-H torsion

> <Gold.Protein.ActiveResidues>
 VAL166  LYS551  ARG553  GLY616  TRP617  ASP618  TYR619  PRO620  LYS621  CYS622 
 ASP623  PHE694  ASN695  SER759  ASP760  ASP761  ALA762  ILE779  LEU786  VAL792 
 PHE793  MET794  SER795  GLU796  ALA797  LYS798  CYS799  TRP800  GLU811  SER814 

> <Gold.Protein.RotatedAtoms>
  150.8191  133.8284  159.3146 H   0  0  0  0  0  0  0  0  0  0  0  0  # atno 6907 bound_to 6896
  151.6048  135.1043  160.0077 H   0  0  0  0  0  0  0  0  0  0  0  0  # atno 6908 bound_to 6896
  152.4281  133.7189  159.6578 H   0  0  0  0  0  0  0  0  0  0  0  0  # atno 6909 bound_to 6896
  145.3358  140.9450  143.2636 H   0  0  0  0  0  0  0  0  0  0  0  0  # atno 7974 bound_to 7965
  154.4043  140.1588  156.2635 H   0  0  0  0  0  0  0  0  0  0  0  0  # atno 8008 bound_to 7997
  155.9015  140.3433  155.6008 H   0  0  0  0  0  0  0  0  0  0  0  0  # atno 8009 bound_to 7997
  155.7442  140.0796  157.2222 H   0  0  0  0  0  0  0  0  0  0  0  0  # atno 8010 bound_to 7997
  139.6079  144.0875  152.1812 H   0  0  0  0  0  0  0  0  0  0  0  0  # atno 10167 bound_to 10162
  157.5373  131.1097  150.8915 H   0  0  0  0  0  0  0  0  0  0  0  0  # atno 10718 bound_to 10713
  152.9792  135.5942  154.3934 H   0  0  0  0  0  0  0  0  0  0  0  0  # atno 10763 bound_to 10752
  154.3587  135.2767  155.2334 H   0  0  0  0  0  0  0  0  0  0  0  0  # atno 10764 bound_to 10752
  154.4341  135.6029  153.6142 H   0  0  0  0  0  0  0  0  0  0  0  0  # atno 10765 bound_to 10752
  139.8986  134.9571  156.6924 H   0  0  0  0  0  0  0  0  0  0  0  0  # atno 11005 bound_to 11000
  144.8829  139.4879  143.6714 LP  0  0  0  0  0  0  0  0  0  0  0  0  # atno 17320 bound_to 7965
  146.3027  139.7480  142.9079 LP  0  0  0  0  0  0  0  0  0  0  0  0  # atno 17321 bound_to 7965
  140.0487  144.5950  150.7353 LP  0  0  0  0  0  0  0  0  0  0  0  0  # atno 17342 bound_to 10162
  140.7298  143.2676  151.3992 LP  0  0  0  0  0  0  0  0  0  0  0  0  # atno 17343 bound_to 10162
  156.9478  130.5408  149.5281 LP  0  0  0  0  0  0  0  0  0  0  0  0  # atno 17370 bound_to 10713
  156.0468  130.5544  150.8900 LP  0  0  0  0  0  0  0  0  0  0  0  0  # atno 17371 bound_to 10713
  140.7215  133.9137  155.8150 LP  0  0  0  0  0  0  0  0  0  0  0  0  # atno 17394 bound_to 11000
  141.0224  134.0870  157.4106 LP  0  0  0  0  0  0  0  0  0  0  0  0  # atno 17395 bound_to 11000

$$$$
