AV-unprocessed.smi:2862|AV-procd|sdf|11008|dock1
  -GOLD-   2272015463D 1   1.00000     0.00000
 Structure written by MMmdl.
 52 54  0  0  0  0  0  0  0  0  1 V2000
  152.1432  141.0144  159.8616 C   0  0  0  0  0  0  0  0  0  0  0  0
  151.5236  141.9751  158.8324 C   0  0  2  0  0  0  0  0  0  0  0  0
  151.3728  141.2886  157.5522 N   0  0  0  0  0  0  0  0  0  0  0  0
  150.2024  140.9945  156.9569 C   0  0  0  0  0  0  0  0  0  0  0  0
  149.1154  141.3319  157.4249 O   0  0  0  0  0  0  0  0  0  0  0  0
  150.2258  140.1866  155.6480 C   0  0  0  0  0  0  0  0  0  0  0  0
  149.0732  140.4105  154.7568 N   0  0  0  0  0  0  0  0  0  0  0  0
  148.5803  141.7295  154.6796 C   0  0  0  0  0  0  0  0  0  0  0  0
  147.5374  142.0596  153.9016 C   0  0  0  0  0  0  0  0  0  0  0  0
  146.9073  141.0202  153.1250 C   0  0  0  0  0  0  0  0  0  0  0  0
  147.3561  139.7512  153.2131 C   0  0  0  0  0  0  0  0  0  0  0  0
  146.7583  138.6884  152.4068 C   0  0  0  0  0  0  0  0  0  0  0  0
  146.8530  138.6881  151.1780 O   0  0  0  0  0  0  0  0  0  0  0  0
  146.0677  137.7164  153.0707 N   0  0  0  0  0  0  0  0  0  0  0  0
  145.9216  137.8516  154.5274 C   0  0  0  0  0  0  0  0  0  0  0  0
  145.5637  136.4425  152.5051 C   0  0  2  0  0  0  0  0  0  0  0  0
  144.0238  136.4163  152.4736 C   0  0  0  0  0  0  0  0  0  0  0  0
  146.1506  135.2007  153.1587 C   0  0  0  0  0  0  0  0  0  0  0  0
  145.7325  133.8194  152.7155 C   0  0  0  0  0  0  0  0  0  0  0  0
  145.3203  134.3344  154.0762 C   0  0  0  0  0  0  0  0  0  0  0  0
  148.5216  139.3782  154.0460 C   0  0  0  0  0  0  0  0  0  0  0  0
  148.9834  138.2361  154.1125 O   0  0  0  0  0  0  0  0  0  0  0  0
  152.3466  143.2457  158.7276 C   0  0  0  0  0  0  0  0  0  0  0  0
  152.1812  144.3520  159.7436 C   0  0  0  0  0  0  0  0  0  0  0  0
  151.7219  144.5594  158.3203 C   0  0  0  0  0  0  0  0  0  0  0  0
  152.2336  141.4904  160.8382 H   0  0  0  0  0  0  0  0  0  0  0  0
  153.1399  140.6943  159.5552 H   0  0  0  0  0  0  0  0  0  0  0  0
  151.5326  140.1206  159.9929 H   0  0  0  0  0  0  0  0  0  0  0  0
  150.5328  142.2607  159.1908 H   0  0  0  0  0  0  0  0  0  0  0  0
  152.2218  140.9781  157.1022 H   0  0  0  0  0  0  0  0  0  0  0  0
  151.1465  140.4388  155.1197 H   0  0  0  0  0  0  0  0  0  0  0  0
  150.3335  139.1289  155.8950 H   0  0  0  0  0  0  0  0  0  0  0  0
  149.1014  142.4490  155.2948 H   0  0  0  0  0  0  0  0  0  0  0  0
  147.1763  143.0768  153.8611 H   0  0  0  0  0  0  0  0  0  0  0  0
  146.0745  141.2660  152.4813 H   0  0  0  0  0  0  0  0  0  0  0  0
  146.8980  137.9190  155.0099 H   0  0  0  0  0  0  0  0  0  0  0  0
  145.4016  137.0137  154.9896 H   0  0  0  0  0  0  0  0  0  0  0  0
  145.3584  138.7535  154.7708 H   0  0  0  0  0  0  0  0  0  0  0  0
  145.8505  136.3530  151.4598 H   0  0  0  0  0  0  0  0  0  0  0  0
  143.6620  135.5398  151.9392 H   0  0  0  0  0  0  0  0  0  0  0  0
  143.6201  137.2924  151.9670 H   0  0  0  0  0  0  0  0  0  0  0  0
  143.5880  136.3818  153.4712 H   0  0  0  0  0  0  0  0  0  0  0  0
  147.1954  135.3051  153.4441 H   0  0  0  0  0  0  0  0  0  0  0  0
  144.9604  133.7442  151.9524 H   0  0  0  0  0  0  0  0  0  0  0  0
  146.5015  133.0504  152.6785 H   0  0  0  0  0  0  0  0  0  0  0  0
  145.8136  133.9080  154.9472 H   0  0  0  0  0  0  0  0  0  0  0  0
  144.2719  134.5896  154.2128 H   0  0  0  0  0  0  0  0  0  0  0  0
  153.3668  143.0761  158.3878 H   0  0  0  0  0  0  0  0  0  0  0  0
  151.4126  144.2341  160.5050 H   0  0  0  0  0  0  0  0  0  0  0  0
  153.0788  144.8768  160.0641 H   0  0  0  0  0  0  0  0  0  0  0  0
  152.3131  145.2355  157.7070 H   0  0  0  0  0  0  0  0  0  0  0  0
  150.6499  144.5766  158.1339 H   0  0  0  0  0  0  0  0  0  0  0  0
  1  2  1  0  0  0  0
  1 26  1  0  0  0  0
  1 27  1  0  0  0  0
  1 28  1  0  0  0  0
  2  3  1  0  0  0  0
  2 23  1  0  0  0  0
  2 29  1  0  0  0  0
  3  4  1  0  0  0  0
  3 30  1  0  0  0  0
  4  5  2  0  0  0  0
  4  6  1  0  0  0  0
  6  7  1  0  0  0  0
  6 31  1  0  0  0  0
  6 32  1  0  0  0  0
  7 21  1  0  0  0  0
  7  8  1  0  0  0  0
  8  9  2  0  0  0  0
  8 33  1  0  0  0  0
  9 10  1  0  0  0  0
  9 34  1  0  0  0  0
 10 11  2  0  0  0  0
 10 35  1  0  0  0  0
 11 12  1  0  0  0  0
 11 21  1  0  0  0  0
 12 13  2  0  0  0  0
 12 14  1  0  0  0  0
 14 15  1  0  0  0  0
 14 16  1  0  0  0  0
 15 36  1  0  0  0  0
 15 37  1  0  0  0  0
 15 38  1  0  0  0  0
 16 17  1  0  0  0  0
 16 18  1  0  0  0  0
 16 39  1  0  0  0  0
 17 40  1  0  0  0  0
 17 41  1  0  0  0  0
 17 42  1  0  0  0  0
 18 20  1  0  0  0  0
 18 19  1  0  0  0  0
 18 43  1  0  0  0  0
 19 20  1  0  0  0  0
 19 44  1  0  0  0  0
 19 45  1  0  0  0  0
 20 46  1  0  0  0  0
 20 47  1  0  0  0  0
 21 22  2  0  0  0  0
 23 25  1  0  0  0  0
 23 24  1  0  0  0  0
 23 48  1  0  0  0  0
 24 25  1  0  0  0  0
 24 49  1  0  0  0  0
 24 50  1  0  0  0  0
 25 51  1  0  0  0  0
 25 52  1  0  0  0  0
M  END
> <s_m_source_file>
AV-unprocessed.smi

> <i_m_source_file_index>
2862

> <i_lp_mmshare_version>
43012

> <i_f3d_flags>
0

> <s_epik_input>
W0NIMl0xW0NIMl1bQ0hdMVtDQEhdKFtDSDNdKVtOSF1DKD1PKVtDSDJdbjJbY0hdW2NIXVtjSF1jKGMyPU8pQyg9TylOKFtDSDNdKVtDQEhdKFtDSDNdKVtDSF0zW0NIMl1bQ0gyXTM=

> <s_epik_cmdline>
J2VwaWtfcHl0aG9uJywgJy1waCcsICc3LjAnLCAnLXRuJywgJzgnLCAnLW1hJywgJzIwMCcsICctbWV0YWxfYmluZGluZycsICctaW1hZScsICc8aW5maWxlLm1hZT4nLCAnLW9tYWUnLCAnPG91dGZpbGUubWFlPic=

> <r_lp_tautomer_probability>
1

> <r_epik_Ionization_Penalty>
4.00841e-08

> <r_epik_Ionization_Penalty_Charging>
2.07773e-08

> <r_epik_Ionization_Penalty_Neutral>
1.93069e-08

> <r_epik_State_Penalty>
-0

> <r_epik_Charging_Adjusted_Penalty>
2.07773e-08

> <i_epik_Tot_Q>
0

> <i_epik_Tot_abs_Q>
0

> <r_epik_Metal_State_Penalty>
-0

> <b_epik_Metal_Only>
0

> <s_lp_Force_Field>
OPLS_2005

> <r_lp_Energy>
63.2381

> <b_lp_Chiralities_Consistent>
1

> <s_lp_Variant>
AV-unprocessed.smi:2862-1

> <Gold.Version>
5.8.1

> <Gold.Id.Protein>
6NUR|6NUR_protein|mol2

> <Gold.PLP.Fitness>
47.5605

> <Gold.PLP.PLP>
-44.4929

> <Gold.PLP.part.hbond>
-1.0000

> <Gold.PLP.part.metal>
0.0000

> <Gold.PLP.part.buried>
-4.3263

> <Gold.PLP.part.nonpolar>
-41.0382

> <Gold.PLP.part.repulsive>
2.0223

> <Gold.PLP.ligand.clash>
1.1158

> <Gold.PLP.ligand.torsion>
3.3163

> <Gold.PLP.Chemscore.Hbond>
1.0000

> <Gold.PLP.Chemscore.CHOScore>
1.0000

> <Gold.PLP.Chemscore.Metal>
0.0000

> <Gold.Chemscore.Hbonds>
donor molecule, donor type, donor heavy atom, donor atom, acceptor molecule, acceptor atom, score
      P1  H  7954  7966       L1    13  1.00
      L1  C     8    33       P1  8028  1.00

> <Gold.PLP.Chemscore.Internal.Correction>
4.8160

> <Gold.Rescore>
     Score         DG    S(hbond)    S(metal)    S(lipo)     H(rot)  DE(clash)    DE(int)     intcor
     11.23     -16.66       0.99        0.00     105.29       1.73       0.74       4.70       ----

> <Gold.Chemscore.Fitness>
11.2250

> <Gold.Chemscore.DG>
-16.6621

> <Gold.Chemscore.ZeroCoef>
-5.4800

> <Gold.Chemscore.Hbond>
0.9893

> <Gold.Chemscore.Metal>
0.0000

> <Gold.Chemscore.Lipo>
105.2919

> <Gold.Chemscore.Internal_Hbond>
0.0000

> <Gold.Chemscore.DEClash>
0.7411

> <Gold.Chemscore.DEInternal>
4.6961

> <Gold.Chemscore.Rot>
1.7348

> <Gold.Chemscore.Internal.Correction>
   9.000000E+99

> <Gold.Chemscore.Hbonds>
donor molecule, donor type, donor heavy atom, donor atom, acceptor molecule, acceptor atom, score
      P1  H  7954  7966       L1    13  0.91

> <Gold.Chemscore.Hbond.Weighted>
-3.3041

> <Gold.Chemscore.Metal.Weighted>
-0.0000

> <Gold.Chemscore.Lipo.Weighted>
-12.3192

> <Gold.Chemscore.Internal_Hbond.Weighted>
0.0000

> <Gold.Chemscore.DEClash.Weighted>
0.7411

> <Gold.Chemscore.DEInternal.Weighted>
4.6961

> <Gold.Chemscore.Rot.Weighted>
4.4412

> <Gold.Chemscore.Internal.Correction.Weighted>
   9.000000E+99

> <Gold.Protein.RotatedTorsions>
[ 6907 6896 6895 6894 ] final  144.87 input  -60.11 | X-H torsion
[ 7974 7965 7964 7962 ] final  150.53 input  175.53 | X-H torsion
[ 8008 7997 7996 7995 ] final  -57.94 input   59.86 | X-H torsion
[ 10167 10162 10161 10158 ] final  -65.00 input  -65.29 | X-H torsion
[ 10718 10713 10712 10709 ] final -109.68 input   66.30 | X-H torsion
[ 10763 10752 10751 10750 ] final  161.60 input  -60.55 | X-H torsion
[ 11005 11000 10999 10996 ] final  -18.91 input  -57.11 | X-H torsion

> <Gold.Protein.ActiveResidues>
 VAL166  LYS551  ARG553  GLY616  TRP617  ASP618  TYR619  PRO620  LYS621  CYS622 
 ASP623  PHE694  ASN695  SER759  ASP760  ASP761  ALA762  ILE779  LEU786  VAL792 
 PHE793  MET794  SER795  GLU796  ALA797  LYS798  CYS799  TRP800  GLU811  SER814 

> <Gold.Protein.RotatedAtoms>
  152.1881  133.4754  159.4993 H   0  0  0  0  0  0  0  0  0  0  0  0  # atno 6907 bound_to 6896
  150.6946  134.1747  159.4235 H   0  0  0  0  0  0  0  0  0  0  0  0  # atno 6908 bound_to 6896
  151.9661  135.0099  160.0601 H   0  0  0  0  0  0  0  0  0  0  0  0  # atno 6909 bound_to 6896
  144.8358  139.6420  143.6039 H   0  0  0  0  0  0  0  0  0  0  0  0  # atno 7974 bound_to 7965
  154.4288  140.1095  156.5877 H   0  0  0  0  0  0  0  0  0  0  0  0  # atno 8008 bound_to 7997
  155.6045  140.3493  155.4585 H   0  0  0  0  0  0  0  0  0  0  0  0  # atno 8009 bound_to 7997
  156.0147  140.1227  157.0407 H   0  0  0  0  0  0  0  0  0  0  0  0  # atno 8010 bound_to 7997
  140.5761  143.2322  151.6439 H   0  0  0  0  0  0  0  0  0  0  0  0  # atno 10167 bound_to 10162
  156.0550  130.5776  150.8133 H   0  0  0  0  0  0  0  0  0  0  0  0  # atno 10718 bound_to 10713
  154.2655  135.2767  155.2760 H   0  0  0  0  0  0  0  0  0  0  0  0  # atno 10763 bound_to 10752
  154.5347  135.5720  153.6792 H   0  0  0  0  0  0  0  0  0  0  0  0  # atno 10764 bound_to 10752
  152.9954  135.6236  154.2807 H   0  0  0  0  0  0  0  0  0  0  0  0  # atno 10765 bound_to 10752
  140.8315  133.7993  155.9763 H   0  0  0  0  0  0  0  0  0  0  0  0  # atno 11005 bound_to 11000
  146.2656  139.6513  142.9331 LP  0  0  0  0  0  0  0  0  0  0  0  0  # atno 17320 bound_to 7965
  145.4799  141.0438  143.2652 LP  0  0  0  0  0  0  0  0  0  0  0  0  # atno 17321 bound_to 7965
  139.5143  144.3413  152.0737 LP  0  0  0  0  0  0  0  0  0  0  0  0  # atno 17342 bound_to 10162
  140.2557  144.4121  150.6204 LP  0  0  0  0  0  0  0  0  0  0  0  0  # atno 17343 bound_to 10162
  157.5512  131.0944  150.9693 LP  0  0  0  0  0  0  0  0  0  0  0  0  # atno 17370 bound_to 10713
  156.9953  130.5579  149.5306 LP  0  0  0  0  0  0  0  0  0  0  0  0  # atno 17371 bound_to 10713
  140.8993  134.2398  157.5051 LP  0  0  0  0  0  0  0  0  0  0  0  0  # atno 17394 bound_to 11000
  139.8705  134.9699  156.4682 LP  0  0  0  0  0  0  0  0  0  0  0  0  # atno 17395 bound_to 11000

$$$$
