AV-unprocessed.smi:2368|AV-procd|sdf|9429|dock1
  -GOLD-   2272013 63D 1   1.00000     0.00000
 Structure written by MMmdl.
 36 37  0  0  0  0  0  0  0  0  2 V2000
  143.5441  132.9051  148.4850 C   0  0  0  0  0  0  0  0  0  0  0  0
  144.1325  133.1366  149.8635 C   0  0  0  0  0  0  0  0  0  0  0  0
  143.4265  133.8979  150.7282 N   0  3  0  0  0  0  0  0  0  0  0  0
  143.8436  134.1643  151.9833 C   0  0  0  0  0  0  0  0  0  0  0  0
  145.0698  133.6448  152.4411 C   0  0  0  0  0  0  0  0  0  0  0  0
  145.8613  132.8547  151.5692 C   0  0  0  0  0  0  0  0  0  0  0  0
  147.1030  132.2789  151.9581 N   0  0  0  0  0  0  0  0  0  0  0  0
  147.8016  132.4837  153.0878 C   0  0  0  0  0  0  0  0  0  0  0  0
  147.4664  133.2332  154.0047 O   0  0  0  0  0  0  0  0  0  0  0  0
  148.9385  131.7741  153.0917 N   0  0  0  0  0  0  0  0  0  0  0  0
  149.9208  131.7831  154.1700 C   0  0  2  0  0  0  0  0  0  0  0  0
  149.4121  131.0042  155.3517 C   0  0  0  0  0  0  0  0  0  0  0  0
  149.4064  131.7187  156.4743 C   0  0  0  0  0  0  0  0  0  0  0  0
  149.9043  133.1275  156.2740 C   0  0  2  0  0  0  0  0  0  0  0  0
  148.9085  134.1903  156.7694 C   0  0  0  0  0  0  0  0  0  0  0  0
  149.1006  134.4490  158.1442 O   0  0  0  0  0  0  0  0  0  0  0  0
  150.1668  133.2020  154.7481 C   0  0  0  0  0  0  0  0  0  0  0  0
  145.3732  132.5877  150.2657 C   0  0  0  0  0  0  0  0  0  0  0  0
  146.2852  131.6066  149.1678 Cl  0  0  0  0  0  0  0  0  0  0  0  0
  150.8555  131.3294  153.8362 H   0  0  0  0  0  0  0  0  0  0  0  0
  150.8485  133.2288  156.8111 H   0  0  0  0  0  0  0  0  0  0  0  0
  144.2257  133.2677  147.7152 H   0  0  0  0  0  0  0  0  0  0  0  0
  142.5920  133.4235  148.3655 H   0  0  0  0  0  0  0  0  0  0  0  0
  143.3725  131.8411  148.3207 H   0  0  0  0  0  0  0  0  0  0  0  0
  143.1848  134.7759  152.5826 H   0  0  0  0  0  0  0  0  0  0  0  0
  145.3739  133.8524  153.4558 H   0  0  0  0  0  0  0  0  0  0  0  0
  147.5505  131.7041  151.2589 H   0  0  0  0  0  0  0  0  0  0  0  0
  149.1416  131.1859  152.2967 H   0  0  0  0  0  0  0  0  0  0  0  0
  149.1063  129.9713  155.2721 H   0  0  0  0  0  0  0  0  0  0  0  0
  149.0937  131.3520  157.4410 H   0  0  0  0  0  0  0  0  0  0  0  0
  149.0458  135.1225  156.2204 H   0  0  0  0  0  0  0  0  0  0  0  0
  147.8800  133.8661  156.6056 H   0  0  0  0  0  0  0  0  0  0  0  0
  148.2929  134.7839  158.5028 H   0  0  0  0  0  0  0  0  0  0  0  0
  151.1864  133.5308  154.5443 H   0  0  0  0  0  0  0  0  0  0  0  0
  149.5059  133.9342  154.2815 H   0  0  0  0  0  0  0  0  0  0  0  0
  142.5339  134.2844  150.4197 H   0  0  0  0  0  0  0  0  0  0  0  0
  1  2  1  0  0  0  0
  1 22  1  0  0  0  0
  1 23  1  0  0  0  0
  1 24  1  0  0  0  0
  2 18  1  0  0  0  0
  2  3  2  0  0  0  0
  3  4  1  0  0  0  0
  3 36  1  0  0  0  0
  4  5  2  0  0  0  0
  4 25  1  0  0  0  0
  5  6  1  0  0  0  0
  5 26  1  0  0  0  0
  6  7  1  0  0  0  0
  6 18  2  0  0  0  0
  7  8  1  0  0  0  0
  7 27  1  0  0  0  0
  8  9  2  0  0  0  0
  8 10  1  0  0  0  0
 10 11  1  0  0  0  0
 10 28  1  0  0  0  0
 11 20  1  0  0  0  0
 11 17  1  0  0  0  0
 11 12  1  0  0  0  0
 12 13  2  0  0  0  0
 12 29  1  0  0  0  0
 13 14  1  0  0  0  0
 13 30  1  0  0  0  0
 14 21  1  0  0  0  0
 14 15  1  0  0  0  0
 14 17  1  0  0  0  0
 15 16  1  0  0  0  0
 15 31  1  0  0  0  0
 15 32  1  0  0  0  0
 16 33  1  0  0  0  0
 17 34  1  0  0  0  0
 17 35  1  0  0  0  0
 18 19  1  0  0  0  0
M  CHG  1   3   1
M  END
> <s_m_source_file>
AV-unprocessed.smi

> <i_m_source_file_index>
2368

> <i_lp_mmshare_version>
43012

> <i_f3d_flags>
0

> <s_epik_input>
W0NIM11jMW5bY0hdW2NIXWMoYzFDbClbTkhdQyg9TylbTkhdW0NAQEhdMltDSF09W0NIXVtDQEBIXShbQ0gyXTIpW0NIMl1bT0hd

> <s_epik_cmdline>
J2VwaWtfcHl0aG9uJywgJy1waCcsICc3LjAnLCAnLXRuJywgJzgnLCAnLW1hJywgJzIwMCcsICctbWV0YWxfYmluZGluZycsICctaW1hZScsICc8aW5maWxlLm1hZT4nLCAnLW9tYWUnLCAnPG91dGZpbGUubWFlPic=

> <r_epik_Ionization_Penalty>
2.4467

> <r_epik_Ionization_Penalty_Charging>
2.44668

> <r_epik_Ionization_Penalty_Neutral>
1.95078e-05

> <r_epik_State_Penalty>
2.60786

> <r_epik_Charging_Adjusted_Penalty>
5.05454

> <i_epik_Tot_Q>
1

> <i_epik_Tot_abs_Q>
1

> <r_epik_Metal_State_Penalty>
2.61736

> <b_epik_Metal_Only>
0

> <s_lp_Force_Field>
OPLS_2005

> <r_lp_Energy>
25.4266

> <b_lp_Chiralities_Consistent>
1

> <s_lp_Variant>
AV-unprocessed.smi:2368-5

> <Gold.Version>
5.8.1

> <Gold.Id.Protein>
6NUR|6NUR_protein|mol2

> <Gold.PLP.Fitness>
44.8429

> <Gold.PLP.PLP>
-30.9190

> <Gold.PLP.part.hbond>
-4.0000

> <Gold.PLP.part.metal>
0.0000

> <Gold.PLP.part.buried>
-1.7527

> <Gold.PLP.part.nonpolar>
-25.1902

> <Gold.PLP.part.repulsive>
0.0848

> <Gold.PLP.ligand.clash>
0.0000

> <Gold.PLP.ligand.torsion>
0.5070

> <Gold.PLP.Chemscore.Hbond>
4.9746

> <Gold.PLP.Chemscore.CHOScore>
0.0000

> <Gold.PLP.Chemscore.Metal>
0.0000

> <Gold.Chemscore.Hbonds>
donor molecule, donor type, donor heavy atom, donor atom, acceptor molecule, acceptor atom, score
      L1  H     3    36       P1 10186  2.00
      L1  H     7    27       P1 10747  1.00
      L1  H    10    28       P1 10747  0.99
      P1  H  6896  6907       L1    16  0.98

> <Gold.PLP.Chemscore.Internal.Correction>
0.0140

> <Gold.Rescore>
     Score         DG    S(hbond)    S(metal)    S(lipo)     H(rot)  DE(clash)    DE(int)     intcor
     16.90     -20.86       2.81        0.00      90.65       1.81       0.87       3.09       ----

> <Gold.Chemscore.Fitness>
16.8987

> <Gold.Chemscore.DG>
-20.8554

> <Gold.Chemscore.ZeroCoef>
-5.4800

> <Gold.Chemscore.Hbond>
2.8124

> <Gold.Chemscore.Metal>
0.0000

> <Gold.Chemscore.Lipo>
90.6472

> <Gold.Chemscore.Internal_Hbond>
0.0000

> <Gold.Chemscore.DEClash>
0.8682

> <Gold.Chemscore.DEInternal>
3.0886

> <Gold.Chemscore.Rot>
1.8061

> <Gold.Chemscore.Internal.Correction>
   9.000000E+99

> <Gold.Chemscore.Hbonds>
donor molecule, donor type, donor heavy atom, donor atom, acceptor molecule, acceptor atom, score
      L1  H     3    36       P1 10186  0.65
      L1  H     7    27       P1 10747  0.99
      L1  H    10    28       P1 10747  0.35
      P1  H  6896  6907       L1    16  0.91

> <Gold.Chemscore.Hbond.Weighted>
-9.3934

> <Gold.Chemscore.Metal.Weighted>
-0.0000

> <Gold.Chemscore.Lipo.Weighted>
-10.6057

> <Gold.Chemscore.Internal_Hbond.Weighted>
0.0000

> <Gold.Chemscore.DEClash.Weighted>
0.8682

> <Gold.Chemscore.DEInternal.Weighted>
3.0886

> <Gold.Chemscore.Rot.Weighted>
4.6237

> <Gold.Chemscore.Internal.Correction.Weighted>
   9.000000E+99

> <Gold.Protein.RotatedTorsions>
[ 6907 6896 6895 6894 ] final -109.63 input  -60.11 | X-H torsion
[ 7974 7965 7964 7962 ] final  119.66 input  175.53 | X-H torsion
[ 8008 7997 7996 7995 ] final -104.81 input   59.86 | X-H torsion
[ 10167 10162 10161 10158 ] final  164.58 input  -65.29 | X-H torsion
[ 10718 10713 10712 10709 ] final  -31.05 input   66.30 | X-H torsion
[ 10763 10752 10751 10750 ] final  120.73 input  -60.55 | X-H torsion
[ 11005 11000 10999 10996 ] final  -88.22 input  -57.11 | X-H torsion

> <Gold.Protein.ActiveResidues>
 VAL166  LYS551  ARG553  GLY616  TRP617  ASP618  TYR619  PRO620  LYS621  CYS622 
 ASP623  PHE694  ASN695  SER759  ASP760  ASP761  ALA762  ILE779  LEU786  VAL792 
 PHE793  MET794  SER795  GLU796  ALA797  LYS798  CYS799  TRP800  GLU811  SER814 

> <Gold.Protein.RotatedAtoms>
  150.7574  133.9501  159.3482 H   0  0  0  0  0  0  0  0  0  0  0  0  # atno 6907 bound_to 6896
  151.7417  135.0850  160.0326 H   0  0  0  0  0  0  0  0  0  0  0  0  # atno 6908 bound_to 6896
  152.3524  133.6158  159.5990 H   0  0  0  0  0  0  0  0  0  0  0  0  # atno 6909 bound_to 6896
  145.1405  139.3271  143.4618 H   0  0  0  0  0  0  0  0  0  0  0  0  # atno 7974 bound_to 7965
  154.8907  140.0416  157.1836 H   0  0  0  0  0  0  0  0  0  0  0  0  # atno 8008 bound_to 7997
  154.8544  140.2934  155.5557 H   0  0  0  0  0  0  0  0  0  0  0  0  # atno 8009 bound_to 7997
  156.2997  140.2458  156.3508 H   0  0  0  0  0  0  0  0  0  0  0  0  # atno 8010 bound_to 7997
  139.4891  144.4221  151.9174 H   0  0  0  0  0  0  0  0  0  0  0  0  # atno 10167 bound_to 10162
  156.3921  130.4375  149.7387 H   0  0  0  0  0  0  0  0  0  0  0  0  # atno 10718 bound_to 10713
  153.6031  135.3444  155.2952 H   0  0  0  0  0  0  0  0  0  0  0  0  # atno 10763 bound_to 10752
  154.8632  135.4232  154.2391 H   0  0  0  0  0  0  0  0  0  0  0  0  # atno 10764 bound_to 10752
  153.3224  135.7039  153.7090 H   0  0  0  0  0  0  0  0  0  0  0  0  # atno 10765 bound_to 10752
  141.1605  133.7557  156.9419 H   0  0  0  0  0  0  0  0  0  0  0  0  # atno 11005 bound_to 11000
  146.3505  140.1440  142.8594 LP  0  0  0  0  0  0  0  0  0  0  0  0  # atno 17320 bound_to 7965
  145.0538  140.9037  143.4980 LP  0  0  0  0  0  0  0  0  0  0  0  0  # atno 17321 bound_to 7965
  140.3665  144.2908  150.5926 LP  0  0  0  0  0  0  0  0  0  0  0  0  # atno 17342 bound_to 10162
  140.5356  143.2234  151.8167 LP  0  0  0  0  0  0  0  0  0  0  0  0  # atno 17343 bound_to 10162
  156.4436  130.7873  151.2894 LP  0  0  0  0  0  0  0  0  0  0  0  0  # atno 17370 bound_to 10713
  157.7499  131.0117  150.3356 LP  0  0  0  0  0  0  0  0  0  0  0  0  # atno 17371 bound_to 10713
  140.1316  134.9352  157.2344 LP  0  0  0  0  0  0  0  0  0  0  0  0  # atno 17394 bound_to 11000
  140.2946  134.3201  155.7306 LP  0  0  0  0  0  0  0  0  0  0  0  0  # atno 17395 bound_to 11000

$$$$
