AV-unprocessed.smi:2410|AV-procd|sdf|9529|dock9
  -GOLD-   2272013163D 1   1.00000     0.00000
 Structure written by MMmdl.
 47 49  0  0  0  0  0  0  0  0  2 V2000
  151.7554  143.3851  160.5595 C   0  0  0  0  0  0  0  0  0  0  0  0
  151.6837  142.4817  159.3404 C   0  0  0  0  0  0  0  0  0  0  0  0
  150.8377  142.8567  158.2717 C   0  0  0  0  0  0  0  0  0  0  0  0
  150.7943  142.0103  157.1701 C   0  0  0  0  0  0  0  0  0  0  0  0
  150.0733  142.0943  155.9766 N   0  3  0  0  0  0  0  0  0  0  0  0
  150.3632  141.0180  155.1934 C   0  0  0  0  0  0  0  0  0  0  0  0
  151.2579  140.2486  155.8706 N   0  0  0  0  0  0  0  0  0  0  0  0
  151.9010  138.9835  155.4946 C   0  0  0  0  0  0  0  0  0  0  0  0
  150.9207  137.9949  154.8342 C   0  0  1  0  0  0  0  0  0  0  0  0
  151.6721  137.0738  154.0676 O   0  0  0  0  0  0  0  0  0  0  0  0
  150.0920  137.2206  155.8820 C   0  0  0  0  0  0  0  0  0  0  0  0
  150.0773  135.7734  155.6130 N   0  0  0  0  0  0  0  0  0  0  0  0
  149.2392  135.3415  154.5725 C   0  0  0  0  0  0  0  0  0  0  0  0
  149.1492  134.0935  154.2472 N   0  0  0  0  0  0  0  0  0  0  0  0
  149.8946  133.1361  154.9416 C   0  0  0  0  0  0  0  0  0  0  0  0
  149.7176  131.7023  154.4742 C   0  0  0  0  0  0  0  0  0  0  0  0
  150.7171  133.4881  155.9673 C   0  0  0  0  0  0  0  0  0  0  0  0
  151.5508  132.4895  156.7603 C   0  0  0  0  0  0  0  0  0  0  0  0
  150.8258  134.9043  156.3526 C   0  0  0  0  0  0  0  0  0  0  0  0
  151.5371  135.2931  157.2819 O   0  0  0  0  0  0  0  0  0  0  0  0
  151.5559  140.8278  157.1080 C   0  0  0  0  0  0  0  0  0  0  0  0
  152.3932  140.4419  158.1518 C   0  0  0  0  0  0  0  0  0  0  0  0
  152.4503  141.2886  159.2816 C   0  0  0  0  0  0  0  0  0  0  0  0
  153.3556  140.8937  160.4359 C   0  0  0  0  0  0  0  0  0  0  0  0
  151.1314  144.2711  160.4376 H   0  0  0  0  0  0  0  0  0  0  0  0
  152.7788  143.7207  160.7291 H   0  0  0  0  0  0  0  0  0  0  0  0
  151.4119  142.8553  161.4484 H   0  0  0  0  0  0  0  0  0  0  0  0
  150.2504  143.7625  158.3100 H   0  0  0  0  0  0  0  0  0  0  0  0
  149.9552  140.8114  154.2144 H   0  0  0  0  0  0  0  0  0  0  0  0
  152.7288  139.2147  154.8226 H   0  0  0  0  0  0  0  0  0  0  0  0
  152.3436  138.5526  156.3937 H   0  0  0  0  0  0  0  0  0  0  0  0
  150.2626  138.5445  154.1607 H   0  0  0  0  0  0  0  0  0  0  0  0
  151.3320  137.0676  153.1858 H   0  0  0  0  0  0  0  0  0  0  0  0
  150.4313  137.4548  156.8934 H   0  0  0  0  0  0  0  0  0  0  0  0
  149.0592  137.5733  155.8624 H   0  0  0  0  0  0  0  0  0  0  0  0
  148.6740  136.1263  154.0669 H   0  0  0  0  0  0  0  0  0  0  0  0
  150.6668  131.2935  154.1269 H   0  0  0  0  0  0  0  0  0  0  0  0
  149.0048  131.6377  153.6510 H   0  0  0  0  0  0  0  0  0  0  0  0
  149.3447  131.0784  155.2871 H   0  0  0  0  0  0  0  0  0  0  0  0
  151.2785  132.5274  157.8158 H   0  0  0  0  0  0  0  0  0  0  0  0
  152.6105  132.7324  156.6745 H   0  0  0  0  0  0  0  0  0  0  0  0
  151.4225  131.4613  156.4258 H   0  0  0  0  0  0  0  0  0  0  0  0
  152.9755  139.5330  158.1062 H   0  0  0  0  0  0  0  0  0  0  0  0
  153.8437  139.9365  160.2499 H   0  0  0  0  0  0  0  0  0  0  0  0
  152.7838  140.8009  161.3594 H   0  0  0  0  0  0  0  0  0  0  0  0
  154.1340  141.6426  160.5828 H   0  0  0  0  0  0  0  0  0  0  0  0
  149.4295  142.8297  155.7139 H   0  0  0  0  0  0  0  0  0  0  0  0
  1  2  1  0  0  0  0
  1 25  1  0  0  0  0
  1 26  1  0  0  0  0
  1 27  1  0  0  0  0
  2 23  1  0  0  0  0
  2  3  2  0  0  0  0
  3  4  1  0  0  0  0
  3 28  1  0  0  0  0
  4 21  2  0  0  0  0
  4  5  1  0  0  0  0
  5  6  2  0  0  0  0
  5 47  1  0  0  0  0
  6  7  1  0  0  0  0
  6 29  1  0  0  0  0
  7  8  1  0  0  0  0
  7 21  1  0  0  0  0
  8  9  1  0  0  0  0
  8 30  1  0  0  0  0
  8 31  1  0  0  0  0
  9 10  1  0  0  0  0
  9 11  1  0  0  0  0
  9 32  1  0  0  0  0
 10 33  1  0  0  0  0
 11 12  1  0  0  0  0
 11 34  1  0  0  0  0
 11 35  1  0  0  0  0
 12 19  1  0  0  0  0
 12 13  1  0  0  0  0
 13 14  2  0  0  0  0
 13 36  1  0  0  0  0
 14 15  1  0  0  0  0
 15 16  1  0  0  0  0
 15 17  2  0  0  0  0
 16 37  1  0  0  0  0
 16 38  1  0  0  0  0
 16 39  1  0  0  0  0
 17 18  1  0  0  0  0
 17 19  1  0  0  0  0
 18 40  1  0  0  0  0
 18 41  1  0  0  0  0
 18 42  1  0  0  0  0
 19 20  2  0  0  0  0
 21 22  1  0  0  0  0
 22 23  2  0  0  0  0
 22 43  1  0  0  0  0
 23 24  1  0  0  0  0
 24 44  1  0  0  0  0
 24 45  1  0  0  0  0
 24 46  1  0  0  0  0
M  CHG  1   5   1
M  END
> <s_m_source_file>
AV-unprocessed.smi

> <i_m_source_file_index>
2410

> <i_lp_mmshare_version>
43012

> <i_f3d_flags>
0

> <s_epik_input>
W0NIM11jKFtjSF0xKWMoW0NIM10pW2NIXWMoYzEyKW4oW2NIXW4yKVtDSDJdW0NASF0oW09IXSlbQ0gyXW4zW2NIXW5jKFtDSDNdKWMoW0NIM10pYzM9Tw==

> <s_epik_cmdline>
J2VwaWtfcHl0aG9uJywgJy1waCcsICc3LjAnLCAnLXRuJywgJzgnLCAnLW1hJywgJzIwMCcsICctbWV0YWxfYmluZGluZycsICctaW1hZScsICc8aW5maWxlLm1hZT4nLCAnLW9tYWUnLCAnPG91dGZpbGUubWFlPic=

> <r_lp_tautomer_probability>
1

> <r_epik_Ionization_Penalty>
1.03571

> <r_epik_Ionization_Penalty_Charging>
1.03568

> <r_epik_Ionization_Penalty_Neutral>
3.18232e-05

> <r_epik_State_Penalty>
1.08724

> <r_epik_Charging_Adjusted_Penalty>
2.12292

> <i_epik_Tot_Q>
1

> <i_epik_Tot_abs_Q>
1

> <r_epik_Metal_State_Penalty>
1.18374

> <b_epik_Metal_Only>
0

> <s_lp_Force_Field>
OPLS_2005

> <r_lp_Energy>
24.5117

> <b_lp_Chiralities_Consistent>
1

> <s_lp_Variant>
AV-unprocessed.smi:2410-4

> <Gold.Version>
5.8.1

> <Gold.Id.Protein>
6NUR|6NUR_protein|mol2

> <Gold.PLP.Fitness>
57.1551

> <Gold.PLP.PLP>
-46.1648

> <Gold.PLP.part.hbond>
-4.0000

> <Gold.PLP.part.metal>
0.0000

> <Gold.PLP.part.buried>
-3.8185

> <Gold.PLP.part.nonpolar>
-37.6129

> <Gold.PLP.part.repulsive>
0.2403

> <Gold.PLP.ligand.clash>
0.0000

> <Gold.PLP.ligand.torsion>
1.3397

> <Gold.PLP.Chemscore.Hbond>
3.8640

> <Gold.PLP.Chemscore.CHOScore>
0.6888

> <Gold.PLP.Chemscore.Metal>
0.0000

> <Gold.Chemscore.Hbonds>
donor molecule, donor type, donor heavy atom, donor atom, acceptor molecule, acceptor atom, score
      L1  H     5    47       P1  8028  2.00
      L1  H    10    33       P1  7949  0.90
      P1  H 10752 10764       L1    10  1.00
      L1  C    13    36       P1  7948  0.69

> <Gold.PLP.Chemscore.Internal.Correction>
0.0114

> <Gold.Rescore>
     Score         DG    S(hbond)    S(metal)    S(lipo)     H(rot)  DE(clash)    DE(int)     intcor
     16.32     -18.89       2.14        0.00     106.07       2.41       0.39       2.18       ----

> <Gold.Chemscore.Fitness>
16.3185

> <Gold.Chemscore.DG>
-18.8934

> <Gold.Chemscore.ZeroCoef>
-5.4800

> <Gold.Chemscore.Hbond>
2.1439

> <Gold.Chemscore.Metal>
0.0000

> <Gold.Chemscore.Lipo>
106.0682

> <Gold.Chemscore.Internal_Hbond>
0.0000

> <Gold.Chemscore.DEClash>
0.3929

> <Gold.Chemscore.DEInternal>
2.1820

> <Gold.Chemscore.Rot>
2.4052

> <Gold.Chemscore.Internal.Correction>
   9.000000E+99

> <Gold.Chemscore.Hbonds>
donor molecule, donor type, donor heavy atom, donor atom, acceptor molecule, acceptor atom, score
      L1  H     5    47       P1  8028  0.95
      L1  H    10    33       P1  7949  0.62
      P1  H 10752 10764       L1    10  0.50

> <Gold.Chemscore.Hbond.Weighted>
-7.1607

> <Gold.Chemscore.Metal.Weighted>
-0.0000

> <Gold.Chemscore.Lipo.Weighted>
-12.4100

> <Gold.Chemscore.Internal_Hbond.Weighted>
0.0000

> <Gold.Chemscore.DEClash.Weighted>
0.3929

> <Gold.Chemscore.DEInternal.Weighted>
2.1820

> <Gold.Chemscore.Rot.Weighted>
6.1573

> <Gold.Chemscore.Internal.Correction.Weighted>
   9.000000E+99

> <Gold.Protein.RotatedTorsions>
[ 6907 6896 6895 6894 ] final  109.57 input  -60.11 | X-H torsion
[ 7974 7965 7964 7962 ] final -121.81 input  175.53 | X-H torsion
[ 8008 7997 7996 7995 ] final  159.42 input   59.86 | X-H torsion
[ 10167 10162 10161 10158 ] final  144.06 input  -65.29 | X-H torsion
[ 10718 10713 10712 10709 ] final  -81.73 input   66.30 | X-H torsion
[ 10763 10752 10751 10750 ] final  -89.24 input  -60.55 | X-H torsion
[ 11005 11000 10999 10996 ] final -104.89 input  -57.11 | X-H torsion

> <Gold.Protein.ActiveResidues>
 VAL166  LYS551  ARG553  GLY616  TRP617  ASP618  TYR619  PRO620  LYS621  CYS622 
 ASP623  PHE694  ASN695  SER759  ASP760  ASP761  ALA762  ILE779  LEU786  VAL792 
 PHE793  MET794  SER795  GLU796  ALA797  LYS798  CYS799  TRP800  GLU811  SER814 

> <Gold.Protein.RotatedAtoms>
  152.5061  133.8924  159.7400 H   0  0  0  0  0  0  0  0  0  0  0  0  # atno 6907 bound_to 6896
  150.9360  133.6703  159.2807 H   0  0  0  0  0  0  0  0  0  0  0  0  # atno 6908 bound_to 6896
  151.4031  135.0979  159.9614 H   0  0  0  0  0  0  0  0  0  0  0  0  # atno 6909 bound_to 6896
  145.0363  140.8108  143.4293 H   0  0  0  0  0  0  0  0  0  0  0  0  # atno 7974 bound_to 7965
  156.2240  140.1832  156.7408 H   0  0  0  0  0  0  0  0  0  0  0  0  # atno 8008 bound_to 7997
  154.5911  140.0650  156.9268 H   0  0  0  0  0  0  0  0  0  0  0  0  # atno 8009 bound_to 7997
  155.2335  140.3316  155.4303 H   0  0  0  0  0  0  0  0  0  0  0  0  # atno 8010 bound_to 7997
  139.4955  144.5998  151.6506 H   0  0  0  0  0  0  0  0  0  0  0  0  # atno 10167 bound_to 10162
  156.0045  130.4612  150.3997 H   0  0  0  0  0  0  0  0  0  0  0  0  # atno 10718 bound_to 10713
  154.6532  135.5348  153.7926 H   0  0  0  0  0  0  0  0  0  0  0  0  # atno 10763 bound_to 10752
  153.0398  135.6487  154.0986 H   0  0  0  0  0  0  0  0  0  0  0  0  # atno 10764 bound_to 10752
  154.0901  135.2940  155.3253 H   0  0  0  0  0  0  0  0  0  0  0  0  # atno 10765 bound_to 10752
  141.1079  133.8762  157.1667 H   0  0  0  0  0  0  0  0  0  0  0  0  # atno 11005 bound_to 11000
  145.1705  139.2407  143.5344 LP  0  0  0  0  0  0  0  0  0  0  0  0  # atno 17320 bound_to 7965
  146.3504  140.1455  142.8593 LP  0  0  0  0  0  0  0  0  0  0  0  0  # atno 17321 bound_to 7965
  140.5645  144.0214  150.6185 LP  0  0  0  0  0  0  0  0  0  0  0  0  # atno 17342 bound_to 10162
  140.3310  143.3077  152.0687 LP  0  0  0  0  0  0  0  0  0  0  0  0  # atno 17343 bound_to 10162
  157.2066  131.0450  151.2621 LP  0  0  0  0  0  0  0  0  0  0  0  0  # atno 17370 bound_to 10713
  157.3927  130.7290  149.6709 LP  0  0  0  0  0  0  0  0  0  0  0  0  # atno 17371 bound_to 10713
  139.9958  135.0047  157.0079 LP  0  0  0  0  0  0  0  0  0  0  0  0  # atno 17394 bound_to 11000
  140.4853  134.1247  155.7223 LP  0  0  0  0  0  0  0  0  0  0  0  0  # atno 17395 bound_to 11000

$$$$
