AV-unprocessed.smi:2177|AV-procd|sdf|8851|dock2
  -GOLD-   2272012 43D 1   1.00000     0.00000
 Structure written by MMmdl.
 42 43  0  0  0  0  0  0  0  0  1 V2000
  150.5896  145.5872  160.0499 C   0  0  0  0  0  0  0  0  0  0  0  0
  151.4940  144.4238  160.3405 C   0  0  0  0  0  0  0  0  0  0  0  0
  151.9111  144.2199  161.5788 N   0  0  0  0  0  0  0  0  0  0  0  0
  152.7035  143.1320  161.5005 N   0  0  0  0  0  0  0  0  0  0  0  0
  153.3425  142.6291  162.7008 C   0  0  0  0  0  0  0  0  0  0  0  0
  152.7851  142.6460  160.2104 C   0  0  0  0  0  0  0  0  0  0  0  0
  153.6111  141.4510  159.8598 C   0  0  0  0  0  0  0  0  0  0  0  0
  152.0149  143.4619  159.4252 C   0  0  0  0  0  0  0  0  0  0  0  0
  151.7846  143.3920  157.9348 C   0  0  0  0  0  0  0  0  0  0  0  0
  150.9282  142.1677  157.6086 C   0  0  0  0  0  0  0  0  0  0  0  0
  150.7341  141.3041  158.4632 O   0  0  0  0  0  0  0  0  0  0  0  0
  150.4460  142.1009  156.3581 N   0  0  0  0  0  0  0  0  0  0  0  0
  149.7532  140.9625  155.7643 C   0  0  1  0  0  0  0  0  0  0  0  0
  149.1774  141.3607  154.3974 C   0  0  0  0  0  0  0  0  0  0  0  0
  150.7292  139.7748  155.6625 C   0  0  1  0  0  0  0  0  0  0  0  0
  150.2481  138.6262  154.7707 C   0  0  0  0  0  0  0  0  0  0  0  0
  151.5363  137.9684  154.3004 C   0  0  0  0  0  0  0  0  0  0  0  0
  152.6295  138.9724  154.6770 C   0  0  0  0  0  0  0  0  0  0  0  0
  151.9360  140.1620  155.0252 O   0  0  0  0  0  0  0  0  0  0  0  0
  151.1005  146.3331  159.4408 H   0  0  0  0  0  0  0  0  0  0  0  0
  150.2550  146.0788  160.9640 H   0  0  0  0  0  0  0  0  0  0  0  0
  149.7022  145.2647  159.5057 H   0  0  0  0  0  0  0  0  0  0  0  0
  152.9304  141.6516  162.9520 H   0  0  0  0  0  0  0  0  0  0  0  0
  153.1786  143.3083  163.5387 H   0  0  0  0  0  0  0  0  0  0  0  0
  154.4155  142.5319  162.5328 H   0  0  0  0  0  0  0  0  0  0  0  0
  153.4838  141.1750  158.8131 H   0  0  0  0  0  0  0  0  0  0  0  0
  153.3297  140.5912  160.4679 H   0  0  0  0  0  0  0  0  0  0  0  0
  154.6695  141.6525  160.0249 H   0  0  0  0  0  0  0  0  0  0  0  0
  151.2866  144.2902  157.5679 H   0  0  0  0  0  0  0  0  0  0  0  0
  152.7231  143.3196  157.3844 H   0  0  0  0  0  0  0  0  0  0  0  0
  150.6551  142.8702  155.7386 H   0  0  0  0  0  0  0  0  0  0  0  0
  148.9271  140.6610  156.4110 H   0  0  0  0  0  0  0  0  0  0  0  0
  148.6409  140.5289  153.9406 H   0  0  0  0  0  0  0  0  0  0  0  0
  149.9648  141.6677  153.7082 H   0  0  0  0  0  0  0  0  0  0  0  0
  148.4756  142.1898  154.4940 H   0  0  0  0  0  0  0  0  0  0  0  0
  150.9639  139.3905  156.6573 H   0  0  0  0  0  0  0  0  0  0  0  0
  149.5873  137.9352  155.2954 H   0  0  0  0  0  0  0  0  0  0  0  0
  149.7043  139.0183  153.9098 H   0  0  0  0  0  0  0  0  0  0  0  0
  151.7037  137.0110  154.7950 H   0  0  0  0  0  0  0  0  0  0  0  0
  151.5080  137.7899  153.2248 H   0  0  0  0  0  0  0  0  0  0  0  0
  153.1912  138.6196  155.5430 H   0  0  0  0  0  0  0  0  0  0  0  0
  153.3340  139.1505  153.8641 H   0  0  0  0  0  0  0  0  0  0  0  0
  1  2  1  0  0  0  0
  1 20  1  0  0  0  0
  1 21  1  0  0  0  0
  1 22  1  0  0  0  0
  2  8  1  0  0  0  0
  2  3  2  0  0  0  0
  3  4  1  0  0  0  0
  4  5  1  0  0  0  0
  4  6  1  0  0  0  0
  5 23  1  0  0  0  0
  5 24  1  0  0  0  0
  5 25  1  0  0  0  0
  6  7  1  0  0  0  0
  6  8  2  0  0  0  0
  7 26  1  0  0  0  0
  7 27  1  0  0  0  0
  7 28  1  0  0  0  0
  8  9  1  0  0  0  0
  9 10  1  0  0  0  0
  9 29  1  0  0  0  0
  9 30  1  0  0  0  0
 10 11  2  0  0  0  0
 10 12  1  0  0  0  0
 12 13  1  0  0  0  0
 12 31  1  0  0  0  0
 13 14  1  0  0  0  0
 13 15  1  0  0  0  0
 13 32  1  0  0  0  0
 14 33  1  0  0  0  0
 14 34  1  0  0  0  0
 14 35  1  0  0  0  0
 15 19  1  0  0  0  0
 15 16  1  0  0  0  0
 15 36  1  0  0  0  0
 16 17  1  0  0  0  0
 16 37  1  0  0  0  0
 16 38  1  0  0  0  0
 17 18  1  0  0  0  0
 17 39  1  0  0  0  0
 17 40  1  0  0  0  0
 18 19  1  0  0  0  0
 18 41  1  0  0  0  0
 18 42  1  0  0  0  0
M  END
> <s_m_source_file>
AV-unprocessed.smi

> <i_m_source_file_index>
2177

> <i_lp_mmshare_version>
43012

> <i_f3d_flags>
0

> <s_epik_input>
W0NIM11jMW5uKFtDSDNdKWMoW0NIM10pYzFbQ0gyXUMoPU8pW05IXVtDQEhdKFtDSDNdKVtDQEBIXTJbQ0gyXVtDSDJdW0NIMl1PMg==

> <s_epik_cmdline>
J2VwaWtfcHl0aG9uJywgJy1waCcsICc3LjAnLCAnLXRuJywgJzgnLCAnLW1hJywgJzIwMCcsICctbWV0YWxfYmluZGluZycsICctaW1hZScsICc8aW5maWxlLm1hZT4nLCAnLW9tYWUnLCAnPG91dGZpbGUubWFlPic=

> <r_lp_tautomer_probability>
1

> <r_epik_Ionization_Penalty>
0.00310467

> <r_epik_Ionization_Penalty_Charging>
0

> <r_epik_Ionization_Penalty_Neutral>
0.00310467

> <r_epik_State_Penalty>
0.00218493

> <r_epik_Charging_Adjusted_Penalty>
0.00218493

> <i_epik_Tot_Q>
0

> <i_epik_Tot_abs_Q>
0

> <r_epik_Metal_State_Penalty>
-0

> <b_epik_Metal_Only>
0

> <s_lp_Force_Field>
OPLS_2005

> <r_lp_Energy>
11.3681

> <b_lp_Chiralities_Consistent>
1

> <s_lp_Variant>
AV-unprocessed.smi:2177-4

> <Gold.Version>
5.8.1

> <Gold.Id.Protein>
6NUR|6NUR_protein|mol2

> <Gold.PLP.Fitness>
51.8814

> <Gold.PLP.PLP>
-49.8778

> <Gold.PLP.part.hbond>
-1.5543

> <Gold.PLP.part.metal>
0.0000

> <Gold.PLP.part.buried>
-5.7343

> <Gold.PLP.part.nonpolar>
-43.4217

> <Gold.PLP.part.repulsive>
0.2959

> <Gold.PLP.ligand.clash>
0.0000

> <Gold.PLP.ligand.torsion>
0.4142

> <Gold.PLP.Chemscore.Hbond>
0.9280

> <Gold.PLP.Chemscore.CHOScore>
0.0000

> <Gold.PLP.Chemscore.Metal>
0.0000

> <Gold.Chemscore.Hbonds>
donor molecule, donor type, donor heavy atom, donor atom, acceptor molecule, acceptor atom, score
      P1  H  7989  7998       L1    19  0.83

> <Gold.PLP.Chemscore.Internal.Correction>
0.0480

> <Gold.Rescore>
     Score         DG    S(hbond)    S(metal)    S(lipo)     H(rot)  DE(clash)    DE(int)     intcor
     17.68     -18.42       0.90        0.00     116.94       1.46       0.17       0.57       ----

> <Gold.Chemscore.Fitness>
17.6778

> <Gold.Chemscore.DG>
-18.4248

> <Gold.Chemscore.ZeroCoef>
-5.4800

> <Gold.Chemscore.Hbond>
0.9004

> <Gold.Chemscore.Metal>
0.0000

> <Gold.Chemscore.Lipo>
116.9405

> <Gold.Chemscore.Internal_Hbond>
0.0000

> <Gold.Chemscore.DEClash>
0.1739

> <Gold.Chemscore.DEInternal>
0.5731

> <Gold.Chemscore.Rot>
1.4627

> <Gold.Chemscore.Internal.Correction>
   9.000000E+99

> <Gold.Chemscore.Hbonds>
donor molecule, donor type, donor heavy atom, donor atom, acceptor molecule, acceptor atom, score
      P1  H  7989  7998       L1    19  0.24

> <Gold.Chemscore.Hbond.Weighted>
-3.0073

> <Gold.Chemscore.Metal.Weighted>
-0.0000

> <Gold.Chemscore.Lipo.Weighted>
-13.6820

> <Gold.Chemscore.Internal_Hbond.Weighted>
0.0000

> <Gold.Chemscore.DEClash.Weighted>
0.1739

> <Gold.Chemscore.DEInternal.Weighted>
0.5731

> <Gold.Chemscore.Rot.Weighted>
3.7445

> <Gold.Chemscore.Internal.Correction.Weighted>
   9.000000E+99

> <Gold.Protein.RotatedTorsions>
[ 6907 6896 6895 6894 ] final  132.05 input  -60.11 | X-H torsion
[ 7974 7965 7964 7962 ] final   90.17 input  175.53 | X-H torsion
[ 8008 7997 7996 7995 ] final  -82.38 input   59.86 | X-H torsion
[ 10167 10162 10161 10158 ] final  108.74 input  -65.29 | X-H torsion
[ 10718 10713 10712 10709 ] final  148.12 input   66.30 | X-H torsion
[ 10763 10752 10751 10750 ] final -155.27 input  -60.55 | X-H torsion
[ 11005 11000 10999 10996 ] final -111.36 input  -57.11 | X-H torsion

> <Gold.Protein.ActiveResidues>
 VAL166  LYS551  ARG553  GLY616  TRP617  ASP618  TYR619  PRO620  LYS621  CYS622 
 ASP623  PHE694  ASN695  SER759  ASP760  ASP761  ALA762  ILE779  LEU786  VAL792 
 PHE793  MET794  SER795  GLU796  ALA797  LYS798  CYS799  TRP800  GLU811  SER814 

> <Gold.Protein.RotatedAtoms>
  152.3364  133.6016  159.5844 H   0  0  0  0  0  0  0  0  0  0  0  0  # atno 6907 bound_to 6896
  150.7452  133.9790  159.3579 H   0  0  0  0  0  0  0  0  0  0  0  0  # atno 6908 bound_to 6896
  151.7659  135.0799  160.0403 H   0  0  0  0  0  0  0  0  0  0  0  0  # atno 6909 bound_to 6896
  145.5226  139.2280  143.2663 H   0  0  0  0  0  0  0  0  0  0  0  0  # atno 7974 bound_to 7965
  154.6080  140.0634  156.9457 H   0  0  0  0  0  0  0  0  0  0  0  0  # atno 8008 bound_to 7997
  155.2020  140.3316  155.4323 H   0  0  0  0  0  0  0  0  0  0  0  0  # atno 8009 bound_to 7997
  156.2359  140.1863  156.7103 H   0  0  0  0  0  0  0  0  0  0  0  0  # atno 8010 bound_to 7997
  139.6822  144.7117  151.1495 H   0  0  0  0  0  0  0  0  0  0  0  0  # atno 10167 bound_to 10162
  157.3126  131.0890  151.1304 H   0  0  0  0  0  0  0  0  0  0  0  0  # atno 10718 bound_to 10713
  154.7799  135.3171  154.8012 H   0  0  0  0  0  0  0  0  0  0  0  0  # atno 10763 bound_to 10752
  153.8726  135.6843  153.4777 H   0  0  0  0  0  0  0  0  0  0  0  0  # atno 10764 bound_to 10752
  153.1433  135.4730  154.9465 H   0  0  0  0  0  0  0  0  0  0  0  0  # atno 10765 bound_to 10752
  141.0739  133.9334  157.2430 H   0  0  0  0  0  0  0  0  0  0  0  0  # atno 11005 bound_to 11000
  146.2096  140.6039  142.9065 LP  0  0  0  0  0  0  0  0  0  0  0  0  # atno 17320 bound_to 7965
  144.7668  140.5548  143.6697 LP  0  0  0  0  0  0  0  0  0  0  0  0  # atno 17321 bound_to 7965
  140.7656  143.5682  150.9024 LP  0  0  0  0  0  0  0  0  0  0  0  0  # atno 17342 bound_to 10162
  139.9355  143.6443  152.3066 LP  0  0  0  0  0  0  0  0  0  0  0  0  # atno 17343 bound_to 10162
  157.2621  130.6664  149.5979 LP  0  0  0  0  0  0  0  0  0  0  0  0  # atno 17370 bound_to 10713
  155.9679  130.4505  150.5701 LP  0  0  0  0  0  0  0  0  0  0  0  0  # atno 17371 bound_to 10713
  139.9551  135.0167  156.9105 LP  0  0  0  0  0  0  0  0  0  0  0  0  # atno 17394 bound_to 11000
  140.5616  134.0529  155.7400 LP  0  0  0  0  0  0  0  0  0  0  0  0  # atno 17395 bound_to 11000

$$$$
