AV-unprocessed.smi:2531|AV-procd|sdf|9965|dock1
  -GOLD-   2272014 03D 1   1.00000     0.00000
 Structure written by MMmdl.
 47 49  0  0  0  0  0  0  0  0  2 V2000
  149.4309  142.3387  158.6068 O   0  0  0  0  0  0  0  0  0  0  0  0
  150.5734  142.1482  158.1882 C   0  0  0  0  0  0  0  0  0  0  0  0
  151.6684  143.2174  158.3679 C   0  0  0  0  0  0  0  0  0  0  0  0
  152.7858  142.7511  159.3224 C   0  0  0  0  0  0  0  0  0  0  0  0
  152.4781  143.4104  160.6657 C   0  0  0  0  0  0  0  0  0  0  0  0
  151.9037  144.7697  160.2782 C   0  0  0  0  0  0  0  0  0  0  0  0
  151.1088  144.5169  158.9914 C   0  0  0  0  0  0  0  0  0  0  0  0
  150.9066  140.9996  157.4662 N   0  0  0  0  0  0  0  0  0  0  0  0
  150.4344  139.6814  157.8625 C   0  0  0  0  0  0  0  0  0  0  0  0
  151.7315  139.1458  157.2409 C   0  0  0  0  0  0  0  0  0  0  0  0
  151.4844  138.5195  155.5153 S   0  0  0  0  0  0  0  0  0  0  0  0
  151.0179  139.6372  154.6804 O   0  0  0  0  0  0  0  0  0  0  0  0
  152.6510  137.7286  155.0945 O   0  0  0  0  0  0  0  0  0  0  0  0
  150.1654  137.4214  155.7073 N   0  0  0  0  0  0  0  0  0  0  0  0
  150.4372  135.9816  155.6771 C   0  0  0  0  0  0  0  0  0  0  0  0
  149.1769  135.1573  155.9957 C   0  0  0  0  0  0  0  0  0  0  0  0
  149.0448  133.9014  155.1530 C   0  0  0  0  0  0  0  0  0  0  0  0
  149.0883  132.6100  155.7214 C   0  0  0  0  0  0  0  0  0  0  0  0
  148.9946  131.4831  154.8785 C   0  0  0  0  0  0  0  0  0  0  0  0
  148.8589  131.6706  153.4873 C   0  0  0  0  0  0  0  0  0  0  0  0
  148.8208  132.9825  152.9729 C   0  0  0  0  0  0  0  0  0  0  0  0
  148.9143  134.0364  153.8129 N   0  3  0  0  0  0  0  0  0  0  0  0
  152.2896  140.5735  157.3169 C   0  0  0  0  0  0  0  0  0  0  0  0
  152.1168  143.4304  157.3964 H   0  0  0  0  0  0  0  0  0  0  0  0
  152.8644  141.6663  159.4098 H   0  0  0  0  0  0  0  0  0  0  0  0
  153.7480  143.1088  158.9534 H   0  0  0  0  0  0  0  0  0  0  0  0
  151.7262  142.8295  161.2018 H   0  0  0  0  0  0  0  0  0  0  0  0
  153.3572  143.4917  161.3053 H   0  0  0  0  0  0  0  0  0  0  0  0
  151.2933  145.2066  161.0689 H   0  0  0  0  0  0  0  0  0  0  0  0
  152.7209  145.4622  160.0719 H   0  0  0  0  0  0  0  0  0  0  0  0
  151.2013  145.3597  158.3055 H   0  0  0  0  0  0  0  0  0  0  0  0
  150.0481  144.4236  159.2316 H   0  0  0  0  0  0  0  0  0  0  0  0
  150.3905  139.5430  158.9445 H   0  0  0  0  0  0  0  0  0  0  0  0
  149.5166  139.3706  157.3622 H   0  0  0  0  0  0  0  0  0  0  0  0
  152.2465  138.4145  157.8642 H   0  0  0  0  0  0  0  0  0  0  0  0
  149.5982  137.6699  156.5181 H   0  0  0  0  0  0  0  0  0  0  0  0
  150.8431  135.7002  154.7043 H   0  0  0  0  0  0  0  0  0  0  0  0
  151.2128  135.7642  156.4117 H   0  0  0  0  0  0  0  0  0  0  0  0
  149.1893  134.8690  157.0475 H   0  0  0  0  0  0  0  0  0  0  0  0
  148.2865  135.7738  155.8632 H   0  0  0  0  0  0  0  0  0  0  0  0
  149.2029  132.4825  156.7880 H   0  0  0  0  0  0  0  0  0  0  0  0
  149.0308  130.4865  155.2940 H   0  0  0  0  0  0  0  0  0  0  0  0
  148.7877  130.8201  152.8250 H   0  0  0  0  0  0  0  0  0  0  0  0
  148.7225  133.2192  151.9235 H   0  0  0  0  0  0  0  0  0  0  0  0
  152.7741  140.9357  156.4100 H   0  0  0  0  0  0  0  0  0  0  0  0
  152.8958  140.7449  158.2085 H   0  0  0  0  0  0  0  0  0  0  0  0
  148.8919  134.9774  153.4195 H   0  0  0  0  0  0  0  0  0  0  0  0
  1  2  2  0  0  0  0
  2  3  1  0  0  0  0
  2  8  1  0  0  0  0
  3  7  1  0  0  0  0
  3  4  1  0  0  0  0
  3 24  1  0  0  0  0
  4  5  1  0  0  0  0
  4 25  1  0  0  0  0
  4 26  1  0  0  0  0
  5  6  1  0  0  0  0
  5 27  1  0  0  0  0
  5 28  1  0  0  0  0
  6  7  1  0  0  0  0
  6 29  1  0  0  0  0
  6 30  1  0  0  0  0
  7 31  1  0  0  0  0
  7 32  1  0  0  0  0
  8 23  1  0  0  0  0
  8  9  1  0  0  0  0
  9 10  1  0  0  0  0
  9 33  1  0  0  0  0
  9 34  1  0  0  0  0
 10 11  1  0  0  0  0
 10 23  1  0  0  0  0
 10 35  1  0  0  0  0
 11 12  2  0  0  0  0
 11 13  2  0  0  0  0
 11 14  1  0  0  0  0
 14 15  1  0  0  0  0
 14 36  1  0  0  0  0
 15 16  1  0  0  0  0
 15 37  1  0  0  0  0
 15 38  1  0  0  0  0
 16 17  1  0  0  0  0
 16 39  1  0  0  0  0
 16 40  1  0  0  0  0
 17 22  1  0  0  0  0
 17 18  2  0  0  0  0
 18 19  1  0  0  0  0
 18 41  1  0  0  0  0
 19 20  2  0  0  0  0
 19 42  1  0  0  0  0
 20 21  1  0  0  0  0
 20 43  1  0  0  0  0
 21 22  2  0  0  0  0
 21 44  1  0  0  0  0
 22 47  1  0  0  0  0
 23 45  1  0  0  0  0
 23 46  1  0  0  0  0
M  CHG  1  22   1
M  END
> <s_m_source_file>
AV-unprocessed.smi

> <i_m_source_file_index>
2531

> <i_lp_mmshare_version>
43012

> <i_f3d_flags>
0

> <s_epik_input>
W0NIMl0xW0NIMl1bQ0gyXVtDSDJdW0NIXTFDKD1PKU4yW0NIMl1bQ0hdKFtDSDJdMilTKD1PKSg9TylbTkhdW0NIMl1bQ0gyXWMzW2NIXVtjSF1bY0hdW2NIXW4z

> <s_epik_cmdline>
J2VwaWtfcHl0aG9uJywgJy1waCcsICc3LjAnLCAnLXRuJywgJzgnLCAnLW1hJywgJzIwMCcsICctbWV0YWxfYmluZGluZycsICctaW1hZScsICc8aW5maWxlLm1hZT4nLCAnLW9tYWUnLCAnPG91dGZpbGUubWFlPic=

> <r_epik_Ionization_Penalty>
2.00952

> <r_epik_Ionization_Penalty_Charging>
2.00945

> <r_epik_Ionization_Penalty_Neutral>
6.7549e-05

> <r_epik_State_Penalty>
2.13885

> <r_epik_Charging_Adjusted_Penalty>
4.1483

> <i_epik_Tot_Q>
1

> <i_epik_Tot_abs_Q>
1

> <r_epik_Metal_State_Penalty>
2.25125

> <b_epik_Metal_Only>
0

> <s_lp_Force_Field>
OPLS_2005

> <r_lp_Energy>
39.4399

> <b_lp_Chiralities_Consistent>
1

> <s_lp_Variant>
AV-unprocessed.smi:2531-2

> <Gold.Version>
5.8.1

> <Gold.Id.Protein>
6NUR|6NUR_protein|mol2

> <Gold.PLP.Fitness>
50.8602

> <Gold.PLP.PLP>
-42.5219

> <Gold.PLP.part.hbond>
-3.3369

> <Gold.PLP.part.metal>
0.0000

> <Gold.PLP.part.buried>
-5.6938

> <Gold.PLP.part.nonpolar>
-32.9826

> <Gold.PLP.part.repulsive>
0.2216

> <Gold.PLP.ligand.clash>
0.0000

> <Gold.PLP.ligand.torsion>
1.7558

> <Gold.PLP.Chemscore.Hbond>
3.2886

> <Gold.PLP.Chemscore.CHOScore>
0.0000

> <Gold.PLP.Chemscore.Metal>
0.0000

> <Gold.Chemscore.Hbonds>
donor molecule, donor type, donor heavy atom, donor atom, acceptor molecule, acceptor atom, score
      L1  H    22    47       P1  7948  1.98
      P1  H  7989  7998       L1    12  1.00
      P1  H 10752 10765       L1    13  0.29

> <Gold.PLP.Chemscore.Internal.Correction>
1.9840

> <Gold.Rescore>
     Score         DG    S(hbond)    S(metal)    S(lipo)     H(rot)  DE(clash)    DE(int)     intcor
     18.20     -21.13       2.67        0.00     100.75       1.97       0.07       2.87       ----

> <Gold.Chemscore.Fitness>
18.1961

> <Gold.Chemscore.DG>
-21.1331

> <Gold.Chemscore.ZeroCoef>
-5.4800

> <Gold.Chemscore.Hbond>
2.6711

> <Gold.Chemscore.Metal>
0.0000

> <Gold.Chemscore.Lipo>
100.7464

> <Gold.Chemscore.Internal_Hbond>
0.0000

> <Gold.Chemscore.DEClash>
0.0686

> <Gold.Chemscore.DEInternal>
2.8684

> <Gold.Chemscore.Rot>
1.9749

> <Gold.Chemscore.Internal.Correction>
   9.000000E+99

> <Gold.Chemscore.Hbonds>
donor molecule, donor type, donor heavy atom, donor atom, acceptor molecule, acceptor atom, score
      L1  H    22    47       P1  7948  0.37
      P1  H  7989  7998       L1    12  1.00
      P1  H 10752 10765       L1    13  0.29

> <Gold.Chemscore.Hbond.Weighted>
-8.9214

> <Gold.Chemscore.Metal.Weighted>
-0.0000

> <Gold.Chemscore.Lipo.Weighted>
-11.7873

> <Gold.Chemscore.Internal_Hbond.Weighted>
0.0000

> <Gold.Chemscore.DEClash.Weighted>
0.0686

> <Gold.Chemscore.DEInternal.Weighted>
2.8684

> <Gold.Chemscore.Rot.Weighted>
5.0556

> <Gold.Chemscore.Internal.Correction.Weighted>
   9.000000E+99

> <Gold.Protein.RotatedTorsions>
[ 6907 6896 6895 6894 ] final   68.67 input  -60.11 | X-H torsion
[ 7974 7965 7964 7962 ] final   84.26 input  175.53 | X-H torsion
[ 8008 7997 7996 7995 ] final -150.88 input   59.86 | X-H torsion
[ 10167 10162 10161 10158 ] final -158.53 input  -65.29 | X-H torsion
[ 10718 10713 10712 10709 ] final  119.67 input   66.30 | X-H torsion
[ 10763 10752 10751 10750 ] final  171.19 input  -60.55 | X-H torsion
[ 11005 11000 10999 10996 ] final  121.13 input  -57.11 | X-H torsion

> <Gold.Protein.ActiveResidues>
 VAL166  LYS551  ARG553  GLY616  TRP617  ASP618  TYR619  PRO620  LYS621  CYS622 
 ASP623  PHE694  ASN695  SER759  ASP760  ASP761  ALA762  ILE779  LEU786  VAL792 
 PHE793  MET794  SER795  GLU796  ALA797  LYS798  CYS799  TRP800  GLU811  SER814 

> <Gold.Protein.RotatedAtoms>
  152.4636  134.5128  159.9758 H   0  0  0  0  0  0  0  0  0  0  0  0  # atno 6907 bound_to 6896
  151.5171  133.3467  159.2903 H   0  0  0  0  0  0  0  0  0  0  0  0  # atno 6908 bound_to 6896
  150.8609  134.7990  159.7144 H   0  0  0  0  0  0  0  0  0  0  0  0  # atno 6909 bound_to 6896
  145.6011  139.2352  143.2245 H   0  0  0  0  0  0  0  0  0  0  0  0  # atno 7974 bound_to 7965
  155.6306  140.0691  157.2650 H   0  0  0  0  0  0  0  0  0  0  0  0  # atno 8008 bound_to 7997
  154.4207  140.1768  156.1517 H   0  0  0  0  0  0  0  0  0  0  0  0  # atno 8009 bound_to 7997
  155.9936  140.3343  155.6780 H   0  0  0  0  0  0  0  0  0  0  0  0  # atno 8010 bound_to 7997
  139.6685  143.9787  152.2269 H   0  0  0  0  0  0  0  0  0  0  0  0  # atno 10167 bound_to 10162
  157.5945  131.1060  150.7928 H   0  0  0  0  0  0  0  0  0  0  0  0  # atno 10718 bound_to 10713
  154.4083  135.2756  155.2053 H   0  0  0  0  0  0  0  0  0  0  0  0  # atno 10763 bound_to 10752
  154.4049  135.6036  153.5922 H   0  0  0  0  0  0  0  0  0  0  0  0  # atno 10764 bound_to 10752
  152.9831  135.5935  154.4361 H   0  0  0  0  0  0  0  0  0  0  0  0  # atno 10765 bound_to 10752
  139.9213  134.9637  156.7911 H   0  0  0  0  0  0  0  0  0  0  0  0  # atno 11005 bound_to 11000
  146.1575  140.6836  142.9293 LP  0  0  0  0  0  0  0  0  0  0  0  0  # atno 17320 bound_to 7965
  144.7309  140.4669  143.6938 LP  0  0  0  0  0  0  0  0  0  0  0  0  # atno 17321 bound_to 7965
  139.9545  144.6599  150.8139 LP  0  0  0  0  0  0  0  0  0  0  0  0  # atno 17342 bound_to 10162
  140.7609  143.3161  151.2730 LP  0  0  0  0  0  0  0  0  0  0  0  0  # atno 17343 bound_to 10162
  156.8342  130.5026  149.5328 LP  0  0  0  0  0  0  0  0  0  0  0  0  # atno 17370 bound_to 10713
  156.1005  130.5966  150.9887 LP  0  0  0  0  0  0  0  0  0  0  0  0  # atno 17371 bound_to 10713
  140.6466  133.9769  155.7734 LP  0  0  0  0  0  0  0  0  0  0  0  0  # atno 17394 bound_to 11000
  141.0736  134.0169  157.3491 LP  0  0  0  0  0  0  0  0  0  0  0  0  # atno 17395 bound_to 11000

$$$$
