AV-unprocessed.smi:909|AV-procd|sdf|4115|dock8
  -GOLD-   22720 2 13D 1   1.00000     0.00000
 Structure written by MMmdl.
 39 40  0  0  0  0  0  0  0  0  2 V2000
  149.9129  135.6290  156.9390 C   0  0  0  0  0  0  0  0  0  0  0  0
  149.2246  135.6337  158.2735 C   0  0  0  0  0  0  0  0  0  0  0  0
  149.0695  134.4964  158.9306 N   0  0  0  0  0  0  0  0  0  0  0  0
  148.4145  134.8283  160.1203 O   0  0  0  0  0  0  0  0  0  0  0  0
  148.1940  136.1677  160.1306 C   0  0  0  0  0  0  0  0  0  0  0  0
  147.5097  136.7250  161.3329 C   0  0  0  0  0  0  0  0  0  0  0  0
  148.6762  136.7390  158.9848 C   0  0  0  0  0  0  0  0  0  0  0  0
  148.6507  138.1878  158.5697 C   0  0  0  0  0  0  0  0  0  0  0  0
  150.0567  138.6277  158.1644 C   0  0  0  0  0  0  0  0  0  0  0  0
  150.9874  137.8303  158.2623 O   0  0  0  0  0  0  0  0  0  0  0  0
  150.1612  139.9016  157.7427 N   0  0  0  0  0  0  0  0  0  0  0  0
  151.3024  140.7091  157.2797 C   0  0  0  0  0  0  0  0  0  0  0  0
  151.7582  140.0343  155.9617 C   0  0  0  0  0  0  0  0  0  0  0  0
  150.9767  140.0650  154.9847 O   0  0  0  0  0  0  0  0  0  0  0  0
  152.8668  139.4522  155.9562 O   0  5  0  0  0  0  0  0  0  0  0  0
  151.0232  142.2285  157.0307 C   0  0  0  0  0  0  0  0  0  0  0  0
  150.8331  143.0568  158.3176 C   0  0  0  0  0  0  0  0  0  0  0  0
  152.0042  142.8693  159.2874 C   0  0  0  0  0  0  0  0  0  0  0  0
  152.2011  141.3844  159.6094 C   0  0  0  0  0  0  0  0  0  0  0  0
  152.4428  140.5669  158.3297 C   0  0  0  0  0  0  0  0  0  0  0  0
  149.1892  135.5488  156.1281 H   0  0  0  0  0  0  0  0  0  0  0  0
  150.6085  134.7939  156.8501 H   0  0  0  0  0  0  0  0  0  0  0  0
  150.4826  136.5461  156.7877 H   0  0  0  0  0  0  0  0  0  0  0  0
  148.2309  137.1950  162.0015 H   0  0  0  0  0  0  0  0  0  0  0  0
  146.9939  135.9422  161.8897 H   0  0  0  0  0  0  0  0  0  0  0  0
  146.7737  137.4767  161.0475 H   0  0  0  0  0  0  0  0  0  0  0  0
  147.9719  138.3497  157.7315 H   0  0  0  0  0  0  0  0  0  0  0  0
  148.2902  138.8280  159.3758 H   0  0  0  0  0  0  0  0  0  0  0  0
  149.2941  140.4179  157.7570 H   0  0  0  0  0  0  0  0  0  0  0  0
  151.8744  142.6567  156.4987 H   0  0  0  0  0  0  0  0  0  0  0  0
  150.1751  142.3778  156.3623 H   0  0  0  0  0  0  0  0  0  0  0  0
  150.7324  144.1119  158.0619 H   0  0  0  0  0  0  0  0  0  0  0  0
  149.9078  142.7785  158.8198 H   0  0  0  0  0  0  0  0  0  0  0  0
  152.9161  143.2765  158.8491 H   0  0  0  0  0  0  0  0  0  0  0  0
  151.8219  143.4297  160.2046 H   0  0  0  0  0  0  0  0  0  0  0  0
  153.0454  141.2636  160.2886 H   0  0  0  0  0  0  0  0  0  0  0  0
  151.3255  141.0010  160.1345 H   0  0  0  0  0  0  0  0  0  0  0  0
  152.5861  139.5206  158.6050 H   0  0  0  0  0  0  0  0  0  0  0  0
  153.3883  140.8924  157.8918 H   0  0  0  0  0  0  0  0  0  0  0  0
  1  2  1  0  0  0  0
  1 21  1  0  0  0  0
  1 22  1  0  0  0  0
  1 23  1  0  0  0  0
  2  7  1  0  0  0  0
  2  3  2  0  0  0  0
  3  4  1  0  0  0  0
  4  5  1  0  0  0  0
  5  6  1  0  0  0  0
  5  7  2  0  0  0  0
  6 24  1  0  0  0  0
  6 25  1  0  0  0  0
  6 26  1  0  0  0  0
  7  8  1  0  0  0  0
  8  9  1  0  0  0  0
  8 27  1  0  0  0  0
  8 28  1  0  0  0  0
  9 10  2  0  0  0  0
  9 11  1  0  0  0  0
 11 12  1  0  0  0  0
 11 29  1  0  0  0  0
 12 20  1  0  0  0  0
 12 13  1  0  0  0  0
 12 16  1  0  0  0  0
 13 14  2  0  0  0  0
 13 15  1  0  0  0  0
 16 17  1  0  0  0  0
 16 30  1  0  0  0  0
 16 31  1  0  0  0  0
 17 18  1  0  0  0  0
 17 32  1  0  0  0  0
 17 33  1  0  0  0  0
 18 19  1  0  0  0  0
 18 34  1  0  0  0  0
 18 35  1  0  0  0  0
 19 20  1  0  0  0  0
 19 36  1  0  0  0  0
 19 37  1  0  0  0  0
 20 38  1  0  0  0  0
 20 39  1  0  0  0  0
M  CHG  1  15  -1
M  END
> <s_m_source_file>
AV-unprocessed.smi

> <i_m_source_file_index>
909

> <i_lp_mmshare_version>
43012

> <i_f3d_flags>
0

> <s_epik_input>
W0NIM11jMW5vYyhbQ0gzXSljMVtDSDJdQyg9TylbTkhdQzIoQyg9TylbT0hdKVtDSDJdW0NIMl1bQ0gyXVtDSDJdW0NIMl0y

> <s_epik_cmdline>
J2VwaWtfcHl0aG9uJywgJy1waCcsICc3LjAnLCAnLXRuJywgJzgnLCAnLW1hJywgJzIwMCcsICctbWV0YWxfYmluZGluZycsICctaW1hZScsICc8aW5maWxlLm1hZT4nLCAnLW9tYWUnLCAnPG91dGZpbGUubWFlPic=

> <r_epik_Ionization_Penalty>
0.000391234

> <r_epik_Ionization_Penalty_Charging>
0.000391215

> <r_epik_Ionization_Penalty_Neutral>
1.90707e-08

> <r_epik_State_Penalty>
0.000239413

> <r_epik_Charging_Adjusted_Penalty>
0.000630628

> <i_epik_Tot_Q>
-1

> <i_epik_Tot_abs_Q>
1

> <r_epik_Metal_State_Penalty>
-0

> <b_epik_Metal_Only>
0

> <s_lp_Force_Field>
OPLS_2005

> <r_lp_Energy>
2.68806

> <b_lp_Chiralities_Consistent>
1

> <s_lp_Variant>
AV-unprocessed.smi:909-1

> <Gold.Version>
5.8.1

> <Gold.Id.Protein>
6NUR|6NUR_protein|mol2

> <Gold.PLP.Fitness>
40.8685

> <Gold.PLP.PLP>
-29.7029

> <Gold.PLP.part.hbond>
-3.6112

> <Gold.PLP.part.metal>
0.0000

> <Gold.PLP.part.buried>
-5.1324

> <Gold.PLP.part.nonpolar>
-22.4027

> <Gold.PLP.part.repulsive>
0.1532

> <Gold.PLP.ligand.clash>
0.0000

> <Gold.PLP.ligand.torsion>
0.2236

> <Gold.PLP.Chemscore.Hbond>
3.8500

> <Gold.PLP.Chemscore.CHOScore>
0.0000

> <Gold.PLP.Chemscore.Metal>
0.0000

> <Gold.Chemscore.Hbonds>
donor molecule, donor type, donor heavy atom, donor atom, acceptor molecule, acceptor atom, score
      P1  H  6896  6909       L1     3  0.98
      P1  H  7989  7998       L1    14  1.00
      P1  H  7997  8010       L1    15  2.00

> <Gold.PLP.Chemscore.Internal.Correction>
0.0628

> <Gold.Rescore>
     Score         DG    S(hbond)    S(metal)    S(lipo)     H(rot)  DE(clash)    DE(int)     intcor
     14.92     -15.17       1.96        0.00      69.12       1.93       0.01       0.25       ----

> <Gold.Chemscore.Fitness>
14.9156

> <Gold.Chemscore.DG>
-15.1665

> <Gold.Chemscore.ZeroCoef>
-5.4800

> <Gold.Chemscore.Hbond>
1.9573

> <Gold.Chemscore.Metal>
0.0000

> <Gold.Chemscore.Lipo>
69.1206

> <Gold.Chemscore.Internal_Hbond>
0.0000

> <Gold.Chemscore.DEClash>
0.0053

> <Gold.Chemscore.DEInternal>
0.2457

> <Gold.Chemscore.Rot>
1.9289

> <Gold.Chemscore.Internal.Correction>
   9.000000E+99

> <Gold.Chemscore.Hbonds>
donor molecule, donor type, donor heavy atom, donor atom, acceptor molecule, acceptor atom, score
      P1  H  6896  6909       L1     3  0.28
      P1  H  7989  7998       L1    14  0.91
      P1  H  7997  8010       L1    15  1.00

> <Gold.Chemscore.Hbond.Weighted>
-6.5373

> <Gold.Chemscore.Metal.Weighted>
-0.0000

> <Gold.Chemscore.Lipo.Weighted>
-8.0871

> <Gold.Chemscore.Internal_Hbond.Weighted>
0.0000

> <Gold.Chemscore.DEClash.Weighted>
0.0053

> <Gold.Chemscore.DEInternal.Weighted>
0.2457

> <Gold.Chemscore.Rot.Weighted>
4.9379

> <Gold.Chemscore.Internal.Correction.Weighted>
   9.000000E+99

> <Gold.Protein.RotatedTorsions>
[ 6907 6896 6895 6894 ] final   13.30 input  -60.11 | X-H torsion
[ 7974 7965 7964 7962 ] final  143.03 input  175.53 | X-H torsion
[ 8008 7997 7996 7995 ] final   91.53 input   59.86 | X-H torsion
[ 10167 10162 10161 10158 ] final  104.84 input  -65.29 | X-H torsion
[ 10718 10713 10712 10709 ] final -137.02 input   66.30 | X-H torsion
[ 10763 10752 10751 10750 ] final  -42.50 input  -60.55 | X-H torsion
[ 11005 11000 10999 10996 ] final   17.91 input  -57.11 | X-H torsion

> <Gold.Protein.ActiveResidues>
 VAL166  LYS551  ARG553  GLY616  TRP617  ASP618  TYR619  PRO620  LYS621  CYS622 
 ASP623  PHE694  ASN695  SER759  ASP760  ASP761  ALA762  ILE779  LEU786  VAL792 
 PHE793  MET794  SER795  GLU796  ALA797  LYS798  CYS799  TRP800  GLU811  SER814 

> <Gold.Protein.RotatedAtoms>
  151.7840  135.0754  160.0377 H   0  0  0  0  0  0  0  0  0  0  0  0  # atno 6907 bound_to 6896
  152.3203  133.5842  159.5748 H   0  0  0  0  0  0  0  0  0  0  0  0  # atno 6908 bound_to 6896
  150.7366  133.9937  159.3657 H   0  0  0  0  0  0  0  0  0  0  0  0  # atno 6909 bound_to 6896
  144.8956  139.5495  143.5778 H   0  0  0  0  0  0  0  0  0  0  0  0  # atno 7974 bound_to 7965
  156.0248  140.3336  155.7077 H   0  0  0  0  0  0  0  0  0  0  0  0  # atno 8008 bound_to 7997
  155.5970  140.0652  157.2761 H   0  0  0  0  0  0  0  0  0  0  0  0  # atno 8009 bound_to 7997
  154.4330  140.1817  156.1121 H   0  0  0  0  0  0  0  0  0  0  0  0  # atno 8010 bound_to 7997
  139.7143  144.7071  151.0976 H   0  0  0  0  0  0  0  0  0  0  0  0  # atno 10167 bound_to 10162
  156.2835  130.7334  151.1338 H   0  0  0  0  0  0  0  0  0  0  0  0  # atno 10718 bound_to 10713
  153.9801  135.6718  153.4750 H   0  0  0  0  0  0  0  0  0  0  0  0  # atno 10763 bound_to 10752
  153.0752  135.4952  154.8386 H   0  0  0  0  0  0  0  0  0  0  0  0  # atno 10764 bound_to 10752
  154.7169  135.3109  154.9070 H   0  0  0  0  0  0  0  0  0  0  0  0  # atno 10765 bound_to 10752
  140.4307  134.1423  155.7680 H   0  0  0  0  0  0  0  0  0  0  0  0  # atno 11005 bound_to 11000
  146.3079  139.7644  142.9042 LP  0  0  0  0  0  0  0  0  0  0  0  0  # atno 17320 bound_to 7965
  145.3705  141.0342  143.3233 LP  0  0  0  0  0  0  0  0  0  0  0  0  # atno 17321 bound_to 7965
  140.7740  143.5251  150.9490 LP  0  0  0  0  0  0  0  0  0  0  0  0  # atno 17342 bound_to 10162
  139.8936  143.6922  152.3142 LP  0  0  0  0  0  0  0  0  0  0  0  0  # atno 17343 bound_to 10162
  157.7321  131.0602  150.5643 LP  0  0  0  0  0  0  0  0  0  0  0  0  # atno 17370 bound_to 10713
  156.5751  130.4290  149.6002 LP  0  0  0  0  0  0  0  0  0  0  0  0  # atno 17371 bound_to 10713
  141.1746  133.8539  157.1461 LP  0  0  0  0  0  0  0  0  0  0  0  0  # atno 17394 bound_to 11000
  140.0136  134.9977  157.0447 LP  0  0  0  0  0  0  0  0  0  0  0  0  # atno 17395 bound_to 11000

$$$$
