AV-unprocessed.smi:1965|AV-procd|sdf|7946|dock9
  -GOLD-   2272010113D 1   1.00000     0.00000
 Structure written by MMmdl.
 36 38  0  0  0  0  0  0  0  0  3 V2000
  150.5838  140.4947  155.0303 O   0  0  0  0  0  0  0  0  0  0  0  0
  149.9462  141.5354  155.1853 C   0  0  0  0  0  0  0  0  0  0  0  0
  148.8691  141.8716  154.4294 N   0  5  0  0  0  0  0  0  0  0  0  0
  148.1388  140.9597  153.7614 C   0  0  0  0  0  0  0  0  0  0  0  0
  148.3238  139.6404  153.8865 N   0  0  0  0  0  0  0  0  0  0  0  0
  147.4541  138.8812  153.1015 C   0  0  0  0  0  0  0  0  0  0  0  0
  146.5863  139.6404  152.3626 C   0  0  0  0  0  0  0  0  0  0  0  0
  146.8327  141.3413  152.6368 S   0  0  0  0  0  0  0  0  0  0  0  0
  150.3343  142.3972  156.1449 N   0  0  0  0  0  0  0  0  0  0  0  0
  151.4789  142.2247  157.0333 C   0  0  2  0  0  0  0  0  0  0  0  0
  151.3915  140.9696  157.8914 C   0  0  0  0  0  0  0  0  0  0  0  0
  152.3841  141.2559  159.0228 C   0  0  0  0  0  0  0  0  0  0  0  0
  152.4693  142.7312  159.1582 N   0  3  2  0  0  0  0  0  0  0  0  0
  152.1888  143.2315  160.5306 C   0  0  0  0  0  0  0  0  0  0  0  0
  151.8881  144.7375  160.5172 C   0  0  0  0  0  0  0  0  0  0  0  0
  150.6324  145.0526  159.6824 C   0  0  0  0  0  0  0  0  0  0  0  0
  150.3483  143.9777  158.6156 C   0  0  0  0  0  0  0  0  0  0  0  0
  151.6551  143.3472  158.0729 C   0  0  2  0  0  0  0  0  0  0  0  0
  147.5228  137.8040  153.1304 H   0  0  0  0  0  0  0  0  0  0  0  0
  145.8190  139.3054  151.6811 H   0  0  0  0  0  0  0  0  0  0  0  0
  149.7963  143.2451  156.2509 H   0  0  0  0  0  0  0  0  0  0  0  0
  152.3875  142.1531  156.4315 H   0  0  0  0  0  0  0  0  0  0  0  0
  150.3857  140.8607  158.3003 H   0  0  0  0  0  0  0  0  0  0  0  0
  151.6302  140.0598  157.3393 H   0  0  0  0  0  0  0  0  0  0  0  0
  152.0918  140.7550  159.9466 H   0  0  0  0  0  0  0  0  0  0  0  0
  153.3745  140.8876  158.7537 H   0  0  0  0  0  0  0  0  0  0  0  0
  151.3352  142.7021  160.9578 H   0  0  0  0  0  0  0  0  0  0  0  0
  153.0462  143.0154  161.1688 H   0  0  0  0  0  0  0  0  0  0  0  0
  151.7642  145.1133  161.5332 H   0  0  0  0  0  0  0  0  0  0  0  0
  152.7459  145.2666  160.0994 H   0  0  0  0  0  0  0  0  0  0  0  0
  149.7622  145.1427  160.3334 H   0  0  0  0  0  0  0  0  0  0  0  0
  150.7570  146.0265  159.2077 H   0  0  0  0  0  0  0  0  0  0  0  0
  149.7234  143.1950  159.0481 H   0  0  0  0  0  0  0  0  0  0  0  0
  149.7603  144.4231  157.8128 H   0  0  0  0  0  0  0  0  0  0  0  0
  152.2438  144.1494  157.6251 H   0  0  0  0  0  0  0  0  0  0  0  0
  153.4262  142.9779  158.9496 H   0  0  0  0  0  0  0  0  0  0  0  0
  1  2  2  0  0  0  0
  2  3  1  0  0  0  0
  2  9  1  0  0  0  0
  3  4  1  0  0  0  0
  4  8  1  0  0  0  0
  4  5  2  0  0  0  0
  5  6  1  0  0  0  0
  6  7  2  0  0  0  0
  6 19  1  0  0  0  0
  7  8  1  0  0  0  0
  7 20  1  0  0  0  0
  9 10  1  0  0  0  0
  9 21  1  0  0  0  0
 10 18  1  0  0  0  0
 10 11  1  0  0  0  0
 10 22  1  0  0  0  0
 11 12  1  0  0  0  0
 11 23  1  0  0  0  0
 11 24  1  0  0  0  0
 12 13  1  0  0  0  0
 12 25  1  0  0  0  0
 12 26  1  0  0  0  0
 13 18  1  0  0  0  0
 13 14  1  0  0  0  0
 13 36  1  0  0  0  0
 14 15  1  0  0  0  0
 14 27  1  0  0  0  0
 14 28  1  0  0  0  0
 15 16  1  0  0  0  0
 15 29  1  0  0  0  0
 15 30  1  0  0  0  0
 16 17  1  0  0  0  0
 16 31  1  0  0  0  0
 16 32  1  0  0  0  0
 17 18  1  0  0  0  0
 17 33  1  0  0  0  0
 17 34  1  0  0  0  0
 18 35  1  0  0  0  0
M  CHG  1   3  -1
M  CHG  1  13   1
M  END
> <s_m_source_file>
AV-unprocessed.smi

> <i_m_source_file_index>
1965

> <i_lp_mmshare_version>
43012

> <i_f3d_flags>
0

> <s_epik_input>
czFbY0hdW2NIXW5jMVtOSF1DKD1PKVtOSF1bQ0BIXShbQ0gyXVtDSDJdMilbQ0BASF0oTjIzKVtDSDJdW0NIMl1bQ0gyXVtDSDJdMw==

> <s_epik_cmdline>
J2VwaWtfcHl0aG9uJywgJy1waCcsICc3LjAnLCAnLXRuJywgJzgnLCAnLW1hJywgJzIwMCcsICctbWV0YWxfYmluZGluZycsICctaW1hZScsICc8aW5maWxlLm1hZT4nLCAnLW9tYWUnLCAnPG91dGZpbGUubWFlPic=

> <r_lp_tautomer_probability>
1

> <r_epik_Ionization_Penalty>
7.4116

> <r_epik_Ionization_Penalty_Charging>
6.13869

> <r_epik_Ionization_Penalty_Neutral>
1.27291

> <r_epik_State_Penalty>
6.13761

> <r_epik_Charging_Adjusted_Penalty>
12.2763

> <i_epik_Tot_Q>
0

> <i_epik_Tot_abs_Q>
2

> <r_epik_Metal_State_Penalty>
2.08142

> <b_epik_Metal_Only>
1

> <s_lp_Force_Field>
OPLS_2005

> <r_lp_Energy>
32.0333

> <b_lp_Chiralities_Consistent>
1

> <s_lp_Variant>
AV-unprocessed.smi:1965-15

> <Gold.Version>
5.8.1

> <Gold.Id.Protein>
6NUR|6NUR_protein|mol2

> <Gold.PLP.Fitness>
43.7813

> <Gold.PLP.PLP>
-32.2399

> <Gold.PLP.part.hbond>
-2.9893

> <Gold.PLP.part.metal>
0.0000

> <Gold.PLP.part.buried>
-3.0381

> <Gold.PLP.part.nonpolar>
-27.5163

> <Gold.PLP.part.repulsive>
1.1048

> <Gold.PLP.ligand.clash>
0.0000

> <Gold.PLP.ligand.torsion>
0.1170

> <Gold.PLP.Chemscore.Hbond>
2.0197

> <Gold.PLP.Chemscore.CHOScore>
1.9043

> <Gold.PLP.Chemscore.Metal>
0.0000

> <Gold.Chemscore.Hbonds>
donor molecule, donor type, donor heavy atom, donor atom, acceptor molecule, acceptor atom, score
      L1  H     9    21       P1  8028  1.00
      P1  H  7989  7998       L1     1  1.00
      P1  H  8011  8017       L1     3  0.03
      L1  C     6    19       P1  7948  1.00
      L1  C     7    20       P1 10171  0.40
      L1  C     7    20       P1 10175  0.50

> <Gold.PLP.Chemscore.Internal.Correction>
0.0034

> <Gold.Rescore>
     Score         DG    S(hbond)    S(metal)    S(lipo)     H(rot)  DE(clash)    DE(int)     intcor
     15.89     -19.34       1.53        0.00      96.67       1.00       1.76       1.68       ----

> <Gold.Chemscore.Fitness>
15.8917

> <Gold.Chemscore.DG>
-19.3404

> <Gold.Chemscore.ZeroCoef>
-5.4800

> <Gold.Chemscore.Hbond>
1.5298

> <Gold.Chemscore.Metal>
0.0000

> <Gold.Chemscore.Lipo>
96.6747

> <Gold.Chemscore.Internal_Hbond>
0.0000

> <Gold.Chemscore.DEClash>
1.7645

> <Gold.Chemscore.DEInternal>
1.6841

> <Gold.Chemscore.Rot>
1.0000

> <Gold.Chemscore.Internal.Correction>
   9.000000E+99

> <Gold.Chemscore.Hbonds>
donor molecule, donor type, donor heavy atom, donor atom, acceptor molecule, acceptor atom, score
      L1  H     9    21       P1  8028  0.98
      P1  H  7989  7998       L1     1  0.33

> <Gold.Chemscore.Hbond.Weighted>
-5.1095

> <Gold.Chemscore.Metal.Weighted>
-0.0000

> <Gold.Chemscore.Lipo.Weighted>
-11.3109

> <Gold.Chemscore.Internal_Hbond.Weighted>
0.0000

> <Gold.Chemscore.DEClash.Weighted>
1.7645

> <Gold.Chemscore.DEInternal.Weighted>
1.6841

> <Gold.Chemscore.Rot.Weighted>
2.5600

> <Gold.Chemscore.Internal.Correction.Weighted>
   9.000000E+99

> <Gold.Protein.RotatedTorsions>
[ 6907 6896 6895 6894 ] final  -47.94 input  -60.11 | X-H torsion
[ 7974 7965 7964 7962 ] final  112.00 input  175.53 | X-H torsion
[ 8008 7997 7996 7995 ] final  145.87 input   59.86 | X-H torsion
[ 10167 10162 10161 10158 ] final -141.06 input  -65.29 | X-H torsion
[ 10718 10713 10712 10709 ] final   16.33 input   66.30 | X-H torsion
[ 10763 10752 10751 10750 ] final  -47.67 input  -60.55 | X-H torsion
[ 11005 11000 10999 10996 ] final   32.74 input  -57.11 | X-H torsion

> <Gold.Protein.ActiveResidues>
 VAL166  LYS551  ARG553  GLY616  TRP617  ASP618  TYR619  PRO620  LYS621  CYS622 
 ASP623  PHE694  ASN695  SER759  ASP760  ASP761  ALA762  ILE779  LEU786  VAL792 
 PHE793  MET794  SER795  GLU796  ALA797  LYS798  CYS799  TRP800  GLU811  SER814 

> <Gold.Protein.RotatedAtoms>
  150.8957  134.8365  159.7324 H   0  0  0  0  0  0  0  0  0  0  0  0  # atno 6907 bound_to 6896
  152.4863  134.4580  159.9606 H   0  0  0  0  0  0  0  0  0  0  0  0  # atno 6908 bound_to 6896
  151.4637  133.3547  159.2848 H   0  0  0  0  0  0  0  0  0  0  0  0  # atno 6909 bound_to 6896
  145.2350  139.2803  143.4148 H   0  0  0  0  0  0  0  0  0  0  0  0  # atno 7974 bound_to 7965
  156.2871  140.2197  156.5285 H   0  0  0  0  0  0  0  0  0  0  0  0  # atno 8008 bound_to 7997
  154.7469  140.0483  157.0881 H   0  0  0  0  0  0  0  0  0  0  0  0  # atno 8009 bound_to 7997
  155.0160  140.3118  155.4815 H   0  0  0  0  0  0  0  0  0  0  0  0  # atno 8010 bound_to 7997
  139.8221  143.7559  152.2666 H   0  0  0  0  0  0  0  0  0  0  0  0  # atno 10167 bound_to 10162
  157.0662  130.6329  149.5796 H   0  0  0  0  0  0  0  0  0  0  0  0  # atno 10718 bound_to 10713
  154.0652  135.6612  153.4817 H   0  0  0  0  0  0  0  0  0  0  0  0  # atno 10763 bound_to 10752
  153.0411  135.5144  154.7620 H   0  0  0  0  0  0  0  0  0  0  0  0  # atno 10764 bound_to 10752
  154.6669  135.3023  154.9761 H   0  0  0  0  0  0  0  0  0  0  0  0  # atno 10765 bound_to 10752
  140.2704  134.3089  155.7830 H   0  0  0  0  0  0  0  0  0  0  0  0  # atno 11005 bound_to 11000
  146.3343  140.2697  142.8605 LP  0  0  0  0  0  0  0  0  0  0  0  0  # atno 17320 bound_to 7965
  144.9641  140.8304  143.5495 LP  0  0  0  0  0  0  0  0  0  0  0  0  # atno 17321 bound_to 7965
  139.7741  144.7467  151.0182 LP  0  0  0  0  0  0  0  0  0  0  0  0  # atno 17342 bound_to 10162
  140.7812  143.4613  151.0274 LP  0  0  0  0  0  0  0  0  0  0  0  0  # atno 17343 bound_to 10162
  155.9963  130.5032  150.7494 LP  0  0  0  0  0  0  0  0  0  0  0  0  # atno 17370 bound_to 10713
  157.4914  131.0911  151.0422 LP  0  0  0  0  0  0  0  0  0  0  0  0  # atno 17371 bound_to 10713
  141.2178  133.7463  156.9325 LP  0  0  0  0  0  0  0  0  0  0  0  0  # atno 17394 bound_to 11000
  140.1379  134.9313  157.2427 LP  0  0  0  0  0  0  0  0  0  0  0  0  # atno 17395 bound_to 11000

$$$$
