AV-unprocessed.smi:1158|AV-procd|sdf|4912|dock4
  -GOLD-   22720 3493D 1   1.00000     0.00000
 Structure written by MMmdl.
 43 44  0  0  0  0  0  0  0  0  2 V2000
  146.3109  132.8597  152.3889 C   0  0  0  0  0  0  0  0  0  0  0  0
  147.5973  133.3875  152.6937 O   0  0  0  0  0  0  0  0  0  0  0  0
  148.4617  132.6224  153.4536 C   0  0  0  0  0  0  0  0  0  0  0  0
  148.3304  131.2724  153.4159 N   0  0  0  0  0  0  0  0  0  0  0  0
  149.1693  130.5239  154.1609 C   0  0  0  0  0  0  0  0  0  0  0  0
  150.1698  131.0750  154.9817 C   0  0  0  0  0  0  0  0  0  0  0  0
  150.3085  132.4746  155.0224 C   0  0  0  0  0  0  0  0  0  0  0  0
  149.4457  133.2744  154.2337 C   0  0  0  0  0  0  0  0  0  0  0  0
  149.4866  134.6966  154.2087 N   0  0  0  0  0  0  0  0  0  0  0  0
  149.8933  135.5448  155.1685 C   0  0  0  0  0  0  0  0  0  0  0  0
  150.3069  135.2207  156.2812 O   0  0  0  0  0  0  0  0  0  0  0  0
  149.8080  136.8180  154.7566 N   0  0  0  0  0  0  0  0  0  0  0  0
  150.1958  137.9838  155.5457 C   0  0  2  0  0  0  0  0  0  0  0  0
  149.0009  138.9299  155.7554 C   0  0  0  0  0  0  0  0  0  0  0  0
  149.4282  140.2027  156.5044 C   0  0  0  0  0  0  0  0  0  0  0  0
  150.5253  140.9101  155.7926 N   0  3  1  0  0  0  0  0  0  0  0  0
  150.8567  142.2083  156.4368 C   0  0  0  0  0  0  0  0  0  0  0  0
  151.0417  142.1013  157.9606 C   0  0  0  0  0  0  0  0  0  0  0  0
  152.1560  141.4201  158.2238 F   0  0  0  0  0  0  0  0  0  0  0  0
  151.1338  143.2987  158.5374 F   0  0  0  0  0  0  0  0  0  0  0  0
  151.7053  140.0250  155.5998 C   0  0  0  0  0  0  0  0  0  0  0  0
  151.3275  138.7435  154.8370 C   0  0  0  0  0  0  0  0  0  0  0  0
  145.7560  133.5853  151.7945 H   0  0  0  0  0  0  0  0  0  0  0  0
  145.7344  132.6638  153.2942 H   0  0  0  0  0  0  0  0  0  0  0  0
  146.3842  131.9412  151.8050 H   0  0  0  0  0  0  0  0  0  0  0  0
  149.0351  129.4536  154.1055 H   0  0  0  0  0  0  0  0  0  0  0  0
  150.8139  130.4386  155.5704 H   0  0  0  0  0  0  0  0  0  0  0  0
  151.0611  132.9015  155.6663 H   0  0  0  0  0  0  0  0  0  0  0  0
  149.2430  135.1143  153.3224 H   0  0  0  0  0  0  0  0  0  0  0  0
  149.4608  136.9919  153.8245 H   0  0  0  0  0  0  0  0  0  0  0  0
  150.5637  137.6504  156.5182 H   0  0  0  0  0  0  0  0  0  0  0  0
  148.5684  139.2032  154.7916 H   0  0  0  0  0  0  0  0  0  0  0  0
  148.2126  138.4254  156.3155 H   0  0  0  0  0  0  0  0  0  0  0  0
  148.5645  140.8615  156.6020 H   0  0  0  0  0  0  0  0  0  0  0  0
  149.7515  139.9530  157.5164 H   0  0  0  0  0  0  0  0  0  0  0  0
  151.8020  142.5639  156.0241 H   0  0  0  0  0  0  0  0  0  0  0  0
  150.1124  142.9647  156.1831 H   0  0  0  0  0  0  0  0  0  0  0  0
  150.2205  141.5621  158.4341 H   0  0  0  0  0  0  0  0  0  0  0  0
  152.4807  140.5408  155.0368 H   0  0  0  0  0  0  0  0  0  0  0  0
  152.1344  139.7713  156.5705 H   0  0  0  0  0  0  0  0  0  0  0  0
  152.2044  138.1018  154.7403 H   0  0  0  0  0  0  0  0  0  0  0  0
  151.0218  139.0039  153.8225 H   0  0  0  0  0  0  0  0  0  0  0  0
  150.1673  141.1297  154.8741 H   0  0  0  0  0  0  0  0  0  0  0  0
  1  2  1  0  0  0  0
  1 23  1  0  0  0  0
  1 24  1  0  0  0  0
  1 25  1  0  0  0  0
  2  3  1  0  0  0  0
  3  8  1  0  0  0  0
  3  4  2  0  0  0  0
  4  5  1  0  0  0  0
  5  6  2  0  0  0  0
  5 26  1  0  0  0  0
  6  7  1  0  0  0  0
  6 27  1  0  0  0  0
  7  8  2  0  0  0  0
  7 28  1  0  0  0  0
  8  9  1  0  0  0  0
  9 10  1  0  0  0  0
  9 29  1  0  0  0  0
 10 11  2  0  0  0  0
 10 12  1  0  0  0  0
 12 13  1  0  0  0  0
 12 30  1  0  0  0  0
 13 22  1  0  0  0  0
 13 14  1  0  0  0  0
 13 31  1  0  0  0  0
 14 15  1  0  0  0  0
 14 32  1  0  0  0  0
 14 33  1  0  0  0  0
 15 16  1  0  0  0  0
 15 34  1  0  0  0  0
 15 35  1  0  0  0  0
 16 17  1  0  0  0  0
 16 21  1  0  0  0  0
 16 43  1  0  0  0  0
 17 18  1  0  0  0  0
 17 36  1  0  0  0  0
 17 37  1  0  0  0  0
 18 19  1  0  0  0  0
 18 20  1  0  0  0  0
 18 38  1  0  0  0  0
 21 22  1  0  0  0  0
 21 39  1  0  0  0  0
 21 40  1  0  0  0  0
 22 41  1  0  0  0  0
 22 42  1  0  0  0  0
M  CHG  1  16   1
M  END
> <s_m_source_file>
AV-unprocessed.smi

> <i_m_source_file_index>
1158

> <i_lp_mmshare_version>
43012

> <i_f3d_flags>
0

> <s_epik_input>
W0NIM11PYzFuW2NIXVtjSF1bY0hdYzFbTkhdQyg9TylbTkhdW0NIXTJbQ0gyXVtDSDJdTihbQ0gyXVtDSF0oRilGKVtDSDJdW0NIMl0y

> <s_epik_cmdline>
J2VwaWtfcHl0aG9uJywgJy1waCcsICc3LjAnLCAnLXRuJywgJzgnLCAnLW1hJywgJzIwMCcsICctbWV0YWxfYmluZGluZycsICctaW1hZScsICc8aW5maWxlLm1hZT4nLCAnLW9tYWUnLCAnPG91dGZpbGUubWFlPic=

> <r_lp_tautomer_probability>
1

> <r_epik_Ionization_Penalty>
0.802109

> <r_epik_Ionization_Penalty_Charging>
0.802031

> <r_epik_Ionization_Penalty_Neutral>
7.83352e-05

> <r_epik_State_Penalty>
0.833408

> <r_epik_Charging_Adjusted_Penalty>
1.63544

> <i_epik_Tot_Q>
1

> <i_epik_Tot_abs_Q>
1

> <r_epik_Metal_State_Penalty>
0.833416

> <b_epik_Metal_Only>
0

> <s_lp_Force_Field>
OPLS_2005

> <r_lp_Energy>
21.1994

> <b_lp_Chiralities_Consistent>
1

> <s_lp_Variant>
AV-unprocessed.smi:1158-2

> <Gold.Version>
5.8.1

> <Gold.Id.Protein>
6NUR|6NUR_protein|mol2

> <Gold.PLP.Fitness>
39.5901

> <Gold.PLP.PLP>
-35.5038

> <Gold.PLP.part.hbond>
-2.0000

> <Gold.PLP.part.metal>
0.0000

> <Gold.PLP.part.buried>
-5.9298

> <Gold.PLP.part.nonpolar>
-28.2888

> <Gold.PLP.part.repulsive>
0.6401

> <Gold.PLP.ligand.clash>
0.0000

> <Gold.PLP.ligand.torsion>
0.6957

> <Gold.PLP.Chemscore.Hbond>
1.8000

> <Gold.PLP.Chemscore.CHOScore>
0.0000

> <Gold.PLP.Chemscore.Metal>
0.0000

> <Gold.Chemscore.Hbonds>
donor molecule, donor type, donor heavy atom, donor atom, acceptor molecule, acceptor atom, score
      L1  H     9    29       P1  7948  0.80
      L1  H    12    30       P1  7948  0.71

> <Gold.PLP.Chemscore.Internal.Correction>
0.0777

> <Gold.Rescore>
     Score         DG    S(hbond)    S(metal)    S(lipo)     H(rot)  DE(clash)    DE(int)     intcor
     12.20     -13.99       1.52        0.00      63.76       1.58       0.01       1.78       ----

> <Gold.Chemscore.Fitness>
12.2015

> <Gold.Chemscore.DG>
-13.9927

> <Gold.Chemscore.ZeroCoef>
-5.4800

> <Gold.Chemscore.Hbond>
1.5239

> <Gold.Chemscore.Metal>
0.0000

> <Gold.Chemscore.Lipo>
63.7616

> <Gold.Chemscore.Internal_Hbond>
0.0000

> <Gold.Chemscore.DEClash>
0.0087

> <Gold.Chemscore.DEInternal>
1.7824

> <Gold.Chemscore.Rot>
1.5770

> <Gold.Chemscore.Internal.Correction>
   9.000000E+99

> <Gold.Chemscore.Hbonds>
donor molecule, donor type, donor heavy atom, donor atom, acceptor molecule, acceptor atom, score
      L1  H     9    29       P1  7948  0.12
      L1  H    12    30       P1  7948  0.63

> <Gold.Chemscore.Hbond.Weighted>
-5.0897

> <Gold.Chemscore.Metal.Weighted>
-0.0000

> <Gold.Chemscore.Lipo.Weighted>
-7.4601

> <Gold.Chemscore.Internal_Hbond.Weighted>
0.0000

> <Gold.Chemscore.DEClash.Weighted>
0.0087

> <Gold.Chemscore.DEInternal.Weighted>
1.7824

> <Gold.Chemscore.Rot.Weighted>
4.0371

> <Gold.Chemscore.Internal.Correction.Weighted>
   9.000000E+99

> <Gold.Protein.RotatedTorsions>
[ 6907 6896 6895 6894 ] final  118.10 input  -60.11 | X-H torsion
[ 7974 7965 7964 7962 ] final  176.32 input  175.53 | X-H torsion
[ 8008 7997 7996 7995 ] final  125.47 input   59.86 | X-H torsion
[ 10167 10162 10161 10158 ] final   64.46 input  -65.29 | X-H torsion
[ 10718 10713 10712 10709 ] final  -65.54 input   66.30 | X-H torsion
[ 10763 10752 10751 10750 ] final -177.54 input  -60.55 | X-H torsion
[ 11005 11000 10999 10996 ] final   50.61 input  -57.11 | X-H torsion

> <Gold.Protein.ActiveResidues>
 VAL166  LYS551  ARG553  GLY616  TRP617  ASP618  TYR619  PRO620  LYS621  CYS622 
 ASP623  PHE694  ASN695  SER759  ASP760  ASP761  ALA762  ILE779  LEU786  VAL792 
 PHE793  MET794  SER795  GLU796  ALA797  LYS798  CYS799  TRP800  GLU811  SER814 

> <Gold.Protein.RotatedAtoms>
  152.4566  133.7736  159.6812 H   0  0  0  0  0  0  0  0  0  0  0  0  # atno 6907 bound_to 6896
  150.8495  133.7799  159.3037 H   0  0  0  0  0  0  0  0  0  0  0  0  # atno 6908 bound_to 6896
  151.5399  135.1071  159.9975 H   0  0  0  0  0  0  0  0  0  0  0  0  # atno 6909 bound_to 6896
  144.7186  140.0079  143.6440 H   0  0  0  0  0  0  0  0  0  0  0  0  # atno 7974 bound_to 7965
  156.2835  140.2715  156.1955 H   0  0  0  0  0  0  0  0  0  0  0  0  # atno 8008 bound_to 7997
  155.0414  140.0386  157.2529 H   0  0  0  0  0  0  0  0  0  0  0  0  # atno 8009 bound_to 7997
  154.7271  140.2699  155.6495 H   0  0  0  0  0  0  0  0  0  0  0  0  # atno 8010 bound_to 7997
  140.1219  144.4723  150.6915 H   0  0  0  0  0  0  0  0  0  0  0  0  # atno 10167 bound_to 10162
  156.0664  130.4249  150.1578 H   0  0  0  0  0  0  0  0  0  0  0  0  # atno 10718 bound_to 10713
  154.5589  135.2818  155.0938 H   0  0  0  0  0  0  0  0  0  0  0  0  # atno 10763 bound_to 10752
  154.2355  135.6366  153.5193 H   0  0  0  0  0  0  0  0  0  0  0  0  # atno 10764 bound_to 10752
  153.0023  135.5547  154.6177 H   0  0  0  0  0  0  0  0  0  0  0  0  # atno 10765 bound_to 10752
  140.1003  134.5090  155.8769 H   0  0  0  0  0  0  0  0  0  0  0  0  # atno 11005 bound_to 11000
  146.0282  139.3311  143.0771 LP  0  0  0  0  0  0  0  0  0  0  0  0  # atno 17320 bound_to 7965
  145.8485  140.9542  143.0762 LP  0  0  0  0  0  0  0  0  0  0  0  0  # atno 17321 bound_to 7965
  140.6867  143.2354  151.5241 LP  0  0  0  0  0  0  0  0  0  0  0  0  # atno 17342 bound_to 10162
  139.5564  144.2265  152.1619 LP  0  0  0  0  0  0  0  0  0  0  0  0  # atno 17343 bound_to 10162
  156.9637  130.9813  151.3473 LP  0  0  0  0  0  0  0  0  0  0  0  0  # atno 17370 bound_to 10713
  157.5708  130.8309  149.8389 LP  0  0  0  0  0  0  0  0  0  0  0  0  # atno 17371 bound_to 10713
  141.2103  133.6694  156.6504 LP  0  0  0  0  0  0  0  0  0  0  0  0  # atno 17394 bound_to 11000
  140.3230  134.7992  157.4267 LP  0  0  0  0  0  0  0  0  0  0  0  0  # atno 17395 bound_to 11000

$$$$
