AV-unprocessed.smi:72|AV-procd|sdf|705|dock8
  -GOLD-   2262017 23D 1   1.00000     0.00000
 Structure written by MMmdl.
 30 31  0  0  0  0  0  0  0  0  2 V2000
  146.0159  138.9851  152.1455 N   0  0  0  0  0  0  0  0  0  0  0  0
  147.0305  139.3509  153.0055 C   0  0  0  0  0  0  0  0  0  0  0  0
  148.1877  138.5928  152.9940 N   0  3  0  0  0  0  0  0  0  0  0  0
  149.2631  138.8150  153.7622 C   0  0  0  0  0  0  0  0  0  0  0  0
  149.2481  139.8264  154.6068 N   0  0  0  0  0  0  0  0  0  0  0  0
  150.4234  140.1318  155.5042 C   0  0  2  0  0  0  0  0  0  0  0  0
  151.5975  139.9878  154.7630 O   0  0  0  0  0  0  0  0  0  0  0  0
  152.2838  138.8028  155.1549 C   0  0  1  0  0  0  0  0  0  0  0  0
  153.7759  138.8754  154.7882 C   0  0  0  0  0  0  0  0  0  0  0  0
  154.4937  137.8946  155.5061 O   0  0  0  0  0  0  0  0  0  0  0  0
  151.9704  138.7090  156.6527 C   0  0  1  0  0  0  0  0  0  0  0  0
  152.8038  139.5711  157.4058 O   0  0  0  0  0  0  0  0  0  0  0  0
  150.5228  139.1775  156.7193 C   0  0  2  0  0  0  0  0  0  0  0  0
  149.6586  138.0562  156.6398 O   0  0  0  0  0  0  0  0  0  0  0  0
  148.1029  140.6597  154.6922 C   0  0  0  0  0  0  0  0  0  0  0  0
  148.0762  141.6011  155.4842 O   0  0  0  0  0  0  0  0  0  0  0  0
  147.0289  140.3489  153.8452 N   0  0  0  0  0  0  0  0  0  0  0  0
  150.3261  141.1834  155.7795 H   0  0  0  0  0  0  0  0  0  0  0  0
  151.8237  137.9425  154.6656 H   0  0  0  0  0  0  0  0  0  0  0  0
  152.1039  137.6956  157.0343 H   0  0  0  0  0  0  0  0  0  0  0  0
  150.2998  139.7226  157.6377 H   0  0  0  0  0  0  0  0  0  0  0  0
  145.1373  139.4805  152.0849 H   0  0  0  0  0  0  0  0  0  0  0  0
  146.0665  138.1991  151.5132 H   0  0  0  0  0  0  0  0  0  0  0  0
  150.1195  138.1609  153.6703 H   0  0  0  0  0  0  0  0  0  0  0  0
  153.9312  138.7490  153.7162 H   0  0  0  0  0  0  0  0  0  0  0  0
  154.1843  139.8474  155.0660 H   0  0  0  0  0  0  0  0  0  0  0  0
  154.3432  138.0276  156.4298 H   0  0  0  0  0  0  0  0  0  0  0  0
  152.4568  139.6385  158.2823 H   0  0  0  0  0  0  0  0  0  0  0  0
  150.1823  137.2863  156.4757 H   0  0  0  0  0  0  0  0  0  0  0  0
  148.2221  137.8118  152.3546 H   0  0  0  0  0  0  0  0  0  0  0  0
  1  2  1  0  0  0  0
  1 22  1  0  0  0  0
  1 23  1  0  0  0  0
  2 17  2  0  0  0  0
  2  3  1  0  0  0  0
  3  4  2  0  0  0  0
  3 30  1  0  0  0  0
  4  5  1  0  0  0  0
  4 24  1  0  0  0  0
  5  6  1  0  0  0  0
  5 15  1  0  0  0  0
  6 18  1  0  0  0  0
  6 13  1  0  0  0  0
  6  7  1  0  0  0  0
  7  8  1  0  0  0  0
  8 19  1  0  0  0  0
  8  9  1  0  0  0  0
  8 11  1  0  0  0  0
  9 10  1  0  0  0  0
  9 25  1  0  0  0  0
  9 26  1  0  0  0  0
 10 27  1  0  0  0  0
 11 20  1  0  0  0  0
 11 12  1  0  0  0  0
 11 13  1  0  0  0  0
 12 28  1  0  0  0  0
 13 21  1  0  0  0  0
 13 14  1  0  0  0  0
 14 29  1  0  0  0  0
 15 16  2  0  0  0  0
 15 17  1  0  0  0  0
M  CHG  1   3   1
M  END
> <s_m_source_file>
AV-unprocessed.smi

> <i_m_source_file_index>
72

> <i_lp_mmshare_version>
43012

> <i_f3d_flags>
0

> <s_epik_input>
W05IMl1jMW5bY0hdbihjKD1PKW4xKVtDQEBIXTJPW0NASF0oW0NIMl1bT0hdKVtDQEBIXShbT0hdKVtDQEhdMltPSF0=

> <s_epik_cmdline>
J2VwaWtfcHl0aG9uJywgJy1waCcsICc3LjAnLCAnLXRuJywgJzgnLCAnLW1hJywgJzIwMCcsICctbWV0YWxfYmluZGluZycsICctaW1hZScsICc8aW5maWxlLm1hZT4nLCAnLW9tYWUnLCAnPG91dGZpbGUubWFlPic=

> <r_lp_tautomer_probability>
4.77166e-05

> <r_epik_Ionization_Penalty>
0.104979

> <r_epik_Ionization_Penalty_Charging>
0.0999619

> <r_epik_Ionization_Penalty_Neutral>
0.00501745

> <r_epik_State_Penalty>
2.51541

> <r_epik_Charging_Adjusted_Penalty>
2.61537

> <i_epik_Tot_Q>
1

> <i_epik_Tot_abs_Q>
1

> <r_epik_Metal_State_Penalty>
3.53763

> <b_epik_Metal_Only>
0

> <s_epik_Chemistry_Notes>
This compound contains an acetal/aminal-like group ( X-CH(R)-Y where X, Y are N, S, or O) that may be acid/base labile, releasing an aldehyde.

> <s_lp_Force_Field>
OPLS_2005

> <r_lp_Energy>
35.1753

> <b_lp_Chiralities_Consistent>
1

> <s_lp_Variant>
AV-unprocessed.smi:72-43

> <Gold.Version>
5.8.1

> <Gold.Id.Protein>
6NUR|6NUR_protein|mol2

> <Gold.PLP.Fitness>
38.8588

> <Gold.PLP.PLP>
-24.6303

> <Gold.PLP.part.hbond>
-7.3908

> <Gold.PLP.part.metal>
0.0000

> <Gold.PLP.part.buried>
0.1921

> <Gold.PLP.part.nonpolar>
-19.0552

> <Gold.PLP.part.repulsive>
0.8441

> <Gold.PLP.ligand.clash>
0.0000

> <Gold.PLP.ligand.torsion>
0.5792

> <Gold.PLP.Chemscore.Hbond>
4.9913

> <Gold.PLP.Chemscore.CHOScore>
0.1065

> <Gold.PLP.Chemscore.Metal>
0.0000

> <Gold.Chemscore.Hbonds>
donor molecule, donor type, donor heavy atom, donor atom, acceptor molecule, acceptor atom, score
      L1  H     1    22       P1 10175  1.00
      L1  H     3    30       P1  7948  1.98
      P1  H  7989  7998       L1     7  1.00
      P1  H  7997  8008       L1    12  1.00
      L1  C     4    24       P1  7948  0.08

> <Gold.PLP.Chemscore.Internal.Correction>
0.0938

> <Gold.Rescore>
     Score         DG    S(hbond)    S(metal)    S(lipo)     H(rot)  DE(clash)    DE(int)     intcor
      8.86     -10.88       3.80        0.00      27.03       4.08       1.31       0.71       ----

> <Gold.Chemscore.Fitness>
8.8620

> <Gold.Chemscore.DG>
-10.8778

> <Gold.Chemscore.ZeroCoef>
-5.4800

> <Gold.Chemscore.Hbond>
3.7952

> <Gold.Chemscore.Metal>
0.0000

> <Gold.Chemscore.Lipo>
27.0276

> <Gold.Chemscore.Internal_Hbond>
0.0000

> <Gold.Chemscore.DEClash>
1.3106

> <Gold.Chemscore.DEInternal>
0.7051

> <Gold.Chemscore.Rot>
4.0783

> <Gold.Chemscore.Internal.Correction>
   9.000000E+99

> <Gold.Chemscore.Hbonds>
donor molecule, donor type, donor heavy atom, donor atom, acceptor molecule, acceptor atom, score
      L1  H     1    22       P1 10175  0.98
      L1  H     3    30       P1  7948  0.94
      P1  H  7989  7998       L1     7  0.81
      P1  H  7997  8008       L1    12  0.92

> <Gold.Chemscore.Hbond.Weighted>
-12.6759

> <Gold.Chemscore.Metal.Weighted>
-0.0000

> <Gold.Chemscore.Lipo.Weighted>
-3.1622

> <Gold.Chemscore.Internal_Hbond.Weighted>
0.0000

> <Gold.Chemscore.DEClash.Weighted>
1.3106

> <Gold.Chemscore.DEInternal.Weighted>
0.7051

> <Gold.Chemscore.Rot.Weighted>
10.4404

> <Gold.Chemscore.Internal.Correction.Weighted>
   9.000000E+99

> <Gold.Protein.RotatedTorsions>
[ 6907 6896 6895 6894 ] final  -55.38 input  -60.11 | X-H torsion
[ 7974 7965 7964 7962 ] final   11.14 input  175.53 | X-H torsion
[ 8008 7997 7996 7995 ] final  -55.78 input   59.86 | X-H torsion
[ 10167 10162 10161 10158 ] final -102.40 input  -65.29 | X-H torsion
[ 10718 10713 10712 10709 ] final  -54.74 input   66.30 | X-H torsion
[ 10763 10752 10751 10750 ] final   72.51 input  -60.55 | X-H torsion
[ 11005 11000 10999 10996 ] final   96.31 input  -57.11 | X-H torsion

> <Gold.Protein.ActiveResidues>
 VAL166  LYS551  ARG553  GLY616  TRP617  ASP618  TYR619  PRO620  LYS621  CYS622 
 ASP623  PHE694  ASN695  SER759  ASP760  ASP761  ALA762  ILE779  LEU786  VAL792 
 PHE793  MET794  SER795  GLU796  ALA797  LYS798  CYS799  TRP800  GLU811  SER814 

> <Gold.Protein.RotatedAtoms>
  150.8256  134.7486  159.6809 H   0  0  0  0  0  0  0  0  0  0  0  0  # atno 6907 bound_to 6896
  152.4367  134.5668  159.9920 H   0  0  0  0  0  0  0  0  0  0  0  0  # atno 6908 bound_to 6896
  151.5841  133.3336  159.3050 H   0  0  0  0  0  0  0  0  0  0  0  0  # atno 6909 bound_to 6896
  146.2376  139.9529  142.8468 H   0  0  0  0  0  0  0  0  0  0  0  0  # atno 7974 bound_to 7965
  154.4207  140.1145  156.5532 H   0  0  0  0  0  0  0  0  0  0  0  0  # atno 8008 bound_to 7997
  155.6388  140.3496  155.4689 H   0  0  0  0  0  0  0  0  0  0  0  0  # atno 8009 bound_to 7997
  155.9888  140.1175  157.0648 H   0  0  0  0  0  0  0  0  0  0  0  0  # atno 8010 bound_to 7997
  140.2311  143.3606  152.0886 H   0  0  0  0  0  0  0  0  0  0  0  0  # atno 10167 bound_to 10162
  156.1425  130.4154  150.0078 H   0  0  0  0  0  0  0  0  0  0  0  0  # atno 10718 bound_to 10713
  153.0463  135.5097  154.7754 H   0  0  0  0  0  0  0  0  0  0  0  0  # atno 10763 bound_to 10752
  154.6651  135.2944  154.9817 H   0  0  0  0  0  0  0  0  0  0  0  0  # atno 10764 bound_to 10752
  154.0655  135.6685  153.4870 H   0  0  0  0  0  0  0  0  0  0  0  0  # atno 10765 bound_to 10752
  139.8782  134.8944  156.4141 H   0  0  0  0  0  0  0  0  0  0  0  0  # atno 11005 bound_to 11000
  145.1844  140.9782  143.4247 LP  0  0  0  0  0  0  0  0  0  0  0  0  # atno 17320 bound_to 7965
  144.9913  139.3687  143.6213 LP  0  0  0  0  0  0  0  0  0  0  0  0  # atno 17321 bound_to 7965
  139.5110  144.6893  151.5804 LP  0  0  0  0  0  0  0  0  0  0  0  0  # atno 17342 bound_to 10162
  140.6184  143.9304  150.6507 LP  0  0  0  0  0  0  0  0  0  0  0  0  # atno 17343 bound_to 10162
  156.7959  130.9273  151.3646 LP  0  0  0  0  0  0  0  0  0  0  0  0  # atno 17370 bound_to 10713
  157.6588  130.8948  149.9786 LP  0  0  0  0  0  0  0  0  0  0  0  0  # atno 17371 bound_to 10713
  140.9180  133.7665  155.9872 LP  0  0  0  0  0  0  0  0  0  0  0  0  # atno 17394 bound_to 11000
  140.8472  134.2997  157.5290 LP  0  0  0  0  0  0  0  0  0  0  0  0  # atno 17395 bound_to 11000

$$$$
