AV-unprocessed.smi:1106|AV-procd|sdf|4777|dock4
  -GOLD-   22720 3313D 1   1.00000     0.00000
 Structure written by MMmdl.
 48 49  0  0  0  0  0  0  0  0  2 V2000
  151.0478  142.6593  157.5772 C   0  0  0  0  0  0  0  0  0  0  0  0
  150.7663  142.0047  156.2165 C   0  0  0  0  0  0  0  0  0  0  0  0
  149.3982  141.5798  156.0695 N   0  0  0  0  0  0  0  0  0  0  0  0
  148.5027  141.6410  157.1195 C   0  0  0  0  0  0  0  0  0  0  0  0
  147.2164  141.2446  157.0092 C   0  0  0  0  0  0  0  0  0  0  0  0
  146.3101  141.3223  158.1068 C   0  0  0  0  0  0  0  0  0  0  0  0
  145.5921  141.3879  159.0120 N   0  0  0  0  0  0  0  0  0  0  0  0
  146.6945  140.7150  155.7516 C   0  0  0  0  0  0  0  0  0  0  0  0
  145.5259  140.3563  155.5938 O   0  0  0  0  0  0  0  0  0  0  0  0
  147.6436  140.6489  154.7005 N   0  0  0  0  0  0  0  0  0  0  0  0
  147.1868  140.1229  153.4220 C   0  0  0  0  0  0  0  0  0  0  0  0
  146.8894  138.6066  153.4326 C   0  0  2  0  0  0  0  0  0  0  0  0
  148.1162  137.9361  153.6366 O   0  0  0  0  0  0  0  0  0  0  0  0
  146.2607  138.0891  152.1211 C   0  0  0  0  0  0  0  0  0  0  0  0
  146.2106  136.6061  152.0611 N   0  3  2  0  0  0  0  0  0  0  0  0
  145.5151  136.1137  150.8445 C   0  0  0  0  0  0  0  0  0  0  0  0
  145.5994  134.5816  150.7373 C   0  0  0  0  0  0  0  0  0  0  0  0
  145.0293  133.9000  151.9928 C   0  0  1  0  0  0  0  0  0  0  0  0
  145.1366  132.3707  151.9096 C   0  0  0  0  0  0  0  0  0  0  0  0
  145.7437  134.4543  153.2367 C   0  0  0  0  0  0  0  0  0  0  0  0
  145.6540  135.9885  153.2945 C   0  0  0  0  0  0  0  0  0  0  0  0
  148.9903  141.0740  154.8132 C   0  0  0  0  0  0  0  0  0  0  0  0
  149.7728  141.0185  153.8607 O   0  0  0  0  0  0  0  0  0  0  0  0
  152.0804  143.0042  157.6321 H   0  0  0  0  0  0  0  0  0  0  0  0
  150.8896  141.9619  158.4001 H   0  0  0  0  0  0  0  0  0  0  0  0
  150.4009  143.5218  157.7397 H   0  0  0  0  0  0  0  0  0  0  0  0
  150.9496  142.7111  155.4056 H   0  0  0  0  0  0  0  0  0  0  0  0
  151.4033  141.1389  156.0262 H   0  0  0  0  0  0  0  0  0  0  0  0
  148.8445  142.0238  158.0706 H   0  0  0  0  0  0  0  0  0  0  0  0
  146.3214  140.6995  153.0923 H   0  0  0  0  0  0  0  0  0  0  0  0
  147.9651  140.3669  152.6958 H   0  0  0  0  0  0  0  0  0  0  0  0
  146.2475  138.3767  154.2819 H   0  0  0  0  0  0  0  0  0  0  0  0
  148.1724  137.2173  153.0248 H   0  0  0  0  0  0  0  0  0  0  0  0
  145.2495  138.4752  151.9909 H   0  0  0  0  0  0  0  0  0  0  0  0
  146.8435  138.4780  151.2843 H   0  0  0  0  0  0  0  0  0  0  0  0
  144.4722  136.4350  150.8635 H   0  0  0  0  0  0  0  0  0  0  0  0
  145.9680  136.5573  149.9567 H   0  0  0  0  0  0  0  0  0  0  0  0
  145.0582  134.2464  149.8517 H   0  0  0  0  0  0  0  0  0  0  0  0
  146.6394  134.2842  150.5941 H   0  0  0  0  0  0  0  0  0  0  0  0
  143.9707  134.1541  152.0669 H   0  0  0  0  0  0  0  0  0  0  0  0
  146.1756  132.0482  151.8344 H   0  0  0  0  0  0  0  0  0  0  0  0
  144.6050  131.9872  151.0382 H   0  0  0  0  0  0  0  0  0  0  0  0
  144.7045  131.8984  152.7921 H   0  0  0  0  0  0  0  0  0  0  0  0
  145.3055  134.0280  154.1399 H   0  0  0  0  0  0  0  0  0  0  0  0
  146.7919  134.1510  153.2297 H   0  0  0  0  0  0  0  0  0  0  0  0
  146.1927  136.3397  154.1738 H   0  0  0  0  0  0  0  0  0  0  0  0
  144.6148  136.2968  153.4196 H   0  0  0  0  0  0  0  0  0  0  0  0
  147.1693  136.2973  151.9793 H   0  0  0  0  0  0  0  0  0  0  0  0
  1  2  1  0  0  0  0
  1 24  1  0  0  0  0
  1 25  1  0  0  0  0
  1 26  1  0  0  0  0
  2  3  1  0  0  0  0
  2 27  1  0  0  0  0
  2 28  1  0  0  0  0
  3 22  1  0  0  0  0
  3  4  1  0  0  0  0
  4  5  2  0  0  0  0
  4 29  1  0  0  0  0
  5  6  1  0  0  0  0
  5  8  1  0  0  0  0
  6  7  3  0  0  0  0
  8  9  2  0  0  0  0
  8 10  1  0  0  0  0
 10 11  1  0  0  0  0
 10 22  1  0  0  0  0
 11 12  1  0  0  0  0
 11 30  1  0  0  0  0
 11 31  1  0  0  0  0
 12 13  1  0  0  0  0
 12 14  1  0  0  0  0
 12 32  1  0  0  0  0
 13 33  1  0  0  0  0
 14 15  1  0  0  0  0
 14 34  1  0  0  0  0
 14 35  1  0  0  0  0
 15 21  1  0  0  0  0
 15 16  1  0  0  0  0
 15 48  1  0  0  0  0
 16 17  1  0  0  0  0
 16 36  1  0  0  0  0
 16 37  1  0  0  0  0
 17 18  1  0  0  0  0
 17 38  1  0  0  0  0
 17 39  1  0  0  0  0
 18 19  1  0  0  0  0
 18 20  1  0  0  0  0
 18 40  1  0  0  0  0
 19 41  1  0  0  0  0
 19 42  1  0  0  0  0
 19 43  1  0  0  0  0
 20 21  1  0  0  0  0
 20 44  1  0  0  0  0
 20 45  1  0  0  0  0
 21 46  1  0  0  0  0
 21 47  1  0  0  0  0
 22 23  2  0  0  0  0
M  CHG  1  15   1
M  END
> <s_m_source_file>
AV-unprocessed.smi

> <i_m_source_file_index>
1106

> <i_lp_mmshare_version>
43012

> <i_f3d_flags>
0

> <s_epik_input>
W0NIM11bQ0gyXW4xW2NIXWMoQyNOKWMoPU8pbihjMT1PKVtDSDJdW0NASF0oW09IXSlbQ0gyXU4yW0NIMl1bQ0gyXVtDSF0oW0NIM10pW0NIMl1bQ0gyXTI=

> <s_epik_cmdline>
J2VwaWtfcHl0aG9uJywgJy1waCcsICc3LjAnLCAnLXRuJywgJzgnLCAnLW1hJywgJzIwMCcsICctbWV0YWxfYmluZGluZycsICctaW1hZScsICc8aW5maWxlLm1hZT4nLCAnLW9tYWUnLCAnPG91dGZpbGUubWFlPic=

> <r_epik_Ionization_Penalty>
0.00136816

> <r_epik_Ionization_Penalty_Charging>
0.00136813

> <r_epik_Ionization_Penalty_Neutral>
3.19882e-08

> <r_epik_State_Penalty>
0.000910892

> <r_epik_Charging_Adjusted_Penalty>
0.00227902

> <i_epik_Tot_Q>
1

> <i_epik_Tot_abs_Q>
1

> <r_epik_Metal_State_Penalty>
-0

> <b_epik_Metal_Only>
0

> <s_lp_Force_Field>
OPLS_2005

> <r_lp_Energy>
27.8711

> <b_lp_Chiralities_Consistent>
1

> <s_lp_Variant>
AV-unprocessed.smi:1106-1

> <Gold.Version>
5.8.1

> <Gold.Id.Protein>
6NUR|6NUR_protein|mol2

> <Gold.PLP.Fitness>
46.3702

> <Gold.PLP.PLP>
-32.2068

> <Gold.PLP.part.hbond>
-4.8347

> <Gold.PLP.part.metal>
0.0000

> <Gold.PLP.part.buried>
-2.7351

> <Gold.PLP.part.nonpolar>
-27.3979

> <Gold.PLP.part.repulsive>
2.0696

> <Gold.PLP.ligand.clash>
0.0000

> <Gold.PLP.ligand.torsion>
0.2359

> <Gold.PLP.Chemscore.Hbond>
4.8689

> <Gold.PLP.Chemscore.CHOScore>
0.0000

> <Gold.PLP.Chemscore.Metal>
0.0000

> <Gold.Chemscore.Hbonds>
donor molecule, donor type, donor heavy atom, donor atom, acceptor molecule, acceptor atom, score
      L1  H    13    33       P1  7948  1.00
      L1  H    15    48       P1  7948  2.00
      P1  H  6934  6946       L1     7  0.48
      P1  H  7989  7998       L1    23  0.38
      P1  H  8011  8017       L1    23  0.82

> <Gold.PLP.Chemscore.Internal.Correction>
0.0286

> <Gold.Rescore>
     Score         DG    S(hbond)    S(metal)    S(lipo)     H(rot)  DE(clash)    DE(int)     intcor
     18.12     -20.19       3.81        0.00      71.38       2.48       1.82       0.25       ----

> <Gold.Chemscore.Fitness>
18.1193

> <Gold.Chemscore.DG>
-20.1896

> <Gold.Chemscore.ZeroCoef>
-5.4800

> <Gold.Chemscore.Hbond>
3.8074

> <Gold.Chemscore.Metal>
0.0000

> <Gold.Chemscore.Lipo>
71.3782

> <Gold.Chemscore.Internal_Hbond>
0.0000

> <Gold.Chemscore.DEClash>
1.8188

> <Gold.Chemscore.DEInternal>
0.2514

> <Gold.Chemscore.Rot>
2.4838

> <Gold.Chemscore.Internal.Correction>
   9.000000E+99

> <Gold.Chemscore.Hbonds>
donor molecule, donor type, donor heavy atom, donor atom, acceptor molecule, acceptor atom, score
      L1  H    13    33       P1  7948  0.98
      L1  H    15    48       P1  7948  1.00
      P1  H  6934  6946       L1     7  0.16
      P1  H  7989  7998       L1    23  0.40
      P1  H  8011  8017       L1    23  0.76

> <Gold.Chemscore.Hbond.Weighted>
-12.7168

> <Gold.Chemscore.Metal.Weighted>
-0.0000

> <Gold.Chemscore.Lipo.Weighted>
-8.3513

> <Gold.Chemscore.Internal_Hbond.Weighted>
0.0000

> <Gold.Chemscore.DEClash.Weighted>
1.8188

> <Gold.Chemscore.DEInternal.Weighted>
0.2514

> <Gold.Chemscore.Rot.Weighted>
6.3585

> <Gold.Chemscore.Internal.Correction.Weighted>
   9.000000E+99

> <Gold.Protein.RotatedTorsions>
[ 6907 6896 6895 6894 ] final -123.86 input  -60.11 | X-H torsion
[ 7974 7965 7964 7962 ] final   87.14 input  175.53 | X-H torsion
[ 8008 7997 7996 7995 ] final   64.93 input   59.86 | X-H torsion
[ 10167 10162 10161 10158 ] final -153.21 input  -65.29 | X-H torsion
[ 10718 10713 10712 10709 ] final  133.53 input   66.30 | X-H torsion
[ 10763 10752 10751 10750 ] final   98.76 input  -60.55 | X-H torsion
[ 11005 11000 10999 10996 ] final  -19.30 input  -57.11 | X-H torsion

> <Gold.Protein.ActiveResidues>
 VAL166  LYS551  ARG553  GLY616  TRP617  ASP618  TYR619  PRO620  LYS621  CYS622 
 ASP623  PHE694  ASN695  SER759  ASP760  ASP761  ALA762  ILE779  LEU786  VAL792 
 PHE793  MET794  SER795  GLU796  ALA797  LYS798  CYS799  TRP800  GLU811  SER814 

> <Gold.Protein.RotatedAtoms>
  150.8712  133.7503  159.2960 H   0  0  0  0  0  0  0  0  0  0  0  0  # atno 6907 bound_to 6896
  151.5115  135.1063  159.9864 H   0  0  0  0  0  0  0  0  0  0  0  0  # atno 6908 bound_to 6896
  152.4696  133.7955  159.6980 H   0  0  0  0  0  0  0  0  0  0  0  0  # atno 6909 bound_to 6896
  145.5629  139.2305  143.2449 H   0  0  0  0  0  0  0  0  0  0  0  0  # atno 7974 bound_to 7965
  155.6538  140.3497  155.4758 H   0  0  0  0  0  0  0  0  0  0  0  0  # atno 8008 bound_to 7997
  155.9825  140.1177  157.0736 H   0  0  0  0  0  0  0  0  0  0  0  0  # atno 8009 bound_to 7997
  154.4196  140.1135  156.5441 H   0  0  0  0  0  0  0  0  0  0  0  0  # atno 8010 bound_to 7997
  139.7116  143.9100  152.2470 H   0  0  0  0  0  0  0  0  0  0  0  0  # atno 10167 bound_to 10162
  157.4764  131.1083  150.9738 H   0  0  0  0  0  0  0  0  0  0  0  0  # atno 10718 bound_to 10713
  153.2931  135.4137  155.1185 H   0  0  0  0  0  0  0  0  0  0  0  0  # atno 10763 bound_to 10752
  154.8526  135.3523  154.5954 H   0  0  0  0  0  0  0  0  0  0  0  0  # atno 10764 bound_to 10752
  153.6377  135.7058  153.5310 H   0  0  0  0  0  0  0  0  0  0  0  0  # atno 10765 bound_to 10752
  140.8353  133.7966  155.9802 H   0  0  0  0  0  0  0  0  0  0  0  0  # atno 11005 bound_to 11000
  146.1839  140.6454  142.9177 LP  0  0  0  0  0  0  0  0  0  0  0  0  # atno 17320 bound_to 7965
  144.7474  140.5104  143.6826 LP  0  0  0  0  0  0  0  0  0  0  0  0  # atno 17321 bound_to 7965
  139.8971  144.6933  150.8706 LP  0  0  0  0  0  0  0  0  0  0  0  0  # atno 17342 bound_to 10162
  140.7734  143.3542  151.1954 LP  0  0  0  0  0  0  0  0  0  0  0  0  # atno 17343 bound_to 10162
  157.0486  130.5778  149.5367 LP  0  0  0  0  0  0  0  0  0  0  0  0  # atno 17370 bound_to 10713
  156.0099  130.5189  150.7953 LP  0  0  0  0  0  0  0  0  0  0  0  0  # atno 17371 bound_to 10713
  140.8953  134.2444  157.5072 LP  0  0  0  0  0  0  0  0  0  0  0  0  # atno 17394 bound_to 11000
  139.8704  134.9681  156.4620 LP  0  0  0  0  0  0  0  0  0  0  0  0  # atno 17395 bound_to 11000

$$$$
