AV-unprocessed.smi:265|AV-procd|sdf|2028|dock9
  -GOLD-   2262021233D 1   1.00000     0.00000
 Structure written by MMmdl.
 52 56  0  0  0  0  0  0  0  0  1 V2000
  147.3614  133.7683  157.0608 C   0  0  0  0  0  0  0  0  0  0  0  0
  148.8776  134.0169  157.0587 C   0  0  1  0  0  0  0  0  0  0  0  0
  149.5751  132.9638  157.7226 O   0  0  0  0  0  0  0  0  0  0  0  0
  150.7081  132.5605  156.9621 C   0  0  0  0  0  0  0  0  0  0  0  0
  150.9570  133.6968  155.9761 C   0  0  0  0  0  0  0  0  0  0  0  0
  149.5477  134.1883  155.6760 C   0  0  1  0  0  0  0  0  0  0  0  0
  148.9582  133.3122  154.7293 O   0  0  0  0  0  0  0  0  0  0  0  0
  149.4645  135.6074  155.0557 C   0  0  0  0  0  0  0  0  0  0  0  0
  150.0097  136.6734  155.8822 N   0  0  0  0  0  0  0  0  0  0  0  0
  149.5656  137.0662  157.1246 C   0  0  0  0  0  0  0  0  0  0  0  0
  150.2302  138.0485  157.6689 N   0  0  0  0  0  0  0  0  0  0  0  0
  151.2161  138.3502  156.7364 C   0  0  0  0  0  0  0  0  0  0  0  0
  152.2778  139.2977  156.6865 C   0  0  0  0  0  0  0  0  0  0  0  0
  152.5067  140.1974  157.6767 N   0  0  0  0  0  0  0  0  0  0  0  0
  152.7238  139.6075  159.0008 C   0  0  0  0  0  0  0  0  0  0  0  0
  153.3380  140.6289  159.9761 C   0  0  0  0  0  0  0  0  0  0  0  0
  152.4804  141.9004  160.0119 C   0  0  1  0  0  0  0  0  0  0  0  0
  153.0617  142.9124  160.8199 O   0  0  0  0  0  0  0  0  0  0  0  0
  152.2135  144.0516  161.0014 C   0  0  0  0  0  0  0  0  0  0  0  0
  151.5855  144.5478  159.6812 C   0  0  0  0  0  0  0  0  0  0  0  0
  151.0343  145.6453  159.6402 O   0  0  0  0  0  0  0  0  0  0  0  0
  151.6260  143.7334  158.6137 N   0  0  0  0  0  0  0  0  0  0  0  0
  152.3690  142.4804  158.5935 C   0  0  2  0  0  0  0  0  0  0  0  0
  151.7353  141.4443  157.6519 C   0  0  0  0  0  0  0  0  0  0  0  0
  153.0803  139.2788  155.5883 N   0  0  0  0  0  0  0  0  0  0  0  0
  152.8579  138.4033  154.6036 C   0  0  0  0  0  0  0  0  0  0  0  0
  151.9066  137.4724  154.5143 N   0  0  0  0  0  0  0  0  0  0  0  0
  151.1005  137.4823  155.6141 C   0  0  0  0  0  0  0  0  0  0  0  0
  151.4926  141.6468  160.4038 H   0  0  0  0  0  0  0  0  0  0  0  0
  153.3697  142.7158  158.2261 H   0  0  0  0  0  0  0  0  0  0  0  0
  146.8329  134.5717  156.5472 H   0  0  0  0  0  0  0  0  0  0  0  0
  146.9806  133.7205  158.0811 H   0  0  0  0  0  0  0  0  0  0  0  0
  147.1057  132.8280  156.5720 H   0  0  0  0  0  0  0  0  0  0  0  0
  149.0770  134.8979  157.6668 H   0  0  0  0  0  0  0  0  0  0  0  0
  151.5688  132.3645  157.6017 H   0  0  0  0  0  0  0  0  0  0  0  0
  150.4643  131.6395  156.4313 H   0  0  0  0  0  0  0  0  0  0  0  0
  151.5403  134.4670  156.4794 H   0  0  0  0  0  0  0  0  0  0  0  0
  151.5113  133.3831  155.0906 H   0  0  0  0  0  0  0  0  0  0  0  0
  149.5684  132.6156  154.5424 H   0  0  0  0  0  0  0  0  0  0  0  0
  149.9874  135.6257  154.0985 H   0  0  0  0  0  0  0  0  0  0  0  0
  148.4250  135.8538  154.8347 H   0  0  0  0  0  0  0  0  0  0  0  0
  148.7236  136.6013  157.6168 H   0  0  0  0  0  0  0  0  0  0  0  0
  151.7639  139.2613  159.3864 H   0  0  0  0  0  0  0  0  0  0  0  0
  153.3693  138.7318  158.9475 H   0  0  0  0  0  0  0  0  0  0  0  0
  153.4134  140.1959  160.9739 H   0  0  0  0  0  0  0  0  0  0  0  0
  154.3537  140.8731  159.6618 H   0  0  0  0  0  0  0  0  0  0  0  0
  151.4118  143.7946  161.6947 H   0  0  0  0  0  0  0  0  0  0  0  0
  152.7908  144.8550  161.4595 H   0  0  0  0  0  0  0  0  0  0  0  0
  151.1886  144.0351  157.7551 H   0  0  0  0  0  0  0  0  0  0  0  0
  151.7072  141.8435  156.6368 H   0  0  0  0  0  0  0  0  0  0  0  0
  150.7059  141.2410  157.9515 H   0  0  0  0  0  0  0  0  0  0  0  0
  153.5389  138.4573  153.7671 H   0  0  0  0  0  0  0  0  0  0  0  0
  1  2  1  0  0  0  0
  1 31  1  0  0  0  0
  1 32  1  0  0  0  0
  1 33  1  0  0  0  0
  2  6  1  0  0  0  0
  2  3  1  0  0  0  0
  2 34  1  0  0  0  0
  3  4  1  0  0  0  0
  4  5  1  0  0  0  0
  4 35  1  0  0  0  0
  4 36  1  0  0  0  0
  5  6  1  0  0  0  0
  5 37  1  0  0  0  0
  5 38  1  0  0  0  0
  6  7  1  0  0  0  0
  6  8  1  0  0  0  0
  7 39  1  0  0  0  0
  8  9  1  0  0  0  0
  8 40  1  0  0  0  0
  8 41  1  0  0  0  0
  9 28  1  0  0  0  0
  9 10  1  0  0  0  0
 10 11  2  0  0  0  0
 10 42  1  0  0  0  0
 11 12  1  0  0  0  0
 12 28  2  0  0  0  0
 12 13  1  0  0  0  0
 13 14  1  0  0  0  0
 13 25  2  0  0  0  0
 14 24  1  0  0  0  0
 14 15  1  0  0  0  0
 15 16  1  0  0  0  0
 15 43  1  0  0  0  0
 15 44  1  0  0  0  0
 16 17  1  0  0  0  0
 16 45  1  0  0  0  0
 16 46  1  0  0  0  0
 17 29  1  0  0  0  0
 17 23  1  0  0  0  0
 17 18  1  0  0  0  0
 18 19  1  0  0  0  0
 19 20  1  0  0  0  0
 19 47  1  0  0  0  0
 19 48  1  0  0  0  0
 20 21  2  0  0  0  0
 20 22  1  0  0  0  0
 22 23  1  0  0  0  0
 22 49  1  0  0  0  0
 23 30  1  0  0  0  0
 23 24  1  0  0  0  0
 24 50  1  0  0  0  0
 24 51  1  0  0  0  0
 25 26  1  0  0  0  0
 26 27  2  0  0  0  0
 26 52  1  0  0  0  0
 27 28  1  0  0  0  0
M  END
> <s_m_source_file>
AV-unprocessed.smi

> <i_m_source_file_index>
265

> <i_lp_mmshare_version>
43012

> <i_f3d_flags>
0

> <s_epik_input>
W0NIMl0xW0NIMl1PW0NAQEhdKFtDSDNdKVtDQEBdMShbT0hdKVtDSDJdbihbY0hdbjIpYyhjMjMpbltjSF1uYzNOKFtDSDJdW0NIMl00KVtDSDJdW0NAQEhdKFtDQEhdNDUpW05IXUMoPU8pW0NIMl1PNQ==

> <s_epik_cmdline>
J2VwaWtfcHl0aG9uJywgJy1waCcsICc3LjAnLCAnLXRuJywgJzgnLCAnLW1hJywgJzIwMCcsICctbWV0YWxfYmluZGluZycsICctaW1hZScsICc8aW5maWxlLm1hZT4nLCAnLW9tYWUnLCAnPG91dGZpbGUubWFlPic=

> <r_lp_tautomer_probability>
1

> <r_epik_Ionization_Penalty>
0.00221504

> <r_epik_Ionization_Penalty_Charging>
0

> <r_epik_Ionization_Penalty_Neutral>
0.00221504

> <r_epik_State_Penalty>
-0

> <r_epik_Charging_Adjusted_Penalty>
0

> <i_epik_Tot_Q>
0

> <i_epik_Tot_abs_Q>
0

> <r_epik_Metal_State_Penalty>
-0

> <b_epik_Metal_Only>
0

> <s_lp_Force_Field>
OPLS_2005

> <r_lp_Energy>
47.2889

> <b_lp_Chiralities_Consistent>
1

> <s_lp_Variant>
AV-unprocessed.smi:265-14

> <Gold.Version>
5.8.1

> <Gold.Id.Protein>
6NUR|6NUR_protein|mol2

> <Gold.PLP.Fitness>
46.4313

> <Gold.PLP.PLP>
-40.4368

> <Gold.PLP.part.hbond>
-5.0446

> <Gold.PLP.part.metal>
0.0000

> <Gold.PLP.part.buried>
-9.1064

> <Gold.PLP.part.nonpolar>
-27.9680

> <Gold.PLP.part.repulsive>
0.3916

> <Gold.PLP.ligand.clash>
0.0000

> <Gold.PLP.ligand.torsion>
0.3650

> <Gold.PLP.Chemscore.Hbond>
2.1000

> <Gold.PLP.Chemscore.CHOScore>
0.0000

> <Gold.PLP.Chemscore.Metal>
0.0000

> <Gold.Chemscore.Hbonds>
donor molecule, donor type, donor heavy atom, donor atom, acceptor molecule, acceptor atom, score
      P1  H  6896  6908       L1     3  0.51
      P1  H  7997  8010       L1    25  1.00
      P1  H 10752 10764       L1    27  0.10

> <Gold.PLP.Chemscore.Internal.Correction>
0.4243

> <Gold.Rescore>
     Score         DG    S(hbond)    S(metal)    S(lipo)     H(rot)  DE(clash)    DE(int)     intcor
     11.74     -12.14       0.97        0.00      78.42       2.25       0.01       0.39       ----

> <Gold.Chemscore.Fitness>
11.7387

> <Gold.Chemscore.DG>
-12.1379

> <Gold.Chemscore.ZeroCoef>
-5.4800

> <Gold.Chemscore.Hbond>
0.9672

> <Gold.Chemscore.Metal>
0.0000

> <Gold.Chemscore.Lipo>
78.4213

> <Gold.Chemscore.Internal_Hbond>
0.0000

> <Gold.Chemscore.DEClash>
0.0073

> <Gold.Chemscore.DEInternal>
0.3919

> <Gold.Chemscore.Rot>
2.2453

> <Gold.Chemscore.Internal.Correction>
   9.000000E+99

> <Gold.Chemscore.Hbonds>
donor molecule, donor type, donor heavy atom, donor atom, acceptor molecule, acceptor atom, score
      P1  H  6896  6908       L1     3  0.03
      P1  H  7997  8010       L1    25  0.39
      P1  H 10752 10764       L1    27  0.02

> <Gold.Chemscore.Hbond.Weighted>
-3.2305

> <Gold.Chemscore.Metal.Weighted>
-0.0000

> <Gold.Chemscore.Lipo.Weighted>
-9.1753

> <Gold.Chemscore.Internal_Hbond.Weighted>
0.0000

> <Gold.Chemscore.DEClash.Weighted>
0.0073

> <Gold.Chemscore.DEInternal.Weighted>
0.3919

> <Gold.Chemscore.Rot.Weighted>
5.7479

> <Gold.Chemscore.Internal.Correction.Weighted>
   9.000000E+99

> <Gold.Protein.RotatedTorsions>
[ 6907 6896 6895 6894 ] final  124.15 input  -60.11 | X-H torsion
[ 7974 7965 7964 7962 ] final  149.23 input  175.53 | X-H torsion
[ 8008 7997 7996 7995 ] final   93.37 input   59.86 | X-H torsion
[ 10167 10162 10161 10158 ] final   89.75 input  -65.29 | X-H torsion
[ 10718 10713 10712 10709 ] final  153.66 input   66.30 | X-H torsion
[ 10763 10752 10751 10750 ] final -117.64 input  -60.55 | X-H torsion
[ 11005 11000 10999 10996 ] final  160.63 input  -57.11 | X-H torsion

> <Gold.Protein.ActiveResidues>
 VAL166  LYS551  ARG553  GLY616  TRP617  ASP618  TYR619  PRO620  LYS621  CYS622 
 ASP623  PHE694  ASN695  SER759  ASP760  ASP761  ALA762  ILE779  LEU786  VAL792 
 PHE793  MET794  SER795  GLU796  ALA797  LYS798  CYS799  TRP800  GLU811  SER814 

> <Gold.Protein.RotatedAtoms>
  152.4102  133.6952  159.6391 H   0  0  0  0  0  0  0  0  0  0  0  0  # atno 6907 bound_to 6896
  150.7983  133.8637  159.3248 H   0  0  0  0  0  0  0  0  0  0  0  0  # atno 6908 bound_to 6896
  151.6381  135.1017  160.0187 H   0  0  0  0  0  0  0  0  0  0  0  0  # atno 6909 bound_to 6896
  144.8454  139.6254  143.5998 H   0  0  0  0  0  0  0  0  0  0  0  0  # atno 7974 bound_to 7965
  156.0460  140.3313  155.7297 H   0  0  0  0  0  0  0  0  0  0  0  0  # atno 8008 bound_to 7997
  155.5673  140.0624  157.2832 H   0  0  0  0  0  0  0  0  0  0  0  0  # atno 8009 bound_to 7997
  154.4414  140.1867  156.0831 H   0  0  0  0  0  0  0  0  0  0  0  0  # atno 8010 bound_to 7997
  139.8541  144.6578  150.9134 H   0  0  0  0  0  0  0  0  0  0  0  0  # atno 10167 bound_to 10162
  157.2419  131.0761  151.1787 H   0  0  0  0  0  0  0  0  0  0  0  0  # atno 10718 bound_to 10713
  154.8561  135.4302  154.2011 H   0  0  0  0  0  0  0  0  0  0  0  0  # atno 10763 bound_to 10752
  153.3058  135.6972  153.7167 H   0  0  0  0  0  0  0  0  0  0  0  0  # atno 10764 bound_to 10752
  153.6279  135.3490  155.3006 H   0  0  0  0  0  0  0  0  0  0  0  0  # atno 10765 bound_to 10752
  140.2078  134.8290  157.3088 H   0  0  0  0  0  0  0  0  0  0  0  0  # atno 11005 bound_to 11000
  146.2739  139.6704  142.9276 LP  0  0  0  0  0  0  0  0  0  0  0  0  # atno 17320 bound_to 7965
  145.4608  141.0433  143.2752 LP  0  0  0  0  0  0  0  0  0  0  0  0  # atno 17321 bound_to 7965
  140.7784  143.3801  151.1492 LP  0  0  0  0  0  0  0  0  0  0  0  0  # atno 17342 bound_to 10162
  139.7436  143.8886  152.3057 LP  0  0  0  0  0  0  0  0  0  0  0  0  # atno 17343 bound_to 10162
  157.3370  130.7014  149.6358 LP  0  0  0  0  0  0  0  0  0  0  0  0  # atno 17370 bound_to 10713
  155.9669  130.4291  150.4817 LP  0  0  0  0  0  0  0  0  0  0  0  0  # atno 17371 bound_to 10713
  140.1984  134.4285  155.7676 LP  0  0  0  0  0  0  0  0  0  0  0  0  # atno 17394 bound_to 11000
  141.2227  133.7060  156.8143 LP  0  0  0  0  0  0  0  0  0  0  0  0  # atno 17395 bound_to 11000

$$$$
