AV-unprocessed.smi:1677|AV-procd|sdf|6725|dock9
  -GOLD-   22720 7473D 1   1.00000     0.00000
 Structure written by MMmdl.
 36 37  0  0  0  0  0  0  0  0  1 V2000
  149.1994  138.4578  156.9237 C   0  0  0  0  0  0  0  0  0  0  0  0
  150.3739  139.2532  156.3304 C   0  0  1  0  0  0  0  0  0  0  0  0
  150.1802  139.6027  154.8388 C   0  0  0  0  0  0  0  0  0  0  0  0
  148.8571  140.1238  154.5520 N   0  0  0  0  0  0  0  0  0  0  0  0
  147.8120  139.4528  153.9310 C   0  0  0  0  0  0  0  0  0  0  0  0
  146.7573  140.3356  153.8737 C   0  0  0  0  0  0  0  0  0  0  0  0
  147.1306  141.5502  154.4444 N   0  0  0  0  0  0  0  0  0  0  0  0
  148.3873  141.3502  154.8199 C   0  0  0  0  0  0  0  0  0  0  0  0
  150.5660  140.4723  157.1103 N   0  0  0  0  0  0  0  0  0  0  0  0
  151.6565  140.7723  157.8335 C   0  0  0  0  0  0  0  0  0  0  0  0
  152.6391  140.0341  157.9112 O   0  0  0  0  0  0  0  0  0  0  0  0
  151.6323  142.1105  158.5845 C   0  0  2  0  0  0  0  0  0  0  0  0
  151.4317  143.2973  157.6136 C   0  0  0  0  0  0  0  0  0  0  0  0
  151.6571  144.6370  158.2926 C   0  0  0  0  0  0  0  0  0  0  0  0
  152.2826  144.7707  159.4749 C   0  0  0  0  0  0  0  0  0  0  0  0
  152.8390  143.5983  160.2631 C   0  0  0  0  0  0  0  0  0  0  0  0
  152.9121  142.3102  159.4211 C   0  0  0  0  0  0  0  0  0  0  0  0
  149.0802  137.4921  156.4319 H   0  0  0  0  0  0  0  0  0  0  0  0
  148.2605  139.0026  156.8204 H   0  0  0  0  0  0  0  0  0  0  0  0
  149.3557  138.2610  157.9847 H   0  0  0  0  0  0  0  0  0  0  0  0
  151.2672  138.6331  156.4287 H   0  0  0  0  0  0  0  0  0  0  0  0
  150.9196  140.3407  154.5240 H   0  0  0  0  0  0  0  0  0  0  0  0
  150.3358  138.7205  154.2163 H   0  0  0  0  0  0  0  0  0  0  0  0
  147.9032  138.4306  153.5939 H   0  0  0  0  0  0  0  0  0  0  0  0
  145.7669  140.1916  153.4674 H   0  0  0  0  0  0  0  0  0  0  0  0
  148.9773  142.1127  155.3072 H   0  0  0  0  0  0  0  0  0  0  0  0
  149.8073  141.1383  157.1046 H   0  0  0  0  0  0  0  0  0  0  0  0
  150.7870  142.0962  159.2756 H   0  0  0  0  0  0  0  0  0  0  0  0
  152.1119  143.2353  156.7630 H   0  0  0  0  0  0  0  0  0  0  0  0
  150.4182  143.2778  157.2113 H   0  0  0  0  0  0  0  0  0  0  0  0
  151.2986  145.5135  157.7729 H   0  0  0  0  0  0  0  0  0  0  0  0
  152.4001  145.7512  159.9126 H   0  0  0  0  0  0  0  0  0  0  0  0
  153.8305  143.8537  160.6373 H   0  0  0  0  0  0  0  0  0  0  0  0
  152.2007  143.4435  161.1335 H   0  0  0  0  0  0  0  0  0  0  0  0
  153.0848  141.4551  160.0758 H   0  0  0  0  0  0  0  0  0  0  0  0
  153.7761  142.3673  158.7570 H   0  0  0  0  0  0  0  0  0  0  0  0
  1  2  1  0  0  0  0
  1 18  1  0  0  0  0
  1 19  1  0  0  0  0
  1 20  1  0  0  0  0
  2  3  1  0  0  0  0
  2  9  1  0  0  0  0
  2 21  1  0  0  0  0
  3  4  1  0  0  0  0
  3 22  1  0  0  0  0
  3 23  1  0  0  0  0
  4  8  1  0  0  0  0
  4  5  1  0  0  0  0
  5  6  2  0  0  0  0
  5 24  1  0  0  0  0
  6  7  1  0  0  0  0
  6 25  1  0  0  0  0
  7  8  2  0  0  0  0
  8 26  1  0  0  0  0
  9 10  1  0  0  0  0
  9 27  1  0  0  0  0
 10 11  2  0  0  0  0
 10 12  1  0  0  0  0
 12 17  1  0  0  0  0
 12 13  1  0  0  0  0
 12 28  1  0  0  0  0
 13 14  1  0  0  0  0
 13 29  1  0  0  0  0
 13 30  1  0  0  0  0
 14 15  2  0  0  0  0
 14 31  1  0  0  0  0
 15 16  1  0  0  0  0
 15 32  1  0  0  0  0
 16 17  1  0  0  0  0
 16 33  1  0  0  0  0
 16 34  1  0  0  0  0
 17 35  1  0  0  0  0
 17 36  1  0  0  0  0
M  END
> <s_m_source_file>
AV-unprocessed.smi

> <i_m_source_file_index>
1677

> <i_lp_mmshare_version>
43012

> <i_f3d_flags>
0

> <s_epik_input>
W2NIXTFuW2NIXVtjSF1uMVtDSDJdW0NAQEhdKFtDSDNdKVtOSF1DKD1PKVtDQEBIXTJbQ0gyXVtDSF09W0NIXVtDSDJdW0NIMl0y

> <s_epik_cmdline>
J2VwaWtfcHl0aG9uJywgJy1waCcsICc3LjAnLCAnLXRuJywgJzgnLCAnLW1hJywgJzIwMCcsICctbWV0YWxfYmluZGluZycsICctaW1hZScsICc8aW5maWxlLm1hZT4nLCAnLW9tYWUnLCAnPG91dGZpbGUubWFlPic=

> <r_lp_tautomer_probability>
1

> <r_epik_Ionization_Penalty>
0.640435

> <r_epik_Ionization_Penalty_Charging>
0.640435

> <r_epik_Ionization_Penalty_Neutral>
2.11108e-08

> <r_epik_State_Penalty>
0.658069

> <r_epik_Charging_Adjusted_Penalty>
1.2985

> <i_epik_Tot_Q>
0

> <i_epik_Tot_abs_Q>
0

> <r_epik_Metal_State_Penalty>
0.311689

> <b_epik_Metal_Only>
0

> <s_lp_Force_Field>
OPLS_2005

> <r_lp_Energy>
10.0444

> <b_lp_Chiralities_Consistent>
1

> <s_lp_Variant>
AV-unprocessed.smi:1677-6

> <Gold.Version>
5.8.1

> <Gold.Id.Protein>
6NUR|6NUR_protein|mol2

> <Gold.PLP.Fitness>
45.1927

> <Gold.PLP.PLP>
-35.8854

> <Gold.PLP.part.hbond>
-1.0000

> <Gold.PLP.part.metal>
0.0000

> <Gold.PLP.part.buried>
-0.3448

> <Gold.PLP.part.nonpolar>
-34.4912

> <Gold.PLP.part.repulsive>
0.2072

> <Gold.PLP.ligand.clash>
0.0000

> <Gold.PLP.ligand.torsion>
0.3281

> <Gold.PLP.Chemscore.Hbond>
1.0000

> <Gold.PLP.Chemscore.CHOScore>
2.3077

> <Gold.PLP.Chemscore.Metal>
0.0000

> <Gold.Chemscore.Hbonds>
donor molecule, donor type, donor heavy atom, donor atom, acceptor molecule, acceptor atom, score
      P1  H  7997  8009       L1    11  0.81
      L1  C     6    25       P1 10175  1.00
      L1  C     8    26       P1  8028  0.76

> <Gold.PLP.Chemscore.Internal.Correction>
0.0404

> <Gold.Rescore>
     Score         DG    S(hbond)    S(metal)    S(lipo)     H(rot)  DE(clash)    DE(int)     intcor
     15.38     -15.62       0.96        0.00      97.40       1.75       0.09       0.15       ----

> <Gold.Chemscore.Fitness>
15.3773

> <Gold.Chemscore.DG>
-15.6159

> <Gold.Chemscore.ZeroCoef>
-5.4800

> <Gold.Chemscore.Hbond>
0.9620

> <Gold.Chemscore.Metal>
0.0000

> <Gold.Chemscore.Lipo>
97.4044

> <Gold.Chemscore.Internal_Hbond>
0.0000

> <Gold.Chemscore.DEClash>
0.0870

> <Gold.Chemscore.DEInternal>
0.1515

> <Gold.Chemscore.Rot>
1.7475

> <Gold.Chemscore.Internal.Correction>
   9.000000E+99

> <Gold.Chemscore.Hbonds>
donor molecule, donor type, donor heavy atom, donor atom, acceptor molecule, acceptor atom, score
      P1  H  7997  8009       L1    11  0.79

> <Gold.Chemscore.Hbond.Weighted>
-3.2131

> <Gold.Chemscore.Metal.Weighted>
-0.0000

> <Gold.Chemscore.Lipo.Weighted>
-11.3963

> <Gold.Chemscore.Internal_Hbond.Weighted>
0.0000

> <Gold.Chemscore.DEClash.Weighted>
0.0870

> <Gold.Chemscore.DEInternal.Weighted>
0.1515

> <Gold.Chemscore.Rot.Weighted>
4.4735

> <Gold.Chemscore.Internal.Correction.Weighted>
   9.000000E+99

> <Gold.Protein.RotatedTorsions>
[ 6907 6896 6895 6894 ] final  -73.09 input  -60.11 | X-H torsion
[ 7974 7965 7964 7962 ] final  -55.02 input  175.53 | X-H torsion
[ 8008 7997 7996 7995 ] final  165.39 input   59.86 | X-H torsion
[ 10167 10162 10161 10158 ] final  -80.81 input  -65.29 | X-H torsion
[ 10718 10713 10712 10709 ] final -135.47 input   66.30 | X-H torsion
[ 10763 10752 10751 10750 ] final  -74.97 input  -60.55 | X-H torsion
[ 11005 11000 10999 10996 ] final  -42.31 input  -57.11 | X-H torsion

> <Gold.Protein.ActiveResidues>
 VAL166  LYS551  ARG553  GLY616  TRP617  ASP618  TYR619  PRO620  LYS621  CYS622 
 ASP623  PHE694  ASN695  SER759  ASP760  ASP761  ALA762  ILE779  LEU786  VAL792 
 PHE793  MET794  SER795  GLU796  ALA797  LYS798  CYS799  TRP800  GLU811  SER814 

> <Gold.Protein.RotatedAtoms>
  150.7143  134.5067  159.5587 H   0  0  0  0  0  0  0  0  0  0  0  0  # atno 6907 bound_to 6896
  152.2652  134.7988  160.0433 H   0  0  0  0  0  0  0  0  0  0  0  0  # atno 6908 bound_to 6896
  151.8688  133.3436  159.3764 H   0  0  0  0  0  0  0  0  0  0  0  0  # atno 6909 bound_to 6896
  145.8789  140.8160  142.9850 H   0  0  0  0  0  0  0  0  0  0  0  0  # atno 7974 bound_to 7965
  156.1804  140.1671  156.8284 H   0  0  0  0  0  0  0  0  0  0  0  0  # atno 8008 bound_to 7997
  154.5354  140.0748  156.8451 H   0  0  0  0  0  0  0  0  0  0  0  0  # atno 8009 bound_to 7997
  155.3321  140.3379  155.4242 H   0  0  0  0  0  0  0  0  0  0  0  0  # atno 8010 bound_to 7997
  140.4469  143.2496  151.8545 H   0  0  0  0  0  0  0  0  0  0  0  0  # atno 10167 bound_to 10162
  156.2665  130.7240  151.1193 H   0  0  0  0  0  0  0  0  0  0  0  0  # atno 10718 bound_to 10713
  154.4802  135.5847  153.6384 H   0  0  0  0  0  0  0  0  0  0  0  0  # atno 10763 bound_to 10752
  152.9846  135.6088  154.3255 H   0  0  0  0  0  0  0  0  0  0  0  0  # atno 10764 bound_to 10752
  154.3146  135.2844  155.2529 H   0  0  0  0  0  0  0  0  0  0  0  0  # atno 10765 bound_to 10752
  141.0306  133.6821  156.2577 H   0  0  0  0  0  0  0  0  0  0  0  0  # atno 11005 bound_to 11000
  144.6727  140.1353  143.7441 LP  0  0  0  0  0  0  0  0  0  0  0  0  # atno 17320 bound_to 7965
  145.9047  139.2451  143.1472 LP  0  0  0  0  0  0  0  0  0  0  0  0  # atno 17321 bound_to 7965
  139.4793  144.5165  151.8861 LP  0  0  0  0  0  0  0  0  0  0  0  0  # atno 17342 bound_to 10162
  140.4253  144.2189  150.5887 LP  0  0  0  0  0  0  0  0  0  0  0  0  # atno 17343 bound_to 10162
  157.7269  131.0643  150.5889 LP  0  0  0  0  0  0  0  0  0  0  0  0  # atno 17370 bound_to 10713
  156.5982  130.4347  149.5908 LP  0  0  0  0  0  0  0  0  0  0  0  0  # atno 17371 bound_to 10713
  140.6413  134.5163  157.5569 LP  0  0  0  0  0  0  0  0  0  0  0  0  # atno 17394 bound_to 11000
  139.9205  134.8157  156.1225 LP  0  0  0  0  0  0  0  0  0  0  0  0  # atno 17395 bound_to 11000

$$$$
