AV-unprocessed.smi:682|AV-procd|sdf|3329|dock4
  -GOLD-   22720 0293D 1   1.00000     0.00000
 Structure written by MMmdl.
 41 42  0  0  0  0  0  0  0  0  1 V2000
  145.2899  131.3848  150.8266 C   0  0  0  0  0  0  0  0  0  0  0  0
  145.0848  132.6831  150.2848 O   0  0  0  0  0  0  0  0  0  0  0  0
  144.5428  133.6620  151.1730 C   0  0  2  0  0  0  0  0  0  0  0  0
  143.1077  133.2785  151.5662 C   0  0  0  0  0  0  0  0  0  0  0  0
  144.7940  135.0981  150.6783 C   0  0  0  0  0  0  0  0  0  0  0  0
  145.1643  135.4361  152.1207 C   0  0  2  0  0  0  0  0  0  0  0  0
  146.2557  136.4002  152.2085 N   0  0  0  0  0  0  0  0  0  0  0  0
  146.2028  137.5402  152.9101 C   0  0  0  0  0  0  0  0  0  0  0  0
  145.2155  137.8975  153.5525 O   0  0  0  0  0  0  0  0  0  0  0  0
  147.3555  138.2228  152.8197 N   0  0  0  0  0  0  0  0  0  0  0  0
  147.6695  139.4599  153.4356 C   0  0  0  0  0  0  0  0  0  0  0  0
  146.9521  140.6894  153.4073 C   0  0  0  0  0  0  0  0  0  0  0  0
  147.5768  141.6199  154.1139 N   0  0  0  0  0  0  0  0  0  0  0  0
  148.6859  141.0099  154.5977 N   0  0  0  0  0  0  0  0  0  0  0  0
  149.6023  141.7618  155.4280 C   0  0  0  0  0  0  0  0  0  0  0  0
  148.7719  139.6899  154.2027 C   0  0  0  0  0  0  0  0  0  0  0  0
  145.5837  133.9543  152.3024 C   0  0  0  0  0  0  0  0  0  0  0  0
  145.2995  133.3428  153.6781 C   0  0  0  0  0  0  0  0  0  0  0  0
  147.0508  133.6033  151.9815 C   0  0  0  0  0  0  0  0  0  0  0  0
  145.6064  130.7122  150.0296 H   0  0  0  0  0  0  0  0  0  0  0  0
  144.3781  130.9744  151.2605 H   0  0  0  0  0  0  0  0  0  0  0  0
  146.0731  131.3795  151.5842 H   0  0  0  0  0  0  0  0  0  0  0  0
  142.7165  133.9226  152.3532 H   0  0  0  0  0  0  0  0  0  0  0  0
  143.0574  132.2520  151.9299 H   0  0  0  0  0  0  0  0  0  0  0  0
  142.4185  133.3683  150.7272 H   0  0  0  0  0  0  0  0  0  0  0  0
  145.6286  135.1817  149.9795 H   0  0  0  0  0  0  0  0  0  0  0  0
  143.9090  135.6152  150.3063 H   0  0  0  0  0  0  0  0  0  0  0  0
  144.2861  135.7081  152.7110 H   0  0  0  0  0  0  0  0  0  0  0  0
  147.1044  136.1806  151.7082 H   0  0  0  0  0  0  0  0  0  0  0  0
  148.0846  137.8136  152.2540 H   0  0  0  0  0  0  0  0  0  0  0  0
  146.0244  140.9415  152.9158 H   0  0  0  0  0  0  0  0  0  0  0  0
  150.4766  141.1550  155.6657 H   0  0  0  0  0  0  0  0  0  0  0  0
  149.1070  142.0489  156.3560 H   0  0  0  0  0  0  0  0  0  0  0  0
  149.9277  142.6599  154.9019 H   0  0  0  0  0  0  0  0  0  0  0  0
  149.5891  139.0470  154.4954 H   0  0  0  0  0  0  0  0  0  0  0  0
  146.0348  133.6608  154.4179 H   0  0  0  0  0  0  0  0  0  0  0  0
  145.3189  132.2533  153.6411 H   0  0  0  0  0  0  0  0  0  0  0  0
  144.3240  133.6380  154.0636 H   0  0  0  0  0  0  0  0  0  0  0  0
  147.7345  134.0062  152.7295 H   0  0  0  0  0  0  0  0  0  0  0  0
  147.3691  133.9954  151.0155 H   0  0  0  0  0  0  0  0  0  0  0  0
  147.2048  132.5241  151.9535 H   0  0  0  0  0  0  0  0  0  0  0  0
  1  2  1  0  0  0  0
  1 20  1  0  0  0  0
  1 21  1  0  0  0  0
  1 22  1  0  0  0  0
  2  3  1  0  0  0  0
  3 17  1  0  0  0  0
  3  4  1  0  0  0  0
  3  5  1  0  0  0  0
  4 23  1  0  0  0  0
  4 24  1  0  0  0  0
  4 25  1  0  0  0  0
  5  6  1  0  0  0  0
  5 26  1  0  0  0  0
  5 27  1  0  0  0  0
  6  7  1  0  0  0  0
  6 17  1  0  0  0  0
  6 28  1  0  0  0  0
  7  8  1  0  0  0  0
  7 29  1  0  0  0  0
  8  9  2  0  0  0  0
  8 10  1  0  0  0  0
 10 11  1  0  0  0  0
 10 30  1  0  0  0  0
 11 16  2  0  0  0  0
 11 12  1  0  0  0  0
 12 13  2  0  0  0  0
 12 31  1  0  0  0  0
 13 14  1  0  0  0  0
 14 15  1  0  0  0  0
 14 16  1  0  0  0  0
 15 32  1  0  0  0  0
 15 33  1  0  0  0  0
 15 34  1  0  0  0  0
 16 35  1  0  0  0  0
 17 18  1  0  0  0  0
 17 19  1  0  0  0  0
 18 36  1  0  0  0  0
 18 37  1  0  0  0  0
 18 38  1  0  0  0  0
 19 39  1  0  0  0  0
 19 40  1  0  0  0  0
 19 41  1  0  0  0  0
M  END
> <s_m_source_file>
AV-unprocessed.smi

> <i_m_source_file_index>
682

> <i_lp_mmshare_version>
43012

> <i_f3d_flags>
0

> <s_epik_input>
W0NIM11PW0NAQF0xKFtDSDNdKVtDSDJdW0NASF0oQzEoW0NIM10pW0NIM10pW05IXUMoPU8pW05IXWMyW2NIXW5uKFtDSDNdKVtjSF0y

> <s_epik_cmdline>
J2VwaWtfcHl0aG9uJywgJy1waCcsICc3LjAnLCAnLXRuJywgJzgnLCAnLW1hJywgJzIwMCcsICctbWV0YWxfYmluZGluZycsICctaW1hZScsICc8aW5maWxlLm1hZT4nLCAnLW9tYWUnLCAnPG91dGZpbGUubWFlPic=

> <r_lp_tautomer_probability>
1

> <r_epik_Ionization_Penalty>
0.000192302

> <r_epik_Ionization_Penalty_Charging>
0

> <r_epik_Ionization_Penalty_Neutral>
0.000192302

> <r_epik_State_Penalty>
-0

> <r_epik_Charging_Adjusted_Penalty>
0

> <i_epik_Tot_Q>
0

> <i_epik_Tot_abs_Q>
0

> <r_epik_Metal_State_Penalty>
-0

> <b_epik_Metal_Only>
0

> <s_lp_Force_Field>
OPLS_2005

> <r_lp_Energy>
23.9348

> <b_lp_Chiralities_Consistent>
1

> <s_lp_Variant>
AV-unprocessed.smi:682-4

> <Gold.Version>
5.8.1

> <Gold.Id.Protein>
6NUR|6NUR_protein|mol2

> <Gold.PLP.Fitness>
36.7270

> <Gold.PLP.PLP>
-29.7912

> <Gold.PLP.part.hbond>
-2.3365

> <Gold.PLP.part.metal>
0.0000

> <Gold.PLP.part.buried>
-0.1310

> <Gold.PLP.part.nonpolar>
-28.2286

> <Gold.PLP.part.repulsive>
0.5626

> <Gold.PLP.ligand.clash>
0.0000

> <Gold.PLP.ligand.torsion>
0.6897

> <Gold.PLP.Chemscore.Hbond>
1.6480

> <Gold.PLP.Chemscore.CHOScore>
1.0000

> <Gold.PLP.Chemscore.Metal>
0.0000

> <Gold.Chemscore.Hbonds>
donor molecule, donor type, donor heavy atom, donor atom, acceptor molecule, acceptor atom, score
      L1  H     7    29       P1  7948  0.88
      L1  H    10    30       P1  7948  0.91
      L1  C    12    31       P1 10175  1.00

> <Gold.PLP.Chemscore.Internal.Correction>
0.3713

> <Gold.Rescore>
     Score         DG    S(hbond)    S(metal)    S(lipo)     H(rot)  DE(clash)    DE(int)     intcor
     16.44     -17.19       1.90        0.00      72.88       1.23       0.06       0.69       ----

> <Gold.Chemscore.Fitness>
16.4374

> <Gold.Chemscore.DG>
-17.1881

> <Gold.Chemscore.ZeroCoef>
-5.4800

> <Gold.Chemscore.Hbond>
1.8980

> <Gold.Chemscore.Metal>
0.0000

> <Gold.Chemscore.Lipo>
72.8783

> <Gold.Chemscore.Internal_Hbond>
0.0000

> <Gold.Chemscore.DEClash>
0.0602

> <Gold.Chemscore.DEInternal>
0.6905

> <Gold.Chemscore.Rot>
1.2336

> <Gold.Chemscore.Internal.Correction>
   9.000000E+99

> <Gold.Chemscore.Hbonds>
donor molecule, donor type, donor heavy atom, donor atom, acceptor molecule, acceptor atom, score
      L1  H     7    29       P1  7948  0.87
      L1  H    10    30       P1  7948  0.88

> <Gold.Chemscore.Hbond.Weighted>
-6.3394

> <Gold.Chemscore.Metal.Weighted>
-0.0000

> <Gold.Chemscore.Lipo.Weighted>
-8.5268

> <Gold.Chemscore.Internal_Hbond.Weighted>
0.0000

> <Gold.Chemscore.DEClash.Weighted>
0.0602

> <Gold.Chemscore.DEInternal.Weighted>
0.6905

> <Gold.Chemscore.Rot.Weighted>
3.1581

> <Gold.Chemscore.Internal.Correction.Weighted>
   9.000000E+99

> <Gold.Protein.RotatedTorsions>
[ 6907 6896 6895 6894 ] final   14.10 input  -60.11 | X-H torsion
[ 7974 7965 7964 7962 ] final   29.75 input  175.53 | X-H torsion
[ 8008 7997 7996 7995 ] final  -64.56 input   59.86 | X-H torsion
[ 10167 10162 10161 10158 ] final  157.57 input  -65.29 | X-H torsion
[ 10718 10713 10712 10709 ] final  -70.11 input   66.30 | X-H torsion
[ 10763 10752 10751 10750 ] final -150.54 input  -60.55 | X-H torsion
[ 11005 11000 10999 10996 ] final  175.17 input  -57.11 | X-H torsion

> <Gold.Protein.ActiveResidues>
 VAL166  LYS551  ARG553  GLY616  TRP617  ASP618  TYR619  PRO620  LYS621  CYS622 
 ASP623  PHE694  ASN695  SER759  ASP760  ASP761  ALA762  ILE779  LEU786  VAL792 
 PHE793  MET794  SER795  GLU796  ALA797  LYS798  CYS799  TRP800  GLU811  SER814 

> <Gold.Protein.RotatedAtoms>
  151.7969  135.0720  160.0394 H   0  0  0  0  0  0  0  0  0  0  0  0  # atno 6907 bound_to 6896
  152.3117  133.5755  159.5693 H   0  0  0  0  0  0  0  0  0  0  0  0  # atno 6908 bound_to 6896
  150.7323  134.0059  159.3695 H   0  0  0  0  0  0  0  0  0  0  0  0  # atno 6909 bound_to 6896
  146.1653  139.6880  142.9005 H   0  0  0  0  0  0  0  0  0  0  0  0  # atno 7974 bound_to 7965
  154.4619  140.0951  156.6915 H   0  0  0  0  0  0  0  0  0  0  0  0  # atno 8008 bound_to 7997
  155.4970  140.3472  155.4346 H   0  0  0  0  0  0  0  0  0  0  0  0  # atno 8009 bound_to 7997
  156.0885  140.1391  156.9611 H   0  0  0  0  0  0  0  0  0  0  0  0  # atno 8010 bound_to 7997
  139.4823  144.4905  151.8315 H   0  0  0  0  0  0  0  0  0  0  0  0  # atno 10167 bound_to 10162
  156.0423  130.4325  150.2247 H   0  0  0  0  0  0  0  0  0  0  0  0  # atno 10718 bound_to 10713
  154.8112  135.3282  154.7299 H   0  0  0  0  0  0  0  0  0  0  0  0  # atno 10763 bound_to 10752
  153.7947  135.6908  153.4870 H   0  0  0  0  0  0  0  0  0  0  0  0  # atno 10764 bound_to 10752
  153.1893  135.4557  155.0075 H   0  0  0  0  0  0  0  0  0  0  0  0  # atno 10765 bound_to 10752
  140.3593  134.7127  157.4320 H   0  0  0  0  0  0  0  0  0  0  0  0  # atno 11005 bound_to 11000
  145.4483  141.0427  143.2819 LP  0  0  0  0  0  0  0  0  0  0  0  0  # atno 17320 bound_to 7965
  144.8084  139.6008  143.7040 LP  0  0  0  0  0  0  0  0  0  0  0  0  # atno 17321 bound_to 7965
  140.4389  144.2014  150.5890 LP  0  0  0  0  0  0  0  0  0  0  0  0  # atno 17342 bound_to 10162
  140.4703  143.2415  151.9098 LP  0  0  0  0  0  0  0  0  0  0  0  0  # atno 17343 bound_to 10162
  157.0341  131.0016  151.3303 LP  0  0  0  0  0  0  0  0  0  0  0  0  # atno 17370 bound_to 10713
  157.5256  130.8026  149.7859 LP  0  0  0  0  0  0  0  0  0  0  0  0  # atno 17371 bound_to 10713
  140.0639  134.5956  155.8717 LP  0  0  0  0  0  0  0  0  0  0  0  0  # atno 17394 bound_to 11000
  141.1989  133.6604  156.5815 LP  0  0  0  0  0  0  0  0  0  0  0  0  # atno 17395 bound_to 11000

$$$$
