AV-unprocessed.smi:3|AV-procd|sdf|27|dock3
  -GOLD-   2262015143D 1   1.00000     0.00000
 Structure written by MMmdl.
 33 35  0  0  0  0  0  0  0  0  1 V2000
  152.5496  139.9877  158.6933 C   0  0  0  0  0  0  0  0  0  0  0  0
  151.7216  141.0071  158.0652 N   0  0  0  0  0  0  0  0  0  0  0  0
  150.7675  140.5743  157.0414 C   0  0  0  0  0  0  0  0  0  0  0  0
  151.4601  139.9959  155.8077 C   0  0  1  0  0  0  0  0  0  0  0  0
  152.2788  138.7004  155.9152 C   0  0  0  0  0  0  0  0  0  0  0  0
  151.7951  138.3207  154.5123 C   0  0  1  0  0  0  0  0  0  0  0  0
  151.4888  136.9640  154.2800 O   0  0  0  0  0  0  0  0  0  0  0  0
  150.6181  139.2737  154.7465 C   0  0  0  0  0  0  0  0  0  0  0  0
  151.6384  142.3010  158.6379 C   0  0  0  0  0  0  0  0  0  0  0  0
  151.1590  143.3043  157.8564 N   0  0  0  0  0  0  0  0  0  0  0  0
  151.0513  144.5462  158.3325 C   0  0  0  0  0  0  0  0  0  0  0  0
  151.3657  145.0021  159.5447 N   0  0  0  0  0  0  0  0  0  0  0  0
  151.8553  144.0066  160.3342 C   0  0  0  0  0  0  0  0  0  0  0  0
  152.2805  144.1304  161.6398 N   0  0  0  0  0  0  0  0  0  0  0  0
  152.7161  142.9105  162.1198 C   0  0  0  0  0  0  0  0  0  0  0  0
  152.5810  141.9695  161.1318 C   0  0  0  0  0  0  0  0  0  0  0  0
  152.0296  142.6358  159.9738 C   0  0  0  0  0  0  0  0  0  0  0  0
  152.0608  140.7547  155.3017 H   0  0  0  0  0  0  0  0  0  0  0  0
  152.4671  138.6904  153.7358 H   0  0  0  0  0  0  0  0  0  0  0  0
  152.2852  144.9789  162.1873 H   0  0  0  0  0  0  0  0  0  0  0  0
  153.6053  140.2396  158.5941 H   0  0  0  0  0  0  0  0  0  0  0  0
  152.3998  139.0165  158.2210 H   0  0  0  0  0  0  0  0  0  0  0  0
  152.2994  139.8805  159.7489 H   0  0  0  0  0  0  0  0  0  0  0  0
  150.0386  139.8713  157.4444 H   0  0  0  0  0  0  0  0  0  0  0  0
  150.1785  141.4448  156.7508 H   0  0  0  0  0  0  0  0  0  0  0  0
  153.3546  138.8555  156.0029 H   0  0  0  0  0  0  0  0  0  0  0  0
  151.9092  138.0216  156.6857 H   0  0  0  0  0  0  0  0  0  0  0  0
  151.1363  136.9061  153.4051 H   0  0  0  0  0  0  0  0  0  0  0  0
  149.7424  138.7737  155.1646 H   0  0  0  0  0  0  0  0  0  0  0  0
  150.3528  139.8896  153.8866 H   0  0  0  0  0  0  0  0  0  0  0  0
  150.6573  145.2786  157.6435 H   0  0  0  0  0  0  0  0  0  0  0  0
  153.0890  142.8101  163.1288 H   0  0  0  0  0  0  0  0  0  0  0  0
  152.8422  140.9265  161.2176 H   0  0  0  0  0  0  0  0  0  0  0  0
  1  2  1  0  0  0  0
  1 21  1  0  0  0  0
  1 22  1  0  0  0  0
  1 23  1  0  0  0  0
  2  3  1  0  0  0  0
  2  9  1  0  0  0  0
  3  4  1  0  0  0  0
  3 24  1  0  0  0  0
  3 25  1  0  0  0  0
  4 18  1  0  0  0  0
  4  8  1  0  0  0  0
  4  5  1  0  0  0  0
  5  6  1  0  0  0  0
  5 26  1  0  0  0  0
  5 27  1  0  0  0  0
  6 19  1  0  0  0  0
  6  7  1  0  0  0  0
  6  8  1  0  0  0  0
  7 28  1  0  0  0  0
  8 29  1  0  0  0  0
  8 30  1  0  0  0  0
  9 17  1  0  0  0  0
  9 10  2  0  0  0  0
 10 11  1  0  0  0  0
 11 12  2  0  0  0  0
 11 31  1  0  0  0  0
 12 13  1  0  0  0  0
 13 17  2  0  0  0  0
 13 14  1  0  0  0  0
 14 20  1  0  0  0  0
 14 15  1  0  0  0  0
 15 16  2  0  0  0  0
 15 32  1  0  0  0  0
 16 17  1  0  0  0  0
 16 33  1  0  0  0  0
M  END
> <s_m_source_file>
AV-unprocessed.smi

> <i_m_source_file_index>
3

> <i_lp_mmshare_version>
43012

> <i_f3d_flags>
0

> <s_epik_input>
W25IXTFbY0hdW2NIXWMoYzEyKWMobltjSF1uMilOKFtDSDNdKVtDSDJdW0NASF0zW0NIMl1bQ0BASF0oW09IXSlbQ0gyXTM=

> <s_epik_cmdline>
J2VwaWtfcHl0aG9uJywgJy1waCcsICc3LjAnLCAnLXRuJywgJzgnLCAnLW1hJywgJzIwMCcsICctbWV0YWxfYmluZGluZycsICctaW1hZScsICc8aW5maWxlLm1hZT4nLCAnLW9tYWUnLCAnPG91dGZpbGUubWFlPic=

> <r_lp_tautomer_probability>
0.999998

> <r_epik_Ionization_Penalty>
0.0134605

> <r_epik_Ionization_Penalty_Charging>
0

> <r_epik_Ionization_Penalty_Neutral>
0.0134605

> <r_epik_State_Penalty>
0.00982199

> <r_epik_Charging_Adjusted_Penalty>
0.00982199

> <i_epik_Tot_Q>
0

> <i_epik_Tot_abs_Q>
0

> <r_epik_Metal_State_Penalty>
0.00963912

> <b_epik_Metal_Only>
0

> <s_lp_Force_Field>
OPLS_2005

> <r_lp_Energy>
10.8509

> <b_lp_Chiralities_Consistent>
1

> <s_lp_Variant>
AV-unprocessed.smi:3-1

> <Gold.Version>
5.8.1

> <Gold.Id.Protein>
6NUR|6NUR_protein|mol2

> <Gold.PLP.Fitness>
48.4404

> <Gold.PLP.PLP>
-40.3783

> <Gold.PLP.part.hbond>
-2.0000

> <Gold.PLP.part.metal>
0.0000

> <Gold.PLP.part.buried>
-5.5807

> <Gold.PLP.part.nonpolar>
-33.1516

> <Gold.PLP.part.repulsive>
0.2853

> <Gold.PLP.ligand.clash>
0.0000

> <Gold.PLP.ligand.torsion>
0.3464

> <Gold.PLP.Chemscore.Hbond>
2.0000

> <Gold.PLP.Chemscore.CHOScore>
0.8510

> <Gold.PLP.Chemscore.Metal>
0.0000

> <Gold.Chemscore.Hbonds>
donor molecule, donor type, donor heavy atom, donor atom, acceptor molecule, acceptor atom, score
      L1  H     7    28       P1  7949  0.75
      P1  H 10752 10764       L1     7  0.85
      L1  C    11    31       P1  8028  0.43
      L1  C    11    31       P1  8029  0.07

> <Gold.PLP.Chemscore.Internal.Correction>
0.2019

> <Gold.Rescore>
     Score         DG    S(hbond)    S(metal)    S(lipo)     H(rot)  DE(clash)    DE(int)     intcor
     14.18     -14.84       1.58        0.00      75.14       1.84       0.44       0.22       ----

> <Gold.Chemscore.Fitness>
14.1837

> <Gold.Chemscore.DG>
-14.8419

> <Gold.Chemscore.ZeroCoef>
-5.4800

> <Gold.Chemscore.Hbond>
1.5810

> <Gold.Chemscore.Metal>
0.0000

> <Gold.Chemscore.Lipo>
75.1352

> <Gold.Chemscore.Internal_Hbond>
0.0000

> <Gold.Chemscore.DEClash>
0.4381

> <Gold.Chemscore.DEInternal>
0.2201

> <Gold.Chemscore.Rot>
1.8396

> <Gold.Chemscore.Internal.Correction>
   9.000000E+99

> <Gold.Chemscore.Hbonds>
donor molecule, donor type, donor heavy atom, donor atom, acceptor molecule, acceptor atom, score
      L1  H     7    28       P1  7949  0.32
      P1  H 10752 10764       L1     7  0.13

> <Gold.Chemscore.Hbond.Weighted>
-5.2805

> <Gold.Chemscore.Metal.Weighted>
-0.0000

> <Gold.Chemscore.Lipo.Weighted>
-8.7908

> <Gold.Chemscore.Internal_Hbond.Weighted>
0.0000

> <Gold.Chemscore.DEClash.Weighted>
0.4381

> <Gold.Chemscore.DEInternal.Weighted>
0.2201

> <Gold.Chemscore.Rot.Weighted>
4.7095

> <Gold.Chemscore.Internal.Correction.Weighted>
   9.000000E+99

> <Gold.Protein.RotatedTorsions>
[ 6907 6896 6895 6894 ] final   87.54 input  -60.11 | X-H torsion
[ 7974 7965 7964 7962 ] final   54.61 input  175.53 | X-H torsion
[ 8008 7997 7996 7995 ] final  111.58 input   59.86 | X-H torsion
[ 10167 10162 10161 10158 ] final -132.02 input  -65.29 | X-H torsion
[ 10718 10713 10712 10709 ] final  163.18 input   66.30 | X-H torsion
[ 10763 10752 10751 10750 ] final  -95.50 input  -60.55 | X-H torsion
[ 11005 11000 10999 10996 ] final -162.19 input  -57.11 | X-H torsion

> <Gold.Protein.ActiveResidues>
 VAL166  LYS551  ARG553  GLY616  TRP617  ASP618  TYR619  PRO620  LYS621  CYS622 
 ASP623  PHE694  ASN695  SER759  ASP760  ASP761  ALA762  ILE779  LEU786  VAL792 
 PHE793  MET794  SER795  GLU796  ALA797  LYS798  CYS799  TRP800  GLU811  SER814 

> <Gold.Protein.RotatedAtoms>
  152.5412  134.2260  159.8806 H   0  0  0  0  0  0  0  0  0  0  0  0  # atno 6907 bound_to 6896
  151.2235  133.4482  159.2609 H   0  0  0  0  0  0  0  0  0  0  0  0  # atno 6908 bound_to 6896
  151.0783  134.9855  159.8399 H   0  0  0  0  0  0  0  0  0  0  0  0  # atno 6909 bound_to 6896
  145.9591  139.4042  143.0259 H   0  0  0  0  0  0  0  0  0  0  0  0  # atno 7974 bound_to 7965
  156.2133  140.3016  155.9782 H   0  0  0  0  0  0  0  0  0  0  0  0  # atno 8008 bound_to 7997
  155.2668  140.0432  157.3020 H   0  0  0  0  0  0  0  0  0  0  0  0  # atno 8009 bound_to 7997
  154.5731  140.2354  155.8170 H   0  0  0  0  0  0  0  0  0  0  0  0  # atno 8010 bound_to 7997
  139.9129  143.6473  152.2571 H   0  0  0  0  0  0  0  0  0  0  0  0  # atno 10167 bound_to 10162
  157.1122  131.0470  151.2452 H   0  0  0  0  0  0  0  0  0  0  0  0  # atno 10718 bound_to 10713
  154.7154  135.5118  153.8729 H   0  0  0  0  0  0  0  0  0  0  0  0  # atno 10763 bound_to 10752
  153.0816  135.6633  154.0043 H   0  0  0  0  0  0  0  0  0  0  0  0  # atno 10764 bound_to 10752
  153.9876  135.3023  155.3394 H   0  0  0  0  0  0  0  0  0  0  0  0  # atno 10765 bound_to 10752
  140.6120  134.4840  157.5216 H   0  0  0  0  0  0  0  0  0  0  0  0  # atno 11005 bound_to 11000
  145.8065  140.9746  143.0971 LP  0  0  0  0  0  0  0  0  0  0  0  0  # atno 17320 bound_to 7965
  144.6811  139.9867  143.7484 LP  0  0  0  0  0  0  0  0  0  0  0  0  # atno 17321 bound_to 7965
  139.6927  144.7645  151.1410 LP  0  0  0  0  0  0  0  0  0  0  0  0  # atno 17342 bound_to 10162
  140.7681  143.5566  150.9145 LP  0  0  0  0  0  0  0  0  0  0  0  0  # atno 17343 bound_to 10162
  157.4549  130.7620  149.7184 LP  0  0  0  0  0  0  0  0  0  0  0  0  # atno 17370 bound_to 10713
  155.9848  130.3988  150.3294 LP  0  0  0  0  0  0  0  0  0  0  0  0  # atno 17371 bound_to 10713
  139.9188  134.8190  156.1277 LP  0  0  0  0  0  0  0  0  0  0  0  0  # atno 17394 bound_to 11000
  141.0802  133.6758  156.2319 LP  0  0  0  0  0  0  0  0  0  0  0  0  # atno 17395 bound_to 11000

$$$$
