AV-unprocessed.smi:505|AV-procd|sdf|2748|dock4
  -GOLD-   2262023213D 1   1.00000     0.00000
 Structure written by MMmdl.
 37 38  0  0  0  0  0  0  0  0  1 V2000
  151.5066  145.4563  159.8537 C   0  0  0  0  0  0  0  0  0  0  0  0
  152.1172  144.9244  158.6919 O   0  0  0  0  0  0  0  0  0  0  0  0
  151.1818  144.3259  157.8094 C   0  0  0  0  0  0  0  0  0  0  0  0
  150.5892  143.0688  158.4610 C   0  0  0  0  0  0  0  0  0  0  0  0
  151.4649  141.9099  158.3171 N   0  0  0  0  0  0  0  0  0  0  0  0
  151.4588  140.9760  157.3337 C   0  0  0  0  0  0  0  0  0  0  0  0
  150.5274  141.0427  156.3065 N   0  0  0  0  0  0  0  0  0  0  0  0
  150.2973  140.1970  155.1513 C   0  0  0  0  0  0  0  0  0  0  0  0
  148.9527  140.5056  154.4805 C   0  0  0  0  0  0  0  0  0  0  0  0
  149.1674  141.0624  153.2010 O   0  0  0  0  0  0  0  0  0  0  0  0
  152.3865  140.0229  157.4539 N   0  0  0  0  0  0  0  0  0  0  0  0
  153.0355  140.3754  158.6294 C   0  0  0  0  0  0  0  0  0  0  0  0
  152.4917  141.4987  159.1652 C   0  0  0  0  0  0  0  0  0  0  0  0
  152.9694  142.0872  160.4218 C   0  0  0  0  0  0  0  0  0  0  0  0
  152.4822  143.0978  160.9242 O   0  0  0  0  0  0  0  0  0  0  0  0
  153.9979  141.3976  160.9727 N   0  0  0  0  0  0  0  0  0  0  0  0
  154.5942  140.2654  160.4876 C   0  0  0  0  0  0  0  0  0  0  0  0
  155.5228  139.7463  161.1067 O   0  0  0  0  0  0  0  0  0  0  0  0
  154.1194  139.7489  159.3086 N   0  0  0  0  0  0  0  0  0  0  0  0
  154.7233  138.5412  158.7423 C   0  0  0  0  0  0  0  0  0  0  0  0
  154.3642  141.7585  161.8415 H   0  0  0  0  0  0  0  0  0  0  0  0
  152.2666  145.9050  160.4934 H   0  0  0  0  0  0  0  0  0  0  0  0
  151.0022  144.6765  160.4257 H   0  0  0  0  0  0  0  0  0  0  0  0
  150.7810  146.2298  159.5989 H   0  0  0  0  0  0  0  0  0  0  0  0
  150.3830  145.0320  157.5784 H   0  0  0  0  0  0  0  0  0  0  0  0
  151.6691  144.0657  156.8685 H   0  0  0  0  0  0  0  0  0  0  0  0
  150.4004  143.2502  159.5193 H   0  0  0  0  0  0  0  0  0  0  0  0
  149.6177  142.8362  158.0261 H   0  0  0  0  0  0  0  0  0  0  0  0
  149.8469  141.7823  156.4053 H   0  0  0  0  0  0  0  0  0  0  0  0
  151.1054  140.3861  154.4444 H   0  0  0  0  0  0  0  0  0  0  0  0
  150.3647  139.1458  155.4342 H   0  0  0  0  0  0  0  0  0  0  0  0
  148.3219  139.6186  154.4114 H   0  0  0  0  0  0  0  0  0  0  0  0
  148.4089  141.2416  155.0730 H   0  0  0  0  0  0  0  0  0  0  0  0
  148.9489  140.4134  152.5497 H   0  0  0  0  0  0  0  0  0  0  0  0
  155.7982  138.6736  158.6102 H   0  0  0  0  0  0  0  0  0  0  0  0
  154.3086  138.2832  157.7679 H   0  0  0  0  0  0  0  0  0  0  0  0
  154.5624  137.6889  159.4038 H   0  0  0  0  0  0  0  0  0  0  0  0
  1  2  1  0  0  0  0
  1 22  1  0  0  0  0
  1 23  1  0  0  0  0
  1 24  1  0  0  0  0
  2  3  1  0  0  0  0
  3  4  1  0  0  0  0
  3 25  1  0  0  0  0
  3 26  1  0  0  0  0
  4  5  1  0  0  0  0
  4 27  1  0  0  0  0
  4 28  1  0  0  0  0
  5 13  1  0  0  0  0
  5  6  1  0  0  0  0
  6  7  1  0  0  0  0
  6 11  2  0  0  0  0
  7  8  1  0  0  0  0
  7 29  1  0  0  0  0
  8  9  1  0  0  0  0
  8 30  1  0  0  0  0
  8 31  1  0  0  0  0
  9 10  1  0  0  0  0
  9 32  1  0  0  0  0
  9 33  1  0  0  0  0
 10 34  1  0  0  0  0
 11 12  1  0  0  0  0
 12 19  1  0  0  0  0
 12 13  2  0  0  0  0
 13 14  1  0  0  0  0
 14 15  2  0  0  0  0
 14 16  1  0  0  0  0
 16 21  1  0  0  0  0
 16 17  1  0  0  0  0
 17 18  2  0  0  0  0
 17 19  1  0  0  0  0
 19 20  1  0  0  0  0
 20 35  1  0  0  0  0
 20 36  1  0  0  0  0
 20 37  1  0  0  0  0
M  END
> <s_m_source_file>
AV-unprocessed.smi

> <i_m_source_file_index>
505

> <i_lp_mmshare_version>
43012

> <i_f3d_flags>
0

> <s_epik_input>
W09IXVtDSDJdW0NIMl1bTkhdYyhuMSluKFtDSDJdW0NIMl1PW0NIM10pYyhjMTIpYyg9TylbbkhdYyg9TyluMltDSDNd

> <s_epik_cmdline>
J2VwaWtfcHl0aG9uJywgJy1waCcsICc3LjAnLCAnLXRuJywgJzgnLCAnLW1hJywgJzIwMCcsICctbWV0YWxfYmluZGluZycsICctaW1hZScsICc8aW5maWxlLm1hZT4nLCAnLW9tYWUnLCAnPG91dGZpbGUubWFlPic=

> <r_lp_tautomer_probability>
1

> <r_epik_Ionization_Penalty>
7.89905e-05

> <r_epik_Ionization_Penalty_Charging>
2.6983e-05

> <r_epik_Ionization_Penalty_Neutral>
5.20075e-05

> <r_epik_State_Penalty>
-0

> <r_epik_Charging_Adjusted_Penalty>
2.6983e-05

> <i_epik_Tot_Q>
0

> <i_epik_Tot_abs_Q>
0

> <r_epik_Metal_State_Penalty>
0.02526

> <b_epik_Metal_Only>
0

> <s_lp_Force_Field>
OPLS_2005

> <r_lp_Energy>
22.7063

> <b_lp_Chiralities_Consistent>
1

> <s_lp_Variant>
AV-unprocessed.smi:505-1

> <Gold.Version>
5.8.1

> <Gold.Id.Protein>
6NUR|6NUR_protein|mol2

> <Gold.PLP.Fitness>
48.9030

> <Gold.PLP.PLP>
-41.5686

> <Gold.PLP.part.hbond>
-5.3399

> <Gold.PLP.part.metal>
0.0000

> <Gold.PLP.part.buried>
-5.7593

> <Gold.PLP.part.nonpolar>
-30.7005

> <Gold.PLP.part.repulsive>
0.2125

> <Gold.PLP.ligand.clash>
0.0000

> <Gold.PLP.ligand.torsion>
0.9289

> <Gold.PLP.Chemscore.Hbond>
3.0560

> <Gold.PLP.Chemscore.CHOScore>
0.0000

> <Gold.PLP.Chemscore.Metal>
0.0000

> <Gold.Chemscore.Hbonds>
donor molecule, donor type, donor heavy atom, donor atom, acceptor molecule, acceptor atom, score
      L1  H    10    34       P1  7957  0.64
      P1  H  8011  8017       L1    10  1.00

> <Gold.PLP.Chemscore.Internal.Correction>
0.0241

> <Gold.Rescore>
     Score         DG    S(hbond)    S(metal)    S(lipo)     H(rot)  DE(clash)    DE(int)     intcor
      8.18      -9.12       1.33        0.00      60.24       3.06       0.04       0.90       ----

> <Gold.Chemscore.Fitness>
8.1751

> <Gold.Chemscore.DG>
-9.1157

> <Gold.Chemscore.ZeroCoef>
-5.4800

> <Gold.Chemscore.Hbond>
1.3253

> <Gold.Chemscore.Metal>
0.0000

> <Gold.Chemscore.Lipo>
60.2412

> <Gold.Chemscore.Internal_Hbond>
0.0000

> <Gold.Chemscore.DEClash>
0.0379

> <Gold.Chemscore.DEInternal>
0.9027

> <Gold.Chemscore.Rot>
3.0621

> <Gold.Chemscore.Internal.Correction>
   9.000000E+99

> <Gold.Chemscore.Hbonds>
donor molecule, donor type, donor heavy atom, donor atom, acceptor molecule, acceptor atom, score
      L1  H    10    34       P1  7957  0.62
      P1  H  8011  8017       L1    10  0.50

> <Gold.Chemscore.Hbond.Weighted>
-4.4265

> <Gold.Chemscore.Metal.Weighted>
-0.0000

> <Gold.Chemscore.Lipo.Weighted>
-7.0482

> <Gold.Chemscore.Internal_Hbond.Weighted>
0.0000

> <Gold.Chemscore.DEClash.Weighted>
0.0379

> <Gold.Chemscore.DEInternal.Weighted>
0.9027

> <Gold.Chemscore.Rot.Weighted>
7.8390

> <Gold.Chemscore.Internal.Correction.Weighted>
   9.000000E+99

> <Gold.Protein.RotatedTorsions>
[ 6907 6896 6895 6894 ] final -121.76 input  -60.11 | X-H torsion
[ 7974 7965 7964 7962 ] final -102.11 input  175.53 | X-H torsion
[ 8008 7997 7996 7995 ] final   49.97 input   59.86 | X-H torsion
[ 10167 10162 10161 10158 ] final   33.85 input  -65.29 | X-H torsion
[ 10718 10713 10712 10709 ] final -130.25 input   66.30 | X-H torsion
[ 10763 10752 10751 10750 ] final   55.85 input  -60.55 | X-H torsion
[ 11005 11000 10999 10996 ] final  -64.59 input  -57.11 | X-H torsion

> <Gold.Protein.ActiveResidues>
 VAL166  LYS551  ARG553  GLY616  TRP617  ASP618  TYR619  PRO620  LYS621  CYS622 
 ASP623  PHE694  ASN695  SER759  ASP760  ASP761  ALA762  ILE779  LEU786  VAL792 
 PHE793  MET794  SER795  GLU796  ALA797  LYS798  CYS799  TRP800  GLU811  SER814 

> <Gold.Protein.RotatedAtoms>
  150.8513  133.7783  159.3024 H   0  0  0  0  0  0  0  0  0  0  0  0  # atno 6907 bound_to 6896
  151.5454  135.1066  159.9946 H   0  0  0  0  0  0  0  0  0  0  0  0  # atno 6908 bound_to 6896
  152.4554  133.7670  159.6834 H   0  0  0  0  0  0  0  0  0  0  0  0  # atno 6909 bound_to 6896
  145.2730  140.9304  143.2975 H   0  0  0  0  0  0  0  0  0  0  0  0  # atno 7974 bound_to 7965
  155.4110  140.3442  155.4263 H   0  0  0  0  0  0  0  0  0  0  0  0  # atno 8008 bound_to 7997
  156.1449  140.1553  156.8895 H   0  0  0  0  0  0  0  0  0  0  0  0  # atno 8009 bound_to 7997
  154.5002  140.0817  156.7762 H   0  0  0  0  0  0  0  0  0  0  0  0  # atno 8010 bound_to 7997
  140.4370  144.1243  150.6168 H   0  0  0  0  0  0  0  0  0  0  0  0  # atno 10167 bound_to 10162
  156.2126  130.6928  151.0666 H   0  0  0  0  0  0  0  0  0  0  0  0  # atno 10718 bound_to 10713
  152.9823  135.5696  154.5134 H   0  0  0  0  0  0  0  0  0  0  0  0  # atno 10763 bound_to 10752
  154.4634  135.2782  155.1698 H   0  0  0  0  0  0  0  0  0  0  0  0  # atno 10764 bound_to 10752
  154.3277  135.6256  153.5590 H   0  0  0  0  0  0  0  0  0  0  0  0  # atno 10765 bound_to 10752
  141.1429  133.6668  156.5857 H   0  0  0  0  0  0  0  0  0  0  0  0  # atno 11005 bound_to 11000
  144.9319  139.4289  143.6491 LP  0  0  0  0  0  0  0  0  0  0  0  0  # atno 17320 bound_to 7965
  146.3240  139.8234  142.8922 LP  0  0  0  0  0  0  0  0  0  0  0  0  # atno 17321 bound_to 7965
  140.4363  143.2546  151.9531 LP  0  0  0  0  0  0  0  0  0  0  0  0  # atno 17342 bound_to 10162
  139.4787  144.5697  151.8108 LP  0  0  0  0  0  0  0  0  0  0  0  0  # atno 17343 bound_to 10162
  157.7046  131.0762  150.6708 LP  0  0  0  0  0  0  0  0  0  0  0  0  # atno 17370 bound_to 10713
  156.6768  130.4555  149.5640 LP  0  0  0  0  0  0  0  0  0  0  0  0  # atno 17371 bound_to 10713
  140.3803  134.7529  157.4656 LP  0  0  0  0  0  0  0  0  0  0  0  0  # atno 17394 bound_to 11000
  140.0643  134.5952  155.8713 LP  0  0  0  0  0  0  0  0  0  0  0  0  # atno 17395 bound_to 11000

$$$$
