AV-unprocessed.smi:1120|AV-procd|sdf|4820|dock7
  -GOLD-   22720 3373D 1   1.00000     0.00000
 Structure written by MMmdl.
 49 50  0  0  0  0  0  0  0  0  2 V2000
  152.2350  144.4891  159.5923 C   0  0  0  0  0  0  0  0  0  0  0  0
  151.8014  143.3734  158.6308 C   0  0  2  0  0  0  0  0  0  0  0  0
  150.2663  143.2712  158.5407 C   0  0  0  0  0  0  0  0  0  0  0  0
  149.8279  142.1547  157.5791 C   0  0  0  0  0  0  0  0  0  0  0  0
  150.4423  140.8027  157.9792 C   0  0  1  0  0  0  0  0  0  0  0  0
  150.0638  139.7780  157.0044 N   0  0  0  0  0  0  0  0  0  0  0  0
  150.2215  140.0417  155.3049 S   0  0  0  0  0  0  0  0  0  0  0  0
  149.3769  141.1970  154.9655 O   0  0  0  0  0  0  0  0  0  0  0  0
  151.6615  140.0593  155.0031 O   0  0  0  0  0  0  0  0  0  0  0  0
  149.4624  138.5209  154.5701 C   0  0  0  0  0  0  0  0  0  0  0  0
  148.0673  138.8185  154.0223 C   0  0  0  0  0  0  0  0  0  0  0  0
  147.2772  139.4927  154.6821 O   0  0  0  0  0  0  0  0  0  0  0  0
  147.7732  138.3081  152.8167 N   0  0  0  0  0  0  0  0  0  0  0  0
  146.5083  138.4929  152.1168 C   0  0  0  0  0  0  0  0  0  0  0  0
  145.3524  137.7763  152.8353 C   0  0  0  0  0  0  0  0  0  0  0  0
  145.1269  136.3763  152.2995 C   0  0  0  0  0  0  0  0  0  0  0  0
  143.8341  135.8711  152.0421 C   0  0  0  0  0  0  0  0  0  0  0  0
  143.6930  134.5552  151.5542 C   0  0  0  0  0  0  0  0  0  0  0  0
  144.8457  133.7727  151.3353 C   0  0  0  0  0  0  0  0  0  0  0  0
  146.1124  134.3269  151.6109 C   0  0  0  0  0  0  0  0  0  0  0  0
  146.2063  135.5916  152.0774 N   0  3  0  0  0  0  0  0  0  0  0  0
  151.9753  140.8937  158.0773 C   0  0  0  0  0  0  0  0  0  0  0  0
  152.4082  142.0155  159.0346 C   0  0  0  0  0  0  0  0  0  0  0  0
  151.8915  144.2937  160.6085 H   0  0  0  0  0  0  0  0  0  0  0  0
  151.8296  145.4530  159.2839 H   0  0  0  0  0  0  0  0  0  0  0  0
  153.3210  144.5831  159.6204 H   0  0  0  0  0  0  0  0  0  0  0  0
  152.1796  143.6291  157.6399 H   0  0  0  0  0  0  0  0  0  0  0  0
  149.8504  143.0805  159.5309 H   0  0  0  0  0  0  0  0  0  0  0  0
  149.8476  144.2219  158.2088 H   0  0  0  0  0  0  0  0  0  0  0  0
  148.7396  142.0827  157.5707 H   0  0  0  0  0  0  0  0  0  0  0  0
  150.1289  142.4137  156.5629 H   0  0  0  0  0  0  0  0  0  0  0  0
  150.0461  140.5216  158.9558 H   0  0  0  0  0  0  0  0  0  0  0  0
  149.3107  139.1487  157.2802 H   0  0  0  0  0  0  0  0  0  0  0  0
  150.1185  138.1158  153.8005 H   0  0  0  0  0  0  0  0  0  0  0  0
  149.3841  137.7747  155.3612 H   0  0  0  0  0  0  0  0  0  0  0  0
  148.4794  137.7591  152.3481 H   0  0  0  0  0  0  0  0  0  0  0  0
  146.3076  139.5631  152.0618 H   0  0  0  0  0  0  0  0  0  0  0  0
  146.5982  138.1389  151.0884 H   0  0  0  0  0  0  0  0  0  0  0  0
  145.5511  137.7142  153.9061 H   0  0  0  0  0  0  0  0  0  0  0  0
  144.4314  138.3511  152.7278 H   0  0  0  0  0  0  0  0  0  0  0  0
  142.9605  136.4820  152.2187 H   0  0  0  0  0  0  0  0  0  0  0  0
  142.7119  134.1511  151.3515 H   0  0  0  0  0  0  0  0  0  0  0  0
  144.7591  132.7625  150.9627 H   0  0  0  0  0  0  0  0  0  0  0  0
  147.0462  133.8014  151.4739 H   0  0  0  0  0  0  0  0  0  0  0  0
  152.3878  139.9447  158.4202 H   0  0  0  0  0  0  0  0  0  0  0  0
  152.4001  141.0776  157.0895 H   0  0  0  0  0  0  0  0  0  0  0  0
  153.4966  142.0825  159.0483 H   0  0  0  0  0  0  0  0  0  0  0  0
  152.1024  141.7623  160.0508 H   0  0  0  0  0  0  0  0  0  0  0  0
  147.1332  135.9716  152.2704 H   0  0  0  0  0  0  0  0  0  0  0  0
  1  2  1  0  0  0  0
  1 24  1  0  0  0  0
  1 25  1  0  0  0  0
  1 26  1  0  0  0  0
  2 23  1  0  0  0  0
  2  3  1  0  0  0  0
  2 27  1  0  0  0  0
  3  4  1  0  0  0  0
  3 28  1  0  0  0  0
  3 29  1  0  0  0  0
  4  5  1  0  0  0  0
  4 30  1  0  0  0  0
  4 31  1  0  0  0  0
  5  6  1  0  0  0  0
  5 22  1  0  0  0  0
  5 32  1  0  0  0  0
  6  7  1  0  0  0  0
  6 33  1  0  0  0  0
  7  8  2  0  0  0  0
  7  9  2  0  0  0  0
  7 10  1  0  0  0  0
 10 11  1  0  0  0  0
 10 34  1  0  0  0  0
 10 35  1  0  0  0  0
 11 12  2  0  0  0  0
 11 13  1  0  0  0  0
 13 14  1  0  0  0  0
 13 36  1  0  0  0  0
 14 15  1  0  0  0  0
 14 37  1  0  0  0  0
 14 38  1  0  0  0  0
 15 16  1  0  0  0  0
 15 39  1  0  0  0  0
 15 40  1  0  0  0  0
 16 21  1  0  0  0  0
 16 17  2  0  0  0  0
 17 18  1  0  0  0  0
 17 41  1  0  0  0  0
 18 19  2  0  0  0  0
 18 42  1  0  0  0  0
 19 20  1  0  0  0  0
 19 43  1  0  0  0  0
 20 21  2  0  0  0  0
 20 44  1  0  0  0  0
 21 49  1  0  0  0  0
 22 23  1  0  0  0  0
 22 45  1  0  0  0  0
 22 46  1  0  0  0  0
 23 47  1  0  0  0  0
 23 48  1  0  0  0  0
M  CHG  1  21   1
M  END
> <s_m_source_file>
AV-unprocessed.smi

> <i_m_source_file_index>
1120

> <i_lp_mmshare_version>
43012

> <i_f3d_flags>
0

> <s_epik_input>
W0NIM11bQ0BASF0xW0NIMl1bQ0gyXVtDQEhdKFtDSDJdW0NIMl0xKVtOSF1TKD1PKSg9TylbQ0gyXUMoPU8pW05IXVtDSDJdW0NIMl1jMltjSF1bY0hdW2NIXVtjSF1uMg==

> <s_epik_cmdline>
J2VwaWtfcHl0aG9uJywgJy1waCcsICc3LjAnLCAnLXRuJywgJzgnLCAnLW1hJywgJzIwMCcsICctbWV0YWxfYmluZGluZycsICctaW1hZScsICc8aW5maWxlLm1hZT4nLCAnLW9tYWUnLCAnPG91dGZpbGUubWFlPic=

> <r_epik_Ionization_Penalty>
1.97387

> <r_epik_Ionization_Penalty_Charging>
1.97382

> <r_epik_Ionization_Penalty_Neutral>
4.57635e-05

> <r_epik_State_Penalty>
2.10057

> <r_epik_Charging_Adjusted_Penalty>
4.07439

> <i_epik_Tot_Q>
1

> <i_epik_Tot_abs_Q>
1

> <r_epik_Metal_State_Penalty>
2.15877

> <b_epik_Metal_Only>
0

> <s_lp_Force_Field>
OPLS_2005

> <r_lp_Energy>
9.01473

> <b_lp_Chiralities_Consistent>
1

> <s_lp_Variant>
AV-unprocessed.smi:1120-3

> <Gold.Version>
5.8.1

> <Gold.Id.Protein>
6NUR|6NUR_protein|mol2

> <Gold.PLP.Fitness>
50.8076

> <Gold.PLP.PLP>
-41.7523

> <Gold.PLP.part.hbond>
-3.7741

> <Gold.PLP.part.metal>
0.0000

> <Gold.PLP.part.buried>
-6.5825

> <Gold.PLP.part.nonpolar>
-34.0052

> <Gold.PLP.part.repulsive>
0.4054

> <Gold.PLP.ligand.clash>
0.0000

> <Gold.PLP.ligand.torsion>
1.7300

> <Gold.PLP.Chemscore.Hbond>
3.7920

> <Gold.PLP.Chemscore.CHOScore>
0.0000

> <Gold.PLP.Chemscore.Metal>
0.0000

> <Gold.Chemscore.Hbonds>
donor molecule, donor type, donor heavy atom, donor atom, acceptor molecule, acceptor atom, score
      L1  H    13    36       P1  7948  0.96
      L1  H    21    49       P1  7948  2.00
      P1  H  7989  7998       L1     9  1.00

> <Gold.PLP.Chemscore.Internal.Correction>
1.1392

> <Gold.Rescore>
     Score         DG    S(hbond)    S(metal)    S(lipo)     H(rot)  DE(clash)    DE(int)     intcor
     15.63     -20.50       2.68        0.00      96.75       2.05       0.08       4.79       ----

> <Gold.Chemscore.Fitness>
15.6275

> <Gold.Chemscore.DG>
-20.5034

> <Gold.Chemscore.ZeroCoef>
-5.4800

> <Gold.Chemscore.Hbond>
2.6772

> <Gold.Chemscore.Metal>
0.0000

> <Gold.Chemscore.Lipo>
96.7523

> <Gold.Chemscore.Internal_Hbond>
0.0000

> <Gold.Chemscore.DEClash>
0.0811

> <Gold.Chemscore.DEInternal>
4.7949

> <Gold.Chemscore.Rot>
2.0463

> <Gold.Chemscore.Internal.Correction>
   9.000000E+99

> <Gold.Chemscore.Hbonds>
donor molecule, donor type, donor heavy atom, donor atom, acceptor molecule, acceptor atom, score
      L1  H    13    36       P1  7948  0.92
      L1  H    21    49       P1  7948  0.95
      P1  H  7989  7998       L1     9  0.29

> <Gold.Chemscore.Hbond.Weighted>
-8.9420

> <Gold.Chemscore.Metal.Weighted>
-0.0000

> <Gold.Chemscore.Lipo.Weighted>
-11.3200

> <Gold.Chemscore.Internal_Hbond.Weighted>
0.0000

> <Gold.Chemscore.DEClash.Weighted>
0.0811

> <Gold.Chemscore.DEInternal.Weighted>
4.7949

> <Gold.Chemscore.Rot.Weighted>
5.2386

> <Gold.Chemscore.Internal.Correction.Weighted>
   9.000000E+99

> <Gold.Protein.RotatedTorsions>
[ 6907 6896 6895 6894 ] final   76.63 input  -60.11 | X-H torsion
[ 7974 7965 7964 7962 ] final  120.16 input  175.53 | X-H torsion
[ 8008 7997 7996 7995 ] final  -84.57 input   59.86 | X-H torsion
[ 10167 10162 10161 10158 ] final   90.98 input  -65.29 | X-H torsion
[ 10718 10713 10712 10709 ] final  -46.49 input   66.30 | X-H torsion
[ 10763 10752 10751 10750 ] final  -51.90 input  -60.55 | X-H torsion
[ 11005 11000 10999 10996 ] final  135.31 input  -57.11 | X-H torsion

> <Gold.Protein.ActiveResidues>
 VAL166  LYS551  ARG553  GLY616  TRP617  ASP618  TYR619  PRO620  LYS621  CYS622 
 ASP623  PHE694  ASN695  SER759  ASP760  ASP761  ALA762  ILE779  LEU786  VAL792 
 PHE793  MET794  SER795  GLU796  ALA797  LYS798  CYS799  TRP800  GLU811  SER814 

> <Gold.Protein.RotatedAtoms>
  152.5082  134.3940  159.9393 H   0  0  0  0  0  0  0  0  0  0  0  0  # atno 6907 bound_to 6896
  151.3901  133.3785  159.2727 H   0  0  0  0  0  0  0  0  0  0  0  0  # atno 6908 bound_to 6896
  150.9439  134.8866  159.7688 H   0  0  0  0  0  0  0  0  0  0  0  0  # atno 6909 bound_to 6896
  145.1345  139.3306  143.4648 H   0  0  0  0  0  0  0  0  0  0  0  0  # atno 7974 bound_to 7965
  154.6312  140.0603  156.9735 H   0  0  0  0  0  0  0  0  0  0  0  0  # atno 8008 bound_to 7997
  155.1662  140.3287  155.4383 H   0  0  0  0  0  0  0  0  0  0  0  0  # atno 8009 bound_to 7997
  156.2484  140.1922  156.6767 H   0  0  0  0  0  0  0  0  0  0  0  0  # atno 8010 bound_to 7997
  139.8419  144.6637  150.9273 H   0  0  0  0  0  0  0  0  0  0  0  0  # atno 10167 bound_to 10162
  156.2177  130.4164  149.9032 H   0  0  0  0  0  0  0  0  0  0  0  0  # atno 10718 bound_to 10713
  154.1340  135.6515  153.4928 H   0  0  0  0  0  0  0  0  0  0  0  0  # atno 10763 bound_to 10752
  153.0186  135.5299  154.6972 H   0  0  0  0  0  0  0  0  0  0  0  0  # atno 10764 bound_to 10752
  154.6215  135.2965  155.0291 H   0  0  0  0  0  0  0  0  0  0  0  0  # atno 10765 bound_to 10752
  139.9971  134.9493  156.9989 H   0  0  0  0  0  0  0  0  0  0  0  0  # atno 11005 bound_to 11000
  146.3511  140.1357  142.8596 LP  0  0  0  0  0  0  0  0  0  0  0  0  # atno 17320 bound_to 7965
  145.0599  140.9080  143.4945 LP  0  0  0  0  0  0  0  0  0  0  0  0  # atno 17321 bound_to 7965
  140.7797  143.3905  151.1319 LP  0  0  0  0  0  0  0  0  0  0  0  0  # atno 17342 bound_to 10162
  139.7550  143.8721  152.3086 LP  0  0  0  0  0  0  0  0  0  0  0  0  # atno 17343 bound_to 10162
  156.6689  130.8812  151.3559 LP  0  0  0  0  0  0  0  0  0  0  0  0  # atno 17370 bound_to 10713
  157.7072  130.9398  150.0969 LP  0  0  0  0  0  0  0  0  0  0  0  0  # atno 17371 bound_to 10713
  140.4797  134.1302  155.7215 LP  0  0  0  0  0  0  0  0  0  0  0  0  # atno 17394 bound_to 11000
  141.1613  133.8787  157.1840 LP  0  0  0  0  0  0  0  0  0  0  0  0  # atno 17395 bound_to 11000

$$$$
