AV-unprocessed.smi:3208|AV-procd|sdf|12262|dock5
  -GOLD-   2272018 93D 1   1.00000     0.00000
 Structure written by MMmdl.
 30 30  0  0  0  0  0  0  0  0  3 V2000
  145.6924  143.4111  154.6120 C   0  0  0  0  0  0  0  0  0  0  0  0
  146.2886  142.9133  153.5183 C   0  0  0  0  0  0  0  0  0  0  0  0
  147.1964  141.7033  153.5118 C   0  0  0  0  0  0  0  0  0  0  0  0
  148.3075  141.9179  154.3739 O   0  0  0  0  0  0  0  0  0  0  0  0
  149.0875  140.7620  154.6701 C   0  0  2  0  0  0  0  0  0  0  0  0
  148.1554  139.7296  155.3223 C   0  0  0  0  0  0  0  0  0  0  0  0
  150.2578  141.1276  155.5978 C   0  0  0  0  0  0  0  0  0  0  0  0
  151.3115  140.4924  155.5327 O   0  0  0  0  0  0  0  0  0  0  0  0
  150.0283  142.1422  156.4520 N   0  0  0  0  0  0  0  0  0  0  0  0
  150.9011  142.7032  157.4249 C   0  0  0  0  0  0  0  0  0  0  0  0
  151.0782  144.0425  157.5505 N   0  3  0  0  0  0  0  0  0  0  0  0
  151.8971  144.6056  158.4648 C   0  0  0  0  0  0  0  0  0  0  0  0
  152.6223  143.7881  159.3524 C   0  0  0  0  0  0  0  0  0  0  0  0
  152.4762  142.3895  159.2658 C   0  0  0  0  0  0  0  0  0  0  0  0
  151.6105  141.8408  158.2958 C   0  0  0  0  0  0  0  0  0  0  0  0
  151.4700  140.4837  158.2114 O   0  5  0  0  0  0  0  0  0  0  0  0
  145.8317  142.9594  155.5834 H   0  0  0  0  0  0  0  0  0  0  0  0
  145.0544  144.2803  154.5485 H   0  0  0  0  0  0  0  0  0  0  0  0
  146.1250  143.3920  152.5638 H   0  0  0  0  0  0  0  0  0  0  0  0
  146.6192  140.8417  153.8496 H   0  0  0  0  0  0  0  0  0  0  0  0
  147.5249  141.5014  152.4914 H   0  0  0  0  0  0  0  0  0  0  0  0
  149.4697  140.3356  153.7405 H   0  0  0  0  0  0  0  0  0  0  0  0
  148.6947  138.8197  155.5879 H   0  0  0  0  0  0  0  0  0  0  0  0
  147.3542  139.4482  154.6386 H   0  0  0  0  0  0  0  0  0  0  0  0
  147.6907  140.1217  156.2279 H   0  0  0  0  0  0  0  0  0  0  0  0
  149.1141  142.5696  156.4076 H   0  0  0  0  0  0  0  0  0  0  0  0
  151.9455  145.6847  158.4579 H   0  0  0  0  0  0  0  0  0  0  0  0
  153.2805  144.2256  160.0885 H   0  0  0  0  0  0  0  0  0  0  0  0
  153.0234  141.7449  159.9383 H   0  0  0  0  0  0  0  0  0  0  0  0
  150.5628  144.6564  156.9185 H   0  0  0  0  0  0  0  0  0  0  0  0
  1  2  2  0  0  0  0
  1 17  1  0  0  0  0
  1 18  1  0  0  0  0
  2  3  1  0  0  0  0
  2 19  1  0  0  0  0
  3  4  1  0  0  0  0
  3 20  1  0  0  0  0
  3 21  1  0  0  0  0
  4  5  1  0  0  0  0
  5  6  1  0  0  0  0
  5  7  1  0  0  0  0
  5 22  1  0  0  0  0
  6 23  1  0  0  0  0
  6 24  1  0  0  0  0
  6 25  1  0  0  0  0
  7  8  2  0  0  0  0
  7  9  1  0  0  0  0
  9 26  1  0  0  0  0
  9 10  1  0  0  0  0
 10 15  2  0  0  0  0
 10 11  1  0  0  0  0
 11 30  1  0  0  0  0
 11 12  2  0  0  0  0
 12 27  1  0  0  0  0
 12 13  1  0  0  0  0
 13 28  1  0  0  0  0
 13 14  2  0  0  0  0
 14 15  1  0  0  0  0
 14 29  1  0  0  0  0
 15 16  1  0  0  0  0
M  CHG  1  11   1
M  CHG  1  16  -1
M  END
> <s_m_source_file>
AV-unprocessed.smi

> <i_m_source_file_index>
3208

> <i_lp_mmshare_version>
43012

> <i_f3d_flags>
0

> <s_epik_input>
W0NIMl09W0NIXVtDSDJdT1tDQEhdKFtDSDNdKUMoPU8pW05IXWMxbltjSF1bY0hdW2NIXWMxW09IXQ==

> <s_epik_cmdline>
J2VwaWtfcHl0aG9uJywgJy1waCcsICc3LjAnLCAnLXRuJywgJzgnLCAnLW1hJywgJzIwMCcsICctbWV0YWxfYmluZGluZycsICctaW1hZScsICc8aW5maWxlLm1hZT4nLCAnLW9tYWUnLCAnPG91dGZpbGUubWFlPic=

> <r_lp_tautomer_probability>
0.56342

> <r_epik_Ionization_Penalty>
0.29395

> <r_epik_Ionization_Penalty_Charging>
0.0267837

> <r_epik_Ionization_Penalty_Neutral>
0.267166

> <r_epik_State_Penalty>
0.587031

> <r_epik_Charging_Adjusted_Penalty>
0.613815

> <i_epik_Tot_Q>
0

> <i_epik_Tot_abs_Q>
2

> <r_epik_Metal_State_Penalty>
2.67911

> <b_epik_Metal_Only>
0

> <s_lp_Force_Field>
OPLS_2005

> <r_lp_Energy>
5.5941

> <b_lp_Chiralities_Consistent>
1

> <s_lp_Variant>
AV-unprocessed.smi:3208-3

> <Gold.Version>
5.8.1

> <Gold.Id.Protein>
6NUR|6NUR_protein|mol2

> <Gold.PLP.Fitness>
42.9105

> <Gold.PLP.PLP>
-36.3596

> <Gold.PLP.part.hbond>
-3.0000

> <Gold.PLP.part.metal>
0.0000

> <Gold.PLP.part.buried>
-6.7981

> <Gold.PLP.part.nonpolar>
-28.5756

> <Gold.PLP.part.repulsive>
0.2618

> <Gold.PLP.ligand.clash>
0.0000

> <Gold.PLP.ligand.torsion>
1.1935

> <Gold.PLP.Chemscore.Hbond>
2.7922

> <Gold.PLP.Chemscore.CHOScore>
0.0000

> <Gold.PLP.Chemscore.Metal>
0.0000

> <Gold.Chemscore.Hbonds>
donor molecule, donor type, donor heavy atom, donor atom, acceptor molecule, acceptor atom, score
      L1  H     9    26       P1  8028  0.15
      L1  H    11    30       P1  8028  1.63
      P1  H  7989  7998       L1     8  0.56

> <Gold.PLP.Chemscore.Internal.Correction>
0.5615

> <Gold.Rescore>
     Score         DG    S(hbond)    S(metal)    S(lipo)     H(rot)  DE(clash)    DE(int)     intcor
     13.96     -15.45       1.92        0.00      67.65       1.70       0.01       1.48       ----

> <Gold.Chemscore.Fitness>
13.9621

> <Gold.Chemscore.DG>
-15.4463

> <Gold.Chemscore.ZeroCoef>
-5.4800

> <Gold.Chemscore.Hbond>
1.9155

> <Gold.Chemscore.Metal>
0.0000

> <Gold.Chemscore.Lipo>
67.6518

> <Gold.Chemscore.Internal_Hbond>
0.0000

> <Gold.Chemscore.DEClash>
0.0072

> <Gold.Chemscore.DEInternal>
1.4770

> <Gold.Chemscore.Rot>
1.6979

> <Gold.Chemscore.Internal.Correction>
   9.000000E+99

> <Gold.Chemscore.Hbonds>
donor molecule, donor type, donor heavy atom, donor atom, acceptor molecule, acceptor atom, score
      L1  H     9    26       P1  8028  0.15
      L1  H    11    30       P1  8028  0.63
      P1  H  7989  7998       L1     8  0.07

> <Gold.Chemscore.Hbond.Weighted>
-6.3977

> <Gold.Chemscore.Metal.Weighted>
-0.0000

> <Gold.Chemscore.Lipo.Weighted>
-7.9153

> <Gold.Chemscore.Internal_Hbond.Weighted>
0.0000

> <Gold.Chemscore.DEClash.Weighted>
0.0072

> <Gold.Chemscore.DEInternal.Weighted>
1.4770

> <Gold.Chemscore.Rot.Weighted>
4.3467

> <Gold.Chemscore.Internal.Correction.Weighted>
   9.000000E+99

> <Gold.Protein.RotatedTorsions>
[ 6907 6896 6895 6894 ] final   54.99 input  -60.11 | X-H torsion
[ 7974 7965 7964 7962 ] final -118.69 input  175.53 | X-H torsion
[ 8008 7997 7996 7995 ] final  -44.95 input   59.86 | X-H torsion
[ 10167 10162 10161 10158 ] final  100.21 input  -65.29 | X-H torsion
[ 10718 10713 10712 10709 ] final   61.79 input   66.30 | X-H torsion
[ 10763 10752 10751 10750 ] final   42.12 input  -60.55 | X-H torsion
[ 11005 11000 10999 10996 ] final  -72.50 input  -57.11 | X-H torsion

> <Gold.Protein.ActiveResidues>
 VAL166  LYS551  ARG553  GLY616  TRP617  ASP618  TYR619  PRO620  LYS621  CYS622 
 ASP623  PHE694  ASN695  SER759  ASP760  ASP761  ALA762  ILE779  LEU786  VAL792 
 PHE793  MET794  SER795  GLU796  ALA797  LYS798  CYS799  TRP800  GLU811  SER814 

> <Gold.Protein.RotatedAtoms>
  152.3494  134.7027  160.0240 H   0  0  0  0  0  0  0  0  0  0  0  0  # atno 6907 bound_to 6896
  151.7386  133.3315  159.3367 H   0  0  0  0  0  0  0  0  0  0  0  0  # atno 6908 bound_to 6896
  150.7530  134.6232  159.6192 H   0  0  0  0  0  0  0  0  0  0  0  0  # atno 6909 bound_to 6896
  145.0709  140.8358  143.4096 H   0  0  0  0  0  0  0  0  0  0  0  0  # atno 7974 bound_to 7965
  154.3999  140.1409  156.3768 H   0  0  0  0  0  0  0  0  0  0  0  0  # atno 8008 bound_to 7997
  155.8041  140.3475  155.5399 H   0  0  0  0  0  0  0  0  0  0  0  0  # atno 8009 bound_to 7997
  155.8453  140.0933  157.1699 H   0  0  0  0  0  0  0  0  0  0  0  0  # atno 8010 bound_to 7997
  139.7548  144.6973  151.0379 H   0  0  0  0  0  0  0  0  0  0  0  0  # atno 10167 bound_to 10162
  157.5854  130.9014  149.9506 H   0  0  0  0  0  0  0  0  0  0  0  0  # atno 10718 bound_to 10713
  152.9891  135.6141  154.2899 H   0  0  0  0  0  0  0  0  0  0  0  0  # atno 10763 bound_to 10752
  154.2624  135.2782  155.2774 H   0  0  0  0  0  0  0  0  0  0  0  0  # atno 10764 bound_to 10752
  154.5194  135.5819  153.6725 H   0  0  0  0  0  0  0  0  0  0  0  0  # atno 10765 bound_to 10752
  141.1609  133.6849  156.7069 H   0  0  0  0  0  0  0  0  0  0  0  0  # atno 11005 bound_to 11000
  145.1293  139.2642  143.5547 LP  0  0  0  0  0  0  0  0  0  0  0  0  # atno 17320 bound_to 7965
  146.3528  140.0940  142.8611 LP  0  0  0  0  0  0  0  0  0  0  0  0  # atno 17321 bound_to 7965
  140.7801  143.4766  151.0074 LP  0  0  0  0  0  0  0  0  0  0  0  0  # atno 17342 bound_to 10162
  139.8453  143.7509  152.3179 LP  0  0  0  0  0  0  0  0  0  0  0  0  # atno 17343 bound_to 10162
  156.0903  130.3664  150.0408 LP  0  0  0  0  0  0  0  0  0  0  0  0  # atno 17370 bound_to 10713
  156.8541  130.9469  151.3623 LP  0  0  0  0  0  0  0  0  0  0  0  0  # atno 17371 bound_to 10713
  140.2917  134.8235  157.4022 LP  0  0  0  0  0  0  0  0  0  0  0  0  # atno 17394 bound_to 11000
  140.1341  134.5057  155.8082 LP  0  0  0  0  0  0  0  0  0  0  0  0  # atno 17395 bound_to 11000

$$$$
