AV-unprocessed.smi:1368|AV-procd|sdf|5575|dock3
  -GOLD-   22720 5173D 1   1.00000     0.00000
 Structure written by MMmdl.
 46 48  0  0  0  0  0  0  0  0  1 V2000
  146.0489  131.0794  152.6501 C   0  0  0  0  0  0  0  0  0  0  0  0
  146.4290  132.3712  153.3675 C   0  0  0  0  0  0  0  0  0  0  0  0
  145.5533  133.1965  153.6229 O   0  0  0  0  0  0  0  0  0  0  0  0
  147.7370  132.5190  153.6494 N   0  0  0  0  0  0  0  0  0  0  0  0
  148.3951  133.5912  154.3126 C   0  0  0  0  0  0  0  0  0  0  0  0
  147.6016  134.6862  154.7095 C   0  0  0  0  0  0  0  0  0  0  0  0
  148.1822  135.7935  155.3565 C   0  0  0  0  0  0  0  0  0  0  0  0
  149.5669  135.8358  155.6130 C   0  0  0  0  0  0  0  0  0  0  0  0
  150.0521  136.9566  156.2525 O   0  0  0  0  0  0  0  0  0  0  0  0
  151.4568  137.1749  156.2534 C   0  0  0  0  0  0  0  0  0  0  0  0
  151.7362  138.6427  156.6129 C   0  0  2  0  0  0  0  0  0  0  0  0
  153.1351  138.8494  156.5886 O   0  0  0  0  0  0  0  0  0  0  0  0
  151.1946  138.9994  158.0123 C   0  0  0  0  0  0  0  0  0  0  0  0
  151.9754  140.0333  158.6791 N   0  0  0  0  0  0  0  0  0  0  0  0
  152.9606  139.8735  159.5966 C   0  0  0  0  0  0  0  0  0  0  0  0
  153.3927  138.5201  160.0643 C   0  0  0  0  0  0  0  0  0  0  0  0
  153.5217  140.9947  160.0497 N   0  0  0  0  0  0  0  0  0  0  0  0
  152.8368  141.9761  159.3593 C   0  0  0  0  0  0  0  0  0  0  0  0
  152.9663  143.3832  159.3930 C   0  0  0  0  0  0  0  0  0  0  0  0
  152.1434  144.1954  158.5855 C   0  0  0  0  0  0  0  0  0  0  0  0
  151.1808  143.6140  157.7350 C   0  0  0  0  0  0  0  0  0  0  0  0
  151.0364  142.2143  157.6849 C   0  0  0  0  0  0  0  0  0  0  0  0
  151.8607  141.4077  158.4922 C   0  0  0  0  0  0  0  0  0  0  0  0
  150.3681  134.7423  155.2001 C   0  0  0  0  0  0  0  0  0  0  0  0
  149.7892  133.6335  154.5528 C   0  0  0  0  0  0  0  0  0  0  0  0
  146.7360  130.2708  152.9018 H   0  0  0  0  0  0  0  0  0  0  0  0
  146.0715  131.2278  151.5702 H   0  0  0  0  0  0  0  0  0  0  0  0
  145.0426  130.7678  152.9321 H   0  0  0  0  0  0  0  0  0  0  0  0
  148.3445  131.7926  153.2993 H   0  0  0  0  0  0  0  0  0  0  0  0
  146.5372  134.6807  154.5236 H   0  0  0  0  0  0  0  0  0  0  0  0
  147.5568  136.6208  155.6592 H   0  0  0  0  0  0  0  0  0  0  0  0
  151.9020  136.5282  157.0115 H   0  0  0  0  0  0  0  0  0  0  0  0
  151.9063  136.9196  155.2918 H   0  0  0  0  0  0  0  0  0  0  0  0
  151.2719  139.2943  155.8723 H   0  0  0  0  0  0  0  0  0  0  0  0
  153.5384  138.2369  157.1848 H   0  0  0  0  0  0  0  0  0  0  0  0
  150.1594  139.3340  157.9429 H   0  0  0  0  0  0  0  0  0  0  0  0
  151.1803  138.1127  158.6475 H   0  0  0  0  0  0  0  0  0  0  0  0
  154.1755  138.6087  160.8184 H   0  0  0  0  0  0  0  0  0  0  0  0
  153.7862  137.9397  159.2298 H   0  0  0  0  0  0  0  0  0  0  0  0
  152.5529  137.9835  160.5052 H   0  0  0  0  0  0  0  0  0  0  0  0
  153.7002  143.8384  160.0417 H   0  0  0  0  0  0  0  0  0  0  0  0
  152.2507  145.2697  158.6193 H   0  0  0  0  0  0  0  0  0  0  0  0
  150.5526  144.2432  157.1213 H   0  0  0  0  0  0  0  0  0  0  0  0
  150.2986  141.7653  157.0368 H   0  0  0  0  0  0  0  0  0  0  0  0
  151.4349  134.7296  155.3638 H   0  0  0  0  0  0  0  0  0  0  0  0
  150.4413  132.8338  154.2385 H   0  0  0  0  0  0  0  0  0  0  0  0
  1  2  1  0  0  0  0
  1 26  1  0  0  0  0
  1 27  1  0  0  0  0
  1 28  1  0  0  0  0
  2  3  2  0  0  0  0
  2  4  1  0  0  0  0
  4  5  1  0  0  0  0
  4 29  1  0  0  0  0
  5 25  1  0  0  0  0
  5  6  2  0  0  0  0
  6  7  1  0  0  0  0
  6 30  1  0  0  0  0
  7  8  2  0  0  0  0
  7 31  1  0  0  0  0
  8  9  1  0  0  0  0
  8 24  1  0  0  0  0
  9 10  1  0  0  0  0
 10 11  1  0  0  0  0
 10 32  1  0  0  0  0
 10 33  1  0  0  0  0
 11 12  1  0  0  0  0
 11 13  1  0  0  0  0
 11 34  1  0  0  0  0
 12 35  1  0  0  0  0
 13 14  1  0  0  0  0
 13 36  1  0  0  0  0
 13 37  1  0  0  0  0
 14 23  1  0  0  0  0
 14 15  1  0  0  0  0
 15 16  1  0  0  0  0
 15 17  2  0  0  0  0
 16 38  1  0  0  0  0
 16 39  1  0  0  0  0
 16 40  1  0  0  0  0
 17 18  1  0  0  0  0
 18 23  2  0  0  0  0
 18 19  1  0  0  0  0
 19 20  2  0  0  0  0
 19 41  1  0  0  0  0
 20 21  1  0  0  0  0
 20 42  1  0  0  0  0
 21 22  2  0  0  0  0
 21 43  1  0  0  0  0
 22 23  1  0  0  0  0
 22 44  1  0  0  0  0
 24 25  2  0  0  0  0
 24 45  1  0  0  0  0
 25 46  1  0  0  0  0
M  END
> <s_m_source_file>
AV-unprocessed.smi

> <i_m_source_file_index>
1368

> <i_lp_mmshare_version>
43012

> <i_f3d_flags>
0

> <s_epik_input>
W0NIM11DKD1PKVtOSF1jMVtjSF1bY0hdYyhbY0hdW2NIXTEpT1tDSDJdW0NASF0oW09IXSlbQ0gyXW4oYyhuMilbQ0gzXSljKGMyMylbY0hdW2NIXVtjSF1bY0hdMw==

> <s_epik_cmdline>
J2VwaWtfcHl0aG9uJywgJy1waCcsICc3LjAnLCAnLXRuJywgJzgnLCAnLW1hJywgJzIwMCcsICctbWV0YWxfYmluZGluZycsICctaW1hZScsICc8aW5maWxlLm1hZT4nLCAnLW9tYWUnLCAnPG91dGZpbGUubWFlPic=

> <r_lp_tautomer_probability>
1

> <r_epik_Ionization_Penalty>
0.119634

> <r_epik_Ionization_Penalty_Charging>
0

> <r_epik_Ionization_Penalty_Neutral>
0.119634

> <r_epik_State_Penalty>
0.10919

> <r_epik_Charging_Adjusted_Penalty>
0.10919

> <i_epik_Tot_Q>
0

> <i_epik_Tot_abs_Q>
0

> <r_epik_Metal_State_Penalty>
0.0906856

> <b_epik_Metal_Only>
0

> <s_lp_Force_Field>
OPLS_2005

> <r_lp_Energy>
21.7849

> <b_lp_Chiralities_Consistent>
1

> <s_lp_Variant>
AV-unprocessed.smi:1368-1

> <Gold.Version>
5.8.1

> <Gold.Id.Protein>
6NUR|6NUR_protein|mol2

> <Gold.PLP.Fitness>
43.0246

> <Gold.PLP.PLP>
-41.8100

> <Gold.PLP.part.hbond>
-1.0000

> <Gold.PLP.part.metal>
0.0000

> <Gold.PLP.part.buried>
-6.1156

> <Gold.PLP.part.nonpolar>
-35.4969

> <Gold.PLP.part.repulsive>
0.1349

> <Gold.PLP.ligand.clash>
0.0000

> <Gold.PLP.ligand.torsion>
0.9447

> <Gold.PLP.Chemscore.Hbond>
0.9920

> <Gold.PLP.Chemscore.CHOScore>
0.0000

> <Gold.PLP.Chemscore.Metal>
0.0000

> <Gold.Chemscore.Hbonds>
donor molecule, donor type, donor heavy atom, donor atom, acceptor molecule, acceptor atom, score
      P1  H  7997  8010       L1    12  0.70

> <Gold.PLP.Chemscore.Internal.Correction>
0.1281

> <Gold.Rescore>
     Score         DG    S(hbond)    S(metal)    S(lipo)     H(rot)  DE(clash)    DE(int)     intcor
     13.98     -16.44       0.95        0.00     118.91       2.39       0.08       2.38       ----

> <Gold.Chemscore.Fitness>
13.9828

> <Gold.Chemscore.DG>
-16.4389

> <Gold.Chemscore.ZeroCoef>
-5.4800

> <Gold.Chemscore.Hbond>
0.9486

> <Gold.Chemscore.Metal>
0.0000

> <Gold.Chemscore.Lipo>
118.9102

> <Gold.Chemscore.Internal_Hbond>
0.0000

> <Gold.Chemscore.DEClash>
0.0799

> <Gold.Chemscore.DEInternal>
2.3761

> <Gold.Chemscore.Rot>
2.3914

> <Gold.Chemscore.Internal.Correction>
   9.000000E+99

> <Gold.Chemscore.Hbonds>
donor molecule, donor type, donor heavy atom, donor atom, acceptor molecule, acceptor atom, score
      P1  H  7997  8010       L1    12  0.07

> <Gold.Chemscore.Hbond.Weighted>
-3.1683

> <Gold.Chemscore.Metal.Weighted>
-0.0000

> <Gold.Chemscore.Lipo.Weighted>
-13.9125

> <Gold.Chemscore.Internal_Hbond.Weighted>
0.0000

> <Gold.Chemscore.DEClash.Weighted>
0.0799

> <Gold.Chemscore.DEInternal.Weighted>
2.3761

> <Gold.Chemscore.Rot.Weighted>
6.1220

> <Gold.Chemscore.Internal.Correction.Weighted>
   9.000000E+99

> <Gold.Protein.RotatedTorsions>
[ 6907 6896 6895 6894 ] final   79.47 input  -60.11 | X-H torsion
[ 7974 7965 7964 7962 ] final -152.03 input  175.53 | X-H torsion
[ 8008 7997 7996 7995 ] final   51.99 input   59.86 | X-H torsion
[ 10167 10162 10161 10158 ] final    8.66 input  -65.29 | X-H torsion
[ 10718 10713 10712 10709 ] final  -86.31 input   66.30 | X-H torsion
[ 10763 10752 10751 10750 ] final  -35.45 input  -60.55 | X-H torsion
[ 11005 11000 10999 10996 ] final -110.67 input  -57.11 | X-H torsion

> <Gold.Protein.ActiveResidues>
 VAL166  LYS551  ARG553  GLY616  TRP617  ASP618  TYR619  PRO620  LYS621  CYS622 
 ASP623  PHE694  ASN695  SER759  ASP760  ASP761  ALA762  ILE779  LEU786  VAL792 
 PHE793  MET794  SER795  GLU796  ALA797  LYS798  CYS799  TRP800  GLU811  SER814 

> <Gold.Protein.RotatedAtoms>
  152.5199  134.3506  159.9249 H   0  0  0  0  0  0  0  0  0  0  0  0  # atno 6907 bound_to 6896
  151.3457  133.3938  159.2683 H   0  0  0  0  0  0  0  0  0  0  0  0  # atno 6908 bound_to 6896
  150.9767  134.9149  159.7878 H   0  0  0  0  0  0  0  0  0  0  0  0  # atno 6909 bound_to 6896
  144.7816  140.4717  143.5835 H   0  0  0  0  0  0  0  0  0  0  0  0  # atno 7974 bound_to 7965
  155.4444  140.3456  155.4293 H   0  0  0  0  0  0  0  0  0  0  0  0  # atno 8008 bound_to 7997
  156.1259  140.1500  156.9167 H   0  0  0  0  0  0  0  0  0  0  0  0  # atno 8009 bound_to 7997
  154.4858  140.0856  156.7462 H   0  0  0  0  0  0  0  0  0  0  0  0  # atno 8010 bound_to 7997
  140.6301  143.8013  150.7284 H   0  0  0  0  0  0  0  0  0  0  0  0  # atno 10167 bound_to 10162
  155.9990  130.4761  150.4695 H   0  0  0  0  0  0  0  0  0  0  0  0  # atno 10718 bound_to 10713
  153.8635  135.6838  153.4780 H   0  0  0  0  0  0  0  0  0  0  0  0  # atno 10763 bound_to 10752
  153.1328  135.4690  154.9373 H   0  0  0  0  0  0  0  0  0  0  0  0  # atno 10764 bound_to 10752
  154.7748  135.3249  154.8065 H   0  0  0  0  0  0  0  0  0  0  0  0  # atno 10765 bound_to 10752
  141.0779  133.9271  157.2352 H   0  0  0  0  0  0  0  0  0  0  0  0  # atno 11005 bound_to 11000
  145.6033  139.1506  143.3116 LP  0  0  0  0  0  0  0  0  0  0  0  0  # atno 17320 bound_to 7965
  146.2028  140.6153  142.9095 LP  0  0  0  0  0  0  0  0  0  0  0  0  # atno 17321 bound_to 7965
  140.1622  143.4266  152.2059 LP  0  0  0  0  0  0  0  0  0  0  0  0  # atno 17342 bound_to 10162
  139.5516  144.7342  151.4417 LP  0  0  0  0  0  0  0  0  0  0  0  0  # atno 17343 bound_to 10162
  157.2712  131.0587  151.2259 LP  0  0  0  0  0  0  0  0  0  0  0  0  # atno 17370 bound_to 10713
  157.3338  130.6998  149.6340 LP  0  0  0  0  0  0  0  0  0  0  0  0  # atno 17371 bound_to 10713
  139.9591  135.0158  156.9211 LP  0  0  0  0  0  0  0  0  0  0  0  0  # atno 17394 bound_to 11000
  140.5534  134.0605  155.7376 LP  0  0  0  0  0  0  0  0  0  0  0  0  # atno 17395 bound_to 11000

$$$$
