AV-unprocessed.smi:264|AV-procd|sdf|2014|dock3
  -GOLD-   2262021213D 1   1.00000     0.00000
 Structure written by MMmdl.
 52 56  0  0  0  0  0  0  0  0  1 V2000
  146.4986  133.9341  152.0916 C   0  0  0  0  0  0  0  0  0  0  0  0
  145.6794  133.7214  150.8087 C   0  0  1  0  0  0  0  0  0  0  0  0
  145.5229  132.3165  150.6240 O   0  0  0  0  0  0  0  0  0  0  0  0
  144.2962  132.0753  149.9581 C   0  0  0  0  0  0  0  0  0  0  0  0
  143.3625  133.0730  150.6255 C   0  0  0  0  0  0  0  0  0  0  0  0
  144.2403  134.3114  150.7878 C   0  0  2  0  0  0  0  0  0  0  0  0
  144.1112  135.0895  149.6097 O   0  0  0  0  0  0  0  0  0  0  0  0
  143.8431  135.1999  151.9960 C   0  0  0  0  0  0  0  0  0  0  0  0
  144.8809  136.1402  152.3917 N   0  0  0  0  0  0  0  0  0  0  0  0
  145.6510  136.9184  151.5570 C   0  0  0  0  0  0  0  0  0  0  0  0
  146.5160  137.6903  152.1560 N   0  0  0  0  0  0  0  0  0  0  0  0
  146.3265  137.4277  153.5077 C   0  0  0  0  0  0  0  0  0  0  0  0
  146.9177  137.9211  154.7046 C   0  0  0  0  0  0  0  0  0  0  0  0
  147.9113  138.8453  154.7013 N   0  0  0  0  0  0  0  0  0  0  0  0
  147.7173  139.9504  153.7715 C   0  0  0  0  0  0  0  0  0  0  0  0
  148.6849  141.0931  154.1089 C   0  0  0  0  0  0  0  0  0  0  0  0
  150.0281  140.6121  154.1443 O   0  0  0  0  0  0  0  0  0  0  0  0
  150.2629  139.5278  155.0519 C   0  0  2  0  0  0  0  0  0  0  0  0
  150.2479  139.9797  156.5093 C   0  0  0  0  0  0  0  0  0  0  0  0
  151.6239  140.6103  156.6615 C   0  0  0  0  0  0  0  0  0  0  0  0
  152.4760  139.7466  155.9246 O   0  0  0  0  0  0  0  0  0  0  0  0
  151.7347  139.1168  154.8816 C   0  0  0  0  0  0  0  0  0  0  0  0
  149.2913  138.3702  154.7361 C   0  0  0  0  0  0  0  0  0  0  0  0
  146.4457  137.4319  155.8827 N   0  0  0  0  0  0  0  0  0  0  0  0
  145.4692  136.5196  155.8922 C   0  0  0  0  0  0  0  0  0  0  0  0
  144.8299  135.9710  154.8577 N   0  0  0  0  0  0  0  0  0  0  0  0
  145.2954  136.4600  153.6730 C   0  0  0  0  0  0  0  0  0  0  0  0
  146.6675  134.9932  152.2868 H   0  0  0  0  0  0  0  0  0  0  0  0
  147.4765  133.4601  152.0047 H   0  0  0  0  0  0  0  0  0  0  0  0
  146.0038  133.4999  152.9605 H   0  0  0  0  0  0  0  0  0  0  0  0
  146.2589  134.1020  149.9654 H   0  0  0  0  0  0  0  0  0  0  0  0
  144.4042  132.2858  148.8929 H   0  0  0  0  0  0  0  0  0  0  0  0
  143.9680  131.0428  150.0783 H   0  0  0  0  0  0  0  0  0  0  0  0
  142.4464  133.2506  150.0600 H   0  0  0  0  0  0  0  0  0  0  0  0
  143.0787  132.6838  151.6041 H   0  0  0  0  0  0  0  0  0  0  0  0
  144.6504  134.7047  148.9359 H   0  0  0  0  0  0  0  0  0  0  0  0
  142.9485  135.7794  151.7662 H   0  0  0  0  0  0  0  0  0  0  0  0
  143.5964  134.5804  152.8592 H   0  0  0  0  0  0  0  0  0  0  0  0
  145.5514  136.8955  150.4814 H   0  0  0  0  0  0  0  0  0  0  0  0
  147.9022  139.5941  152.7571 H   0  0  0  0  0  0  0  0  0  0  0  0
  146.6932  140.3215  153.7939 H   0  0  0  0  0  0  0  0  0  0  0  0
  148.6148  141.8736  153.3517 H   0  0  0  0  0  0  0  0  0  0  0  0
  148.4135  141.5605  155.0548 H   0  0  0  0  0  0  0  0  0  0  0  0
  149.4381  140.6581  156.7724 H   0  0  0  0  0  0  0  0  0  0  0  0
  150.1745  139.1142  157.1692 H   0  0  0  0  0  0  0  0  0  0  0  0
  151.6437  141.6050  156.2139 H   0  0  0  0  0  0  0  0  0  0  0  0
  151.9394  140.6942  157.7015 H   0  0  0  0  0  0  0  0  0  0  0  0
  151.8581  138.0392  154.9961 H   0  0  0  0  0  0  0  0  0  0  0  0
  152.1289  139.3882  153.9017 H   0  0  0  0  0  0  0  0  0  0  0  0
  149.4008  137.5770  155.4772 H   0  0  0  0  0  0  0  0  0  0  0  0
  149.5384  137.9382  153.7650 H   0  0  0  0  0  0  0  0  0  0  0  0
  145.1556  136.1807  156.8685 H   0  0  0  0  0  0  0  0  0  0  0  0
  1  2  1  0  0  0  0
  1 28  1  0  0  0  0
  1 29  1  0  0  0  0
  1 30  1  0  0  0  0
  2  6  1  0  0  0  0
  2  3  1  0  0  0  0
  2 31  1  0  0  0  0
  3  4  1  0  0  0  0
  4  5  1  0  0  0  0
  4 32  1  0  0  0  0
  4 33  1  0  0  0  0
  5  6  1  0  0  0  0
  5 34  1  0  0  0  0
  5 35  1  0  0  0  0
  6  7  1  0  0  0  0
  6  8  1  0  0  0  0
  7 36  1  0  0  0  0
  8  9  1  0  0  0  0
  8 37  1  0  0  0  0
  8 38  1  0  0  0  0
  9 27  1  0  0  0  0
  9 10  1  0  0  0  0
 10 11  2  0  0  0  0
 10 39  1  0  0  0  0
 11 12  1  0  0  0  0
 12 27  2  0  0  0  0
 12 13  1  0  0  0  0
 13 14  1  0  0  0  0
 13 24  2  0  0  0  0
 14 23  1  0  0  0  0
 14 15  1  0  0  0  0
 15 16  1  0  0  0  0
 15 40  1  0  0  0  0
 15 41  1  0  0  0  0
 16 17  1  0  0  0  0
 16 42  1  0  0  0  0
 16 43  1  0  0  0  0
 17 18  1  0  0  0  0
 18 22  1  0  0  0  0
 18 19  1  0  0  0  0
 18 23  1  0  0  0  0
 19 20  1  0  0  0  0
 19 44  1  0  0  0  0
 19 45  1  0  0  0  0
 20 21  1  0  0  0  0
 20 46  1  0  0  0  0
 20 47  1  0  0  0  0
 21 22  1  0  0  0  0
 22 48  1  0  0  0  0
 22 49  1  0  0  0  0
 23 50  1  0  0  0  0
 23 51  1  0  0  0  0
 24 25  1  0  0  0  0
 25 26  2  0  0  0  0
 25 52  1  0  0  0  0
 26 27  1  0  0  0  0
M  END
> <s_m_source_file>
AV-unprocessed.smi

> <i_m_source_file_index>
264

> <i_lp_mmshare_version>
43012

> <i_f3d_flags>
0

> <s_epik_input>
W0NIMl0xW0NIMl1PW0NAQEhdKFtDSDNdKVtDQEBdMShbT0hdKVtDSDJdbihbY0hdbjIpYyhjMjMpbltjSF1uYzNOKFtDSDJdNClbQ0gyXVtDSDJdT1tDQF00NVtDSDJdW0NIMl1PW0NIMl01

> <s_epik_cmdline>
J2VwaWtfcHl0aG9uJywgJy1waCcsICc3LjAnLCAnLXRuJywgJzgnLCAnLW1hJywgJzIwMCcsICctbWV0YWxfYmluZGluZycsICctaW1hZScsICc8aW5maWxlLm1hZT4nLCAnLW9tYWUnLCAnPG91dGZpbGUubWFlPic=

> <r_lp_tautomer_probability>
1

> <r_epik_Ionization_Penalty>
0.00539389

> <r_epik_Ionization_Penalty_Charging>
0

> <r_epik_Ionization_Penalty_Neutral>
0.00539389

> <r_epik_State_Penalty>
0.00375441

> <r_epik_Charging_Adjusted_Penalty>
0.00375441

> <i_epik_Tot_Q>
0

> <i_epik_Tot_abs_Q>
0

> <r_epik_Metal_State_Penalty>
-0

> <b_epik_Metal_Only>
0

> <s_lp_Force_Field>
OPLS_2005

> <r_lp_Energy>
54.0321

> <b_lp_Chiralities_Consistent>
1

> <s_lp_Variant>
AV-unprocessed.smi:264-8

> <Gold.Version>
5.8.1

> <Gold.Id.Protein>
6NUR|6NUR_protein|mol2

> <Gold.PLP.Fitness>
43.8901

> <Gold.PLP.PLP>
-35.5754

> <Gold.PLP.part.hbond>
-3.6010

> <Gold.PLP.part.metal>
0.0000

> <Gold.PLP.part.buried>
-3.0272

> <Gold.PLP.part.nonpolar>
-31.4002

> <Gold.PLP.part.repulsive>
2.7451

> <Gold.PLP.ligand.clash>
0.0000

> <Gold.PLP.ligand.torsion>
1.0089

> <Gold.PLP.Chemscore.Hbond>
2.7200

> <Gold.PLP.Chemscore.CHOScore>
0.6304

> <Gold.PLP.Chemscore.Metal>
0.0000

> <Gold.Chemscore.Hbonds>
donor molecule, donor type, donor heavy atom, donor atom, acceptor molecule, acceptor atom, score
      L1  H     7    36       P1  7921  1.00
      P1  H  7989  7998       L1    17  0.72
      P1  H  7997  8010       L1    21  1.00
      L1  C    10    39       P1 10171  0.59

> <Gold.PLP.Chemscore.Internal.Correction>
0.2811

> <Gold.Rescore>
     Score         DG    S(hbond)    S(metal)    S(lipo)     H(rot)  DE(clash)    DE(int)     intcor
     13.01     -18.63       2.62        0.00      83.83       2.11       1.60       4.03       ----

> <Gold.Chemscore.Fitness>
13.0081

> <Gold.Chemscore.DG>
-18.6342

> <Gold.Chemscore.ZeroCoef>
-5.4800

> <Gold.Chemscore.Hbond>
2.6161

> <Gold.Chemscore.Metal>
0.0000

> <Gold.Chemscore.Lipo>
83.8338

> <Gold.Chemscore.Internal_Hbond>
0.0000

> <Gold.Chemscore.DEClash>
1.5959

> <Gold.Chemscore.DEInternal>
4.0302

> <Gold.Chemscore.Rot>
2.1063

> <Gold.Chemscore.Internal.Correction>
   9.000000E+99

> <Gold.Chemscore.Hbonds>
donor molecule, donor type, donor heavy atom, donor atom, acceptor molecule, acceptor atom, score
      L1  H     7    36       P1  7921  0.93
      P1  H  7989  7998       L1    17  0.29
      P1  H  7997  8010       L1    21  0.85

> <Gold.Chemscore.Hbond.Weighted>
-8.7378

> <Gold.Chemscore.Metal.Weighted>
-0.0000

> <Gold.Chemscore.Lipo.Weighted>
-9.8086

> <Gold.Chemscore.Internal_Hbond.Weighted>
0.0000

> <Gold.Chemscore.DEClash.Weighted>
1.5959

> <Gold.Chemscore.DEInternal.Weighted>
4.0302

> <Gold.Chemscore.Rot.Weighted>
5.3921

> <Gold.Chemscore.Internal.Correction.Weighted>
   9.000000E+99

> <Gold.Protein.RotatedTorsions>
[ 6907 6896 6895 6894 ] final    4.08 input  -60.11 | X-H torsion
[ 7974 7965 7964 7962 ] final  -47.29 input  175.53 | X-H torsion
[ 8008 7997 7996 7995 ] final   87.22 input   59.86 | X-H torsion
[ 10167 10162 10161 10158 ] final -144.90 input  -65.29 | X-H torsion
[ 10718 10713 10712 10709 ] final  -24.57 input   66.30 | X-H torsion
[ 10763 10752 10751 10750 ] final -129.53 input  -60.55 | X-H torsion
[ 11005 11000 10999 10996 ] final   20.25 input  -57.11 | X-H torsion

> <Gold.Protein.ActiveResidues>
 VAL166  LYS551  ARG553  GLY616  TRP617  ASP618  TYR619  PRO620  LYS621  CYS622 
 ASP623  PHE694  ASN695  SER759  ASP760  ASP761  ALA762  ILE779  LEU786  VAL792 
 PHE793  MET794  SER795  GLU796  ALA797  LYS798  CYS799  TRP800  GLU811  SER814 

> <Gold.Protein.RotatedAtoms>
  151.6355  135.1018  160.0130 H   0  0  0  0  0  0  0  0  0  0  0  0  # atno 6907 bound_to 6896
  152.4083  133.6918  159.6383 H   0  0  0  0  0  0  0  0  0  0  0  0  # atno 6908 bound_to 6896
  150.7975  133.8587  159.3267 H   0  0  0  0  0  0  0  0  0  0  0  0  # atno 6909 bound_to 6896
  145.9631  140.7459  142.9447 H   0  0  0  0  0  0  0  0  0  0  0  0  # atno 7974 bound_to 7965
  155.9727  140.3384  155.6590 H   0  0  0  0  0  0  0  0  0  0  0  0  # atno 8008 bound_to 7997
  155.6653  140.0721  157.2557 H   0  0  0  0  0  0  0  0  0  0  0  0  # atno 8009 bound_to 7997
  154.4170  140.1701  156.1808 H   0  0  0  0  0  0  0  0  0  0  0  0  # atno 8010 bound_to 7997
  139.7856  143.8039  152.2644 H   0  0  0  0  0  0  0  0  0  0  0  0  # atno 10167 bound_to 10162
  156.4759  130.4534  149.6841 H   0  0  0  0  0  0  0  0  0  0  0  0  # atno 10718 bound_to 10713
  154.8757  135.3892  154.3935 H   0  0  0  0  0  0  0  0  0  0  0  0  # atno 10763 bound_to 10752
  153.4668  135.7029  153.6022 H   0  0  0  0  0  0  0  0  0  0  0  0  # atno 10764 bound_to 10752
  153.4497  135.3837  155.2245 H   0  0  0  0  0  0  0  0  0  0  0  0  # atno 10765 bound_to 10752
  140.4047  134.1681  155.7665 H   0  0  0  0  0  0  0  0  0  0  0  0  # atno 11005 bound_to 11000
  144.6819  140.2624  143.7317 LP  0  0  0  0  0  0  0  0  0  0  0  0  # atno 17320 bound_to 7965
  145.8012  139.1965  143.2047 LP  0  0  0  0  0  0  0  0  0  0  0  0  # atno 17321 bound_to 7965
  139.8114  144.7334  150.9692 LP  0  0  0  0  0  0  0  0  0  0  0  0  # atno 17342 bound_to 10162
  140.7819  143.4247  151.0787 LP  0  0  0  0  0  0  0  0  0  0  0  0  # atno 17343 bound_to 10162
  156.3570  130.7462  151.2429 LP  0  0  0  0  0  0  0  0  0  0  0  0  # atno 17370 bound_to 10713
  157.7487  131.0361  150.4393 LP  0  0  0  0  0  0  0  0  0  0  0  0  # atno 17371 bound_to 10713
  141.1844  133.8345  157.1142 LP  0  0  0  0  0  0  0  0  0  0  0  0  # atno 17394 bound_to 11000
  140.0311  134.9901  157.0782 LP  0  0  0  0  0  0  0  0  0  0  0  0  # atno 17395 bound_to 11000

$$$$
