AV-unprocessed.smi:372|AV-procd|sdf|2445|dock10
  -GOLD-   2262022383D 1   1.00000     0.00000
 Structure written by MMmdl.
 22 23  0  0  0  0  0  0  0  0  2 V2000
  150.4707  139.3712  154.3145 C   0  0  0  0  0  0  0  0  0  0  0  0
  151.2085  139.0309  155.6254 C   0  0  1  0  0  0  0  0  0  0  0  0
  151.3510  140.2656  156.5360 C   0  0  0  0  0  0  0  0  0  0  0  0
  151.8667  140.1719  157.8534 C   0  0  0  0  0  0  0  0  0  0  0  0
  151.9672  141.3410  158.6316 C   0  0  0  0  0  0  0  0  0  0  0  0
  151.5497  142.5652  158.0783 C   0  0  0  0  0  0  0  0  0  0  0  0
  151.0459  142.5640  156.7642 C   0  0  0  0  0  0  0  0  0  0  0  0
  150.9441  141.4486  156.0120 N   0  0  0  0  0  0  0  0  0  0  0  0
  150.5277  137.9249  156.2720 N   0  0  0  0  0  0  0  0  0  0  0  0
  151.3234  136.8672  156.4122 C   0  0  0  0  0  0  0  0  0  0  0  0
  150.9392  135.8385  156.9638 O   0  0  0  0  0  0  0  0  0  0  0  0
  152.5304  137.1207  155.8730 N   0  5  0  0  0  0  0  0  0  0  0  0
  152.5714  138.3676  155.3539 C   0  0  0  0  0  0  0  0  0  0  0  0
  153.4778  138.9327  154.7419 O   0  0  0  0  0  0  0  0  0  0  0  0
  150.9902  140.1476  153.7519 H   0  0  0  0  0  0  0  0  0  0  0  0
  149.4615  139.7312  154.5164 H   0  0  0  0  0  0  0  0  0  0  0  0
  150.3854  138.5000  153.6633 H   0  0  0  0  0  0  0  0  0  0  0  0
  152.1870  139.2313  158.2750 H   0  0  0  0  0  0  0  0  0  0  0  0
  152.3585  141.2984  159.6373 H   0  0  0  0  0  0  0  0  0  0  0  0
  151.6137  143.4815  158.6460 H   0  0  0  0  0  0  0  0  0  0  0  0
  150.7141  143.4835  156.3050 H   0  0  0  0  0  0  0  0  0  0  0  0
  149.5753  137.9770  156.6013 H   0  0  0  0  0  0  0  0  0  0  0  0
  1  2  1  0  0  0  0
  1 15  1  0  0  0  0
  1 16  1  0  0  0  0
  1 17  1  0  0  0  0
  2 13  1  0  0  0  0
  2  3  1  0  0  0  0
  2  9  1  0  0  0  0
  3  8  1  0  0  0  0
  3  4  2  0  0  0  0
  4  5  1  0  0  0  0
  4 18  1  0  0  0  0
  5  6  2  0  0  0  0
  5 19  1  0  0  0  0
  6  7  1  0  0  0  0
  6 20  1  0  0  0  0
  7  8  2  0  0  0  0
  7 21  1  0  0  0  0
  9 10  1  0  0  0  0
  9 22  1  0  0  0  0
 10 11  2  0  0  0  0
 10 12  1  0  0  0  0
 12 13  1  0  0  0  0
 13 14  2  0  0  0  0
M  CHG  1  12  -1
M  END
> <s_m_source_file>
AV-unprocessed.smi

> <i_m_source_file_index>
372

> <i_lp_mmshare_version>
43012

> <i_f3d_flags>
0

> <s_epik_input>
Tz1DMVtOSF1DKD1PKVtOSF1bQ0BAXTEoW0NIM10pYzJbY0hdW2NIXVtjSF1bY0hdbjI=

> <s_epik_cmdline>
J2VwaWtfcHl0aG9uJywgJy1waCcsICc3LjAnLCAnLXRuJywgJzgnLCAnLW1hJywgJzIwMCcsICctbWV0YWxfYmluZGluZycsICctaW1hZScsICc8aW5maWxlLm1hZT4nLCAnLW9tYWUnLCAnPG91dGZpbGUubWFlPic=

> <r_epik_Ionization_Penalty>
1.82492

> <r_epik_Ionization_Penalty_Charging>
1.82122

> <r_epik_Ionization_Penalty_Neutral>
0.00370144

> <r_epik_State_Penalty>
1.71448

> <r_epik_Charging_Adjusted_Penalty>
3.5357

> <i_epik_Tot_Q>
-1

> <i_epik_Tot_abs_Q>
1

> <r_epik_Metal_State_Penalty>
0.405927

> <b_epik_Metal_Only>
0

> <s_lp_Force_Field>
OPLS_2005

> <r_lp_Energy>
9.53623

> <b_lp_Chiralities_Consistent>
1

> <s_lp_Variant>
AV-unprocessed.smi:372-3

> <Gold.Version>
5.8.1

> <Gold.Id.Protein>
6NUR|6NUR_protein|mol2

> <Gold.PLP.Fitness>
33.0182

> <Gold.PLP.PLP>
-22.4940

> <Gold.PLP.part.hbond>
-2.0948

> <Gold.PLP.part.metal>
0.0000

> <Gold.PLP.part.buried>
-3.3871

> <Gold.PLP.part.nonpolar>
-16.8051

> <Gold.PLP.part.repulsive>
0.0846

> <Gold.PLP.ligand.clash>
0.0000

> <Gold.PLP.ligand.torsion>
0.1306

> <Gold.PLP.Chemscore.Hbond>
2.5680

> <Gold.PLP.Chemscore.CHOScore>
1.0000

> <Gold.PLP.Chemscore.Metal>
0.0000

> <Gold.Chemscore.Hbonds>
donor molecule, donor type, donor heavy atom, donor atom, acceptor molecule, acceptor atom, score
      P1  H  7997  8010       L1    14  1.00
      P1  H 10752 10764       L1    12  1.54
      L1  C     7    21       P1  8028  1.00

> <Gold.PLP.Chemscore.Internal.Correction>
0.0815

> <Gold.Rescore>
     Score         DG    S(hbond)    S(metal)    S(lipo)     H(rot)  DE(clash)    DE(int)     intcor
     14.35     -14.41       1.67        0.00      50.44       1.00       0.00       0.05       ----

> <Gold.Chemscore.Fitness>
14.3532

> <Gold.Chemscore.DG>
-14.4076

> <Gold.Chemscore.ZeroCoef>
-5.4800

> <Gold.Chemscore.Hbond>
1.6725

> <Gold.Chemscore.Metal>
0.0000

> <Gold.Chemscore.Lipo>
50.4412

> <Gold.Chemscore.Internal_Hbond>
0.0000

> <Gold.Chemscore.DEClash>
0.0000

> <Gold.Chemscore.DEInternal>
0.0544

> <Gold.Chemscore.Rot>
1.0000

> <Gold.Chemscore.Internal.Correction>
   9.000000E+99

> <Gold.Chemscore.Hbonds>
donor molecule, donor type, donor heavy atom, donor atom, acceptor molecule, acceptor atom, score
      P1  H  7997  8010       L1    14  0.69
      P1  H 10752 10764       L1    12  0.50

> <Gold.Chemscore.Hbond.Weighted>
-5.5860

> <Gold.Chemscore.Metal.Weighted>
-0.0000

> <Gold.Chemscore.Lipo.Weighted>
-5.9016

> <Gold.Chemscore.Internal_Hbond.Weighted>
0.0000

> <Gold.Chemscore.DEClash.Weighted>
0.0000

> <Gold.Chemscore.DEInternal.Weighted>
0.0544

> <Gold.Chemscore.Rot.Weighted>
2.5600

> <Gold.Chemscore.Internal.Correction.Weighted>
   9.000000E+99

> <Gold.Protein.RotatedTorsions>
[ 6907 6896 6895 6894 ] final -174.02 input  -60.11 | X-H torsion
[ 7974 7965 7964 7962 ] final  113.90 input  175.53 | X-H torsion
[ 8008 7997 7996 7995 ] final   99.21 input   59.86 | X-H torsion
[ 10167 10162 10161 10158 ] final -165.81 input  -65.29 | X-H torsion
[ 10718 10713 10712 10709 ] final  126.51 input   66.30 | X-H torsion
[ 10763 10752 10751 10750 ] final  -29.83 input  -60.55 | X-H torsion
[ 11005 11000 10999 10996 ] final   37.65 input  -57.11 | X-H torsion

> <Gold.Protein.ActiveResidues>
 VAL166  LYS551  ARG553  GLY616  TRP617  ASP618  TYR619  PRO620  LYS621  CYS622 
 ASP623  PHE694  ASN695  SER759  ASP760  ASP761  ALA762  ILE779  LEU786  VAL792 
 PHE793  MET794  SER795  GLU796  ALA797  LYS798  CYS799  TRP800  GLU811  SER814 

> <Gold.Protein.RotatedAtoms>
  151.5656  133.3397  159.2979 H   0  0  0  0  0  0  0  0  0  0  0  0  # atno 6907 bound_to 6896
  150.8397  134.7687  159.6933 H   0  0  0  0  0  0  0  0  0  0  0  0  # atno 6908 bound_to 6896
  152.4467  134.5487  159.9912 H   0  0  0  0  0  0  0  0  0  0  0  0  # atno 6909 bound_to 6896
  145.2111  139.2906  143.4268 H   0  0  0  0  0  0  0  0  0  0  0  0  # atno 7974 bound_to 7965
  156.1082  140.3232  155.8035 H   0  0  0  0  0  0  0  0  0  0  0  0  # atno 8008 bound_to 7997
  155.4720  140.0547  157.2995 H   0  0  0  0  0  0  0  0  0  0  0  0  # atno 8009 bound_to 7997
  154.4742  140.2025  155.9935 H   0  0  0  0  0  0  0  0  0  0  0  0  # atno 8010 bound_to 7997
  139.6157  144.0725  152.1885 H   0  0  0  0  0  0  0  0  0  0  0  0  # atno 10167 bound_to 10162
  157.5412  131.1097  150.8855 H   0  0  0  0  0  0  0  0  0  0  0  0  # atno 10718 bound_to 10713
  153.7710  135.6912  153.4906 H   0  0  0  0  0  0  0  0  0  0  0  0  # atno 10763 bound_to 10752
  153.1874  135.4483  155.0105 H   0  0  0  0  0  0  0  0  0  0  0  0  # atno 10764 bound_to 10752
  154.8118  135.3381  154.7219 H   0  0  0  0  0  0  0  0  0  0  0  0  # atno 10765 bound_to 10752
  140.2204  134.3648  155.8007 H   0  0  0  0  0  0  0  0  0  0  0  0  # atno 11005 bound_to 11000
  146.3397  140.2387  142.8595 LP  0  0  0  0  0  0  0  0  0  0  0  0  # atno 17320 bound_to 7965
  144.9855  140.8499  143.5371 LP  0  0  0  0  0  0  0  0  0  0  0  0  # atno 17321 bound_to 7965
  140.0354  144.6049  150.7454 LP  0  0  0  0  0  0  0  0  0  0  0  0  # atno 17342 bound_to 10162
  140.7349  143.2735  151.3815 LP  0  0  0  0  0  0  0  0  0  0  0  0  # atno 17343 bound_to 10162
  156.9407  130.5383  149.5280 LP  0  0  0  0  0  0  0  0  0  0  0  0  # atno 17370 bound_to 10713
  156.0498  130.5569  150.8964 LP  0  0  0  0  0  0  0  0  0  0  0  0  # atno 17371 bound_to 10713
  141.2223  133.7190  156.8566 LP  0  0  0  0  0  0  0  0  0  0  0  0  # atno 17394 bound_to 11000
  140.1856  134.9002  157.3000 LP  0  0  0  0  0  0  0  0  0  0  0  0  # atno 17395 bound_to 11000

$$$$
