AV-unprocessed.smi:1742|AV-procd|sdf|7021|dock6
  -GOLD-   22720 8243D 1   1.00000     0.00000
 Structure written by MMmdl.
 34 35  0  0  0  0  0  0  0  0  1 V2000
  147.1061  129.5854  152.8744 C   0  0  0  0  0  0  0  0  0  0  0  0
  148.5540  129.5898  153.3780 C   0  0  0  0  0  0  0  0  0  0  0  0
  148.9340  130.8864  153.9034 N   0  0  0  0  0  0  0  0  0  0  0  0
  148.9995  132.0912  153.2324 C   0  0  0  0  0  0  0  0  0  0  0  0
  149.3992  133.0103  154.1609 C   0  0  0  0  0  0  0  0  0  0  0  0
  149.6263  134.4014  154.0096 N   0  0  0  0  0  0  0  0  0  0  0  0
  150.4512  135.1804  154.7353 C   0  0  0  0  0  0  0  0  0  0  0  0
  151.1515  134.7782  155.6623 O   0  0  0  0  0  0  0  0  0  0  0  0
  150.4658  136.4728  154.3632 N   0  0  0  0  0  0  0  0  0  0  0  0
  151.2415  137.5746  154.9345 C   0  0  1  0  0  0  0  0  0  0  0  0
  150.5971  138.9315  154.5937 C   0  0  0  0  0  0  0  0  0  0  0  0
  151.2073  140.0117  155.4958 C   0  0  0  0  0  0  0  0  0  0  0  0
  151.6649  139.1721  157.0598 S   0  0  0  0  0  0  0  0  0  0  0  0
  153.1089  139.3390  157.2835 O   0  0  0  0  0  0  0  0  0  0  0  0
  150.6912  139.5131  158.1079 O   0  0  0  0  0  0  0  0  0  0  0  0
  151.3348  137.4713  156.4655 C   0  0  0  0  0  0  0  0  0  0  0  0
  149.5567  132.2912  155.3742 C   0  0  0  0  0  0  0  0  0  0  0  0
  149.2716  131.0080  155.2111 N   0  0  0  0  0  0  0  0  0  0  0  0
  146.8407  128.6100  152.4667 H   0  0  0  0  0  0  0  0  0  0  0  0
  146.9610  130.3259  152.0874 H   0  0  0  0  0  0  0  0  0  0  0  0
  146.4073  129.8107  153.6805 H   0  0  0  0  0  0  0  0  0  0  0  0
  148.6878  128.8380  154.1572 H   0  0  0  0  0  0  0  0  0  0  0  0
  149.2355  129.3304  152.5669 H   0  0  0  0  0  0  0  0  0  0  0  0
  148.7595  132.1755  152.1829 H   0  0  0  0  0  0  0  0  0  0  0  0
  149.1084  134.8533  153.2702 H   0  0  0  0  0  0  0  0  0  0  0  0
  149.8761  136.7159  153.5803 H   0  0  0  0  0  0  0  0  0  0  0  0
  152.2505  137.5793  154.5178 H   0  0  0  0  0  0  0  0  0  0  0  0
  150.7113  139.1817  153.5386 H   0  0  0  0  0  0  0  0  0  0  0  0
  149.5255  138.8799  154.7927 H   0  0  0  0  0  0  0  0  0  0  0  0
  152.1175  140.4174  155.0536 H   0  0  0  0  0  0  0  0  0  0  0  0
  150.5210  140.8348  155.6958 H   0  0  0  0  0  0  0  0  0  0  0  0
  150.3870  137.1473  156.8969 H   0  0  0  0  0  0  0  0  0  0  0  0
  152.1200  136.7963  156.8063 H   0  0  0  0  0  0  0  0  0  0  0  0
  149.8610  132.6487  156.3468 H   0  0  0  0  0  0  0  0  0  0  0  0
  1  2  1  0  0  0  0
  1 19  1  0  0  0  0
  1 20  1  0  0  0  0
  1 21  1  0  0  0  0
  2  3  1  0  0  0  0
  2 22  1  0  0  0  0
  2 23  1  0  0  0  0
  3 18  1  0  0  0  0
  3  4  1  0  0  0  0
  4  5  2  0  0  0  0
  4 24  1  0  0  0  0
  5  6  1  0  0  0  0
  5 17  1  0  0  0  0
  6  7  1  0  0  0  0
  6 25  1  0  0  0  0
  7  8  2  0  0  0  0
  7  9  1  0  0  0  0
  9 10  1  0  0  0  0
  9 26  1  0  0  0  0
 10 16  1  0  0  0  0
 10 11  1  0  0  0  0
 10 27  1  0  0  0  0
 11 12  1  0  0  0  0
 11 28  1  0  0  0  0
 11 29  1  0  0  0  0
 12 13  1  0  0  0  0
 12 30  1  0  0  0  0
 12 31  1  0  0  0  0
 13 14  2  0  0  0  0
 13 15  2  0  0  0  0
 13 16  1  0  0  0  0
 16 32  1  0  0  0  0
 16 33  1  0  0  0  0
 17 18  2  0  0  0  0
 17 34  1  0  0  0  0
M  END
> <s_m_source_file>
AV-unprocessed.smi

> <i_m_source_file_index>
1742

> <i_lp_mmshare_version>
43012

> <i_f3d_flags>
0

> <s_epik_input>
W0NIM11bQ0gyXW4xW2NIXWMoW2NIXW4xKVtOSF1DKD1PKVtOSF1bQ0BASF0oW0NIMl0yKVtDSDJdW0NIMl1TMig9Tyk9Tw==

> <s_epik_cmdline>
J2VwaWtfcHl0aG9uJywgJy1waCcsICc3LjAnLCAnLXRuJywgJzgnLCAnLW1hJywgJzIwMCcsICctbWV0YWxfYmluZGluZycsICctaW1hZScsICc8aW5maWxlLm1hZT4nLCAnLW9tYWUnLCAnPG91dGZpbGUubWFlPic=

> <r_lp_tautomer_probability>
1

> <r_epik_Ionization_Penalty>
0.000152028

> <r_epik_Ionization_Penalty_Charging>
0

> <r_epik_Ionization_Penalty_Neutral>
0.000152028

> <r_epik_State_Penalty>
-0

> <r_epik_Charging_Adjusted_Penalty>
0

> <i_epik_Tot_Q>
0

> <i_epik_Tot_abs_Q>
0

> <r_epik_Metal_State_Penalty>
-0

> <b_epik_Metal_Only>
0

> <s_lp_Force_Field>
OPLS_2005

> <r_lp_Energy>
18.8672

> <b_lp_Chiralities_Consistent>
1

> <s_lp_Variant>
AV-unprocessed.smi:1742-2

> <Gold.Version>
5.8.1

> <Gold.Id.Protein>
6NUR|6NUR_protein|mol2

> <Gold.PLP.Fitness>
39.3937

> <Gold.PLP.PLP>
-28.4858

> <Gold.PLP.part.hbond>
-4.3990

> <Gold.PLP.part.metal>
0.0000

> <Gold.PLP.part.buried>
-2.3554

> <Gold.PLP.part.nonpolar>
-22.9568

> <Gold.PLP.part.repulsive>
0.1480

> <Gold.PLP.ligand.clash>
0.0000

> <Gold.PLP.ligand.torsion>
0.4608

> <Gold.PLP.Chemscore.Hbond>
2.9420

> <Gold.PLP.Chemscore.CHOScore>
1.0000

> <Gold.PLP.Chemscore.Metal>
0.0000

> <Gold.Chemscore.Hbonds>
donor molecule, donor type, donor heavy atom, donor atom, acceptor molecule, acceptor atom, score
      L1  H     6    25       P1  7948  0.75
      L1  H     9    26       P1  7948  1.00
      P1  H  7997  8010       L1    14  1.00
      L1  C     4    24       P1 10747  1.00

> <Gold.PLP.Chemscore.Internal.Correction>
0.0036

> <Gold.Rescore>
     Score         DG    S(hbond)    S(metal)    S(lipo)     H(rot)  DE(clash)    DE(int)     intcor
     13.61     -15.93       2.24        0.00      52.89       1.26       0.05       2.28       ----

> <Gold.Chemscore.Fitness>
13.6099

> <Gold.Chemscore.DG>
-15.9308

> <Gold.Chemscore.ZeroCoef>
-5.4800

> <Gold.Chemscore.Hbond>
2.2385

> <Gold.Chemscore.Metal>
0.0000

> <Gold.Chemscore.Lipo>
52.8888

> <Gold.Chemscore.Internal_Hbond>
0.0000

> <Gold.Chemscore.DEClash>
0.0456

> <Gold.Chemscore.DEInternal>
2.2753

> <Gold.Chemscore.Rot>
1.2554

> <Gold.Chemscore.Internal.Correction>
   9.000000E+99

> <Gold.Chemscore.Hbonds>
donor molecule, donor type, donor heavy atom, donor atom, acceptor molecule, acceptor atom, score
      L1  H     6    25       P1  7948  0.09
      L1  H     9    26       P1  7948  0.32
      P1  H  7997  8010       L1    14  0.98

> <Gold.Chemscore.Hbond.Weighted>
-7.4767

> <Gold.Chemscore.Metal.Weighted>
-0.0000

> <Gold.Chemscore.Lipo.Weighted>
-6.1880

> <Gold.Chemscore.Internal_Hbond.Weighted>
0.0000

> <Gold.Chemscore.DEClash.Weighted>
0.0456

> <Gold.Chemscore.DEInternal.Weighted>
2.2753

> <Gold.Chemscore.Rot.Weighted>
3.2139

> <Gold.Chemscore.Internal.Correction.Weighted>
   9.000000E+99

> <Gold.Protein.RotatedTorsions>
[ 6907 6896 6895 6894 ] final -170.73 input  -60.11 | X-H torsion
[ 7974 7965 7964 7962 ] final   97.80 input  175.53 | X-H torsion
[ 8008 7997 7996 7995 ] final   53.28 input   59.86 | X-H torsion
[ 10167 10162 10161 10158 ] final  -19.63 input  -65.29 | X-H torsion
[ 10718 10713 10712 10709 ] final -150.39 input   66.30 | X-H torsion
[ 10763 10752 10751 10750 ] final  129.32 input  -60.55 | X-H torsion
[ 11005 11000 10999 10996 ] final  169.22 input  -57.11 | X-H torsion

> <Gold.Protein.ActiveResidues>
 VAL166  LYS551  ARG553  GLY616  TRP617  ASP618  TYR619  PRO620  LYS621  CYS622 
 ASP623  PHE694  ASN695  SER759  ASP760  ASP761  ALA762  ILE779  LEU786  VAL792 
 PHE793  MET794  SER795  GLU796  ALA797  LYS798  CYS799  TRP800  GLU811  SER814 

> <Gold.Protein.RotatedAtoms>
  151.5124  133.3482  159.2886 H   0  0  0  0  0  0  0  0  0  0  0  0  # atno 6907 bound_to 6896
  150.8704  134.8078  159.7161 H   0  0  0  0  0  0  0  0  0  0  0  0  # atno 6908 bound_to 6896
  152.4694  134.5007  159.9775 H   0  0  0  0  0  0  0  0  0  0  0  0  # atno 6909 bound_to 6896
  145.4207  139.2322  143.3197 H   0  0  0  0  0  0  0  0  0  0  0  0  # atno 7974 bound_to 7965
  155.4657  140.3463  155.4319 H   0  0  0  0  0  0  0  0  0  0  0  0  # atno 8008 bound_to 7997
  156.1132  140.1466  156.9338 H   0  0  0  0  0  0  0  0  0  0  0  0  # atno 8009 bound_to 7997
  154.4771  140.0881  156.7267 H   0  0  0  0  0  0  0  0  0  0  0  0  # atno 8010 bound_to 7997
  140.7270  143.4800  151.0130 H   0  0  0  0  0  0  0  0  0  0  0  0  # atno 10167 bound_to 10162
  156.4455  130.8142  151.2373 H   0  0  0  0  0  0  0  0  0  0  0  0  # atno 10718 bound_to 10713
  153.7398  135.3226  155.3302 H   0  0  0  0  0  0  0  0  0  0  0  0  # atno 10763 bound_to 10752
  154.8299  135.4542  154.1038 H   0  0  0  0  0  0  0  0  0  0  0  0  # atno 10764 bound_to 10752
  153.2210  135.6948  153.8082 H   0  0  0  0  0  0  0  0  0  0  0  0  # atno 10765 bound_to 10752
  140.2954  134.7639  157.3873 H   0  0  0  0  0  0  0  0  0  0  0  0  # atno 11005 bound_to 11000
  146.2658  140.4931  142.8835 LP  0  0  0  0  0  0  0  0  0  0  0  0  # atno 17320 bound_to 7965
  144.8247  140.6608  143.6330 LP  0  0  0  0  0  0  0  0  0  0  0  0  # atno 17321 bound_to 7965
  139.8498  143.7453  152.3178 LP  0  0  0  0  0  0  0  0  0  0  0  0  # atno 17342 bound_to 10162
  139.7631  144.7500  151.0334 LP  0  0  0  0  0  0  0  0  0  0  0  0  # atno 17343 bound_to 10162
  157.7505  131.0154  150.3505 LP  0  0  0  0  0  0  0  0  0  0  0  0  # atno 17370 bound_to 10713
  156.3872  130.3891  149.7057 LP  0  0  0  0  0  0  0  0  0  0  0  0  # atno 17371 bound_to 10713
  140.1157  134.5286  155.8227 LP  0  0  0  0  0  0  0  0  0  0  0  0  # atno 17394 bound_to 11000
  141.2138  133.6739  156.6772 LP  0  0  0  0  0  0  0  0  0  0  0  0  # atno 17395 bound_to 11000

$$$$
