AV-unprocessed.smi:1915|AV-procd|sdf|7763|dock9
  -GOLD-   22720 9503D 1   1.00000     0.00000
 Structure written by MMmdl.
 45 46  0  0  0  0  0  0  0  0  2 V2000
  152.8648  142.7290  160.1994 C   0  0  0  0  0  0  0  0  0  0  0  0
  152.4879  142.8098  158.7100 C   0  0  0  0  0  0  0  0  0  0  0  0
  152.5364  144.2663  158.2245 C   0  0  0  0  0  0  0  0  0  0  0  0
  151.1136  142.1798  158.3899 C   0  0  0  0  0  0  0  0  0  0  0  0
  151.0990  141.4436  157.1257 N   0  0  0  0  0  0  0  0  0  0  0  0
  150.2126  141.8496  156.0466 C   0  0  0  0  0  0  0  0  0  0  0  0
  150.2639  140.7071  155.0089 C   0  0  2  0  0  0  0  0  0  0  0  0
  148.9521  139.9101  154.9422 C   0  0  0  0  0  0  0  0  0  0  0  0
  148.6438  139.1462  155.8580 O   0  0  0  0  0  0  0  0  0  0  0  0
  148.2000  140.0825  153.8435 N   0  0  0  0  0  0  0  0  0  0  0  0
  146.9262  139.4185  153.5750 C   0  0  0  0  0  0  0  0  0  0  0  0
  146.7791  138.9609  152.1092 C   0  0  0  0  0  0  0  0  0  0  0  0
  145.6997  137.9137  151.8936 C   0  0  0  0  0  0  0  0  0  0  0  0
  145.9916  136.6413  151.3568 C   0  0  0  0  0  0  0  0  0  0  0  0
  144.9406  135.7254  151.1434 C   0  0  0  0  0  0  0  0  0  0  0  0
  143.6211  136.0997  151.4718 C   0  0  0  0  0  0  0  0  0  0  0  0
  143.3860  137.3824  152.0065 C   0  0  0  0  0  0  0  0  0  0  0  0
  144.4193  138.2322  152.1950 N   0  3  0  0  0  0  0  0  0  0  0  0
  151.4357  139.8122  155.4567 C   0  0  0  0  0  0  0  0  0  0  0  0
  151.7865  140.3315  156.8403 C   0  0  0  0  0  0  0  0  0  0  0  0
  152.5911  139.7639  157.5774 O   0  0  0  0  0  0  0  0  0  0  0  0
  152.1097  143.2057  160.8250 H   0  0  0  0  0  0  0  0  0  0  0  0
  153.8160  143.2261  160.3906 H   0  0  0  0  0  0  0  0  0  0  0  0
  152.9732  141.6969  160.5313 H   0  0  0  0  0  0  0  0  0  0  0  0
  153.2458  142.2600  158.1502 H   0  0  0  0  0  0  0  0  0  0  0  0
  151.8033  144.8829  158.7459 H   0  0  0  0  0  0  0  0  0  0  0  0
  152.3275  144.3329  157.1564 H   0  0  0  0  0  0  0  0  0  0  0  0
  153.5203  144.7053  158.3926 H   0  0  0  0  0  0  0  0  0  0  0  0
  150.8065  141.5220  159.2049 H   0  0  0  0  0  0  0  0  0  0  0  0
  150.3549  142.9619  158.3409 H   0  0  0  0  0  0  0  0  0  0  0  0
  149.2056  142.0398  156.4224 H   0  0  0  0  0  0  0  0  0  0  0  0
  150.5798  142.7806  155.6128 H   0  0  0  0  0  0  0  0  0  0  0  0
  150.4758  141.1247  154.0232 H   0  0  0  0  0  0  0  0  0  0  0  0
  148.5290  140.7329  153.1443 H   0  0  0  0  0  0  0  0  0  0  0  0
  146.7884  138.5705  154.2481 H   0  0  0  0  0  0  0  0  0  0  0  0
  146.1288  140.1227  153.8132 H   0  0  0  0  0  0  0  0  0  0  0  0
  146.5542  139.8237  151.4813 H   0  0  0  0  0  0  0  0  0  0  0  0
  147.7316  138.5688  151.7497 H   0  0  0  0  0  0  0  0  0  0  0  0
  147.0063  136.3736  151.1004 H   0  0  0  0  0  0  0  0  0  0  0  0
  145.1440  134.7490  150.7286 H   0  0  0  0  0  0  0  0  0  0  0  0
  142.8018  135.4137  151.3130 H   0  0  0  0  0  0  0  0  0  0  0  0
  142.4096  137.7539  152.2817 H   0  0  0  0  0  0  0  0  0  0  0  0
  151.1875  138.7508  155.5004 H   0  0  0  0  0  0  0  0  0  0  0  0
  152.2956  139.9305  154.7966 H   0  0  0  0  0  0  0  0  0  0  0  0
  144.2245  139.1586  152.5750 H   0  0  0  0  0  0  0  0  0  0  0  0
  1  2  1  0  0  0  0
  1 22  1  0  0  0  0
  1 23  1  0  0  0  0
  1 24  1  0  0  0  0
  2  3  1  0  0  0  0
  2  4  1  0  0  0  0
  2 25  1  0  0  0  0
  3 26  1  0  0  0  0
  3 27  1  0  0  0  0
  3 28  1  0  0  0  0
  4  5  1  0  0  0  0
  4 29  1  0  0  0  0
  4 30  1  0  0  0  0
  5 20  1  0  0  0  0
  5  6  1  0  0  0  0
  6  7  1  0  0  0  0
  6 31  1  0  0  0  0
  6 32  1  0  0  0  0
  7  8  1  0  0  0  0
  7 19  1  0  0  0  0
  7 33  1  0  0  0  0
  8  9  2  0  0  0  0
  8 10  1  0  0  0  0
 10 11  1  0  0  0  0
 10 34  1  0  0  0  0
 11 12  1  0  0  0  0
 11 35  1  0  0  0  0
 11 36  1  0  0  0  0
 12 13  1  0  0  0  0
 12 37  1  0  0  0  0
 12 38  1  0  0  0  0
 13 18  1  0  0  0  0
 13 14  2  0  0  0  0
 14 15  1  0  0  0  0
 14 39  1  0  0  0  0
 15 16  2  0  0  0  0
 15 40  1  0  0  0  0
 16 17  1  0  0  0  0
 16 41  1  0  0  0  0
 17 18  2  0  0  0  0
 17 42  1  0  0  0  0
 18 45  1  0  0  0  0
 19 20  1  0  0  0  0
 19 43  1  0  0  0  0
 19 44  1  0  0  0  0
 20 21  2  0  0  0  0
M  CHG  1  18   1
M  END
> <s_m_source_file>
AV-unprocessed.smi

> <i_m_source_file_index>
1915

> <i_lp_mmshare_version>
43012

> <i_f3d_flags>
0

> <s_epik_input>
W0NIM11bQ0hdKFtDSDNdKVtDSDJdTjFbQ0gyXVtDQEhdKFtDSDJdQzE9TylDKD1PKVtOSF1bQ0gyXVtDSDJdYzJbY0hdW2NIXVtjSF1bY0hdbjI=

> <s_epik_cmdline>
J2VwaWtfcHl0aG9uJywgJy1waCcsICc3LjAnLCAnLXRuJywgJzgnLCAnLW1hJywgJzIwMCcsICctbWV0YWxfYmluZGluZycsICctaW1hZScsICc8aW5maWxlLm1hZT4nLCAnLW9tYWUnLCAnPG91dGZpbGUubWFlPic=

> <r_epik_Ionization_Penalty>
1.88249

> <r_epik_Ionization_Penalty_Charging>
1.88249

> <r_epik_Ionization_Penalty_Neutral>
3.64574e-08

> <r_epik_State_Penalty>
2.00238

> <r_epik_Charging_Adjusted_Penalty>
3.88487

> <i_epik_Tot_Q>
1

> <i_epik_Tot_abs_Q>
1

> <r_epik_Metal_State_Penalty>
2.02676

> <b_epik_Metal_Only>
0

> <s_lp_Force_Field>
OPLS_2005

> <r_lp_Energy>
20.6112

> <b_lp_Chiralities_Consistent>
1

> <s_lp_Variant>
AV-unprocessed.smi:1915-4

> <Gold.Version>
5.8.1

> <Gold.Id.Protein>
6NUR|6NUR_protein|mol2

> <Gold.PLP.Fitness>
49.6148

> <Gold.PLP.PLP>
-42.2855

> <Gold.PLP.part.hbond>
-3.9402

> <Gold.PLP.part.metal>
0.0000

> <Gold.PLP.part.buried>
4.9487

> <Gold.PLP.part.nonpolar>
-42.2990

> <Gold.PLP.part.repulsive>
0.0998

> <Gold.PLP.ligand.clash>
0.0000

> <Gold.PLP.ligand.torsion>
1.0314

> <Gold.PLP.Chemscore.Hbond>
3.1041

> <Gold.PLP.Chemscore.CHOScore>
0.0000

> <Gold.PLP.Chemscore.Metal>
0.0000

> <Gold.Chemscore.Hbonds>
donor molecule, donor type, donor heavy atom, donor atom, acceptor molecule, acceptor atom, score
      L1  H    10    34       P1  7957  0.08
      L1  H    18    45       P1 10175  1.37
      P1  H  7997  8010       L1    21  0.99

> <Gold.PLP.Chemscore.Internal.Correction>
0.0797

> <Gold.Rescore>
     Score         DG    S(hbond)    S(metal)    S(lipo)     H(rot)  DE(clash)    DE(int)     intcor
     16.90     -18.15       1.60        0.00     103.48       1.86       0.17       1.08       ----

> <Gold.Chemscore.Fitness>
16.9008

> <Gold.Chemscore.DG>
-18.1540

> <Gold.Chemscore.ZeroCoef>
-5.4800

> <Gold.Chemscore.Hbond>
1.5983

> <Gold.Chemscore.Metal>
0.0000

> <Gold.Chemscore.Lipo>
103.4774

> <Gold.Chemscore.Internal_Hbond>
0.0000

> <Gold.Chemscore.DEClash>
0.1716

> <Gold.Chemscore.DEInternal>
1.0815

> <Gold.Chemscore.Rot>
1.8638

> <Gold.Chemscore.Internal.Correction>
   9.000000E+99

> <Gold.Chemscore.Hbonds>
donor molecule, donor type, donor heavy atom, donor atom, acceptor molecule, acceptor atom, score
      L1  H    10    34       P1  7957  0.09
      L1  H    18    45       P1 10175  0.65
      P1  H  7997  8010       L1    21  0.36

> <Gold.Chemscore.Hbond.Weighted>
-5.3385

> <Gold.Chemscore.Metal.Weighted>
-0.0000

> <Gold.Chemscore.Lipo.Weighted>
-12.1069

> <Gold.Chemscore.Internal_Hbond.Weighted>
0.0000

> <Gold.Chemscore.DEClash.Weighted>
0.1716

> <Gold.Chemscore.DEInternal.Weighted>
1.0815

> <Gold.Chemscore.Rot.Weighted>
4.7713

> <Gold.Chemscore.Internal.Correction.Weighted>
   9.000000E+99

> <Gold.Protein.RotatedTorsions>
[ 6907 6896 6895 6894 ] final  158.79 input  -60.11 | X-H torsion
[ 7974 7965 7964 7962 ] final  125.59 input  175.53 | X-H torsion
[ 8008 7997 7996 7995 ] final   59.72 input   59.86 | X-H torsion
[ 10167 10162 10161 10158 ] final   -8.96 input  -65.29 | X-H torsion
[ 10718 10713 10712 10709 ] final  -90.81 input   66.30 | X-H torsion
[ 10763 10752 10751 10750 ] final -107.82 input  -60.55 | X-H torsion
[ 11005 11000 10999 10996 ] final -145.38 input  -57.11 | X-H torsion

> <Gold.Protein.ActiveResidues>
 VAL166  LYS551  ARG553  GLY616  TRP617  ASP618  TYR619  PRO620  LYS621  CYS622 
 ASP623  PHE694  ASN695  SER759  ASP760  ASP761  ALA762  ILE779  LEU786  VAL792 
 PHE793  MET794  SER795  GLU796  ALA797  LYS798  CYS799  TRP800  GLU811  SER814 

> <Gold.Protein.RotatedAtoms>
  151.9952  133.3805  159.4159 H   0  0  0  0  0  0  0  0  0  0  0  0  # atno 6907 bound_to 6896
  150.6916  134.3893  159.5078 H   0  0  0  0  0  0  0  0  0  0  0  0  # atno 6908 bound_to 6896
  152.1632  134.8894  160.0590 H   0  0  0  0  0  0  0  0  0  0  0  0  # atno 6909 bound_to 6896
  145.0713  139.3728  143.4956 H   0  0  0  0  0  0  0  0  0  0  0  0  # atno 7974 bound_to 7965
  155.5707  140.3490  155.4514 H   0  0  0  0  0  0  0  0  0  0  0  0  # atno 8008 bound_to 7997
  156.0446  140.1303  157.0143 H   0  0  0  0  0  0  0  0  0  0  0  0  # atno 8009 bound_to 7997
  154.4407  140.1017  156.6272 H   0  0  0  0  0  0  0  0  0  0  0  0  # atno 8010 bound_to 7997
  140.7074  143.5911  150.8893 H   0  0  0  0  0  0  0  0  0  0  0  0  # atno 10167 bound_to 10162
  155.9990  130.4924  150.5379 H   0  0  0  0  0  0  0  0  0  0  0  0  # atno 10718 bound_to 10713
  154.8099  135.4660  154.0488 H   0  0  0  0  0  0  0  0  0  0  0  0  # atno 10763 bound_to 10752
  153.1927  135.6857  153.8338 H   0  0  0  0  0  0  0  0  0  0  0  0  # atno 10764 bound_to 10752
  153.7850  135.3251  155.3348 H   0  0  0  0  0  0  0  0  0  0  0  0  # atno 10765 bound_to 10752
  140.7928  134.2948  157.5007 H   0  0  0  0  0  0  0  0  0  0  0  0  # atno 11005 bound_to 11000
  146.3529  140.0459  142.8639 LP  0  0  0  0  0  0  0  0  0  0  0  0  # atno 17320 bound_to 7965
  145.1289  140.9506  143.4556 LP  0  0  0  0  0  0  0  0  0  0  0  0  # atno 17321 bound_to 7965
  139.9636  143.6136  152.2995 LP  0  0  0  0  0  0  0  0  0  0  0  0  # atno 17342 bound_to 10162
  139.6697  144.7661  151.1806 LP  0  0  0  0  0  0  0  0  0  0  0  0  # atno 17343 bound_to 10162
  157.3319  131.0701  151.1854 LP  0  0  0  0  0  0  0  0  0  0  0  0  # atno 17370 bound_to 10713
  157.2732  130.6714  149.6029 LP  0  0  0  0  0  0  0  0  0  0  0  0  # atno 17371 bound_to 10713
  139.8729  134.9384  156.3714 LP  0  0  0  0  0  0  0  0  0  0  0  0  # atno 17394 bound_to 11000
  140.9372  133.7539  156.0100 LP  0  0  0  0  0  0  0  0  0  0  0  0  # atno 17395 bound_to 11000

$$$$
