AV-unprocessed.smi:2286|AV-procd|sdf|9204|dock7
  -GOLD-   2272012423D 1   1.00000     0.00000
 Structure written by MMmdl.
 46 47  0  0  0  0  0  0  0  0  1 V2000
  146.8538  132.5781  161.6598 C   0  0  0  0  0  0  0  0  0  0  0  0
  146.7781  134.0900  161.6160 C   0  0  0  0  0  0  0  0  0  0  0  0
  145.6679  134.7744  162.1465 C   0  0  0  0  0  0  0  0  0  0  0  0
  145.6583  136.1813  162.0756 C   0  0  0  0  0  0  0  0  0  0  0  0
  144.4978  136.9799  162.6304 C   0  0  0  0  0  0  0  0  0  0  0  0
  146.6626  136.8986  161.5276 N   0  0  0  0  0  0  0  0  0  0  0  0
  147.7368  136.2500  161.0132 C   0  0  0  0  0  0  0  0  0  0  0  0
  148.8454  136.9093  160.4191 N   0  0  0  0  0  0  0  0  0  0  0  0
  149.5474  136.5413  159.3328 C   0  0  0  0  0  0  0  0  0  0  0  0
  149.3559  135.5205  158.6707 O   0  0  0  0  0  0  0  0  0  0  0  0
  150.5027  137.4385  159.0468 N   0  0  0  0  0  0  0  0  0  0  0  0
  151.4442  137.3392  157.9342 C   0  0  0  0  0  0  0  0  0  0  0  0
  152.1139  138.6749  157.5897 C   0  0  0  0  0  0  0  0  0  0  0  0
  152.9220  138.7585  156.6633 O   0  0  0  0  0  0  0  0  0  0  0  0
  151.7804  139.7133  158.3714 N   0  0  0  0  0  0  0  0  0  0  0  0
  152.3059  141.0697  158.2481 C   0  0  0  0  0  0  0  0  0  0  0  0
  153.0870  141.4679  159.5184 C   0  0  0  0  0  0  0  0  0  0  0  0
  153.5749  142.9241  159.4487 C   0  0  0  0  0  0  0  0  0  0  0  0
  152.4098  143.8925  159.1918 C   0  0  0  0  0  0  0  0  0  0  0  0
  151.6378  143.5044  157.9214 C   0  0  0  0  0  0  0  0  0  0  0  0
  151.1450  142.0497  157.9911 C   0  0  0  0  0  0  0  0  0  0  0  0
  147.8238  134.8398  161.0407 C   0  0  0  0  0  0  0  0  0  0  0  0
  146.0249  132.1557  162.2289 H   0  0  0  0  0  0  0  0  0  0  0  0
  147.7851  132.2590  162.1282 H   0  0  0  0  0  0  0  0  0  0  0  0
  146.8185  132.1694  160.6496 H   0  0  0  0  0  0  0  0  0  0  0  0
  144.8460  134.2365  162.5964 H   0  0  0  0  0  0  0  0  0  0  0  0
  143.6341  136.3412  162.8175 H   0  0  0  0  0  0  0  0  0  0  0  0
  144.1971  137.7586  161.9286 H   0  0  0  0  0  0  0  0  0  0  0  0
  144.7833  137.4543  163.5695 H   0  0  0  0  0  0  0  0  0  0  0  0
  149.1251  137.7715  160.8625 H   0  0  0  0  0  0  0  0  0  0  0  0
  150.5965  138.2432  159.6487 H   0  0  0  0  0  0  0  0  0  0  0  0
  152.2049  136.5865  158.1495 H   0  0  0  0  0  0  0  0  0  0  0  0
  150.8991  136.9896  157.0574 H   0  0  0  0  0  0  0  0  0  0  0  0
  151.1109  139.5514  159.1097 H   0  0  0  0  0  0  0  0  0  0  0  0
  152.9806  141.1116  157.3905 H   0  0  0  0  0  0  0  0  0  0  0  0
  152.4519  141.3425  160.3965 H   0  0  0  0  0  0  0  0  0  0  0  0
  153.9420  140.8056  159.6599 H   0  0  0  0  0  0  0  0  0  0  0  0
  154.0814  143.1904  160.3768 H   0  0  0  0  0  0  0  0  0  0  0  0
  154.3146  143.0231  158.6533 H   0  0  0  0  0  0  0  0  0  0  0  0
  151.7335  143.8864  160.0475 H   0  0  0  0  0  0  0  0  0  0  0  0
  152.7862  144.9117  159.1019 H   0  0  0  0  0  0  0  0  0  0  0  0
  150.7913  144.1769  157.7812 H   0  0  0  0  0  0  0  0  0  0  0  0
  152.2812  143.6313  157.0498 H   0  0  0  0  0  0  0  0  0  0  0  0
  150.6360  141.7906  157.0619 H   0  0  0  0  0  0  0  0  0  0  0  0
  150.4022  141.9602  158.7853 H   0  0  0  0  0  0  0  0  0  0  0  0
  148.6854  134.3350  160.6276 H   0  0  0  0  0  0  0  0  0  0  0  0
  1  2  1  0  0  0  0
  1 23  1  0  0  0  0
  1 24  1  0  0  0  0
  1 25  1  0  0  0  0
  2 22  1  0  0  0  0
  2  3  2  0  0  0  0
  3  4  1  0  0  0  0
  3 26  1  0  0  0  0
  4  5  1  0  0  0  0
  4  6  2  0  0  0  0
  5 27  1  0  0  0  0
  5 28  1  0  0  0  0
  5 29  1  0  0  0  0
  6  7  1  0  0  0  0
  7  8  1  0  0  0  0
  7 22  2  0  0  0  0
  8  9  1  0  0  0  0
  8 30  1  0  0  0  0
  9 10  2  0  0  0  0
  9 11  1  0  0  0  0
 11 12  1  0  0  0  0
 11 31  1  0  0  0  0
 12 13  1  0  0  0  0
 12 32  1  0  0  0  0
 12 33  1  0  0  0  0
 13 14  2  0  0  0  0
 13 15  1  0  0  0  0
 15 16  1  0  0  0  0
 15 34  1  0  0  0  0
 16 21  1  0  0  0  0
 16 17  1  0  0  0  0
 16 35  1  0  0  0  0
 17 18  1  0  0  0  0
 17 36  1  0  0  0  0
 17 37  1  0  0  0  0
 18 19  1  0  0  0  0
 18 38  1  0  0  0  0
 18 39  1  0  0  0  0
 19 20  1  0  0  0  0
 19 40  1  0  0  0  0
 19 41  1  0  0  0  0
 20 21  1  0  0  0  0
 20 42  1  0  0  0  0
 20 43  1  0  0  0  0
 21 44  1  0  0  0  0
 21 45  1  0  0  0  0
 22 46  1  0  0  0  0
M  END
> <s_m_source_file>
AV-unprocessed.smi

> <i_m_source_file_index>
2286

> <i_lp_mmshare_version>
43012

> <i_f3d_flags>
0

> <s_epik_input>
W0NIM11jMVtjSF1jKFtDSDNdKW5jKFtjSF0xKVtOSF1DKD1PKVtOSF1bQ0gyXUMoPU8pW05IXVtDSF0yW0NIMl1bQ0gyXVtDSDJdW0NIMl1bQ0gyXTI=

> <s_epik_cmdline>
J2VwaWtfcHl0aG9uJywgJy1waCcsICc3LjAnLCAnLXRuJywgJzgnLCAnLW1hJywgJzIwMCcsICctbWV0YWxfYmluZGluZycsICctaW1hZScsICc8aW5maWxlLm1hZT4nLCAnLW9tYWUnLCAnPG91dGZpbGUubWFlPic=

> <r_lp_tautomer_probability>
1

> <r_epik_Ionization_Penalty>
0.000219548

> <r_epik_Ionization_Penalty_Charging>
0

> <r_epik_Ionization_Penalty_Neutral>
0.000219548

> <r_epik_State_Penalty>
-0

> <r_epik_Charging_Adjusted_Penalty>
0

> <i_epik_Tot_Q>
0

> <i_epik_Tot_abs_Q>
0

> <r_epik_Metal_State_Penalty>
-0

> <b_epik_Metal_Only>
0

> <s_lp_Force_Field>
OPLS_2005

> <r_lp_Energy>
6.54337

> <b_lp_Chiralities_Consistent>
1

> <s_lp_Variant>
AV-unprocessed.smi:2286-1

> <Gold.Version>
5.8.1

> <Gold.Id.Protein>
6NUR|6NUR_protein|mol2

> <Gold.PLP.Fitness>
45.9426

> <Gold.PLP.PLP>
-38.2398

> <Gold.PLP.part.hbond>
-3.0000

> <Gold.PLP.part.metal>
0.0000

> <Gold.PLP.part.buried>
-5.7326

> <Gold.PLP.part.nonpolar>
-33.6732

> <Gold.PLP.part.repulsive>
4.2480

> <Gold.PLP.ligand.clash>
0.0000

> <Gold.PLP.ligand.torsion>
0.4272

> <Gold.PLP.Chemscore.Hbond>
2.8500

> <Gold.PLP.Chemscore.CHOScore>
0.0000

> <Gold.PLP.Chemscore.Metal>
0.0000

> <Gold.Chemscore.Hbonds>
donor molecule, donor type, donor heavy atom, donor atom, acceptor molecule, acceptor atom, score
      P1  H  6896  6907       L1    10  0.95
      P1  H  6934  6947       L1     6  0.42
      P1  H  7997  8010       L1    14  1.00

> <Gold.PLP.Chemscore.Internal.Correction>
0.0072

> <Gold.Rescore>
     Score         DG    S(hbond)    S(metal)    S(lipo)     H(rot)  DE(clash)    DE(int)     intcor
     18.31     -21.90       2.09        0.00     113.22       1.48       1.91       1.68       ----

> <Gold.Chemscore.Fitness>
18.3064

> <Gold.Chemscore.DG>
-21.9005

> <Gold.Chemscore.ZeroCoef>
-5.4800

> <Gold.Chemscore.Hbond>
2.0883

> <Gold.Chemscore.Metal>
0.0000

> <Gold.Chemscore.Lipo>
113.2214

> <Gold.Chemscore.Internal_Hbond>
0.0000

> <Gold.Chemscore.DEClash>
1.9100

> <Gold.Chemscore.DEInternal>
1.6841

> <Gold.Chemscore.Rot>
1.4849

> <Gold.Chemscore.Internal.Correction>
   9.000000E+99

> <Gold.Chemscore.Hbonds>
donor molecule, donor type, donor heavy atom, donor atom, acceptor molecule, acceptor atom, score
      P1  H  6896  6907       L1    10  0.21
      P1  H  6934  6947       L1     6  0.11
      P1  H  7997  8010       L1    14  0.98

> <Gold.Chemscore.Hbond.Weighted>
-6.9748

> <Gold.Chemscore.Metal.Weighted>
-0.0000

> <Gold.Chemscore.Lipo.Weighted>
-13.2469

> <Gold.Chemscore.Internal_Hbond.Weighted>
0.0000

> <Gold.Chemscore.DEClash.Weighted>
1.9100

> <Gold.Chemscore.DEInternal.Weighted>
1.6841

> <Gold.Chemscore.Rot.Weighted>
3.8012

> <Gold.Chemscore.Internal.Correction.Weighted>
   9.000000E+99

> <Gold.Protein.RotatedTorsions>
[ 6907 6896 6895 6894 ] final  -81.91 input  -60.11 | X-H torsion
[ 7974 7965 7964 7962 ] final  -59.25 input  175.53 | X-H torsion
[ 8008 7997 7996 7995 ] final   67.82 input   59.86 | X-H torsion
[ 10167 10162 10161 10158 ] final  165.01 input  -65.29 | X-H torsion
[ 10718 10713 10712 10709 ] final  103.36 input   66.30 | X-H torsion
[ 10763 10752 10751 10750 ] final  166.03 input  -60.55 | X-H torsion
[ 11005 11000 10999 10996 ] final  163.85 input  -57.11 | X-H torsion

> <Gold.Protein.ActiveResidues>
 VAL166  LYS551  ARG553  GLY616  TRP617  ASP618  TYR619  PRO620  LYS621  CYS622 
 ASP623  PHE694  ASN695  SER759  ASP760  ASP761  ALA762  ILE779  LEU786  VAL792 
 PHE793  MET794  SER795  GLU796  ALA797  LYS798  CYS799  TRP800  GLU811  SER814 

> <Gold.Protein.RotatedAtoms>
  150.6905  134.3746  159.5006 H   0  0  0  0  0  0  0  0  0  0  0  0  # atno 6907 bound_to 6896
  152.1557  134.8950  160.0554 H   0  0  0  0  0  0  0  0  0  0  0  0  # atno 6908 bound_to 6896
  152.0031  133.3798  159.4226 H   0  0  0  0  0  0  0  0  0  0  0  0  # atno 6909 bound_to 6896
  145.8297  140.8488  143.0090 H   0  0  0  0  0  0  0  0  0  0  0  0  # atno 7974 bound_to 7965
  155.6987  140.3495  155.4924 H   0  0  0  0  0  0  0  0  0  0  0  0  # atno 8008 bound_to 7997
  155.9460  140.1110  157.1039 H   0  0  0  0  0  0  0  0  0  0  0  0  # atno 8009 bound_to 7997
  154.4112  140.1203  156.4975 H   0  0  0  0  0  0  0  0  0  0  0  0  # atno 8010 bound_to 7997
  139.4898  144.4177  151.9224 H   0  0  0  0  0  0  0  0  0  0  0  0  # atno 10167 bound_to 10162
  157.6775  131.0777  150.5544 H   0  0  0  0  0  0  0  0  0  0  0  0  # atno 10718 bound_to 10713
  154.3328  135.2754  155.2463 H   0  0  0  0  0  0  0  0  0  0  0  0  # atno 10763 bound_to 10752
  154.4767  135.5869  153.6363 H   0  0  0  0  0  0  0  0  0  0  0  0  # atno 10764 bound_to 10752
  152.9865  135.6101  154.3522 H   0  0  0  0  0  0  0  0  0  0  0  0  # atno 10765 bound_to 10752
  140.2399  134.8059  157.3401 H   0  0  0  0  0  0  0  0  0  0  0  0  # atno 11005 bound_to 11000
  144.6741  140.0654  143.7475 LP  0  0  0  0  0  0  0  0  0  0  0  0  # atno 17320 bound_to 7965
  145.9585  139.2783  143.1170 LP  0  0  0  0  0  0  0  0  0  0  0  0  # atno 17321 bound_to 7965
  140.3620  144.2961  150.5932 LP  0  0  0  0  0  0  0  0  0  0  0  0  # atno 17342 bound_to 10162
  140.5395  143.2226  151.8109 LP  0  0  0  0  0  0  0  0  0  0  0  0  # atno 17343 bound_to 10162
  156.5847  130.4313  149.5962 LP  0  0  0  0  0  0  0  0  0  0  0  0  # atno 17370 bound_to 10713
  156.2632  130.6974  151.1749 LP  0  0  0  0  0  0  0  0  0  0  0  0  # atno 17371 bound_to 10713
  140.1664  134.4664  155.7860 LP  0  0  0  0  0  0  0  0  0  0  0  0  # atno 17394 bound_to 11000
  141.2211  133.6923  156.7632 LP  0  0  0  0  0  0  0  0  0  0  0  0  # atno 17395 bound_to 11000

$$$$
