AV-unprocessed.smi:2457|AV-procd|sdf|9704|dock2
  -GOLD-   2272013343D 1   1.00000     0.00000
 Structure written by MMmdl.
 40 41  0  0  0  0  0  0  0  0  1 V2000
  145.9420  150.6093  160.1506 C   0  0  0  0  0  0  0  0  0  0  0  0
  145.5247  149.4915  159.2484 C   0  0  0  0  0  0  0  0  0  0  0  0
  145.4991  149.5024  157.8764 C   0  0  0  0  0  0  0  0  0  0  0  0
  144.9608  147.9791  157.2257 S   0  0  0  0  0  0  0  0  0  0  0  0
  144.7895  147.3704  158.8693 C   0  0  0  0  0  0  0  0  0  0  0  0
  144.3813  145.9624  159.1845 C   0  0  2  0  0  0  0  0  0  0  0  0
  142.9232  145.8770  159.6578 C   0  0  0  0  0  0  0  0  0  0  0  0
  145.3645  145.2382  160.1314 C   0  0  0  0  0  0  0  0  0  0  0  0
  146.5949  144.8408  159.4485 N   0  0  0  0  0  0  0  0  0  0  0  0
  147.7280  144.4573  160.0544 C   0  0  0  0  0  0  0  0  0  0  0  0
  147.8434  144.2945  161.2692 O   0  0  0  0  0  0  0  0  0  0  0  0
  148.7348  144.3176  159.1813 N   0  0  0  0  0  0  0  0  0  0  0  0
  150.1196  144.0308  159.5429 C   0  0  2  0  0  0  0  0  0  0  0  0
  151.0238  145.2232  159.1634 C   0  0  0  0  0  0  0  0  0  0  0  0
  152.4884  145.0063  159.5760 C   0  0  0  0  0  0  0  0  0  0  0  0
  153.1127  143.7794  158.8958 C   0  0  0  0  0  0  0  0  0  0  0  0
  152.2444  142.2564  159.3598 S   0  0  0  0  0  0  0  0  0  0  0  0
  150.5692  142.7324  158.8514 C   0  0  0  0  0  0  0  0  0  0  0  0
  145.1117  148.2754  159.7987 N   0  0  0  0  0  0  0  0  0  0  0  0
  146.0735  151.5398  159.5977 H   0  0  0  0  0  0  0  0  0  0  0  0
  146.8873  150.3819  160.6440 H   0  0  0  0  0  0  0  0  0  0  0  0
  145.1977  150.7894  160.9265 H   0  0  0  0  0  0  0  0  0  0  0  0
  145.7673  150.3093  157.2107 H   0  0  0  0  0  0  0  0  0  0  0  0
  144.4195  145.4227  158.2371 H   0  0  0  0  0  0  0  0  0  0  0  0
  142.2455  146.3095  158.9211 H   0  0  0  0  0  0  0  0  0  0  0  0
  142.7798  146.4120  160.5973 H   0  0  0  0  0  0  0  0  0  0  0  0
  142.6220  144.8415  159.8170 H   0  0  0  0  0  0  0  0  0  0  0  0
  145.5916  145.8731  160.9896 H   0  0  0  0  0  0  0  0  0  0  0  0
  144.8958  144.3407  160.5359 H   0  0  0  0  0  0  0  0  0  0  0  0
  146.6065  144.9397  158.4440 H   0  0  0  0  0  0  0  0  0  0  0  0
  148.5424  144.4737  158.2028 H   0  0  0  0  0  0  0  0  0  0  0  0
  150.1733  143.8743  160.6221 H   0  0  0  0  0  0  0  0  0  0  0  0
  150.9692  145.4049  158.0891 H   0  0  0  0  0  0  0  0  0  0  0  0
  150.6573  146.1323  159.6425 H   0  0  0  0  0  0  0  0  0  0  0  0
  153.0685  145.8932  159.3188 H   0  0  0  0  0  0  0  0  0  0  0  0
  152.5547  144.9011  160.6597 H   0  0  0  0  0  0  0  0  0  0  0  0
  153.0834  143.8895  157.8113 H   0  0  0  0  0  0  0  0  0  0  0  0
  154.1610  143.6831  159.1792 H   0  0  0  0  0  0  0  0  0  0  0  0
  149.8926  141.9141  159.0998 H   0  0  0  0  0  0  0  0  0  0  0  0
  150.5488  142.8472  157.7671 H   0  0  0  0  0  0  0  0  0  0  0  0
  1  2  1  0  0  0  0
  1 20  1  0  0  0  0
  1 21  1  0  0  0  0
  1 22  1  0  0  0  0
  2 19  1  0  0  0  0
  2  3  2  0  0  0  0
  3  4  1  0  0  0  0
  3 23  1  0  0  0  0
  4  5  1  0  0  0  0
  5  6  1  0  0  0  0
  5 19  2  0  0  0  0
  6  7  1  0  0  0  0
  6  8  1  0  0  0  0
  6 24  1  0  0  0  0
  7 25  1  0  0  0  0
  7 26  1  0  0  0  0
  7 27  1  0  0  0  0
  8  9  1  0  0  0  0
  8 28  1  0  0  0  0
  8 29  1  0  0  0  0
  9 10  1  0  0  0  0
  9 30  1  0  0  0  0
 10 11  2  0  0  0  0
 10 12  1  0  0  0  0
 12 13  1  0  0  0  0
 12 31  1  0  0  0  0
 13 18  1  0  0  0  0
 13 14  1  0  0  0  0
 13 32  1  0  0  0  0
 14 15  1  0  0  0  0
 14 33  1  0  0  0  0
 14 34  1  0  0  0  0
 15 16  1  0  0  0  0
 15 35  1  0  0  0  0
 15 36  1  0  0  0  0
 16 17  1  0  0  0  0
 16 37  1  0  0  0  0
 16 38  1  0  0  0  0
 17 18  1  0  0  0  0
 18 39  1  0  0  0  0
 18 40  1  0  0  0  0
M  END
> <s_m_source_file>
AV-unprocessed.smi

> <i_m_source_file_index>
2457

> <i_lp_mmshare_version>
43012

> <i_f3d_flags>
0

> <s_epik_input>
W0NIM11jMVtjSF1zYyhuMSlbQ0BIXShbQ0gzXSlbQ0gyXVtOSF1DKD1PKVtOSF1bQ0BASF0yW0NIMl1bQ0gyXVtDSDJdU1tDSDJdMg==

> <s_epik_cmdline>
J2VwaWtfcHl0aG9uJywgJy1waCcsICc3LjAnLCAnLXRuJywgJzgnLCAnLW1hJywgJzIwMCcsICctbWV0YWxfYmluZGluZycsICctaW1hZScsICc8aW5maWxlLm1hZT4nLCAnLW9tYWUnLCAnPG91dGZpbGUubWFlPic=

> <r_epik_Ionization_Penalty>
0.00154805

> <r_epik_Ionization_Penalty_Charging>
0

> <r_epik_Ionization_Penalty_Neutral>
0.00154805

> <r_epik_State_Penalty>
0.00100357

> <r_epik_Charging_Adjusted_Penalty>
0.00100357

> <i_epik_Tot_Q>
0

> <i_epik_Tot_abs_Q>
0

> <r_epik_Metal_State_Penalty>
-0

> <b_epik_Metal_Only>
0

> <s_lp_Force_Field>
OPLS_2005

> <r_lp_Energy>
-7.34104

> <b_lp_Chiralities_Consistent>
1

> <s_lp_Variant>
AV-unprocessed.smi:2457-1

> <Gold.Version>
5.8.1

> <Gold.Id.Protein>
6NUR|6NUR_protein|mol2

> <Gold.PLP.Fitness>
48.9021

> <Gold.PLP.PLP>
-42.8189

> <Gold.PLP.part.hbond>
-3.0000

> <Gold.PLP.part.metal>
0.0000

> <Gold.PLP.part.buried>
-9.0035

> <Gold.PLP.part.nonpolar>
-31.4000

> <Gold.PLP.part.repulsive>
0.4474

> <Gold.PLP.ligand.clash>
0.0000

> <Gold.PLP.ligand.torsion>
0.5732

> <Gold.PLP.Chemscore.Hbond>
2.3600

> <Gold.PLP.Chemscore.CHOScore>
0.0000

> <Gold.PLP.Chemscore.Metal>
0.0000

> <Gold.Chemscore.Hbonds>
donor molecule, donor type, donor heavy atom, donor atom, acceptor molecule, acceptor atom, score
      L1  H     9    30       P1  8029  0.61
      L1  H    12    31       P1  8029  0.66
      P1  H  6933  6944       L1    11  0.98

> <Gold.PLP.Chemscore.Internal.Correction>
0.1496

> <Gold.Rescore>
     Score         DG    S(hbond)    S(metal)    S(lipo)     H(rot)  DE(clash)    DE(int)     intcor
     20.79     -22.04       2.00        0.00     116.53       1.46       0.80       0.45       ----

> <Gold.Chemscore.Fitness>
20.7945

> <Gold.Chemscore.DG>
-22.0421

> <Gold.Chemscore.ZeroCoef>
-5.4800

> <Gold.Chemscore.Hbond>
1.9968

> <Gold.Chemscore.Metal>
0.0000

> <Gold.Chemscore.Lipo>
116.5339

> <Gold.Chemscore.Internal_Hbond>
0.0000

> <Gold.Chemscore.DEClash>
0.7994

> <Gold.Chemscore.DEInternal>
0.4482

> <Gold.Chemscore.Rot>
1.4616

> <Gold.Chemscore.Internal.Correction>
   9.000000E+99

> <Gold.Chemscore.Hbonds>
donor molecule, donor type, donor heavy atom, donor atom, acceptor molecule, acceptor atom, score
      L1  H     9    30       P1  8029  0.60
      L1  H    12    31       P1  8029  0.26
      P1  H  6933  6944       L1    11  0.45

> <Gold.Chemscore.Hbond.Weighted>
-6.6693

> <Gold.Chemscore.Metal.Weighted>
-0.0000

> <Gold.Chemscore.Lipo.Weighted>
-13.6345

> <Gold.Chemscore.Internal_Hbond.Weighted>
0.0000

> <Gold.Chemscore.DEClash.Weighted>
0.7994

> <Gold.Chemscore.DEInternal.Weighted>
0.4482

> <Gold.Chemscore.Rot.Weighted>
3.7416

> <Gold.Chemscore.Internal.Correction.Weighted>
   9.000000E+99

> <Gold.Protein.RotatedTorsions>
[ 6907 6896 6895 6894 ] final  -67.69 input  -60.11 | X-H torsion
[ 7974 7965 7964 7962 ] final   84.70 input  175.53 | X-H torsion
[ 8008 7997 7996 7995 ] final -132.07 input   59.86 | X-H torsion
[ 10167 10162 10161 10158 ] final   84.09 input  -65.29 | X-H torsion
[ 10718 10713 10712 10709 ] final  119.61 input   66.30 | X-H torsion
[ 10763 10752 10751 10750 ] final -152.76 input  -60.55 | X-H torsion
[ 11005 11000 10999 10996 ] final -166.76 input  -57.11 | X-H torsion

> <Gold.Protein.ActiveResidues>
 VAL166  LYS551  ARG553  GLY616  TRP617  ASP618  TYR619  PRO620  LYS621  CYS622 
 ASP623  PHE694  ASN695  SER759  ASP760  ASP761  ALA762  ILE779  LEU786  VAL792 
 PHE793  MET794  SER795  GLU796  ALA797  LYS798  CYS799  TRP800  GLU811  SER814 

> <Gold.Protein.RotatedAtoms>
  150.7396  134.5844  159.5955 H   0  0  0  0  0  0  0  0  0  0  0  0  # atno 6907 bound_to 6896
  152.3249  134.7330  160.0313 H   0  0  0  0  0  0  0  0  0  0  0  0  # atno 6908 bound_to 6896
  151.7833  133.3316  159.3514 H   0  0  0  0  0  0  0  0  0  0  0  0  # atno 6909 bound_to 6896
  145.5953  139.2344  143.2276 H   0  0  0  0  0  0  0  0  0  0  0  0  # atno 7974 bound_to 7965
  155.3227  140.0463  157.3040 H   0  0  0  0  0  0  0  0  0  0  0  0  # atno 8008 bound_to 7997
  154.5371  140.2276  155.8670 H   0  0  0  0  0  0  0  0  0  0  0  0  # atno 8009 bound_to 7997
  156.1845  140.3066  155.9219 H   0  0  0  0  0  0  0  0  0  0  0  0  # atno 8010 bound_to 7997
  139.9116  144.6268  150.8531 H   0  0  0  0  0  0  0  0  0  0  0  0  # atno 10167 bound_to 10162
  157.5949  131.1059  150.7920 H   0  0  0  0  0  0  0  0  0  0  0  0  # atno 10718 bound_to 10713
  154.7973  135.3229  154.7636 H   0  0  0  0  0  0  0  0  0  0  0  0  # atno 10763 bound_to 10752
  153.8311  135.6879  153.4819 H   0  0  0  0  0  0  0  0  0  0  0  0  # atno 10764 bound_to 10752
  153.1671  135.4638  154.9794 H   0  0  0  0  0  0  0  0  0  0  0  0  # atno 10765 bound_to 10752
  140.5608  134.5335  157.5143 H   0  0  0  0  0  0  0  0  0  0  0  0  # atno 11005 bound_to 11000
  146.1617  140.6779  142.9274 LP  0  0  0  0  0  0  0  0  0  0  0  0  # atno 17320 bound_to 7965
  144.7333  140.4736  143.6922 LP  0  0  0  0  0  0  0  0  0  0  0  0  # atno 17321 bound_to 7965
  140.7684  143.3361  151.2305 LP  0  0  0  0  0  0  0  0  0  0  0  0  # atno 17342 bound_to 10162
  139.6937  143.9648  152.2872 LP  0  0  0  0  0  0  0  0  0  0  0  0  # atno 17343 bound_to 10162
  156.8333  130.5023  149.5329 LP  0  0  0  0  0  0  0  0  0  0  0  0  # atno 17370 bound_to 10713
  156.1010  130.5969  150.9894 LP  0  0  0  0  0  0  0  0  0  0  0  0  # atno 17371 bound_to 10713
  139.9409  134.7789  156.0682 LP  0  0  0  0  0  0  0  0  0  0  0  0  # atno 17394 bound_to 11000
  141.1115  133.6641  156.2991 LP  0  0  0  0  0  0  0  0  0  0  0  0  # atno 17395 bound_to 11000

$$$$
