AV-unprocessed.smi:1144|AV-procd|sdf|4880|dock1
  -GOLD-   22720 3453D 1   1.00000     0.00000
 Structure written by MMmdl.
 34 35  0  0  0  0  0  0  0  0  1 V2000
  146.9882  142.0510  157.1866 C   0  0  0  0  0  0  0  0  0  0  0  0
  147.7957  141.2150  156.3112 N   0  0  0  0  0  0  0  0  0  0  0  0
  147.6122  141.5719  154.9108 C   0  0  0  0  0  0  0  0  0  0  0  0
  148.4817  140.7047  153.9850 C   0  0  0  0  0  0  0  0  0  0  0  0
  149.8465  140.8112  154.3785 O   0  0  0  0  0  0  0  0  0  0  0  0
  150.0737  140.4077  155.7278 C   0  0  1  0  0  0  0  0  0  0  0  0
  151.5694  140.5591  156.0351 C   0  0  0  0  0  0  0  0  0  0  0  0
  151.8956  140.0788  157.3695 N   0  0  0  0  0  0  0  0  0  0  0  0
  152.2582  140.8984  158.4211 C   0  0  0  0  0  0  0  0  0  0  0  0
  152.9609  140.3116  159.3926 N   0  0  0  0  0  0  0  0  0  0  0  0
  153.3315  141.0851  160.4357 C   0  0  0  0  0  0  0  0  0  0  0  0
  152.9957  142.4515  160.5037 C   0  0  0  0  0  0  0  0  0  0  0  0
  152.2499  142.9674  159.4203 C   0  0  0  0  0  0  0  0  0  0  0  0
  151.8152  144.4236  159.3570 C   0  0  0  0  0  0  0  0  0  0  0  0
  150.4967  144.4918  159.1707 F   0  0  0  0  0  0  0  0  0  0  0  0
  152.1172  145.0732  160.4817 F   0  0  0  0  0  0  0  0  0  0  0  0
  152.4261  145.0324  158.3405 F   0  0  0  0  0  0  0  0  0  0  0  0
  151.8838  142.1821  158.3809 N   0  0  0  0  0  0  0  0  0  0  0  0
  149.2105  141.2886  156.6533 C   0  0  0  0  0  0  0  0  0  0  0  0
  145.9306  141.9637  156.9359 H   0  0  0  0  0  0  0  0  0  0  0  0
  147.2722  143.1007  157.1012 H   0  0  0  0  0  0  0  0  0  0  0  0
  147.1086  141.7502  158.2276 H   0  0  0  0  0  0  0  0  0  0  0  0
  146.5630  141.4607  154.6342 H   0  0  0  0  0  0  0  0  0  0  0  0
  147.8657  142.6226  154.7609 H   0  0  0  0  0  0  0  0  0  0  0  0
  148.1657  139.6609  154.0216 H   0  0  0  0  0  0  0  0  0  0  0  0
  148.3815  141.0349  152.9510 H   0  0  0  0  0  0  0  0  0  0  0  0
  149.7820  139.3626  155.8492 H   0  0  0  0  0  0  0  0  0  0  0  0
  152.1644  140.0212  155.2959 H   0  0  0  0  0  0  0  0  0  0  0  0
  151.8511  141.6108  155.9715 H   0  0  0  0  0  0  0  0  0  0  0  0
  151.9178  139.0819  157.5279 H   0  0  0  0  0  0  0  0  0  0  0  0
  153.9005  140.6106  161.2214 H   0  0  0  0  0  0  0  0  0  0  0  0
  153.2966  143.0619  161.3422 H   0  0  0  0  0  0  0  0  0  0  0  0
  149.5510  142.3235  156.5894 H   0  0  0  0  0  0  0  0  0  0  0  0
  149.3545  140.9775  157.6887 H   0  0  0  0  0  0  0  0  0  0  0  0
  1  2  1  0  0  0  0
  1 20  1  0  0  0  0
  1 21  1  0  0  0  0
  1 22  1  0  0  0  0
  2 19  1  0  0  0  0
  2  3  1  0  0  0  0
  3  4  1  0  0  0  0
  3 23  1  0  0  0  0
  3 24  1  0  0  0  0
  4  5  1  0  0  0  0
  4 25  1  0  0  0  0
  4 26  1  0  0  0  0
  5  6  1  0  0  0  0
  6  7  1  0  0  0  0
  6 19  1  0  0  0  0
  6 27  1  0  0  0  0
  7  8  1  0  0  0  0
  7 28  1  0  0  0  0
  7 29  1  0  0  0  0
  8  9  1  0  0  0  0
  8 30  1  0  0  0  0
  9 18  1  0  0  0  0
  9 10  2  0  0  0  0
 10 11  1  0  0  0  0
 11 12  2  0  0  0  0
 11 31  1  0  0  0  0
 12 13  1  0  0  0  0
 12 32  1  0  0  0  0
 13 14  1  0  0  0  0
 13 18  2  0  0  0  0
 14 15  1  0  0  0  0
 14 16  1  0  0  0  0
 14 17  1  0  0  0  0
 19 33  1  0  0  0  0
 19 34  1  0  0  0  0
M  END
> <s_m_source_file>
AV-unprocessed.smi

> <i_m_source_file_index>
1144

> <i_lp_mmshare_version>
43012

> <i_f3d_flags>
0

> <s_epik_input>
W0NIM11OMVtDSDJdW0NIMl1PW0NASF0oW0NIMl0xKVtDSDJdW05IXWMybltjSF1bY0hdYyhuMilDKEYpKEYpRg==

> <s_epik_cmdline>
J2VwaWtfcHl0aG9uJywgJy1waCcsICc3LjAnLCAnLXRuJywgJzgnLCAnLW1hJywgJzIwMCcsICctbWV0YWxfYmluZGluZycsICctaW1hZScsICc8aW5maWxlLm1hZT4nLCAnLW9tYWUnLCAnPG91dGZpbGUubWFlPic=

> <r_lp_tautomer_probability>
1

> <r_epik_Ionization_Penalty>
0.797829

> <r_epik_Ionization_Penalty_Charging>
0

> <r_epik_Ionization_Penalty_Neutral>
0.797829

> <r_epik_State_Penalty>
0.828842

> <r_epik_Charging_Adjusted_Penalty>
0.828842

> <i_epik_Tot_Q>
0

> <i_epik_Tot_abs_Q>
0

> <r_epik_Metal_State_Penalty>
0.828842

> <b_epik_Metal_Only>
0

> <s_lp_Force_Field>
OPLS_2005

> <r_lp_Energy>
13.1173

> <b_lp_Chiralities_Consistent>
1

> <s_lp_Variant>
AV-unprocessed.smi:1144-5

> <Gold.Version>
5.8.1

> <Gold.Id.Protein>
6NUR|6NUR_protein|mol2

> <Gold.PLP.Fitness>
43.4407

> <Gold.PLP.PLP>
-41.9972

> <Gold.PLP.part.hbond>
-1.0000

> <Gold.PLP.part.metal>
0.0000

> <Gold.PLP.part.buried>
-6.0470

> <Gold.PLP.part.nonpolar>
-34.9104

> <Gold.PLP.part.repulsive>
0.3108

> <Gold.PLP.ligand.clash>
0.0000

> <Gold.PLP.ligand.torsion>
0.2736

> <Gold.PLP.Chemscore.Hbond>
0.6560

> <Gold.PLP.Chemscore.CHOScore>
0.0000

> <Gold.PLP.Chemscore.Metal>
0.0000

> <Gold.Chemscore.Hbonds>
donor molecule, donor type, donor heavy atom, donor atom, acceptor molecule, acceptor atom, score
      P1  H  7989  7998       L1     5  0.66

> <Gold.PLP.Chemscore.Internal.Correction>
0.0227

> <Gold.Rescore>
     Score         DG    S(hbond)    S(metal)    S(lipo)     H(rot)  DE(clash)    DE(int)     intcor
     13.38     -13.81       0.97        0.00      72.19       1.31       0.15       0.28       ----

> <Gold.Chemscore.Fitness>
13.3810

> <Gold.Chemscore.DG>
-13.8119

> <Gold.Chemscore.ZeroCoef>
-5.4800

> <Gold.Chemscore.Hbond>
0.9735

> <Gold.Chemscore.Metal>
0.0000

> <Gold.Chemscore.Lipo>
72.1938

> <Gold.Chemscore.Internal_Hbond>
0.0000

> <Gold.Chemscore.DEClash>
0.1485

> <Gold.Chemscore.DEInternal>
0.2824

> <Gold.Chemscore.Rot>
1.3149

> <Gold.Chemscore.Internal.Correction>
   9.000000E+99

> <Gold.Chemscore.Hbonds>
donor molecule, donor type, donor heavy atom, donor atom, acceptor molecule, acceptor atom, score
      P1  H  7989  7998       L1     5  0.42

> <Gold.Chemscore.Hbond.Weighted>
-3.2514

> <Gold.Chemscore.Metal.Weighted>
-0.0000

> <Gold.Chemscore.Lipo.Weighted>
-8.4467

> <Gold.Chemscore.Internal_Hbond.Weighted>
0.0000

> <Gold.Chemscore.DEClash.Weighted>
0.1485

> <Gold.Chemscore.DEInternal.Weighted>
0.2824

> <Gold.Chemscore.Rot.Weighted>
3.3662

> <Gold.Chemscore.Internal.Correction.Weighted>
   9.000000E+99

> <Gold.Protein.RotatedTorsions>
[ 6907 6896 6895 6894 ] final  -24.84 input  -60.11 | X-H torsion
[ 7974 7965 7964 7962 ] final -112.29 input  175.53 | X-H torsion
[ 8008 7997 7996 7995 ] final  130.16 input   59.86 | X-H torsion
[ 10167 10162 10161 10158 ] final -167.83 input  -65.29 | X-H torsion
[ 10718 10713 10712 10709 ] final   33.66 input   66.30 | X-H torsion
[ 10763 10752 10751 10750 ] final  116.45 input  -60.55 | X-H torsion
[ 11005 11000 10999 10996 ] final  -54.18 input  -57.11 | X-H torsion

> <Gold.Protein.ActiveResidues>
 VAL166  LYS551  ARG553  GLY616  TRP617  ASP618  TYR619  PRO620  LYS621  CYS622 
 ASP623  PHE694  ASN695  SER759  ASP760  ASP761  ALA762  ILE779  LEU786  VAL792 
 PHE793  MET794  SER795  GLU796  ALA797  LYS798  CYS799  TRP800  GLU811  SER814 

> <Gold.Protein.RotatedAtoms>
  151.1837  135.0372  159.8802 H   0  0  0  0  0  0  0  0  0  0  0  0  # atno 6907 bound_to 6896
  152.5443  134.1034  159.8338 H   0  0  0  0  0  0  0  0  0  0  0  0  # atno 6908 bound_to 6896
  151.1154  133.5095  159.2636 H   0  0  0  0  0  0  0  0  0  0  0  0  # atno 6909 bound_to 6896
  145.1458  140.8803  143.3675 H   0  0  0  0  0  0  0  0  0  0  0  0  # atno 7974 bound_to 7965
  156.2949  140.2603  156.2717 H   0  0  0  0  0  0  0  0  0  0  0  0  # atno 8008 bound_to 7997
  154.9689  140.0391  157.2243 H   0  0  0  0  0  0  0  0  0  0  0  0  # atno 8009 bound_to 7997
  154.7877  140.2806  155.6019 H   0  0  0  0  0  0  0  0  0  0  0  0  # atno 8010 bound_to 7997
  139.6024  144.0983  152.1757 H   0  0  0  0  0  0  0  0  0  0  0  0  # atno 10167 bound_to 10162
  157.3006  130.7349  149.6664 H   0  0  0  0  0  0  0  0  0  0  0  0  # atno 10718 bound_to 10713
  153.5374  135.3566  155.2703 H   0  0  0  0  0  0  0  0  0  0  0  0  # atno 10763 bound_to 10752
  154.8721  135.4083  154.3082 H   0  0  0  0  0  0  0  0  0  0  0  0  # atno 10764 bound_to 10752
  153.3783  135.7067  153.6653 H   0  0  0  0  0  0  0  0  0  0  0  0  # atno 10765 bound_to 10752
  141.1013  133.6618  156.4283 H   0  0  0  0  0  0  0  0  0  0  0  0  # atno 11005 bound_to 11000
  145.0483  139.3203  143.5941 LP  0  0  0  0  0  0  0  0  0  0  0  0  # atno 17320 bound_to 7965
  146.3500  139.9882  142.8688 LP  0  0  0  0  0  0  0  0  0  0  0  0  # atno 17321 bound_to 7965
  140.0582  144.5878  150.7283 LP  0  0  0  0  0  0  0  0  0  0  0  0  # atno 17342 bound_to 10162
  140.7260  143.2636  151.4120 LP  0  0  0  0  0  0  0  0  0  0  0  0  # atno 17343 bound_to 10162
  155.9671  130.4281  150.4773 LP  0  0  0  0  0  0  0  0  0  0  0  0  # atno 17370 bound_to 10713
  157.2753  131.0595  151.2233 LP  0  0  0  0  0  0  0  0  0  0  0  0  # atno 17371 bound_to 10713
  140.5014  134.6482  157.5250 LP  0  0  0  0  0  0  0  0  0  0  0  0  # atno 17394 bound_to 11000
  139.9866  134.7052  155.9763 LP  0  0  0  0  0  0  0  0  0  0  0  0  # atno 17395 bound_to 11000

$$$$
