AV-unprocessed.smi:2123|AV-procd|sdf|8648|dock1
  -GOLD-   2272011393D 1   1.00000     0.00000
 Structure written by MMmdl.
 47 48  0  0  0  0  0  0  0  0  1 V2000
  150.7312  132.1143  155.7346 C   0  0  0  0  0  0  0  0  0  0  0  0
  149.2942  132.1309  154.6318 S   0  0  0  0  0  0  0  0  0  0  0  0
  149.2729  133.8934  154.1942 C   0  0  0  0  0  0  0  0  0  0  0  0
  149.4541  134.8068  155.4215 C   0  0  0  0  0  0  0  0  0  0  0  0
  150.6199  135.7981  155.3162 C   0  0  0  0  0  0  0  0  0  0  0  0
  151.5685  135.7551  156.1006 O   0  0  0  0  0  0  0  0  0  0  0  0
  150.5240  136.7063  154.3330 N   0  0  0  0  0  0  0  0  0  0  0  0
  151.5008  137.7580  154.0656 C   0  0  0  0  0  0  0  0  0  0  0  0
  151.5924  138.8334  155.1408 C   0  0  0  0  0  0  0  0  0  0  0  0
  150.7269  139.9479  155.1727 C   0  0  0  0  0  0  0  0  0  0  0  0
  150.8721  140.8968  156.2019 C   0  0  0  0  0  0  0  0  0  0  0  0
  151.8846  140.7129  157.1719 C   0  0  0  0  0  0  0  0  0  0  0  0
  152.0345  141.6489  158.2160 N   0  0  0  0  0  0  0  0  0  0  0  0
  150.9200  142.5775  158.3775 C   0  0  0  0  0  0  0  0  0  0  0  0
  151.2996  143.7413  159.3138 C   0  0  2  0  0  0  0  0  0  0  0  0
  152.2157  144.7851  158.6506 C   0  0  0  0  0  0  0  0  0  0  0  0
  151.8481  143.2379  160.5344 O   0  0  0  0  0  0  0  0  0  0  0  0
  152.9710  142.3717  160.3734 C   0  0  1  0  0  0  0  0  0  0  0  0
  153.4292  141.9224  161.7647 C   0  0  0  0  0  0  0  0  0  0  0  0
  152.5773  141.1776  159.4863 C   0  0  0  0  0  0  0  0  0  0  0  0
  152.7272  139.6515  157.1286 N   0  0  0  0  0  0  0  0  0  0  0  0
  152.5802  138.7425  156.1421 C   0  0  0  0  0  0  0  0  0  0  0  0
  150.8969  131.1086  156.1205 H   0  0  0  0  0  0  0  0  0  0  0  0
  150.5727  132.7868  156.5778 H   0  0  0  0  0  0  0  0  0  0  0  0
  151.6262  132.4314  155.1988 H   0  0  0  0  0  0  0  0  0  0  0  0
  150.0850  134.0723  153.4890 H   0  0  0  0  0  0  0  0  0  0  0  0
  148.3484  134.1261  153.6641 H   0  0  0  0  0  0  0  0  0  0  0  0
  148.5321  135.3525  155.6262 H   0  0  0  0  0  0  0  0  0  0  0  0
  149.6394  134.1802  156.2947 H   0  0  0  0  0  0  0  0  0  0  0  0
  149.7139  136.6715  153.7312 H   0  0  0  0  0  0  0  0  0  0  0  0
  152.4843  137.3107  153.9117 H   0  0  0  0  0  0  0  0  0  0  0  0
  151.2315  138.2390  153.1251 H   0  0  0  0  0  0  0  0  0  0  0  0
  149.9592  140.0831  154.4252 H   0  0  0  0  0  0  0  0  0  0  0  0
  150.2180  141.7555  156.2316 H   0  0  0  0  0  0  0  0  0  0  0  0
  150.5795  142.9753  157.4220 H   0  0  0  0  0  0  0  0  0  0  0  0
  150.0794  142.0272  158.8021 H   0  0  0  0  0  0  0  0  0  0  0  0
  150.3798  144.2594  159.5858 H   0  0  0  0  0  0  0  0  0  0  0  0
  151.7177  145.2478  157.7982 H   0  0  0  0  0  0  0  0  0  0  0  0
  153.1439  144.3482  158.2830 H   0  0  0  0  0  0  0  0  0  0  0  0
  152.4726  145.5784  159.3528 H   0  0  0  0  0  0  0  0  0  0  0  0
  153.7923  142.9177  159.9088 H   0  0  0  0  0  0  0  0  0  0  0  0
  154.2953  141.2634  161.6988 H   0  0  0  0  0  0  0  0  0  0  0  0
  152.6373  141.3840  162.2862 H   0  0  0  0  0  0  0  0  0  0  0  0
  153.7097  142.7791  162.3780 H   0  0  0  0  0  0  0  0  0  0  0  0
  151.8306  140.5627  159.9906 H   0  0  0  0  0  0  0  0  0  0  0  0
  153.4530  140.5509  159.3115 H   0  0  0  0  0  0  0  0  0  0  0  0
  153.2729  137.9139  156.1560 H   0  0  0  0  0  0  0  0  0  0  0  0
  1  2  1  0  0  0  0
  1 23  1  0  0  0  0
  1 24  1  0  0  0  0
  1 25  1  0  0  0  0
  2  3  1  0  0  0  0
  3  4  1  0  0  0  0
  3 26  1  0  0  0  0
  3 27  1  0  0  0  0
  4  5  1  0  0  0  0
  4 28  1  0  0  0  0
  4 29  1  0  0  0  0
  5  6  2  0  0  0  0
  5  7  1  0  0  0  0
  7  8  1  0  0  0  0
  7 30  1  0  0  0  0
  8  9  1  0  0  0  0
  8 31  1  0  0  0  0
  8 32  1  0  0  0  0
  9 22  1  0  0  0  0
  9 10  2  0  0  0  0
 10 11  1  0  0  0  0
 10 33  1  0  0  0  0
 11 12  2  0  0  0  0
 11 34  1  0  0  0  0
 12 13  1  0  0  0  0
 12 21  1  0  0  0  0
 13 20  1  0  0  0  0
 13 14  1  0  0  0  0
 14 15  1  0  0  0  0
 14 35  1  0  0  0  0
 14 36  1  0  0  0  0
 15 16  1  0  0  0  0
 15 17  1  0  0  0  0
 15 37  1  0  0  0  0
 16 38  1  0  0  0  0
 16 39  1  0  0  0  0
 16 40  1  0  0  0  0
 17 18  1  0  0  0  0
 18 19  1  0  0  0  0
 18 20  1  0  0  0  0
 18 41  1  0  0  0  0
 19 42  1  0  0  0  0
 19 43  1  0  0  0  0
 19 44  1  0  0  0  0
 20 45  1  0  0  0  0
 20 46  1  0  0  0  0
 21 22  2  0  0  0  0
 22 47  1  0  0  0  0
M  END
> <s_m_source_file>
AV-unprocessed.smi

> <i_m_source_file_index>
2123

> <i_lp_mmshare_version>
43012

> <i_f3d_flags>
0

> <s_epik_input>
W0NIM11TW0NIMl1bQ0gyXUMoPU8pW05IXVtDSDJdYzFbY0hdW2NIXWMobltjSF0xKU4yW0NIMl1bQ0BASF0oW0NIM10pT1tDQEBIXShbQ0gzXSlbQ0gyXTI=

> <s_epik_cmdline>
J2VwaWtfcHl0aG9uJywgJy1waCcsICc3LjAnLCAnLXRuJywgJzgnLCAnLW1hJywgJzIwMCcsICctbWV0YWxfYmluZGluZycsICctaW1hZScsICc8aW5maWxlLm1hZT4nLCAnLW9tYWUnLCAnPG91dGZpbGUubWFlPic=

> <r_lp_tautomer_probability>
1

> <r_epik_Ionization_Penalty>
0.00642497

> <r_epik_Ionization_Penalty_Charging>
0

> <r_epik_Ionization_Penalty_Neutral>
0.00642497

> <r_epik_State_Penalty>
0.0047515

> <r_epik_Charging_Adjusted_Penalty>
0.0047515

> <i_epik_Tot_Q>
0

> <i_epik_Tot_abs_Q>
0

> <r_epik_Metal_State_Penalty>
-0

> <b_epik_Metal_Only>
0

> <s_lp_Force_Field>
OPLS_2005

> <r_lp_Energy>
18.6886

> <b_lp_Chiralities_Consistent>
1

> <s_lp_Variant>
AV-unprocessed.smi:2123-2

> <Gold.Version>
5.8.1

> <Gold.Id.Protein>
6NUR|6NUR_protein|mol2

> <Gold.PLP.Fitness>
55.6504

> <Gold.PLP.PLP>
-49.2053

> <Gold.PLP.part.hbond>
-4.0000

> <Gold.PLP.part.metal>
0.0000

> <Gold.PLP.part.buried>
-3.4258

> <Gold.PLP.part.nonpolar>
-41.6000

> <Gold.PLP.part.repulsive>
0.1591

> <Gold.PLP.ligand.clash>
0.0140

> <Gold.PLP.ligand.torsion>
1.3277

> <Gold.PLP.Chemscore.Hbond>
2.9040

> <Gold.PLP.Chemscore.CHOScore>
0.0000

> <Gold.PLP.Chemscore.Metal>
0.0000

> <Gold.Chemscore.Hbonds>
donor molecule, donor type, donor heavy atom, donor atom, acceptor molecule, acceptor atom, score
      L1  H     7    30       P1  7948  0.90
      P1  H  7997  8009       L1    21  0.95
      P1  H 10752 10765       L1     6  0.95

> <Gold.PLP.Chemscore.Internal.Correction>
0.4024

> <Gold.Rescore>
     Score         DG    S(hbond)    S(metal)    S(lipo)     H(rot)  DE(clash)    DE(int)     intcor
     20.65     -22.08       2.05        0.00     120.69       1.70       0.21       1.22       ----

> <Gold.Chemscore.Fitness>
20.6475

> <Gold.Chemscore.DG>
-22.0830

> <Gold.Chemscore.ZeroCoef>
-5.4800

> <Gold.Chemscore.Hbond>
2.0500

> <Gold.Chemscore.Metal>
0.0000

> <Gold.Chemscore.Lipo>
120.6889

> <Gold.Chemscore.Internal_Hbond>
0.0000

> <Gold.Chemscore.DEClash>
0.2132

> <Gold.Chemscore.DEInternal>
1.2223

> <Gold.Chemscore.Rot>
1.7049

> <Gold.Chemscore.Internal.Correction>
   9.000000E+99

> <Gold.Chemscore.Hbonds>
donor molecule, donor type, donor heavy atom, donor atom, acceptor molecule, acceptor atom, score
      L1  H     7    30       P1  7948  0.50
      P1  H  7997  8009       L1    21  0.19
      P1  H 10752 10765       L1     6  0.21

> <Gold.Chemscore.Hbond.Weighted>
-6.8470

> <Gold.Chemscore.Metal.Weighted>
-0.0000

> <Gold.Chemscore.Lipo.Weighted>
-14.1206

> <Gold.Chemscore.Internal_Hbond.Weighted>
0.0000

> <Gold.Chemscore.DEClash.Weighted>
0.2132

> <Gold.Chemscore.DEInternal.Weighted>
1.2223

> <Gold.Chemscore.Rot.Weighted>
4.3647

> <Gold.Chemscore.Internal.Correction.Weighted>
   9.000000E+99

> <Gold.Protein.RotatedTorsions>
[ 6907 6896 6895 6894 ] final   55.18 input  -60.11 | X-H torsion
[ 7974 7965 7964 7962 ] final  172.52 input  175.53 | X-H torsion
[ 8008 7997 7996 7995 ] final  161.99 input   59.86 | X-H torsion
[ 10167 10162 10161 10158 ] final  -52.92 input  -65.29 | X-H torsion
[ 10718 10713 10712 10709 ] final  -87.64 input   66.30 | X-H torsion
[ 10763 10752 10751 10750 ] final -165.75 input  -60.55 | X-H torsion
[ 11005 11000 10999 10996 ] final  114.67 input  -57.11 | X-H torsion

> <Gold.Protein.ActiveResidues>
 VAL166  LYS551  ARG553  GLY616  TRP617  ASP618  TYR619  PRO620  LYS621  CYS622 
 ASP623  PHE694  ASN695  SER759  ASP760  ASP761  ALA762  ILE779  LEU786  VAL792 
 PHE793  MET794  SER795  GLU796  ALA797  LYS798  CYS799  TRP800  GLU811  SER814 

> <Gold.Protein.RotatedAtoms>
  152.3513  134.7001  160.0235 H   0  0  0  0  0  0  0  0  0  0  0  0  # atno 6907 bound_to 6896
  151.7354  133.3314  159.3359 H   0  0  0  0  0  0  0  0  0  0  0  0  # atno 6908 bound_to 6896
  150.7542  134.6259  159.6205 H   0  0  0  0  0  0  0  0  0  0  0  0  # atno 6909 bound_to 6896
  144.7266  139.9511  143.6432 H   0  0  0  0  0  0  0  0  0  0  0  0  # atno 7974 bound_to 7965
  156.2063  140.1762  156.7792 H   0  0  0  0  0  0  0  0  0  0  0  0  # atno 8008 bound_to 7997
  154.5660  140.0691  156.8922 H   0  0  0  0  0  0  0  0  0  0  0  0  # atno 8009 bound_to 7997
  155.2760  140.3346  155.4264 H   0  0  0  0  0  0  0  0  0  0  0  0  # atno 8010 bound_to 7997
  140.6512  143.2567  151.4717 H   0  0  0  0  0  0  0  0  0  0  0  0  # atno 10167 bound_to 10162
  155.9985  130.4807  150.4898 H   0  0  0  0  0  0  0  0  0  0  0  0  # atno 10718 bound_to 10713
  154.6901  135.2969  154.9492 H   0  0  0  0  0  0  0  0  0  0  0  0  # atno 10763 bound_to 10752
  154.0458  135.6651  153.4799 H   0  0  0  0  0  0  0  0  0  0  0  0  # atno 10764 bound_to 10752
  153.0606  135.5118  154.7989 H   0  0  0  0  0  0  0  0  0  0  0  0  # atno 10765 bound_to 10752
  139.8987  134.9572  156.6928 H   0  0  0  0  0  0  0  0  0  0  0  0  # atno 11005 bound_to 11000
  146.0710  139.3699  143.0523 LP  0  0  0  0  0  0  0  0  0  0  0  0  # atno 17320 bound_to 7965
  145.7967  140.9789  143.1020 LP  0  0  0  0  0  0  0  0  0  0  0  0  # atno 17321 bound_to 7965
  139.5728  144.1890  152.1860 LP  0  0  0  0  0  0  0  0  0  0  0  0  # atno 17342 bound_to 10162
  140.1191  144.5389  150.6875 LP  0  0  0  0  0  0  0  0  0  0  0  0  # atno 17343 bound_to 10162
  157.2894  131.0623  151.2144 LP  0  0  0  0  0  0  0  0  0  0  0  0  # atno 17370 bound_to 10713
  157.3162  130.6914  149.6243 LP  0  0  0  0  0  0  0  0  0  0  0  0  # atno 17371 bound_to 10713
  140.7211  133.9140  155.8147 LP  0  0  0  0  0  0  0  0  0  0  0  0  # atno 17394 bound_to 11000
  141.0226  134.0867  157.4103 LP  0  0  0  0  0  0  0  0  0  0  0  0  # atno 17395 bound_to 11000

$$$$
