AV-unprocessed.smi:1731|AV-procd|sdf|6974|dock5
  -GOLD-   22720 8183D 1   1.00000     0.00000
 Structure written by MMmdl.
 41 42  0  0  0  0  0  0  0  0  1 V2000
  151.5336  145.5722  159.9158 C   0  0  0  0  0  0  0  0  0  0  0  0
  151.8820  144.0916  160.1235 C   0  0  2  0  0  0  0  0  0  0  0  0
  152.3988  143.8291  161.5507 C   0  0  0  0  0  0  0  0  0  0  0  0
  152.7489  142.3477  161.7632 C   0  0  0  0  0  0  0  0  0  0  0  0
  153.7685  141.8515  160.7183 C   0  0  1  0  0  0  0  0  0  0  0  0
  154.0223  140.4239  160.8893 N   0  0  0  0  0  0  0  0  0  0  0  0
  154.4148  139.8379  162.0295 C   0  0  0  0  0  0  0  0  0  0  0  0
  154.6247  140.4530  163.0754 O   0  0  0  0  0  0  0  0  0  0  0  0
  154.5378  138.5090  161.8778 N   0  0  0  0  0  0  0  0  0  0  0  0
  154.9149  137.5622  162.8632 C   0  0  0  0  0  0  0  0  0  0  0  0
  155.3437  137.8862  164.1764 C   0  0  0  0  0  0  0  0  0  0  0  0
  155.6286  136.7949  164.8704 N   0  0  0  0  0  0  0  0  0  0  0  0
  155.3896  135.7640  164.0214 N   0  0  0  0  0  0  0  0  0  0  0  0
  155.6018  134.3987  164.4688 C   0  0  0  0  0  0  0  0  0  0  0  0
  154.2709  133.6839  164.7109 C   0  0  0  0  0  0  0  0  0  0  0  0
  153.4792  134.1754  165.6677 N   0  0  0  0  0  0  0  0  0  0  0  0
  153.9589  132.7028  164.0398 O   0  0  0  0  0  0  0  0  0  0  0  0
  154.9474  136.1985  162.7867 C   0  0  0  0  0  0  0  0  0  0  0  0
  153.2579  142.1186  159.2906 C   0  0  0  0  0  0  0  0  0  0  0  0
  152.9087  143.6015  159.0848 C   0  0  0  0  0  0  0  0  0  0  0  0
  152.4092  146.2084  160.0482 H   0  0  0  0  0  0  0  0  0  0  0  0
  150.7735  145.8995  160.6258 H   0  0  0  0  0  0  0  0  0  0  0  0
  151.1437  145.7468  158.9127 H   0  0  0  0  0  0  0  0  0  0  0  0
  150.9647  143.5168  159.9867 H   0  0  0  0  0  0  0  0  0  0  0  0
  153.2817  144.4407  161.7422 H   0  0  0  0  0  0  0  0  0  0  0  0
  151.6486  144.1339  162.2812 H   0  0  0  0  0  0  0  0  0  0  0  0
  153.1432  142.2084  162.7704 H   0  0  0  0  0  0  0  0  0  0  0  0
  151.8378  141.7504  161.7040 H   0  0  0  0  0  0  0  0  0  0  0  0
  154.7043  142.3986  160.8499 H   0  0  0  0  0  0  0  0  0  0  0  0
  153.8758  139.8378  160.0805 H   0  0  0  0  0  0  0  0  0  0  0  0
  154.3242  138.1330  160.9657 H   0  0  0  0  0  0  0  0  0  0  0  0
  155.4572  138.8553  164.6395 H   0  0  0  0  0  0  0  0  0  0  0  0
  156.1783  133.8527  163.7203 H   0  0  0  0  0  0  0  0  0  0  0  0
  156.2000  134.4187  165.3809 H   0  0  0  0  0  0  0  0  0  0  0  0
  152.5920  133.7362  165.8657 H   0  0  0  0  0  0  0  0  0  0  0  0
  153.7737  134.9862  166.1928 H   0  0  0  0  0  0  0  0  0  0  0  0
  154.7059  135.5105  161.9900 H   0  0  0  0  0  0  0  0  0  0  0  0
  154.0111  141.8159  158.5621 H   0  0  0  0  0  0  0  0  0  0  0  0
  152.3745  141.5098  159.0922 H   0  0  0  0  0  0  0  0  0  0  0  0
  152.5186  143.7476  158.0770 H   0  0  0  0  0  0  0  0  0  0  0  0
  153.8178  144.2010  159.1531 H   0  0  0  0  0  0  0  0  0  0  0  0
  1  2  1  0  0  0  0
  1 21  1  0  0  0  0
  1 22  1  0  0  0  0
  1 23  1  0  0  0  0
  2 20  1  0  0  0  0
  2  3  1  0  0  0  0
  2 24  1  0  0  0  0
  3  4  1  0  0  0  0
  3 25  1  0  0  0  0
  3 26  1  0  0  0  0
  4  5  1  0  0  0  0
  4 27  1  0  0  0  0
  4 28  1  0  0  0  0
  5  6  1  0  0  0  0
  5 19  1  0  0  0  0
  5 29  1  0  0  0  0
  6  7  1  0  0  0  0
  6 30  1  0  0  0  0
  7  8  2  0  0  0  0
  7  9  1  0  0  0  0
  9 10  1  0  0  0  0
  9 31  1  0  0  0  0
 10 18  2  0  0  0  0
 10 11  1  0  0  0  0
 11 12  2  0  0  0  0
 11 32  1  0  0  0  0
 12 13  1  0  0  0  0
 13 14  1  0  0  0  0
 13 18  1  0  0  0  0
 14 15  1  0  0  0  0
 14 33  1  0  0  0  0
 14 34  1  0  0  0  0
 15 16  1  0  0  0  0
 15 17  2  0  0  0  0
 16 35  1  0  0  0  0
 16 36  1  0  0  0  0
 18 37  1  0  0  0  0
 19 20  1  0  0  0  0
 19 38  1  0  0  0  0
 19 39  1  0  0  0  0
 20 40  1  0  0  0  0
 20 41  1  0  0  0  0
M  END
> <s_m_source_file>
AV-unprocessed.smi

> <i_m_source_file_index>
1731

> <i_lp_mmshare_version>
43012

> <i_f3d_flags>
0

> <s_epik_input>
W0NIM11bQ0BASF0xW0NIMl1bQ0gyXVtDQEhdKFtDSDJdW0NIMl0xKVtOSF1DKD1PKVtOSF1jMltjSF1ubihbY0hdMilbQ0gyXUMoPU8pW05IMl0=

> <s_epik_cmdline>
J2VwaWtfcHl0aG9uJywgJy1waCcsICc3LjAnLCAnLXRuJywgJzgnLCAnLW1hJywgJzIwMCcsICctbWV0YWxfYmluZGluZycsICctaW1hZScsICc8aW5maWxlLm1hZT4nLCAnLW9tYWUnLCAnPG91dGZpbGUubWFlPic=

> <r_lp_tautomer_probability>
1

> <r_epik_Ionization_Penalty>
4.81284e-05

> <r_epik_Ionization_Penalty_Charging>
0

> <r_epik_Ionization_Penalty_Neutral>
4.81284e-05

> <r_epik_State_Penalty>
-0

> <r_epik_Charging_Adjusted_Penalty>
0

> <i_epik_Tot_Q>
0

> <i_epik_Tot_abs_Q>
0

> <r_epik_Metal_State_Penalty>
-0

> <b_epik_Metal_Only>
0

> <s_lp_Force_Field>
OPLS_2005

> <r_lp_Energy>
12.4361

> <b_lp_Chiralities_Consistent>
1

> <s_lp_Variant>
AV-unprocessed.smi:1731-1

> <Gold.Version>
5.8.1

> <Gold.Id.Protein>
6NUR|6NUR_protein|mol2

> <Gold.PLP.Fitness>
40.7116

> <Gold.PLP.PLP>
-41.0956

> <Gold.PLP.part.hbond>
-1.0000

> <Gold.PLP.part.metal>
0.0000

> <Gold.PLP.part.buried>
-5.6984

> <Gold.PLP.part.nonpolar>
-34.6997

> <Gold.PLP.part.repulsive>
0.2293

> <Gold.PLP.ligand.clash>
0.0000

> <Gold.PLP.ligand.torsion>
0.1942

> <Gold.PLP.Chemscore.Hbond>
0.0000

> <Gold.PLP.Chemscore.CHOScore>
0.0000

> <Gold.PLP.Chemscore.Metal>
0.0000

> <Gold.PLP.Chemscore.Internal.Correction>
0.0045

> <Gold.Rescore>
     Score         DG    S(hbond)    S(metal)    S(lipo)     H(rot)  DE(clash)    DE(int)     intcor
     11.42     -12.84       0.00        0.00     104.58       1.90       0.00       1.43       ----

> <Gold.Chemscore.Fitness>
11.4159

> <Gold.Chemscore.DG>
-12.8443

> <Gold.Chemscore.ZeroCoef>
-5.4800

> <Gold.Chemscore.Hbond>
0.0000

> <Gold.Chemscore.Metal>
0.0000

> <Gold.Chemscore.Lipo>
104.5789

> <Gold.Chemscore.Internal_Hbond>
0.0000

> <Gold.Chemscore.DEClash>
0.0015

> <Gold.Chemscore.DEInternal>
1.4269

> <Gold.Chemscore.Rot>
1.9029

> <Gold.Chemscore.Internal.Correction>
   9.000000E+99

> <Gold.Chemscore.Hbond.Weighted>
-0.0000

> <Gold.Chemscore.Metal.Weighted>
-0.0000

> <Gold.Chemscore.Lipo.Weighted>
-12.2357

> <Gold.Chemscore.Internal_Hbond.Weighted>
0.0000

> <Gold.Chemscore.DEClash.Weighted>
0.0015

> <Gold.Chemscore.DEInternal.Weighted>
1.4269

> <Gold.Chemscore.Rot.Weighted>
4.8714

> <Gold.Chemscore.Internal.Correction.Weighted>
   9.000000E+99

> <Gold.Protein.RotatedTorsions>
[ 6907 6896 6895 6894 ] final   62.63 input  -60.11 | X-H torsion
[ 7974 7965 7964 7962 ] final  129.76 input  175.53 | X-H torsion
[ 8008 7997 7996 7995 ] final  149.54 input   59.86 | X-H torsion
[ 10167 10162 10161 10158 ] final  157.70 input  -65.29 | X-H torsion
[ 10718 10713 10712 10709 ] final    7.91 input   66.30 | X-H torsion
[ 10763 10752 10751 10750 ] final   65.50 input  -60.55 | X-H torsion
[ 11005 11000 10999 10996 ] final  -22.32 input  -57.11 | X-H torsion

> <Gold.Protein.ActiveResidues>
 VAL166  LYS551  ARG553  GLY616  TRP617  ASP618  TYR619  PRO620  LYS621  CYS622 
 ASP623  PHE694  ASN695  SER759  ASP760  ASP761  ALA762  ILE779  LEU786  VAL792 
 PHE793  MET794  SER795  GLU796  ALA797  LYS798  CYS799  TRP800  GLU811  SER814 

> <Gold.Protein.RotatedAtoms>
  152.4188  134.5993  159.9995 H   0  0  0  0  0  0  0  0  0  0  0  0  # atno 6907 bound_to 6896
  151.6149  133.3338  159.3083 H   0  0  0  0  0  0  0  0  0  0  0  0  # atno 6908 bound_to 6896
  150.8076  134.7250  159.6724 H   0  0  0  0  0  0  0  0  0  0  0  0  # atno 6909 bound_to 6896
  145.0252  139.4095  143.5177 H   0  0  0  0  0  0  0  0  0  0  0  0  # atno 7974 bound_to 7965
  156.2751  140.2099  156.5874 H   0  0  0  0  0  0  0  0  0  0  0  0  # atno 8008 bound_to 7997
  154.7010  140.0521  157.0481 H   0  0  0  0  0  0  0  0  0  0  0  0  # atno 8009 bound_to 7997
  155.0735  140.3179  155.4626 H   0  0  0  0  0  0  0  0  0  0  0  0  # atno 8010 bound_to 7997
  139.4824  144.4893  151.8332 H   0  0  0  0  0  0  0  0  0  0  0  0  # atno 10167 bound_to 10162
  156.9438  130.5871  149.5653 H   0  0  0  0  0  0  0  0  0  0  0  0  # atno 10718 bound_to 10713
  153.0099  135.5355  154.6676 H   0  0  0  0  0  0  0  0  0  0  0  0  # atno 10763 bound_to 10752
  154.5869  135.2855  155.0678 H   0  0  0  0  0  0  0  0  0  0  0  0  # atno 10764 bound_to 10752
  154.1786  135.6520  153.5080 H   0  0  0  0  0  0  0  0  0  0  0  0  # atno 10765 bound_to 10752
  140.8646  133.7764  156.0114 H   0  0  0  0  0  0  0  0  0  0  0  0  # atno 11005 bound_to 11000
  146.3491  139.9772  142.8699 LP  0  0  0  0  0  0  0  0  0  0  0  0  # atno 17320 bound_to 7965
  145.1843  140.9782  143.4248 LP  0  0  0  0  0  0  0  0  0  0  0  0  # atno 17321 bound_to 7965
  140.4375  144.2031  150.5890 LP  0  0  0  0  0  0  0  0  0  0  0  0  # atno 17342 bound_to 10162
  140.4717  143.2411  151.9080 LP  0  0  0  0  0  0  0  0  0  0  0  0  # atno 17343 bound_to 10162
  156.0392  130.5477  150.8730 LP  0  0  0  0  0  0  0  0  0  0  0  0  # atno 17370 bound_to 10713
  157.5767  131.0946  150.9335 LP  0  0  0  0  0  0  0  0  0  0  0  0  # atno 17371 bound_to 10713
  140.8644  134.2802  157.5220 LP  0  0  0  0  0  0  0  0  0  0  0  0  # atno 17394 bound_to 11000
  139.8708  134.9535  156.4146 LP  0  0  0  0  0  0  0  0  0  0  0  0  # atno 17395 bound_to 11000

$$$$
