AV-unprocessed.smi:21|AV-procd|sdf|129|dock6
  -GOLD-   2262015313D 1   1.00000     0.00000
 Structure written by MMmdl.
 62 65  0  0  0  0  0  0  0  0  2 V2000
  146.7825  132.2937  151.7096 C   0  0  0  0  0  0  0  0  0  0  0  0
  147.0332  133.2105  152.7624 O   0  0  0  0  0  0  0  0  0  0  0  0
  148.3459  133.1149  153.2943 C   0  0  1  0  0  0  0  0  0  0  0  0
  148.5656  134.1736  154.3663 C   0  0  0  0  0  0  0  0  0  0  0  0
  149.7218  133.5943  155.1845 C   0  0  1  0  0  0  0  0  0  0  0  0
  149.7967  134.1562  156.6213 C   0  0  0  0  0  0  0  0  0  0  0  0
  149.1145  135.4394  156.7837 N   0  0  0  0  0  0  0  0  0  0  0  0
  147.6821  135.4056  157.0448 C   0  0  0  0  0  0  0  0  0  0  0  0
  149.7437  136.4320  157.4587 C   0  0  0  0  0  0  0  0  0  0  0  0
  149.9027  136.2602  158.7952 N   0  0  0  0  0  0  0  0  0  0  0  0
  150.4903  137.2084  159.5307 C   0  0  0  0  0  0  0  0  0  0  0  0
  150.9825  138.3844  159.1369 N   0  0  0  0  0  0  0  0  0  0  0  0
  150.8384  138.5557  157.7918 C   0  0  0  0  0  0  0  0  0  0  0  0
  150.2435  137.6367  156.8817 C   0  0  0  0  0  0  0  0  0  0  0  0
  150.2907  138.1574  155.5926 N   0  0  0  0  0  0  0  0  0  0  0  0
  150.8675  139.3190  155.7346 C   0  0  0  0  0  0  0  0  0  0  0  0
  151.2164  139.6428  157.0253 N   0  0  0  0  0  0  0  0  0  0  0  0
  151.8496  140.8680  157.4768 C   0  0  0  0  0  0  0  0  0  0  0  0
  150.8393  141.9543  157.9211 C   0  0  2  0  0  0  0  0  0  0  0  0
  149.5667  141.9996  157.0351 C   0  0  0  0  0  0  0  0  0  0  0  0
  149.8753  142.2671  155.6817 O   0  0  0  0  0  0  0  0  0  0  0  0
  151.5551  143.3247  158.0357 C   0  0  1  0  0  0  0  0  0  0  0  0
  150.7000  144.4856  158.5341 C   0  0  0  0  0  0  0  0  0  0  0  0
  151.7290  145.3835  159.2059 C   0  0  0  0  0  0  0  0  0  0  0  0
  152.5823  144.4503  159.8461 O   0  0  0  0  0  0  0  0  0  0  0  0
  152.7844  143.3538  158.9618 C   0  0  0  0  0  0  0  0  0  0  0  0
  149.4988  132.1299  155.1828 N   0  3  2  0  0  0  0  0  0  0  0  0
  150.7436  131.3309  155.2108 C   0  0  0  0  0  0  0  0  0  0  0  0
  148.6010  131.8032  154.0493 C   0  0  0  0  0  0  0  0  0  0  0  0
  149.0946  133.2503  152.5112 H   0  0  0  0  0  0  0  0  0  0  0  0
  150.6461  133.7875  154.6379 H   0  0  0  0  0  0  0  0  0  0  0  0
  145.7668  132.4336  151.3398 H   0  0  0  0  0  0  0  0  0  0  0  0
  146.8755  131.2605  152.0459 H   0  0  0  0  0  0  0  0  0  0  0  0
  147.4673  132.4535  150.8759 H   0  0  0  0  0  0  0  0  0  0  0  0
  148.7910  135.1563  153.9505 H   0  0  0  0  0  0  0  0  0  0  0  0
  147.6725  134.2675  154.9862 H   0  0  0  0  0  0  0  0  0  0  0  0
  149.3475  133.4367  157.3070 H   0  0  0  0  0  0  0  0  0  0  0  0
  150.8329  134.2575  156.9424 H   0  0  0  0  0  0  0  0  0  0  0  0
  147.2040  136.3285  156.7151 H   0  0  0  0  0  0  0  0  0  0  0  0
  147.4869  135.2781  158.1103 H   0  0  0  0  0  0  0  0  0  0  0  0
  147.2094  134.5798  156.5125 H   0  0  0  0  0  0  0  0  0  0  0  0
  150.5741  136.9967  160.5866 H   0  0  0  0  0  0  0  0  0  0  0  0
  151.0433  139.9813  154.8995 H   0  0  0  0  0  0  0  0  0  0  0  0
  152.5158  140.6107  158.3011 H   0  0  0  0  0  0  0  0  0  0  0  0
  152.4844  141.2453  156.6743 H   0  0  0  0  0  0  0  0  0  0  0  0
  150.5209  141.7061  158.9352 H   0  0  0  0  0  0  0  0  0  0  0  0
  149.0365  141.0482  157.0570 H   0  0  0  0  0  0  0  0  0  0  0  0
  148.8670  142.7536  157.3960 H   0  0  0  0  0  0  0  0  0  0  0  0
  149.4614  143.0807  155.4369 H   0  0  0  0  0  0  0  0  0  0  0  0
  151.9188  143.5951  157.0427 H   0  0  0  0  0  0  0  0  0  0  0  0
  150.1592  144.9903  157.7331 H   0  0  0  0  0  0  0  0  0  0  0  0
  149.9726  144.1597  159.2766 H   0  0  0  0  0  0  0  0  0  0  0  0
  152.2944  145.9550  158.4686 H   0  0  0  0  0  0  0  0  0  0  0  0
  151.2835  146.0786  159.9179 H   0  0  0  0  0  0  0  0  0  0  0  0
  152.9257  142.4345  159.5298 H   0  0  0  0  0  0  0  0  0  0  0  0
  153.6933  143.5203  158.3822 H   0  0  0  0  0  0  0  0  0  0  0  0
  151.3457  131.5079  154.3185 H   0  0  0  0  0  0  0  0  0  0  0  0
  150.5119  130.2668  155.2626 H   0  0  0  0  0  0  0  0  0  0  0  0
  151.3444  131.5852  156.0843 H   0  0  0  0  0  0  0  0  0  0  0  0
  147.6705  131.4170  154.4670 H   0  0  0  0  0  0  0  0  0  0  0  0
  149.0082  131.0345  153.3907 H   0  0  0  0  0  0  0  0  0  0  0  0
  148.9819  131.9122  156.0230 H   0  0  0  0  0  0  0  0  0  0  0  0
  1  2  1  0  0  0  0
  1 32  1  0  0  0  0
  1 33  1  0  0  0  0
  1 34  1  0  0  0  0
  2  3  1  0  0  0  0
  3 30  1  0  0  0  0
  3 29  1  0  0  0  0
  3  4  1  0  0  0  0
  4  5  1  0  0  0  0
  4 35  1  0  0  0  0
  4 36  1  0  0  0  0
  5 31  1  0  0  0  0
  5  6  1  0  0  0  0
  5 27  1  0  0  0  0
  6  7  1  0  0  0  0
  6 37  1  0  0  0  0
  6 38  1  0  0  0  0
  7  8  1  0  0  0  0
  7  9  1  0  0  0  0
  8 39  1  0  0  0  0
  8 40  1  0  0  0  0
  8 41  1  0  0  0  0
  9 14  1  0  0  0  0
  9 10  2  0  0  0  0
 10 11  1  0  0  0  0
 11 12  2  0  0  0  0
 11 42  1  0  0  0  0
 12 13  1  0  0  0  0
 13 17  1  0  0  0  0
 13 14  2  0  0  0  0
 14 15  1  0  0  0  0
 15 16  2  0  0  0  0
 16 17  1  0  0  0  0
 16 43  1  0  0  0  0
 17 18  1  0  0  0  0
 18 19  1  0  0  0  0
 18 44  1  0  0  0  0
 18 45  1  0  0  0  0
 19 20  1  0  0  0  0
 19 22  1  0  0  0  0
 19 46  1  0  0  0  0
 20 21  1  0  0  0  0
 20 47  1  0  0  0  0
 20 48  1  0  0  0  0
 21 49  1  0  0  0  0
 22 26  1  0  0  0  0
 22 23  1  0  0  0  0
 22 50  1  0  0  0  0
 23 24  1  0  0  0  0
 23 51  1  0  0  0  0
 23 52  1  0  0  0  0
 24 25  1  0  0  0  0
 24 53  1  0  0  0  0
 24 54  1  0  0  0  0
 25 26  1  0  0  0  0
 26 55  1  0  0  0  0
 26 56  1  0  0  0  0
 27 28  1  0  0  0  0
 27 29  1  0  0  0  0
 27 62  1  0  0  0  0
 28 57  1  0  0  0  0
 28 58  1  0  0  0  0
 28 59  1  0  0  0  0
 29 60  1  0  0  0  0
 29 61  1  0  0  0  0
M  CHG  1  27   1
M  END
> <s_m_source_file>
AV-unprocessed.smi

> <i_m_source_file_index>
21

> <i_lp_mmshare_version>
43012

> <i_f3d_flags>
0

> <s_epik_input>
W0NIM11PW0NASF0xW0NIMl1bQ0BIXShOKFtDSDNdKVtDSDJdMSlbQ0gyXU4oW0NIM10pYyhuW2NIXW4yKWMoYzIzKW5bY0hdbjNbQ0gyXVtDQEhdKFtDSDJdW09IXSlbQ0BASF00W0NIMl1bQ0gyXU9bQ0gyXTQ=

> <s_epik_cmdline>
J2VwaWtfcHl0aG9uJywgJy1waCcsICc3LjAnLCAnLXRuJywgJzgnLCAnLW1hJywgJzIwMCcsICctbWV0YWxfYmluZGluZycsICctaW1hZScsICc8aW5maWxlLm1hZT4nLCAnLW9tYWUnLCAnPG91dGZpbGUubWFlPic=

> <r_lp_tautomer_probability>
1

> <r_epik_Ionization_Penalty>
0.0157465

> <r_epik_Ionization_Penalty_Charging>
0.015354

> <r_epik_Ionization_Penalty_Neutral>
0.000392529

> <r_epik_State_Penalty>
0.0120612

> <r_epik_Charging_Adjusted_Penalty>
0.0274152

> <i_epik_Tot_Q>
1

> <i_epik_Tot_abs_Q>
1

> <r_epik_Metal_State_Penalty>
0.0121253

> <b_epik_Metal_Only>
0

> <s_lp_Force_Field>
OPLS_2005

> <r_lp_Energy>
59.3761

> <b_lp_Chiralities_Consistent>
1

> <s_lp_Variant>
AV-unprocessed.smi:21-9

> <Gold.Version>
5.8.1

> <Gold.Id.Protein>
6NUR|6NUR_protein|mol2

> <Gold.PLP.Fitness>
43.7676

> <Gold.PLP.PLP>
-40.5065

> <Gold.PLP.part.hbond>
-2.0000

> <Gold.PLP.part.metal>
0.0000

> <Gold.PLP.part.buried>
-3.0430

> <Gold.PLP.part.nonpolar>
-35.3945

> <Gold.PLP.part.repulsive>
0.1930

> <Gold.PLP.ligand.clash>
0.0000

> <Gold.PLP.ligand.torsion>
1.8316

> <Gold.PLP.Chemscore.Hbond>
1.9920

> <Gold.PLP.Chemscore.CHOScore>
0.0000

> <Gold.PLP.Chemscore.Metal>
0.0000

> <Gold.Chemscore.Hbonds>
donor molecule, donor type, donor heavy atom, donor atom, acceptor molecule, acceptor atom, score
      L1  H    21    49       P1  8028  1.00
      P1  H  6896  6907       L1    10  0.98

> <Gold.PLP.Chemscore.Internal.Correction>
0.9483

> <Gold.Rescore>
     Score         DG    S(hbond)    S(metal)    S(lipo)     H(rot)  DE(clash)    DE(int)     intcor
      9.66     -12.03       1.01        0.00     100.21       3.35       0.01       2.37       ----

> <Gold.Chemscore.Fitness>
9.6557

> <Gold.Chemscore.DG>
-12.0296

> <Gold.Chemscore.ZeroCoef>
-5.4800

> <Gold.Chemscore.Hbond>
1.0145

> <Gold.Chemscore.Metal>
0.0000

> <Gold.Chemscore.Lipo>
100.2131

> <Gold.Chemscore.Internal_Hbond>
0.0000

> <Gold.Chemscore.DEClash>
0.0069

> <Gold.Chemscore.DEInternal>
2.3670

> <Gold.Chemscore.Rot>
3.3452

> <Gold.Chemscore.Internal.Correction>
   9.000000E+99

> <Gold.Chemscore.Hbonds>
donor molecule, donor type, donor heavy atom, donor atom, acceptor molecule, acceptor atom, score
      L1  H    21    49       P1  8028  0.99
      P1  H  6896  6907       L1    10  0.27

> <Gold.Chemscore.Hbond.Weighted>
-3.3883

> <Gold.Chemscore.Metal.Weighted>
-0.0000

> <Gold.Chemscore.Lipo.Weighted>
-11.7249

> <Gold.Chemscore.Internal_Hbond.Weighted>
0.0000

> <Gold.Chemscore.DEClash.Weighted>
0.0069

> <Gold.Chemscore.DEInternal.Weighted>
2.3670

> <Gold.Chemscore.Rot.Weighted>
8.5636

> <Gold.Chemscore.Internal.Correction.Weighted>
   9.000000E+99

> <Gold.Protein.RotatedTorsions>
[ 6907 6896 6895 6894 ] final  -68.62 input  -60.11 | X-H torsion
[ 7974 7965 7964 7962 ] final -174.94 input  175.53 | X-H torsion
[ 8008 7997 7996 7995 ] final   32.77 input   59.86 | X-H torsion
[ 10167 10162 10161 10158 ] final  -87.07 input  -65.29 | X-H torsion
[ 10718 10713 10712 10709 ] final  -96.80 input   66.30 | X-H torsion
[ 10763 10752 10751 10750 ] final  -17.62 input  -60.55 | X-H torsion
[ 11005 11000 10999 10996 ] final -155.03 input  -57.11 | X-H torsion

> <Gold.Protein.ActiveResidues>
 VAL166  LYS551  ARG553  GLY616  TRP617  ASP618  TYR619  PRO620  LYS621  CYS622 
 ASP623  PHE694  ASN695  SER759  ASP760  ASP761  ALA762  ILE779  LEU786  VAL792 
 PHE793  MET794  SER795  GLU796  ALA797  LYS798  CYS799  TRP800  GLU811  SER814 

> <Gold.Protein.RotatedAtoms>
  150.7347  134.5714  159.5891 H   0  0  0  0  0  0  0  0  0  0  0  0  # atno 6907 bound_to 6896
  152.3151  134.7446  160.0336 H   0  0  0  0  0  0  0  0  0  0  0  0  # atno 6908 bound_to 6896
  151.7981  133.3331  159.3555 H   0  0  0  0  0  0  0  0  0  0  0  0  # atno 6909 bound_to 6896
  144.7130  140.1396  143.6392 H   0  0  0  0  0  0  0  0  0  0  0  0  # atno 7974 bound_to 7965
  155.1279  140.3254  155.4481 H   0  0  0  0  0  0  0  0  0  0  0  0  # atno 8008 bound_to 7997
  156.2643  140.2015  156.6347 H   0  0  0  0  0  0  0  0  0  0  0  0  # atno 8009 bound_to 7997
  154.6635  140.0544  157.0075 H   0  0  0  0  0  0  0  0  0  0  0  0  # atno 8010 bound_to 7997
  140.3881  143.2717  151.9300 H   0  0  0  0  0  0  0  0  0  0  0  0  # atno 10167 bound_to 10162
  156.0070  130.5167  150.6280 H   0  0  0  0  0  0  0  0  0  0  0  0  # atno 10718 bound_to 10713
  153.5767  135.7006  153.5481 H   0  0  0  0  0  0  0  0  0  0  0  0  # atno 10763 bound_to 10752
  153.3297  135.4051  155.1485 H   0  0  0  0  0  0  0  0  0  0  0  0  # atno 10764 bound_to 10752
  154.8624  135.3716  154.5292 H   0  0  0  0  0  0  0  0  0  0  0  0  # atno 10765 bound_to 10752
  140.6909  134.4042  157.5219 H   0  0  0  0  0  0  0  0  0  0  0  0  # atno 11005 bound_to 11000
  145.9213  139.2548  143.1379 LP  0  0  0  0  0  0  0  0  0  0  0  0  # atno 17320 bound_to 7965
  145.9617  140.8830  143.0207 LP  0  0  0  0  0  0  0  0  0  0  0  0  # atno 17321 bound_to 7965
  139.4791  144.5754  151.8020 LP  0  0  0  0  0  0  0  0  0  0  0  0  # atno 17342 bound_to 10162
  140.4869  144.1368  150.5942 LP  0  0  0  0  0  0  0  0  0  0  0  0  # atno 17343 bound_to 10162
  157.4083  131.0820  151.1245 LP  0  0  0  0  0  0  0  0  0  0  0  0  # atno 17370 bound_to 10713
  157.1884  130.6341  149.5696 LP  0  0  0  0  0  0  0  0  0  0  0  0  # atno 17371 bound_to 10713
  139.8924  134.8757  156.2275 LP  0  0  0  0  0  0  0  0  0  0  0  0  # atno 17394 bound_to 11000
  141.0242  133.7024  156.1319 LP  0  0  0  0  0  0  0  0  0  0  0  0  # atno 17395 bound_to 11000

$$$$
