AV-unprocessed.smi:1163|AV-procd|sdf|4921|dock6
  -GOLD-   22720 3503D 1   1.00000     0.00000
 Structure written by MMmdl.
 39 40  0  0  0  0  0  0  0  0  1 V2000
  135.8504  138.7214  154.4642 C   0  0  0  0  0  0  0  0  0  0  0  0
  136.7541  137.6406  154.6685 O   0  0  0  0  0  0  0  0  0  0  0  0
  138.0505  137.7765  154.2151 C   0  0  0  0  0  0  0  0  0  0  0  0
  138.9161  136.6686  154.3053 C   0  0  0  0  0  0  0  0  0  0  0  0
  140.2381  136.8017  153.8406 C   0  0  0  0  0  0  0  0  0  0  0  0
  140.6548  138.0315  153.2926 C   0  0  0  0  0  0  0  0  0  0  0  0
  141.9996  138.1390  152.8462 N   0  0  0  0  0  0  0  0  0  0  0  0
  142.9382  137.1798  152.7721 C   0  0  0  0  0  0  0  0  0  0  0  0
  142.7863  136.0073  153.1138 O   0  0  0  0  0  0  0  0  0  0  0  0
  144.0887  137.6704  152.2906 N   0  0  0  0  0  0  0  0  0  0  0  0
  145.3239  136.9165  152.0956 C   0  0  1  0  0  0  0  0  0  0  0  0
  145.7680  136.1929  153.3643 C   0  0  0  0  0  0  0  0  0  0  0  0
  146.2436  134.8409  152.8454 C   0  0  0  0  0  0  0  0  0  0  0  0
  145.2838  134.5502  151.7918 N   0  0  0  0  0  0  0  0  0  0  0  0
  145.7192  133.4294  150.9610 C   0  0  0  0  0  0  0  0  0  0  0  0
  144.5455  132.6187  150.3771 C   0  0  0  0  0  0  0  0  0  0  0  0
  143.4496  132.8865  151.0859 F   0  0  0  0  0  0  0  0  0  0  0  0
  144.3246  132.9653  149.1085 F   0  0  0  0  0  0  0  0  0  0  0  0
  144.7730  131.3069  150.4436 F   0  0  0  0  0  0  0  0  0  0  0  0
  145.1290  135.8025  151.0557 C   0  0  0  0  0  0  0  0  0  0  0  0
  139.7139  139.0895  153.2583 C   0  0  0  0  0  0  0  0  0  0  0  0
  138.4452  138.9686  153.7038 N   0  0  0  0  0  0  0  0  0  0  0  0
  134.8726  138.4551  154.8653 H   0  0  0  0  0  0  0  0  0  0  0  0
  135.7229  138.9413  153.4031 H   0  0  0  0  0  0  0  0  0  0  0  0
  136.1853  139.6227  154.9797 H   0  0  0  0  0  0  0  0  0  0  0  0
  138.5720  135.7343  154.7237 H   0  0  0  0  0  0  0  0  0  0  0  0
  140.9203  135.9661  153.9014 H   0  0  0  0  0  0  0  0  0  0  0  0
  142.2999  139.0713  152.6025 H   0  0  0  0  0  0  0  0  0  0  0  0
  144.1171  138.6484  152.0418 H   0  0  0  0  0  0  0  0  0  0  0  0
  146.1326  137.5642  151.7523 H   0  0  0  0  0  0  0  0  0  0  0  0
  146.5477  136.7314  153.9037 H   0  0  0  0  0  0  0  0  0  0  0  0
  144.9291  136.0471  154.0470 H   0  0  0  0  0  0  0  0  0  0  0  0
  147.2489  134.9272  152.4291 H   0  0  0  0  0  0  0  0  0  0  0  0
  146.2511  134.0717  153.6181 H   0  0  0  0  0  0  0  0  0  0  0  0
  146.3763  133.7806  150.1638 H   0  0  0  0  0  0  0  0  0  0  0  0
  146.3166  132.7632  151.5850 H   0  0  0  0  0  0  0  0  0  0  0  0
  144.1592  135.8488  150.5590 H   0  0  0  0  0  0  0  0  0  0  0  0
  145.9020  135.8863  150.2898 H   0  0  0  0  0  0  0  0  0  0  0  0
  139.9667  140.0707  152.8883 H   0  0  0  0  0  0  0  0  0  0  0  0
  1  2  1  0  0  0  0
  1 23  1  0  0  0  0
  1 24  1  0  0  0  0
  1 25  1  0  0  0  0
  2  3  1  0  0  0  0
  3 22  1  0  0  0  0
  3  4  2  0  0  0  0
  4  5  1  0  0  0  0
  4 26  1  0  0  0  0
  5  6  2  0  0  0  0
  5 27  1  0  0  0  0
  6  7  1  0  0  0  0
  6 21  1  0  0  0  0
  7  8  1  0  0  0  0
  7 28  1  0  0  0  0
  8  9  2  0  0  0  0
  8 10  1  0  0  0  0
 10 11  1  0  0  0  0
 10 29  1  0  0  0  0
 11 20  1  0  0  0  0
 11 12  1  0  0  0  0
 11 30  1  0  0  0  0
 12 13  1  0  0  0  0
 12 31  1  0  0  0  0
 12 32  1  0  0  0  0
 13 14  1  0  0  0  0
 13 33  1  0  0  0  0
 13 34  1  0  0  0  0
 14 15  1  0  0  0  0
 14 20  1  0  0  0  0
 15 16  1  0  0  0  0
 15 35  1  0  0  0  0
 15 36  1  0  0  0  0
 16 17  1  0  0  0  0
 16 18  1  0  0  0  0
 16 19  1  0  0  0  0
 20 37  1  0  0  0  0
 20 38  1  0  0  0  0
 21 22  2  0  0  0  0
 21 39  1  0  0  0  0
M  END
> <s_m_source_file>
AV-unprocessed.smi

> <i_m_source_file_index>
1163

> <i_lp_mmshare_version>
43012

> <i_f3d_flags>
0

> <s_epik_input>
W0NIM11PYzFbY0hdW2NIXWMoW2NIXW4xKVtOSF1DKD1PKVtOSF1bQ0BASF0yW0NIMl1bQ0gyXU4oW0NIMl0yKVtDSDJdQyhGKShGKUY=

> <s_epik_cmdline>
J2VwaWtfcHl0aG9uJywgJy1waCcsICc3LjAnLCAnLXRuJywgJzgnLCAnLW1hJywgJzIwMCcsICctbWV0YWxfYmluZGluZycsICctaW1hZScsICc8aW5maWxlLm1hZT4nLCAnLW9tYWUnLCAnPG91dGZpbGUubWFlPic=

> <r_lp_tautomer_probability>
1

> <r_epik_Ionization_Penalty>
0.0970123

> <r_epik_Ionization_Penalty_Charging>
0

> <r_epik_Ionization_Penalty_Neutral>
0.0970123

> <r_epik_State_Penalty>
0.0870533

> <r_epik_Charging_Adjusted_Penalty>
0.0870533

> <i_epik_Tot_Q>
0

> <i_epik_Tot_abs_Q>
0

> <r_epik_Metal_State_Penalty>
0.0870519

> <b_epik_Metal_Only>
0

> <s_lp_Force_Field>
OPLS_2005

> <r_lp_Energy>
29.6524

> <b_lp_Chiralities_Consistent>
1

> <s_lp_Variant>
AV-unprocessed.smi:1163-2

> <Gold.Version>
5.8.1

> <Gold.Id.Protein>
6NUR|6NUR_protein|mol2

> <Gold.PLP.Fitness>
47.9206

> <Gold.PLP.PLP>
-41.2786

> <Gold.PLP.part.hbond>
-3.0000

> <Gold.PLP.part.metal>
0.0000

> <Gold.PLP.part.buried>
-5.6985

> <Gold.PLP.part.nonpolar>
-33.1505

> <Gold.PLP.part.repulsive>
0.4120

> <Gold.PLP.ligand.clash>
0.0000

> <Gold.PLP.ligand.torsion>
1.3339

> <Gold.PLP.Chemscore.Hbond>
1.9920

> <Gold.PLP.Chemscore.CHOScore>
0.9438

> <Gold.PLP.Chemscore.Metal>
0.0000

> <Gold.Chemscore.Hbonds>
donor molecule, donor type, donor heavy atom, donor atom, acceptor molecule, acceptor atom, score
      L1  H     7    28       P1 10175  1.00
      L1  H    10    29       P1 10175  0.99
      L1  C    21    39       P1 10160  0.90

> <Gold.PLP.Chemscore.Internal.Correction>
0.5026

> <Gold.Rescore>
     Score         DG    S(hbond)    S(metal)    S(lipo)     H(rot)  DE(clash)    DE(int)     intcor
     11.07     -14.35       1.86        0.00      58.76       1.65       0.04       3.24       ----

> <Gold.Chemscore.Fitness>
11.0679

> <Gold.Chemscore.DG>
-14.3520

> <Gold.Chemscore.ZeroCoef>
-5.4800

> <Gold.Chemscore.Hbond>
1.8638

> <Gold.Chemscore.Metal>
0.0000

> <Gold.Chemscore.Lipo>
58.7605

> <Gold.Chemscore.Internal_Hbond>
0.0000

> <Gold.Chemscore.DEClash>
0.0398

> <Gold.Chemscore.DEInternal>
3.2443

> <Gold.Chemscore.Rot>
1.6515

> <Gold.Chemscore.Internal.Correction>
   9.000000E+99

> <Gold.Chemscore.Hbonds>
donor molecule, donor type, donor heavy atom, donor atom, acceptor molecule, acceptor atom, score
      L1  H     7    28       P1 10175  0.92
      L1  H    10    29       P1 10175  0.93

> <Gold.Chemscore.Hbond.Weighted>
-6.2249

> <Gold.Chemscore.Metal.Weighted>
-0.0000

> <Gold.Chemscore.Lipo.Weighted>
-6.8750

> <Gold.Chemscore.Internal_Hbond.Weighted>
0.0000

> <Gold.Chemscore.DEClash.Weighted>
0.0398

> <Gold.Chemscore.DEInternal.Weighted>
3.2443

> <Gold.Chemscore.Rot.Weighted>
4.2279

> <Gold.Chemscore.Internal.Correction.Weighted>
   9.000000E+99

> <Gold.Protein.RotatedTorsions>
[ 6907 6896 6895 6894 ] final -140.20 input  -60.11 | X-H torsion
[ 7974 7965 7964 7962 ] final -157.97 input  175.53 | X-H torsion
[ 8008 7997 7996 7995 ] final    5.70 input   59.86 | X-H torsion
[ 10167 10162 10161 10158 ] final  -32.63 input  -65.29 | X-H torsion
[ 10718 10713 10712 10709 ] final   27.67 input   66.30 | X-H torsion
[ 10763 10752 10751 10750 ] final -103.54 input  -60.55 | X-H torsion
[ 11005 11000 10999 10996 ] final   94.84 input  -57.11 | X-H torsion

> <Gold.Protein.ActiveResidues>
 VAL166  LYS551  ARG553  GLY616  TRP617  ASP618  TYR619  PRO620  LYS621  CYS622 
 ASP623  PHE694  ASN695  SER759  ASP760  ASP761  ALA762  ILE779  LEU786  VAL792 
 PHE793  MET794  SER795  GLU796  ALA797  LYS798  CYS799  TRP800  GLU811  SER814 

> <Gold.Protein.RotatedAtoms>
  151.0577  133.5571  159.2636 H   0  0  0  0  0  0  0  0  0  0  0  0  # atno 6907 bound_to 6896
  151.2558  135.0636  159.9089 H   0  0  0  0  0  0  0  0  0  0  0  0  # atno 6908 bound_to 6896
  152.5392  134.0330  159.8087 H   0  0  0  0  0  0  0  0  0  0  0  0  # atno 6909 bound_to 6896
  144.7525  140.3894  143.6037 H   0  0  0  0  0  0  0  0  0  0  0  0  # atno 7974 bound_to 7965
  154.7317  140.2731  155.6451 H   0  0  0  0  0  0  0  0  0  0  0  0  # atno 8008 bound_to 7997
  156.2851  140.2714  156.1944 H   0  0  0  0  0  0  0  0  0  0  0  0  # atno 8009 bound_to 7997
  155.0373  140.0371  157.2486 H   0  0  0  0  0  0  0  0  0  0  0  0  # atno 8010 bound_to 7997
  140.7218  143.3680  151.1833 H   0  0  0  0  0  0  0  0  0  0  0  0  # atno 10167 bound_to 10162
  157.2233  130.6989  149.6280 H   0  0  0  0  0  0  0  0  0  0  0  0  # atno 10718 bound_to 10713
  154.7814  135.4820  153.9853 H   0  0  0  0  0  0  0  0  0  0  0  0  # atno 10763 bound_to 10752
  153.1499  135.6789  153.8905 H   0  0  0  0  0  0  0  0  0  0  0  0  # atno 10764 bound_to 10752
  153.8552  135.3162  155.3413 H   0  0  0  0  0  0  0  0  0  0  0  0  # atno 10765 bound_to 10752
  139.8794  134.8867  156.3923 H   0  0  0  0  0  0  0  0  0  0  0  0  # atno 11005 bound_to 11000
  145.6893  139.1635  143.2656 LP  0  0  0  0  0  0  0  0  0  0  0  0  # atno 17320 bound_to 7965
  146.1494  140.6946  142.9329 LP  0  0  0  0  0  0  0  0  0  0  0  0  # atno 17321 bound_to 7965
  139.7245  143.9170  152.2998 LP  0  0  0  0  0  0  0  0  0  0  0  0  # atno 17342 bound_to 10162
  139.8938  144.6950  150.8741 LP  0  0  0  0  0  0  0  0  0  0  0  0  # atno 17343 bound_to 10162
  155.9680  130.4513  150.5729 LP  0  0  0  0  0  0  0  0  0  0  0  0  # atno 17370 bound_to 10713
  157.3554  131.0740  151.1680 LP  0  0  0  0  0  0  0  0  0  0  0  0  # atno 17371 bound_to 10713
  140.9324  133.7570  156.0042 LP  0  0  0  0  0  0  0  0  0  0  0  0  # atno 17394 bound_to 11000
  140.8315  134.3173  157.5347 LP  0  0  0  0  0  0  0  0  0  0  0  0  # atno 17395 bound_to 11000

$$$$
