AV-unprocessed.smi:3202|AV-procd|sdf|12244|dock1
  -GOLD-   2272018 73D 1   1.00000     0.00000
 Structure written by MMmdl.
 43 44  0  0  0  0  0  0  0  0  2 V2000
  146.5479  138.7851  152.2304 C   0  0  0  0  0  0  0  0  0  0  0  0
  147.4476  139.4722  153.2003 C   0  0  0  0  0  0  0  0  0  0  0  0
  147.6623  140.7979  153.4526 C   0  0  0  0  0  0  0  0  0  0  0  0
  148.6381  140.8059  154.4921 C   0  0  0  0  0  0  0  0  0  0  0  0
  149.2480  142.0002  155.1754 C   0  0  0  0  0  0  0  0  0  0  0  0
  150.2122  141.6295  156.3211 C   0  0  1  0  0  0  0  0  0  0  0  0
  151.3792  140.7334  155.8735 C   0  0  0  0  0  0  0  0  0  0  0  0
  150.7502  142.8674  156.9282 N   0  3  0  0  0  0  0  0  0  0  0  0
  151.1307  142.7678  158.3559 C   0  0  1  0  0  0  0  0  0  0  0  0
  152.2289  141.7287  158.6240 C   0  0  0  0  0  0  0  0  0  0  0  0
  152.9221  142.1914  159.9122 C   0  0  0  0  0  0  0  0  0  0  0  0
  152.3647  143.5882  160.2262 C   0  0  0  0  0  0  0  0  0  0  0  0
  151.6807  144.0868  158.9399 C   0  0  0  0  0  0  0  0  0  0  0  0
  152.7250  144.7615  158.0199 C   0  0  0  0  0  0  0  0  0  0  0  0
  150.5537  145.0866  159.2601 C   0  0  0  0  0  0  0  0  0  0  0  0
  148.9990  139.5830  154.8550 N   0  0  0  0  0  0  0  0  0  0  0  0
  148.2671  138.7795  154.0613 N   0  0  0  0  0  0  0  0  0  0  0  0
  148.3366  137.7728  154.1160 H   0  0  0  0  0  0  0  0  0  0  0  0
  146.0299  139.5078  151.5995 H   0  0  0  0  0  0  0  0  0  0  0  0
  145.7955  138.1935  152.7524 H   0  0  0  0  0  0  0  0  0  0  0  0
  147.1148  138.1173  151.5812 H   0  0  0  0  0  0  0  0  0  0  0  0
  147.1909  141.6391  152.9663 H   0  0  0  0  0  0  0  0  0  0  0  0
  149.7711  142.6172  154.4428 H   0  0  0  0  0  0  0  0  0  0  0  0
  148.4490  142.6290  155.5706 H   0  0  0  0  0  0  0  0  0  0  0  0
  149.6405  141.0795  157.0703 H   0  0  0  0  0  0  0  0  0  0  0  0
  151.0284  139.7673  155.5109 H   0  0  0  0  0  0  0  0  0  0  0  0
  152.0600  140.5336  156.7014 H   0  0  0  0  0  0  0  0  0  0  0  0
  151.9559  141.2010  155.0745 H   0  0  0  0  0  0  0  0  0  0  0  0
  151.5574  143.1656  156.3996 H   0  0  0  0  0  0  0  0  0  0  0  0
  150.2437  142.4849  158.9266 H   0  0  0  0  0  0  0  0  0  0  0  0
  151.8269  140.7192  158.7155 H   0  0  0  0  0  0  0  0  0  0  0  0
  152.9529  141.7171  157.8080 H   0  0  0  0  0  0  0  0  0  0  0  0
  152.7303  141.5053  160.7379 H   0  0  0  0  0  0  0  0  0  0  0  0
  154.0021  142.2287  159.7654 H   0  0  0  0  0  0  0  0  0  0  0  0
  151.6283  143.4951  161.0259 H   0  0  0  0  0  0  0  0  0  0  0  0
  153.1365  144.2691  160.5876 H   0  0  0  0  0  0  0  0  0  0  0  0
  153.1706  145.6294  158.5072 H   0  0  0  0  0  0  0  0  0  0  0  0
  152.2768  145.1135  157.0903 H   0  0  0  0  0  0  0  0  0  0  0  0
  153.5396  144.0862  157.7575 H   0  0  0  0  0  0  0  0  0  0  0  0
  150.9472  145.9779  159.7505 H   0  0  0  0  0  0  0  0  0  0  0  0
  149.8052  144.6522  159.9238 H   0  0  0  0  0  0  0  0  0  0  0  0
  150.0402  145.4092  158.3539 H   0  0  0  0  0  0  0  0  0  0  0  0
  150.0393  143.5802  156.8482 H   0  0  0  0  0  0  0  0  0  0  0  0
  1  2  1  0  0  0  0
  1 19  1  0  0  0  0
  1 20  1  0  0  0  0
  1 21  1  0  0  0  0
  2 17  1  0  0  0  0
  2  3  2  0  0  0  0
  3  4  1  0  0  0  0
  3 22  1  0  0  0  0
  4  5  1  0  0  0  0
  4 16  2  0  0  0  0
  5  6  1  0  0  0  0
  5 23  1  0  0  0  0
  5 24  1  0  0  0  0
  6  7  1  0  0  0  0
  6  8  1  0  0  0  0
  6 25  1  0  0  0  0
  7 26  1  0  0  0  0
  7 27  1  0  0  0  0
  7 28  1  0  0  0  0
  8  9  1  0  0  0  0
  8 29  1  0  0  0  0
  8 43  1  0  0  0  0
  9 13  1  0  0  0  0
  9 10  1  0  0  0  0
  9 30  1  0  0  0  0
 10 11  1  0  0  0  0
 10 31  1  0  0  0  0
 10 32  1  0  0  0  0
 11 12  1  0  0  0  0
 11 33  1  0  0  0  0
 11 34  1  0  0  0  0
 12 13  1  0  0  0  0
 12 35  1  0  0  0  0
 12 36  1  0  0  0  0
 13 14  1  0  0  0  0
 13 15  1  0  0  0  0
 14 37  1  0  0  0  0
 14 38  1  0  0  0  0
 14 39  1  0  0  0  0
 15 40  1  0  0  0  0
 15 41  1  0  0  0  0
 15 42  1  0  0  0  0
 16 17  1  0  0  0  0
 17 18  1  0  0  0  0
M  CHG  1   8   1
M  END
> <s_m_source_file>
AV-unprocessed.smi

> <i_m_source_file_index>
3202

> <i_lp_mmshare_version>
43012

> <i_f3d_flags>
0

> <s_epik_input>
W0NIM11jMVtjSF1jKG5bbkhdMSlbQ0gyXVtDQEhdKFtDSDNdKVtOSF1bQ0BASF0oQzIoW0NIM10pW0NIM10pW0NIMl1bQ0gyXVtDSDJdMg==

> <s_epik_cmdline>
J2VwaWtfcHl0aG9uJywgJy1waCcsICc3LjAnLCAnLXRuJywgJzgnLCAnLW1hJywgJzIwMCcsICctbWV0YWxfYmluZGluZycsICctaW1hZScsICc8aW5maWxlLm1hZT4nLCAnLW9tYWUnLCAnPG91dGZpbGUubWFlPic=

> <r_lp_tautomer_probability>
0.5

> <r_epik_Ionization_Penalty>
0.000341671

> <r_epik_Ionization_Penalty_Charging>
0.000281809

> <r_epik_Ionization_Penalty_Neutral>
5.9862e-05

> <r_epik_State_Penalty>
0.41068

> <r_epik_Charging_Adjusted_Penalty>
0.410962

> <i_epik_Tot_Q>
1

> <i_epik_Tot_abs_Q>
1

> <r_epik_Metal_State_Penalty>
0.410672

> <b_epik_Metal_Only>
0

> <s_lp_Force_Field>
OPLS_2005

> <r_lp_Energy>
30.3083

> <b_lp_Chiralities_Consistent>
1

> <s_lp_Variant>
AV-unprocessed.smi:3202-4

> <Gold.Version>
5.8.1

> <Gold.Id.Protein>
6NUR|6NUR_protein|mol2

> <Gold.PLP.Fitness>
46.6810

> <Gold.PLP.PLP>
-41.2259

> <Gold.PLP.part.hbond>
-1.0000

> <Gold.PLP.part.metal>
0.0000

> <Gold.PLP.part.buried>
0.3744

> <Gold.PLP.part.nonpolar>
-40.7446

> <Gold.PLP.part.repulsive>
0.1246

> <Gold.PLP.ligand.clash>
0.0000

> <Gold.PLP.ligand.torsion>
0.3059

> <Gold.PLP.Chemscore.Hbond>
2.0000

> <Gold.PLP.Chemscore.CHOScore>
0.0000

> <Gold.PLP.Chemscore.Metal>
0.0000

> <Gold.Chemscore.Hbonds>
donor molecule, donor type, donor heavy atom, donor atom, acceptor molecule, acceptor atom, score
      L1  H     8    43       P1  8028  1.95

> <Gold.PLP.Chemscore.Internal.Correction>
0.0667

> <Gold.Rescore>
     Score         DG    S(hbond)    S(metal)    S(lipo)     H(rot)  DE(clash)    DE(int)     intcor
     16.99     -20.03       0.96        0.00     128.88       1.46       1.46       1.58       ----

> <Gold.Chemscore.Fitness>
16.9899

> <Gold.Chemscore.DG>
-20.0305

> <Gold.Chemscore.ZeroCoef>
-5.4800

> <Gold.Chemscore.Hbond>
0.9605

> <Gold.Chemscore.Metal>
0.0000

> <Gold.Chemscore.Lipo>
128.8786

> <Gold.Chemscore.Internal_Hbond>
0.0000

> <Gold.Chemscore.DEClash>
1.4573

> <Gold.Chemscore.DEInternal>
1.5833

> <Gold.Chemscore.Rot>
1.4596

> <Gold.Chemscore.Internal.Correction>
   9.000000E+99

> <Gold.Chemscore.Hbonds>
donor molecule, donor type, donor heavy atom, donor atom, acceptor molecule, acceptor atom, score
      L1  H     8    43       P1  8028  0.90

> <Gold.Chemscore.Hbond.Weighted>
-3.2082

> <Gold.Chemscore.Metal.Weighted>
-0.0000

> <Gold.Chemscore.Lipo.Weighted>
-15.0788

> <Gold.Chemscore.Internal_Hbond.Weighted>
0.0000

> <Gold.Chemscore.DEClash.Weighted>
1.4573

> <Gold.Chemscore.DEInternal.Weighted>
1.5833

> <Gold.Chemscore.Rot.Weighted>
3.7365

> <Gold.Chemscore.Internal.Correction.Weighted>
   9.000000E+99

> <Gold.Protein.RotatedTorsions>
[ 6907 6896 6895 6894 ] final -152.37 input  -60.11 | X-H torsion
[ 7974 7965 7964 7962 ] final   -1.50 input  175.53 | X-H torsion
[ 8008 7997 7996 7995 ] final  -88.06 input   59.86 | X-H torsion
[ 10167 10162 10161 10158 ] final   13.47 input  -65.29 | X-H torsion
[ 10718 10713 10712 10709 ] final  -64.78 input   66.30 | X-H torsion
[ 10763 10752 10751 10750 ] final  108.78 input  -60.55 | X-H torsion
[ 11005 11000 10999 10996 ] final   -6.07 input  -57.11 | X-H torsion

> <Gold.Protein.ActiveResidues>
 VAL166  LYS551  ARG553  GLY616  TRP617  ASP618  TYR619  PRO620  LYS621  CYS622 
 ASP623  PHE694  ASN695  SER759  ASP760  ASP761  ALA762  ILE779  LEU786  VAL792 
 PHE793  MET794  SER795  GLU796  ALA797  LYS798  CYS799  TRP800  GLU811  SER814 

> <Gold.Protein.RotatedAtoms>
  151.2267  133.4472  159.2602 H   0  0  0  0  0  0  0  0  0  0  0  0  # atno 6907 bound_to 6896
  151.0833  134.9872  159.8377 H   0  0  0  0  0  0  0  0  0  0  0  0  # atno 6908 bound_to 6896
  152.5426  134.2205  159.8839 H   0  0  0  0  0  0  0  0  0  0  0  0  # atno 6909 bound_to 6896
  146.2416  140.1430  142.8335 H   0  0  0  0  0  0  0  0  0  0  0  0  # atno 7974 bound_to 7965
  154.6704  140.0558  157.0159 H   0  0  0  0  0  0  0  0  0  0  0  0  # atno 8008 bound_to 7997
  155.1097  140.3237  155.4506 H   0  0  0  0  0  0  0  0  0  0  0  0  # atno 8009 bound_to 7997
  156.2655  140.2016  156.6222 H   0  0  0  0  0  0  0  0  0  0  0  0  # atno 8010 bound_to 7997
  140.6000  143.8624  150.6956 H   0  0  0  0  0  0  0  0  0  0  0  0  # atno 10167 bound_to 10162
  156.0708  130.4238  150.1470 H   0  0  0  0  0  0  0  0  0  0  0  0  # atno 10718 bound_to 10713
  153.4254  135.3801  155.2137 H   0  0  0  0  0  0  0  0  0  0  0  0  # atno 10763 bound_to 10752
  154.8747  135.3827  154.4332 H   0  0  0  0  0  0  0  0  0  0  0  0  # atno 10764 bound_to 10752
  153.4858  135.7088  153.5975 H   0  0  0  0  0  0  0  0  0  0  0  0  # atno 10765 bound_to 10752
  140.6980  133.9014  155.8663 H   0  0  0  0  0  0  0  0  0  0  0  0  # atno 11005 bound_to 11000
  145.0231  140.8810  143.5155 LP  0  0  0  0  0  0  0  0  0  0  0  0  # atno 17320 bound_to 7965
  145.1482  139.2530  143.5455 LP  0  0  0  0  0  0  0  0  0  0  0  0  # atno 17321 bound_to 7965
  140.2167  143.3841  152.1675 LP  0  0  0  0  0  0  0  0  0  0  0  0  # atno 17342 bound_to 10162
  139.5284  144.7131  151.5143 LP  0  0  0  0  0  0  0  0  0  0  0  0  # atno 17343 bound_to 10162
  156.9521  130.9778  151.3496 LP  0  0  0  0  0  0  0  0  0  0  0  0  # atno 17370 bound_to 10713
  157.5778  130.8355  149.8480 LP  0  0  0  0  0  0  0  0  0  0  0  0  # atno 17371 bound_to 10713
  141.0187  134.0919  157.4144 LP  0  0  0  0  0  0  0  0  0  0  0  0  # atno 17394 bound_to 11000
  139.8905  135.0112  156.6737 LP  0  0  0  0  0  0  0  0  0  0  0  0  # atno 17395 bound_to 11000

$$$$
