AV-unprocessed.smi:1236|AV-procd|sdf|5180|dock1
  -GOLD-   22720 4263D 1   1.00000     0.00000
 Structure written by MMmdl.
 39 40  0  0  0  0  0  0  0  0  1 V2000
  147.2189  141.5065  153.7852 C   0  0  0  0  0  0  0  0  0  0  0  0
  148.1663  140.8219  154.7793 C   0  0  1  0  0  0  0  0  0  0  0  0
  149.1671  139.8981  154.0521 C   0  0  0  0  0  0  0  0  0  0  0  0
  149.9830  139.0425  154.9151 N   0  0  0  0  0  0  0  0  0  0  0  0
  149.7182  137.6193  154.7150 C   0  0  0  0  0  0  0  0  0  0  0  0
  150.5935  136.7425  155.6266 C   0  0  0  0  0  0  0  0  0  0  0  0
  151.9676  137.0396  155.4002 O   0  0  0  0  0  0  0  0  0  0  0  0
  152.2771  138.4113  155.6242 C   0  0  0  0  0  0  0  0  0  0  0  0
  151.4057  139.2916  154.7121 C   0  0  0  0  0  0  0  0  0  0  0  0
  148.8836  141.8457  155.5383 N   0  0  0  0  0  0  0  0  0  0  0  0
  149.7502  141.6204  156.5374 C   0  0  0  0  0  0  0  0  0  0  0  0
  150.0256  140.4980  156.9626 O   0  0  0  0  0  0  0  0  0  0  0  0
  150.2707  142.7727  156.9953 N   0  0  0  0  0  0  0  0  0  0  0  0
  151.2254  142.9548  158.0312 C   0  0  0  0  0  0  0  0  0  0  0  0
  151.5808  144.2983  158.2876 C   0  0  0  0  0  0  0  0  0  0  0  0
  152.5212  144.5862  159.2958 C   0  0  0  0  0  0  0  0  0  0  0  0
  153.0820  143.5215  160.0236 C   0  0  0  0  0  0  0  0  0  0  0  0
  152.6728  142.2134  159.7058 C   0  0  0  0  0  0  0  0  0  0  0  0
  151.7723  141.9354  158.7398 N   0  0  0  0  0  0  0  0  0  0  0  0
  146.6536  140.7703  153.2133 H   0  0  0  0  0  0  0  0  0  0  0  0
  147.7662  142.1292  153.0766 H   0  0  0  0  0  0  0  0  0  0  0  0
  146.5000  142.1428  154.3027 H   0  0  0  0  0  0  0  0  0  0  0  0
  147.5413  140.2247  155.4439 H   0  0  0  0  0  0  0  0  0  0  0  0
  148.6291  139.2786  153.3328 H   0  0  0  0  0  0  0  0  0  0  0  0
  149.8296  140.5302  153.4593 H   0  0  0  0  0  0  0  0  0  0  0  0
  148.6727  137.3931  154.9182 H   0  0  0  0  0  0  0  0  0  0  0  0
  149.8993  137.3514  153.6732 H   0  0  0  0  0  0  0  0  0  0  0  0
  150.3450  136.9101  156.6756 H   0  0  0  0  0  0  0  0  0  0  0  0
  150.4178  135.6866  155.4207 H   0  0  0  0  0  0  0  0  0  0  0  0
  152.1130  138.6619  156.6733 H   0  0  0  0  0  0  0  0  0  0  0  0
  153.3340  138.5775  155.4160 H   0  0  0  0  0  0  0  0  0  0  0  0
  151.6698  139.1038  153.6703 H   0  0  0  0  0  0  0  0  0  0  0  0
  151.6296  140.3414  154.9063 H   0  0  0  0  0  0  0  0  0  0  0  0
  148.7253  142.8027  155.2598 H   0  0  0  0  0  0  0  0  0  0  0  0
  149.9530  143.6180  156.5450 H   0  0  0  0  0  0  0  0  0  0  0  0
  151.1400  145.1043  157.7189 H   0  0  0  0  0  0  0  0  0  0  0  0
  152.8066  145.6060  159.5063 H   0  0  0  0  0  0  0  0  0  0  0  0
  153.8056  143.7020  160.8046 H   0  0  0  0  0  0  0  0  0  0  0  0
  153.0784  141.3677  160.2413 H   0  0  0  0  0  0  0  0  0  0  0  0
  1  2  1  0  0  0  0
  1 20  1  0  0  0  0
  1 21  1  0  0  0  0
  1 22  1  0  0  0  0
  2  3  1  0  0  0  0
  2 10  1  0  0  0  0
  2 23  1  0  0  0  0
  3  4  1  0  0  0  0
  3 24  1  0  0  0  0
  3 25  1  0  0  0  0
  4  9  1  0  0  0  0
  4  5  1  0  0  0  0
  5  6  1  0  0  0  0
  5 26  1  0  0  0  0
  5 27  1  0  0  0  0
  6  7  1  0  0  0  0
  6 28  1  0  0  0  0
  6 29  1  0  0  0  0
  7  8  1  0  0  0  0
  8  9  1  0  0  0  0
  8 30  1  0  0  0  0
  8 31  1  0  0  0  0
  9 32  1  0  0  0  0
  9 33  1  0  0  0  0
 10 11  1  0  0  0  0
 10 34  1  0  0  0  0
 11 12  2  0  0  0  0
 11 13  1  0  0  0  0
 13 14  1  0  0  0  0
 13 35  1  0  0  0  0
 14 19  1  0  0  0  0
 14 15  2  0  0  0  0
 15 16  1  0  0  0  0
 15 36  1  0  0  0  0
 16 17  2  0  0  0  0
 16 37  1  0  0  0  0
 17 18  1  0  0  0  0
 17 38  1  0  0  0  0
 18 19  2  0  0  0  0
 18 39  1  0  0  0  0
M  END
> <s_m_source_file>
AV-unprocessed.smi

> <i_m_source_file_index>
1236

> <i_lp_mmshare_version>
43012

> <i_f3d_flags>
0

> <s_epik_input>
W0NIMl0xW0NIMl1PW0NIMl1bQ0gyXU4xW0NIMl1bQ0BASF0oW0NIM10pW05IXUMoPU8pW05IXWMyW2NIXVtjSF1bY0hdW2NIXW4y

> <s_epik_cmdline>
J2VwaWtfcHl0aG9uJywgJy1waCcsICc3LjAnLCAnLXRuJywgJzgnLCAnLW1hJywgJzIwMCcsICctbWV0YWxfYmluZGluZycsICctaW1hZScsICc8aW5maWxlLm1hZT4nLCAnLW9tYWUnLCAnPG91dGZpbGUubWFlPic=

> <r_epik_Ionization_Penalty>
0.26604

> <r_epik_Ionization_Penalty_Charging>
0

> <r_epik_Ionization_Penalty_Neutral>
0.26604

> <r_epik_State_Penalty>
0.257924

> <r_epik_Charging_Adjusted_Penalty>
0.257924

> <i_epik_Tot_Q>
0

> <i_epik_Tot_abs_Q>
0

> <r_epik_Metal_State_Penalty>
0.257923

> <b_epik_Metal_Only>
0

> <s_lp_Force_Field>
OPLS_2005

> <r_lp_Energy>
27.6221

> <b_lp_Chiralities_Consistent>
1

> <s_lp_Variant>
AV-unprocessed.smi:1236-2

> <Gold.Version>
5.8.1

> <Gold.Id.Protein>
6NUR|6NUR_protein|mol2

> <Gold.PLP.Fitness>
44.7159

> <Gold.PLP.PLP>
-37.1900

> <Gold.PLP.part.hbond>
-3.0000

> <Gold.PLP.part.metal>
0.0000

> <Gold.PLP.part.buried>
-2.5496

> <Gold.PLP.part.nonpolar>
-32.2824

> <Gold.PLP.part.repulsive>
0.3221

> <Gold.PLP.ligand.clash>
0.0000

> <Gold.PLP.ligand.torsion>
0.7850

> <Gold.PLP.Chemscore.Hbond>
3.0000

> <Gold.PLP.Chemscore.CHOScore>
0.0000

> <Gold.PLP.Chemscore.Metal>
0.0000

> <Gold.Chemscore.Hbonds>
donor molecule, donor type, donor heavy atom, donor atom, acceptor molecule, acceptor atom, score
      L1  H    10    34       P1  8028  0.99
      L1  H    13    35       P1  8028  1.00
      P1  H 10752 10765       L1     7  0.99

> <Gold.PLP.Chemscore.Internal.Correction>
0.0959

> <Gold.Rescore>
     Score         DG    S(hbond)    S(metal)    S(lipo)     H(rot)  DE(clash)    DE(int)     intcor
     17.42     -22.05       2.83        0.00      93.87       1.51       0.17       4.46       ----

> <Gold.Chemscore.Fitness>
17.4228

> <Gold.Chemscore.DG>
-22.0515

> <Gold.Chemscore.ZeroCoef>
-5.4800

> <Gold.Chemscore.Hbond>
2.8309

> <Gold.Chemscore.Metal>
0.0000

> <Gold.Chemscore.Lipo>
93.8692

> <Gold.Chemscore.Internal_Hbond>
0.0000

> <Gold.Chemscore.DEClash>
0.1671

> <Gold.Chemscore.DEInternal>
4.4617

> <Gold.Chemscore.Rot>
1.5104

> <Gold.Chemscore.Internal.Correction>
   9.000000E+99

> <Gold.Chemscore.Hbonds>
donor molecule, donor type, donor heavy atom, donor atom, acceptor molecule, acceptor atom, score
      L1  H    10    34       P1  8028  0.93
      L1  H    13    35       P1  8028  1.00
      P1  H 10752 10765       L1     7  0.85

> <Gold.Chemscore.Hbond.Weighted>
-9.4553

> <Gold.Chemscore.Metal.Weighted>
-0.0000

> <Gold.Chemscore.Lipo.Weighted>
-10.9827

> <Gold.Chemscore.Internal_Hbond.Weighted>
0.0000

> <Gold.Chemscore.DEClash.Weighted>
0.1671

> <Gold.Chemscore.DEInternal.Weighted>
4.4617

> <Gold.Chemscore.Rot.Weighted>
3.8665

> <Gold.Chemscore.Internal.Correction.Weighted>
   9.000000E+99

> <Gold.Protein.RotatedTorsions>
[ 6907 6896 6895 6894 ] final  175.61 input  -60.11 | X-H torsion
[ 7974 7965 7964 7962 ] final   47.32 input  175.53 | X-H torsion
[ 8008 7997 7996 7995 ] final  -14.83 input   59.86 | X-H torsion
[ 10167 10162 10161 10158 ] final -172.65 input  -65.29 | X-H torsion
[ 10718 10713 10712 10709 ] final   85.21 input   66.30 | X-H torsion
[ 10763 10752 10751 10750 ] final -167.92 input  -60.55 | X-H torsion
[ 11005 11000 10999 10996 ] final  -52.70 input  -57.11 | X-H torsion

> <Gold.Protein.ActiveResidues>
 VAL166  LYS551  ARG553  GLY616  TRP617  ASP618  TYR619  PRO620  LYS621  CYS622 
 ASP623  PHE694  ASN695  SER759  ASP760  ASP761  ALA762  ILE779  LEU786  VAL792 
 PHE793  MET794  SER795  GLU796  ALA797  LYS798  CYS799  TRP800  GLU811  SER814 

> <Gold.Protein.RotatedAtoms>
  151.7335  133.3318  159.3346 H   0  0  0  0  0  0  0  0  0  0  0  0  # atno 6907 bound_to 6896
  150.7603  134.6342  159.6212 H   0  0  0  0  0  0  0  0  0  0  0  0  # atno 6908 bound_to 6896
  152.3577  134.6919  160.0269 H   0  0  0  0  0  0  0  0  0  0  0  0  # atno 6909 bound_to 6896
  146.0309  139.4762  142.9838 H   0  0  0  0  0  0  0  0  0  0  0  0  # atno 7974 bound_to 7965
  154.5179  140.2212  155.9031 H   0  0  0  0  0  0  0  0  0  0  0  0  # atno 8008 bound_to 7997
  156.1628  140.3138  155.8802 H   0  0  0  0  0  0  0  0  0  0  0  0  # atno 8009 bound_to 7997
  155.3716  140.0467  157.3036 H   0  0  0  0  0  0  0  0  0  0  0  0  # atno 8010 bound_to 7997
  139.5733  144.1592  152.1414 H   0  0  0  0  0  0  0  0  0  0  0  0  # atno 10167 bound_to 10162
  157.6911  131.0165  150.2789 H   0  0  0  0  0  0  0  0  0  0  0  0  # atno 10718 bound_to 10713
  154.6682  135.2935  154.9777 H   0  0  0  0  0  0  0  0  0  0  0  0  # atno 10763 bound_to 10752
  154.0813  135.6604  153.4842 H   0  0  0  0  0  0  0  0  0  0  0  0  # atno 10764 bound_to 10752
  153.0470  135.5198  154.7665 H   0  0  0  0  0  0  0  0  0  0  0  0  # atno 10765 bound_to 10752
  141.0938  133.6628  156.4063 H   0  0  0  0  0  0  0  0  0  0  0  0  # atno 11005 bound_to 11000
  145.7042  141.0126  143.1488 LP  0  0  0  0  0  0  0  0  0  0  0  0  # atno 17320 bound_to 7965
  144.7030  139.8681  143.7438 LP  0  0  0  0  0  0  0  0  0  0  0  0  # atno 17321 bound_to 7965
  140.1129  144.5441  150.6913 LP  0  0  0  0  0  0  0  0  0  0  0  0  # atno 17342 bound_to 10162
  140.7016  143.2439  151.4847 LP  0  0  0  0  0  0  0  0  0  0  0  0  # atno 17343 bound_to 10162
  156.3339  130.3804  149.7467 LP  0  0  0  0  0  0  0  0  0  0  0  0  # atno 17370 bound_to 10713
  156.4998  130.8123  151.3128 LP  0  0  0  0  0  0  0  0  0  0  0  0  # atno 17371 bound_to 10713
  140.5189  134.6323  157.5311 LP  0  0  0  0  0  0  0  0  0  0  0  0  # atno 17394 bound_to 11000
  139.9770  134.7200  155.9932 LP  0  0  0  0  0  0  0  0  0  0  0  0  # atno 17395 bound_to 11000

$$$$
