AV-unprocessed.smi:3348|AV-procd|sdf|12930|dock6
  -GOLD-   2272019363D 1   1.00000     0.00000
 Structure written by MMmdl.
 46 47  0  0  0  0  0  0  0  0  1 V2000
  146.5717  142.1451  154.2596 C   0  0  0  0  0  0  0  0  0  0  0  0
  147.6217  141.2108  154.8855 C   0  0  1  0  0  0  0  0  0  0  0  0
  147.7785  139.8804  154.1093 C   0  0  0  0  0  0  0  0  0  0  0  0
  148.7500  138.9808  154.7051 N   0  0  0  0  0  0  0  0  0  0  0  0
  149.9912  138.6198  154.2246 C   0  0  0  0  0  0  0  0  0  0  0  0
  150.5415  137.7571  155.1284 C   0  0  0  0  0  0  0  0  0  0  0  0
  149.5506  137.6551  156.1444 C   0  0  0  0  0  0  0  0  0  0  0  0
  148.4808  138.3910  155.8901 N   0  0  0  0  0  0  0  0  0  0  0  0
  148.8952  141.9284  154.9945 N   0  0  0  0  0  0  0  0  0  0  0  0
  149.9261  141.2626  155.7893 C   0  0  0  0  0  0  0  0  0  0  0  0
  150.9083  142.2845  156.3698 C   0  0  0  0  0  0  0  0  0  0  0  0
  151.1298  141.9766  157.7386 O   0  0  0  0  0  0  0  0  0  0  0  0
  151.9474  142.9107  158.4341 C   0  0  1  0  0  0  0  0  0  0  0  0
  151.2532  144.2899  158.4690 C   0  0  0  0  0  0  0  0  0  0  0  0
  152.0291  145.2947  159.3329 C   0  0  0  0  0  0  0  0  0  0  0  0
  152.2381  144.7534  160.7536 C   0  0  0  0  0  0  0  0  0  0  0  0
  152.9411  143.3881  160.7240 C   0  0  0  0  0  0  0  0  0  0  0  0
  152.1707  142.3663  159.8639 C   0  0  2  0  0  0  0  0  0  0  0  0
  152.8986  141.0122  159.8522 C   0  0  0  0  0  0  0  0  0  0  0  0
  145.5773  141.6987  154.2700 H   0  0  0  0  0  0  0  0  0  0  0  0
  146.8201  142.3838  153.2251 H   0  0  0  0  0  0  0  0  0  0  0  0
  146.5044  143.0836  154.8108 H   0  0  0  0  0  0  0  0  0  0  0  0
  147.2729  140.9729  155.8914 H   0  0  0  0  0  0  0  0  0  0  0  0
  146.8202  139.3608  154.0611 H   0  0  0  0  0  0  0  0  0  0  0  0
  148.0871  140.0621  153.0795 H   0  0  0  0  0  0  0  0  0  0  0  0
  150.3732  139.0002  153.2886 H   0  0  0  0  0  0  0  0  0  0  0  0
  151.5052  137.2733  155.0724 H   0  0  0  0  0  0  0  0  0  0  0  0
  149.5773  137.0727  157.0533 H   0  0  0  0  0  0  0  0  0  0  0  0
  148.7288  142.8551  155.3744 H   0  0  0  0  0  0  0  0  0  0  0  0
  149.4759  140.6836  156.5966 H   0  0  0  0  0  0  0  0  0  0  0  0
  150.4824  140.5614  155.1682 H   0  0  0  0  0  0  0  0  0  0  0  0
  151.8539  142.2202  155.8298 H   0  0  0  0  0  0  0  0  0  0  0  0
  150.5262  143.2968  156.2373 H   0  0  0  0  0  0  0  0  0  0  0  0
  152.9180  142.9999  157.9419 H   0  0  0  0  0  0  0  0  0  0  0  0
  151.1491  144.6952  157.4631 H   0  0  0  0  0  0  0  0  0  0  0  0
  150.2418  144.1793  158.8621 H   0  0  0  0  0  0  0  0  0  0  0  0
  152.9963  145.5033  158.8737 H   0  0  0  0  0  0  0  0  0  0  0  0
  151.4928  146.2432  159.3712 H   0  0  0  0  0  0  0  0  0  0  0  0
  152.8251  145.4617  161.3389 H   0  0  0  0  0  0  0  0  0  0  0  0
  151.2746  144.6586  161.2565 H   0  0  0  0  0  0  0  0  0  0  0  0
  153.9522  143.5107  160.3330 H   0  0  0  0  0  0  0  0  0  0  0  0
  153.0481  143.0127  161.7423 H   0  0  0  0  0  0  0  0  0  0  0  0
  151.1931  142.2123  160.3235 H   0  0  0  0  0  0  0  0  0  0  0  0
  153.8828  141.0951  159.3905 H   0  0  0  0  0  0  0  0  0  0  0  0
  152.3339  140.2618  159.2985 H   0  0  0  0  0  0  0  0  0  0  0  0
  153.0371  140.6328  160.8650 H   0  0  0  0  0  0  0  0  0  0  0  0
  1  2  1  0  0  0  0
  1 20  1  0  0  0  0
  1 21  1  0  0  0  0
  1 22  1  0  0  0  0
  2  3  1  0  0  0  0
  2  9  1  0  0  0  0
  2 23  1  0  0  0  0
  3  4  1  0  0  0  0
  3 24  1  0  0  0  0
  3 25  1  0  0  0  0
  4  8  1  0  0  0  0
  4  5  1  0  0  0  0
  5  6  2  0  0  0  0
  5 26  1  0  0  0  0
  6  7  1  0  0  0  0
  6 27  1  0  0  0  0
  7  8  2  0  0  0  0
  7 28  1  0  0  0  0
  9 10  1  0  0  0  0
  9 29  1  0  0  0  0
 10 11  1  0  0  0  0
 10 30  1  0  0  0  0
 10 31  1  0  0  0  0
 11 12  1  0  0  0  0
 11 32  1  0  0  0  0
 11 33  1  0  0  0  0
 12 13  1  0  0  0  0
 13 18  1  0  0  0  0
 13 14  1  0  0  0  0
 13 34  1  0  0  0  0
 14 15  1  0  0  0  0
 14 35  1  0  0  0  0
 14 36  1  0  0  0  0
 15 16  1  0  0  0  0
 15 37  1  0  0  0  0
 15 38  1  0  0  0  0
 16 17  1  0  0  0  0
 16 39  1  0  0  0  0
 16 40  1  0  0  0  0
 17 18  1  0  0  0  0
 17 41  1  0  0  0  0
 17 42  1  0  0  0  0
 18 19  1  0  0  0  0
 18 43  1  0  0  0  0
 19 44  1  0  0  0  0
 19 45  1  0  0  0  0
 19 46  1  0  0  0  0
M  END
> <s_m_source_file>
AV-unprocessed.smi

> <i_m_source_file_index>
3348

> <i_lp_mmshare_version>
43012

> <i_f3d_flags>
0

> <s_epik_input>
bjFbY0hdW2NIXVtjSF1uMVtDSDJdW0NAQEhdKFtDSDNdKVtOSF1bQ0gyXVtDSDJdT1tDQEBIXTJbQ0gyXVtDSDJdW0NIMl1bQ0gyXVtDQEhdMltDSDNd

> <s_epik_cmdline>
J2VwaWtfcHl0aG9uJywgJy1waCcsICc3LjAnLCAnLXRuJywgJzgnLCAnLW1hJywgJzIwMCcsICctbWV0YWxfYmluZGluZycsICctaW1hZScsICc8aW5maWxlLm1hZT4nLCAnLW9tYWUnLCAnPG91dGZpbGUubWFlPic=

> <r_lp_tautomer_probability>
1

> <r_epik_Ionization_Penalty>
2.46945

> <r_epik_Ionization_Penalty_Charging>
0

> <r_epik_Ionization_Penalty_Neutral>
2.46945

> <r_epik_State_Penalty>
2.6322

> <r_epik_Charging_Adjusted_Penalty>
2.6322

> <i_epik_Tot_Q>
0

> <i_epik_Tot_abs_Q>
0

> <r_epik_Metal_State_Penalty>
2.63217

> <b_epik_Metal_Only>
0

> <s_lp_Force_Field>
OPLS_2005

> <r_lp_Energy>
15.3902

> <b_lp_Chiralities_Consistent>
1

> <s_lp_Variant>
AV-unprocessed.smi:3348-16

> <Gold.Version>
5.8.1

> <Gold.Id.Protein>
6NUR|6NUR_protein|mol2

> <Gold.PLP.Fitness>
48.8449

> <Gold.PLP.PLP>
-43.8116

> <Gold.PLP.part.hbond>
-1.5489

> <Gold.PLP.part.metal>
0.0000

> <Gold.PLP.part.buried>
-5.1586

> <Gold.PLP.part.nonpolar>
-37.4765

> <Gold.PLP.part.repulsive>
0.0940

> <Gold.PLP.ligand.clash>
0.0000

> <Gold.PLP.ligand.torsion>
0.6100

> <Gold.PLP.Chemscore.Hbond>
1.0000

> <Gold.PLP.Chemscore.CHOScore>
1.0000

> <Gold.PLP.Chemscore.Metal>
0.0000

> <Gold.Chemscore.Hbonds>
donor molecule, donor type, donor heavy atom, donor atom, acceptor molecule, acceptor atom, score
      L1  H     9    29       P1  8028  1.00
      L1  C     5    26       P1  7957  1.00

> <Gold.PLP.Chemscore.Internal.Correction>
0.2533

> <Gold.Rescore>
     Score         DG    S(hbond)    S(metal)    S(lipo)     H(rot)  DE(clash)    DE(int)     intcor
     17.70     -19.84       1.00        0.00     131.97       1.72       0.06       2.08       ----

> <Gold.Chemscore.Fitness>
17.6957

> <Gold.Chemscore.DG>
-19.8425

> <Gold.Chemscore.ZeroCoef>
-5.4800

> <Gold.Chemscore.Hbond>
0.9983

> <Gold.Chemscore.Metal>
0.0000

> <Gold.Chemscore.Lipo>
131.9722

> <Gold.Chemscore.Internal_Hbond>
0.0000

> <Gold.Chemscore.DEClash>
0.0639

> <Gold.Chemscore.DEInternal>
2.0829

> <Gold.Chemscore.Rot>
1.7237

> <Gold.Chemscore.Internal.Correction>
   9.000000E+99

> <Gold.Chemscore.Hbonds>
donor molecule, donor type, donor heavy atom, donor atom, acceptor molecule, acceptor atom, score
      L1  H     9    29       P1  8028  0.99

> <Gold.Chemscore.Hbond.Weighted>
-3.3343

> <Gold.Chemscore.Metal.Weighted>
-0.0000

> <Gold.Chemscore.Lipo.Weighted>
-15.4408

> <Gold.Chemscore.Internal_Hbond.Weighted>
0.0000

> <Gold.Chemscore.DEClash.Weighted>
0.0639

> <Gold.Chemscore.DEInternal.Weighted>
2.0829

> <Gold.Chemscore.Rot.Weighted>
4.4126

> <Gold.Chemscore.Internal.Correction.Weighted>
   9.000000E+99

> <Gold.Protein.RotatedTorsions>
[ 6907 6896 6895 6894 ] final -143.64 input  -60.11 | X-H torsion
[ 7974 7965 7964 7962 ] final  115.78 input  175.53 | X-H torsion
[ 8008 7997 7996 7995 ] final  152.60 input   59.86 | X-H torsion
[ 10167 10162 10161 10158 ] final  -61.29 input  -65.29 | X-H torsion
[ 10718 10713 10712 10709 ] final -150.31 input   66.30 | X-H torsion
[ 10763 10752 10751 10750 ] final -152.18 input  -60.55 | X-H torsion
[ 11005 11000 10999 10996 ] final   76.00 input  -57.11 | X-H torsion

> <Gold.Protein.ActiveResidues>
 VAL166  LYS551  ARG553  GLY616  TRP617  ASP618  TYR619  PRO620  LYS621  CYS622 
 ASP623  PHE694  ASN695  SER759  ASP760  ASP761  ALA762  ILE779  LEU786  VAL792 
 PHE793  MET794  SER795  GLU796  ALA797  LYS798  CYS799  TRP800  GLU811  SER814 

> <Gold.Protein.RotatedAtoms>
  151.1032  133.5227  159.2608 H   0  0  0  0  0  0  0  0  0  0  0  0  # atno 6907 bound_to 6896
  151.2050  135.0457  159.8898 H   0  0  0  0  0  0  0  0  0  0  0  0  # atno 6908 bound_to 6896
  152.5444  134.0856  159.8308 H   0  0  0  0  0  0  0  0  0  0  0  0  # atno 6909 bound_to 6896
  145.1877  139.3016  143.4385 H   0  0  0  0  0  0  0  0  0  0  0  0  # atno 7974 bound_to 7965
  156.2621  140.2016  156.6358 H   0  0  0  0  0  0  0  0  0  0  0  0  # atno 8008 bound_to 7997
  154.6647  140.0557  157.0125 H   0  0  0  0  0  0  0  0  0  0  0  0  # atno 8009 bound_to 7997
  155.1224  140.3226  155.4497 H   0  0  0  0  0  0  0  0  0  0  0  0  # atno 8010 bound_to 7997
  140.6016  143.2363  151.5917 H   0  0  0  0  0  0  0  0  0  0  0  0  # atno 10167 bound_to 10162
  156.4445  130.8138  151.2368 H   0  0  0  0  0  0  0  0  0  0  0  0  # atno 10718 bound_to 10713
  154.8010  135.3242  154.7549 H   0  0  0  0  0  0  0  0  0  0  0  0  # atno 10763 bound_to 10752
  153.8217  135.6887  153.4830 H   0  0  0  0  0  0  0  0  0  0  0  0  # atno 10764 bound_to 10752
  153.1727  135.4617  154.9868 H   0  0  0  0  0  0  0  0  0  0  0  0  # atno 10765 bound_to 10752
  139.9318  134.7565  156.1341 H   0  0  0  0  0  0  0  0  0  0  0  0  # atno 11005 bound_to 11000
  146.3442  140.2078  142.8590 LP  0  0  0  0  0  0  0  0  0  0  0  0  # atno 17320 bound_to 7965
  145.0073  140.8683  143.5246 LP  0  0  0  0  0  0  0  0  0  0  0  0  # atno 17321 bound_to 7965
  139.5295  144.2959  152.1114 LP  0  0  0  0  0  0  0  0  0  0  0  0  # atno 17342 bound_to 10162
  140.2141  144.4533  150.6372 LP  0  0  0  0  0  0  0  0  0  0  0  0  # atno 17343 bound_to 10162
  157.7505  131.0157  150.3517 LP  0  0  0  0  0  0  0  0  0  0  0  0  # atno 17370 bound_to 10713
  156.3882  130.3893  149.7050 LP  0  0  0  0  0  0  0  0  0  0  0  0  # atno 17371 bound_to 10713
  141.0910  133.6714  156.2541 LP  0  0  0  0  0  0  0  0  0  0  0  0  # atno 17394 bound_to 11000
  140.6182  134.5388  157.5544 LP  0  0  0  0  0  0  0  0  0  0  0  0  # atno 17395 bound_to 11000

$$$$
