AV-unprocessed.smi:2344|AV-procd|sdf|9359|dock4
  -GOLD-   2272012583D 1   1.00000     0.00000
 Structure written by MMmdl.
 35 36  0  0  0  0  0  0  0  0  1 V2000
  151.0079  142.2442  156.4911 C   0  0  0  0  0  0  0  0  0  0  0  0
  150.2722  141.2029  155.6742 C   0  0  0  0  0  0  0  0  0  0  0  0
  150.9115  140.0147  155.2737 C   0  0  0  0  0  0  0  0  0  0  0  0
  150.1869  139.0776  154.5123 C   0  0  0  0  0  0  0  0  0  0  0  0
  148.8435  139.3495  154.1688 C   0  0  0  0  0  0  0  0  0  0  0  0
  148.2040  138.3398  153.4015 N   0  0  0  0  0  0  0  0  0  0  0  0
  146.8862  138.1277  153.2384 C   0  0  0  0  0  0  0  0  0  0  0  0
  145.9871  138.8033  153.7399 O   0  0  0  0  0  0  0  0  0  0  0  0
  146.6598  137.0700  152.4462 N   0  0  0  0  0  0  0  0  0  0  0  0
  145.3391  136.5814  152.0664 C   0  0  2  0  0  0  0  0  0  0  0  0
  144.7468  135.7469  153.1685 C   0  0  0  0  0  0  0  0  0  0  0  0
  144.4753  134.5025  152.7820 C   0  0  0  0  0  0  0  0  0  0  0  0
  144.8537  134.2377  151.3485 C   0  0  1  0  0  0  0  0  0  0  0  0
  143.6711  133.6948  150.5297 C   0  0  0  0  0  0  0  0  0  0  0  0
  144.0773  133.4285  149.2041 O   0  0  0  0  0  0  0  0  0  0  0  0
  145.3824  135.6108  150.8570 C   0  0  0  0  0  0  0  0  0  0  0  0
  148.2366  140.4981  154.5584 N   0  0  0  0  0  0  0  0  0  0  0  0
  148.9316  141.3961  155.2878 C   0  0  0  0  0  0  0  0  0  0  0  0
  144.6688  137.4198  151.8682 H   0  0  0  0  0  0  0  0  0  0  0  0
  145.6639  133.5072  151.3552 H   0  0  0  0  0  0  0  0  0  0  0  0
  151.6512  141.7681  157.2317 H   0  0  0  0  0  0  0  0  0  0  0  0
  150.3079  142.8935  157.0179 H   0  0  0  0  0  0  0  0  0  0  0  0
  151.6282  142.8620  155.8415 H   0  0  0  0  0  0  0  0  0  0  0  0
  151.9395  139.8220  155.5435 H   0  0  0  0  0  0  0  0  0  0  0  0
  150.6628  138.1600  154.1976 H   0  0  0  0  0  0  0  0  0  0  0  0
  148.8225  137.7023  152.9228 H   0  0  0  0  0  0  0  0  0  0  0  0
  147.4546  136.5707  152.0750 H   0  0  0  0  0  0  0  0  0  0  0  0
  144.5604  136.1452  154.1550 H   0  0  0  0  0  0  0  0  0  0  0  0
  144.0457  133.7381  153.4127 H   0  0  0  0  0  0  0  0  0  0  0  0
  143.2984  132.7686  150.9680 H   0  0  0  0  0  0  0  0  0  0  0  0
  142.8431  134.4049  150.5198 H   0  0  0  0  0  0  0  0  0  0  0  0
  144.6821  134.1023  148.9339 H   0  0  0  0  0  0  0  0  0  0  0  0
  144.7626  136.0055  150.0510 H   0  0  0  0  0  0  0  0  0  0  0  0
  146.3888  135.5062  150.4491 H   0  0  0  0  0  0  0  0  0  0  0  0
  148.4002  142.2934  155.5690 H   0  0  0  0  0  0  0  0  0  0  0  0
  1  2  1  0  0  0  0
  1 21  1  0  0  0  0
  1 22  1  0  0  0  0
  1 23  1  0  0  0  0
  2 18  1  0  0  0  0
  2  3  2  0  0  0  0
  3  4  1  0  0  0  0
  3 24  1  0  0  0  0
  4  5  2  0  0  0  0
  4 25  1  0  0  0  0
  5  6  1  0  0  0  0
  5 17  1  0  0  0  0
  6  7  1  0  0  0  0
  6 26  1  0  0  0  0
  7  8  2  0  0  0  0
  7  9  1  0  0  0  0
  9 10  1  0  0  0  0
  9 27  1  0  0  0  0
 10 19  1  0  0  0  0
 10 16  1  0  0  0  0
 10 11  1  0  0  0  0
 11 12  2  0  0  0  0
 11 28  1  0  0  0  0
 12 13  1  0  0  0  0
 12 29  1  0  0  0  0
 13 20  1  0  0  0  0
 13 14  1  0  0  0  0
 13 16  1  0  0  0  0
 14 15  1  0  0  0  0
 14 30  1  0  0  0  0
 14 31  1  0  0  0  0
 15 32  1  0  0  0  0
 16 33  1  0  0  0  0
 16 34  1  0  0  0  0
 17 18  2  0  0  0  0
 18 35  1  0  0  0  0
M  END
> <s_m_source_file>
AV-unprocessed.smi

> <i_m_source_file_index>
2344

> <i_lp_mmshare_version>
43012

> <i_f3d_flags>
0

> <s_epik_input>
W0NIM11jMVtjSF1bY0hdYyhuW2NIXTEpW05IXUMoPU8pW05IXVtDQEBIXTJbQ0hdPVtDSF1bQ0BASF0oW0NIMl0yKVtDSDJdW09IXQ==

> <s_epik_cmdline>
J2VwaWtfcHl0aG9uJywgJy1waCcsICc3LjAnLCAnLXRuJywgJzgnLCAnLW1hJywgJzIwMCcsICctbWV0YWxfYmluZGluZycsICctaW1hZScsICc8aW5maWxlLm1hZT4nLCAnLW9tYWUnLCAnPG91dGZpbGUubWFlPic=

> <r_lp_tautomer_probability>
1

> <r_epik_Ionization_Penalty>
5.7643e-05

> <r_epik_Ionization_Penalty_Charging>
0

> <r_epik_Ionization_Penalty_Neutral>
5.7643e-05

> <r_epik_State_Penalty>
-0

> <r_epik_Charging_Adjusted_Penalty>
0

> <i_epik_Tot_Q>
0

> <i_epik_Tot_abs_Q>
0

> <r_epik_Metal_State_Penalty>
-0

> <b_epik_Metal_Only>
0

> <s_lp_Force_Field>
OPLS_2005

> <r_lp_Energy>
17.7036

> <b_lp_Chiralities_Consistent>
1

> <s_lp_Variant>
AV-unprocessed.smi:2344-3

> <Gold.Version>
5.8.1

> <Gold.Id.Protein>
6NUR|6NUR_protein|mol2

> <Gold.PLP.Fitness>
40.6272

> <Gold.PLP.PLP>
-29.4823

> <Gold.PLP.part.hbond>
-3.8493

> <Gold.PLP.part.metal>
0.0000

> <Gold.PLP.part.buried>
-1.1730

> <Gold.PLP.part.nonpolar>
-25.3673

> <Gold.PLP.part.repulsive>
0.6678

> <Gold.PLP.ligand.clash>
0.0000

> <Gold.PLP.ligand.torsion>
0.3375

> <Gold.PLP.Chemscore.Hbond>
2.9353

> <Gold.PLP.Chemscore.CHOScore>
1.0000

> <Gold.PLP.Chemscore.Metal>
0.0000

> <Gold.Chemscore.Hbonds>
donor molecule, donor type, donor heavy atom, donor atom, acceptor molecule, acceptor atom, score
      L1  H     6    26       P1  7948  0.94
      L1  H     9    27       P1  7948  1.00
      L1  H    15    32       P1  7921  0.89
      L1  C    18    35       P1  8028  1.00

> <Gold.PLP.Chemscore.Internal.Correction>
0.0140

> <Gold.Rescore>
     Score         DG    S(hbond)    S(metal)    S(lipo)     H(rot)  DE(clash)    DE(int)     intcor
     15.85     -17.51       2.75        0.00      64.19       1.82       0.22       1.44       ----

> <Gold.Chemscore.Fitness>
15.8493

> <Gold.Chemscore.DG>
-17.5124

> <Gold.Chemscore.ZeroCoef>
-5.4800

> <Gold.Chemscore.Hbond>
2.7476

> <Gold.Chemscore.Metal>
0.0000

> <Gold.Chemscore.Lipo>
64.1910

> <Gold.Chemscore.Internal_Hbond>
0.0000

> <Gold.Chemscore.DEClash>
0.2204

> <Gold.Chemscore.DEInternal>
1.4427

> <Gold.Chemscore.Rot>
1.8184

> <Gold.Chemscore.Internal.Correction>
   9.000000E+99

> <Gold.Chemscore.Hbonds>
donor molecule, donor type, donor heavy atom, donor atom, acceptor molecule, acceptor atom, score
      L1  H     6    26       P1  7948  0.92
      L1  H     9    27       P1  7948  0.93
      L1  H    15    32       P1  7921  0.82

> <Gold.Chemscore.Hbond.Weighted>
-9.1771

> <Gold.Chemscore.Metal.Weighted>
-0.0000

> <Gold.Chemscore.Lipo.Weighted>
-7.5104

> <Gold.Chemscore.Internal_Hbond.Weighted>
0.0000

> <Gold.Chemscore.DEClash.Weighted>
0.2204

> <Gold.Chemscore.DEInternal.Weighted>
1.4427

> <Gold.Chemscore.Rot.Weighted>
4.6551

> <Gold.Chemscore.Internal.Correction.Weighted>
   9.000000E+99

> <Gold.Protein.RotatedTorsions>
[ 6907 6896 6895 6894 ] final   21.72 input  -60.11 | X-H torsion
[ 7974 7965 7964 7962 ] final -143.63 input  175.53 | X-H torsion
[ 8008 7997 7996 7995 ] final -116.22 input   59.86 | X-H torsion
[ 10167 10162 10161 10158 ] final  133.30 input  -65.29 | X-H torsion
[ 10718 10713 10712 10709 ] final -123.91 input   66.30 | X-H torsion
[ 10763 10752 10751 10750 ] final  126.21 input  -60.55 | X-H torsion
[ 11005 11000 10999 10996 ] final  -87.93 input  -57.11 | X-H torsion

> <Gold.Protein.ActiveResidues>
 VAL166  LYS551  ARG553  GLY616  TRP617  ASP618  TYR619  PRO620  LYS621  CYS622 
 ASP623  PHE694  ASN695  SER759  ASP760  ASP761  ALA762  ILE779  LEU786  VAL792 
 PHE793  MET794  SER795  GLU796  ALA797  LYS798  CYS799  TRP800  GLU811  SER814 

> <Gold.Protein.RotatedAtoms>
  151.9161  135.0318  160.0518 H   0  0  0  0  0  0  0  0  0  0  0  0  # atno 6907 bound_to 6896
  152.2239  133.5000  159.5186 H   0  0  0  0  0  0  0  0  0  0  0  0  # atno 6908 bound_to 6896
  150.7007  134.1223  159.4082 H   0  0  0  0  0  0  0  0  0  0  0  0  # atno 6909 bound_to 6896
  144.8355  140.5810  143.5487 H   0  0  0  0  0  0  0  0  0  0  0  0  # atno 7974 bound_to 7965
  155.0644  140.0393  157.2587 H   0  0  0  0  0  0  0  0  0  0  0  0  # atno 8008 bound_to 7997
  154.7033  140.2678  155.6674 H   0  0  0  0  0  0  0  0  0  0  0  0  # atno 8009 bound_to 7997
  156.2767  140.2736  156.1651 H   0  0  0  0  0  0  0  0  0  0  0  0  # atno 8010 bound_to 7997
  139.5303  144.6622  151.4976 H   0  0  0  0  0  0  0  0  0  0  0  0  # atno 10167 bound_to 10162
  156.1542  130.6556  150.9958 H   0  0  0  0  0  0  0  0  0  0  0  0  # atno 10718 bound_to 10713
  153.6896  135.3301  155.3199 H   0  0  0  0  0  0  0  0  0  0  0  0  # atno 10763 bound_to 10752
  154.8443  135.4428  154.1522 H   0  0  0  0  0  0  0  0  0  0  0  0  # atno 10764 bound_to 10752
  153.2560  135.6986  153.7706 H   0  0  0  0  0  0  0  0  0  0  0  0  # atno 10765 bound_to 10752
  141.1609  133.7540  156.9378 H   0  0  0  0  0  0  0  0  0  0  0  0  # atno 11005 bound_to 11000
  145.4804  139.1496  143.3765 LP  0  0  0  0  0  0  0  0  0  0  0  0  # atno 17320 bound_to 7965
  146.2654  140.4939  142.8836 LP  0  0  0  0  0  0  0  0  0  0  0  0  # atno 17321 bound_to 7965
  140.6476  143.8763  150.6753 LP  0  0  0  0  0  0  0  0  0  0  0  0  # atno 17342 bound_to 10162
  140.2117  143.3878  152.1713 LP  0  0  0  0  0  0  0  0  0  0  0  0  # atno 17343 bound_to 10162
  157.6682  131.0867  150.7678 LP  0  0  0  0  0  0  0  0  0  0  0  0  # atno 17370 bound_to 10713
  156.7744  130.4839  149.5412 LP  0  0  0  0  0  0  0  0  0  0  0  0  # atno 17371 bound_to 10713
  140.1342  134.9336  157.2379 LP  0  0  0  0  0  0  0  0  0  0  0  0  # atno 17394 bound_to 11000
  140.2915  134.3235  155.7314 LP  0  0  0  0  0  0  0  0  0  0  0  0  # atno 17395 bound_to 11000

$$$$
