AV-unprocessed.smi:3116|AV-procd|sdf|11873|dock6
  -GOLD-   2272017253D 1   1.00000     0.00000
 Structure written by MMmdl.
 33 33  0  0  0  0  0  0  0  0  1 V2000
  148.1581  141.4579  154.0776 C   0  0  0  0  0  0  0  0  0  0  0  0
  149.0973  140.5752  154.9253 C   0  0  1  0  0  0  0  0  0  0  0  0
  148.8284  140.7387  156.3625 N   0  0  0  0  0  0  0  0  0  0  0  0
  149.4224  141.9423  156.9434 C   0  0  1  0  0  0  0  0  0  0  0  0
  148.6777  142.2119  158.2623 C   0  0  0  0  0  0  0  0  0  0  0  0
  150.9472  141.7168  157.1367 C   0  0  2  0  0  0  0  0  0  0  0  0
  151.2799  140.3501  157.7654 C   0  0  0  0  0  0  0  0  0  0  0  0
  151.5543  142.7870  157.9223 N   0  0  0  0  0  0  0  0  0  0  0  0
  151.5581  144.1407  157.6555 C   0  0  0  0  0  0  0  0  0  0  0  0
  152.2257  144.7574  158.6744 C   0  0  0  0  0  0  0  0  0  0  0  0
  152.5994  143.6850  159.5310 C   0  0  0  0  0  0  0  0  0  0  0  0
  152.1956  142.5089  159.0805 N   0  0  0  0  0  0  0  0  0  0  0  0
  148.9920  139.0920  154.5458 C   0  0  0  0  0  0  0  0  0  0  0  0
  149.2465  138.7820  153.2718 N   0  0  0  0  0  0  0  0  0  0  0  0
  148.7011  138.2346  155.3786 O   0  0  0  0  0  0  0  0  0  0  0  0
  148.3269  141.3038  153.0109 H   0  0  0  0  0  0  0  0  0  0  0  0
  148.3192  142.5176  154.2749 H   0  0  0  0  0  0  0  0  0  0  0  0
  147.1089  141.2418  154.2836 H   0  0  0  0  0  0  0  0  0  0  0  0
  150.1280  140.8684  154.7181 H   0  0  0  0  0  0  0  0  0  0  0  0
  147.8387  140.7113  156.5611 H   0  0  0  0  0  0  0  0  0  0  0  0
  149.2749  142.8054  156.2919 H   0  0  0  0  0  0  0  0  0  0  0  0
  148.9944  143.1511  158.7153 H   0  0  0  0  0  0  0  0  0  0  0  0
  148.8486  141.4161  158.9884 H   0  0  0  0  0  0  0  0  0  0  0  0
  147.6019  142.2878  158.0995 H   0  0  0  0  0  0  0  0  0  0  0  0
  151.4206  141.7414  156.1536 H   0  0  0  0  0  0  0  0  0  0  0  0
  150.9998  139.5271  157.1087 H   0  0  0  0  0  0  0  0  0  0  0  0
  150.7636  140.2094  158.7154 H   0  0  0  0  0  0  0  0  0  0  0  0
  152.3502  140.2571  157.9525 H   0  0  0  0  0  0  0  0  0  0  0  0
  151.0859  144.5488  156.7740 H   0  0  0  0  0  0  0  0  0  0  0  0
  152.4170  145.8137  158.7906 H   0  0  0  0  0  0  0  0  0  0  0  0
  153.1469  143.7261  160.4609 H   0  0  0  0  0  0  0  0  0  0  0  0
  149.1865  137.8201  152.9697 H   0  0  0  0  0  0  0  0  0  0  0  0
  149.4928  139.5100  152.6172 H   0  0  0  0  0  0  0  0  0  0  0  0
  1  2  1  0  0  0  0
  1 16  1  0  0  0  0
  1 17  1  0  0  0  0
  1 18  1  0  0  0  0
  2  3  1  0  0  0  0
  2 13  1  0  0  0  0
  2 19  1  0  0  0  0
  3  4  1  0  0  0  0
  3 20  1  0  0  0  0
  4  5  1  0  0  0  0
  4  6  1  0  0  0  0
  4 21  1  0  0  0  0
  5 22  1  0  0  0  0
  5 23  1  0  0  0  0
  5 24  1  0  0  0  0
  6  7  1  0  0  0  0
  6  8  1  0  0  0  0
  6 25  1  0  0  0  0
  7 26  1  0  0  0  0
  7 27  1  0  0  0  0
  7 28  1  0  0  0  0
  8 12  1  0  0  0  0
  8  9  1  0  0  0  0
  9 10  2  0  0  0  0
  9 29  1  0  0  0  0
 10 11  1  0  0  0  0
 10 30  1  0  0  0  0
 11 12  2  0  0  0  0
 11 31  1  0  0  0  0
 13 14  1  0  0  0  0
 13 15  2  0  0  0  0
 14 32  1  0  0  0  0
 14 33  1  0  0  0  0
M  END
> <s_m_source_file>
AV-unprocessed.smi

> <i_m_source_file_index>
3116

> <i_lp_mmshare_version>
43012

> <i_f3d_flags>
0

> <s_epik_input>
W05IMl1DKD1PKVtDQEhdKFtDSDNdKVtOSF1bQ0BIXShbQ0gzXSlbQ0BIXShbQ0gzXSluMVtjSF1bY0hdW2NIXW4x

> <s_epik_cmdline>
J2VwaWtfcHl0aG9uJywgJy1waCcsICc3LjAnLCAnLXRuJywgJzgnLCAnLW1hJywgJzIwMCcsICctbWV0YWxfYmluZGluZycsICctaW1hZScsICc8aW5maWxlLm1hZT4nLCAnLW9tYWUnLCAnPG91dGZpbGUubWFlPic=

> <r_lp_tautomer_probability>
1

> <r_epik_Ionization_Penalty>
0.865977

> <r_epik_Ionization_Penalty_Charging>
0

> <r_epik_Ionization_Penalty_Neutral>
0.865977

> <r_epik_State_Penalty>
0.901888

> <r_epik_Charging_Adjusted_Penalty>
0.901888

> <i_epik_Tot_Q>
0

> <i_epik_Tot_abs_Q>
0

> <r_epik_Metal_State_Penalty>
0.901181

> <b_epik_Metal_Only>
0

> <s_lp_Force_Field>
OPLS_2005

> <r_lp_Energy>
8.51746

> <b_lp_Chiralities_Consistent>
1

> <s_lp_Variant>
AV-unprocessed.smi:3116-12

> <Gold.Version>
5.8.1

> <Gold.Id.Protein>
6NUR|6NUR_protein|mol2

> <Gold.PLP.Fitness>
40.2112

> <Gold.PLP.PLP>
-32.1863

> <Gold.PLP.part.hbond>
-1.9342

> <Gold.PLP.part.metal>
0.0000

> <Gold.PLP.part.buried>
-3.2951

> <Gold.PLP.part.nonpolar>
-27.6732

> <Gold.PLP.part.repulsive>
0.1627

> <Gold.PLP.ligand.clash>
0.0000

> <Gold.PLP.ligand.torsion>
0.5386

> <Gold.PLP.Chemscore.Hbond>
2.0000

> <Gold.PLP.Chemscore.CHOScore>
1.0000

> <Gold.PLP.Chemscore.Metal>
0.0000

> <Gold.Chemscore.Hbonds>
donor molecule, donor type, donor heavy atom, donor atom, acceptor molecule, acceptor atom, score
      L1  H    14    32       P1  7948  1.00
      L1  H    14    33       P1  7957  1.00
      L1  C     9    29       P1  8028  1.00

> <Gold.PLP.Chemscore.Internal.Correction>
0.1021

> <Gold.Rescore>
     Score         DG    S(hbond)    S(metal)    S(lipo)     H(rot)  DE(clash)    DE(int)     intcor
     14.35     -14.85       1.95        0.00      76.61       2.38       0.13       0.37       ----

> <Gold.Chemscore.Fitness>
14.3537

> <Gold.Chemscore.DG>
-14.8531

> <Gold.Chemscore.ZeroCoef>
-5.4800

> <Gold.Chemscore.Hbond>
1.9497

> <Gold.Chemscore.Metal>
0.0000

> <Gold.Chemscore.Lipo>
76.6093

> <Gold.Chemscore.Internal_Hbond>
0.0000

> <Gold.Chemscore.DEClash>
0.1251

> <Gold.Chemscore.DEInternal>
0.3743

> <Gold.Chemscore.Rot>
2.3836

> <Gold.Chemscore.Internal.Correction>
   9.000000E+99

> <Gold.Chemscore.Hbonds>
donor molecule, donor type, donor heavy atom, donor atom, acceptor molecule, acceptor atom, score
      L1  H    14    32       P1  7948  0.98
      L1  H    14    33       P1  7957  0.90

> <Gold.Chemscore.Hbond.Weighted>
-6.5118

> <Gold.Chemscore.Metal.Weighted>
-0.0000

> <Gold.Chemscore.Lipo.Weighted>
-8.9633

> <Gold.Chemscore.Internal_Hbond.Weighted>
0.0000

> <Gold.Chemscore.DEClash.Weighted>
0.1251

> <Gold.Chemscore.DEInternal.Weighted>
0.3743

> <Gold.Chemscore.Rot.Weighted>
6.1020

> <Gold.Chemscore.Internal.Correction.Weighted>
   9.000000E+99

> <Gold.Protein.RotatedTorsions>
[ 6907 6896 6895 6894 ] final  155.25 input  -60.11 | X-H torsion
[ 7974 7965 7964 7962 ] final  112.00 input  175.53 | X-H torsion
[ 8008 7997 7996 7995 ] final -111.88 input   59.86 | X-H torsion
[ 10167 10162 10161 10158 ] final  -47.72 input  -65.29 | X-H torsion
[ 10718 10713 10712 10709 ] final  157.20 input   66.30 | X-H torsion
[ 10763 10752 10751 10750 ] final  -43.14 input  -60.55 | X-H torsion
[ 11005 11000 10999 10996 ] final  -85.21 input  -57.11 | X-H torsion

> <Gold.Protein.ActiveResidues>
 VAL166  LYS551  ARG553  GLY616  TRP617  ASP618  TYR619  PRO620  LYS621  CYS622 
 ASP623  PHE694  ASN695  SER759  ASP760  ASP761  ALA762  ILE779  LEU786  VAL792 
 PHE793  MET794  SER795  GLU796  ALA797  LYS798  CYS799  TRP800  GLU811  SER814 

> <Gold.Protein.RotatedAtoms>
  152.0468  133.4001  159.4359 H   0  0  0  0  0  0  0  0  0  0  0  0  # atno 6907 bound_to 6896
  150.6872  134.3353  159.4854 H   0  0  0  0  0  0  0  0  0  0  0  0  # atno 6908 bound_to 6896
  152.1158  134.9241  160.0615 H   0  0  0  0  0  0  0  0  0  0  0  0  # atno 6909 bound_to 6896
  145.2351  139.2802  143.4147 H   0  0  0  0  0  0  0  0  0  0  0  0  # atno 7974 bound_to 7965
  154.9966  140.0394  157.2342 H   0  0  0  0  0  0  0  0  0  0  0  0  # atno 8008 bound_to 7997
  154.7581  140.2779  155.6214 H   0  0  0  0  0  0  0  0  0  0  0  0  # atno 8009 bound_to 7997
  156.2898  140.2634  156.2352 H   0  0  0  0  0  0  0  0  0  0  0  0  # atno 8010 bound_to 7997
  140.6763  143.2772  151.3967 H   0  0  0  0  0  0  0  0  0  0  0  0  # atno 10167 bound_to 10162
  157.1947  131.0662  151.2059 H   0  0  0  0  0  0  0  0  0  0  0  0  # atno 10718 bound_to 10713
  153.9906  135.6706  153.4754 H   0  0  0  0  0  0  0  0  0  0  0  0  # atno 10763 bound_to 10752
  153.0706  135.4976  154.8294 H   0  0  0  0  0  0  0  0  0  0  0  0  # atno 10764 bound_to 10752
  154.7111  135.3097  154.9158 H   0  0  0  0  0  0  0  0  0  0  0  0  # atno 10765 bound_to 10752
  141.1643  133.7387  156.8981 H   0  0  0  0  0  0  0  0  0  0  0  0  # atno 11005 bound_to 11000
  146.3343  140.2698  142.8605 LP  0  0  0  0  0  0  0  0  0  0  0  0  # atno 17320 bound_to 7965
  144.9640  140.8303  143.5496 LP  0  0  0  0  0  0  0  0  0  0  0  0  # atno 17321 bound_to 7965
  139.6057  144.1202  152.2246 LP  0  0  0  0  0  0  0  0  0  0  0  0  # atno 17342 bound_to 10162
  140.0601  144.5864  150.7270 LP  0  0  0  0  0  0  0  0  0  0  0  0  # atno 17343 bound_to 10162
  157.3826  130.7239  149.6641 LP  0  0  0  0  0  0  0  0  0  0  0  0  # atno 17370 bound_to 10713
  155.9707  130.4168  150.4249 LP  0  0  0  0  0  0  0  0  0  0  0  0  # atno 17371 bound_to 10713
  140.1602  134.9171  157.2704 LP  0  0  0  0  0  0  0  0  0  0  0  0  # atno 17394 bound_to 11000
  140.2621  134.3559  155.7403 LP  0  0  0  0  0  0  0  0  0  0  0  0  # atno 17395 bound_to 11000

$$$$
