AV-unprocessed.smi:1812|AV-procd|sdf|7337|dock4
  -GOLD-   22720 8593D 1   1.00000     0.00000
 Structure written by MMmdl.
 34 36  0  0  0  0  0  0  0  0  1 V2000
  150.3922  140.2509  154.9950 O   0  0  0  0  0  0  0  0  0  0  0  0
  149.9803  141.3973  155.1750 C   0  0  0  0  0  0  0  0  0  0  0  0
  149.0521  141.9776  154.4010 N   0  0  0  0  0  0  0  0  0  0  0  0
  148.4063  141.3464  153.2557 C   0  0  0  0  0  0  0  0  0  0  0  0
  147.3150  140.3576  153.6959 C   0  0  1  0  0  0  0  0  0  0  0  0
  147.6727  138.8960  153.4495 C   0  0  0  0  0  0  0  0  0  0  0  0
  146.7492  138.1673  154.4069 C   0  0  0  0  0  0  0  0  0  0  0  0
  146.4839  139.1961  155.5111 C   0  0  0  0  0  0  0  0  0  0  0  0
  147.1422  140.3913  155.1045 O   0  0  0  0  0  0  0  0  0  0  0  0
  150.3889  142.2267  156.1515 N   0  0  0  0  0  0  0  0  0  0  0  0
  151.3248  141.9707  157.1885 C   0  0  0  0  0  0  0  0  0  0  0  0
  151.8739  140.7697  157.4162 N   0  0  0  0  0  0  0  0  0  0  0  0
  152.7474  140.7956  158.4943 N   0  0  0  0  0  0  0  0  0  0  0  0
  152.8335  142.0101  159.0500 C   0  0  0  0  0  0  0  0  0  0  0  0
  153.7072  142.2849  160.2287 C   0  0  0  0  0  0  0  0  0  0  0  0
  153.6593  141.3946  161.4493 C   0  0  0  0  0  0  0  0  0  0  0  0
  153.1427  142.8081  161.5313 C   0  0  0  0  0  0  0  0  0  0  0  0
  151.8391  143.2438  158.2820 S   0  0  0  0  0  0  0  0  0  0  0  0
  148.7740  142.9242  154.6140 H   0  0  0  0  0  0  0  0  0  0  0  0
  147.9810  142.1110  152.6036 H   0  0  0  0  0  0  0  0  0  0  0  0
  149.1677  140.8305  152.6703 H   0  0  0  0  0  0  0  0  0  0  0  0
  146.3627  140.5867  153.2134 H   0  0  0  0  0  0  0  0  0  0  0  0
  147.5349  138.5937  152.4110 H   0  0  0  0  0  0  0  0  0  0  0  0
  148.7120  138.7088  153.7239 H   0  0  0  0  0  0  0  0  0  0  0  0
  145.8152  137.9065  153.9079 H   0  0  0  0  0  0  0  0  0  0  0  0
  147.1947  137.2481  154.7884 H   0  0  0  0  0  0  0  0  0  0  0  0
  145.4146  139.3810  155.6189 H   0  0  0  0  0  0  0  0  0  0  0  0
  146.8703  138.8693  156.4768 H   0  0  0  0  0  0  0  0  0  0  0  0
  149.9687  143.1442  156.1646 H   0  0  0  0  0  0  0  0  0  0  0  0
  154.6776  142.6587  159.9085 H   0  0  0  0  0  0  0  0  0  0  0  0
  152.9252  140.5913  161.4610 H   0  0  0  0  0  0  0  0  0  0  0  0
  154.6010  141.1736  161.9474 H   0  0  0  0  0  0  0  0  0  0  0  0
  153.7416  143.5306  162.0820 H   0  0  0  0  0  0  0  0  0  0  0  0
  152.0659  142.9391  161.6120 H   0  0  0  0  0  0  0  0  0  0  0  0
  1  2  2  0  0  0  0
  2  3  1  0  0  0  0
  2 10  1  0  0  0  0
  3  4  1  0  0  0  0
  3 19  1  0  0  0  0
  4  5  1  0  0  0  0
  4 20  1  0  0  0  0
  4 21  1  0  0  0  0
  5  9  1  0  0  0  0
  5  6  1  0  0  0  0
  5 22  1  0  0  0  0
  6  7  1  0  0  0  0
  6 23  1  0  0  0  0
  6 24  1  0  0  0  0
  7  8  1  0  0  0  0
  7 25  1  0  0  0  0
  7 26  1  0  0  0  0
  8  9  1  0  0  0  0
  8 27  1  0  0  0  0
  8 28  1  0  0  0  0
 10 11  1  0  0  0  0
 10 29  1  0  0  0  0
 11 18  1  0  0  0  0
 11 12  2  0  0  0  0
 12 13  1  0  0  0  0
 13 14  2  0  0  0  0
 14 15  1  0  0  0  0
 14 18  1  0  0  0  0
 15 17  1  0  0  0  0
 15 16  1  0  0  0  0
 15 30  1  0  0  0  0
 16 17  1  0  0  0  0
 16 31  1  0  0  0  0
 16 32  1  0  0  0  0
 17 33  1  0  0  0  0
 17 34  1  0  0  0  0
M  END
> <s_m_source_file>
AV-unprocessed.smi

> <i_m_source_file_index>
1812

> <i_lp_mmshare_version>
43012

> <i_f3d_flags>
0

> <s_epik_input>
TzFbQ0gyXVtDSDJdW0NIMl1bQ0BIXTFbQ0gyXVtOSF1DKD1PKVtOSF1jMm5uYyhzMilbQ0hdM1tDSDJdW0NIMl0z

> <s_epik_cmdline>
J2VwaWtfcHl0aG9uJywgJy1waCcsICc3LjAnLCAnLXRuJywgJzgnLCAnLW1hJywgJzIwMCcsICctbWV0YWxfYmluZGluZycsICctaW1hZScsICc8aW5maWxlLm1hZT4nLCAnLW9tYWUnLCAnPG91dGZpbGUubWFlPic=

> <r_lp_tautomer_probability>
1

> <r_epik_Ionization_Penalty>
0.000281817

> <r_epik_Ionization_Penalty_Charging>
0

> <r_epik_Ionization_Penalty_Neutral>
0.000281817

> <r_epik_State_Penalty>
-0

> <r_epik_Charging_Adjusted_Penalty>
0

> <i_epik_Tot_Q>
0

> <i_epik_Tot_abs_Q>
0

> <r_epik_Metal_State_Penalty>
0.157535

> <b_epik_Metal_Only>
0

> <s_lp_Force_Field>
OPLS_2005

> <r_lp_Energy>
14.4176

> <b_lp_Chiralities_Consistent>
1

> <s_lp_Variant>
AV-unprocessed.smi:1812-2

> <Gold.Version>
5.8.1

> <Gold.Id.Protein>
6NUR|6NUR_protein|mol2

> <Gold.PLP.Fitness>
37.6494

> <Gold.PLP.PLP>
-31.1584

> <Gold.PLP.part.hbond>
-3.4373

> <Gold.PLP.part.metal>
0.0000

> <Gold.PLP.part.buried>
-2.5509

> <Gold.PLP.part.nonpolar>
-24.3957

> <Gold.PLP.part.repulsive>
0.4075

> <Gold.PLP.ligand.clash>
0.0000

> <Gold.PLP.ligand.torsion>
0.9493

> <Gold.PLP.Chemscore.Hbond>
2.7490

> <Gold.PLP.Chemscore.CHOScore>
0.0000

> <Gold.PLP.Chemscore.Metal>
0.0000

> <Gold.Chemscore.Hbonds>
donor molecule, donor type, donor heavy atom, donor atom, acceptor molecule, acceptor atom, score
      L1  H     3    19       P1  8028  0.93
      L1  H    10    29       P1  8028  1.00
      P1  H  7989  7998       L1     1  0.54

> <Gold.PLP.Chemscore.Internal.Correction>
0.1426

> <Gold.Rescore>
     Score         DG    S(hbond)    S(metal)    S(lipo)     H(rot)  DE(clash)    DE(int)     intcor
     15.73     -18.83       2.42        0.00      77.19       1.47       0.88       2.22       ----

> <Gold.Chemscore.Fitness>
15.7341

> <Gold.Chemscore.DG>
-18.8327

> <Gold.Chemscore.ZeroCoef>
-5.4800

> <Gold.Chemscore.Hbond>
2.4224

> <Gold.Chemscore.Metal>
0.0000

> <Gold.Chemscore.Lipo>
77.1922

> <Gold.Chemscore.Internal_Hbond>
0.0000

> <Gold.Chemscore.DEClash>
0.8801

> <Gold.Chemscore.DEInternal>
2.2185

> <Gold.Chemscore.Rot>
1.4725

> <Gold.Chemscore.Internal.Correction>
   9.000000E+99

> <Gold.Chemscore.Hbonds>
donor molecule, donor type, donor heavy atom, donor atom, acceptor molecule, acceptor atom, score
      L1  H     3    19       P1  8028  0.87
      L1  H    10    29       P1  8028  0.98
      P1  H  7989  7998       L1     1  0.03

> <Gold.Chemscore.Hbond.Weighted>
-8.0907

> <Gold.Chemscore.Metal.Weighted>
-0.0000

> <Gold.Chemscore.Lipo.Weighted>
-9.0315

> <Gold.Chemscore.Internal_Hbond.Weighted>
0.0000

> <Gold.Chemscore.DEClash.Weighted>
0.8801

> <Gold.Chemscore.DEInternal.Weighted>
2.2185

> <Gold.Chemscore.Rot.Weighted>
3.7695

> <Gold.Chemscore.Internal.Correction.Weighted>
   9.000000E+99

> <Gold.Protein.RotatedTorsions>
[ 6907 6896 6895 6894 ] final   36.29 input  -60.11 | X-H torsion
[ 7974 7965 7964 7962 ] final  -26.62 input  175.53 | X-H torsion
[ 8008 7997 7996 7995 ] final  -36.05 input   59.86 | X-H torsion
[ 10167 10162 10161 10158 ] final -127.58 input  -65.29 | X-H torsion
[ 10718 10713 10712 10709 ] final  100.56 input   66.30 | X-H torsion
[ 10763 10752 10751 10750 ] final -154.13 input  -60.55 | X-H torsion
[ 11005 11000 10999 10996 ] final  -65.07 input  -57.11 | X-H torsion

> <Gold.Protein.ActiveResidues>
 VAL166  LYS551  ARG553  GLY616  TRP617  ASP618  TYR619  PRO620  LYS621  CYS622 
 ASP623  PHE694  ASN695  SER759  ASP760  ASP761  ALA762  ILE779  LEU786  VAL792 
 PHE793  MET794  SER795  GLU796  ALA797  LYS798  CYS799  TRP800  GLU811  SER814 

> <Gold.Protein.RotatedAtoms>
  152.1277  134.9158  160.0559 H   0  0  0  0  0  0  0  0  0  0  0  0  # atno 6907 bound_to 6896
  152.0275  133.3918  159.4291 H   0  0  0  0  0  0  0  0  0  0  0  0  # atno 6908 bound_to 6896
  150.6854  134.3479  159.4940 H   0  0  0  0  0  0  0  0  0  0  0  0  # atno 6909 bound_to 6896
  146.1413  140.5043  142.8651 H   0  0  0  0  0  0  0  0  0  0  0  0  # atno 7974 bound_to 7965
  154.4081  140.1641  156.2311 H   0  0  0  0  0  0  0  0  0  0  0  0  # atno 8008 bound_to 7997
  155.9282  140.3416  155.6204 H   0  0  0  0  0  0  0  0  0  0  0  0  # atno 8009 bound_to 7997
  155.7139  140.0760  157.2350 H   0  0  0  0  0  0  0  0  0  0  0  0  # atno 8010 bound_to 7997
  139.9593  143.5967  152.2450 H   0  0  0  0  0  0  0  0  0  0  0  0  # atno 10167 bound_to 10162
  157.6851  131.0701  150.5118 H   0  0  0  0  0  0  0  0  0  0  0  0  # atno 10718 bound_to 10713
  154.7880  135.3197  154.7842 H   0  0  0  0  0  0  0  0  0  0  0  0  # atno 10763 bound_to 10752
  153.8537  135.6860  153.4794 H   0  0  0  0  0  0  0  0  0  0  0  0  # atno 10764 bound_to 10752
  153.1539  135.4688  154.9616 H   0  0  0  0  0  0  0  0  0  0  0  0  # atno 10765 bound_to 10752
  141.1443  133.6675  156.5930 H   0  0  0  0  0  0  0  0  0  0  0  0  # atno 11005 bound_to 11000
  144.7796  140.5812  143.6615 LP  0  0  0  0  0  0  0  0  0  0  0  0  # atno 17320 bound_to 7965
  145.5040  139.1482  143.3642 LP  0  0  0  0  0  0  0  0  0  0  0  0  # atno 17321 bound_to 7965
  139.6566  144.7662  151.2043 LP  0  0  0  0  0  0  0  0  0  0  0  0  # atno 17342 bound_to 10162
  140.7558  143.6076  150.8638 LP  0  0  0  0  0  0  0  0  0  0  0  0  # atno 17343 bound_to 10162
  156.5435  130.4214  149.6142 LP  0  0  0  0  0  0  0  0  0  0  0  0  # atno 17370 bound_to 10713
  156.2964  130.7153  151.2014 LP  0  0  0  0  0  0  0  0  0  0  0  0  # atno 17371 bound_to 10713
  140.3748  134.7574  157.4623 LP  0  0  0  0  0  0  0  0  0  0  0  0  # atno 17394 bound_to 11000
  140.0682  134.5899  155.8671 LP  0  0  0  0  0  0  0  0  0  0  0  0  # atno 17395 bound_to 11000

$$$$
