AV-unprocessed.smi:2346|AV-procd|sdf|9368|dock2
  -GOLD-   2272012593D 1   1.00000     0.00000
 Structure written by MMmdl.
 45 47  0  0  0  0  0  0  0  0  2 V2000
  151.9639  144.4340  160.9566 C   0  0  0  0  0  0  0  0  0  0  0  0
  151.6031  143.5339  159.9192 O   0  0  0  0  0  0  0  0  0  0  0  0
  152.3208  142.3626  159.7881 C   0  0  0  0  0  0  0  0  0  0  0  0
  153.5212  142.0944  160.4940 C   0  0  0  0  0  0  0  0  0  0  0  0
  154.2045  140.8769  160.3084 C   0  0  0  0  0  0  0  0  0  0  0  0
  155.4340  140.6129  161.0372 C   0  0  0  0  0  0  0  0  0  0  0  0
  156.4125  140.4025  161.6174 N   0  0  0  0  0  0  0  0  0  0  0  0
  153.6939  139.9171  159.4156 C   0  0  0  0  0  0  0  0  0  0  0  0
  152.5032  140.1730  158.7123 C   0  0  0  0  0  0  0  0  0  0  0  0
  151.8082  141.3957  158.8926 C   0  0  0  0  0  0  0  0  0  0  0  0
  150.6372  141.7137  158.2358 O   0  0  0  0  0  0  0  0  0  0  0  0
  150.1633  140.8321  157.2288 C   0  0  0  0  0  0  0  0  0  0  0  0
  150.8116  141.2271  155.8970 C   0  0  0  0  0  0  0  0  0  0  0  0
  150.2681  140.4533  154.7716 N   0  0  0  0  0  0  0  0  0  0  0  0
  150.7985  139.4064  154.0726 C   0  0  0  0  0  0  0  0  0  0  0  0
  152.1193  138.7360  154.2971 C   0  0  1  0  0  0  0  0  0  0  0  0
  152.2482  138.2588  155.7497 C   0  0  0  0  0  0  0  0  0  0  0  0
  152.3015  137.6268  153.4420 O   0  0  0  0  0  0  0  0  0  0  0  0
  149.8798  139.0474  153.1308 N   0  3  0  0  0  0  0  0  0  0  0  0
  148.7549  139.8658  153.2271 C   0  0  0  0  0  0  0  0  0  0  0  0
  147.5743  139.8811  152.4910 C   0  0  0  0  0  0  0  0  0  0  0  0
  146.6144  140.8478  152.8554 C   0  0  0  0  0  0  0  0  0  0  0  0
  146.8462  141.7494  153.9145 C   0  0  0  0  0  0  0  0  0  0  0  0
  148.0481  141.7246  154.6528 C   0  0  0  0  0  0  0  0  0  0  0  0
  148.9939  140.7678  154.2839 C   0  0  0  0  0  0  0  0  0  0  0  0
  151.3218  145.3132  160.9083 H   0  0  0  0  0  0  0  0  0  0  0  0
  152.9948  144.7745  160.8489 H   0  0  0  0  0  0  0  0  0  0  0  0
  151.8319  143.9831  161.9410 H   0  0  0  0  0  0  0  0  0  0  0  0
  153.9345  142.8138  161.1853 H   0  0  0  0  0  0  0  0  0  0  0  0
  154.2109  138.9801  159.2645 H   0  0  0  0  0  0  0  0  0  0  0  0
  152.1435  139.4113  158.0378 H   0  0  0  0  0  0  0  0  0  0  0  0
  150.4283  139.8033  157.4759 H   0  0  0  0  0  0  0  0  0  0  0  0
  149.0771  140.8977  157.1485 H   0  0  0  0  0  0  0  0  0  0  0  0
  150.6795  142.2906  155.6974 H   0  0  0  0  0  0  0  0  0  0  0  0
  151.8876  141.0599  155.9364 H   0  0  0  0  0  0  0  0  0  0  0  0
  152.9224  139.4403  154.0842 H   0  0  0  0  0  0  0  0  0  0  0  0
  152.1528  139.0915  156.4468 H   0  0  0  0  0  0  0  0  0  0  0  0
  153.2186  137.7936  155.9258 H   0  0  0  0  0  0  0  0  0  0  0  0
  151.4784  137.5276  155.9991 H   0  0  0  0  0  0  0  0  0  0  0  0
  151.9553  137.8445  152.5898 H   0  0  0  0  0  0  0  0  0  0  0  0
  147.3941  139.1896  151.6809 H   0  0  0  0  0  0  0  0  0  0  0  0
  145.6813  140.8975  152.3132 H   0  0  0  0  0  0  0  0  0  0  0  0
  146.0864  142.4753  154.1661 H   0  0  0  0  0  0  0  0  0  0  0  0
  148.2125  142.4186  155.4637 H   0  0  0  0  0  0  0  0  0  0  0  0
  150.0187  138.2910  152.4729 H   0  0  0  0  0  0  0  0  0  0  0  0
  1  2  1  0  0  0  0
  1 26  1  0  0  0  0
  1 27  1  0  0  0  0
  1 28  1  0  0  0  0
  2  3  1  0  0  0  0
  3 10  1  0  0  0  0
  3  4  2  0  0  0  0
  4  5  1  0  0  0  0
  4 29  1  0  0  0  0
  5  6  1  0  0  0  0
  5  8  2  0  0  0  0
  6  7  3  0  0  0  0
  8  9  1  0  0  0  0
  8 30  1  0  0  0  0
  9 10  2  0  0  0  0
  9 31  1  0  0  0  0
 10 11  1  0  0  0  0
 11 12  1  0  0  0  0
 12 13  1  0  0  0  0
 12 32  1  0  0  0  0
 12 33  1  0  0  0  0
 13 14  1  0  0  0  0
 13 34  1  0  0  0  0
 13 35  1  0  0  0  0
 14 25  1  0  0  0  0
 14 15  1  0  0  0  0
 15 16  1  0  0  0  0
 15 19  2  0  0  0  0
 16 17  1  0  0  0  0
 16 18  1  0  0  0  0
 16 36  1  0  0  0  0
 17 37  1  0  0  0  0
 17 38  1  0  0  0  0
 17 39  1  0  0  0  0
 18 40  1  0  0  0  0
 19 20  1  0  0  0  0
 19 45  1  0  0  0  0
 20 25  2  0  0  0  0
 20 21  1  0  0  0  0
 21 22  2  0  0  0  0
 21 41  1  0  0  0  0
 22 23  1  0  0  0  0
 22 42  1  0  0  0  0
 23 24  2  0  0  0  0
 23 43  1  0  0  0  0
 24 25  1  0  0  0  0
 24 44  1  0  0  0  0
M  CHG  1  19   1
M  END
> <s_m_source_file>
AV-unprocessed.smi

> <i_m_source_file_index>
2346

> <i_lp_mmshare_version>
43012

> <i_f3d_flags>
0

> <s_epik_input>
W0NIM11PYzFbY0hdYyhDI04pW2NIXVtjSF1jMU9bQ0gyXVtDSDJdbihjKG4yKVtDQEhdKFtDSDNdKVtPSF0pYyhjMjMpW2NIXVtjSF1bY0hdW2NIXTM=

> <s_epik_cmdline>
J2VwaWtfcHl0aG9uJywgJy1waCcsICc3LjAnLCAnLXRuJywgJzgnLCAnLW1hJywgJzIwMCcsICctbWV0YWxfYmluZGluZycsICctaW1hZScsICc8aW5maWxlLm1hZT4nLCAnLW9tYWUnLCAnPG91dGZpbGUubWFlPic=

> <r_epik_Ionization_Penalty>
1.58928

> <r_epik_Ionization_Penalty_Charging>
1.58925

> <r_epik_Ionization_Penalty_Neutral>
2.92192e-05

> <r_epik_State_Penalty>
1.68649

> <r_epik_Charging_Adjusted_Penalty>
3.27574

> <i_epik_Tot_Q>
1

> <i_epik_Tot_abs_Q>
1

> <r_epik_Metal_State_Penalty>
5.74385

> <b_epik_Metal_Only>
0

> <s_lp_Force_Field>
OPLS_2005

> <r_lp_Energy>
24.4742

> <b_lp_Chiralities_Consistent>
1

> <s_lp_Variant>
AV-unprocessed.smi:2346-4

> <Gold.Version>
5.8.1

> <Gold.Id.Protein>
6NUR|6NUR_protein|mol2

> <Gold.PLP.Fitness>
61.7880

> <Gold.PLP.PLP>
-51.6300

> <Gold.PLP.part.hbond>
-5.0000

> <Gold.PLP.part.metal>
0.0000

> <Gold.PLP.part.buried>
2.1385

> <Gold.PLP.part.nonpolar>
-48.7889

> <Gold.PLP.part.repulsive>
0.1367

> <Gold.PLP.ligand.clash>
0.0000

> <Gold.PLP.ligand.torsion>
0.5358

> <Gold.PLP.Chemscore.Hbond>
3.7137

> <Gold.PLP.Chemscore.CHOScore>
0.0000

> <Gold.PLP.Chemscore.Metal>
0.0000

> <Gold.Chemscore.Hbonds>
donor molecule, donor type, donor heavy atom, donor atom, acceptor molecule, acceptor atom, score
      L1  H    18    40       P1  7949  0.10
      L1  H    19    45       P1  7948  0.31
      P1  H 10752 10765       L1    18  0.78

> <Gold.PLP.Chemscore.Internal.Correction>
0.0885

> <Gold.Rescore>
     Score         DG    S(hbond)    S(metal)    S(lipo)     H(rot)  DE(clash)    DE(int)     intcor
     18.30     -21.33       2.44        0.00     123.82       2.65       2.59       0.44       ----

> <Gold.Chemscore.Fitness>
18.2976

> <Gold.Chemscore.DG>
-21.3294

> <Gold.Chemscore.ZeroCoef>
-5.4800

> <Gold.Chemscore.Hbond>
2.4365

> <Gold.Chemscore.Metal>
0.0000

> <Gold.Chemscore.Lipo>
123.8222

> <Gold.Chemscore.Internal_Hbond>
0.0000

> <Gold.Chemscore.DEClash>
2.5884

> <Gold.Chemscore.DEInternal>
0.4434

> <Gold.Chemscore.Rot>
2.6467

> <Gold.Chemscore.Internal.Correction>
   9.000000E+99

> <Gold.Chemscore.Hbonds>
donor molecule, donor type, donor heavy atom, donor atom, acceptor molecule, acceptor atom, score
      L1  H    18    40       P1  7949  0.09
      L1  H    19    45       P1  7948  0.03
      P1  H 10752 10765       L1    18  0.73

> <Gold.Chemscore.Hbond.Weighted>
-8.1378

> <Gold.Chemscore.Metal.Weighted>
-0.0000

> <Gold.Chemscore.Lipo.Weighted>
-14.4872

> <Gold.Chemscore.Internal_Hbond.Weighted>
0.0000

> <Gold.Chemscore.DEClash.Weighted>
2.5884

> <Gold.Chemscore.DEInternal.Weighted>
0.4434

> <Gold.Chemscore.Rot.Weighted>
6.7756

> <Gold.Chemscore.Internal.Correction.Weighted>
   9.000000E+99

> <Gold.Protein.RotatedTorsions>
[ 6907 6896 6895 6894 ] final  -16.69 input  -60.11 | X-H torsion
[ 7974 7965 7964 7962 ] final  128.65 input  175.53 | X-H torsion
[ 8008 7997 7996 7995 ] final  -84.85 input   59.86 | X-H torsion
[ 10167 10162 10161 10158 ] final  -57.01 input  -65.29 | X-H torsion
[ 10718 10713 10712 10709 ] final  -96.51 input   66.30 | X-H torsion
[ 10763 10752 10751 10750 ] final  138.73 input  -60.55 | X-H torsion
[ 11005 11000 10999 10996 ] final   80.08 input  -57.11 | X-H torsion

> <Gold.Protein.ActiveResidues>
 VAL166  LYS551  ARG553  GLY616  TRP617  ASP618  TYR619  PRO620  LYS621  CYS622 
 ASP623  PHE694  ASN695  SER759  ASP760  ASP761  ALA762  ILE779  LEU786  VAL792 
 PHE793  MET794  SER795  GLU796  ALA797  LYS798  CYS799  TRP800  GLU811  SER814 

> <Gold.Protein.RotatedAtoms>
  151.3047  135.0778  159.9250 H   0  0  0  0  0  0  0  0  0  0  0  0  # atno 6907 bound_to 6896
  152.5290  133.9797  159.7811 H   0  0  0  0  0  0  0  0  0  0  0  0  # atno 6908 bound_to 6896
  151.0090  133.5932  159.2715 H   0  0  0  0  0  0  0  0  0  0  0  0  # atno 6909 bound_to 6896
  145.0372  139.3994  143.5120 H   0  0  0  0  0  0  0  0  0  0  0  0  # atno 7974 bound_to 7965
  154.6343  140.0599  156.9770 H   0  0  0  0  0  0  0  0  0  0  0  0  # atno 8008 bound_to 7997
  155.1616  140.3283  155.4392 H   0  0  0  0  0  0  0  0  0  0  0  0  # atno 8009 bound_to 7997
  156.2499  140.1930  156.6723 H   0  0  0  0  0  0  0  0  0  0  0  0  # atno 8010 bound_to 7997
  140.6283  143.2448  151.5306 H   0  0  0  0  0  0  0  0  0  0  0  0  # atno 10167 bound_to 10162
  156.0064  130.5154  150.6236 H   0  0  0  0  0  0  0  0  0  0  0  0  # atno 10718 bound_to 10713
  153.8944  135.3029  155.3448 H   0  0  0  0  0  0  0  0  0  0  0  0  # atno 10763 bound_to 10752
  154.7701  135.4890  153.9634 H   0  0  0  0  0  0  0  0  0  0  0  0  # atno 10764 bound_to 10752
  153.1280  135.6797  153.9325 H   0  0  0  0  0  0  0  0  0  0  0  0  # atno 10765 bound_to 10752
  139.9148  134.7893  156.1863 H   0  0  0  0  0  0  0  0  0  0  0  0  # atno 11005 bound_to 11000
  146.3505  139.9954  142.8681 LP  0  0  0  0  0  0  0  0  0  0  0  0  # atno 17320 bound_to 7965
  145.1694  140.9713  143.4331 LP  0  0  0  0  0  0  0  0  0  0  0  0  # atno 17321 bound_to 7965
  139.5501  144.2419  152.1514 LP  0  0  0  0  0  0  0  0  0  0  0  0  # atno 17342 bound_to 10162
  140.1656  144.4984  150.6608 LP  0  0  0  0  0  0  0  0  0  0  0  0  # atno 17343 bound_to 10162
  157.4047  131.0815  151.1276 LP  0  0  0  0  0  0  0  0  0  0  0  0  # atno 17370 bound_to 10713
  157.1926  130.6359  149.5710 LP  0  0  0  0  0  0  0  0  0  0  0  0  # atno 17371 bound_to 10713
  141.0611  133.6841  156.1955 LP  0  0  0  0  0  0  0  0  0  0  0  0  # atno 17394 bound_to 11000
  140.6659  134.4919  157.5585 LP  0  0  0  0  0  0  0  0  0  0  0  0  # atno 17395 bound_to 11000

$$$$
