AV-unprocessed.smi:2402|AV-procd|sdf|9507|dock2
  -GOLD-   2272013133D 1   1.00000     0.00000
 Structure written by MMmdl.
 38 39  0  0  0  0  0  0  0  0  1 V2000
  152.1532  145.8963  160.4387 C   0  0  0  0  0  0  0  0  0  0  0  0
  152.1377  144.5295  159.7872 C   0  0  0  0  0  0  0  0  0  0  0  0
  152.9003  143.4699  160.3144 C   0  0  0  0  0  0  0  0  0  0  0  0
  152.8420  142.2216  159.6642 C   0  0  0  0  0  0  0  0  0  0  0  0
  153.6379  141.0394  160.1756 C   0  0  0  0  0  0  0  0  0  0  0  0
  152.0921  141.9982  158.5638 N   0  0  0  0  0  0  0  0  0  0  0  0
  151.3525  143.0111  158.0480 C   0  0  0  0  0  0  0  0  0  0  0  0
  150.5295  142.8802  156.8982 N   0  0  0  0  0  0  0  0  0  0  0  0
  150.3373  141.7919  156.1323 C   0  0  0  0  0  0  0  0  0  0  0  0
  150.8737  140.6962  156.3015 O   0  0  0  0  0  0  0  0  0  0  0  0
  149.4724  142.0446  155.1395 N   0  0  0  0  0  0  0  0  0  0  0  0
  149.0458  141.0741  154.1378 C   0  0  2  0  0  0  0  0  0  0  0  0
  147.7395  141.4933  153.5185 C   0  0  0  0  0  0  0  0  0  0  0  0
  146.7836  140.5779  153.6615 C   0  0  0  0  0  0  0  0  0  0  0  0
  147.2511  139.3667  154.4257 C   0  0  1  0  0  0  0  0  0  0  0  0
  147.0222  138.0441  153.6699 C   0  0  0  0  0  0  0  0  0  0  0  0
  147.5523  138.0892  152.3602 O   0  0  0  0  0  0  0  0  0  0  0  0
  148.7363  139.6787  154.7426 C   0  0  0  0  0  0  0  0  0  0  0  0
  151.3533  144.2939  158.6402 C   0  0  0  0  0  0  0  0  0  0  0  0
  149.7930  140.9970  153.3461 H   0  0  0  0  0  0  0  0  0  0  0  0
  146.6875  139.3365  155.3588 H   0  0  0  0  0  0  0  0  0  0  0  0
  152.9864  145.9919  161.1353 H   0  0  0  0  0  0  0  0  0  0  0  0
  151.2261  146.0615  160.9877 H   0  0  0  0  0  0  0  0  0  0  0  0
  152.2509  146.6775  159.6844 H   0  0  0  0  0  0  0  0  0  0  0  0
  153.5134  143.6102  161.1927 H   0  0  0  0  0  0  0  0  0  0  0  0
  154.0833  141.2535  161.1474 H   0  0  0  0  0  0  0  0  0  0  0  0
  154.4396  140.7948  159.4785 H   0  0  0  0  0  0  0  0  0  0  0  0
  152.9960  140.1644  160.2821 H   0  0  0  0  0  0  0  0  0  0  0  0
  150.0243  143.7116  156.6301 H   0  0  0  0  0  0  0  0  0  0  0  0
  149.0779  142.9714  155.0727 H   0  0  0  0  0  0  0  0  0  0  0  0
  147.6232  142.4365  153.0056 H   0  0  0  0  0  0  0  0  0  0  0  0
  145.7737  140.6701  153.2905 H   0  0  0  0  0  0  0  0  0  0  0  0
  147.4837  137.2166  154.2094 H   0  0  0  0  0  0  0  0  0  0  0  0
  145.9557  137.8262  153.6059 H   0  0  0  0  0  0  0  0  0  0  0  0
  147.9209  137.2436  152.1553 H   0  0  0  0  0  0  0  0  0  0  0  0
  149.4042  138.9302  154.3148 H   0  0  0  0  0  0  0  0  0  0  0  0
  148.9013  139.6580  155.8208 H   0  0  0  0  0  0  0  0  0  0  0  0
  150.7584  145.0923  158.2202 H   0  0  0  0  0  0  0  0  0  0  0  0
  1  2  1  0  0  0  0
  1 22  1  0  0  0  0
  1 23  1  0  0  0  0
  1 24  1  0  0  0  0
  2 19  1  0  0  0  0
  2  3  2  0  0  0  0
  3  4  1  0  0  0  0
  3 25  1  0  0  0  0
  4  5  1  0  0  0  0
  4  6  2  0  0  0  0
  5 26  1  0  0  0  0
  5 27  1  0  0  0  0
  5 28  1  0  0  0  0
  6  7  1  0  0  0  0
  7  8  1  0  0  0  0
  7 19  2  0  0  0  0
  8  9  1  0  0  0  0
  8 29  1  0  0  0  0
  9 10  2  0  0  0  0
  9 11  1  0  0  0  0
 11 12  1  0  0  0  0
 11 30  1  0  0  0  0
 12 20  1  0  0  0  0
 12 18  1  0  0  0  0
 12 13  1  0  0  0  0
 13 14  2  0  0  0  0
 13 31  1  0  0  0  0
 14 15  1  0  0  0  0
 14 32  1  0  0  0  0
 15 21  1  0  0  0  0
 15 16  1  0  0  0  0
 15 18  1  0  0  0  0
 16 17  1  0  0  0  0
 16 33  1  0  0  0  0
 16 34  1  0  0  0  0
 17 35  1  0  0  0  0
 18 36  1  0  0  0  0
 18 37  1  0  0  0  0
 19 38  1  0  0  0  0
M  END
> <s_m_source_file>
AV-unprocessed.smi

> <i_m_source_file_index>
2402

> <i_lp_mmshare_version>
43012

> <i_f3d_flags>
0

> <s_epik_input>
W0NIM11jMVtjSF1jKFtDSDNdKW5jKFtjSF0xKVtOSF1DKD1PKVtOSF1bQ0BASF0yW0NIXT1bQ0hdW0NAQEhdKFtDSDJdMilbQ0gyXVtPSF0=

> <s_epik_cmdline>
J2VwaWtfcHl0aG9uJywgJy1waCcsICc3LjAnLCAnLXRuJywgJzgnLCAnLW1hJywgJzIwMCcsICctbWV0YWxfYmluZGluZycsICctaW1hZScsICc8aW5maWxlLm1hZT4nLCAnLW9tYWUnLCAnPG91dGZpbGUubWFlPic=

> <r_lp_tautomer_probability>
1

> <r_epik_Ionization_Penalty>
0.000257495

> <r_epik_Ionization_Penalty_Charging>
0

> <r_epik_Ionization_Penalty_Neutral>
0.000257495

> <r_epik_State_Penalty>
-0

> <r_epik_Charging_Adjusted_Penalty>
0

> <i_epik_Tot_Q>
0

> <i_epik_Tot_abs_Q>
0

> <r_epik_Metal_State_Penalty>
-0

> <b_epik_Metal_Only>
0

> <s_lp_Force_Field>
OPLS_2005

> <r_lp_Energy>
20

> <b_lp_Chiralities_Consistent>
1

> <s_lp_Variant>
AV-unprocessed.smi:2402-3

> <Gold.Version>
5.8.1

> <Gold.Id.Protein>
6NUR|6NUR_protein|mol2

> <Gold.PLP.Fitness>
48.5895

> <Gold.PLP.PLP>
-40.1613

> <Gold.PLP.part.hbond>
-3.5820

> <Gold.PLP.part.metal>
0.0000

> <Gold.PLP.part.buried>
-5.1933

> <Gold.PLP.part.nonpolar>
-31.6773

> <Gold.PLP.part.repulsive>
0.2662

> <Gold.PLP.ligand.clash>
0.0000

> <Gold.PLP.ligand.torsion>
0.2936

> <Gold.PLP.Chemscore.Hbond>
3.0000

> <Gold.PLP.Chemscore.CHOScore>
0.0000

> <Gold.PLP.Chemscore.Metal>
0.0000

> <Gold.Chemscore.Hbonds>
donor molecule, donor type, donor heavy atom, donor atom, acceptor molecule, acceptor atom, score
      L1  H     8    29       P1  8028  1.00
      L1  H    11    30       P1  8028  1.00
      L1  H    17    35       P1  7948  0.81

> <Gold.PLP.Chemscore.Internal.Correction>
0.0153

> <Gold.Rescore>
     Score         DG    S(hbond)    S(metal)    S(lipo)     H(rot)  DE(clash)    DE(int)     intcor
     18.58     -22.85       2.93        0.00     103.91       1.78       1.27       3.00       ----

> <Gold.Chemscore.Fitness>
18.5761

> <Gold.Chemscore.DG>
-22.8458

> <Gold.Chemscore.ZeroCoef>
-5.4800

> <Gold.Chemscore.Hbond>
2.9271

> <Gold.Chemscore.Metal>
0.0000

> <Gold.Chemscore.Lipo>
103.9106

> <Gold.Chemscore.Internal_Hbond>
0.0000

> <Gold.Chemscore.DEClash>
1.2675

> <Gold.Chemscore.DEInternal>
3.0022

> <Gold.Chemscore.Rot>
1.7844

> <Gold.Chemscore.Internal.Correction>
   9.000000E+99

> <Gold.Chemscore.Hbonds>
donor molecule, donor type, donor heavy atom, donor atom, acceptor molecule, acceptor atom, score
      L1  H     8    29       P1  8028  0.99
      L1  H    11    30       P1  8028  0.97
      L1  H    17    35       P1  7948  0.80

> <Gold.Chemscore.Hbond.Weighted>
-9.7764

> <Gold.Chemscore.Metal.Weighted>
-0.0000

> <Gold.Chemscore.Lipo.Weighted>
-12.1575

> <Gold.Chemscore.Internal_Hbond.Weighted>
0.0000

> <Gold.Chemscore.DEClash.Weighted>
1.2675

> <Gold.Chemscore.DEInternal.Weighted>
3.0022

> <Gold.Chemscore.Rot.Weighted>
4.5681

> <Gold.Chemscore.Internal.Correction.Weighted>
   9.000000E+99

> <Gold.Protein.RotatedTorsions>
[ 6907 6896 6895 6894 ] final  117.00 input  -60.11 | X-H torsion
[ 7974 7965 7964 7962 ] final  125.07 input  175.53 | X-H torsion
[ 8008 7997 7996 7995 ] final  158.60 input   59.86 | X-H torsion
[ 10167 10162 10161 10158 ] final  -14.15 input  -65.29 | X-H torsion
[ 10718 10713 10712 10709 ] final   10.09 input   66.30 | X-H torsion
[ 10763 10752 10751 10750 ] final -172.59 input  -60.55 | X-H torsion
[ 11005 11000 10999 10996 ] final -164.11 input  -57.11 | X-H torsion

> <Gold.Protein.ActiveResidues>
 VAL166  LYS551  ARG553  GLY616  TRP617  ASP618  TYR619  PRO620  LYS621  CYS622 
 ASP623  PHE694  ASN695  SER759  ASP760  ASP761  ALA762  ILE779  LEU786  VAL792 
 PHE793  MET794  SER795  GLU796  ALA797  LYS798  CYS799  TRP800  GLU811  SER814 

> <Gold.Protein.RotatedAtoms>
  152.4641  133.7885  159.6888 H   0  0  0  0  0  0  0  0  0  0  0  0  # atno 6907 bound_to 6896
  150.8598  133.7651  159.3003 H   0  0  0  0  0  0  0  0  0  0  0  0  # atno 6908 bound_to 6896
  151.5220  135.1070  159.9933 H   0  0  0  0  0  0  0  0  0  0  0  0  # atno 6909 bound_to 6896
  145.0772  139.3685  143.4927 H   0  0  0  0  0  0  0  0  0  0  0  0  # atno 7974 bound_to 7965
  156.2292  140.1854  156.7285 H   0  0  0  0  0  0  0  0  0  0  0  0  # atno 8008 bound_to 7997
  154.5993  140.0638  156.9375 H   0  0  0  0  0  0  0  0  0  0  0  0  # atno 8009 bound_to 7997
  155.2201  140.3307  155.4319 H   0  0  0  0  0  0  0  0  0  0  0  0  # atno 8010 bound_to 7997
  140.7196  143.5351  150.9474 H   0  0  0  0  0  0  0  0  0  0  0  0  # atno 10167 bound_to 10162
  156.9759  130.5987  149.5672 H   0  0  0  0  0  0  0  0  0  0  0  0  # atno 10718 bound_to 10713
  154.6175  135.2871  155.0363 H   0  0  0  0  0  0  0  0  0  0  0  0  # atno 10763 bound_to 10752
  154.1570  135.6494  153.4980 H   0  0  0  0  0  0  0  0  0  0  0  0  # atno 10764 bound_to 10752
  153.0221  135.5369  154.6952 H   0  0  0  0  0  0  0  0  0  0  0  0  # atno 10765 bound_to 10752
  140.5905  134.5049  157.5192 H   0  0  0  0  0  0  0  0  0  0  0  0  # atno 11005 bound_to 11000
  146.3530  140.0545  142.8633 LP  0  0  0  0  0  0  0  0  0  0  0  0  # atno 17320 bound_to 7965
  145.1222  140.9469  143.4594 LP  0  0  0  0  0  0  0  0  0  0  0  0  # atno 17321 bound_to 7965
  139.9072  143.6764  152.3121 LP  0  0  0  0  0  0  0  0  0  0  0  0  # atno 17342 bound_to 10162
  139.7134  144.7616  151.1074 LP  0  0  0  0  0  0  0  0  0  0  0  0  # atno 17343 bound_to 10162
  156.0264  130.5357  150.8417 LP  0  0  0  0  0  0  0  0  0  0  0  0  # atno 17370 bound_to 10713
  157.5560  131.0945  150.9628 LP  0  0  0  0  0  0  0  0  0  0  0  0  # atno 17371 bound_to 10713
  139.9276  134.8026  156.1023 LP  0  0  0  0  0  0  0  0  0  0  0  0  # atno 17394 bound_to 11000
  141.0938  133.6704  156.2599 LP  0  0  0  0  0  0  0  0  0  0  0  0  # atno 17395 bound_to 11000

$$$$
