AV-unprocessed.smi:995|AV-procd|sdf|4345|dock1
  -GOLD-   22720 2243D 1   1.00000     0.00000
 Structure written by MMmdl.
 37 38  0  0  0  0  0  0  0  0  1 V2000
  145.7003  133.1771  153.3996 O   0  0  0  0  0  0  0  0  0  0  0  0
  146.5374  133.7788  152.7275 C   0  0  0  0  0  0  0  0  0  0  0  0
  147.6342  134.3773  153.2290 N   0  0  0  0  0  0  0  0  0  0  0  0
  148.0836  134.4534  154.5760 C   0  0  0  0  0  0  0  0  0  0  0  0
  149.4394  134.5555  154.9712 C   0  0  0  0  0  0  0  0  0  0  0  0
  149.7451  134.6177  156.3444 C   0  0  0  0  0  0  0  0  0  0  0  0
  148.6938  134.5674  157.2809 C   0  0  0  0  0  0  0  0  0  0  0  0
  149.0021  134.6363  158.6240 O   0  0  0  0  0  0  0  0  0  0  0  0
  147.9423  134.5339  159.5716 C   0  0  0  0  0  0  0  0  0  0  0  0
  147.5861  135.9364  160.0866 C   0  0  0  0  0  0  0  0  0  0  0  0
  148.7078  136.6193  160.3191 F   0  0  0  0  0  0  0  0  0  0  0  0
  146.8739  136.5559  159.1444 F   0  0  0  0  0  0  0  0  0  0  0  0
  146.7461  135.8926  161.3734 C   0  0  0  0  0  0  0  0  0  0  0  0
  147.3257  135.1305  162.3012 F   0  0  0  0  0  0  0  0  0  0  0  0
  146.5626  137.1204  161.8594 F   0  0  0  0  0  0  0  0  0  0  0  0
  147.3949  134.4534  156.9106 N   0  0  0  0  0  0  0  0  0  0  0  0
  147.1086  134.3963  155.5934 C   0  0  0  0  0  0  0  0  0  0  0  0
  146.3767  133.8852  151.1986 C   0  0  2  0  0  0  0  0  0  0  0  0
  145.1176  134.6552  150.7342 C   0  0  0  0  0  0  0  0  0  0  0  0
  143.9457  133.8892  150.9880 O   0  0  0  0  0  0  0  0  0  0  0  0
  143.9865  132.6387  150.3156 C   0  0  0  0  0  0  0  0  0  0  0  0
  145.1960  131.8371  150.8217 C   0  0  0  0  0  0  0  0  0  0  0  0
  146.3845  132.5905  150.5908 O   0  0  0  0  0  0  0  0  0  0  0  0
  148.2562  134.7843  152.5453 H   0  0  0  0  0  0  0  0  0  0  0  0
  150.2502  134.5780  154.2609 H   0  0  0  0  0  0  0  0  0  0  0  0
  150.7703  134.7011  156.6739 H   0  0  0  0  0  0  0  0  0  0  0  0
  147.0623  134.0830  159.1094 H   0  0  0  0  0  0  0  0  0  0  0  0
  148.2483  133.8970  160.4033 H   0  0  0  0  0  0  0  0  0  0  0  0
  145.7584  135.4701  161.1864 H   0  0  0  0  0  0  0  0  0  0  0  0
  146.0613  134.3059  155.3441 H   0  0  0  0  0  0  0  0  0  0  0  0
  147.2556  134.4182  150.8342 H   0  0  0  0  0  0  0  0  0  0  0  0
  145.0352  135.6169  151.2421 H   0  0  0  0  0  0  0  0  0  0  0  0
  145.1843  134.8772  149.6680 H   0  0  0  0  0  0  0  0  0  0  0  0
  143.0626  132.0962  150.5162 H   0  0  0  0  0  0  0  0  0  0  0  0
  144.0427  132.7907  149.2365 H   0  0  0  0  0  0  0  0  0  0  0  0
  145.0843  131.5923  151.8787 H   0  0  0  0  0  0  0  0  0  0  0  0
  145.2703  130.8902  150.2871 H   0  0  0  0  0  0  0  0  0  0  0  0
  1  2  2  0  0  0  0
  2  3  1  0  0  0  0
  2 18  1  0  0  0  0
  3  4  1  0  0  0  0
  3 24  1  0  0  0  0
  4 17  1  0  0  0  0
  4  5  2  0  0  0  0
  5  6  1  0  0  0  0
  5 25  1  0  0  0  0
  6  7  2  0  0  0  0
  6 26  1  0  0  0  0
  7  8  1  0  0  0  0
  7 16  1  0  0  0  0
  8  9  1  0  0  0  0
  9 10  1  0  0  0  0
  9 27  1  0  0  0  0
  9 28  1  0  0  0  0
 10 11  1  0  0  0  0
 10 12  1  0  0  0  0
 10 13  1  0  0  0  0
 13 14  1  0  0  0  0
 13 15  1  0  0  0  0
 13 29  1  0  0  0  0
 16 17  2  0  0  0  0
 17 30  1  0  0  0  0
 18 23  1  0  0  0  0
 18 19  1  0  0  0  0
 18 31  1  0  0  0  0
 19 20  1  0  0  0  0
 19 32  1  0  0  0  0
 19 33  1  0  0  0  0
 20 21  1  0  0  0  0
 21 22  1  0  0  0  0
 21 34  1  0  0  0  0
 21 35  1  0  0  0  0
 22 23  1  0  0  0  0
 22 36  1  0  0  0  0
 22 37  1  0  0  0  0
M  END
> <s_m_source_file>
AV-unprocessed.smi

> <i_m_source_file_index>
995

> <i_lp_mmshare_version>
43012

> <i_f3d_flags>
0

> <s_epik_input>
TzFbQ0gyXVtDSDJdT1tDSDJdW0NASF0xQyg9TylbTkhdYzJbY0hdW2NIXWMobltjSF0yKU9bQ0gyXUMoRikoRilbQ0hdKEYpRg==

> <s_epik_cmdline>
J2VwaWtfcHl0aG9uJywgJy1waCcsICc3LjAnLCAnLXRuJywgJzgnLCAnLW1hJywgJzIwMCcsICctbWV0YWxfYmluZGluZycsICctaW1hZScsICc8aW5maWxlLm1hZT4nLCAnLW9tYWUnLCAnPG91dGZpbGUubWFlPic=

> <r_lp_tautomer_probability>
1

> <r_epik_Ionization_Penalty>
2.54436e-06

> <r_epik_Ionization_Penalty_Charging>
0

> <r_epik_Ionization_Penalty_Neutral>
2.54436e-06

> <r_epik_State_Penalty>
-0

> <r_epik_Charging_Adjusted_Penalty>
0

> <i_epik_Tot_Q>
0

> <i_epik_Tot_abs_Q>
0

> <r_epik_Metal_State_Penalty>
-0

> <b_epik_Metal_Only>
0

> <s_lp_Force_Field>
OPLS_2005

> <r_lp_Energy>
9.34037

> <b_lp_Chiralities_Consistent>
1

> <s_lp_Variant>
AV-unprocessed.smi:995-1

> <Gold.Version>
5.8.1

> <Gold.Id.Protein>
6NUR|6NUR_protein|mol2

> <Gold.PLP.Fitness>
38.7545

> <Gold.PLP.PLP>
-34.0935

> <Gold.PLP.part.hbond>
-2.0000

> <Gold.PLP.part.metal>
0.0000

> <Gold.PLP.part.buried>
-6.7585

> <Gold.PLP.part.nonpolar>
-26.7433

> <Gold.PLP.part.repulsive>
0.4705

> <Gold.PLP.ligand.clash>
0.0000

> <Gold.PLP.ligand.torsion>
0.7648

> <Gold.PLP.Chemscore.Hbond>
2.0000

> <Gold.PLP.Chemscore.CHOScore>
0.0000

> <Gold.PLP.Chemscore.Metal>
0.0000

> <Gold.Chemscore.Hbonds>
donor molecule, donor type, donor heavy atom, donor atom, acceptor molecule, acceptor atom, score
      L1  H     3    24       P1  7948  0.99
      P1  H  6896  6908       L1     8  1.00

> <Gold.PLP.Chemscore.Internal.Correction>
0.1907

> <Gold.Rescore>
     Score         DG    S(hbond)    S(metal)    S(lipo)     H(rot)  DE(clash)    DE(int)     intcor
      9.80     -13.20       1.92        0.00      57.48       2.12       0.00       3.40       ----

> <Gold.Chemscore.Fitness>
9.7978

> <Gold.Chemscore.DG>
-13.1973

> <Gold.Chemscore.ZeroCoef>
-5.4800

> <Gold.Chemscore.Hbond>
1.9199

> <Gold.Chemscore.Metal>
0.0000

> <Gold.Chemscore.Lipo>
57.4772

> <Gold.Chemscore.Internal_Hbond>
0.0000

> <Gold.Chemscore.DEClash>
0.0000

> <Gold.Chemscore.DEInternal>
3.3995

> <Gold.Chemscore.Rot>
2.1172

> <Gold.Chemscore.Internal.Correction>
   9.000000E+99

> <Gold.Chemscore.Hbonds>
donor molecule, donor type, donor heavy atom, donor atom, acceptor molecule, acceptor atom, score
      L1  H     3    24       P1  7948  0.42
      P1  H  6896  6908       L1     8  0.80

> <Gold.Chemscore.Hbond.Weighted>
-6.4125

> <Gold.Chemscore.Metal.Weighted>
-0.0000

> <Gold.Chemscore.Lipo.Weighted>
-6.7248

> <Gold.Chemscore.Internal_Hbond.Weighted>
0.0000

> <Gold.Chemscore.DEClash.Weighted>
0.0000

> <Gold.Chemscore.DEInternal.Weighted>
3.3995

> <Gold.Chemscore.Rot.Weighted>
5.4200

> <Gold.Chemscore.Internal.Correction.Weighted>
   9.000000E+99

> <Gold.Protein.RotatedTorsions>
[ 6907 6896 6895 6894 ] final  135.42 input  -60.11 | X-H torsion
[ 7974 7965 7964 7962 ] final   87.16 input  175.53 | X-H torsion
[ 8008 7997 7996 7995 ] final  160.34 input   59.86 | X-H torsion
[ 10167 10162 10161 10158 ] final  -16.57 input  -65.29 | X-H torsion
[ 10718 10713 10712 10709 ] final -136.58 input   66.30 | X-H torsion
[ 10763 10752 10751 10750 ] final  167.71 input  -60.55 | X-H torsion
[ 11005 11000 10999 10996 ] final   25.62 input  -57.11 | X-H torsion

> <Gold.Protein.ActiveResidues>
 VAL166  LYS551  ARG553  GLY616  TRP617  ASP618  TYR619  PRO620  LYS621  CYS622 
 ASP623  PHE694  ASN695  SER759  ASP760  ASP761  ALA762  ILE779  LEU786  VAL792 
 PHE793  MET794  SER795  GLU796  ALA797  LYS798  CYS799  TRP800  GLU811  SER814 

> <Gold.Protein.RotatedAtoms>
  152.3006  133.5652  159.5615 H   0  0  0  0  0  0  0  0  0  0  0  0  # atno 6907 bound_to 6896
  150.7276  134.0296  159.3738 H   0  0  0  0  0  0  0  0  0  0  0  0  # atno 6908 bound_to 6896
  151.8196  135.0656  160.0474 H   0  0  0  0  0  0  0  0  0  0  0  0  # atno 6909 bound_to 6896
  145.5627  139.2305  143.2450 H   0  0  0  0  0  0  0  0  0  0  0  0  # atno 7974 bound_to 7965
  156.2179  140.1807  156.7546 H   0  0  0  0  0  0  0  0  0  0  0  0  # atno 8008 bound_to 7997
  154.5819  140.0665  156.9145 H   0  0  0  0  0  0  0  0  0  0  0  0  # atno 8009 bound_to 7997
  155.2487  140.3327  155.4287 H   0  0  0  0  0  0  0  0  0  0  0  0  # atno 8010 bound_to 7997
  140.7235  143.5103  150.9758 H   0  0  0  0  0  0  0  0  0  0  0  0  # atno 10167 bound_to 10162
  156.2786  130.7307  151.1297 H   0  0  0  0  0  0  0  0  0  0  0  0  # atno 10718 bound_to 10713
  154.3579  135.2753  155.2336 H   0  0  0  0  0  0  0  0  0  0  0  0  # atno 10763 bound_to 10752
  154.4537  135.5924  153.6212 H   0  0  0  0  0  0  0  0  0  0  0  0  # atno 10764 bound_to 10752
  152.9845  135.6048  154.3796 H   0  0  0  0  0  0  0  0  0  0  0  0  # atno 10765 bound_to 10752
  140.3459  134.2282  155.7685 H   0  0  0  0  0  0  0  0  0  0  0  0  # atno 11005 bound_to 11000
  146.1840  140.6452  142.9176 LP  0  0  0  0  0  0  0  0  0  0  0  0  # atno 17320 bound_to 7965
  144.7475  140.5106  143.6825 LP  0  0  0  0  0  0  0  0  0  0  0  0  # atno 17321 bound_to 7965
  139.8816  143.7064  152.3156 LP  0  0  0  0  0  0  0  0  0  0  0  0  # atno 17342 bound_to 10162
  139.7349  144.7574  151.0744 LP  0  0  0  0  0  0  0  0  0  0  0  0  # atno 17343 bound_to 10162
  157.7307  131.0614  150.5713 LP  0  0  0  0  0  0  0  0  0  0  0  0  # atno 17370 bound_to 10713
  156.5817  130.4306  149.5974 LP  0  0  0  0  0  0  0  0  0  0  0  0  # atno 17371 bound_to 10713
  141.2026  133.7934  157.0384 LP  0  0  0  0  0  0  0  0  0  0  0  0  # atno 17394 bound_to 11000
  140.0743  134.9685  157.1519 LP  0  0  0  0  0  0  0  0  0  0  0  0  # atno 17395 bound_to 11000

$$$$
