AV-unprocessed.smi:798|AV-procd|sdf|3779|dock1
  -GOLD-   22720 1213D 1   1.00000     0.00000
 Structure written by MMmdl.
 33 35  0  0  0  0  0  0  0  0  2 V2000
  149.4707  136.0882  158.9200 O   0  0  0  0  0  0  0  0  0  0  0  0
  148.8893  137.1135  159.2823 C   0  0  0  0  0  0  0  0  0  0  0  0
  148.0561  137.2313  160.3412 N   0  5  0  0  0  0  0  0  0  0  0  0
  147.6449  136.1355  161.0000 C   0  0  0  0  0  0  0  0  0  0  0  0
  147.4611  134.9557  160.3861 N   0  0  0  0  0  0  0  0  0  0  0  0
  147.0461  133.9498  161.2485 N   0  0  0  0  0  0  0  0  0  0  0  0
  146.9341  134.3977  162.4988 C   0  0  0  0  0  0  0  0  0  0  0  0
  147.3266  136.0874  162.7365 S   0  0  0  0  0  0  0  0  0  0  0  0
  149.0550  138.2543  158.5989 N   0  0  0  0  0  0  0  0  0  0  0  0
  149.8790  138.4284  157.4045 C   0  0  2  0  0  0  0  0  0  0  0  0
  150.7986  139.6597  157.5600 C   0  0  1  0  0  0  0  0  0  0  0  0
  151.9071  139.5899  156.4941 C   0  0  0  0  0  0  0  0  0  0  0  0
  151.1442  139.9233  155.1984 C   0  0  0  0  0  0  0  0  0  0  0  0
  149.6940  140.1190  155.6907 C   0  0  2  0  0  0  0  0  0  0  0  0
  149.9333  140.8006  157.0319 C   0  0  0  0  0  0  0  0  0  0  0  0
  149.0466  138.7867  156.1458 C   0  0  1  0  0  0  0  0  0  0  0  0
  148.9875  137.6649  155.0907 C   0  0  0  0  0  0  0  0  0  0  0  0
  148.4057  138.1394  153.8945 O   0  0  0  0  0  0  0  0  0  0  0  0
  146.6216  133.7283  163.2864 H   0  0  0  0  0  0  0  0  0  0  0  0
  148.5611  139.0686  158.9332 H   0  0  0  0  0  0  0  0  0  0  0  0
  150.4806  137.5299  157.2529 H   0  0  0  0  0  0  0  0  0  0  0  0
  151.1841  139.8011  158.5706 H   0  0  0  0  0  0  0  0  0  0  0  0
  152.6794  140.3356  156.6866 H   0  0  0  0  0  0  0  0  0  0  0  0
  152.3891  138.6123  156.4559 H   0  0  0  0  0  0  0  0  0  0  0  0
  151.5249  140.8498  154.7670 H   0  0  0  0  0  0  0  0  0  0  0  0
  151.2443  139.1515  154.4367 H   0  0  0  0  0  0  0  0  0  0  0  0
  149.0729  140.6893  154.9993 H   0  0  0  0  0  0  0  0  0  0  0  0
  149.0205  140.9572  157.6097 H   0  0  0  0  0  0  0  0  0  0  0  0
  150.4689  141.7480  156.9490 H   0  0  0  0  0  0  0  0  0  0  0  0
  148.0200  139.0080  156.4459 H   0  0  0  0  0  0  0  0  0  0  0  0
  149.9728  137.2515  154.8787 H   0  0  0  0  0  0  0  0  0  0  0  0
  148.3792  136.8398  155.4612 H   0  0  0  0  0  0  0  0  0  0  0  0
  148.6771  137.5760  153.1859 H   0  0  0  0  0  0  0  0  0  0  0  0
  1  2  2  0  0  0  0
  2  3  1  0  0  0  0
  2  9  1  0  0  0  0
  3  4  1  0  0  0  0
  4  8  1  0  0  0  0
  4  5  2  0  0  0  0
  5  6  1  0  0  0  0
  6  7  2  0  0  0  0
  7  8  1  0  0  0  0
  7 19  1  0  0  0  0
  9 10  1  0  0  0  0
  9 20  1  0  0  0  0
 10 16  1  0  0  0  0
 10 11  1  0  0  0  0
 10 21  1  0  0  0  0
 11 15  1  0  0  0  0
 11 12  1  0  0  0  0
 11 22  1  0  0  0  0
 12 13  1  0  0  0  0
 12 23  1  0  0  0  0
 12 24  1  0  0  0  0
 13 14  1  0  0  0  0
 13 25  1  0  0  0  0
 13 26  1  0  0  0  0
 14 15  1  0  0  0  0
 14 16  1  0  0  0  0
 14 27  1  0  0  0  0
 15 28  1  0  0  0  0
 15 29  1  0  0  0  0
 16 17  1  0  0  0  0
 16 30  1  0  0  0  0
 17 18  1  0  0  0  0
 17 31  1  0  0  0  0
 17 32  1  0  0  0  0
 18 33  1  0  0  0  0
M  CHG  1   3  -1
M  END
> <s_m_source_file>
AV-unprocessed.smi

> <i_m_source_file_index>
798

> <i_lp_mmshare_version>
43012

> <i_f3d_flags>
0

> <s_epik_input>
W0NIMl0xW0NIMl1bQ0BASF0oW0NIMl0yKVtDQEBIXShbQ0gyXVtPSF0pW0NAQEhdKFtDQEhdMTIpW05IXUMoPU8pW05IXWMzbm5bY0hdczM=

> <s_epik_cmdline>
J2VwaWtfcHl0aG9uJywgJy1waCcsICc3LjAnLCAnLXRuJywgJzgnLCAnLW1hJywgJzIwMCcsICctbWV0YWxfYmluZGluZycsICctaW1hZScsICc8aW5maWxlLm1hZT4nLCAnLW9tYWUnLCAnPG91dGZpbGUubWFlPic=

> <r_lp_tautomer_probability>
1

> <r_epik_Ionization_Penalty>
4.53732

> <r_epik_Ionization_Penalty_Charging>
4.48632

> <r_epik_Ionization_Penalty_Neutral>
0.0510007

> <r_epik_State_Penalty>
4.48602

> <r_epik_Charging_Adjusted_Penalty>
8.97234

> <i_epik_Tot_Q>
-1

> <i_epik_Tot_abs_Q>
1

> <r_epik_Metal_State_Penalty>
0.812492

> <b_epik_Metal_Only>
1

> <s_lp_Force_Field>
OPLS_2005

> <r_lp_Energy>
47.3134

> <b_lp_Chiralities_Consistent>
1

> <s_lp_Variant>
AV-unprocessed.smi:798-11

> <Gold.Version>
5.8.1

> <Gold.Id.Protein>
6NUR|6NUR_protein|mol2

> <Gold.PLP.Fitness>
40.9924

> <Gold.PLP.PLP>
-27.4676

> <Gold.PLP.part.hbond>
-4.0000

> <Gold.PLP.part.metal>
0.0000

> <Gold.PLP.part.buried>
-2.7342

> <Gold.PLP.part.nonpolar>
-21.5647

> <Gold.PLP.part.repulsive>
0.1948

> <Gold.PLP.ligand.clash>
0.0000

> <Gold.PLP.ligand.torsion>
0.3477

> <Gold.PLP.Chemscore.Hbond>
4.7176

> <Gold.PLP.Chemscore.CHOScore>
0.0000

> <Gold.PLP.Chemscore.Metal>
0.0000

> <Gold.Chemscore.Hbonds>
donor molecule, donor type, donor heavy atom, donor atom, acceptor molecule, acceptor atom, score
      L1  H    18    33       P1  7948  1.00
      P1  H  6896  6908       L1     1  1.00
      P1  H  6931  6943       L1     3  1.14
      P1  H  6934  6947       L1     3  1.31

> <Gold.PLP.Chemscore.Internal.Correction>
0.0674

> <Gold.Rescore>
     Score         DG    S(hbond)    S(metal)    S(lipo)     H(rot)  DE(clash)    DE(int)     intcor
     14.21     -16.10       2.85        0.00      51.46       1.92       0.01       1.88       ----

> <Gold.Chemscore.Fitness>
14.2109

> <Gold.Chemscore.DG>
-16.1030

> <Gold.Chemscore.ZeroCoef>
-5.4800

> <Gold.Chemscore.Hbond>
2.8501

> <Gold.Chemscore.Metal>
0.0000

> <Gold.Chemscore.Lipo>
51.4564

> <Gold.Chemscore.Internal_Hbond>
0.0000

> <Gold.Chemscore.DEClash>
0.0118

> <Gold.Chemscore.DEInternal>
1.8803

> <Gold.Chemscore.Rot>
1.9207

> <Gold.Chemscore.Internal.Correction>
   9.000000E+99

> <Gold.Chemscore.Hbonds>
donor molecule, donor type, donor heavy atom, donor atom, acceptor molecule, acceptor atom, score
      L1  H    18    33       P1  7948  1.00
      P1  H  6896  6908       L1     1  0.97
      P1  H  6931  6943       L1     3  0.12
      P1  H  6934  6947       L1     3  0.59

> <Gold.Chemscore.Hbond.Weighted>
-9.5195

> <Gold.Chemscore.Metal.Weighted>
-0.0000

> <Gold.Chemscore.Lipo.Weighted>
-6.0204

> <Gold.Chemscore.Internal_Hbond.Weighted>
0.0000

> <Gold.Chemscore.DEClash.Weighted>
0.0118

> <Gold.Chemscore.DEInternal.Weighted>
1.8803

> <Gold.Chemscore.Rot.Weighted>
4.9169

> <Gold.Chemscore.Internal.Correction.Weighted>
   9.000000E+99

> <Gold.Protein.RotatedTorsions>
[ 6907 6896 6895 6894 ] final -171.89 input  -60.11 | X-H torsion
[ 7974 7965 7964 7962 ] final   33.26 input  175.53 | X-H torsion
[ 8008 7997 7996 7995 ] final  -69.23 input   59.86 | X-H torsion
[ 10167 10162 10161 10158 ] final -130.12 input  -65.29 | X-H torsion
[ 10718 10713 10712 10709 ] final  -26.34 input   66.30 | X-H torsion
[ 10763 10752 10751 10750 ] final  -21.50 input  -60.55 | X-H torsion
[ 11005 11000 10999 10996 ] final -113.33 input  -57.11 | X-H torsion

> <Gold.Protein.ActiveResidues>
 VAL166  LYS551  ARG553  GLY616  TRP617  ASP618  TYR619  PRO620  LYS621  CYS622 
 ASP623  PHE694  ASN695  SER759  ASP760  ASP761  ALA762  ILE779  LEU786  VAL792 
 PHE793  MET794  SER795  GLU796  ALA797  LYS798  CYS799  TRP800  GLU811  SER814 

> <Gold.Protein.RotatedAtoms>
  151.5311  133.3449  159.2918 H   0  0  0  0  0  0  0  0  0  0  0  0  # atno 6907 bound_to 6896
  150.8593  134.7943  159.7081 H   0  0  0  0  0  0  0  0  0  0  0  0  # atno 6908 bound_to 6896
  152.4617  134.5177  159.9825 H   0  0  0  0  0  0  0  0  0  0  0  0  # atno 6909 bound_to 6896
  146.1432  139.6420  142.9149 H   0  0  0  0  0  0  0  0  0  0  0  0  # atno 7974 bound_to 7965
  154.4923  140.0857  156.7622 H   0  0  0  0  0  0  0  0  0  0  0  0  # atno 8008 bound_to 7997
  155.4200  140.3445  155.4252 H   0  0  0  0  0  0  0  0  0  0  0  0  # atno 8009 bound_to 7997
  156.1347  140.1511  156.9000 H   0  0  0  0  0  0  0  0  0  0  0  0  # atno 8010 bound_to 7997
  139.9326  143.6254  152.2525 H   0  0  0  0  0  0  0  0  0  0  0  0  # atno 10167 bound_to 10162
  156.4525  130.4487  149.6980 H   0  0  0  0  0  0  0  0  0  0  0  0  # atno 10718 bound_to 10713
  153.6371  135.6986  153.5255 H   0  0  0  0  0  0  0  0  0  0  0  0  # atno 10763 bound_to 10752
  153.2812  135.4185  155.1080 H   0  0  0  0  0  0  0  0  0  0  0  0  # atno 10764 bound_to 10752
  154.8508  135.3602  154.5914 H   0  0  0  0  0  0  0  0  0  0  0  0  # atno 10765 bound_to 10752
  141.0621  133.9518  157.2648 H   0  0  0  0  0  0  0  0  0  0  0  0  # atno 11005 bound_to 11000
  145.4998  141.0438  143.2547 LP  0  0  0  0  0  0  0  0  0  0  0  0  # atno 17320 bound_to 7965
  144.7816  139.6513  143.7152 LP  0  0  0  0  0  0  0  0  0  0  0  0  # atno 17321 bound_to 7965
  139.6770  144.7658  151.1679 LP  0  0  0  0  0  0  0  0  0  0  0  0  # atno 17342 bound_to 10162
  140.7633  143.5781  150.8924 LP  0  0  0  0  0  0  0  0  0  0  0  0  # atno 17343 bound_to 10162
  156.3801  130.7574  151.2566 LP  0  0  0  0  0  0  0  0  0  0  0  0  # atno 17370 bound_to 10713
  157.7502  131.0298  150.4109 LP  0  0  0  0  0  0  0  0  0  0  0  0  # atno 17371 bound_to 10713
  139.9442  135.0186  156.8801 LP  0  0  0  0  0  0  0  0  0  0  0  0  # atno 17394 bound_to 11000
  140.5848  134.0318  155.7477 LP  0  0  0  0  0  0  0  0  0  0  0  0  # atno 17395 bound_to 11000

$$$$
