AV-unprocessed.smi:240|AV-procd|sdf|1826|dock4
  -GOLD-   2262020423D 1   1.00000     0.00000
 Structure written by MMmdl.
 55 59  0  0  0  0  0  0  0  0  1 V2000
  147.7444  142.9640  157.7509 O   0  0  0  0  0  0  0  0  0  0  0  0
  148.9187  142.7465  158.5056 C   0  0  2  0  0  0  0  0  0  0  0  0
  149.3556  144.0674  159.1668 C   0  0  0  0  0  0  0  0  0  0  0  0
  150.8690  144.1571  158.9633 C   0  0  0  0  0  0  0  0  0  0  0  0
  151.1009  143.4489  157.6310 C   0  0  0  0  0  0  0  0  0  0  0  0
  150.1402  142.2535  157.6859 C   0  0  2  0  0  0  0  0  0  0  0  0
  149.9079  141.4925  156.3409 C   0  0  2  0  0  0  0  0  0  0  0  0
  149.3583  142.3783  155.1914 C   0  0  0  0  0  0  0  0  0  0  0  0
  149.1996  141.6091  154.0048 O   0  0  0  0  0  0  0  0  0  0  0  0
  148.2721  140.5473  154.1796 C   0  0  0  0  0  0  0  0  0  0  0  0
  148.8168  139.5867  155.2436 C   0  0  0  0  0  0  0  0  0  0  0  0
  149.0618  140.2997  156.4915 N   0  0  0  0  0  0  0  0  0  0  0  0
  149.3741  139.4338  157.4818 C   0  0  0  0  0  0  0  0  0  0  0  0
  150.6068  139.5533  158.0328 N   0  0  0  0  0  0  0  0  0  0  0  0
  150.9801  138.7316  159.0181 C   0  0  0  0  0  0  0  0  0  0  0  0
  150.2863  137.7461  159.5915 N   0  0  0  0  0  0  0  0  0  0  0  0
  149.0426  137.6288  159.0434 C   0  0  0  0  0  0  0  0  0  0  0  0
  148.5057  138.4294  157.9963 C   0  0  0  0  0  0  0  0  0  0  0  0
  147.2056  138.0284  157.7136 N   0  0  0  0  0  0  0  0  0  0  0  0
  146.9891  137.0430  158.5412 C   0  0  0  0  0  0  0  0  0  0  0  0
  148.0425  136.7293  159.3701 N   0  0  0  0  0  0  0  0  0  0  0  0
  148.0766  135.6846  160.3825 C   0  0  0  0  0  0  0  0  0  0  0  0
  147.0221  135.8674  161.4997 C   0  0  1  0  0  0  0  0  0  0  0  0
  147.0203  137.2206  161.9203 O   0  0  0  0  0  0  0  0  0  0  0  0
  145.6134  135.5043  161.0480 C   0  0  0  0  0  0  0  0  0  0  0  0
  144.9488  135.0636  162.3449 C   0  0  0  0  0  0  0  0  0  0  0  0
  145.9774  134.3412  163.0004 O   0  0  0  0  0  0  0  0  0  0  0  0
  147.2283  134.9716  162.7385 C   0  0  0  0  0  0  0  0  0  0  0  0
  147.9918  143.3178  156.9098 H   0  0  0  0  0  0  0  0  0  0  0  0
  148.6819  142.0081  159.2727 H   0  0  0  0  0  0  0  0  0  0  0  0
  148.8860  144.9177  158.6692 H   0  0  0  0  0  0  0  0  0  0  0  0
  149.0769  144.1162  160.2199 H   0  0  0  0  0  0  0  0  0  0  0  0
  151.2318  145.1853  158.9613 H   0  0  0  0  0  0  0  0  0  0  0  0
  151.3834  143.6217  159.7624 H   0  0  0  0  0  0  0  0  0  0  0  0
  150.8407  144.1336  156.8249 H   0  0  0  0  0  0  0  0  0  0  0  0
  152.1393  143.1459  157.4937 H   0  0  0  0  0  0  0  0  0  0  0  0
  150.6493  141.5492  158.3455 H   0  0  0  0  0  0  0  0  0  0  0  0
  150.8852  141.1488  156.0017 H   0  0  0  0  0  0  0  0  0  0  0  0
  148.4082  142.8471  155.4438 H   0  0  0  0  0  0  0  0  0  0  0  0
  150.0538  143.1824  154.9571 H   0  0  0  0  0  0  0  0  0  0  0  0
  147.2943  140.9383  154.4656 H   0  0  0  0  0  0  0  0  0  0  0  0
  148.1449  140.0252  153.2314 H   0  0  0  0  0  0  0  0  0  0  0  0
  148.1041  138.7769  155.4073 H   0  0  0  0  0  0  0  0  0  0  0  0
  149.7453  139.1329  154.8934 H   0  0  0  0  0  0  0  0  0  0  0  0
  151.9777  138.8854  159.4021 H   0  0  0  0  0  0  0  0  0  0  0  0
  146.0469  136.5153  158.5683 H   0  0  0  0  0  0  0  0  0  0  0  0
  147.9376  134.7225  159.8877 H   0  0  0  0  0  0  0  0  0  0  0  0
  149.0787  135.6641  160.8129 H   0  0  0  0  0  0  0  0  0  0  0  0
  146.7636  137.2524  162.8292 H   0  0  0  0  0  0  0  0  0  0  0  0
  145.0869  136.3200  160.5503 H   0  0  0  0  0  0  0  0  0  0  0  0
  145.6425  134.6592  160.3586 H   0  0  0  0  0  0  0  0  0  0  0  0
  144.6614  135.9245  162.9505 H   0  0  0  0  0  0  0  0  0  0  0  0
  144.0655  134.4465  162.1798 H   0  0  0  0  0  0  0  0  0  0  0  0
  147.9642  134.1877  162.5626 H   0  0  0  0  0  0  0  0  0  0  0  0
  147.5576  135.5386  163.6105 H   0  0  0  0  0  0  0  0  0  0  0  0
  1  2  1  0  0  0  0
  1 29  1  0  0  0  0
  2  6  1  0  0  0  0
  2  3  1  0  0  0  0
  2 30  1  0  0  0  0
  3  4  1  0  0  0  0
  3 31  1  0  0  0  0
  3 32  1  0  0  0  0
  4  5  1  0  0  0  0
  4 33  1  0  0  0  0
  4 34  1  0  0  0  0
  5  6  1  0  0  0  0
  5 35  1  0  0  0  0
  5 36  1  0  0  0  0
  6  7  1  0  0  0  0
  6 37  1  0  0  0  0
  7 12  1  0  0  0  0
  7  8  1  0  0  0  0
  7 38  1  0  0  0  0
  8  9  1  0  0  0  0
  8 39  1  0  0  0  0
  8 40  1  0  0  0  0
  9 10  1  0  0  0  0
 10 11  1  0  0  0  0
 10 41  1  0  0  0  0
 10 42  1  0  0  0  0
 11 12  1  0  0  0  0
 11 43  1  0  0  0  0
 11 44  1  0  0  0  0
 12 13  1  0  0  0  0
 13 18  1  0  0  0  0
 13 14  2  0  0  0  0
 14 15  1  0  0  0  0
 15 16  2  0  0  0  0
 15 45  1  0  0  0  0
 16 17  1  0  0  0  0
 17 21  1  0  0  0  0
 17 18  2  0  0  0  0
 18 19  1  0  0  0  0
 19 20  2  0  0  0  0
 20 21  1  0  0  0  0
 20 46  1  0  0  0  0
 21 22  1  0  0  0  0
 22 23  1  0  0  0  0
 22 47  1  0  0  0  0
 22 48  1  0  0  0  0
 23 28  1  0  0  0  0
 23 24  1  0  0  0  0
 23 25  1  0  0  0  0
 24 49  1  0  0  0  0
 25 26  1  0  0  0  0
 25 50  1  0  0  0  0
 25 51  1  0  0  0  0
 26 27  1  0  0  0  0
 26 52  1  0  0  0  0
 26 53  1  0  0  0  0
 27 28  1  0  0  0  0
 28 54  1  0  0  0  0
 28 55  1  0  0  0  0
M  END
> <s_m_source_file>
AV-unprocessed.smi

> <i_m_source_file_index>
240

> <i_lp_mmshare_version>
43012

> <i_f3d_flags>
0

> <s_epik_input>
W09IXVtDQEBIXTFbQ0gyXVtDSDJdW0NIMl1bQ0BIXTFbQ0BASF0yW0NIMl1PW0NIMl1bQ0gyXU4yYyhuW2NIXW4zKWMoYzM0KW5bY0hdbjRbQ0gyXVtDQEBdNShbT0hdKVtDSDJdW0NIMl1PW0NIMl01

> <s_epik_cmdline>
J2VwaWtfcHl0aG9uJywgJy1waCcsICc3LjAnLCAnLXRuJywgJzgnLCAnLW1hJywgJzIwMCcsICctbWV0YWxfYmluZGluZycsICctaW1hZScsICc8aW5maWxlLm1hZT4nLCAnLW9tYWUnLCAnPG91dGZpbGUubWFlPic=

> <r_lp_tautomer_probability>
1

> <r_epik_Ionization_Penalty>
0.000130618

> <r_epik_Ionization_Penalty_Charging>
0

> <r_epik_Ionization_Penalty_Neutral>
0.000130618

> <r_epik_State_Penalty>
-0

> <r_epik_Charging_Adjusted_Penalty>
0

> <i_epik_Tot_Q>
0

> <i_epik_Tot_abs_Q>
0

> <r_epik_Metal_State_Penalty>
-0

> <b_epik_Metal_Only>
0

> <s_lp_Force_Field>
OPLS_2005

> <r_lp_Energy>
64.3211

> <b_lp_Chiralities_Consistent>
1

> <s_lp_Variant>
AV-unprocessed.smi:240-3

> <Gold.Version>
5.8.1

> <Gold.Id.Protein>
6NUR|6NUR_protein|mol2

> <Gold.PLP.Fitness>
50.9911

> <Gold.PLP.PLP>
-41.5932

> <Gold.PLP.part.hbond>
-7.5667

> <Gold.PLP.part.metal>
0.0000

> <Gold.PLP.part.buried>
-2.6074

> <Gold.PLP.part.nonpolar>
-31.0748

> <Gold.PLP.part.repulsive>
0.4825

> <Gold.PLP.ligand.clash>
0.0000

> <Gold.PLP.ligand.torsion>
0.4094

> <Gold.PLP.Chemscore.Hbond>
3.3254

> <Gold.PLP.Chemscore.CHOScore>
0.0000

> <Gold.PLP.Chemscore.Metal>
0.0000

> <Gold.Chemscore.Hbonds>
donor molecule, donor type, donor heavy atom, donor atom, acceptor molecule, acceptor atom, score
      L1  H     1    29       P1  8028  0.57
      P1  H  6931  6943       L1    24  0.36
      P1  H  6934  6947       L1    24  0.78
      P1  H  8011  8017       L1     9  0.62

> <Gold.PLP.Chemscore.Internal.Correction>
0.2406

> <Gold.Rescore>
     Score         DG    S(hbond)    S(metal)    S(lipo)     H(rot)  DE(clash)    DE(int)     intcor
     12.44     -15.95       2.13        0.00      94.53       3.00       1.70       1.81       ----

> <Gold.Chemscore.Fitness>
12.4398

> <Gold.Chemscore.DG>
-15.9525

> <Gold.Chemscore.ZeroCoef>
-5.4800

> <Gold.Chemscore.Hbond>
2.1264

> <Gold.Chemscore.Metal>
0.0000

> <Gold.Chemscore.Lipo>
94.5307

> <Gold.Chemscore.Internal_Hbond>
0.0000

> <Gold.Chemscore.DEClash>
1.7011

> <Gold.Chemscore.DEInternal>
1.8116

> <Gold.Chemscore.Rot>
3.0039

> <Gold.Chemscore.Internal.Correction>
   9.000000E+99

> <Gold.Chemscore.Hbonds>
donor molecule, donor type, donor heavy atom, donor atom, acceptor molecule, acceptor atom, score
      L1  H     1    29       P1  8028  0.04
      P1  H  6931  6943       L1    24  0.13
      P1  H  6934  6947       L1    24  0.69
      P1  H  8011  8017       L1     9  0.60

> <Gold.Chemscore.Hbond.Weighted>
-7.1023

> <Gold.Chemscore.Metal.Weighted>
-0.0000

> <Gold.Chemscore.Lipo.Weighted>
-11.0601

> <Gold.Chemscore.Internal_Hbond.Weighted>
0.0000

> <Gold.Chemscore.DEClash.Weighted>
1.7011

> <Gold.Chemscore.DEInternal.Weighted>
1.8116

> <Gold.Chemscore.Rot.Weighted>
7.6899

> <Gold.Chemscore.Internal.Correction.Weighted>
   9.000000E+99

> <Gold.Protein.RotatedTorsions>
[ 6907 6896 6895 6894 ] final  -45.33 input  -60.11 | X-H torsion
[ 7974 7965 7964 7962 ] final   70.37 input  175.53 | X-H torsion
[ 8008 7997 7996 7995 ] final  -66.80 input   59.86 | X-H torsion
[ 10167 10162 10161 10158 ] final  -29.86 input  -65.29 | X-H torsion
[ 10718 10713 10712 10709 ] final -121.62 input   66.30 | X-H torsion
[ 10763 10752 10751 10750 ] final  160.91 input  -60.55 | X-H torsion
[ 11005 11000 10999 10996 ] final  177.85 input  -57.11 | X-H torsion

> <Gold.Protein.ActiveResidues>
 VAL166  LYS551  ARG553  GLY616  TRP617  ASP618  TYR619  PRO620  LYS621  CYS622 
 ASP623  PHE694  ASN695  SER759  ASP760  ASP761  ALA762  ILE779  LEU786  VAL792 
 PHE793  MET794  SER795  GLU796  ALA797  LYS798  CYS799  TRP800  GLU811  SER814 

> <Gold.Protein.RotatedAtoms>
  150.9231  134.8648  159.7501 H   0  0  0  0  0  0  0  0  0  0  0  0  # atno 6907 bound_to 6896
  152.5002  134.4189  159.9484 H   0  0  0  0  0  0  0  0  0  0  0  0  # atno 6908 bound_to 6896
  151.4222  133.3655  159.2792 H   0  0  0  0  0  0  0  0  0  0  0  0  # atno 6909 bound_to 6896
  145.7789  139.2878  143.1277 H   0  0  0  0  0  0  0  0  0  0  0  0  # atno 7974 bound_to 7965
  154.4758  140.0905  156.7258 H   0  0  0  0  0  0  0  0  0  0  0  0  # atno 8008 bound_to 7997
  155.4601  140.3460  155.4293 H   0  0  0  0  0  0  0  0  0  0  0  0  # atno 8009 bound_to 7997
  156.1114  140.1449  156.9322 H   0  0  0  0  0  0  0  0  0  0  0  0  # atno 8010 bound_to 7997
  140.7256  143.3895  151.1456 H   0  0  0  0  0  0  0  0  0  0  0  0  # atno 10167 bound_to 10162
  156.1352  130.6425  150.9684 H   0  0  0  0  0  0  0  0  0  0  0  0  # atno 10718 bound_to 10713
  154.2548  135.2770  155.2802 H   0  0  0  0  0  0  0  0  0  0  0  0  # atno 10763 bound_to 10752
  154.5434  135.5696  153.6863 H   0  0  0  0  0  0  0  0  0  0  0  0  # atno 10764 bound_to 10752
  152.9973  135.6257  154.2696 H   0  0  0  0  0  0  0  0  0  0  0  0  # atno 10765 bound_to 10752
  140.3886  134.6882  157.4494 H   0  0  0  0  0  0  0  0  0  0  0  0  # atno 11005 bound_to 11000
  146.0094  140.8449  142.9978 LP  0  0  0  0  0  0  0  0  0  0  0  0  # atno 17320 bound_to 7965
  144.6799  140.2467  143.7337 LP  0  0  0  0  0  0  0  0  0  0  0  0  # atno 17321 bound_to 7965
  139.7497  143.8797  152.3073 LP  0  0  0  0  0  0  0  0  0  0  0  0  # atno 17342 bound_to 10162
  139.8647  144.7099  150.9058 LP  0  0  0  0  0  0  0  0  0  0  0  0  # atno 17343 bound_to 10162
  157.6525  131.0894  150.8019 LP  0  0  0  0  0  0  0  0  0  0  0  0  # atno 17370 bound_to 10713
  156.8100  130.4949  149.5357 LP  0  0  0  0  0  0  0  0  0  0  0  0  # atno 17371 bound_to 10713
  140.0424  134.6248  155.8964 LP  0  0  0  0  0  0  0  0  0  0  0  0  # atno 17394 bound_to 11000
  141.1899  133.6566  156.5387 LP  0  0  0  0  0  0  0  0  0  0  0  0  # atno 17395 bound_to 11000

$$$$
