AV-unprocessed.smi:1199|AV-procd|sdf|5020|dock10
  -GOLD-   22720 4 43D 1   1.00000     0.00000
 Structure written by MMmdl.
 42 43  0  0  0  0  0  0  0  0  2 V2000
  142.0943  141.0001  156.9935 C   0  0  0  0  0  0  0  0  0  0  0  0
  143.1398  140.4202  156.0314 C   0  0  2  0  0  0  0  0  0  0  0  0
  144.1508  141.4986  155.5748 C   0  0  0  0  0  0  0  0  0  0  0  0
  145.2112  140.9701  154.6772 N   0  3  0  0  0  0  0  0  0  0  0  0
  146.2784  141.9589  154.3955 C   0  0  0  0  0  0  0  0  0  0  0  0
  147.3086  141.3744  153.4119 C   0  0  0  0  0  0  0  0  0  0  0  0
  147.8348  140.1574  153.9268 O   0  0  0  0  0  0  0  0  0  0  0  0
  146.8219  139.1770  154.1177 C   0  0  0  0  0  0  0  0  0  0  0  0
  145.8033  139.6939  155.1460 C   0  0  0  0  0  0  0  0  0  0  0  0
  142.4612  139.8242  154.8806 N   0  0  0  0  0  0  0  0  0  0  0  0
  141.5809  138.8118  154.9264 C   0  0  0  0  0  0  0  0  0  0  0  0
  141.1775  138.3096  155.9755 O   0  0  0  0  0  0  0  0  0  0  0  0
  141.0980  138.2666  153.5770 C   0  0  0  0  0  0  0  0  0  0  0  0
  141.8702  137.0886  153.1569 N   0  0  0  0  0  0  0  0  0  0  0  0
  143.0527  137.3882  152.4984 N   0  0  0  0  0  0  0  0  0  0  0  0
  143.8007  136.4364  152.0524 C   0  0  0  0  0  0  0  0  0  0  0  0
  144.9616  136.7778  151.4037 O   0  0  0  0  0  0  0  0  0  0  0  0
  143.4313  135.0488  152.2276 C   0  0  0  0  0  0  0  0  0  0  0  0
  142.2809  134.7663  152.8772 C   0  0  0  0  0  0  0  0  0  0  0  0
  141.4098  135.8216  153.3964 C   0  0  0  0  0  0  0  0  0  0  0  0
  140.3519  135.5952  153.9846 O   0  0  0  0  0  0  0  0  0  0  0  0
  144.7323  137.5030  150.8431 H   0  0  0  0  0  0  0  0  0  0  0  0
  142.5700  141.4285  157.8760 H   0  0  0  0  0  0  0  0  0  0  0  0
  141.4039  140.2281  157.3356 H   0  0  0  0  0  0  0  0  0  0  0  0
  141.5058  141.7859  156.5186 H   0  0  0  0  0  0  0  0  0  0  0  0
  143.6750  139.6449  156.5813 H   0  0  0  0  0  0  0  0  0  0  0  0
  143.5983  142.2738  155.0414 H   0  0  0  0  0  0  0  0  0  0  0  0
  144.6073  141.9899  156.4353 H   0  0  0  0  0  0  0  0  0  0  0  0
  145.8431  142.8651  153.9723 H   0  0  0  0  0  0  0  0  0  0  0  0
  146.7692  142.2417  155.3282 H   0  0  0  0  0  0  0  0  0  0  0  0
  146.8622  141.2000  152.4328 H   0  0  0  0  0  0  0  0  0  0  0  0
  148.1273  142.0788  153.2645 H   0  0  0  0  0  0  0  0  0  0  0  0
  146.3358  138.9436  153.1686 H   0  0  0  0  0  0  0  0  0  0  0  0
  147.2836  138.2565  154.4752 H   0  0  0  0  0  0  0  0  0  0  0  0
  146.2906  139.8468  156.1101 H   0  0  0  0  0  0  0  0  0  0  0  0
  145.0284  138.9438  155.2985 H   0  0  0  0  0  0  0  0  0  0  0  0
  142.7192  140.1792  153.9707 H   0  0  0  0  0  0  0  0  0  0  0  0
  140.0384  138.0210  153.6682 H   0  0  0  0  0  0  0  0  0  0  0  0
  141.1578  139.0405  152.8092 H   0  0  0  0  0  0  0  0  0  0  0  0
  144.0687  134.2645  151.8462 H   0  0  0  0  0  0  0  0  0  0  0  0
  141.9937  133.7344  153.0164 H   0  0  0  0  0  0  0  0  0  0  0  0
  144.7641  140.7800  153.7912 H   0  0  0  0  0  0  0  0  0  0  0  0
  1  2  1  0  0  0  0
  1 23  1  0  0  0  0
  1 24  1  0  0  0  0
  1 25  1  0  0  0  0
  2  3  1  0  0  0  0
  2 10  1  0  0  0  0
  2 26  1  0  0  0  0
  3  4  1  0  0  0  0
  3 27  1  0  0  0  0
  3 28  1  0  0  0  0
  4  9  1  0  0  0  0
  4  5  1  0  0  0  0
  4 42  1  0  0  0  0
  5  6  1  0  0  0  0
  5 29  1  0  0  0  0
  5 30  1  0  0  0  0
  6  7  1  0  0  0  0
  6 31  1  0  0  0  0
  6 32  1  0  0  0  0
  7  8  1  0  0  0  0
  8  9  1  0  0  0  0
  8 33  1  0  0  0  0
  8 34  1  0  0  0  0
  9 35  1  0  0  0  0
  9 36  1  0  0  0  0
 10 11  1  0  0  0  0
 10 37  1  0  0  0  0
 11 12  2  0  0  0  0
 11 13  1  0  0  0  0
 13 38  1  0  0  0  0
 13 39  1  0  0  0  0
 13 14  1  0  0  0  0
 14 15  1  0  0  0  0
 14 20  1  0  0  0  0
 15 16  2  0  0  0  0
 16 17  1  0  0  0  0
 16 18  1  0  0  0  0
 17 22  1  0  0  0  0
 18 40  1  0  0  0  0
 18 19  2  0  0  0  0
 19 41  1  0  0  0  0
 19 20  1  0  0  0  0
 20 21  2  0  0  0  0
M  CHG  1   4   1
M  END
> <s_m_source_file>
AV-unprocessed.smi

> <i_m_source_file_index>
1199

> <i_lp_mmshare_version>
43012

> <i_f3d_flags>
0

> <s_epik_input>
W0NIMl0xW0NIMl1PW0NIMl1bQ0gyXU4xW0NIMl1bQ0BASF0oW0NIM10pW05IXUMoPU8pW0NIMl1uMltuSF1jKD1PKVtjSF1bY0hdYzI9Tw==

> <s_epik_cmdline>
J2VwaWtfcHl0aG9uJywgJy1waCcsICc3LjAnLCAnLXRuJywgJzgnLCAnLW1hJywgJzIwMCcsICctbWV0YWxfYmluZGluZycsICctaW1hZScsICc8aW5maWxlLm1hZT4nLCAnLW9tYWUnLCAnPG91dGZpbGUubWFlPic=

> <r_lp_tautomer_probability>
0.9996

> <r_epik_Ionization_Penalty>
2.86815

> <r_epik_Ionization_Penalty_Charging>
0.656653

> <r_epik_Ionization_Penalty_Neutral>
2.21149

> <r_epik_State_Penalty>
2.43136

> <r_epik_Charging_Adjusted_Penalty>
3.08801

> <i_epik_Tot_Q>
1

> <i_epik_Tot_abs_Q>
1

> <r_epik_Metal_State_Penalty>
2.43136

> <b_epik_Metal_Only>
0

> <s_lp_Force_Field>
OPLS_2005

> <r_lp_Energy>
31.3185

> <b_lp_Chiralities_Consistent>
1

> <s_lp_Variant>
AV-unprocessed.smi:1199-7

> <Gold.Version>
5.8.1

> <Gold.Id.Protein>
6NUR|6NUR_protein|mol2

> <Gold.PLP.Fitness>
41.7532

> <Gold.PLP.PLP>
-28.1922

> <Gold.PLP.part.hbond>
-4.0000

> <Gold.PLP.part.metal>
0.0000

> <Gold.PLP.part.buried>
-7.6566

> <Gold.PLP.part.nonpolar>
-17.5516

> <Gold.PLP.part.repulsive>
0.7040

> <Gold.PLP.ligand.clash>
0.0000

> <Gold.PLP.ligand.torsion>
0.7501

> <Gold.PLP.Chemscore.Hbond>
5.0000

> <Gold.PLP.Chemscore.CHOScore>
0.0000

> <Gold.PLP.Chemscore.Metal>
0.0000

> <Gold.Chemscore.Hbonds>
donor molecule, donor type, donor heavy atom, donor atom, acceptor molecule, acceptor atom, score
      L1  H     4    42       P1 10175  2.00
      L1  H    10    37       P1 10175  1.00
      L1  H    17    22       P1 10171  1.00
      P1  H 11000 11005       L1    21  0.76

> <Gold.PLP.Chemscore.Internal.Correction>
0.0613

> <Gold.Rescore>
     Score         DG    S(hbond)    S(metal)    S(lipo)     H(rot)  DE(clash)    DE(int)     intcor
     14.26     -15.14       3.94        0.00      36.40       3.03       0.13       0.76       ----

> <Gold.Chemscore.Fitness>
14.2582

> <Gold.Chemscore.DG>
-15.1394

> <Gold.Chemscore.ZeroCoef>
-5.4800

> <Gold.Chemscore.Hbond>
3.9423

> <Gold.Chemscore.Metal>
0.0000

> <Gold.Chemscore.Lipo>
36.3965

> <Gold.Chemscore.Internal_Hbond>
0.0000

> <Gold.Chemscore.DEClash>
0.1251

> <Gold.Chemscore.DEInternal>
0.7561

> <Gold.Chemscore.Rot>
3.0336

> <Gold.Chemscore.Internal.Correction>
   9.000000E+99

> <Gold.Chemscore.Hbonds>
donor molecule, donor type, donor heavy atom, donor atom, acceptor molecule, acceptor atom, score
      L1  H     4    42       P1 10175  0.96
      L1  H    10    37       P1 10175  0.98
      L1  H    17    22       P1 10171  1.00
      P1  H 11000 11005       L1    21  0.74

> <Gold.Chemscore.Hbond.Weighted>
-13.1671

> <Gold.Chemscore.Metal.Weighted>
-0.0000

> <Gold.Chemscore.Lipo.Weighted>
-4.2584

> <Gold.Chemscore.Internal_Hbond.Weighted>
0.0000

> <Gold.Chemscore.DEClash.Weighted>
0.1251

> <Gold.Chemscore.DEInternal.Weighted>
0.7561

> <Gold.Chemscore.Rot.Weighted>
7.7661

> <Gold.Chemscore.Internal.Correction.Weighted>
   9.000000E+99

> <Gold.Protein.RotatedTorsions>
[ 6907 6896 6895 6894 ] final  -54.49 input  -60.11 | X-H torsion
[ 7974 7965 7964 7962 ] final  -87.38 input  175.53 | X-H torsion
[ 8008 7997 7996 7995 ] final -173.62 input   59.86 | X-H torsion
[ 10167 10162 10161 10158 ] final -123.68 input  -65.29 | X-H torsion
[ 10718 10713 10712 10709 ] final  -35.63 input   66.30 | X-H torsion
[ 10763 10752 10751 10750 ] final  -18.91 input  -60.55 | X-H torsion
[ 11005 11000 10999 10996 ] final   50.96 input  -57.11 | X-H torsion

> <Gold.Protein.ActiveResidues>
 VAL166  LYS551  ARG553  GLY616  TRP617  ASP618  TYR619  PRO620  LYS621  CYS622 
 ASP623  PHE694  ASN695  SER759  ASP760  ASP761  ALA762  ILE779  LEU786  VAL792 
 PHE793  MET794  SER795  GLU796  ALA797  LYS798  CYS799  TRP800  GLU811  SER814 

> <Gold.Protein.RotatedAtoms>
  150.8333  134.7596  159.6871 H   0  0  0  0  0  0  0  0  0  0  0  0  # atno 6907 bound_to 6896
  152.4434  134.5541  159.9885 H   0  0  0  0  0  0  0  0  0  0  0  0  # atno 6908 bound_to 6896
  151.5697  133.3354  159.3023 H   0  0  0  0  0  0  0  0  0  0  0  0  # atno 6909 bound_to 6896
  145.4673  140.9560  143.1936 H   0  0  0  0  0  0  0  0  0  0  0  0  # atno 7974 bound_to 7965
  155.9598  140.1142  157.0905 H   0  0  0  0  0  0  0  0  0  0  0  0  # atno 8008 bound_to 7997
  154.4129  140.1184  156.5230 H   0  0  0  0  0  0  0  0  0  0  0  0  # atno 8009 bound_to 7997
  155.6735  140.3473  155.4830 H   0  0  0  0  0  0  0  0  0  0  0  0  # atno 8010 bound_to 7997
  140.0009  143.5542  152.2304 H   0  0  0  0  0  0  0  0  0  0  0  0  # atno 10167 bound_to 10162
  156.3364  130.4287  149.7826 H   0  0  0  0  0  0  0  0  0  0  0  0  # atno 10718 bound_to 10713
  153.5965  135.7001  153.5401 H   0  0  0  0  0  0  0  0  0  0  0  0  # atno 10763 bound_to 10752
  153.3133  135.4095  155.1354 H   0  0  0  0  0  0  0  0  0  0  0  0  # atno 10764 bound_to 10752
  154.8590  135.3677  154.5499 H   0  0  0  0  0  0  0  0  0  0  0  0  # atno 10765 bound_to 10752
  140.0973  134.5128  155.8795 H   0  0  0  0  0  0  0  0  0  0  0  0  # atno 11005 bound_to 11000
  144.7966  139.6222  143.7090 LP  0  0  0  0  0  0  0  0  0  0  0  0  # atno 17320 bound_to 7965
  146.2417  139.6015  142.9487 LP  0  0  0  0  0  0  0  0  0  0  0  0  # atno 17321 bound_to 7965
  139.6273  144.7639  151.2612 LP  0  0  0  0  0  0  0  0  0  0  0  0  # atno 17342 bound_to 10162
  140.7419  143.6542  150.8221 LP  0  0  0  0  0  0  0  0  0  0  0  0  # atno 17343 bound_to 10162
  156.5079  130.8158  151.3158 LP  0  0  0  0  0  0  0  0  0  0  0  0  # atno 17370 bound_to 10713
  157.7439  130.9923  150.2632 LP  0  0  0  0  0  0  0  0  0  0  0  0  # atno 17371 bound_to 10713
  141.2096  133.6685  156.6448 LP  0  0  0  0  0  0  0  0  0  0  0  0  # atno 17394 bound_to 11000
  140.3269  134.7961  157.4296 LP  0  0  0  0  0  0  0  0  0  0  0  0  # atno 17395 bound_to 11000

$$$$
