AV-unprocessed.smi:1844|AV-procd|sdf|7508|dock3
  -GOLD-   22720 9213D 1   1.00000     0.00000
 Structure written by MMmdl.
 45 46  0  0  0  0  0  0  0  0  1 V2000
  145.6040  136.2004  150.8672 C   0  0  0  0  0  0  0  0  0  0  0  0
  146.0955  136.8242  152.0864 N   0  0  0  0  0  0  0  0  0  0  0  0
  146.6466  138.0477  152.1468 C   0  0  0  0  0  0  0  0  0  0  0  0
  146.7730  138.7497  151.1421 O   0  0  0  0  0  0  0  0  0  0  0  0
  147.0650  138.4431  153.4940 C   0  0  0  0  0  0  0  0  0  0  0  0
  146.7506  137.6689  154.6858 C   0  0  0  0  0  0  0  0  0  0  0  0
  147.1707  138.0771  155.8993 C   0  0  0  0  0  0  0  0  0  0  0  0
  147.9513  139.3054  156.0734 C   0  0  0  0  0  0  0  0  0  0  0  0
  148.3414  139.6807  157.1794 O   0  0  0  0  0  0  0  0  0  0  0  0
  148.2172  140.0070  154.9300 N   0  0  0  0  0  0  0  0  0  0  0  0
  148.9900  141.2598  154.9760 C   0  0  0  0  0  0  0  0  0  0  0  0
  150.3285  141.1296  155.7170 C   0  0  0  0  0  0  0  0  0  0  0  0
  151.2291  140.4099  155.2826 O   0  0  0  0  0  0  0  0  0  0  0  0
  150.4421  141.8511  156.8422 N   0  0  0  0  0  0  0  0  0  0  0  0
  151.6161  141.8889  157.7118 C   0  0  2  0  0  0  0  0  0  0  0  0
  151.5314  140.7457  158.7452 C   0  0  0  0  0  0  0  0  0  0  0  0
  152.7079  140.7807  159.7309 C   0  0  0  0  0  0  0  0  0  0  0  0
  152.7986  142.1435  160.4301 C   0  0  0  0  0  0  0  0  0  0  0  0
  152.9049  143.2816  159.4042 C   0  0  0  0  0  0  0  0  0  0  0  0
  151.7288  143.2691  158.4064 C   0  0  1  0  0  0  0  0  0  0  0  0
  151.8639  144.4259  157.3997 C   0  0  0  0  0  0  0  0  0  0  0  0
  147.7809  139.5720  153.6631 C   0  0  0  0  0  0  0  0  0  0  0  0
  145.1513  135.2367  151.0997 H   0  0  0  0  0  0  0  0  0  0  0  0
  146.4193  136.0334  150.1626 H   0  0  0  0  0  0  0  0  0  0  0  0
  144.8494  136.8234  150.3857 H   0  0  0  0  0  0  0  0  0  0  0  0
  146.0153  136.2931  152.9410 H   0  0  0  0  0  0  0  0  0  0  0  0
  146.1799  136.7538  154.6275 H   0  0  0  0  0  0  0  0  0  0  0  0
  146.9269  137.4845  156.7690 H   0  0  0  0  0  0  0  0  0  0  0  0
  149.1932  141.6188  153.9660 H   0  0  0  0  0  0  0  0  0  0  0  0
  148.3990  142.0496  155.4437 H   0  0  0  0  0  0  0  0  0  0  0  0
  149.6540  142.4175  157.1209 H   0  0  0  0  0  0  0  0  0  0  0  0
  152.5135  141.7437  157.1069 H   0  0  0  0  0  0  0  0  0  0  0  0
  150.5950  140.8188  159.3002 H   0  0  0  0  0  0  0  0  0  0  0  0
  151.5127  139.7805  158.2376 H   0  0  0  0  0  0  0  0  0  0  0  0
  152.5957  139.9887  160.4718 H   0  0  0  0  0  0  0  0  0  0  0  0
  153.6380  140.5783  159.1986 H   0  0  0  0  0  0  0  0  0  0  0  0
  151.9187  142.2942  161.0566 H   0  0  0  0  0  0  0  0  0  0  0  0
  153.6610  142.1624  161.0972 H   0  0  0  0  0  0  0  0  0  0  0  0
  152.9405  144.2379  159.9274 H   0  0  0  0  0  0  0  0  0  0  0  0
  153.8475  143.1927  158.8624 H   0  0  0  0  0  0  0  0  0  0  0  0
  150.8131  143.4368  158.9758 H   0  0  0  0  0  0  0  0  0  0  0  0
  152.7506  144.3051  156.7766 H   0  0  0  0  0  0  0  0  0  0  0  0
  151.9481  145.3838  157.9136 H   0  0  0  0  0  0  0  0  0  0  0  0
  150.9996  144.4903  156.7385 H   0  0  0  0  0  0  0  0  0  0  0  0
  148.0753  140.2166  152.8465 H   0  0  0  0  0  0  0  0  0  0  0  0
  1  2  1  0  0  0  0
  1 23  1  0  0  0  0
  1 24  1  0  0  0  0
  1 25  1  0  0  0  0
  2  3  1  0  0  0  0
  2 26  1  0  0  0  0
  3  4  2  0  0  0  0
  3  5  1  0  0  0  0
  5 22  2  0  0  0  0
  5  6  1  0  0  0  0
  6  7  2  0  0  0  0
  6 27  1  0  0  0  0
  7  8  1  0  0  0  0
  7 28  1  0  0  0  0
  8  9  2  0  0  0  0
  8 10  1  0  0  0  0
 10 11  1  0  0  0  0
 10 22  1  0  0  0  0
 11 12  1  0  0  0  0
 11 29  1  0  0  0  0
 11 30  1  0  0  0  0
 12 13  2  0  0  0  0
 12 14  1  0  0  0  0
 14 15  1  0  0  0  0
 14 31  1  0  0  0  0
 15 20  1  0  0  0  0
 15 16  1  0  0  0  0
 15 32  1  0  0  0  0
 16 17  1  0  0  0  0
 16 33  1  0  0  0  0
 16 34  1  0  0  0  0
 17 18  1  0  0  0  0
 17 35  1  0  0  0  0
 17 36  1  0  0  0  0
 18 19  1  0  0  0  0
 18 37  1  0  0  0  0
 18 38  1  0  0  0  0
 19 20  1  0  0  0  0
 19 39  1  0  0  0  0
 19 40  1  0  0  0  0
 20 21  1  0  0  0  0
 20 41  1  0  0  0  0
 21 42  1  0  0  0  0
 21 43  1  0  0  0  0
 21 44  1  0  0  0  0
 22 45  1  0  0  0  0
M  END
> <s_m_source_file>
AV-unprocessed.smi

> <i_m_source_file_index>
1844

> <i_lp_mmshare_version>
43012

> <i_f3d_flags>
0

> <s_epik_input>
W0NIM11bTkhdQyg9TyljMVtjSF1bY0hdYyg9TyluKFtjSF0xKVtDSDJdQyg9TylbTkhdW0NAQEhdMltDSDJdW0NIMl1bQ0gyXVtDSDJdW0NASF0yW0NIM10=

> <s_epik_cmdline>
J2VwaWtfcHl0aG9uJywgJy1waCcsICc3LjAnLCAnLXRuJywgJzgnLCAnLW1hJywgJzIwMCcsICctbWV0YWxfYmluZGluZycsICctaW1hZScsICc8aW5maWxlLm1hZT4nLCAnLW9tYWUnLCAnPG91dGZpbGUubWFlPic=

> <r_lp_tautomer_probability>
1

> <r_epik_Ionization_Penalty>
3.66612e-07

> <r_epik_Ionization_Penalty_Charging>
5.18929e-08

> <r_epik_Ionization_Penalty_Neutral>
3.14719e-07

> <r_epik_State_Penalty>
-0

> <r_epik_Charging_Adjusted_Penalty>
5.18929e-08

> <i_epik_Tot_Q>
0

> <i_epik_Tot_abs_Q>
0

> <r_epik_Metal_State_Penalty>
-0

> <b_epik_Metal_Only>
0

> <s_lp_Force_Field>
OPLS_2005

> <r_lp_Energy>
22.707

> <b_lp_Chiralities_Consistent>
1

> <s_lp_Variant>
AV-unprocessed.smi:1844-1

> <Gold.Version>
5.8.1

> <Gold.Id.Protein>
6NUR|6NUR_protein|mol2

> <Gold.PLP.Fitness>
46.6439

> <Gold.PLP.PLP>
-38.6967

> <Gold.PLP.part.hbond>
-3.0000

> <Gold.PLP.part.metal>
0.0000

> <Gold.PLP.part.buried>
-3.6843

> <Gold.PLP.part.nonpolar>
-32.9232

> <Gold.PLP.part.repulsive>
0.9496

> <Gold.PLP.ligand.clash>
0.0000

> <Gold.PLP.ligand.torsion>
0.4817

> <Gold.PLP.Chemscore.Hbond>
1.9680

> <Gold.PLP.Chemscore.CHOScore>
1.0000

> <Gold.PLP.Chemscore.Metal>
0.0000

> <Gold.Chemscore.Hbonds>
donor molecule, donor type, donor heavy atom, donor atom, acceptor molecule, acceptor atom, score
      P1  H  7954  7966       L1     4  0.89
      P1  H  7989  7998       L1    13  0.98
      L1  C    22    45       P1  7957  1.00

> <Gold.PLP.Chemscore.Internal.Correction>
0.0066

> <Gold.Rescore>
     Score         DG    S(hbond)    S(metal)    S(lipo)     H(rot)  DE(clash)    DE(int)     intcor
     15.26     -18.84       1.66        0.00      99.48       1.49       1.76       1.83       ----

> <Gold.Chemscore.Fitness>
15.2589

> <Gold.Chemscore.DG>
-18.8403

> <Gold.Chemscore.ZeroCoef>
-5.4800

> <Gold.Chemscore.Hbond>
1.6593

> <Gold.Chemscore.Metal>
0.0000

> <Gold.Chemscore.Lipo>
99.4767

> <Gold.Chemscore.Internal_Hbond>
0.0000

> <Gold.Chemscore.DEClash>
1.7564

> <Gold.Chemscore.DEInternal>
1.8251

> <Gold.Chemscore.Rot>
1.4923

> <Gold.Chemscore.Internal.Correction>
   9.000000E+99

> <Gold.Chemscore.Hbonds>
donor molecule, donor type, donor heavy atom, donor atom, acceptor molecule, acceptor atom, score
      P1  H  7954  7966       L1     4  0.57
      P1  H  7989  7998       L1    13  0.69

> <Gold.Chemscore.Hbond.Weighted>
-5.5420

> <Gold.Chemscore.Metal.Weighted>
-0.0000

> <Gold.Chemscore.Lipo.Weighted>
-11.6388

> <Gold.Chemscore.Internal_Hbond.Weighted>
0.0000

> <Gold.Chemscore.DEClash.Weighted>
1.7564

> <Gold.Chemscore.DEInternal.Weighted>
1.8251

> <Gold.Chemscore.Rot.Weighted>
3.8204

> <Gold.Chemscore.Internal.Correction.Weighted>
   9.000000E+99

> <Gold.Protein.RotatedTorsions>
[ 6907 6896 6895 6894 ] final   18.80 input  -60.11 | X-H torsion
[ 7974 7965 7964 7962 ] final -139.25 input  175.53 | X-H torsion
[ 8008 7997 7996 7995 ] final  -56.08 input   59.86 | X-H torsion
[ 10167 10162 10161 10158 ] final  171.90 input  -65.29 | X-H torsion
[ 10718 10713 10712 10709 ] final   19.43 input   66.30 | X-H torsion
[ 10763 10752 10751 10750 ] final  -70.85 input  -60.55 | X-H torsion
[ 11005 11000 10999 10996 ] final  -76.10 input  -57.11 | X-H torsion

> <Gold.Protein.ActiveResidues>
 VAL166  LYS551  ARG553  GLY616  TRP617  ASP618  TYR619  PRO620  LYS621  CYS622 
 ASP623  PHE694  ASN695  SER759  ASP760  ASP761  ALA762  ILE779  LEU786  VAL792 
 PHE793  MET794  SER795  GLU796  ALA797  LYS798  CYS799  TRP800  GLU811  SER814 

> <Gold.Protein.RotatedAtoms>
  151.8710  135.0489  160.0478 H   0  0  0  0  0  0  0  0  0  0  0  0  # atno 6907 bound_to 6896
  152.2588  133.5275  159.5378 H   0  0  0  0  0  0  0  0  0  0  0  0  # atno 6908 bound_to 6896
  150.7109  134.0774  159.3928 H   0  0  0  0  0  0  0  0  0  0  0  0  # atno 6909 bound_to 6896
  144.8692  140.6341  143.5278 H   0  0  0  0  0  0  0  0  0  0  0  0  # atno 7974 bound_to 7965
  154.4217  140.1138  156.5580 H   0  0  0  0  0  0  0  0  0  0  0  0  # atno 8008 bound_to 7997
  155.6340  140.3496  155.4673 H   0  0  0  0  0  0  0  0  0  0  0  0  # atno 8009 bound_to 7997
  155.9925  140.1182  157.0615 H   0  0  0  0  0  0  0  0  0  0  0  0  # atno 8010 bound_to 7997
  139.5060  144.3434  151.9995 H   0  0  0  0  0  0  0  0  0  0  0  0  # atno 10167 bound_to 10162
  157.1103  130.6506  149.5895 H   0  0  0  0  0  0  0  0  0  0  0  0  # atno 10718 bound_to 10713
  154.4234  135.5981  153.6024 H   0  0  0  0  0  0  0  0  0  0  0  0  # atno 10763 bound_to 10752
  152.9795  135.5958  154.3927 H   0  0  0  0  0  0  0  0  0  0  0  0  # atno 10764 bound_to 10752
  154.3755  135.2841  155.2220 H   0  0  0  0  0  0  0  0  0  0  0  0  # atno 10765 bound_to 10752
  141.1651  133.6971  156.7617 H   0  0  0  0  0  0  0  0  0  0  0  0  # atno 11005 bound_to 11000
  145.4162  139.1571  143.4099 LP  0  0  0  0  0  0  0  0  0  0  0  0  # atno 17320 bound_to 7965
  146.2918  140.4269  142.8736 LP  0  0  0  0  0  0  0  0  0  0  0  0  # atno 17321 bound_to 7965
  140.2872  144.3794  150.6100 LP  0  0  0  0  0  0  0  0  0  0  0  0  # atno 17342 bound_to 10162
  140.5974  143.2167  151.7138 LP  0  0  0  0  0  0  0  0  0  0  0  0  # atno 17343 bound_to 10162
  155.9852  130.4881  150.7020 LP  0  0  0  0  0  0  0  0  0  0  0  0  # atno 17370 bound_to 10713
  157.4565  131.0878  151.0791 LP  0  0  0  0  0  0  0  0  0  0  0  0  # atno 17371 bound_to 10713
  140.2529  134.8527  157.3684 LP  0  0  0  0  0  0  0  0  0  0  0  0  # atno 17394 bound_to 11000
  140.1685  134.4638  155.7847 LP  0  0  0  0  0  0  0  0  0  0  0  0  # atno 17395 bound_to 11000

$$$$
