AV-unprocessed.smi:67|AV-procd|sdf|629|dock8
  -GOLD-   2262016523D 1   1.00000     0.00000
 Structure written by MMmdl.
 49 51  0  0  0  0  0  0  0  0  3 V2000
  143.8762  132.3767  151.3686 O   0  0  0  0  0  0  0  0  0  0  0  0
  144.8809  132.9816  150.5719 C   0  0  1  0  0  0  0  0  0  0  0  0
  146.2042  132.9808  151.3707 C   0  0  0  0  0  0  0  0  0  0  0  0
  146.4477  131.6820  152.0553 N   0  3  2  0  0  0  0  0  0  0  0  0
  147.6823  131.6862  152.8834 C   0  0  0  0  0  0  0  0  0  0  0  0
  147.7861  130.4105  153.7360 C   0  0  0  0  0  0  0  0  0  0  0  0
  147.6750  129.1523  152.8507 C   0  0  1  0  0  0  0  0  0  0  0  0
  147.8651  127.9145  153.5403 O   0  0  0  0  0  0  0  0  0  0  0  0
  148.0858  126.7102  152.8989 C   0  0  0  0  0  0  0  0  0  0  0  0
  148.2290  126.5239  151.5011 C   0  0  0  0  0  0  0  0  0  0  0  0
  148.4573  125.2399  150.9706 C   0  0  0  0  0  0  0  0  0  0  0  0
  148.5420  124.1243  151.8226 C   0  0  0  0  0  0  0  0  0  0  0  0
  148.3939  124.2871  153.2153 C   0  0  0  0  0  0  0  0  0  0  0  0
  148.4909  123.0904  154.1501 C   0  0  0  0  0  0  0  0  0  0  0  0
  149.5263  123.2589  154.9714 F   0  0  0  0  0  0  0  0  0  0  0  0
  147.3800  122.9714  154.8781 F   0  0  0  0  0  0  0  0  0  0  0  0
  148.6646  121.9579  153.4677 F   0  0  0  0  0  0  0  0  0  0  0  0
  148.1734  125.5794  153.7380 C   0  0  0  0  0  0  0  0  0  0  0  0
  146.4535  129.1902  151.9092 C   0  0  0  0  0  0  0  0  0  0  0  0
  146.4105  130.5165  151.1324 C   0  0  0  0  0  0  0  0  0  0  0  0
  144.9454  132.2902  149.2059 C   0  0  0  0  0  0  0  0  0  0  0  0
  143.7821  132.9046  148.4250 C   0  0  0  0  0  0  0  0  0  0  0  0
  143.6013  134.2660  148.9640 N   0  3  0  0  0  0  0  0  0  0  0  0
  144.4030  134.3955  150.1988 C   0  0  0  0  0  0  0  0  0  0  0  0
  143.3494  131.8114  150.8232 H   0  0  0  0  0  0  0  0  0  0  0  0
  147.0449  133.2249  150.7187 H   0  0  0  0  0  0  0  0  0  0  0  0
  146.1648  133.7899  152.1023 H   0  0  0  0  0  0  0  0  0  0  0  0
  148.5551  131.7805  152.2354 H   0  0  0  0  0  0  0  0  0  0  0  0
  147.6809  132.5539  153.5445 H   0  0  0  0  0  0  0  0  0  0  0  0
  148.7394  130.4020  154.2655 H   0  0  0  0  0  0  0  0  0  0  0  0
  147.0194  130.4429  154.5058 H   0  0  0  0  0  0  0  0  0  0  0  0
  148.5435  129.1907  152.1914 H   0  0  0  0  0  0  0  0  0  0  0  0
  148.1729  127.3381  150.8004 H   0  0  0  0  0  0  0  0  0  0  0  0
  148.5694  125.1103  149.9041 H   0  0  0  0  0  0  0  0  0  0  0  0
  148.7228  123.1465  151.4012 H   0  0  0  0  0  0  0  0  0  0  0  0
  148.0705  125.7100  154.8055 H   0  0  0  0  0  0  0  0  0  0  0  0
  146.5071  128.3575  151.2071 H   0  0  0  0  0  0  0  0  0  0  0  0
  145.5146  129.0688  152.4430 H   0  0  0  0  0  0  0  0  0  0  0  0
  145.5059  130.5452  150.5258 H   0  0  0  0  0  0  0  0  0  0  0  0
  147.2530  130.5736  150.4413 H   0  0  0  0  0  0  0  0  0  0  0  0
  145.8799  132.5465  148.7045 H   0  0  0  0  0  0  0  0  0  0  0  0
  144.8884  131.2024  149.2654 H   0  0  0  0  0  0  0  0  0  0  0  0
  143.9609  132.9194  147.3495 H   0  0  0  0  0  0  0  0  0  0  0  0
  142.8672  132.3391  148.6064 H   0  0  0  0  0  0  0  0  0  0  0  0
  143.9100  134.9513  148.2888 H   0  0  0  0  0  0  0  0  0  0  0  0
  143.8409  134.8860  150.9949 H   0  0  0  0  0  0  0  0  0  0  0  0
  145.2571  135.0322  149.9639 H   0  0  0  0  0  0  0  0  0  0  0  0
  142.6229  134.4123  149.1695 H   0  0  0  0  0  0  0  0  0  0  0  0
  145.6809  131.5663  152.7034 H   0  0  0  0  0  0  0  0  0  0  0  0
  1  2  1  0  0  0  0
  1 25  1  0  0  0  0
  2 24  1  0  0  0  0
  2  3  1  0  0  0  0
  2 21  1  0  0  0  0
  3  4  1  0  0  0  0
  3 26  1  0  0  0  0
  3 27  1  0  0  0  0
  4 20  1  0  0  0  0
  4  5  1  0  0  0  0
  4 49  1  0  0  0  0
  5  6  1  0  0  0  0
  5 28  1  0  0  0  0
  5 29  1  0  0  0  0
  6  7  1  0  0  0  0
  6 30  1  0  0  0  0
  6 31  1  0  0  0  0
  7  8  1  0  0  0  0
  7 19  1  0  0  0  0
  7 32  1  0  0  0  0
  8  9  1  0  0  0  0
  9 18  1  0  0  0  0
  9 10  2  0  0  0  0
 10 11  1  0  0  0  0
 10 33  1  0  0  0  0
 11 12  2  0  0  0  0
 11 34  1  0  0  0  0
 12 13  1  0  0  0  0
 12 35  1  0  0  0  0
 13 14  1  0  0  0  0
 13 18  2  0  0  0  0
 14 15  1  0  0  0  0
 14 16  1  0  0  0  0
 14 17  1  0  0  0  0
 18 36  1  0  0  0  0
 19 20  1  0  0  0  0
 19 37  1  0  0  0  0
 19 38  1  0  0  0  0
 20 39  1  0  0  0  0
 20 40  1  0  0  0  0
 21 22  1  0  0  0  0
 21 41  1  0  0  0  0
 21 42  1  0  0  0  0
 22 23  1  0  0  0  0
 22 43  1  0  0  0  0
 22 44  1  0  0  0  0
 23 24  1  0  0  0  0
 23 45  1  0  0  0  0
 23 48  1  0  0  0  0
 24 46  1  0  0  0  0
 24 47  1  0  0  0  0
M  CHG  1   4   1
M  CHG  1  23   1
M  END
> <s_m_source_file>
AV-unprocessed.smi

> <i_m_source_file_index>
67

> <i_lp_mmshare_version>
43012

> <i_f3d_flags>
0

> <s_epik_input>
W0NIMl0xW05IXVtDSDJdW0NIMl1bQ0BAXTEoW09IXSlbQ0gyXU4yW0NIMl1bQ0gyXVtDSF0oW0NIMl1bQ0gyXTIpT2MzW2NIXVtjSF1bY0hdYyhDKEYpKEYpRilbY0hdMw==

> <s_epik_cmdline>
J2VwaWtfcHl0aG9uJywgJy1waCcsICc3LjAnLCAnLXRuJywgJzgnLCAnLW1hJywgJzIwMCcsICctbWV0YWxfYmluZGluZycsICctaW1hZScsICc8aW5maWxlLm1hZT4nLCAnLW9tYWUnLCAnPG91dGZpbGUubWFlPic=

> <r_lp_tautomer_probability>
1

> <r_epik_Ionization_Penalty>
0.0989853

> <r_epik_Ionization_Penalty_Charging>
0.0989662

> <r_epik_Ionization_Penalty_Neutral>
1.91014e-05

> <r_epik_State_Penalty>
0.0852826

> <r_epik_Charging_Adjusted_Penalty>
0.184249

> <i_epik_Tot_Q>
2

> <i_epik_Tot_abs_Q>
2

> <r_epik_Metal_State_Penalty>
0.0849414

> <b_epik_Metal_Only>
0

> <s_lp_Force_Field>
OPLS_2005

> <r_lp_Energy>
60.8706

> <b_lp_Chiralities_Consistent>
1

> <s_lp_Variant>
AV-unprocessed.smi:67-1

> <Gold.Version>
5.8.1

> <Gold.Id.Protein>
6NUR|6NUR_protein|mol2

> <Gold.PLP.Fitness>
42.2859

> <Gold.PLP.PLP>
-36.1538

> <Gold.PLP.part.hbond>
-2.4468

> <Gold.PLP.part.metal>
0.0000

> <Gold.PLP.part.buried>
1.2781

> <Gold.PLP.part.nonpolar>
-34.1963

> <Gold.PLP.part.repulsive>
0.1857

> <Gold.PLP.ligand.clash>
0.9753

> <Gold.PLP.ligand.torsion>
0.3061

> <Gold.PLP.Chemscore.Hbond>
2.1201

> <Gold.PLP.Chemscore.CHOScore>
0.0000

> <Gold.PLP.Chemscore.Metal>
0.0000

> <Gold.Chemscore.Hbonds>
donor molecule, donor type, donor heavy atom, donor atom, acceptor molecule, acceptor atom, score
      L1  H    23    45       P1  7921  0.11
      L1  H    23    48       P1 10186  2.00

> <Gold.PLP.Chemscore.Internal.Correction>
1.3594

> <Gold.Rescore>
     Score         DG    S(hbond)    S(metal)    S(lipo)     H(rot)  DE(clash)    DE(int)     intcor
     14.65     -17.55       1.38        0.00     112.73       2.24       1.45       1.44       ----

> <Gold.Chemscore.Fitness>
14.6528

> <Gold.Chemscore.DG>
-17.5472

> <Gold.Chemscore.ZeroCoef>
-5.4800

> <Gold.Chemscore.Hbond>
1.3773

> <Gold.Chemscore.Metal>
0.0000

> <Gold.Chemscore.Lipo>
112.7281

> <Gold.Chemscore.Internal_Hbond>
0.0000

> <Gold.Chemscore.DEClash>
1.4511

> <Gold.Chemscore.DEInternal>
1.4433

> <Gold.Chemscore.Rot>
2.2352

> <Gold.Chemscore.Internal.Correction>
   9.000000E+99

> <Gold.Chemscore.Hbonds>
donor molecule, donor type, donor heavy atom, donor atom, acceptor molecule, acceptor atom, score
      L1  H    23    45       P1  7921  0.11
      L1  H    23    48       P1 10186  1.00

> <Gold.Chemscore.Hbond.Weighted>
-4.6002

> <Gold.Chemscore.Metal.Weighted>
-0.0000

> <Gold.Chemscore.Lipo.Weighted>
-13.1892

> <Gold.Chemscore.Internal_Hbond.Weighted>
0.0000

> <Gold.Chemscore.DEClash.Weighted>
1.4511

> <Gold.Chemscore.DEInternal.Weighted>
1.4433

> <Gold.Chemscore.Rot.Weighted>
5.7221

> <Gold.Chemscore.Internal.Correction.Weighted>
   9.000000E+99

> <Gold.Protein.RotatedTorsions>
[ 6907 6896 6895 6894 ] final  -94.18 input  -60.11 | X-H torsion
[ 7974 7965 7964 7962 ] final  -52.81 input  175.53 | X-H torsion
[ 8008 7997 7996 7995 ] final  -79.45 input   59.86 | X-H torsion
[ 10167 10162 10161 10158 ] final -117.74 input  -65.29 | X-H torsion
[ 10718 10713 10712 10709 ] final -141.83 input   66.30 | X-H torsion
[ 10763 10752 10751 10750 ] final -141.53 input  -60.55 | X-H torsion
[ 11005 11000 10999 10996 ] final  122.91 input  -57.11 | X-H torsion

> <Gold.Protein.ActiveResidues>
 VAL166  LYS551  ARG553  GLY616  TRP617  ASP618  TYR619  PRO620  LYS621  CYS622 
 ASP623  PHE694  ASN695  SER759  ASP760  ASP761  ALA762  ILE779  LEU786  VAL792 
 PHE793  MET794  SER795  GLU796  ALA797  LYS798  CYS799  TRP800  GLU811  SER814 

> <Gold.Protein.RotatedAtoms>
  150.6936  134.1853  159.4263 H   0  0  0  0  0  0  0  0  0  0  0  0  # atno 6907 bound_to 6896
  151.9825  135.0018  160.0567 H   0  0  0  0  0  0  0  0  0  0  0  0  # atno 6908 bound_to 6896
  152.1742  133.4628  159.4961 H   0  0  0  0  0  0  0  0  0  0  0  0  # atno 6909 bound_to 6896
  145.9038  140.7972  142.9730 H   0  0  0  0  0  0  0  0  0  0  0  0  # atno 7974 bound_to 7965
  154.5786  140.0678  156.9071 H   0  0  0  0  0  0  0  0  0  0  0  0  # atno 8008 bound_to 7997
  155.2504  140.3351  155.4264 H   0  0  0  0  0  0  0  0  0  0  0  0  # atno 8009 bound_to 7997
  156.2172  140.1783  156.7545 H   0  0  0  0  0  0  0  0  0  0  0  0  # atno 8010 bound_to 7997
  140.0650  143.4931  152.2011 H   0  0  0  0  0  0  0  0  0  0  0  0  # atno 10167 bound_to 10162
  156.3387  130.7625  151.1757 H   0  0  0  0  0  0  0  0  0  0  0  0  # atno 10718 bound_to 10713
  154.8542  135.3522  154.5882 H   0  0  0  0  0  0  0  0  0  0  0  0  # atno 10763 bound_to 10752
  153.6492  135.6995  153.5219 H   0  0  0  0  0  0  0  0  0  0  0  0  # atno 10764 bound_to 10752
  153.2908  135.4235  155.1123 H   0  0  0  0  0  0  0  0  0  0  0  0  # atno 10765 bound_to 10752
  139.9289  134.9641  156.8180 H   0  0  0  0  0  0  0  0  0  0  0  0  # atno 11005 bound_to 11000
  144.6738  140.1719  143.7413 LP  0  0  0  0  0  0  0  0  0  0  0  0  # atno 17320 bound_to 7965
  145.8757  139.2296  143.1634 LP  0  0  0  0  0  0  0  0  0  0  0  0  # atno 17321 bound_to 7965
  139.5870  144.7535  151.3494 LP  0  0  0  0  0  0  0  0  0  0  0  0  # atno 17342 bound_to 10162
  140.7153  143.7282  150.7644 LP  0  0  0  0  0  0  0  0  0  0  0  0  # atno 17343 bound_to 10162
  157.7443  131.0461  150.4875 LP  0  0  0  0  0  0  0  0  0  0  0  0  # atno 17370 bound_to 10713
  156.5052  130.4126  149.6331 LP  0  0  0  0  0  0  0  0  0  0  0  0  # atno 17371 bound_to 10713
  140.6257  133.9952  155.7639 LP  0  0  0  0  0  0  0  0  0  0  0  0  # atno 17394 bound_to 11000
  141.0865  133.9982  157.3305 LP  0  0  0  0  0  0  0  0  0  0  0  0  # atno 17395 bound_to 11000

$$$$
