AV-unprocessed.smi:2453|AV-procd|sdf|9690|dock10
  -GOLD-   2272013333D 1   1.00000     0.00000
 Structure written by MMmdl.
 40 41  0  0  0  0  0  0  0  0  1 V2000
  150.1714  138.7100  154.3637 C   0  0  0  0  0  0  0  0  0  0  0  0
  149.0311  139.6957  154.1787 C   0  0  0  0  0  0  0  0  0  0  0  0
  149.2021  141.0471  154.5494 C   0  0  0  0  0  0  0  0  0  0  0  0
  148.2422  141.9853  154.4151 N   0  0  0  0  0  0  0  0  0  0  0  0
  147.0591  141.6025  153.8930 C   0  0  0  0  0  0  0  0  0  0  0  0
  146.7799  140.2825  153.4888 C   0  0  0  0  0  0  0  0  0  0  0  0
  147.7830  139.2950  153.6428 C   0  0  0  0  0  0  0  0  0  0  0  0
  147.6137  137.9387  153.2430 N   0  0  0  0  0  0  0  0  0  0  0  0
  146.4750  137.2562  153.0320 C   0  0  0  0  0  0  0  0  0  0  0  0
  145.3377  137.6933  153.2068 O   0  0  0  0  0  0  0  0  0  0  0  0
  146.7317  136.0078  152.6151 N   0  0  0  0  0  0  0  0  0  0  0  0
  145.7234  134.9968  152.3005 C   0  0  1  0  0  0  0  0  0  0  0  0
  144.8236  135.4998  151.1510 C   0  0  0  0  0  0  0  0  0  0  0  0
  143.7877  134.4456  150.7355 C   0  0  0  0  0  0  0  0  0  0  0  0
  144.4697  133.1273  150.3459 C   0  0  0  0  0  0  0  0  0  0  0  0
  145.3507  132.6053  151.4907 C   0  0  0  0  0  0  0  0  0  0  0  0
  146.3993  133.6495  151.9326 C   0  0  2  0  0  0  0  0  0  0  0  0
  147.3230  133.0922  153.0393 C   0  0  0  0  0  0  0  0  0  0  0  0
  148.2945  134.0380  153.4373 O   0  0  0  0  0  0  0  0  0  0  0  0
  151.0420  139.1896  154.8119 H   0  0  0  0  0  0  0  0  0  0  0  0
  150.4730  138.2934  153.4023 H   0  0  0  0  0  0  0  0  0  0  0  0
  149.8648  137.8915  155.0154 H   0  0  0  0  0  0  0  0  0  0  0  0
  150.1391  141.3891  154.9641 H   0  0  0  0  0  0  0  0  0  0  0  0
  146.3119  142.3746  153.7857 H   0  0  0  0  0  0  0  0  0  0  0  0
  145.8150  140.0616  153.0600 H   0  0  0  0  0  0  0  0  0  0  0  0
  148.4683  137.4110  153.1447 H   0  0  0  0  0  0  0  0  0  0  0  0
  147.6968  135.7336  152.5048 H   0  0  0  0  0  0  0  0  0  0  0  0
  145.0978  134.8350  153.1805 H   0  0  0  0  0  0  0  0  0  0  0  0
  144.3089  136.4145  151.4480 H   0  0  0  0  0  0  0  0  0  0  0  0
  145.4381  135.7600  150.2880 H   0  0  0  0  0  0  0  0  0  0  0  0
  143.0933  134.2702  151.5581 H   0  0  0  0  0  0  0  0  0  0  0  0
  143.1924  134.8177  149.9013 H   0  0  0  0  0  0  0  0  0  0  0  0
  143.7169  132.3820  150.0874 H   0  0  0  0  0  0  0  0  0  0  0  0
  145.0773  133.2775  149.4525 H   0  0  0  0  0  0  0  0  0  0  0  0
  144.7155  132.3360  152.3353 H   0  0  0  0  0  0  0  0  0  0  0  0
  145.8479  131.6874  151.1755 H   0  0  0  0  0  0  0  0  0  0  0  0
  147.0369  133.8366  151.0668 H   0  0  0  0  0  0  0  0  0  0  0  0
  146.7350  132.8115  153.9136 H   0  0  0  0  0  0  0  0  0  0  0  0
  147.8318  132.1879  152.7048 H   0  0  0  0  0  0  0  0  0  0  0  0
  148.3713  134.6944  152.7615 H   0  0  0  0  0  0  0  0  0  0  0  0
  1  2  1  0  0  0  0
  1 20  1  0  0  0  0
  1 21  1  0  0  0  0
  1 22  1  0  0  0  0
  2  7  1  0  0  0  0
  2  3  2  0  0  0  0
  3  4  1  0  0  0  0
  3 23  1  0  0  0  0
  4  5  2  0  0  0  0
  5  6  1  0  0  0  0
  5 24  1  0  0  0  0
  6  7  2  0  0  0  0
  6 25  1  0  0  0  0
  7  8  1  0  0  0  0
  8  9  1  0  0  0  0
  8 26  1  0  0  0  0
  9 10  2  0  0  0  0
  9 11  1  0  0  0  0
 11 12  1  0  0  0  0
 11 27  1  0  0  0  0
 12 17  1  0  0  0  0
 12 13  1  0  0  0  0
 12 28  1  0  0  0  0
 13 14  1  0  0  0  0
 13 29  1  0  0  0  0
 13 30  1  0  0  0  0
 14 15  1  0  0  0  0
 14 31  1  0  0  0  0
 14 32  1  0  0  0  0
 15 16  1  0  0  0  0
 15 33  1  0  0  0  0
 15 34  1  0  0  0  0
 16 17  1  0  0  0  0
 16 35  1  0  0  0  0
 16 36  1  0  0  0  0
 17 18  1  0  0  0  0
 17 37  1  0  0  0  0
 18 19  1  0  0  0  0
 18 38  1  0  0  0  0
 18 39  1  0  0  0  0
 19 40  1  0  0  0  0
M  END
> <s_m_source_file>
AV-unprocessed.smi

> <i_m_source_file_index>
2453

> <i_lp_mmshare_version>
43012

> <i_f3d_flags>
0

> <s_epik_input>
W0NIM11jMVtjSF1uW2NIXVtjSF1jMVtOSF1DKD1PKVtOSF1bQ0BASF0yW0NIMl1bQ0gyXVtDSDJdW0NIMl1bQ0BIXTJbQ0gyXVtPSF0=

> <s_epik_cmdline>
J2VwaWtfcHl0aG9uJywgJy1waCcsICc3LjAnLCAnLXRuJywgJzgnLCAnLW1hJywgJzIwMCcsICctbWV0YWxfYmluZGluZycsICctaW1hZScsICc8aW5maWxlLm1hZT4nLCAnLW9tYWUnLCAnPG91dGZpbGUubWFlPic=

> <r_epik_Ionization_Penalty>
0.210691

> <r_epik_Ionization_Penalty_Charging>
0

> <r_epik_Ionization_Penalty_Neutral>
0.210691

> <r_epik_State_Penalty>
0.200732

> <r_epik_Charging_Adjusted_Penalty>
0.200732

> <i_epik_Tot_Q>
0

> <i_epik_Tot_abs_Q>
0

> <r_epik_Metal_State_Penalty>
0.147519

> <b_epik_Metal_Only>
0

> <s_lp_Force_Field>
OPLS_2005

> <r_lp_Energy>
20.8004

> <b_lp_Chiralities_Consistent>
1

> <s_lp_Variant>
AV-unprocessed.smi:2453-4

> <Gold.Version>
5.8.1

> <Gold.Id.Protein>
6NUR|6NUR_protein|mol2

> <Gold.PLP.Fitness>
37.1203

> <Gold.PLP.PLP>
-30.3832

> <Gold.PLP.part.hbond>
-2.9714

> <Gold.PLP.part.metal>
0.0000

> <Gold.PLP.part.buried>
-0.3961

> <Gold.PLP.part.nonpolar>
-28.5761

> <Gold.PLP.part.repulsive>
0.8812

> <Gold.PLP.ligand.clash>
0.0000

> <Gold.PLP.ligand.torsion>
0.0978

> <Gold.PLP.Chemscore.Hbond>
2.3054

> <Gold.PLP.Chemscore.CHOScore>
0.0000

> <Gold.PLP.Chemscore.Metal>
0.0000

> <Gold.Chemscore.Hbonds>
donor molecule, donor type, donor heavy atom, donor atom, acceptor molecule, acceptor atom, score
      L1  H     8    26       P1  7948  0.61
      L1  H    11    27       P1  7948  0.70
      L1  H    19    40       P1  7948  1.00

> <Gold.PLP.Chemscore.Internal.Correction>
0.0164

> <Gold.Rescore>
     Score         DG    S(hbond)    S(metal)    S(lipo)     H(rot)  DE(clash)    DE(int)     intcor
     13.60     -17.91       2.34        0.00      77.84       1.75       1.30       3.01       ----

> <Gold.Chemscore.Fitness>
13.6021

> <Gold.Chemscore.DG>
-17.9117

> <Gold.Chemscore.ZeroCoef>
-5.4800

> <Gold.Chemscore.Hbond>
2.3362

> <Gold.Chemscore.Metal>
0.0000

> <Gold.Chemscore.Lipo>
77.8373

> <Gold.Chemscore.Internal_Hbond>
0.0000

> <Gold.Chemscore.DEClash>
1.2955

> <Gold.Chemscore.DEInternal>
3.0141

> <Gold.Chemscore.Rot>
1.7493

> <Gold.Chemscore.Internal.Correction>
   9.000000E+99

> <Gold.Chemscore.Hbonds>
donor molecule, donor type, donor heavy atom, donor atom, acceptor molecule, acceptor atom, score
      L1  H     8    26       P1  7948  0.60
      L1  H    11    27       P1  7948  0.68
      L1  H    19    40       P1  7948  0.39

> <Gold.Chemscore.Hbond.Weighted>
-7.8029

> <Gold.Chemscore.Metal.Weighted>
-0.0000

> <Gold.Chemscore.Lipo.Weighted>
-9.1070

> <Gold.Chemscore.Internal_Hbond.Weighted>
0.0000

> <Gold.Chemscore.DEClash.Weighted>
1.2955

> <Gold.Chemscore.DEInternal.Weighted>
3.0141

> <Gold.Chemscore.Rot.Weighted>
4.4782

> <Gold.Chemscore.Internal.Correction.Weighted>
   9.000000E+99

> <Gold.Protein.RotatedTorsions>
[ 6907 6896 6895 6894 ] final   64.37 input  -60.11 | X-H torsion
[ 7974 7965 7964 7962 ] final  159.49 input  175.53 | X-H torsion
[ 8008 7997 7996 7995 ] final  -46.07 input   59.86 | X-H torsion
[ 10167 10162 10161 10158 ] final -107.89 input  -65.29 | X-H torsion
[ 10718 10713 10712 10709 ] final  110.49 input   66.30 | X-H torsion
[ 10763 10752 10751 10750 ] final  -92.05 input  -60.55 | X-H torsion
[ 11005 11000 10999 10996 ] final  134.61 input  -57.11 | X-H torsion

> <Gold.Protein.ActiveResidues>
 VAL166  LYS551  ARG553  GLY616  TRP617  ASP618  TYR619  PRO620  LYS621  CYS622 
 ASP623  PHE694  ASN695  SER759  ASP760  ASP761  ALA762  ILE779  LEU786  VAL792 
 PHE793  MET794  SER795  GLU796  ALA797  LYS798  CYS799  TRP800  GLU811  SER814 

> <Gold.Protein.RotatedAtoms>
  152.4326  134.5749  159.9931 H   0  0  0  0  0  0  0  0  0  0  0  0  # atno 6907 bound_to 6896
  151.5868  133.3365  159.3027 H   0  0  0  0  0  0  0  0  0  0  0  0  # atno 6908 bound_to 6896
  150.8220  134.7468  159.6845 H   0  0  0  0  0  0  0  0  0  0  0  0  # atno 6909 bound_to 6896
  144.7787  139.7625  143.6268 H   0  0  0  0  0  0  0  0  0  0  0  0  # atno 7974 bound_to 7965
  154.4005  140.1380  156.3951 H   0  0  0  0  0  0  0  0  0  0  0  0  # atno 8008 bound_to 7997
  155.7877  140.3479  155.5311 H   0  0  0  0  0  0  0  0  0  0  0  0  # atno 8009 bound_to 7997
  155.8611  140.0956  157.1603 H   0  0  0  0  0  0  0  0  0  0  0  0  # atno 8010 bound_to 7997
  140.1720  143.4035  152.1347 H   0  0  0  0  0  0  0  0  0  0  0  0  # atno 10167 bound_to 10162
  157.6491  131.0933  150.6609 H   0  0  0  0  0  0  0  0  0  0  0  0  # atno 10718 bound_to 10713
  154.6822  135.5245  153.8278 H   0  0  0  0  0  0  0  0  0  0  0  0  # atno 10763 bound_to 10752
  153.0572  135.6555  154.0558 H   0  0  0  0  0  0  0  0  0  0  0  0  # atno 10764 bound_to 10752
  154.0444  135.2974  155.3330 H   0  0  0  0  0  0  0  0  0  0  0  0  # atno 10765 bound_to 10752
  139.9926  134.9509  156.9891 H   0  0  0  0  0  0  0  0  0  0  0  0  # atno 11005 bound_to 11000
  146.1983  139.5262  142.9760 LP  0  0  0  0  0  0  0  0  0  0  0  0  # atno 17320 bound_to 7965
  145.6111  141.0339  143.1966 LP  0  0  0  0  0  0  0  0  0  0  0  0  # atno 17321 bound_to 7965
  139.5334  144.7183  151.4978 LP  0  0  0  0  0  0  0  0  0  0  0  0  # atno 17342 bound_to 10162
  140.6576  143.8567  150.6852 LP  0  0  0  0  0  0  0  0  0  0  0  0  # atno 17343 bound_to 10162
  156.6923  130.4598  149.5596 LP  0  0  0  0  0  0  0  0  0  0  0  0  # atno 17370 bound_to 10713
  156.1853  130.6525  151.0999 LP  0  0  0  0  0  0  0  0  0  0  0  0  # atno 17371 bound_to 10713
  140.4879  134.1222  155.7227 LP  0  0  0  0  0  0  0  0  0  0  0  0  # atno 17394 bound_to 11000
  141.1578  133.8850  157.1930 LP  0  0  0  0  0  0  0  0  0  0  0  0  # atno 17395 bound_to 11000

$$$$
