AV-unprocessed.smi:3057|AV-procd|sdf|11662|dock10
  -GOLD-   2272017 63D 1   1.00000     0.00000
 Structure written by MMmdl.
 40 42  0  0  0  0  0  0  0  0  1 V2000
  152.0801  143.7171  157.7874 C   0  0  0  0  0  0  0  0  0  0  0  0
  151.6118  142.7071  158.8555 C   0  0  2  0  0  0  0  0  0  0  0  0
  152.1924  143.0474  160.2375 C   0  0  0  0  0  0  0  0  0  0  0  0
  153.5032  142.2476  160.2965 C   0  0  0  0  0  0  0  0  0  0  0  0
  153.2472  141.1218  159.3048 C   0  0  0  0  0  0  0  0  0  0  0  0
  153.9397  140.1070  159.2440 O   0  0  0  0  0  0  0  0  0  0  0  0
  152.1440  141.3843  158.5860 N   0  0  0  0  0  0  0  0  0  0  0  0
  151.3043  140.4807  157.7844 C   0  0  1  0  0  0  0  0  0  0  0  0
  151.0212  139.1292  158.4674 C   0  0  0  0  0  0  0  0  0  0  0  0
  151.7156  138.7487  159.4109 O   0  0  0  0  0  0  0  0  0  0  0  0
  149.9797  138.4291  157.9957 N   0  0  0  0  0  0  0  0  0  0  0  0
  149.5508  137.1406  158.5210 C   0  0  0  0  0  0  0  0  0  0  0  0
  148.0733  137.1896  158.9343 C   0  0  0  0  0  0  0  0  0  0  0  0
  147.8079  136.4176  160.2130 C   0  0  0  0  0  0  0  0  0  0  0  0
  147.9265  135.0114  160.2429 C   0  0  0  0  0  0  0  0  0  0  0  0
  147.6616  134.3417  161.4534 C   0  0  0  0  0  0  0  0  0  0  0  0
  147.2890  135.0993  162.5804 C   0  0  0  0  0  0  0  0  0  0  0  0
  147.1972  136.4991  162.4465 C   0  0  0  0  0  0  0  0  0  0  0  0
  147.4490  137.1511  161.2907 N   0  0  0  0  0  0  0  0  0  0  0  0
  150.0013  141.2498  157.4743 C   0  0  0  0  0  0  0  0  0  0  0  0
  149.8232  142.4747  158.7999 S   0  0  0  0  0  0  0  0  0  0  0  0
  153.1659  143.8172  157.7791 H   0  0  0  0  0  0  0  0  0  0  0  0
  151.6620  144.7058  157.9780 H   0  0  0  0  0  0  0  0  0  0  0  0
  151.7752  143.4209  156.7840 H   0  0  0  0  0  0  0  0  0  0  0  0
  152.3496  144.1174  160.3776 H   0  0  0  0  0  0  0  0  0  0  0  0
  151.5229  142.7073  161.0292 H   0  0  0  0  0  0  0  0  0  0  0  0
  154.3512  142.8430  159.9567 H   0  0  0  0  0  0  0  0  0  0  0  0
  153.7132  141.8696  161.2973 H   0  0  0  0  0  0  0  0  0  0  0  0
  151.8300  140.2866  156.8480 H   0  0  0  0  0  0  0  0  0  0  0  0
  149.4552  138.8104  157.2218 H   0  0  0  0  0  0  0  0  0  0  0  0
  149.7046  136.3714  157.7621 H   0  0  0  0  0  0  0  0  0  0  0  0
  150.1700  136.8768  159.3800 H   0  0  0  0  0  0  0  0  0  0  0  0
  147.7575  138.2252  159.0702 H   0  0  0  0  0  0  0  0  0  0  0  0
  147.4486  136.7809  158.1384 H   0  0  0  0  0  0  0  0  0  0  0  0
  148.2110  134.4575  159.3604 H   0  0  0  0  0  0  0  0  0  0  0  0
  147.7417  133.2664  161.5152 H   0  0  0  0  0  0  0  0  0  0  0  0
  147.0779  134.6194  163.5246 H   0  0  0  0  0  0  0  0  0  0  0  0
  146.9133  137.1112  163.2897 H   0  0  0  0  0  0  0  0  0  0  0  0
  150.0894  141.7749  156.5229 H   0  0  0  0  0  0  0  0  0  0  0  0
  149.1201  140.6098  157.4127 H   0  0  0  0  0  0  0  0  0  0  0  0
  1  2  1  0  0  0  0
  1 22  1  0  0  0  0
  1 23  1  0  0  0  0
  1 24  1  0  0  0  0
  2  7  1  0  0  0  0
  2 21  1  0  0  0  0
  2  3  1  0  0  0  0
  3  4  1  0  0  0  0
  3 25  1  0  0  0  0
  3 26  1  0  0  0  0
  4  5  1  0  0  0  0
  4 27  1  0  0  0  0
  4 28  1  0  0  0  0
  5  6  2  0  0  0  0
  5  7  1  0  0  0  0
  7  8  1  0  0  0  0
  8  9  1  0  0  0  0
  8 20  1  0  0  0  0
  8 29  1  0  0  0  0
  9 10  2  0  0  0  0
  9 11  1  0  0  0  0
 11 12  1  0  0  0  0
 11 30  1  0  0  0  0
 12 13  1  0  0  0  0
 12 31  1  0  0  0  0
 12 32  1  0  0  0  0
 13 14  1  0  0  0  0
 13 33  1  0  0  0  0
 13 34  1  0  0  0  0
 14 19  1  0  0  0  0
 14 15  2  0  0  0  0
 15 16  1  0  0  0  0
 15 35  1  0  0  0  0
 16 17  2  0  0  0  0
 16 36  1  0  0  0  0
 17 18  1  0  0  0  0
 17 37  1  0  0  0  0
 18 19  2  0  0  0  0
 18 38  1  0  0  0  0
 20 21  1  0  0  0  0
 20 39  1  0  0  0  0
 20 40  1  0  0  0  0
M  END
> <s_m_source_file>
AV-unprocessed.smi

> <i_m_source_file_index>
3057

> <i_lp_mmshare_version>
43012

> <i_f3d_flags>
0

> <s_epik_input>
W0NIMl0xW0NIMl1DKD1PKU4oW0NAQF0xMltDSDNdKVtDQEhdKFtDSDJdUzIpQyg9TylbTkhdW0NIMl1bQ0gyXWMzW2NIXVtjSF1bY0hdW2NIXW4z

> <s_epik_cmdline>
J2VwaWtfcHl0aG9uJywgJy1waCcsICc3LjAnLCAnLXRuJywgJzgnLCAnLW1hJywgJzIwMCcsICctbWV0YWxfYmluZGluZycsICctaW1hZScsICc8aW5maWxlLm1hZT4nLCAnLW9tYWUnLCAnPG91dGZpbGUubWFlPic=

> <r_epik_Ionization_Penalty>
0.0249631

> <r_epik_Ionization_Penalty_Charging>
0

> <r_epik_Ionization_Penalty_Neutral>
0.0249631

> <r_epik_State_Penalty>
0.0202943

> <r_epik_Charging_Adjusted_Penalty>
0.0202943

> <i_epik_Tot_Q>
0

> <i_epik_Tot_abs_Q>
0

> <r_epik_Metal_State_Penalty>
0.0194661

> <b_epik_Metal_Only>
0

> <s_lp_Force_Field>
OPLS_2005

> <r_lp_Energy>
25.2027

> <b_lp_Chiralities_Consistent>
1

> <s_lp_Variant>
AV-unprocessed.smi:3057-2

> <Gold.Version>
5.8.1

> <Gold.Id.Protein>
6NUR|6NUR_protein|mol2

> <Gold.PLP.Fitness>
47.6215

> <Gold.PLP.PLP>
-40.9193

> <Gold.PLP.part.hbond>
-3.0000

> <Gold.PLP.part.metal>
0.0000

> <Gold.PLP.part.buried>
-4.3510

> <Gold.PLP.part.nonpolar>
-33.7085

> <Gold.PLP.part.repulsive>
0.0987

> <Gold.PLP.ligand.clash>
0.0000

> <Gold.PLP.ligand.torsion>
0.8402

> <Gold.PLP.Chemscore.Hbond>
2.7920

> <Gold.PLP.Chemscore.CHOScore>
0.0000

> <Gold.PLP.Chemscore.Metal>
0.0000

> <Gold.Chemscore.Hbonds>
donor molecule, donor type, donor heavy atom, donor atom, acceptor molecule, acceptor atom, score
      P1  H  6931  6943       L1    19  0.87
      P1  H  6934  6947       L1    19  0.96
      P1  H  7997  8009       L1     6  0.58

> <Gold.PLP.Chemscore.Internal.Correction>
0.0066

> <Gold.Rescore>
     Score         DG    S(hbond)    S(metal)    S(lipo)     H(rot)  DE(clash)    DE(int)     intcor
     13.63     -19.14       1.67        0.00     102.64       1.53       1.37       4.14       ----

> <Gold.Chemscore.Fitness>
13.6293

> <Gold.Chemscore.DG>
-19.1440

> <Gold.Chemscore.ZeroCoef>
-5.4800

> <Gold.Chemscore.Hbond>
1.6711

> <Gold.Chemscore.Metal>
0.0000

> <Gold.Chemscore.Lipo>
102.6442

> <Gold.Chemscore.Internal_Hbond>
0.0000

> <Gold.Chemscore.DEClash>
1.3705

> <Gold.Chemscore.DEInternal>
4.1442

> <Gold.Chemscore.Rot>
1.5339

> <Gold.Chemscore.Internal.Correction>
   9.000000E+99

> <Gold.Chemscore.Hbonds>
donor molecule, donor type, donor heavy atom, donor atom, acceptor molecule, acceptor atom, score
      P1  H  6931  6943       L1    19  0.14
      P1  H  6934  6947       L1    19  0.83
      P1  H  7997  8009       L1     6  0.36

> <Gold.Chemscore.Hbond.Weighted>
-5.5814

> <Gold.Chemscore.Metal.Weighted>
-0.0000

> <Gold.Chemscore.Lipo.Weighted>
-12.0094

> <Gold.Chemscore.Internal_Hbond.Weighted>
0.0000

> <Gold.Chemscore.DEClash.Weighted>
1.3705

> <Gold.Chemscore.DEInternal.Weighted>
4.1442

> <Gold.Chemscore.Rot.Weighted>
3.9267

> <Gold.Chemscore.Internal.Correction.Weighted>
   9.000000E+99

> <Gold.Protein.RotatedTorsions>
[ 6907 6896 6895 6894 ] final -141.51 input  -60.11 | X-H torsion
[ 7974 7965 7964 7962 ] final -151.31 input  175.53 | X-H torsion
[ 8008 7997 7996 7995 ] final  133.74 input   59.86 | X-H torsion
[ 10167 10162 10161 10158 ] final   56.80 input  -65.29 | X-H torsion
[ 10718 10713 10712 10709 ] final  -61.40 input   66.30 | X-H torsion
[ 10763 10752 10751 10750 ] final   16.40 input  -60.55 | X-H torsion
[ 11005 11000 10999 10996 ] final   31.29 input  -57.11 | X-H torsion

> <Gold.Protein.ActiveResidues>
 VAL166  LYS551  ARG553  GLY616  TRP617  ASP618  TYR619  PRO620  LYS621  CYS622 
 ASP623  PHE694  ASN695  SER759  ASP760  ASP761  ALA762  ILE779  LEU786  VAL792 
 PHE793  MET794  SER795  GLU796  ALA797  LYS798  CYS799  TRP800  GLU811  SER814 

> <Gold.Protein.RotatedAtoms>
  151.0748  133.5437  159.2624 H   0  0  0  0  0  0  0  0  0  0  0  0  # atno 6907 bound_to 6896
  151.2363  135.0572  159.9017 H   0  0  0  0  0  0  0  0  0  0  0  0  # atno 6908 bound_to 6896
  152.5416  134.0529  159.8172 H   0  0  0  0  0  0  0  0  0  0  0  0  # atno 6909 bound_to 6896
  144.7857  140.4815  143.5808 H   0  0  0  0  0  0  0  0  0  0  0  0  # atno 7974 bound_to 7965
  156.2994  140.2513  156.3303 H   0  0  0  0  0  0  0  0  0  0  0  0  # atno 8008 bound_to 7997
  154.9151  140.0402  157.1986 H   0  0  0  0  0  0  0  0  0  0  0  0  # atno 8009 bound_to 7997
  154.8366  140.2884  155.5691 H   0  0  0  0  0  0  0  0  0  0  0  0  # atno 8010 bound_to 7997
  140.2048  144.3950  150.6513 H   0  0  0  0  0  0  0  0  0  0  0  0  # atno 10167 bound_to 10162
  156.0924  130.4198  150.0988 H   0  0  0  0  0  0  0  0  0  0  0  0  # atno 10718 bound_to 10713
  153.1435  135.6764  153.8991 H   0  0  0  0  0  0  0  0  0  0  0  0  # atno 10763 bound_to 10752
  153.8440  135.3101  155.3429 H   0  0  0  0  0  0  0  0  0  0  0  0  # atno 10764 bound_to 10752
  154.7806  135.4890  153.9921 H   0  0  0  0  0  0  0  0  0  0  0  0  # atno 10765 bound_to 10752
  140.2854  134.2925  155.7789 H   0  0  0  0  0  0  0  0  0  0  0  0  # atno 11005 bound_to 11000
  145.5928  139.1497  143.3173 LP  0  0  0  0  0  0  0  0  0  0  0  0  # atno 17320 bound_to 7965
  146.2088  140.6053  142.9069 LP  0  0  0  0  0  0  0  0  0  0  0  0  # atno 17321 bound_to 7965
  140.6365  143.2196  151.6384 LP  0  0  0  0  0  0  0  0  0  0  0  0  # atno 17342 bound_to 10162
  139.5203  144.3228  152.0896 LP  0  0  0  0  0  0  0  0  0  0  0  0  # atno 17343 bound_to 10162
  156.8995  130.9615  151.3578 LP  0  0  0  0  0  0  0  0  0  0  0  0  # atno 17370 bound_to 10713
  157.6077  130.8559  149.8902 LP  0  0  0  0  0  0  0  0  0  0  0  0  # atno 17371 bound_to 10713
  141.2155  133.7551  156.9544 LP  0  0  0  0  0  0  0  0  0  0  0  0  # atno 17394 bound_to 11000
  140.1245  134.9396  157.2250 LP  0  0  0  0  0  0  0  0  0  0  0  0  # atno 17395 bound_to 11000

$$$$
