AV-unprocessed.smi:2224|AV-procd|sdf|8993|dock6
  -GOLD-   2272012203D 1   1.00000     0.00000
 Structure written by MMmdl.
 44 46  0  0  0  0  0  0  0  0  1 V2000
  146.7376  132.0323  152.3552 C   0  0  0  0  0  0  0  0  0  0  0  0
  147.8921  132.3603  153.2785 C   0  0  0  0  0  0  0  0  0  0  0  0
  148.6430  131.3378  153.8894 C   0  0  0  0  0  0  0  0  0  0  0  0
  149.7051  131.7095  154.7371 C   0  0  0  0  0  0  0  0  0  0  0  0
  150.5541  130.6624  155.4265 C   0  0  0  0  0  0  0  0  0  0  0  0
  150.0342  132.9951  154.9862 N   0  0  0  0  0  0  0  0  0  0  0  0
  149.3179  133.9880  154.4028 C   0  0  0  0  0  0  0  0  0  0  0  0
  149.5785  135.3695  154.6019 N   0  0  0  0  0  0  0  0  0  0  0  0
  149.9555  135.9906  155.7331 C   0  0  0  0  0  0  0  0  0  0  0  0
  150.1610  135.4406  156.8154 O   0  0  0  0  0  0  0  0  0  0  0  0
  150.0973  137.3077  155.5347 N   0  0  0  0  0  0  0  0  0  0  0  0
  150.5382  138.2664  156.5495 C   0  0  2  0  0  0  0  0  0  0  0  0
  149.8033  139.6224  156.4545 C   0  0  2  0  0  0  0  0  0  0  0  0
  148.5840  139.8358  155.5909 C   0  0  0  0  0  0  0  0  0  0  0  0
  149.1733  140.4508  154.3182 C   0  0  0  0  0  0  0  0  0  0  0  0
  150.5503  140.0795  154.3370 O   0  0  0  0  0  0  0  0  0  0  0  0
  151.0042  140.1505  155.6870 C   0  0  2  0  0  0  0  0  0  0  0  0
  151.8709  138.9739  156.1838 C   0  0  0  0  0  0  0  0  0  0  0  0
  152.7510  139.3103  157.3913 C   0  0  0  0  0  0  0  0  0  0  0  0
  152.7959  138.3240  155.1456 C   0  0  0  0  0  0  0  0  0  0  0  0
  148.2356  133.7017  153.5408 C   0  0  0  0  0  0  0  0  0  0  0  0
  146.5384  130.9604  152.3335 H   0  0  0  0  0  0  0  0  0  0  0  0
  146.9629  132.3586  151.3396 H   0  0  0  0  0  0  0  0  0  0  0  0
  145.8315  132.5400  152.6867 H   0  0  0  0  0  0  0  0  0  0  0  0
  148.4121  130.2973  153.7133 H   0  0  0  0  0  0  0  0  0  0  0  0
  150.1362  129.6642  155.2929 H   0  0  0  0  0  0  0  0  0  0  0  0
  150.6149  130.8635  156.4965 H   0  0  0  0  0  0  0  0  0  0  0  0
  151.5644  130.6672  155.0172 H   0  0  0  0  0  0  0  0  0  0  0  0
  149.4685  135.9533  153.7863 H   0  0  0  0  0  0  0  0  0  0  0  0
  149.9164  137.6756  154.6124 H   0  0  0  0  0  0  0  0  0  0  0  0
  150.5281  137.8677  157.5657 H   0  0  0  0  0  0  0  0  0  0  0  0
  149.7313  140.0921  157.4367 H   0  0  0  0  0  0  0  0  0  0  0  0
  148.0625  138.9031  155.3772 H   0  0  0  0  0  0  0  0  0  0  0  0
  147.8635  140.5104  156.0542 H   0  0  0  0  0  0  0  0  0  0  0  0
  148.6764  140.1008  153.4131 H   0  0  0  0  0  0  0  0  0  0  0  0
  149.0998  141.5388  154.3499 H   0  0  0  0  0  0  0  0  0  0  0  0
  151.3240  141.1488  155.9898 H   0  0  0  0  0  0  0  0  0  0  0  0
  153.5542  139.9977  157.1242 H   0  0  0  0  0  0  0  0  0  0  0  0
  153.2088  138.4152  157.8134 H   0  0  0  0  0  0  0  0  0  0  0  0
  152.1768  139.7829  158.1886 H   0  0  0  0  0  0  0  0  0  0  0  0
  153.6439  138.9664  154.9065 H   0  0  0  0  0  0  0  0  0  0  0  0
  152.2827  138.1211  154.2054 H   0  0  0  0  0  0  0  0  0  0  0  0
  153.1936  137.3751  155.5064 H   0  0  0  0  0  0  0  0  0  0  0  0
  147.6730  134.5019  153.0814 H   0  0  0  0  0  0  0  0  0  0  0  0
  1  2  1  0  0  0  0
  1 22  1  0  0  0  0
  1 23  1  0  0  0  0
  1 24  1  0  0  0  0
  2 21  1  0  0  0  0
  2  3  2  0  0  0  0
  3  4  1  0  0  0  0
  3 25  1  0  0  0  0
  4  5  1  0  0  0  0
  4  6  2  0  0  0  0
  5 26  1  0  0  0  0
  5 27  1  0  0  0  0
  5 28  1  0  0  0  0
  6  7  1  0  0  0  0
  7  8  1  0  0  0  0
  7 21  2  0  0  0  0
  8  9  1  0  0  0  0
  8 29  1  0  0  0  0
  9 10  2  0  0  0  0
  9 11  1  0  0  0  0
 11 12  1  0  0  0  0
 11 30  1  0  0  0  0
 12 18  1  0  0  0  0
 12 13  1  0  0  0  0
 12 31  1  0  0  0  0
 13 17  1  0  0  0  0
 13 14  1  0  0  0  0
 13 32  1  0  0  0  0
 14 15  1  0  0  0  0
 14 33  1  0  0  0  0
 14 34  1  0  0  0  0
 15 16  1  0  0  0  0
 15 35  1  0  0  0  0
 15 36  1  0  0  0  0
 16 17  1  0  0  0  0
 17 18  1  0  0  0  0
 17 37  1  0  0  0  0
 18 19  1  0  0  0  0
 18 20  1  0  0  0  0
 19 38  1  0  0  0  0
 19 39  1  0  0  0  0
 19 40  1  0  0  0  0
 20 41  1  0  0  0  0
 20 42  1  0  0  0  0
 20 43  1  0  0  0  0
 21 44  1  0  0  0  0
M  END
> <s_m_source_file>
AV-unprocessed.smi

> <i_m_source_file_index>
2224

> <i_lp_mmshare_version>
43012

> <i_f3d_flags>
0

> <s_epik_input>
W0NIM11jMVtjSF1jKFtDSDNdKW5jKFtjSF0xKVtOSF1DKD1PKVtOSF1bQ0BIXTJDKFtDSDNdKShbQ0gzXSlbQ0BIXShbQ0BASF0yMylPW0NIMl1bQ0gyXTM=

> <s_epik_cmdline>
J2VwaWtfcHl0aG9uJywgJy1waCcsICc3LjAnLCAnLXRuJywgJzgnLCAnLW1hJywgJzIwMCcsICctbWV0YWxfYmluZGluZycsICctaW1hZScsICc8aW5maWxlLm1hZT4nLCAnLW9tYWUnLCAnPG91dGZpbGUubWFlPic=

> <r_lp_tautomer_probability>
1

> <r_epik_Ionization_Penalty>
0.000276544

> <r_epik_Ionization_Penalty_Charging>
0

> <r_epik_Ionization_Penalty_Neutral>
0.000276544

> <r_epik_State_Penalty>
-0

> <r_epik_Charging_Adjusted_Penalty>
0

> <i_epik_Tot_Q>
0

> <i_epik_Tot_abs_Q>
0

> <r_epik_Metal_State_Penalty>
-0

> <b_epik_Metal_Only>
0

> <s_lp_Force_Field>
OPLS_2005

> <r_lp_Energy>
39.8946

> <b_lp_Chiralities_Consistent>
1

> <s_lp_Variant>
AV-unprocessed.smi:2224-3

> <Gold.Version>
5.8.1

> <Gold.Id.Protein>
6NUR|6NUR_protein|mol2

> <Gold.PLP.Fitness>
35.7515

> <Gold.PLP.PLP>
-30.4583

> <Gold.PLP.part.hbond>
-2.0000

> <Gold.PLP.part.metal>
0.0000

> <Gold.PLP.part.buried>
-0.9609

> <Gold.PLP.part.nonpolar>
-27.8352

> <Gold.PLP.part.repulsive>
0.2097

> <Gold.PLP.ligand.clash>
0.0000

> <Gold.PLP.ligand.torsion>
0.4472

> <Gold.PLP.Chemscore.Hbond>
2.0000

> <Gold.PLP.Chemscore.CHOScore>
0.0000

> <Gold.PLP.Chemscore.Metal>
0.0000

> <Gold.Chemscore.Hbonds>
donor molecule, donor type, donor heavy atom, donor atom, acceptor molecule, acceptor atom, score
      L1  H     8    29       P1  7948  1.00
      P1  H  7989  7998       L1    16  1.00

> <Gold.PLP.Chemscore.Internal.Correction>
0.1877

> <Gold.Rescore>
     Score         DG    S(hbond)    S(metal)    S(lipo)     H(rot)  DE(clash)    DE(int)     intcor
     15.06     -16.29       1.36        0.00      75.49       1.00       0.01       1.22       ----

> <Gold.Chemscore.Fitness>
15.0556

> <Gold.Chemscore.DG>
-16.2892

> <Gold.Chemscore.ZeroCoef>
-5.4800

> <Gold.Chemscore.Hbond>
1.3582

> <Gold.Chemscore.Metal>
0.0000

> <Gold.Chemscore.Lipo>
75.4943

> <Gold.Chemscore.Internal_Hbond>
0.0000

> <Gold.Chemscore.DEClash>
0.0149

> <Gold.Chemscore.DEInternal>
1.2188

> <Gold.Chemscore.Rot>
1.0000

> <Gold.Chemscore.Internal.Correction>
   9.000000E+99

> <Gold.Chemscore.Hbonds>
donor molecule, donor type, donor heavy atom, donor atom, acceptor molecule, acceptor atom, score
      L1  H     8    29       P1  7948  0.52
      P1  H  7989  7998       L1    16  0.53

> <Gold.Chemscore.Hbond.Weighted>
-4.5364

> <Gold.Chemscore.Metal.Weighted>
-0.0000

> <Gold.Chemscore.Lipo.Weighted>
-8.8328

> <Gold.Chemscore.Internal_Hbond.Weighted>
0.0000

> <Gold.Chemscore.DEClash.Weighted>
0.0149

> <Gold.Chemscore.DEInternal.Weighted>
1.2188

> <Gold.Chemscore.Rot.Weighted>
2.5600

> <Gold.Chemscore.Internal.Correction.Weighted>
   9.000000E+99

> <Gold.Protein.RotatedTorsions>
[ 6907 6896 6895 6894 ] final  105.61 input  -60.11 | X-H torsion
[ 7974 7965 7964 7962 ] final  154.07 input  175.53 | X-H torsion
[ 8008 7997 7996 7995 ] final   57.58 input   59.86 | X-H torsion
[ 10167 10162 10161 10158 ] final  -48.34 input  -65.29 | X-H torsion
[ 10718 10713 10712 10709 ] final  148.61 input   66.30 | X-H torsion
[ 10763 10752 10751 10750 ] final  -45.63 input  -60.55 | X-H torsion
[ 11005 11000 10999 10996 ] final  -81.29 input  -57.11 | X-H torsion

> <Gold.Protein.ActiveResidues>
 VAL166  LYS551  ARG553  GLY616  TRP617  ASP618  TYR619  PRO620  LYS621  CYS622 
 ASP623  PHE694  ASN695  SER759  ASP760  ASP761  ALA762  ILE779  LEU786  VAL792 
 PHE793  MET794  SER795  GLU796  ALA797  LYS798  CYS799  TRP800  GLU811  SER814 

> <Gold.Protein.RotatedAtoms>
  152.5224  133.9503  159.7668 H   0  0  0  0  0  0  0  0  0  0  0  0  # atno 6907 bound_to 6896
  150.9814  133.6233  159.2729 H   0  0  0  0  0  0  0  0  0  0  0  0  # atno 6908 bound_to 6896
  151.3409  135.0869  159.9424 H   0  0  0  0  0  0  0  0  0  0  0  0  # atno 6909 bound_to 6896
  144.8112  139.6885  143.6140 H   0  0  0  0  0  0  0  0  0  0  0  0  # atno 7974 bound_to 7965
  155.5360  140.3483  155.4436 H   0  0  0  0  0  0  0  0  0  0  0  0  # atno 8008 bound_to 7997
  156.0685  140.1357  156.9884 H   0  0  0  0  0  0  0  0  0  0  0  0  # atno 8009 bound_to 7997
  154.4515  140.0970  156.6608 H   0  0  0  0  0  0  0  0  0  0  0  0  # atno 8010 bound_to 7997
  140.6735  143.2744  151.4056 H   0  0  0  0  0  0  0  0  0  0  0  0  # atno 10167 bound_to 10162
  157.3065  131.0880  151.1350 H   0  0  0  0  0  0  0  0  0  0  0  0  # atno 10718 bound_to 10713
  154.0317  135.6656  153.4781 H   0  0  0  0  0  0  0  0  0  0  0  0  # atno 10763 bound_to 10752
  153.0537  135.5069  154.7926 H   0  0  0  0  0  0  0  0  0  0  0  0  # atno 10764 bound_to 10752
  154.6874  135.3055  154.9494 H   0  0  0  0  0  0  0  0  0  0  0  0  # atno 10765 bound_to 10752
  141.1667  133.7190  156.8401 H   0  0  0  0  0  0  0  0  0  0  0  0  # atno 11005 bound_to 11000
  146.2411  139.6004  142.9491 LP  0  0  0  0  0  0  0  0  0  0  0  0  # atno 17320 bound_to 7965
  145.5318  141.0426  143.2378 LP  0  0  0  0  0  0  0  0  0  0  0  0  # atno 17321 bound_to 7965
  139.6015  144.1285  152.2203 LP  0  0  0  0  0  0  0  0  0  0  0  0  # atno 17342 bound_to 10162
  140.0670  144.5810  150.7220 LP  0  0  0  0  0  0  0  0  0  0  0  0  # atno 17343 bound_to 10162
  157.2688  130.6694  149.6009 LP  0  0  0  0  0  0  0  0  0  0  0  0  # atno 17370 bound_to 10713
  155.9675  130.4485  150.5623 LP  0  0  0  0  0  0  0  0  0  0  0  0  # atno 17371 bound_to 10713
  140.1989  134.8911  157.3146 LP  0  0  0  0  0  0  0  0  0  0  0  0  # atno 17394 bound_to 11000
  140.2209  134.4025  155.7566 LP  0  0  0  0  0  0  0  0  0  0  0  0  # atno 17395 bound_to 11000

$$$$
