AV-unprocessed.smi:697|AV-procd|sdf|3390|dock3
  -GOLD-   22720 0373D 1   1.00000     0.00000
 Structure written by MMmdl.
 44 45  0  0  0  0  0  0  0  0  1 V2000
  146.0952  142.5982  154.2765 C   0  0  0  0  0  0  0  0  0  0  0  0
  146.5376  141.3408  154.7729 O   0  0  0  0  0  0  0  0  0  0  0  0
  147.6084  140.6938  154.0713 C   0  0  2  0  0  0  0  0  0  0  0  0
  148.8536  141.5889  154.0487 C   0  0  0  0  0  0  0  0  0  0  0  0
  147.0938  140.0831  152.7533 C   0  0  0  0  0  0  0  0  0  0  0  0
  146.6345  138.8812  153.5766 C   0  0  1  0  0  0  0  0  0  0  0  0
  146.8252  137.6112  152.8834 N   0  0  0  0  0  0  0  0  0  0  0  0
  145.8670  136.6889  152.7212 C   0  0  0  0  0  0  0  0  0  0  0  0
  144.7134  136.8364  153.1245 O   0  0  0  0  0  0  0  0  0  0  0  0
  146.3487  135.5975  152.0988 N   0  0  0  0  0  0  0  0  0  0  0  0
  145.6772  134.4167  151.7415 C   0  0  0  0  0  0  0  0  0  0  0  0
  146.1841  133.1644  151.8863 C   0  0  0  0  0  0  0  0  0  0  0  0
  145.4354  131.9798  151.5004 C   0  0  0  0  0  0  0  0  0  0  0  0
  145.9918  130.5806  151.7157 C   0  0  0  0  0  0  0  0  0  0  0  0
  146.8344  130.2382  150.7401 F   0  0  0  0  0  0  0  0  0  0  0  0
  146.6524  130.5293  152.8716 F   0  0  0  0  0  0  0  0  0  0  0  0
  145.0118  129.6778  151.7575 F   0  0  0  0  0  0  0  0  0  0  0  0
  144.1957  132.1845  151.0179 C   0  0  0  0  0  0  0  0  0  0  0  0
  143.6667  133.4683  150.8681 N   0  0  0  0  0  0  0  0  0  0  0  0
  144.3205  134.6037  151.2014 C   0  0  0  0  0  0  0  0  0  0  0  0
  143.7816  135.6992  151.0466 O   0  0  0  0  0  0  0  0  0  0  0  0
  147.7374  139.2307  154.6088 C   0  0  0  0  0  0  0  0  0  0  0  0
  149.1095  138.5586  154.4105 C   0  0  0  0  0  0  0  0  0  0  0  0
  147.3730  139.0027  156.0801 C   0  0  0  0  0  0  0  0  0  0  0  0
  142.7327  133.5384  150.4902 H   0  0  0  0  0  0  0  0  0  0  0  0
  145.1925  142.8927  154.8115 H   0  0  0  0  0  0  0  0  0  0  0  0
  145.8531  142.5644  153.2149 H   0  0  0  0  0  0  0  0  0  0  0  0
  146.8354  143.3806  154.4434 H   0  0  0  0  0  0  0  0  0  0  0  0
  149.7118  141.0792  153.6124 H   0  0  0  0  0  0  0  0  0  0  0  0
  149.1346  141.9008  155.0547 H   0  0  0  0  0  0  0  0  0  0  0  0
  148.6998  142.4860  153.4495 H   0  0  0  0  0  0  0  0  0  0  0  0
  146.2864  140.6208  152.2575 H   0  0  0  0  0  0  0  0  0  0  0  0
  147.8973  139.8520  152.0518 H   0  0  0  0  0  0  0  0  0  0  0  0
  145.6246  139.0254  153.9677 H   0  0  0  0  0  0  0  0  0  0  0  0
  147.7490  137.4148  152.5272 H   0  0  0  0  0  0  0  0  0  0  0  0
  147.3391  135.5931  151.9024 H   0  0  0  0  0  0  0  0  0  0  0  0
  147.1637  133.0102  152.3094 H   0  0  0  0  0  0  0  0  0  0  0  0
  143.5211  131.3959  150.7183 H   0  0  0  0  0  0  0  0  0  0  0  0
  149.0731  137.4930  154.6401 H   0  0  0  0  0  0  0  0  0  0  0  0
  149.8673  139.0007  155.0582 H   0  0  0  0  0  0  0  0  0  0  0  0
  149.4700  138.6504  153.3858 H   0  0  0  0  0  0  0  0  0  0  0  0
  147.4130  137.9452  156.3432 H   0  0  0  0  0  0  0  0  0  0  0  0
  146.3625  139.3414  156.3087 H   0  0  0  0  0  0  0  0  0  0  0  0
  148.0524  139.5351  156.7459 H   0  0  0  0  0  0  0  0  0  0  0  0
  1  2  1  0  0  0  0
  1 26  1  0  0  0  0
  1 27  1  0  0  0  0
  1 28  1  0  0  0  0
  2  3  1  0  0  0  0
  3 22  1  0  0  0  0
  3  4  1  0  0  0  0
  3  5  1  0  0  0  0
  4 29  1  0  0  0  0
  4 30  1  0  0  0  0
  4 31  1  0  0  0  0
  5  6  1  0  0  0  0
  5 32  1  0  0  0  0
  5 33  1  0  0  0  0
  6  7  1  0  0  0  0
  6 22  1  0  0  0  0
  6 34  1  0  0  0  0
  7  8  1  0  0  0  0
  7 35  1  0  0  0  0
  8  9  2  0  0  0  0
  8 10  1  0  0  0  0
 10 11  1  0  0  0  0
 10 36  1  0  0  0  0
 11 20  1  0  0  0  0
 11 12  2  0  0  0  0
 12 13  1  0  0  0  0
 12 37  1  0  0  0  0
 13 14  1  0  0  0  0
 13 18  2  0  0  0  0
 14 15  1  0  0  0  0
 14 16  1  0  0  0  0
 14 17  1  0  0  0  0
 18 19  1  0  0  0  0
 18 38  1  0  0  0  0
 19 25  1  0  0  0  0
 19 20  1  0  0  0  0
 20 21  2  0  0  0  0
 22 23  1  0  0  0  0
 22 24  1  0  0  0  0
 23 39  1  0  0  0  0
 23 40  1  0  0  0  0
 23 41  1  0  0  0  0
 24 42  1  0  0  0  0
 24 43  1  0  0  0  0
 24 44  1  0  0  0  0
M  END
> <s_m_source_file>
AV-unprocessed.smi

> <i_m_source_file_index>
697

> <i_lp_mmshare_version>
43012

> <i_f3d_flags>
0

> <s_epik_input>
W0NIM11PW0NAQF0xKFtDSDNdKVtDSDJdW0NASF0oQzEoW0NIM10pW0NIM10pW05IXUMoPU8pW05IXWMyW2NIXWMoQyhGKShGKUYpW2NIXVtuSF1jMj1P

> <s_epik_cmdline>
J2VwaWtfcHl0aG9uJywgJy1waCcsICc3LjAnLCAnLXRuJywgJzgnLCAnLW1hJywgJzIwMCcsICctbWV0YWxfYmluZGluZycsICctaW1hZScsICc8aW5maWxlLm1hZT4nLCAnLW9tYWUnLCAnPG91dGZpbGUubWFlPic=

> <r_lp_tautomer_probability>
1

> <r_epik_Ionization_Penalty>
0.0036482

> <r_epik_Ionization_Penalty_Charging>
0.00362828

> <r_epik_Ionization_Penalty_Neutral>
1.99208e-05

> <r_epik_State_Penalty>
-0

> <r_epik_Charging_Adjusted_Penalty>
0.00362828

> <i_epik_Tot_Q>
0

> <i_epik_Tot_abs_Q>
0

> <r_epik_Metal_State_Penalty>
0.369362

> <b_epik_Metal_Only>
0

> <s_lp_Force_Field>
OPLS_2005

> <r_lp_Energy>
34.8139

> <b_lp_Chiralities_Consistent>
1

> <s_lp_Variant>
AV-unprocessed.smi:697-2

> <Gold.Version>
5.8.1

> <Gold.Id.Protein>
6NUR|6NUR_protein|mol2

> <Gold.PLP.Fitness>
36.6596

> <Gold.PLP.PLP>
-30.8749

> <Gold.PLP.part.hbond>
-2.8783

> <Gold.PLP.part.metal>
0.0000

> <Gold.PLP.part.buried>
2.4601

> <Gold.PLP.part.nonpolar>
-31.5924

> <Gold.PLP.part.repulsive>
1.0505

> <Gold.PLP.ligand.clash>
0.4348

> <Gold.PLP.ligand.torsion>
1.3662

> <Gold.PLP.Chemscore.Hbond>
2.8450

> <Gold.PLP.Chemscore.CHOScore>
0.0000

> <Gold.PLP.Chemscore.Metal>
0.0000

> <Gold.Chemscore.Hbonds>
donor molecule, donor type, donor heavy atom, donor atom, acceptor molecule, acceptor atom, score
      L1  H     7    35       P1  7948  1.00
      L1  H    10    36       P1  7948  1.00
      L1  H    19    25       P1 10186  0.70

> <Gold.PLP.Chemscore.Internal.Correction>
0.4169

> <Gold.Rescore>
     Score         DG    S(hbond)    S(metal)    S(lipo)     H(rot)  DE(clash)    DE(int)     intcor
     14.86     -20.28       2.93        0.00      71.52       1.31       1.96       3.46       ----

> <Gold.Chemscore.Fitness>
14.8571

> <Gold.Chemscore.DG>
-20.2765

> <Gold.Chemscore.ZeroCoef>
-5.4800

> <Gold.Chemscore.Hbond>
2.9260

> <Gold.Chemscore.Metal>
0.0000

> <Gold.Chemscore.Lipo>
71.5176

> <Gold.Chemscore.Internal_Hbond>
0.0000

> <Gold.Chemscore.DEClash>
1.9591

> <Gold.Chemscore.DEInternal>
3.4602

> <Gold.Chemscore.Rot>
1.3062

> <Gold.Chemscore.Internal.Correction>
   9.000000E+99

> <Gold.Chemscore.Hbonds>
donor molecule, donor type, donor heavy atom, donor atom, acceptor molecule, acceptor atom, score
      L1  H     7    35       P1  7948  0.94
      L1  H    10    36       P1  7948  0.99
      L1  H    19    25       P1 10186  0.68

> <Gold.Chemscore.Hbond.Weighted>
-9.7729

> <Gold.Chemscore.Metal.Weighted>
-0.0000

> <Gold.Chemscore.Lipo.Weighted>
-8.3676

> <Gold.Chemscore.Internal_Hbond.Weighted>
0.0000

> <Gold.Chemscore.DEClash.Weighted>
1.9591

> <Gold.Chemscore.DEInternal.Weighted>
3.4602

> <Gold.Chemscore.Rot.Weighted>
3.3440

> <Gold.Chemscore.Internal.Correction.Weighted>
   9.000000E+99

> <Gold.Protein.RotatedTorsions>
[ 6907 6896 6895 6894 ] final  175.49 input  -60.11 | X-H torsion
[ 7974 7965 7964 7962 ] final  109.03 input  175.53 | X-H torsion
[ 8008 7997 7996 7995 ] final    1.32 input   59.86 | X-H torsion
[ 10167 10162 10161 10158 ] final -134.47 input  -65.29 | X-H torsion
[ 10718 10713 10712 10709 ] final  -28.62 input   66.30 | X-H torsion
[ 10763 10752 10751 10750 ] final   71.05 input  -60.55 | X-H torsion
[ 11005 11000 10999 10996 ] final   81.23 input  -57.11 | X-H torsion

> <Gold.Protein.ActiveResidues>
 VAL166  LYS551  ARG553  GLY616  TRP617  ASP618  TYR619  PRO620  LYS621  CYS622 
 ASP623  PHE694  ASN695  SER759  ASP760  ASP761  ALA762  ILE779  LEU786  VAL792 
 PHE793  MET794  SER795  GLU796  ALA797  LYS798  CYS799  TRP800  GLU811  SER814 

> <Gold.Protein.RotatedAtoms>
  151.7354  133.3319  159.3351 H   0  0  0  0  0  0  0  0  0  0  0  0  # atno 6907 bound_to 6896
  150.7595  134.6326  159.6204 H   0  0  0  0  0  0  0  0  0  0  0  0  # atno 6908 bound_to 6896
  152.3565  134.6935  160.0272 H   0  0  0  0  0  0  0  0  0  0  0  0  # atno 6909 bound_to 6896
  145.2730  139.2660  143.3956 H   0  0  0  0  0  0  0  0  0  0  0  0  # atno 7974 bound_to 7965
  154.6783  140.2627  155.6934 H   0  0  0  0  0  0  0  0  0  0  0  0  # atno 8008 bound_to 7997
  156.2687  140.2815  156.1241 H   0  0  0  0  0  0  0  0  0  0  0  0  # atno 8009 bound_to 7997
  155.1068  140.0375  157.2703 H   0  0  0  0  0  0  0  0  0  0  0  0  # atno 8010 bound_to 7997
  139.8877  143.6761  152.2617 H   0  0  0  0  0  0  0  0  0  0  0  0  # atno 10167 bound_to 10162
  156.4229  130.4430  149.7171 H   0  0  0  0  0  0  0  0  0  0  0  0  # atno 10718 bound_to 10713
  153.0377  135.5151  154.7535 H   0  0  0  0  0  0  0  0  0  0  0  0  # atno 10763 bound_to 10752
  154.6498  135.2923  155.0003 H   0  0  0  0  0  0  0  0  0  0  0  0  # atno 10764 bound_to 10752
  154.0891  135.6653  153.4902 H   0  0  0  0  0  0  0  0  0  0  0  0  # atno 10765 bound_to 10752
  139.9105  134.7981  156.2014 H   0  0  0  0  0  0  0  0  0  0  0  0  # atno 11005 bound_to 11000
  146.3240  140.3178  142.8631 LP  0  0  0  0  0  0  0  0  0  0  0  0  # atno 17320 bound_to 7965
  144.9319  140.7984  143.5684 LP  0  0  0  0  0  0  0  0  0  0  0  0  # atno 17321 bound_to 7965
  139.7138  144.7615  151.1068 LP  0  0  0  0  0  0  0  0  0  0  0  0  # atno 17342 bound_to 10162
  140.7732  143.5296  150.9439 LP  0  0  0  0  0  0  0  0  0  0  0  0  # atno 17343 bound_to 10162
  156.4104  130.7719  151.2732 LP  0  0  0  0  0  0  0  0  0  0  0  0  # atno 17370 bound_to 10713
  157.7508  131.0213  150.3744 LP  0  0  0  0  0  0  0  0  0  0  0  0  # atno 17371 bound_to 10713
  141.0522  133.6883  156.1794 LP  0  0  0  0  0  0  0  0  0  0  0  0  # atno 17394 bound_to 11000
  140.6792  134.4785  157.5589 LP  0  0  0  0  0  0  0  0  0  0  0  0  # atno 17395 bound_to 11000

$$$$
