AV-unprocessed.smi:829|AV-procd|sdf|3868|dock9
  -GOLD-   22720 1323D 1   1.00000     0.00000
 Structure written by MMmdl.
 50 52  0  0  0  0  0  0  0  0  3 V2000
  150.1771  136.5504  156.2228 O   0  0  0  0  0  0  0  0  0  0  0  0
  149.8431  136.5032  155.0392 C   0  0  0  0  0  0  0  0  0  0  0  0
  149.5787  135.3794  154.3504 N   0  0  0  0  0  0  0  0  0  0  0  0
  149.6268  134.0328  154.8039 C   0  0  0  0  0  0  0  0  0  0  0  0
  149.1690  133.0289  153.9216 C   0  0  0  0  0  0  0  0  0  0  0  0
  149.1866  131.6805  154.3327 C   0  0  0  0  0  0  0  0  0  0  0  0
  149.6295  131.3596  155.5671 N   0  3  0  0  0  0  0  0  0  0  0  0
  150.0620  132.2846  156.4507 C   0  0  0  0  0  0  0  0  0  0  0  0
  150.0682  133.6491  156.0961 C   0  0  0  0  0  0  0  0  0  0  0  0
  149.7172  137.5910  154.2650 N   0  0  0  0  0  0  0  0  0  0  0  0
  149.9756  138.9616  154.6972 C   0  0  2  0  0  0  0  0  0  0  0  0
  151.3120  139.0609  155.4553 C   0  0  0  0  0  0  0  0  0  0  0  0
  151.5400  140.4826  155.9972 C   0  0  0  0  0  0  0  0  0  0  0  0
  150.4109  140.9175  156.8596 N   0  3  1  0  0  0  0  0  0  0  0  0
  150.6538  142.2281  157.5166 C   0  0  0  0  0  0  0  0  0  0  0  0
  151.8678  142.1800  158.4637 C   0  0  0  0  0  0  0  0  0  0  0  0
  151.8204  141.0818  159.5305 C   0  0  0  0  0  0  0  0  0  0  0  0
  152.8139  141.5298  160.6069 C   0  0  0  0  0  0  0  0  0  0  0  0
  152.9315  143.0553  160.4730 C   0  0  0  0  0  0  0  0  0  0  0  0
  152.0303  143.4532  159.2988 C   0  0  0  0  0  0  0  0  0  0  0  0
  149.1165  140.8648  156.1307 C   0  0  0  0  0  0  0  0  0  0  0  0
  148.8345  139.4484  155.6041 C   0  0  0  0  0  0  0  0  0  0  0  0
  149.3930  135.4976  153.3651 H   0  0  0  0  0  0  0  0  0  0  0  0
  148.8128  133.2853  152.9342 H   0  0  0  0  0  0  0  0  0  0  0  0
  148.8601  130.8555  153.7162 H   0  0  0  0  0  0  0  0  0  0  0  0
  150.3829  131.9092  157.4115 H   0  0  0  0  0  0  0  0  0  0  0  0
  150.3996  134.3724  156.8252 H   0  0  0  0  0  0  0  0  0  0  0  0
  149.4402  137.4619  153.3026 H   0  0  0  0  0  0  0  0  0  0  0  0
  150.0145  139.6113  153.8203 H   0  0  0  0  0  0  0  0  0  0  0  0
  151.3223  138.3513  156.2842 H   0  0  0  0  0  0  0  0  0  0  0  0
  152.1395  138.7833  154.8011 H   0  0  0  0  0  0  0  0  0  0  0  0
  152.4678  140.4995  156.5706 H   0  0  0  0  0  0  0  0  0  0  0  0
  151.6621  141.1861  155.1719 H   0  0  0  0  0  0  0  0  0  0  0  0
  150.8581  142.9846  156.7573 H   0  0  0  0  0  0  0  0  0  0  0  0
  149.7599  142.5730  158.0389 H   0  0  0  0  0  0  0  0  0  0  0  0
  152.7763  142.0501  157.8726 H   0  0  0  0  0  0  0  0  0  0  0  0
  150.8206  141.0260  159.9634 H   0  0  0  0  0  0  0  0  0  0  0  0
  152.0656  140.0971  159.1313 H   0  0  0  0  0  0  0  0  0  0  0  0
  152.4870  141.2295  161.6029 H   0  0  0  0  0  0  0  0  0  0  0  0
  153.7874  141.0705  160.4318 H   0  0  0  0  0  0  0  0  0  0  0  0
  152.6372  143.5681  161.3891 H   0  0  0  0  0  0  0  0  0  0  0  0
  153.9667  143.3287  160.2650 H   0  0  0  0  0  0  0  0  0  0  0  0
  152.4425  144.2816  158.7218 H   0  0  0  0  0  0  0  0  0  0  0  0
  151.0594  143.7716  159.6819 H   0  0  0  0  0  0  0  0  0  0  0  0
  148.3024  141.1716  156.7863 H   0  0  0  0  0  0  0  0  0  0  0  0
  149.1355  141.5742  155.3016 H   0  0  0  0  0  0  0  0  0  0  0  0
  147.8914  139.4412  155.0560 H   0  0  0  0  0  0  0  0  0  0  0  0
  148.7088  138.7669  156.4469 H   0  0  0  0  0  0  0  0  0  0  0  0
  150.3551  140.2384  157.6052 H   0  0  0  0  0  0  0  0  0  0  0  0
  149.6331  130.3780  155.8459 H   0  0  0  0  0  0  0  0  0  0  0  0
  1  2  2  0  0  0  0
  2  3  1  0  0  0  0
  2 10  1  0  0  0  0
  3  4  1  0  0  0  0
  3 23  1  0  0  0  0
  4  9  1  0  0  0  0
  4  5  2  0  0  0  0
  5  6  1  0  0  0  0
  5 24  1  0  0  0  0
  6  7  2  0  0  0  0
  6 25  1  0  0  0  0
  7  8  1  0  0  0  0
  7 50  1  0  0  0  0
  8  9  2  0  0  0  0
  8 26  1  0  0  0  0
  9 27  1  0  0  0  0
 10 11  1  0  0  0  0
 10 28  1  0  0  0  0
 11 22  1  0  0  0  0
 11 12  1  0  0  0  0
 11 29  1  0  0  0  0
 12 13  1  0  0  0  0
 12 30  1  0  0  0  0
 12 31  1  0  0  0  0
 13 14  1  0  0  0  0
 13 32  1  0  0  0  0
 13 33  1  0  0  0  0
 14 15  1  0  0  0  0
 14 21  1  0  0  0  0
 14 49  1  0  0  0  0
 15 16  1  0  0  0  0
 15 34  1  0  0  0  0
 15 35  1  0  0  0  0
 16 20  1  0  0  0  0
 16 17  1  0  0  0  0
 16 36  1  0  0  0  0
 17 18  1  0  0  0  0
 17 37  1  0  0  0  0
 17 38  1  0  0  0  0
 18 19  1  0  0  0  0
 18 39  1  0  0  0  0
 18 40  1  0  0  0  0
 19 20  1  0  0  0  0
 19 41  1  0  0  0  0
 19 42  1  0  0  0  0
 20 43  1  0  0  0  0
 20 44  1  0  0  0  0
 21 22  1  0  0  0  0
 21 45  1  0  0  0  0
 21 46  1  0  0  0  0
 22 47  1  0  0  0  0
 22 48  1  0  0  0  0
M  CHG  1   7   1
M  CHG  1  14   1
M  END
> <s_m_source_file>
AV-unprocessed.smi

> <i_m_source_file_index>
829

> <i_lp_mmshare_version>
43012

> <i_f3d_flags>
0

> <s_epik_input>
W2NIXTFbY0hdbltjSF1bY0hdYzFbTkhdQyg9TylbTkhdW0NIXTJbQ0gyXVtDSDJdTihbQ0gyXVtDSDJdMilbQ0gyXVtDSF0zW0NIMl1bQ0gyXVtDSDJdW0NIMl0z

> <s_epik_cmdline>
J2VwaWtfcHl0aG9uJywgJy1waCcsICc3LjAnLCAnLXRuJywgJzgnLCAnLW1hJywgJzIwMCcsICctbWV0YWxfYmluZGluZycsICctaW1hZScsICc8aW5maWxlLm1hZT4nLCAnLW9tYWUnLCAnPG91dGZpbGUubWFlPic=

> <r_epik_Ionization_Penalty>
1.10644

> <r_epik_Ionization_Penalty_Charging>
1.10642

> <r_epik_Ionization_Penalty_Neutral>
1.84455e-05

> <r_epik_State_Penalty>
1.14949

> <r_epik_Charging_Adjusted_Penalty>
2.25592

> <i_epik_Tot_Q>
2

> <i_epik_Tot_abs_Q>
2

> <r_epik_Metal_State_Penalty>
1.23448

> <b_epik_Metal_Only>
0

> <s_lp_Force_Field>
OPLS_2005

> <r_lp_Energy>
49.76

> <b_lp_Chiralities_Consistent>
1

> <s_lp_Variant>
AV-unprocessed.smi:829-3

> <Gold.Version>
5.8.1

> <Gold.Id.Protein>
6NUR|6NUR_protein|mol2

> <Gold.PLP.Fitness>
47.0241

> <Gold.PLP.PLP>
-41.5391

> <Gold.PLP.part.hbond>
-2.1495

> <Gold.PLP.part.metal>
0.0000

> <Gold.PLP.part.buried>
-5.2566

> <Gold.PLP.part.nonpolar>
-34.8243

> <Gold.PLP.part.repulsive>
0.1121

> <Gold.PLP.ligand.clash>
0.0000

> <Gold.PLP.ligand.torsion>
0.2154

> <Gold.PLP.Chemscore.Hbond>
1.9600

> <Gold.PLP.Chemscore.CHOScore>
0.0000

> <Gold.PLP.Chemscore.Metal>
0.0000

> <Gold.Chemscore.Hbonds>
donor molecule, donor type, donor heavy atom, donor atom, acceptor molecule, acceptor atom, score
      L1  H     3    23       P1  7948  0.90
      L1  H    10    28       P1  7948  0.98

> <Gold.PLP.Chemscore.Internal.Correction>
0.0358

> <Gold.Rescore>
     Score         DG    S(hbond)    S(metal)    S(lipo)     H(rot)  DE(clash)    DE(int)     intcor
     17.65     -20.38       1.63        0.00     110.71       1.37       0.15       2.58       ----

> <Gold.Chemscore.Fitness>
17.6529

> <Gold.Chemscore.DG>
-20.3842

> <Gold.Chemscore.ZeroCoef>
-5.4800

> <Gold.Chemscore.Hbond>
1.6348

> <Gold.Chemscore.Metal>
0.0000

> <Gold.Chemscore.Lipo>
110.7091

> <Gold.Chemscore.Internal_Hbond>
0.0000

> <Gold.Chemscore.DEClash>
0.1502

> <Gold.Chemscore.DEInternal>
2.5811

> <Gold.Chemscore.Rot>
1.3707

> <Gold.Chemscore.Internal.Correction>
   9.000000E+99

> <Gold.Chemscore.Hbonds>
donor molecule, donor type, donor heavy atom, donor atom, acceptor molecule, acceptor atom, score
      L1  H     3    23       P1  7948  0.18
      L1  H    10    28       P1  7948  0.86

> <Gold.Chemscore.Hbond.Weighted>
-5.4602

> <Gold.Chemscore.Metal.Weighted>
-0.0000

> <Gold.Chemscore.Lipo.Weighted>
-12.9530

> <Gold.Chemscore.Internal_Hbond.Weighted>
0.0000

> <Gold.Chemscore.DEClash.Weighted>
0.1502

> <Gold.Chemscore.DEInternal.Weighted>
2.5811

> <Gold.Chemscore.Rot.Weighted>
3.5089

> <Gold.Chemscore.Internal.Correction.Weighted>
   9.000000E+99

> <Gold.Protein.RotatedTorsions>
[ 6907 6896 6895 6894 ] final  -93.42 input  -60.11 | X-H torsion
[ 7974 7965 7964 7962 ] final  130.29 input  175.53 | X-H torsion
[ 8008 7997 7996 7995 ] final  164.34 input   59.86 | X-H torsion
[ 10167 10162 10161 10158 ] final -101.81 input  -65.29 | X-H torsion
[ 10718 10713 10712 10709 ] final  125.29 input   66.30 | X-H torsion
[ 10763 10752 10751 10750 ] final  -11.18 input  -60.55 | X-H torsion
[ 11005 11000 10999 10996 ] final  127.97 input  -57.11 | X-H torsion

> <Gold.Protein.ActiveResidues>
 VAL166  LYS551  ARG553  GLY616  TRP617  ASP618  TYR619  PRO620  LYS621  CYS622 
 ASP623  PHE694  ASN695  SER759  ASP760  ASP761  ALA762  ILE779  LEU786  VAL792 
 PHE793  MET794  SER795  GLU796  ALA797  LYS798  CYS799  TRP800  GLU811  SER814 

> <Gold.Protein.RotatedAtoms>
  150.6922  134.1970  159.4306 H   0  0  0  0  0  0  0  0  0  0  0  0  # atno 6907 bound_to 6896
  151.9938  134.9962  160.0572 H   0  0  0  0  0  0  0  0  0  0  0  0  # atno 6908 bound_to 6896
  152.1643  133.4567  159.4913 H   0  0  0  0  0  0  0  0  0  0  0  0  # atno 6909 bound_to 6896
  145.0195  139.4145  143.5204 H   0  0  0  0  0  0  0  0  0  0  0  0  # atno 7974 bound_to 7965
  156.1887  140.1699  156.8134 H   0  0  0  0  0  0  0  0  0  0  0  0  # atno 8008 bound_to 7997
  154.5445  140.0730  156.8598 H   0  0  0  0  0  0  0  0  0  0  0  0  # atno 8009 bound_to 7997
  155.3149  140.3370  155.4245 H   0  0  0  0  0  0  0  0  0  0  0  0  # atno 8010 bound_to 7997
  140.2373  143.3564  152.0833 H   0  0  0  0  0  0  0  0  0  0  0  0  # atno 10167 bound_to 10162
  157.5515  131.1094  150.8693 H   0  0  0  0  0  0  0  0  0  0  0  0  # atno 10718 bound_to 10713
  153.4801  135.7017  153.5943 H   0  0  0  0  0  0  0  0  0  0  0  0  # atno 10763 bound_to 10752
  153.4160  135.3837  155.2081 H   0  0  0  0  0  0  0  0  0  0  0  0  # atno 10764 bound_to 10752
  154.8722  135.3916  154.4249 H   0  0  0  0  0  0  0  0  0  0  0  0  # atno 10765 bound_to 10752
  139.9535  134.9617  156.8932 H   0  0  0  0  0  0  0  0  0  0  0  0  # atno 11005 bound_to 11000
  146.3483  139.9685  142.8709 LP  0  0  0  0  0  0  0  0  0  0  0  0  # atno 17320 bound_to 7965
  145.1915  140.9813  143.4208 LP  0  0  0  0  0  0  0  0  0  0  0  0  # atno 17321 bound_to 7965
  139.5089  144.6858  151.5890 LP  0  0  0  0  0  0  0  0  0  0  0  0  # atno 17342 bound_to 10162
  140.6140  143.9383  150.6474 LP  0  0  0  0  0  0  0  0  0  0  0  0  # atno 17343 bound_to 10162
  156.9217  130.5317  149.5279 LP  0  0  0  0  0  0  0  0  0  0  0  0  # atno 17370 bound_to 10713
  156.0581  130.5639  150.9135 LP  0  0  0  0  0  0  0  0  0  0  0  0  # atno 17371 bound_to 10713
  140.5663  134.0487  155.7415 LP  0  0  0  0  0  0  0  0  0  0  0  0  # atno 17394 bound_to 11000
  141.1203  133.9473  157.2743 LP  0  0  0  0  0  0  0  0  0  0  0  0  # atno 17395 bound_to 11000

$$$$
