AV-unprocessed.smi:104|AV-procd|sdf|994|dock5
  -GOLD-   2262017573D 1   1.00000     0.00000
 Structure written by MMmdl.
 47 49  0  0  0  0  0  0  0  0  1 V2000
  149.1150  133.0365  153.8321 C   0  0  0  0  0  0  0  0  0  0  0  0
  149.1584  133.3469  155.3229 C   0  0  0  0  0  0  0  0  0  0  0  0
  150.1900  133.1993  155.9779 O   0  0  0  0  0  0  0  0  0  0  0  0
  147.9803  133.7859  155.7915 O   0  0  0  0  0  0  0  0  0  0  0  0
  147.8596  134.1767  157.1501 C   0  0  0  0  0  0  0  0  0  0  0  0
  148.9873  135.1593  157.5140 C   0  0  1  0  0  0  0  0  0  0  0  0
  149.0803  136.1131  156.4546 O   0  0  0  0  0  0  0  0  0  0  0  0
  148.8259  137.3998  156.9312 C   0  0  1  0  0  0  0  0  0  0  0  0
  148.0386  138.1678  155.9143 N   0  0  0  0  0  0  0  0  0  0  0  0
  146.8254  137.8418  155.3542 C   0  0  0  0  0  0  0  0  0  0  0  0
  145.8931  136.2490  155.8214 Br  0  0  0  0  0  0  0  0  0  0  0  0
  146.3407  138.6574  154.4606 N   0  0  0  0  0  0  0  0  0  0  0  0
  147.3199  139.6396  154.3823 C   0  0  0  0  0  0  0  0  0  0  0  0
  147.4688  140.8199  153.6114 C   0  0  0  0  0  0  0  0  0  0  0  0
  146.5557  141.2318  152.7207 N   0  0  0  0  0  0  0  0  0  0  0  0
  148.5869  141.5642  153.7774 N   0  0  0  0  0  0  0  0  0  0  0  0
  149.5151  141.1731  154.6564 C   0  0  0  0  0  0  0  0  0  0  0  0
  149.5151  140.0981  155.4486 N   0  0  0  0  0  0  0  0  0  0  0  0
  148.3859  139.3478  155.2841 C   0  0  0  0  0  0  0  0  0  0  0  0
  148.0922  137.2526  158.2702 C   0  0  1  0  0  0  0  0  0  0  0  0
  146.6880  137.0716  158.0841 O   0  0  0  0  0  0  0  0  0  0  0  0
  145.8265  137.2643  159.0987 C   0  0  0  0  0  0  0  0  0  0  0  0
  144.4740  136.6154  158.8385 C   0  0  0  0  0  0  0  0  0  0  0  0
  146.0471  137.9017  160.1282 O   0  0  0  0  0  0  0  0  0  0  0  0
  148.7544  135.9910  158.7897 C   0  0  1  0  0  0  0  0  0  0  0  0
  147.9740  135.3658  159.8037 O   0  0  0  0  0  0  0  0  0  0  0  0
  147.8104  135.9604  160.9975 C   0  0  0  0  0  0  0  0  0  0  0  0
  147.1416  135.0448  162.0137 C   0  0  0  0  0  0  0  0  0  0  0  0
  148.1591  137.1035  161.2921 O   0  0  0  0  0  0  0  0  0  0  0  0
  148.0904  133.0539  153.4589 H   0  0  0  0  0  0  0  0  0  0  0  0
  149.5343  132.0488  153.6402 H   0  0  0  0  0  0  0  0  0  0  0  0
  149.6965  133.7734  153.2780 H   0  0  0  0  0  0  0  0  0  0  0  0
  146.8915  134.6634  157.2733 H   0  0  0  0  0  0  0  0  0  0  0  0
  147.8719  133.3144  157.8177 H   0  0  0  0  0  0  0  0  0  0  0  0
  149.9329  134.6199  157.5791 H   0  0  0  0  0  0  0  0  0  0  0  0
  149.7729  137.9313  157.0272 H   0  0  0  0  0  0  0  0  0  0  0  0
  145.7147  140.6918  152.5755 H   0  0  0  0  0  0  0  0  0  0  0  0
  146.7100  142.0806  152.1959 H   0  0  0  0  0  0  0  0  0  0  0  0
  150.3818  141.8126  154.7370 H   0  0  0  0  0  0  0  0  0  0  0  0
  148.3111  138.1067  158.9123 H   0  0  0  0  0  0  0  0  0  0  0  0
  144.1873  136.7381  157.7936 H   0  0  0  0  0  0  0  0  0  0  0  0
  143.7055  137.0735  159.4617 H   0  0  0  0  0  0  0  0  0  0  0  0
  144.5158  135.5501  159.0650 H   0  0  0  0  0  0  0  0  0  0  0  0
  149.7258  136.2837  159.1926 H   0  0  0  0  0  0  0  0  0  0  0  0
  146.2796  134.5468  161.5696 H   0  0  0  0  0  0  0  0  0  0  0  0
  146.8029  135.6155  162.8787 H   0  0  0  0  0  0  0  0  0  0  0  0
  147.8441  134.2843  162.3543 H   0  0  0  0  0  0  0  0  0  0  0  0
  1  2  1  0  0  0  0
  1 30  1  0  0  0  0
  1 31  1  0  0  0  0
  1 32  1  0  0  0  0
  2  3  2  0  0  0  0
  2  4  1  0  0  0  0
  4  5  1  0  0  0  0
  5  6  1  0  0  0  0
  5 33  1  0  0  0  0
  5 34  1  0  0  0  0
  6 25  1  0  0  0  0
  6  7  1  0  0  0  0
  6 35  1  0  0  0  0
  7  8  1  0  0  0  0
  8  9  1  0  0  0  0
  8 20  1  0  0  0  0
  8 36  1  0  0  0  0
  9 19  1  0  0  0  0
  9 10  1  0  0  0  0
 10 11  1  0  0  0  0
 10 12  2  0  0  0  0
 12 13  1  0  0  0  0
 13 19  2  0  0  0  0
 13 14  1  0  0  0  0
 14 15  1  0  0  0  0
 14 16  2  0  0  0  0
 15 37  1  0  0  0  0
 15 38  1  0  0  0  0
 16 17  1  0  0  0  0
 17 18  2  0  0  0  0
 17 39  1  0  0  0  0
 18 19  1  0  0  0  0
 20 21  1  0  0  0  0
 20 25  1  0  0  0  0
 20 40  1  0  0  0  0
 21 22  1  0  0  0  0
 22 23  1  0  0  0  0
 22 24  2  0  0  0  0
 23 41  1  0  0  0  0
 23 42  1  0  0  0  0
 23 43  1  0  0  0  0
 25 26  1  0  0  0  0
 25 44  1  0  0  0  0
 26 27  1  0  0  0  0
 27 28  1  0  0  0  0
 27 29  2  0  0  0  0
 28 45  1  0  0  0  0
 28 46  1  0  0  0  0
 28 47  1  0  0  0  0
M  END
> <s_m_source_file>
AV-unprocessed.smi

> <i_m_source_file_index>
104

> <i_lp_mmshare_version>
43012

> <i_f3d_flags>
0

> <s_epik_input>
W0NIM11DKD1PKU9bQ0gyXVtDQEBIXTFPW0NASF0oW0NAQEhdKE9DKD1PKVtDSDNdKVtDQEhdMU9DKD1PKVtDSDNdKW4oYyhCciluMiljKGMyMyluW2NIXW5jM1tOSDJd

> <s_epik_cmdline>
J2VwaWtfcHl0aG9uJywgJy1waCcsICc3LjAnLCAnLXRuJywgJzgnLCAnLW1hJywgJzIwMCcsICctbWV0YWxfYmluZGluZycsICctaW1hZScsICc8aW5maWxlLm1hZT4nLCAnLW9tYWUnLCAnPG91dGZpbGUubWFlPic=

> <r_lp_tautomer_probability>
1

> <r_epik_Ionization_Penalty>
7.36622e-05

> <r_epik_Ionization_Penalty_Charging>
0

> <r_epik_Ionization_Penalty_Neutral>
7.36622e-05

> <r_epik_State_Penalty>
-0

> <r_epik_Charging_Adjusted_Penalty>
0

> <i_epik_Tot_Q>
0

> <i_epik_Tot_abs_Q>
0

> <r_epik_Metal_State_Penalty>
-0

> <b_epik_Metal_Only>
0

> <s_epik_Chemistry_Notes>
This compound has an ester and may undergo hydrolysis at high or low pH. This compound contains an acetal/aminal-like group ( X-CH(R)-Y where X, Y are N, S, or O) that may be acid/base labile, releasing an aldehyde.

> <s_lp_Force_Field>
OPLS_2005

> <r_lp_Energy>
22.6214

> <b_lp_Chiralities_Consistent>
1

> <s_lp_Variant>
AV-unprocessed.smi:104-2

> <Gold.Version>
5.8.1

> <Gold.Id.Protein>
6NUR|6NUR_protein|mol2

> <Gold.PLP.Fitness>
35.2671

> <Gold.PLP.PLP>
-25.6168

> <Gold.PLP.part.hbond>
-4.9969

> <Gold.PLP.part.metal>
0.0000

> <Gold.PLP.part.buried>
-2.3963

> <Gold.PLP.part.nonpolar>
-18.4625

> <Gold.PLP.part.repulsive>
0.4161

> <Gold.PLP.ligand.clash>
0.0000

> <Gold.PLP.ligand.torsion>
0.7437

> <Gold.PLP.Chemscore.Hbond>
3.5756

> <Gold.PLP.Chemscore.CHOScore>
0.0000

> <Gold.PLP.Chemscore.Metal>
0.0000

> <Gold.Chemscore.Hbonds>
donor molecule, donor type, donor heavy atom, donor atom, acceptor molecule, acceptor atom, score
      L1  H    15    37       P1 10175  0.99
      P1  H  6931  6943       L1    29  1.00
      P1  H  6934  6947       L1    24  1.00
      P1  H  8011  8017       L1    16  0.62

> <Gold.PLP.Chemscore.Internal.Correction>
0.4108

> <Gold.Rescore>
     Score         DG    S(hbond)    S(metal)    S(lipo)     H(rot)  DE(clash)    DE(int)     intcor
      2.57      -6.72       2.67        0.00      28.68       4.31       0.01       4.14       ----

> <Gold.Chemscore.Fitness>
2.5650

> <Gold.Chemscore.DG>
-6.7243

> <Gold.Chemscore.ZeroCoef>
-5.4800

> <Gold.Chemscore.Hbond>
2.6690

> <Gold.Chemscore.Metal>
0.0000

> <Gold.Chemscore.Lipo>
28.6795

> <Gold.Chemscore.Internal_Hbond>
0.0000

> <Gold.Chemscore.DEClash>
0.0149

> <Gold.Chemscore.DEInternal>
4.1444

> <Gold.Chemscore.Rot>
4.3070

> <Gold.Chemscore.Internal.Correction>
   9.000000E+99

> <Gold.Chemscore.Hbonds>
donor molecule, donor type, donor heavy atom, donor atom, acceptor molecule, acceptor atom, score
      L1  H    15    37       P1 10175  0.31
      P1  H  6931  6943       L1    29  0.96
      P1  H  6934  6947       L1    24  0.94
      P1  H  8011  8017       L1    16  0.18

> <Gold.Chemscore.Hbond.Weighted>
-8.9146

> <Gold.Chemscore.Metal.Weighted>
-0.0000

> <Gold.Chemscore.Lipo.Weighted>
-3.3555

> <Gold.Chemscore.Internal_Hbond.Weighted>
0.0000

> <Gold.Chemscore.DEClash.Weighted>
0.0149

> <Gold.Chemscore.DEInternal.Weighted>
4.1444

> <Gold.Chemscore.Rot.Weighted>
11.0259

> <Gold.Chemscore.Internal.Correction.Weighted>
   9.000000E+99

> <Gold.Protein.RotatedTorsions>
[ 6907 6896 6895 6894 ] final  -14.71 input  -60.11 | X-H torsion
[ 7974 7965 7964 7962 ] final  -69.58 input  175.53 | X-H torsion
[ 8008 7997 7996 7995 ] final  131.75 input   59.86 | X-H torsion
[ 10167 10162 10161 10158 ] final  156.67 input  -65.29 | X-H torsion
[ 10718 10713 10712 10709 ] final   59.10 input   66.30 | X-H torsion
[ 10763 10752 10751 10750 ] final   83.96 input  -60.55 | X-H torsion
[ 11005 11000 10999 10996 ] final   97.76 input  -57.11 | X-H torsion

> <Gold.Protein.ActiveResidues>
 VAL166  LYS551  ARG553  GLY616  TRP617  ASP618  TYR619  PRO620  LYS621  CYS622 
 ASP623  PHE694  ASN695  SER759  ASP760  ASP761  ALA762  ILE779  LEU786  VAL792 
 PHE793  MET794  SER795  GLU796  ALA797  LYS798  CYS799  TRP800  GLU811  SER814 

> <Gold.Protein.RotatedAtoms>
  151.3352  135.0851  159.9351 H   0  0  0  0  0  0  0  0  0  0  0  0  # atno 6907 bound_to 6896
  152.5225  133.9503  159.7679 H   0  0  0  0  0  0  0  0  0  0  0  0  # atno 6908 bound_to 6896
  150.9849  133.6155  159.2747 H   0  0  0  0  0  0  0  0  0  0  0  0  # atno 6909 bound_to 6896
  145.7019  140.9113  143.0726 H   0  0  0  0  0  0  0  0  0  0  0  0  # atno 7974 bound_to 7965
  156.2974  140.2563  156.2977 H   0  0  0  0  0  0  0  0  0  0  0  0  # atno 8008 bound_to 7997
  154.9448  140.0395  157.2133 H   0  0  0  0  0  0  0  0  0  0  0  0  # atno 8009 bound_to 7997
  154.8092  140.2841  155.5870 H   0  0  0  0  0  0  0  0  0  0  0  0  # atno 8010 bound_to 7997
  139.4821  144.4987  151.8200 H   0  0  0  0  0  0  0  0  0  0  0  0  # atno 10167 bound_to 10162
  157.5649  130.8863  149.9170 H   0  0  0  0  0  0  0  0  0  0  0  0  # atno 10718 bound_to 10713
  153.1338  135.4672  154.9390 H   0  0  0  0  0  0  0  0  0  0  0  0  # atno 10763 bound_to 10752
  154.7688  135.3152  154.8235 H   0  0  0  0  0  0  0  0  0  0  0  0  # atno 10764 bound_to 10752
  153.8771  135.6898  153.4823 H   0  0  0  0  0  0  0  0  0  0  0  0  # atno 10765 bound_to 10752
  139.8774  134.9016  156.4354 H   0  0  0  0  0  0  0  0  0  0  0  0  # atno 11005 bound_to 11000
  144.6966  139.8959  143.7456 LP  0  0  0  0  0  0  0  0  0  0  0  0  # atno 17320 bound_to 7965
  146.0790  139.3778  143.0476 LP  0  0  0  0  0  0  0  0  0  0  0  0  # atno 17321 bound_to 7965
  140.4478  144.1897  150.5895 LP  0  0  0  0  0  0  0  0  0  0  0  0  # atno 17342 bound_to 10162
  140.4616  143.2447  151.9212 LP  0  0  0  0  0  0  0  0  0  0  0  0  # atno 17343 bound_to 10162
  156.0698  130.3687  150.0801 LP  0  0  0  0  0  0  0  0  0  0  0  0  # atno 17370 bound_to 10713
  156.8961  130.9604  151.3582 LP  0  0  0  0  0  0  0  0  0  0  0  0  # atno 17371 bound_to 10713
  140.9037  133.7761  155.9710 LP  0  0  0  0  0  0  0  0  0  0  0  0  # atno 17394 bound_to 11000
  140.8623  134.2826  157.5229 LP  0  0  0  0  0  0  0  0  0  0  0  0  # atno 17395 bound_to 11000

$$$$
