AV-unprocessed.smi:1876|AV-procd|sdf|7621|dock7
  -GOLD-   22720 9353D 1   1.00000     0.00000
 Structure written by MMmdl.
 31 32  0  0  0  0  0  0  0  0  1 V2000
  151.4481  138.8227  145.9214 C   0  0  0  0  0  0  0  0  0  0  0  0
  150.8256  137.6361  146.5734 C   0  0  0  0  0  0  0  0  0  0  0  0
  150.3911  137.3949  147.8466 C   0  0  0  0  0  0  0  0  0  0  0  0
  149.9050  136.0624  147.7715 C   0  0  0  0  0  0  0  0  0  0  0  0
  149.3532  135.4229  148.9110 N   0  0  0  0  0  0  0  0  0  0  0  0
  148.6389  134.2850  148.9451 C   0  0  0  0  0  0  0  0  0  0  0  0
  148.3524  133.5978  147.9642 O   0  0  0  0  0  0  0  0  0  0  0  0
  148.2653  133.9814  150.1967 N   0  0  0  0  0  0  0  0  0  0  0  0
  147.4372  132.8396  150.5801 C   0  0  1  0  0  0  0  0  0  0  0  0
  146.0165  132.9662  149.9986 C   0  0  0  0  0  0  0  0  0  0  0  0
  145.2224  131.6822  150.2554 C   0  0  0  0  0  0  0  0  0  0  0  0
  145.9431  130.4705  149.6422 C   0  0  0  0  0  0  0  0  0  0  0  0
  147.3813  130.4520  149.9152 N   0  0  0  0  0  0  0  0  0  0  0  0
  148.1385  131.5047  150.2718 C   0  0  0  0  0  0  0  0  0  0  0  0
  149.3589  131.4045  150.3897 O   0  0  0  0  0  0  0  0  0  0  0  0
  150.0329  135.5375  146.5624 N   0  0  0  0  0  0  0  0  0  0  0  0
  150.6228  136.5436  145.7883 O   0  0  0  0  0  0  0  0  0  0  0  0
  151.7208  139.5758  146.6607 H   0  0  0  0  0  0  0  0  0  0  0  0
  150.7578  139.2794  145.2121 H   0  0  0  0  0  0  0  0  0  0  0  0
  152.3506  138.5381  145.3803 H   0  0  0  0  0  0  0  0  0  0  0  0
  150.4162  138.0664  148.6920 H   0  0  0  0  0  0  0  0  0  0  0  0
  149.5110  135.8872  149.7932 H   0  0  0  0  0  0  0  0  0  0  0  0
  148.5439  134.6039  150.9412 H   0  0  0  0  0  0  0  0  0  0  0  0
  147.3441  132.8464  151.6679 H   0  0  0  0  0  0  0  0  0  0  0  0
  145.4986  133.8171  150.4424 H   0  0  0  0  0  0  0  0  0  0  0  0
  146.0658  133.1555  148.9252 H   0  0  0  0  0  0  0  0  0  0  0  0
  145.1090  131.5358  151.3303 H   0  0  0  0  0  0  0  0  0  0  0  0
  144.2158  131.7680  149.8456 H   0  0  0  0  0  0  0  0  0  0  0  0
  145.4974  129.5442  150.0055 H   0  0  0  0  0  0  0  0  0  0  0  0
  145.8120  130.4771  148.5597 H   0  0  0  0  0  0  0  0  0  0  0  0
  147.8555  129.5747  149.7560 H   0  0  0  0  0  0  0  0  0  0  0  0
  1  2  1  0  0  0  0
  1 18  1  0  0  0  0
  1 19  1  0  0  0  0
  1 20  1  0  0  0  0
  2 17  1  0  0  0  0
  2  3  2  0  0  0  0
  3  4  1  0  0  0  0
  3 21  1  0  0  0  0
  4  5  1  0  0  0  0
  4 16  2  0  0  0  0
  5  6  1  0  0  0  0
  5 22  1  0  0  0  0
  6  7  2  0  0  0  0
  6  8  1  0  0  0  0
  8  9  1  0  0  0  0
  8 23  1  0  0  0  0
  9 14  1  0  0  0  0
  9 10  1  0  0  0  0
  9 24  1  0  0  0  0
 10 11  1  0  0  0  0
 10 25  1  0  0  0  0
 10 26  1  0  0  0  0
 11 12  1  0  0  0  0
 11 27  1  0  0  0  0
 11 28  1  0  0  0  0
 12 13  1  0  0  0  0
 12 29  1  0  0  0  0
 12 30  1  0  0  0  0
 13 14  1  0  0  0  0
 13 31  1  0  0  0  0
 14 15  2  0  0  0  0
 16 17  1  0  0  0  0
M  END
> <s_m_source_file>
AV-unprocessed.smi

> <i_m_source_file_index>
1876

> <i_lp_mmshare_version>
43012

> <i_f3d_flags>
0

> <s_epik_input>
W0NIM11jMVtjSF1jKG5vMSlbTkhdQyg9TylbTkhdW0NAQEhdMltDSDJdW0NIMl1bQ0gyXVtOSF1DMj1P

> <s_epik_cmdline>
J2VwaWtfcHl0aG9uJywgJy1waCcsICc3LjAnLCAnLXRuJywgJzgnLCAnLW1hJywgJzIwMCcsICctbWV0YWxfYmluZGluZycsICctaW1hZScsICc8aW5maWxlLm1hZT4nLCAnLW9tYWUnLCAnPG91dGZpbGUubWFlPic=

> <r_lp_tautomer_probability>
1

> <r_epik_Ionization_Penalty>
2.33177e-05

> <r_epik_Ionization_Penalty_Charging>
0

> <r_epik_Ionization_Penalty_Neutral>
2.33177e-05

> <r_epik_State_Penalty>
-0

> <r_epik_Charging_Adjusted_Penalty>
0

> <i_epik_Tot_Q>
0

> <i_epik_Tot_abs_Q>
0

> <r_epik_Metal_State_Penalty>
-0

> <b_epik_Metal_Only>
0

> <s_lp_Force_Field>
OPLS_2005

> <r_lp_Energy>
6.99083

> <b_lp_Chiralities_Consistent>
1

> <s_lp_Variant>
AV-unprocessed.smi:1876-2

> <Gold.Version>
5.8.1

> <Gold.Id.Protein>
6NUR|6NUR_protein|mol2

> <Gold.PLP.Fitness>
30.5232

> <Gold.PLP.PLP>
-21.6029

> <Gold.PLP.part.hbond>
-3.0000

> <Gold.PLP.part.metal>
0.0000

> <Gold.PLP.part.buried>
-3.9114

> <Gold.PLP.part.nonpolar>
-14.9982

> <Gold.PLP.part.repulsive>
0.3779

> <Gold.PLP.ligand.clash>
0.0000

> <Gold.PLP.ligand.torsion>
0.0609

> <Gold.PLP.Chemscore.Hbond>
3.0000

> <Gold.PLP.Chemscore.CHOScore>
0.0000

> <Gold.PLP.Chemscore.Metal>
0.0000

> <Gold.PLP.Chemscore.Internal.Correction>
0.0421

> <Gold.Rescore>
     Score         DG    S(hbond)    S(metal)    S(lipo)     H(rot)  DE(clash)    DE(int)     intcor
     16.65     -17.60       2.87        0.00      43.63       1.00       0.00       0.95       ----

> <Gold.Chemscore.Fitness>
16.6454

> <Gold.Chemscore.DG>
-17.5963

> <Gold.Chemscore.ZeroCoef>
-5.4800

> <Gold.Chemscore.Hbond>
2.8656

> <Gold.Chemscore.Metal>
0.0000

> <Gold.Chemscore.Lipo>
43.6340

> <Gold.Chemscore.Internal_Hbond>
0.0000

> <Gold.Chemscore.DEClash>
0.0015

> <Gold.Chemscore.DEInternal>
0.9495

> <Gold.Chemscore.Rot>
1.0000

> <Gold.Chemscore.Internal.Correction>
   9.000000E+99

> <Gold.Chemscore.Hbond.Weighted>
-9.5711

> <Gold.Chemscore.Metal.Weighted>
-0.0000

> <Gold.Chemscore.Lipo.Weighted>
-5.1052

> <Gold.Chemscore.Internal_Hbond.Weighted>
0.0000

> <Gold.Chemscore.DEClash.Weighted>
0.0015

> <Gold.Chemscore.DEInternal.Weighted>
0.9495

> <Gold.Chemscore.Rot.Weighted>
2.5600

> <Gold.Chemscore.Internal.Correction.Weighted>
   9.000000E+99

> <Gold.Protein.RotatedTorsions>
[ 6907 6896 6895 6894 ] final  128.92 input  -60.11 | X-H torsion
[ 7974 7965 7964 7962 ] final -104.89 input  175.53 | X-H torsion
[ 8008 7997 7996 7995 ] final  152.44 input   59.86 | X-H torsion
[ 10167 10162 10161 10158 ] final  -80.29 input  -65.29 | X-H torsion
[ 10718 10713 10712 10709 ] final  -14.29 input   66.30 | X-H torsion
[ 10763 10752 10751 10750 ] final  -18.12 input  -60.55 | X-H torsion
[ 11005 11000 10999 10996 ] final   11.81 input  -57.11 | X-H torsion

> <Gold.Protein.ActiveResidues>
 VAL166  LYS551  ARG553  GLY616  TRP617  ASP618  TYR619  PRO620  LYS621  CYS622 
 ASP623  PHE694  ASN695  SER759  ASP760  ASP761  ALA762  ILE779  LEU786  VAL792 
 PHE793  MET794  SER795  GLU796  ALA797  LYS798  CYS799  TRP800  GLU811  SER814 

> <Gold.Protein.RotatedAtoms>
  152.3673  133.6373  159.6060 H   0  0  0  0  0  0  0  0  0  0  0  0  # atno 6907 bound_to 6896
  150.7643  133.9327  159.3440 H   0  0  0  0  0  0  0  0  0  0  0  0  # atno 6908 bound_to 6896
  151.7155  135.0905  160.0326 H   0  0  0  0  0  0  0  0  0  0  0  0  # atno 6909 bound_to 6896
  145.2374  140.9193  143.3169 H   0  0  0  0  0  0  0  0  0  0  0  0  # atno 7974 bound_to 7965
  156.2629  140.2021  156.6333 H   0  0  0  0  0  0  0  0  0  0  0  0  # atno 8008 bound_to 7997
  154.6665  140.0555  157.0144 H   0  0  0  0  0  0  0  0  0  0  0  0  # atno 8009 bound_to 7997
  155.1199  140.3223  155.4503 H   0  0  0  0  0  0  0  0  0  0  0  0  # atno 8010 bound_to 7997
  140.4517  143.2481  151.8480 H   0  0  0  0  0  0  0  0  0  0  0  0  # atno 10167 bound_to 10162
  156.6181  130.4868  149.6175 H   0  0  0  0  0  0  0  0  0  0  0  0  # atno 10718 bound_to 10713
  153.5843  135.7004  153.5450 H   0  0  0  0  0  0  0  0  0  0  0  0  # atno 10763 bound_to 10752
  153.3233  135.4068  155.1435 H   0  0  0  0  0  0  0  0  0  0  0  0  # atno 10764 bound_to 10752
  154.8612  135.3701  154.5372 H   0  0  0  0  0  0  0  0  0  0  0  0  # atno 10765 bound_to 10752
  140.4990  134.0764  155.7789 H   0  0  0  0  0  0  0  0  0  0  0  0  # atno 11005 bound_to 11000
  144.9620  139.3970  143.6351 LP  0  0  0  0  0  0  0  0  0  0  0  0  # atno 17320 bound_to 7965
  146.3337  139.8678  142.8845 LP  0  0  0  0  0  0  0  0  0  0  0  0  # atno 17321 bound_to 7965
  139.4797  144.5113  151.8929 LP  0  0  0  0  0  0  0  0  0  0  0  0  # atno 17342 bound_to 10162
  140.4200  144.2256  150.5887 LP  0  0  0  0  0  0  0  0  0  0  0  0  # atno 17343 bound_to 10162
  156.2334  130.6808  151.1486 LP  0  0  0  0  0  0  0  0  0  0  0  0  # atno 17370 bound_to 10713
  157.7235  131.0665  150.6033 LP  0  0  0  0  0  0  0  0  0  0  0  0  # atno 17371 bound_to 10713
  141.1445  133.9079  157.2248 LP  0  0  0  0  0  0  0  0  0  0  0  0  # atno 17394 bound_to 11000
  139.9724  135.0124  156.9546 LP  0  0  0  0  0  0  0  0  0  0  0  0  # atno 17395 bound_to 11000

$$$$
