AV-unprocessed.smi:1093|AV-procd|sdf|4738|dock2
  -GOLD-   22720 3273D 1   1.00000     0.00000
 Structure written by MMmdl.
 48 49  0  0  0  0  0  0  0  0  3 V2000
  145.4655  132.5937  150.6721 C   0  0  0  0  0  0  0  0  0  0  0  0
  144.3784  133.3945  149.9407 C   0  0  0  0  0  0  0  0  0  0  0  0
  143.6265  134.2972  150.8488 N   0  3  1  0  0  0  0  0  0  0  0  0
  143.1465  133.5931  152.0663 C   0  0  0  0  0  0  0  0  0  0  0  0
  142.2515  134.5062  152.9202 C   0  0  0  0  0  0  0  0  0  0  0  0
  142.9817  135.8022  153.2942 C   0  0  0  0  0  0  0  0  0  0  0  0
  143.5006  136.4998  152.0246 C   0  0  1  0  0  0  0  0  0  0  0  0
  144.2690  137.6934  152.3687 N   0  0  0  0  0  0  0  0  0  0  0  0
  145.4924  137.6914  152.9182 C   0  0  0  0  0  0  0  0  0  0  0  0
  146.1101  136.6626  153.1907 O   0  0  0  0  0  0  0  0  0  0  0  0
  145.9461  138.9430  153.1066 N   0  0  0  0  0  0  0  0  0  0  0  0
  147.1736  139.3610  153.6900 C   0  0  0  0  0  0  0  0  0  0  0  0
  147.4726  140.7395  153.6803 C   0  0  0  0  0  0  0  0  0  0  0  0
  148.6704  141.2031  154.2622 C   0  0  0  0  0  0  0  0  0  0  0  0
  149.5652  140.2832  154.8622 C   0  0  0  0  0  0  0  0  0  0  0  0
  150.7815  140.6692  155.4665 N   0  0  0  0  0  0  0  0  0  0  0  0
  151.9413  139.7886  155.3830 C   0  0  0  0  0  0  0  0  0  0  0  0
  150.9130  142.0027  156.0391 C   0  0  0  0  0  0  0  0  0  0  0  0
  149.2283  138.9704  154.8578 N   0  3  0  0  0  0  0  0  0  0  0  0
  148.0937  138.4829  154.3107 C   0  0  0  0  0  0  0  0  0  0  0  0
  144.3725  135.5368  151.1960 C   0  0  0  0  0  0  0  0  0  0  0  0
  146.0594  132.0183  149.9615 H   0  0  0  0  0  0  0  0  0  0  0  0
  145.0453  131.8863  151.3862 H   0  0  0  0  0  0  0  0  0  0  0  0
  146.1463  133.2536  151.2108 H   0  0  0  0  0  0  0  0  0  0  0  0
  144.8705  133.9899  149.1704 H   0  0  0  0  0  0  0  0  0  0  0  0
  143.6903  132.7264  149.4207 H   0  0  0  0  0  0  0  0  0  0  0  0
  142.5799  132.7058  151.7815 H   0  0  0  0  0  0  0  0  0  0  0  0
  144.0016  133.2496  152.6507 H   0  0  0  0  0  0  0  0  0  0  0  0
  141.3403  134.7448  152.3699 H   0  0  0  0  0  0  0  0  0  0  0  0
  141.9383  133.9818  153.8235 H   0  0  0  0  0  0  0  0  0  0  0  0
  142.3092  136.4605  153.8454 H   0  0  0  0  0  0  0  0  0  0  0  0
  143.8131  135.5737  153.9628 H   0  0  0  0  0  0  0  0  0  0  0  0
  142.6470  136.7913  151.4089 H   0  0  0  0  0  0  0  0  0  0  0  0
  143.8383  138.5849  152.1708 H   0  0  0  0  0  0  0  0  0  0  0  0
  145.3582  139.6859  152.7574 H   0  0  0  0  0  0  0  0  0  0  0  0
  146.7906  141.4437  153.2263 H   0  0  0  0  0  0  0  0  0  0  0  0
  148.8812  142.2617  154.2401 H   0  0  0  0  0  0  0  0  0  0  0  0
  151.7238  138.8224  155.8396 H   0  0  0  0  0  0  0  0  0  0  0  0
  152.8010  140.2144  155.9006 H   0  0  0  0  0  0  0  0  0  0  0  0
  152.2242  139.6256  154.3425 H   0  0  0  0  0  0  0  0  0  0  0  0
  150.2031  142.1425  156.8549 H   0  0  0  0  0  0  0  0  0  0  0  0
  150.7292  142.7643  155.2802 H   0  0  0  0  0  0  0  0  0  0  0  0
  151.9139  142.1661  156.4391 H   0  0  0  0  0  0  0  0  0  0  0  0
  147.9696  137.4148  154.4064 H   0  0  0  0  0  0  0  0  0  0  0  0
  145.2769  135.2727  151.7473 H   0  0  0  0  0  0  0  0  0  0  0  0
  144.6940  136.0462  150.2879 H   0  0  0  0  0  0  0  0  0  0  0  0
  142.7983  134.5825  150.3453 H   0  0  0  0  0  0  0  0  0  0  0  0
  149.8691  138.3085  155.2957 H   0  0  0  0  0  0  0  0  0  0  0  0
  1  2  1  0  0  0  0
  1 22  1  0  0  0  0
  1 23  1  0  0  0  0
  1 24  1  0  0  0  0
  2  3  1  0  0  0  0
  2 25  1  0  0  0  0
  2 26  1  0  0  0  0
  3 21  1  0  0  0  0
  3  4  1  0  0  0  0
  3 47  1  0  0  0  0
  4  5  1  0  0  0  0
  4 27  1  0  0  0  0
  4 28  1  0  0  0  0
  5  6  1  0  0  0  0
  5 29  1  0  0  0  0
  5 30  1  0  0  0  0
  6  7  1  0  0  0  0
  6 31  1  0  0  0  0
  6 32  1  0  0  0  0
  7  8  1  0  0  0  0
  7 21  1  0  0  0  0
  7 33  1  0  0  0  0
  8  9  1  0  0  0  0
  8 34  1  0  0  0  0
  9 10  2  0  0  0  0
  9 11  1  0  0  0  0
 11 12  1  0  0  0  0
 11 35  1  0  0  0  0
 12 20  1  0  0  0  0
 12 13  2  0  0  0  0
 13 14  1  0  0  0  0
 13 36  1  0  0  0  0
 14 15  2  0  0  0  0
 14 37  1  0  0  0  0
 15 16  1  0  0  0  0
 15 19  1  0  0  0  0
 16 17  1  0  0  0  0
 16 18  1  0  0  0  0
 17 38  1  0  0  0  0
 17 39  1  0  0  0  0
 17 40  1  0  0  0  0
 18 41  1  0  0  0  0
 18 42  1  0  0  0  0
 18 43  1  0  0  0  0
 19 20  2  0  0  0  0
 19 48  1  0  0  0  0
 20 44  1  0  0  0  0
 21 45  1  0  0  0  0
 21 46  1  0  0  0  0
M  CHG  1   3   1
M  CHG  1  19   1
M  END
> <s_m_source_file>
AV-unprocessed.smi

> <i_m_source_file_index>
1093

> <i_lp_mmshare_version>
43012

> <i_f3d_flags>
0

> <s_epik_input>
W0NIM11bQ0gyXU4xW0NIMl1bQ0gyXVtDSDJdW0NASF0oW0NIMl0xKVtOSF1DKD1PKVtOSF1jMltjSF1bY0hdYyhOKFtDSDNdKVtDSDNdKW5bY0hdMg==

> <s_epik_cmdline>
J2VwaWtfcHl0aG9uJywgJy1waCcsICc3LjAnLCAnLXRuJywgJzgnLCAnLW1hJywgJzIwMCcsICctbWV0YWxfYmluZGluZycsICctaW1hZScsICc8aW5maWxlLm1hZT4nLCAnLW9tYWUnLCAnPG91dGZpbGUubWFlPic=

> <r_lp_tautomer_probability>
0.999994

> <r_epik_Ionization_Penalty>
0.346711

> <r_epik_Ionization_Penalty_Charging>
0.346691

> <r_epik_Ionization_Penalty_Neutral>
1.93006e-05

> <r_epik_State_Penalty>
0.339838

> <r_epik_Charging_Adjusted_Penalty>
0.68653

> <i_epik_Tot_Q>
2

> <i_epik_Tot_abs_Q>
2

> <r_epik_Metal_State_Penalty>
0.600835

> <b_epik_Metal_Only>
0

> <s_lp_Force_Field>
OPLS_2005

> <r_lp_Energy>
27.8827

> <b_lp_Chiralities_Consistent>
1

> <s_lp_Variant>
AV-unprocessed.smi:1093-1

> <Gold.Version>
5.8.1

> <Gold.Id.Protein>
6NUR|6NUR_protein|mol2

> <Gold.PLP.Fitness>
49.2007

> <Gold.PLP.PLP>
-38.4216

> <Gold.PLP.part.hbond>
-4.0000

> <Gold.PLP.part.metal>
0.0000

> <Gold.PLP.part.buried>
-4.1126

> <Gold.PLP.part.nonpolar>
-31.0134

> <Gold.PLP.part.repulsive>
0.2030

> <Gold.PLP.ligand.clash>
0.0000

> <Gold.PLP.ligand.torsion>
0.6287

> <Gold.PLP.Chemscore.Hbond>
4.0000

> <Gold.PLP.Chemscore.CHOScore>
0.0000

> <Gold.PLP.Chemscore.Metal>
0.0000

> <Gold.Chemscore.Hbonds>
donor molecule, donor type, donor heavy atom, donor atom, acceptor molecule, acceptor atom, score
      L1  H     3    47       P1 10186  2.00
      L1  H     8    34       P1 10175  1.00
      L1  H    11    35       P1 10175  1.00

> <Gold.PLP.Chemscore.Internal.Correction>
0.0367

> <Gold.Rescore>
     Score         DG    S(hbond)    S(metal)    S(lipo)     H(rot)  DE(clash)    DE(int)     intcor
     17.98     -20.96       2.61        0.00      83.79       1.19       0.04       2.94       ----

> <Gold.Chemscore.Fitness>
17.9768

> <Gold.Chemscore.DG>
-20.9580

> <Gold.Chemscore.ZeroCoef>
-5.4800

> <Gold.Chemscore.Hbond>
2.6149

> <Gold.Chemscore.Metal>
0.0000

> <Gold.Chemscore.Lipo>
83.7889

> <Gold.Chemscore.Internal_Hbond>
0.0000

> <Gold.Chemscore.DEClash>
0.0444

> <Gold.Chemscore.DEInternal>
2.9369

> <Gold.Chemscore.Rot>
1.1949

> <Gold.Chemscore.Internal.Correction>
   9.000000E+99

> <Gold.Chemscore.Hbonds>
donor molecule, donor type, donor heavy atom, donor atom, acceptor molecule, acceptor atom, score
      L1  H     3    47       P1 10186  0.49
      L1  H     8    34       P1 10175  0.97
      L1  H    11    35       P1 10175  0.96

> <Gold.Chemscore.Hbond.Weighted>
-8.7337

> <Gold.Chemscore.Metal.Weighted>
-0.0000

> <Gold.Chemscore.Lipo.Weighted>
-9.8033

> <Gold.Chemscore.Internal_Hbond.Weighted>
0.0000

> <Gold.Chemscore.DEClash.Weighted>
0.0444

> <Gold.Chemscore.DEInternal.Weighted>
2.9369

> <Gold.Chemscore.Rot.Weighted>
3.0590

> <Gold.Chemscore.Internal.Correction.Weighted>
   9.000000E+99

> <Gold.Protein.RotatedTorsions>
[ 6907 6896 6895 6894 ] final  162.25 input  -60.11 | X-H torsion
[ 7974 7965 7964 7962 ] final   94.08 input  175.53 | X-H torsion
[ 8008 7997 7996 7995 ] final  -19.83 input   59.86 | X-H torsion
[ 10167 10162 10161 10158 ] final   15.61 input  -65.29 | X-H torsion
[ 10718 10713 10712 10709 ] final   -0.88 input   66.30 | X-H torsion
[ 10763 10752 10751 10750 ] final  -57.76 input  -60.55 | X-H torsion
[ 11005 11000 10999 10996 ] final  -34.74 input  -57.11 | X-H torsion

> <Gold.Protein.ActiveResidues>
 VAL166  LYS551  ARG553  GLY616  TRP617  ASP618  TYR619  PRO620  LYS621  CYS622 
 ASP623  PHE694  ASN695  SER759  ASP760  ASP761  ALA762  ILE779  LEU786  VAL792 
 PHE793  MET794  SER795  GLU796  ALA797  LYS798  CYS799  TRP800  GLU811  SER814 

> <Gold.Protein.RotatedAtoms>
  151.9432  133.3644  159.3972 H   0  0  0  0  0  0  0  0  0  0  0  0  # atno 6907 bound_to 6896
  150.6994  134.4417  159.5304 H   0  0  0  0  0  0  0  0  0  0  0  0  # atno 6908 bound_to 6896
  152.2078  134.8529  160.0551 H   0  0  0  0  0  0  0  0  0  0  0  0  # atno 6909 bound_to 6896
  145.4704  139.2282  143.2938 H   0  0  0  0  0  0  0  0  0  0  0  0  # atno 7974 bound_to 7965
  154.4810  140.2078  155.9764 H   0  0  0  0  0  0  0  0  0  0  0  0  # atno 8008 bound_to 7997
  156.1165  140.3220  155.8116 H   0  0  0  0  0  0  0  0  0  0  0  0  # atno 8009 bound_to 7997
  155.4544  140.0519  157.2988 H   0  0  0  0  0  0  0  0  0  0  0  0  # atno 8010 bound_to 7997
  140.5855  143.8898  150.6826 H   0  0  0  0  0  0  0  0  0  0  0  0  # atno 10167 bound_to 10162
  156.8139  130.5434  149.5705 H   0  0  0  0  0  0  0  0  0  0  0  0  # atno 10718 bound_to 10713
  154.2275  135.6366  153.5164 H   0  0  0  0  0  0  0  0  0  0  0  0  # atno 10763 bound_to 10752
  152.9956  135.5511  154.6048 H   0  0  0  0  0  0  0  0  0  0  0  0  # atno 10764 bound_to 10752
  154.5523  135.2902  155.0971 H   0  0  0  0  0  0  0  0  0  0  0  0  # atno 10765 bound_to 10752
  140.9740  133.7093  156.1571 H   0  0  0  0  0  0  0  0  0  0  0  0  # atno 11005 bound_to 11000
  146.2400  140.5481  142.8938 LP  0  0  0  0  0  0  0  0  0  0  0  0  # atno 17320 bound_to 7965
  144.7949  140.6103  143.6517 LP  0  0  0  0  0  0  0  0  0  0  0  0  # atno 17321 bound_to 7965
  140.2408  143.3665  152.1488 LP  0  0  0  0  0  0  0  0  0  0  0  0  # atno 17342 bound_to 10162
  139.5195  144.7020  151.5465 LP  0  0  0  0  0  0  0  0  0  0  0  0  # atno 17343 bound_to 10162
  156.1028  130.5982  150.9922 LP  0  0  0  0  0  0  0  0  0  0  0  0  # atno 17370 bound_to 10713
  157.6492  131.0899  150.8088 LP  0  0  0  0  0  0  0  0  0  0  0  0  # atno 17371 bound_to 10713
  140.7286  134.4279  157.5568 LP  0  0  0  0  0  0  0  0  0  0  0  0  # atno 17394 bound_to 11000
  139.8923  134.8758  156.2277 LP  0  0  0  0  0  0  0  0  0  0  0  0  # atno 17395 bound_to 11000

$$$$
