AV-unprocessed.smi:1279|AV-procd|sdf|5356|dock1
  -GOLD-   22720 4493D 1   1.00000     0.00000
 Structure written by MMmdl.
 46 47  0  0  0  0  0  0  0  0  2 V2000
  154.2792  140.8025  161.1011 C   0  0  0  0  0  0  0  0  0  0  0  0
  153.4132  141.6442  160.2111 C   0  0  0  0  0  0  0  0  0  0  0  0
  152.6488  141.2281  159.0824 C   0  0  0  0  0  0  0  0  0  0  0  0
  152.0683  142.3946  158.6654 C   0  0  0  0  0  0  0  0  0  0  0  0
  151.2203  142.6030  157.6233 N   0  0  0  0  0  0  0  0  0  0  0  0
  150.8696  141.7522  156.6431 C   0  0  0  0  0  0  0  0  0  0  0  0
  151.2735  140.5957  156.5197 O   0  0  0  0  0  0  0  0  0  0  0  0
  150.0119  142.3253  155.7865 N   0  0  0  0  0  0  0  0  0  0  0  0
  149.4423  141.6727  154.6131 C   0  0  0  0  0  0  0  0  0  0  0  0
  147.9958  141.2071  154.8708 C   0  0  0  0  0  0  0  0  0  0  0  0
  147.0516  142.3426  155.0250 N   0  3  2  0  0  0  0  0  0  0  0  0
  146.2364  142.2267  156.2620 C   0  0  0  0  0  0  0  0  0  0  0  0
  145.3574  143.4724  156.4745 C   0  0  0  0  0  0  0  0  0  0  0  0
  144.4566  143.7635  155.2610 C   0  0  2  0  0  0  0  0  0  0  0  0
  143.2789  142.7796  155.1445 C   0  0  0  0  0  0  0  0  0  0  0  0
  145.3196  143.8152  153.9872 C   0  0  0  0  0  0  0  0  0  0  0  0
  146.1987  142.5619  153.8264 C   0  0  0  0  0  0  0  0  0  0  0  0
  152.4699  143.4145  159.4993 N   0  0  0  0  0  0  0  0  0  0  0  0
  152.1221  144.8219  159.4677 C   0  0  0  0  0  0  0  0  0  0  0  0
  153.3022  142.9455  160.4540 N   0  0  0  0  0  0  0  0  0  0  0  0
  154.2742  139.7595  160.7839 H   0  0  0  0  0  0  0  0  0  0  0  0
  153.9309  140.8363  162.1337 H   0  0  0  0  0  0  0  0  0  0  0  0
  155.3128  141.1485  161.0845 H   0  0  0  0  0  0  0  0  0  0  0  0
  152.5553  140.2357  158.6682 H   0  0  0  0  0  0  0  0  0  0  0  0
  150.8130  143.5255  157.5806 H   0  0  0  0  0  0  0  0  0  0  0  0
  149.7289  143.2786  155.9618 H   0  0  0  0  0  0  0  0  0  0  0  0
  149.4798  142.3486  153.7568 H   0  0  0  0  0  0  0  0  0  0  0  0
  150.0868  140.8288  154.3707 H   0  0  0  0  0  0  0  0  0  0  0  0
  147.6526  140.5453  154.0738 H   0  0  0  0  0  0  0  0  0  0  0  0
  147.9857  140.6139  155.7862 H   0  0  0  0  0  0  0  0  0  0  0  0
  145.6221  141.3265  156.2139 H   0  0  0  0  0  0  0  0  0  0  0  0
  146.8942  142.1103  157.1245 H   0  0  0  0  0  0  0  0  0  0  0  0
  144.7531  143.3554  157.3748 H   0  0  0  0  0  0  0  0  0  0  0  0
  146.0026  144.3334  156.6549 H   0  0  0  0  0  0  0  0  0  0  0  0
  144.0193  144.7524  155.4040 H   0  0  0  0  0  0  0  0  0  0  0  0
  143.6118  141.7524  154.9990 H   0  0  0  0  0  0  0  0  0  0  0  0
  142.6351  143.0389  154.3036 H   0  0  0  0  0  0  0  0  0  0  0  0
  142.6630  142.8008  156.0441 H   0  0  0  0  0  0  0  0  0  0  0  0
  144.6878  143.9453  153.1078 H   0  0  0  0  0  0  0  0  0  0  0  0
  145.9639  144.6947  154.0281 H   0  0  0  0  0  0  0  0  0  0  0  0
  146.8186  142.6855  152.9393 H   0  0  0  0  0  0  0  0  0  0  0  0
  145.5786  141.6819  153.6512 H   0  0  0  0  0  0  0  0  0  0  0  0
  152.2814  145.2177  158.4644 H   0  0  0  0  0  0  0  0  0  0  0  0
  152.7381  145.3856  160.1699 H   0  0  0  0  0  0  0  0  0  0  0  0
  151.0730  144.9445  159.7379 H   0  0  0  0  0  0  0  0  0  0  0  0
  147.6175  143.1712  155.1409 H   0  0  0  0  0  0  0  0  0  0  0  0
  1  2  1  0  0  0  0
  1 21  1  0  0  0  0
  1 22  1  0  0  0  0
  1 23  1  0  0  0  0
  2 20  2  0  0  0  0
  2  3  1  0  0  0  0
  3  4  2  0  0  0  0
  3 24  1  0  0  0  0
  4  5  1  0  0  0  0
  4 18  1  0  0  0  0
  5  6  1  0  0  0  0
  5 25  1  0  0  0  0
  6  7  2  0  0  0  0
  6  8  1  0  0  0  0
  8  9  1  0  0  0  0
  8 26  1  0  0  0  0
  9 10  1  0  0  0  0
  9 27  1  0  0  0  0
  9 28  1  0  0  0  0
 10 11  1  0  0  0  0
 10 29  1  0  0  0  0
 10 30  1  0  0  0  0
 11 17  1  0  0  0  0
 11 12  1  0  0  0  0
 11 46  1  0  0  0  0
 12 13  1  0  0  0  0
 12 31  1  0  0  0  0
 12 32  1  0  0  0  0
 13 14  1  0  0  0  0
 13 33  1  0  0  0  0
 13 34  1  0  0  0  0
 14 15  1  0  0  0  0
 14 16  1  0  0  0  0
 14 35  1  0  0  0  0
 15 36  1  0  0  0  0
 15 37  1  0  0  0  0
 15 38  1  0  0  0  0
 16 17  1  0  0  0  0
 16 39  1  0  0  0  0
 16 40  1  0  0  0  0
 17 41  1  0  0  0  0
 17 42  1  0  0  0  0
 18 19  1  0  0  0  0
 18 20  1  0  0  0  0
 19 43  1  0  0  0  0
 19 44  1  0  0  0  0
 19 45  1  0  0  0  0
M  CHG  1  11   1
M  END
> <s_m_source_file>
AV-unprocessed.smi

> <i_m_source_file_index>
1279

> <i_lp_mmshare_version>
43012

> <i_f3d_flags>
0

> <s_epik_input>
W0NIM11jMVtjSF1jKG4objEpW0NIM10pW05IXUMoPU8pW05IXVtDSDJdW0NIMl1OMltDSDJdW0NIMl1bQ0hdKFtDSDNdKVtDSDJdW0NIMl0y

> <s_epik_cmdline>
J2VwaWtfcHl0aG9uJywgJy1waCcsICc3LjAnLCAnLXRuJywgJzgnLCAnLW1hJywgJzIwMCcsICctbWV0YWxfYmluZGluZycsICctaW1hZScsICc8aW5maWxlLm1hZT4nLCAnLW9tYWUnLCAnPG91dGZpbGUubWFlPic=

> <r_lp_tautomer_probability>
1

> <r_epik_Ionization_Penalty>
0.00166091

> <r_epik_Ionization_Penalty_Charging>
0.0015841

> <r_epik_Ionization_Penalty_Neutral>
7.68112e-05

> <r_epik_State_Penalty>
0.00106518

> <r_epik_Charging_Adjusted_Penalty>
0.00264928

> <i_epik_Tot_Q>
1

> <i_epik_Tot_abs_Q>
1

> <r_epik_Metal_State_Penalty>
-0

> <b_epik_Metal_Only>
0

> <s_lp_Force_Field>
OPLS_2005

> <r_lp_Energy>
19.8524

> <b_lp_Chiralities_Consistent>
1

> <s_lp_Variant>
AV-unprocessed.smi:1279-2

> <Gold.Version>
5.8.1

> <Gold.Id.Protein>
6NUR|6NUR_protein|mol2

> <Gold.PLP.Fitness>
49.0786

> <Gold.PLP.PLP>
-41.7062

> <Gold.PLP.part.hbond>
-2.0000

> <Gold.PLP.part.metal>
0.0000

> <Gold.PLP.part.buried>
-5.6742

> <Gold.PLP.part.nonpolar>
-34.6179

> <Gold.PLP.part.repulsive>
0.2541

> <Gold.PLP.ligand.clash>
0.0000

> <Gold.PLP.ligand.torsion>
0.8306

> <Gold.PLP.Chemscore.Hbond>
3.0000

> <Gold.PLP.Chemscore.CHOScore>
0.0000

> <Gold.PLP.Chemscore.Metal>
0.0000

> <Gold.Chemscore.Hbonds>
donor molecule, donor type, donor heavy atom, donor atom, acceptor molecule, acceptor atom, score
      L1  H     8    26       P1  8028  1.00
      L1  H    11    46       P1  8028  2.00

> <Gold.PLP.Chemscore.Internal.Correction>
0.0336

> <Gold.Rescore>
     Score         DG    S(hbond)    S(metal)    S(lipo)     H(rot)  DE(clash)    DE(int)     intcor
     14.27     -16.36       1.44        0.00      84.44       1.48       0.17       1.91       ----

> <Gold.Chemscore.Fitness>
14.2733

> <Gold.Chemscore.DG>
-16.3555

> <Gold.Chemscore.ZeroCoef>
-5.4800

> <Gold.Chemscore.Hbond>
1.4357

> <Gold.Chemscore.Metal>
0.0000

> <Gold.Chemscore.Lipo>
84.4351

> <Gold.Chemscore.Internal_Hbond>
0.0000

> <Gold.Chemscore.DEClash>
0.1675

> <Gold.Chemscore.DEInternal>
1.9147

> <Gold.Chemscore.Rot>
1.4838

> <Gold.Chemscore.Internal.Correction>
   9.000000E+99

> <Gold.Chemscore.Hbonds>
donor molecule, donor type, donor heavy atom, donor atom, acceptor molecule, acceptor atom, score
      L1  H     8    26       P1  8028  0.98
      L1  H    11    46       P1  8028  0.37

> <Gold.Chemscore.Hbond.Weighted>
-4.7951

> <Gold.Chemscore.Metal.Weighted>
-0.0000

> <Gold.Chemscore.Lipo.Weighted>
-9.8789

> <Gold.Chemscore.Internal_Hbond.Weighted>
0.0000

> <Gold.Chemscore.DEClash.Weighted>
0.1675

> <Gold.Chemscore.DEInternal.Weighted>
1.9147

> <Gold.Chemscore.Rot.Weighted>
3.7985

> <Gold.Chemscore.Internal.Correction.Weighted>
   9.000000E+99

> <Gold.Protein.RotatedTorsions>
[ 6907 6896 6895 6894 ] final   58.99 input  -60.11 | X-H torsion
[ 7974 7965 7964 7962 ] final  171.72 input  175.53 | X-H torsion
[ 8008 7997 7996 7995 ] final  -20.57 input   59.86 | X-H torsion
[ 10167 10162 10161 10158 ] final  110.54 input  -65.29 | X-H torsion
[ 10718 10713 10712 10709 ] final  -73.31 input   66.30 | X-H torsion
[ 10763 10752 10751 10750 ] final  -69.00 input  -60.55 | X-H torsion
[ 11005 11000 10999 10996 ] final   -9.95 input  -57.11 | X-H torsion

> <Gold.Protein.ActiveResidues>
 VAL166  LYS551  ARG553  GLY616  TRP617  ASP618  TYR619  PRO620  LYS621  CYS622 
 ASP623  PHE694  ASN695  SER759  ASP760  ASP761  ALA762  ILE779  LEU786  VAL792 
 PHE793  MET794  SER795  GLU796  ALA797  LYS798  CYS799  TRP800  GLU811  SER814 

> <Gold.Protein.RotatedAtoms>
  152.3874  134.6495  160.0120 H   0  0  0  0  0  0  0  0  0  0  0  0  # atno 6907 bound_to 6896
  151.6739  133.3308  159.3211 H   0  0  0  0  0  0  0  0  0  0  0  0  # atno 6908 bound_to 6896
  150.7797  134.6775  159.6470 H   0  0  0  0  0  0  0  0  0  0  0  0  # atno 6909 bound_to 6896
  144.7287  139.9391  143.6428 H   0  0  0  0  0  0  0  0  0  0  0  0  # atno 7974 bound_to 7965
  154.4761  140.2058  155.9875 H   0  0  0  0  0  0  0  0  0  0  0  0  # atno 8008 bound_to 7997
  156.1091  140.3232  155.8017 H   0  0  0  0  0  0  0  0  0  0  0  0  # atno 8009 bound_to 7997
  155.4666  140.0528  157.2975 H   0  0  0  0  0  0  0  0  0  0  0  0  # atno 8010 bound_to 7997
  139.6680  144.7126  151.1740 H   0  0  0  0  0  0  0  0  0  0  0  0  # atno 10167 bound_to 10162
  156.0285  130.4391  150.2723 H   0  0  0  0  0  0  0  0  0  0  0  0  # atno 10718 bound_to 10713
  154.3971  135.6039  153.5876 H   0  0  0  0  0  0  0  0  0  0  0  0  # atno 10763 bound_to 10752
  152.9788  135.5897  154.4229 H   0  0  0  0  0  0  0  0  0  0  0  0  # atno 10764 bound_to 10752
  154.4022  135.2843  155.2068 H   0  0  0  0  0  0  0  0  0  0  0  0  # atno 10765 bound_to 10752
  140.7395  133.8682  155.8956 H   0  0  0  0  0  0  0  0  0  0  0  0  # atno 11005 bound_to 11000
  146.0798  139.3786  143.0471 LP  0  0  0  0  0  0  0  0  0  0  0  0  # atno 17320 bound_to 7965
  145.7856  140.9837  143.1076 LP  0  0  0  0  0  0  0  0  0  0  0  0  # atno 17321 bound_to 7965
  140.7607  143.5889  150.8817 LP  0  0  0  0  0  0  0  0  0  0  0  0  # atno 17342 bound_to 10162
  139.9552  143.6227  152.3018 LP  0  0  0  0  0  0  0  0  0  0  0  0  # atno 17343 bound_to 10162
  157.0826  131.0147  151.3151 LP  0  0  0  0  0  0  0  0  0  0  0  0  # atno 17370 bound_to 10713
  157.4916  130.7825  149.7513 LP  0  0  0  0  0  0  0  0  0  0  0  0  # atno 17371 bound_to 10713
  140.9849  134.1356  157.4461 LP  0  0  0  0  0  0  0  0  0  0  0  0  # atno 17394 bound_to 11000
  139.8809  135.0022  156.6114 LP  0  0  0  0  0  0  0  0  0  0  0  0  # atno 17395 bound_to 11000

$$$$
