AV-unprocessed.smi:243|AV-procd|sdf|1860|dock6
  -GOLD-   2262020493D 1   1.00000     0.00000
 Structure written by MMmdl.
 58 61  0  0  0  0  0  0  0  0  2 V2000
  143.8449  145.7748  155.8291 C   0  0  0  0  0  0  0  0  0  0  0  0
  143.6212  145.0575  154.4897 C   0  0  0  0  0  0  0  0  0  0  0  0
  144.0968  143.6509  154.5098 N   0  3  2  0  0  0  0  0  0  0  0  0
  143.5688  142.8972  155.6741 C   0  0  0  0  0  0  0  0  0  0  0  0
  143.9225  141.4079  155.5660 C   0  0  0  0  0  0  0  0  0  0  0  0
  145.4477  141.2026  155.4334 C   0  0  1  0  0  0  0  0  0  0  0  0
  145.8313  139.7833  155.3833 N   0  0  0  0  0  0  0  0  0  0  0  0
  145.4560  138.9260  156.5010 C   0  0  0  0  0  0  0  0  0  0  0  0
  145.9430  139.1129  154.2084 C   0  0  0  0  0  0  0  0  0  0  0  0
  146.9032  139.4537  153.3102 N   0  0  0  0  0  0  0  0  0  0  0  0
  147.0044  138.7983  152.1500 C   0  0  0  0  0  0  0  0  0  0  0  0
  146.2609  137.7880  151.6952 N   0  0  0  0  0  0  0  0  0  0  0  0
  145.2919  137.4439  152.5911 C   0  0  0  0  0  0  0  0  0  0  0  0
  145.0663  138.0490  153.8594 C   0  0  0  0  0  0  0  0  0  0  0  0
  144.0065  137.4221  154.5025 N   0  0  0  0  0  0  0  0  0  0  0  0
  143.6262  136.4995  153.6618 C   0  0  0  0  0  0  0  0  0  0  0  0
  144.3335  136.4509  152.4812 N   0  0  0  0  0  0  0  0  0  0  0  0
  144.1254  135.5281  151.3749 C   0  0  0  0  0  0  0  0  0  0  0  0
  144.4528  134.0499  151.7086 C   0  0  2  0  0  0  0  0  0  0  0  0
  143.6514  133.6268  152.7963 O   0  0  0  0  0  0  0  0  0  0  0  0
  145.9242  133.7929  152.0423 C   0  0  0  0  0  0  0  0  0  0  0  0
  146.4848  133.2624  150.7312 C   0  0  0  0  0  0  0  0  0  0  0  0
  145.4304  132.4406  150.2643 O   0  0  0  0  0  0  0  0  0  0  0  0
  144.2071  133.1291  150.4954 C   0  0  0  0  0  0  0  0  0  0  0  0
  146.0205  142.0588  154.2714 C   0  0  2  0  0  0  0  0  0  0  0  0
  147.5564  141.9842  154.1954 C   0  0  0  0  0  0  0  0  0  0  0  0
  145.5753  143.5287  154.4195 C   0  0  0  0  0  0  0  0  0  0  0  0
  143.5815  146.8295  155.7472 H   0  0  0  0  0  0  0  0  0  0  0  0
  144.8898  145.7201  156.1362 H   0  0  0  0  0  0  0  0  0  0  0  0
  143.2355  145.3538  156.6283 H   0  0  0  0  0  0  0  0  0  0  0  0
  142.5696  145.0948  154.2019 H   0  0  0  0  0  0  0  0  0  0  0  0
  144.1698  145.6101  153.7257 H   0  0  0  0  0  0  0  0  0  0  0  0
  143.9706  143.3172  156.5977 H   0  0  0  0  0  0  0  0  0  0  0  0
  142.4841  143.0003  155.7239 H   0  0  0  0  0  0  0  0  0  0  0  0
  143.5466  140.8845  156.4458 H   0  0  0  0  0  0  0  0  0  0  0  0
  143.3936  140.9878  154.7117 H   0  0  0  0  0  0  0  0  0  0  0  0
  145.8963  141.5900  156.3495 H   0  0  0  0  0  0  0  0  0  0  0  0
  144.5499  138.3648  156.2685 H   0  0  0  0  0  0  0  0  0  0  0  0
  145.2662  139.5146  157.3987 H   0  0  0  0  0  0  0  0  0  0  0  0
  146.2492  138.2155  156.7333 H   0  0  0  0  0  0  0  0  0  0  0  0
  147.7919  139.1321  151.4907 H   0  0  0  0  0  0  0  0  0  0  0  0
  142.8105  135.8260  153.8810 H   0  0  0  0  0  0  0  0  0  0  0  0
  143.0868  135.6161  151.0529 H   0  0  0  0  0  0  0  0  0  0  0  0
  144.7326  135.8664  150.5342 H   0  0  0  0  0  0  0  0  0  0  0  0
  143.3788  132.7358  152.6392 H   0  0  0  0  0  0  0  0  0  0  0  0
  146.4664  134.6634  152.4067 H   0  0  0  0  0  0  0  0  0  0  0  0
  146.0184  133.0135  152.8005 H   0  0  0  0  0  0  0  0  0  0  0  0
  146.6669  134.0730  150.0238 H   0  0  0  0  0  0  0  0  0  0  0  0
  147.4092  132.6996  150.8625 H   0  0  0  0  0  0  0  0  0  0  0  0
  143.3959  132.4166  150.6509 H   0  0  0  0  0  0  0  0  0  0  0  0
  143.9644  133.7068  149.6024 H   0  0  0  0  0  0  0  0  0  0  0  0
  145.6220  141.6996  153.3226 H   0  0  0  0  0  0  0  0  0  0  0  0
  148.0158  142.3190  155.1261 H   0  0  0  0  0  0  0  0  0  0  0  0
  147.9408  142.6117  153.3910 H   0  0  0  0  0  0  0  0  0  0  0  0
  147.9035  140.9694  154.0019 H   0  0  0  0  0  0  0  0  0  0  0  0
  145.9438  144.0929  153.5636 H   0  0  0  0  0  0  0  0  0  0  0  0
  146.0294  143.9747  155.3059 H   0  0  0  0  0  0  0  0  0  0  0  0
  143.7115  143.2078  153.6876 H   0  0  0  0  0  0  0  0  0  0  0  0
  1  2  1  0  0  0  0
  1 28  1  0  0  0  0
  1 29  1  0  0  0  0
  1 30  1  0  0  0  0
  2  3  1  0  0  0  0
  2 31  1  0  0  0  0
  2 32  1  0  0  0  0
  3 27  1  0  0  0  0
  3  4  1  0  0  0  0
  3 58  1  0  0  0  0
  4  5  1  0  0  0  0
  4 33  1  0  0  0  0
  4 34  1  0  0  0  0
  5  6  1  0  0  0  0
  5 35  1  0  0  0  0
  5 36  1  0  0  0  0
  6  7  1  0  0  0  0
  6 25  1  0  0  0  0
  6 37  1  0  0  0  0
  7  8  1  0  0  0  0
  7  9  1  0  0  0  0
  8 38  1  0  0  0  0
  8 39  1  0  0  0  0
  8 40  1  0  0  0  0
  9 14  1  0  0  0  0
  9 10  2  0  0  0  0
 10 11  1  0  0  0  0
 11 12  2  0  0  0  0
 11 41  1  0  0  0  0
 12 13  1  0  0  0  0
 13 17  1  0  0  0  0
 13 14  2  0  0  0  0
 14 15  1  0  0  0  0
 15 16  2  0  0  0  0
 16 17  1  0  0  0  0
 16 42  1  0  0  0  0
 17 18  1  0  0  0  0
 18 19  1  0  0  0  0
 18 43  1  0  0  0  0
 18 44  1  0  0  0  0
 19 24  1  0  0  0  0
 19 20  1  0  0  0  0
 19 21  1  0  0  0  0
 20 45  1  0  0  0  0
 21 22  1  0  0  0  0
 21 46  1  0  0  0  0
 21 47  1  0  0  0  0
 22 23  1  0  0  0  0
 22 48  1  0  0  0  0
 22 49  1  0  0  0  0
 23 24  1  0  0  0  0
 24 50  1  0  0  0  0
 24 51  1  0  0  0  0
 25 26  1  0  0  0  0
 25 27  1  0  0  0  0
 25 52  1  0  0  0  0
 26 53  1  0  0  0  0
 26 54  1  0  0  0  0
 26 55  1  0  0  0  0
 27 56  1  0  0  0  0
 27 57  1  0  0  0  0
M  CHG  1   3   1
M  END
> <s_m_source_file>
AV-unprocessed.smi

> <i_m_source_file_index>
243

> <i_lp_mmshare_version>
43012

> <i_f3d_flags>
0

> <s_epik_input>
W0NIM11bQ0gyXU4xW0NIMl1bQ0gyXVtDQEhdKFtDQEBIXShbQ0gzXSlbQ0gyXTEpTihbQ0gzXSljKG5bY0hdbjIpYyhjMjMpbltjSF1uM1tDSDJdW0NAQF00KFtPSF0pW0NIMl1bQ0gyXU9bQ0gyXTQ=

> <s_epik_cmdline>
J2VwaWtfcHl0aG9uJywgJy1waCcsICc3LjAnLCAnLXRuJywgJzgnLCAnLW1hJywgJzIwMCcsICctbWV0YWxfYmluZGluZycsICctaW1hZScsICc8aW5maWxlLm1hZT4nLCAnLW9tYWUnLCAnPG91dGZpbGUubWFlPic=

> <r_lp_tautomer_probability>
1

> <r_epik_Ionization_Penalty>
0.00253099

> <r_epik_Ionization_Penalty_Charging>
0.00137877

> <r_epik_Ionization_Penalty_Neutral>
0.00115221

> <r_epik_State_Penalty>
-0

> <r_epik_Charging_Adjusted_Penalty>
0.00137877

> <i_epik_Tot_Q>
1

> <i_epik_Tot_abs_Q>
1

> <r_epik_Metal_State_Penalty>
-0

> <b_epik_Metal_Only>
0

> <s_lp_Force_Field>
OPLS_2005

> <r_lp_Energy>
45.5006

> <b_lp_Chiralities_Consistent>
1

> <s_lp_Variant>
AV-unprocessed.smi:243-13

> <Gold.Version>
5.8.1

> <Gold.Id.Protein>
6NUR|6NUR_protein|mol2

> <Gold.PLP.Fitness>
43.6053

> <Gold.PLP.PLP>
-36.2934

> <Gold.PLP.part.hbond>
-1.9878

> <Gold.PLP.part.metal>
0.0000

> <Gold.PLP.part.buried>
-4.6247

> <Gold.PLP.part.nonpolar>
-32.1108

> <Gold.PLP.part.repulsive>
1.0492

> <Gold.PLP.ligand.clash>
0.0000

> <Gold.PLP.ligand.torsion>
1.4106

> <Gold.PLP.Chemscore.Hbond>
2.0243

> <Gold.PLP.Chemscore.CHOScore>
1.0000

> <Gold.PLP.Chemscore.Metal>
0.0000

> <Gold.Chemscore.Hbonds>
donor molecule, donor type, donor heavy atom, donor atom, acceptor molecule, acceptor atom, score
      L1  H     3    58       P1 10174  2.00
      L1  C    11    41       P1  7957  0.96

> <Gold.PLP.Chemscore.Internal.Correction>
1.0601

> <Gold.Rescore>
     Score         DG    S(hbond)    S(metal)    S(lipo)     H(rot)  DE(clash)    DE(int)     intcor
      4.90      -9.37       0.74        0.00      60.98       2.24       0.20       4.27       ----

> <Gold.Chemscore.Fitness>
4.9013

> <Gold.Chemscore.DG>
-9.3702

> <Gold.Chemscore.ZeroCoef>
-5.4800

> <Gold.Chemscore.Hbond>
0.7439

> <Gold.Chemscore.Metal>
0.0000

> <Gold.Chemscore.Lipo>
60.9800

> <Gold.Chemscore.Internal_Hbond>
0.0000

> <Gold.Chemscore.DEClash>
0.1950

> <Gold.Chemscore.DEInternal>
4.2739

> <Gold.Chemscore.Rot>
2.2379

> <Gold.Chemscore.Internal.Correction>
   9.000000E+99

> <Gold.Chemscore.Hbonds>
donor molecule, donor type, donor heavy atom, donor atom, acceptor molecule, acceptor atom, score
      L1  H     3    58       P1 10174  0.38

> <Gold.Chemscore.Hbond.Weighted>
-2.4846

> <Gold.Chemscore.Metal.Weighted>
-0.0000

> <Gold.Chemscore.Lipo.Weighted>
-7.1347

> <Gold.Chemscore.Internal_Hbond.Weighted>
0.0000

> <Gold.Chemscore.DEClash.Weighted>
0.1950

> <Gold.Chemscore.DEInternal.Weighted>
4.2739

> <Gold.Chemscore.Rot.Weighted>
5.7291

> <Gold.Chemscore.Internal.Correction.Weighted>
   9.000000E+99

> <Gold.Protein.RotatedTorsions>
[ 6907 6896 6895 6894 ] final  113.33 input  -60.11 | X-H torsion
[ 7974 7965 7964 7962 ] final   93.70 input  175.53 | X-H torsion
[ 8008 7997 7996 7995 ] final  -39.25 input   59.86 | X-H torsion
[ 10167 10162 10161 10158 ] final   10.34 input  -65.29 | X-H torsion
[ 10718 10713 10712 10709 ] final  -12.36 input   66.30 | X-H torsion
[ 10763 10752 10751 10750 ] final  141.87 input  -60.55 | X-H torsion
[ 11005 11000 10999 10996 ] final  150.42 input  -57.11 | X-H torsion

> <Gold.Protein.ActiveResidues>
 VAL166  LYS551  ARG553  GLY616  TRP617  ASP618  TYR619  PRO620  LYS621  CYS622 
 ASP623  PHE694  ASN695  SER759  ASP760  ASP761  ALA762  ILE779  LEU786  VAL792 
 PHE793  MET794  SER795  GLU796  ALA797  LYS798  CYS799  TRP800  GLU811  SER814 

> <Gold.Protein.RotatedAtoms>
  152.4867  133.8391  159.7142 H   0  0  0  0  0  0  0  0  0  0  0  0  # atno 6907 bound_to 6896
  150.8959  133.7172  159.2898 H   0  0  0  0  0  0  0  0  0  0  0  0  # atno 6908 bound_to 6896
  151.4629  135.1043  159.9782 H   0  0  0  0  0  0  0  0  0  0  0  0  # atno 6909 bound_to 6896
  145.4754  139.2280  143.2912 H   0  0  0  0  0  0  0  0  0  0  0  0  # atno 7974 bound_to 7965
  154.4025  140.1556  156.2833 H   0  0  0  0  0  0  0  0  0  0  0  0  # atno 8008 bound_to 7997
  155.8850  140.3442  155.5893 H   0  0  0  0  0  0  0  0  0  0  0  0  # atno 8009 bound_to 7997
  155.7624  140.0819  157.2139 H   0  0  0  0  0  0  0  0  0  0  0  0  # atno 8010 bound_to 7997
  140.6200  143.8225  150.7164 H   0  0  0  0  0  0  0  0  0  0  0  0  # atno 10167 bound_to 10162
  156.6457  130.4940  149.6079 H   0  0  0  0  0  0  0  0  0  0  0  0  # atno 10718 bound_to 10713
  153.9463  135.2974  155.3440 H   0  0  0  0  0  0  0  0  0  0  0  0  # atno 10763 bound_to 10752
  154.7450  135.5007  153.9191 H   0  0  0  0  0  0  0  0  0  0  0  0  # atno 10764 bound_to 10752
  153.1016  135.6736  153.9769 H   0  0  0  0  0  0  0  0  0  0  0  0  # atno 10765 bound_to 10752
  140.1130  134.8912  157.1964 H   0  0  0  0  0  0  0  0  0  0  0  0  # atno 11005 bound_to 11000
  146.2372  140.5536  142.8950 LP  0  0  0  0  0  0  0  0  0  0  0  0  # atno 17320 bound_to 7965
  144.7920  140.6050  143.6535 LP  0  0  0  0  0  0  0  0  0  0  0  0  # atno 17321 bound_to 7965
  140.1813  143.4113  152.1931 LP  0  0  0  0  0  0  0  0  0  0  0  0  # atno 17342 bound_to 10162
  139.5431  144.7274  151.4671 LP  0  0  0  0  0  0  0  0  0  0  0  0  # atno 17343 bound_to 10162
  156.2124  130.6687  151.1283 LP  0  0  0  0  0  0  0  0  0  0  0  0  # atno 17370 bound_to 10713
  157.7157  131.0711  150.6336 LP  0  0  0  0  0  0  0  0  0  0  0  0  # atno 17371 bound_to 10713
  140.3066  134.3072  155.7277 LP  0  0  0  0  0  0  0  0  0  0  0  0  # atno 17394 bound_to 11000
  141.2134  133.7624  156.9716 LP  0  0  0  0  0  0  0  0  0  0  0  0  # atno 17395 bound_to 11000

$$$$
