AV-unprocessed.smi:864|AV-procd|sdf|3988|dock4
  -GOLD-   22720 1463D 1   1.00000     0.00000
 Structure written by MMmdl.
 45 47  0  0  0  0  0  0  0  0  2 V2000
  151.5766  143.2602  158.1708 C   0  0  0  0  0  0  0  0  0  0  0  0
  151.1527  142.1580  157.2233 C   0  0  0  0  0  0  0  0  0  0  0  0
  151.7110  140.8622  157.2737 C   0  0  0  0  0  0  0  0  0  0  0  0
  151.2681  139.8850  156.3581 C   0  0  0  0  0  0  0  0  0  0  0  0
  150.2770  140.2227  155.4110 C   0  0  0  0  0  0  0  0  0  0  0  0
  149.7866  139.1952  154.4047 C   0  0  0  0  0  0  0  0  0  0  0  0
  148.2562  139.2016  154.2023 C   0  0  0  0  0  0  0  0  0  0  0  0
  147.7809  138.1426  153.3154 N   0  0  0  0  0  0  0  0  0  0  0  0
  146.4946  137.8803  153.0460 C   0  0  0  0  0  0  0  0  0  0  0  0
  145.5477  138.4982  153.5325 O   0  0  0  0  0  0  0  0  0  0  0  0
  146.3648  136.8888  152.1545 N   0  0  0  0  0  0  0  0  0  0  0  0
  145.0935  136.4376  151.5960 C   0  0  2  0  0  0  0  0  0  0  0  0
  144.0189  136.2774  152.6792 C   0  0  0  0  0  0  0  0  0  0  0  0
  143.4439  134.8958  152.4164 C   0  0  0  0  0  0  0  0  0  0  0  0
  142.5071  134.4354  153.0675 O   0  0  0  0  0  0  0  0  0  0  0  0
  144.0890  134.2763  151.4205 N   0  0  0  0  0  0  0  0  0  0  0  0
  143.8718  132.9123  151.0314 C   0  0  0  0  0  0  0  0  0  0  0  0
  144.9356  131.8508  151.2417 C   0  0  0  0  0  0  0  0  0  0  0  0
  144.6576  132.3770  149.8559 C   0  0  0  0  0  0  0  0  0  0  0  0
  145.2243  135.0497  150.9384 C   0  0  0  0  0  0  0  0  0  0  0  0
  149.7525  141.5340  155.4102 C   0  0  0  0  0  0  0  0  0  0  0  0
  150.2046  142.4417  156.3022 N   0  3  0  0  0  0  0  0  0  0  0  0
  152.3299  142.9056  158.8750 H   0  0  0  0  0  0  0  0  0  0  0  0
  150.7206  143.6209  158.7417 H   0  0  0  0  0  0  0  0  0  0  0  0
  151.9978  144.0981  157.6145 H   0  0  0  0  0  0  0  0  0  0  0  0
  152.4694  140.6170  158.0029 H   0  0  0  0  0  0  0  0  0  0  0  0
  151.6872  138.8894  156.3820 H   0  0  0  0  0  0  0  0  0  0  0  0
  150.2820  139.3715  153.4492 H   0  0  0  0  0  0  0  0  0  0  0  0
  150.1120  138.2055  154.7278 H   0  0  0  0  0  0  0  0  0  0  0  0
  147.7665  139.0549  155.1652 H   0  0  0  0  0  0  0  0  0  0  0  0
  147.9251  140.1737  153.8338 H   0  0  0  0  0  0  0  0  0  0  0  0
  148.4854  137.5762  152.8661 H   0  0  0  0  0  0  0  0  0  0  0  0
  147.2008  136.4361  151.8147 H   0  0  0  0  0  0  0  0  0  0  0  0
  144.7389  137.1604  150.8583 H   0  0  0  0  0  0  0  0  0  0  0  0
  144.4350  136.3063  153.6871 H   0  0  0  0  0  0  0  0  0  0  0  0
  143.2453  137.0420  152.6029 H   0  0  0  0  0  0  0  0  0  0  0  0
  142.8466  132.5551  151.1202 H   0  0  0  0  0  0  0  0  0  0  0  0
  145.8868  132.1234  151.6929 H   0  0  0  0  0  0  0  0  0  0  0  0
  144.5944  130.8426  151.4680 H   0  0  0  0  0  0  0  0  0  0  0  0
  144.1371  131.7196  149.1624 H   0  0  0  0  0  0  0  0  0  0  0  0
  145.4076  133.0262  149.4076 H   0  0  0  0  0  0  0  0  0  0  0  0
  145.2114  135.1354  149.8513 H   0  0  0  0  0  0  0  0  0  0  0  0
  146.1472  134.5441  151.2288 H   0  0  0  0  0  0  0  0  0  0  0  0
  148.9964  141.8844  154.7223 H   0  0  0  0  0  0  0  0  0  0  0  0
  149.8124  143.3834  156.2803 H   0  0  0  0  0  0  0  0  0  0  0  0
  1  2  1  0  0  0  0
  1 23  1  0  0  0  0
  1 24  1  0  0  0  0
  1 25  1  0  0  0  0
  2 22  1  0  0  0  0
  2  3  2  0  0  0  0
  3  4  1  0  0  0  0
  3 26  1  0  0  0  0
  4  5  2  0  0  0  0
  4 27  1  0  0  0  0
  5  6  1  0  0  0  0
  5 21  1  0  0  0  0
  6  7  1  0  0  0  0
  6 28  1  0  0  0  0
  6 29  1  0  0  0  0
  7  8  1  0  0  0  0
  7 30  1  0  0  0  0
  7 31  1  0  0  0  0
  8  9  1  0  0  0  0
  8 32  1  0  0  0  0
  9 10  2  0  0  0  0
  9 11  1  0  0  0  0
 11 12  1  0  0  0  0
 11 33  1  0  0  0  0
 12 20  1  0  0  0  0
 12 13  1  0  0  0  0
 12 34  1  0  0  0  0
 13 14  1  0  0  0  0
 13 35  1  0  0  0  0
 13 36  1  0  0  0  0
 14 15  2  0  0  0  0
 14 16  1  0  0  0  0
 16 17  1  0  0  0  0
 16 20  1  0  0  0  0
 17 19  1  0  0  0  0
 17 18  1  0  0  0  0
 17 37  1  0  0  0  0
 18 19  1  0  0  0  0
 18 38  1  0  0  0  0
 18 39  1  0  0  0  0
 19 40  1  0  0  0  0
 19 41  1  0  0  0  0
 20 42  1  0  0  0  0
 20 43  1  0  0  0  0
 21 22  2  0  0  0  0
 21 44  1  0  0  0  0
 22 45  1  0  0  0  0
M  CHG  1  22   1
M  END
> <s_m_source_file>
AV-unprocessed.smi

> <i_m_source_file_index>
864

> <i_lp_mmshare_version>
43012

> <i_f3d_flags>
0

> <s_epik_input>
W0NIM11jMVtjSF1bY0hdYyhbY0hdbjEpW0NIMl1bQ0gyXVtOSF1DKD1PKVtOSF1bQ0BASF0yW0NIMl1DKD1PKU4oW0NIMl0yKVtDSF0zW0NIMl1bQ0gyXTM=

> <s_epik_cmdline>
J2VwaWtfcHl0aG9uJywgJy1waCcsICc3LjAnLCAnLXRuJywgJzgnLCAnLW1hJywgJzIwMCcsICctbWV0YWxfYmluZGluZycsICctaW1hZScsICc8aW5maWxlLm1hZT4nLCAnLW9tYWUnLCAnPG91dGZpbGUubWFlPic=

> <r_epik_Ionization_Penalty>
1.42657

> <r_epik_Ionization_Penalty_Charging>
1.42653

> <r_epik_Ionization_Penalty_Neutral>
4.57062e-05

> <r_epik_State_Penalty>
1.51075

> <r_epik_Charging_Adjusted_Penalty>
2.93728

> <i_epik_Tot_Q>
1

> <i_epik_Tot_abs_Q>
1

> <r_epik_Metal_State_Penalty>
1.56242

> <b_epik_Metal_Only>
0

> <s_lp_Force_Field>
OPLS_2005

> <r_lp_Energy>
41.1174

> <b_lp_Chiralities_Consistent>
1

> <s_lp_Variant>
AV-unprocessed.smi:864-3

> <Gold.Version>
5.8.1

> <Gold.Id.Protein>
6NUR|6NUR_protein|mol2

> <Gold.PLP.Fitness>
52.6676

> <Gold.PLP.PLP>
-41.5801

> <Gold.PLP.part.hbond>
-3.1858

> <Gold.PLP.part.metal>
0.0000

> <Gold.PLP.part.buried>
-4.9235

> <Gold.PLP.part.nonpolar>
-35.9192

> <Gold.PLP.part.repulsive>
2.2272

> <Gold.PLP.ligand.clash>
0.0000

> <Gold.PLP.ligand.torsion>
0.5720

> <Gold.PLP.Chemscore.Hbond>
3.9920

> <Gold.PLP.Chemscore.CHOScore>
0.0000

> <Gold.PLP.Chemscore.Metal>
0.0000

> <Gold.Chemscore.Hbonds>
donor molecule, donor type, donor heavy atom, donor atom, acceptor molecule, acceptor atom, score
      L1  H     8    32       P1  7948  1.00
      L1  H    11    33       P1  7948  1.00
      L1  H    22    45       P1  8028  2.00

> <Gold.PLP.Chemscore.Internal.Correction>
0.2554

> <Gold.Rescore>
     Score         DG    S(hbond)    S(metal)    S(lipo)     H(rot)  DE(clash)    DE(int)     intcor
     19.10     -21.41       2.84        0.00      95.31       1.84       0.22       2.10       ----

> <Gold.Chemscore.Fitness>
19.0978

> <Gold.Chemscore.DG>
-21.4145

> <Gold.Chemscore.ZeroCoef>
-5.4800

> <Gold.Chemscore.Hbond>
2.8410

> <Gold.Chemscore.Metal>
0.0000

> <Gold.Chemscore.Lipo>
95.3084

> <Gold.Chemscore.Internal_Hbond>
0.0000

> <Gold.Chemscore.DEClash>
0.2157

> <Gold.Chemscore.DEInternal>
2.1010

> <Gold.Chemscore.Rot>
1.8381

> <Gold.Chemscore.Internal.Correction>
   9.000000E+99

> <Gold.Chemscore.Hbonds>
donor molecule, donor type, donor heavy atom, donor atom, acceptor molecule, acceptor atom, score
      L1  H     8    32       P1  7948  0.96
      L1  H    11    33       P1  7948  0.95
      L1  H    22    45       P1  8028  0.99

> <Gold.Chemscore.Hbond.Weighted>
-9.4889

> <Gold.Chemscore.Metal.Weighted>
-0.0000

> <Gold.Chemscore.Lipo.Weighted>
-11.1511

> <Gold.Chemscore.Internal_Hbond.Weighted>
0.0000

> <Gold.Chemscore.DEClash.Weighted>
0.2157

> <Gold.Chemscore.DEInternal.Weighted>
2.1010

> <Gold.Chemscore.Rot.Weighted>
4.7054

> <Gold.Chemscore.Internal.Correction.Weighted>
   9.000000E+99

> <Gold.Protein.RotatedTorsions>
[ 6907 6896 6895 6894 ] final  -21.10 input  -60.11 | X-H torsion
[ 7974 7965 7964 7962 ] final  -31.11 input  175.53 | X-H torsion
[ 8008 7997 7996 7995 ] final  163.23 input   59.86 | X-H torsion
[ 10167 10162 10161 10158 ] final   87.79 input  -65.29 | X-H torsion
[ 10718 10713 10712 10709 ] final -138.91 input   66.30 | X-H torsion
[ 10763 10752 10751 10750 ] final -176.65 input  -60.55 | X-H torsion
[ 11005 11000 10999 10996 ] final -130.19 input  -57.11 | X-H torsion

> <Gold.Protein.ActiveResidues>
 VAL166  LYS551  ARG553  GLY616  TRP617  ASP618  TYR619  PRO620  LYS621  CYS622 
 ASP623  PHE694  ASN695  SER759  ASP760  ASP761  ALA762  ILE779  LEU786  VAL792 
 PHE793  MET794  SER795  GLU796  ALA797  LYS798  CYS799  TRP800  GLU811  SER814 

> <Gold.Protein.RotatedAtoms>
  151.2383  135.0579  159.9014 H   0  0  0  0  0  0  0  0  0  0  0  0  # atno 6907 bound_to 6896
  152.5396  134.0462  159.8100 H   0  0  0  0  0  0  0  0  0  0  0  0  # atno 6908 bound_to 6896
  151.0652  133.5462  159.2662 H   0  0  0  0  0  0  0  0  0  0  0  0  # atno 6909 bound_to 6896
  146.1092  140.5625  142.8785 H   0  0  0  0  0  0  0  0  0  0  0  0  # atno 7974 bound_to 7965
  156.1973  140.1729  156.7973 H   0  0  0  0  0  0  0  0  0  0  0  0  # atno 8008 bound_to 7997
  154.5545  140.0711  156.8753 H   0  0  0  0  0  0  0  0  0  0  0  0  # atno 8009 bound_to 7997
  155.2964  140.3358  155.4252 H   0  0  0  0  0  0  0  0  0  0  0  0  # atno 8010 bound_to 7997
  139.8738  144.6478  150.8919 H   0  0  0  0  0  0  0  0  0  0  0  0  # atno 10167 bound_to 10162
  156.3047  130.7448  151.1509 H   0  0  0  0  0  0  0  0  0  0  0  0  # atno 10718 bound_to 10713
  154.5698  135.2827  155.0838 H   0  0  0  0  0  0  0  0  0  0  0  0  # atno 10763 bound_to 10752
  154.2215  135.6390  153.5150 H   0  0  0  0  0  0  0  0  0  0  0  0  # atno 10764 bound_to 10752
  153.0054  135.5515  154.6318 H   0  0  0  0  0  0  0  0  0  0  0  0  # atno 10765 bound_to 10752
  140.9367  134.1248  157.4187 H   0  0  0  0  0  0  0  0  0  0  0  0  # atno 11005 bound_to 11000
  144.7497  140.5159  143.6810 LP  0  0  0  0  0  0  0  0  0  0  0  0  # atno 17320 bound_to 7965
  145.5698  139.1483  143.3295 LP  0  0  0  0  0  0  0  0  0  0  0  0  # atno 17321 bound_to 7965
  140.7756  143.3642  151.1771 LP  0  0  0  0  0  0  0  0  0  0  0  0  # atno 17342 bound_to 10162
  139.7259  143.9149  152.3002 LP  0  0  0  0  0  0  0  0  0  0  0  0  # atno 17343 bound_to 10162
  157.7376  131.0549  150.5342 LP  0  0  0  0  0  0  0  0  0  0  0  0  # atno 17370 bound_to 10713
  156.5474  130.4223  149.6124 LP  0  0  0  0  0  0  0  0  0  0  0  0  # atno 17371 bound_to 10713
  139.8809  135.0023  156.6118 LP  0  0  0  0  0  0  0  0  0  0  0  0  # atno 17394 bound_to 11000
  140.7790  133.8675  155.8552 LP  0  0  0  0  0  0  0  0  0  0  0  0  # atno 17395 bound_to 11000

$$$$
