AV-unprocessed.smi:670|AV-procd|sdf|3265|dock4
  -GOLD-   22720 0213D 1   1.00000     0.00000
 Structure written by MMmdl.
 44 45  0  0  0  0  0  0  0  0  2 V2000
  152.6074  140.5296  157.9793 C   0  0  0  0  0  0  0  0  0  0  0  0
  151.9532  141.7549  158.6385 C   0  0  2  0  0  0  0  0  0  0  0  0
  150.7678  142.2597  157.7912 C   0  0  0  0  0  0  0  0  0  0  0  0
  150.0961  143.4873  158.4245 C   0  0  0  0  0  0  0  0  0  0  0  0
  151.1127  144.6140  158.6544 C   0  0  0  0  0  0  0  0  0  0  0  0
  152.2934  144.1252  159.5059 C   0  0  0  0  0  0  0  0  0  0  0  0
  152.9749  142.8894  158.8800 C   0  0  1  0  0  0  0  0  0  0  0  0
  153.9691  142.3986  159.7705 O   0  0  0  0  0  0  0  0  0  0  0  0
  153.4802  142.0133  161.0471 C   0  0  0  0  0  0  0  0  0  0  0  0
  154.1386  140.6900  161.4506 C   0  0  0  0  0  0  0  0  0  0  0  0
  154.9191  140.8601  162.6680 N   0  0  0  0  0  0  0  0  0  0  0  0
  155.5597  139.8715  163.3070 C   0  0  0  0  0  0  0  0  0  0  0  0
  155.5498  138.7031  162.9158 O   0  0  0  0  0  0  0  0  0  0  0  0
  156.3092  140.2834  164.5843 C   0  0  0  0  0  0  0  0  0  0  0  0
  155.4682  140.9449  165.5931 N   0  0  0  0  0  0  0  0  0  0  0  0
  155.1442  142.3321  165.2723 N   0  5  0  0  0  0  0  0  0  0  0  0
  154.3678  143.0465  166.1296 C   0  0  0  0  0  0  0  0  0  0  0  0
  154.0462  144.2144  165.9219 O   0  0  0  0  0  0  0  0  0  0  0  0
  153.9075  142.3919  167.3431 C   0  0  0  0  0  0  0  0  0  0  0  0
  154.2386  141.1160  167.6235 C   0  0  0  0  0  0  0  0  0  0  0  0
  155.0698  140.3134  166.7345 C   0  0  0  0  0  0  0  0  0  0  0  0
  155.3885  139.1521  166.9914 O   0  0  0  0  0  0  0  0  0  0  0  0
  153.0254  140.7803  157.0037 H   0  0  0  0  0  0  0  0  0  0  0  0
  151.8818  139.7288  157.8346 H   0  0  0  0  0  0  0  0  0  0  0  0
  153.4141  140.1302  158.5943 H   0  0  0  0  0  0  0  0  0  0  0  0
  151.5616  141.4401  159.6071 H   0  0  0  0  0  0  0  0  0  0  0  0
  151.1140  142.5143  156.7884 H   0  0  0  0  0  0  0  0  0  0  0  0
  150.0309  141.4650  157.6696 H   0  0  0  0  0  0  0  0  0  0  0  0
  149.2876  143.8409  157.7840 H   0  0  0  0  0  0  0  0  0  0  0  0
  149.6389  143.2056  159.3738 H   0  0  0  0  0  0  0  0  0  0  0  0
  151.4797  144.9795  157.6944 H   0  0  0  0  0  0  0  0  0  0  0  0
  150.6265  145.4590  159.1427 H   0  0  0  0  0  0  0  0  0  0  0  0
  153.0082  144.9387  159.6274 H   0  0  0  0  0  0  0  0  0  0  0  0
  151.9383  143.8769  160.5069 H   0  0  0  0  0  0  0  0  0  0  0  0
  153.4239  143.1610  157.9223 H   0  0  0  0  0  0  0  0  0  0  0  0
  153.7270  142.7840  161.7786 H   0  0  0  0  0  0  0  0  0  0  0  0
  152.3954  141.9045  161.0418 H   0  0  0  0  0  0  0  0  0  0  0  0
  153.3799  139.9206  161.6007 H   0  0  0  0  0  0  0  0  0  0  0  0
  154.7944  140.3461  160.6493 H   0  0  0  0  0  0  0  0  0  0  0  0
  154.9648  141.7900  163.0586 H   0  0  0  0  0  0  0  0  0  0  0  0
  156.7736  139.3995  165.0248 H   0  0  0  0  0  0  0  0  0  0  0  0
  157.1367  140.9330  164.2935 H   0  0  0  0  0  0  0  0  0  0  0  0
  153.2881  142.9420  168.0362 H   0  0  0  0  0  0  0  0  0  0  0  0
  153.8759  140.6704  168.5378 H   0  0  0  0  0  0  0  0  0  0  0  0
  1  2  1  0  0  0  0
  1 23  1  0  0  0  0
  1 24  1  0  0  0  0
  1 25  1  0  0  0  0
  2  7  1  0  0  0  0
  2  3  1  0  0  0  0
  2 26  1  0  0  0  0
  3  4  1  0  0  0  0
  3 27  1  0  0  0  0
  3 28  1  0  0  0  0
  4  5  1  0  0  0  0
  4 29  1  0  0  0  0
  4 30  1  0  0  0  0
  5  6  1  0  0  0  0
  5 31  1  0  0  0  0
  5 32  1  0  0  0  0
  6  7  1  0  0  0  0
  6 33  1  0  0  0  0
  6 34  1  0  0  0  0
  7  8  1  0  0  0  0
  7 35  1  0  0  0  0
  8  9  1  0  0  0  0
  9 10  1  0  0  0  0
  9 36  1  0  0  0  0
  9 37  1  0  0  0  0
 10 11  1  0  0  0  0
 10 38  1  0  0  0  0
 10 39  1  0  0  0  0
 11 12  1  0  0  0  0
 11 40  1  0  0  0  0
 12 13  2  0  0  0  0
 12 14  1  0  0  0  0
 14 41  1  0  0  0  0
 14 42  1  0  0  0  0
 14 15  1  0  0  0  0
 15 16  1  0  0  0  0
 15 21  1  0  0  0  0
 16 17  1  0  0  0  0
 17 18  2  0  0  0  0
 17 19  1  0  0  0  0
 19 43  1  0  0  0  0
 19 20  2  0  0  0  0
 20 44  1  0  0  0  0
 20 21  1  0  0  0  0
 21 22  2  0  0  0  0
M  CHG  1  16  -1
M  END
> <s_m_source_file>
AV-unprocessed.smi

> <i_m_source_file_index>
670

> <i_lp_mmshare_version>
43012

> <i_f3d_flags>
0

> <s_epik_input>
W0NIM11bQ0BASF0xW0NIMl1bQ0gyXVtDSDJdW0NIMl1bQ0BIXTFPW0NIMl1bQ0gyXVtOSF1DKD1PKVtDSDJdbjJbbkhdYyg9TylbY0hdW2NIXWMyPU8=

> <s_epik_cmdline>
J2VwaWtfcHl0aG9uJywgJy1waCcsICc3LjAnLCAnLXRuJywgJzgnLCAnLW1hJywgJzIwMCcsICctbWV0YWxfYmluZGluZycsICctaW1hZScsICc8aW5maWxlLm1hZT4nLCAnLW9tYWUnLCAnPG91dGZpbGUubWFlPic=

> <r_lp_tautomer_probability>
1

> <r_epik_Ionization_Penalty>
0.0975638

> <r_epik_Ionization_Penalty_Charging>
0.0975637

> <r_epik_Ionization_Penalty_Neutral>
2.78599e-08

> <r_epik_State_Penalty>
0.0343507

> <r_epik_Charging_Adjusted_Penalty>
0.131914

> <i_epik_Tot_Q>
-1

> <i_epik_Tot_abs_Q>
1

> <r_epik_Metal_State_Penalty>
0.0343507

> <b_epik_Metal_Only>
0

> <s_lp_Force_Field>
OPLS_2005

> <r_lp_Energy>
26.6339

> <b_lp_Chiralities_Consistent>
1

> <s_lp_Variant>
AV-unprocessed.smi:670-1

> <Gold.Version>
5.8.1

> <Gold.Id.Protein>
6NUR|6NUR_protein|mol2

> <Gold.PLP.Fitness>
45.7338

> <Gold.PLP.PLP>
-47.4597

> <Gold.PLP.part.hbond>
-3.4745

> <Gold.PLP.part.metal>
0.0000

> <Gold.PLP.part.buried>
-8.7630

> <Gold.PLP.part.nonpolar>
-35.3084

> <Gold.PLP.part.repulsive>
0.1819

> <Gold.PLP.ligand.clash>
0.0000

> <Gold.PLP.ligand.torsion>
0.8890

> <Gold.PLP.Chemscore.Hbond>
0.0000

> <Gold.PLP.Chemscore.CHOScore>
0.0000

> <Gold.PLP.Chemscore.Metal>
0.0000

> <Gold.PLP.Chemscore.Internal.Correction>
0.0521

> <Gold.Rescore>
     Score         DG    S(hbond)    S(metal)    S(lipo)     H(rot)  DE(clash)    DE(int)     intcor
      9.89     -11.45       0.00        0.00     104.65       2.45       0.52       1.05       ----

> <Gold.Chemscore.Fitness>
9.8868

> <Gold.Chemscore.DG>
-11.4544

> <Gold.Chemscore.ZeroCoef>
-5.4800

> <Gold.Chemscore.Hbond>
0.0000

> <Gold.Chemscore.Metal>
0.0000

> <Gold.Chemscore.Lipo>
104.6481

> <Gold.Chemscore.Internal_Hbond>
0.0000

> <Gold.Chemscore.DEClash>
0.5184

> <Gold.Chemscore.DEInternal>
1.0492

> <Gold.Chemscore.Rot>
2.4490

> <Gold.Chemscore.Internal.Correction>
   9.000000E+99

> <Gold.Chemscore.Hbond.Weighted>
-0.0000

> <Gold.Chemscore.Metal.Weighted>
-0.0000

> <Gold.Chemscore.Lipo.Weighted>
-12.2438

> <Gold.Chemscore.Internal_Hbond.Weighted>
0.0000

> <Gold.Chemscore.DEClash.Weighted>
0.5184

> <Gold.Chemscore.DEInternal.Weighted>
1.0492

> <Gold.Chemscore.Rot.Weighted>
6.2694

> <Gold.Chemscore.Internal.Correction.Weighted>
   9.000000E+99

> <Gold.Protein.RotatedTorsions>
[ 6907 6896 6895 6894 ] final  132.20 input  -60.11 | X-H torsion
[ 7974 7965 7964 7962 ] final  104.31 input  175.53 | X-H torsion
[ 8008 7997 7996 7995 ] final   69.02 input   59.86 | X-H torsion
[ 10167 10162 10161 10158 ] final  141.13 input  -65.29 | X-H torsion
[ 10718 10713 10712 10709 ] final    3.10 input   66.30 | X-H torsion
[ 10763 10752 10751 10750 ] final  -94.76 input  -60.55 | X-H torsion
[ 11005 11000 10999 10996 ] final   29.65 input  -57.11 | X-H torsion

> <Gold.Protein.ActiveResidues>
 VAL166  LYS551  ARG553  GLY616  TRP617  ASP618  TYR619  PRO620  LYS621  CYS622 
 ASP623  PHE694  ASN695  SER759  ASP760  ASP761  ALA762  ILE779  LEU786  VAL792 
 PHE793  MET794  SER795  GLU796  ALA797  LYS798  CYS799  TRP800  GLU811  SER814 

> <Gold.Protein.RotatedAtoms>
  152.3348  133.6000  159.5834 H   0  0  0  0  0  0  0  0  0  0  0  0  # atno 6907 bound_to 6896
  150.7444  133.9812  159.3586 H   0  0  0  0  0  0  0  0  0  0  0  0  # atno 6908 bound_to 6896
  151.7683  135.0793  160.0407 H   0  0  0  0  0  0  0  0  0  0  0  0  # atno 6909 bound_to 6896
  145.3345  139.2478  143.3643 H   0  0  0  0  0  0  0  0  0  0  0  0  # atno 7974 bound_to 7965
  155.7172  140.3493  155.5000 H   0  0  0  0  0  0  0  0  0  0  0  0  # atno 8008 bound_to 7997
  155.9302  140.1083  157.1160 H   0  0  0  0  0  0  0  0  0  0  0  0  # atno 8009 bound_to 7997
  154.4084  140.1232  156.4780 H   0  0  0  0  0  0  0  0  0  0  0  0  # atno 8010 bound_to 7997
  139.5029  144.6190  151.6095 H   0  0  0  0  0  0  0  0  0  0  0  0  # atno 10167 bound_to 10162
  156.8728  130.5626  149.5656 H   0  0  0  0  0  0  0  0  0  0  0  0  # atno 10718 bound_to 10713
  154.7086  135.5145  153.8632 H   0  0  0  0  0  0  0  0  0  0  0  0  # atno 10763 bound_to 10752
  153.0761  135.6617  154.0151 H   0  0  0  0  0  0  0  0  0  0  0  0  # atno 10764 bound_to 10752
  153.9997  135.3012  155.3383 H   0  0  0  0  0  0  0  0  0  0  0  0  # atno 10765 bound_to 10752
  140.3026  134.2739  155.7750 H   0  0  0  0  0  0  0  0  0  0  0  0  # atno 11005 bound_to 11000
  146.3032  140.3929  142.8696 LP  0  0  0  0  0  0  0  0  0  0  0  0  # atno 17320 bound_to 7965
  144.8838  140.7435  143.5970 LP  0  0  0  0  0  0  0  0  0  0  0  0  # atno 17321 bound_to 7965
  140.5887  143.9818  150.6311 LP  0  0  0  0  0  0  0  0  0  0  0  0  # atno 17342 bound_to 10162
  140.2991  143.3272  152.0989 LP  0  0  0  0  0  0  0  0  0  0  0  0  # atno 17343 bound_to 10162
  156.0717  130.5749  150.9396 LP  0  0  0  0  0  0  0  0  0  0  0  0  # atno 17370 bound_to 10713
  157.6185  131.0931  150.8665 LP  0  0  0  0  0  0  0  0  0  0  0  0  # atno 17371 bound_to 10713
  141.2125  133.7656  156.9790 LP  0  0  0  0  0  0  0  0  0  0  0  0  # atno 17394 bound_to 11000
  140.1095  134.9485  157.2044 LP  0  0  0  0  0  0  0  0  0  0  0  0  # atno 17395 bound_to 11000

$$$$
