AV-unprocessed.smi:615|AV-procd|sdf|3070|dock4
  -GOLD-   2262023593D 1   1.00000     0.00000
 Structure written by MMmdl.
 26 27  0  0  0  0  0  0  0  0  1 V2000
  146.2519  142.6445  153.7974 C   0  0  0  0  0  0  0  0  0  0  0  0
  147.3534  141.6151  154.0834 C   0  0  0  0  0  0  0  0  0  0  0  0
  148.3813  142.1587  154.9638 N   0  0  0  0  0  0  0  0  0  0  0  0
  149.2755  141.4288  155.6466 C   0  0  0  0  0  0  0  0  0  0  0  0
  149.3247  140.1994  155.5993 O   0  0  0  0  0  0  0  0  0  0  0  0
  150.0918  142.2128  156.3732 N   0  0  0  0  0  0  0  0  0  0  0  0
  151.1473  141.8207  157.2389 C   0  0  0  0  0  0  0  0  0  0  0  0
  151.8075  140.6597  157.1288 N   0  0  0  0  0  0  0  0  0  0  0  0
  152.7854  140.5249  158.1039 N   0  0  0  0  0  0  0  0  0  0  0  0
  152.8389  141.5842  158.9201 C   0  0  0  0  0  0  0  0  0  0  0  0
  153.8113  141.6693  160.0492 C   0  0  0  0  0  0  0  0  0  0  0  0
  153.9062  140.5831  161.0983 C   0  0  0  0  0  0  0  0  0  0  0  0
  153.3353  141.9306  161.4599 C   0  0  0  0  0  0  0  0  0  0  0  0
  151.6753  142.8546  158.5556 S   0  0  0  0  0  0  0  0  0  0  0  0
  145.5108  142.2362  153.1101 H   0  0  0  0  0  0  0  0  0  0  0  0
  146.6629  143.5473  153.3449 H   0  0  0  0  0  0  0  0  0  0  0  0
  145.7306  142.9336  154.7105 H   0  0  0  0  0  0  0  0  0  0  0  0
  146.9247  140.7092  154.5156 H   0  0  0  0  0  0  0  0  0  0  0  0
  147.8292  141.3173  153.1489 H   0  0  0  0  0  0  0  0  0  0  0  0
  148.4120  143.1631  155.0602 H   0  0  0  0  0  0  0  0  0  0  0  0
  149.9345  143.2074  156.3054 H   0  0  0  0  0  0  0  0  0  0  0  0
  154.7352  142.1452  159.7258 H   0  0  0  0  0  0  0  0  0  0  0  0
  153.2106  139.7483  161.0408 H   0  0  0  0  0  0  0  0  0  0  0  0
  154.8962  140.3389  161.4783 H   0  0  0  0  0  0  0  0  0  0  0  0
  153.9431  142.5853  162.0810 H   0  0  0  0  0  0  0  0  0  0  0  0
  152.2618  141.9919  161.6280 H   0  0  0  0  0  0  0  0  0  0  0  0
  1  2  1  0  0  0  0
  1 15  1  0  0  0  0
  1 16  1  0  0  0  0
  1 17  1  0  0  0  0
  2  3  1  0  0  0  0
  2 18  1  0  0  0  0
  2 19  1  0  0  0  0
  3  4  1  0  0  0  0
  3 20  1  0  0  0  0
  4  5  2  0  0  0  0
  4  6  1  0  0  0  0
  6  7  1  0  0  0  0
  6 21  1  0  0  0  0
  7 14  1  0  0  0  0
  7  8  2  0  0  0  0
  8  9  1  0  0  0  0
  9 10  2  0  0  0  0
 10 11  1  0  0  0  0
 10 14  1  0  0  0  0
 11 13  1  0  0  0  0
 11 12  1  0  0  0  0
 11 22  1  0  0  0  0
 12 13  1  0  0  0  0
 12 23  1  0  0  0  0
 12 24  1  0  0  0  0
 13 25  1  0  0  0  0
 13 26  1  0  0  0  0
M  END
> <s_m_source_file>
AV-unprocessed.smi

> <i_m_source_file_index>
615

> <i_lp_mmshare_version>
43012

> <i_f3d_flags>
0

> <s_epik_input>
W0NIM11bQ0gyXVtOSF1DKD1PKVtOSF1jMW5uYyhzMSlbQ0hdMltDSDJdW0NIMl0y

> <s_epik_cmdline>
J2VwaWtfcHl0aG9uJywgJy1waCcsICc3LjAnLCAnLXRuJywgJzgnLCAnLW1hJywgJzIwMCcsICctbWV0YWxfYmluZGluZycsICctaW1hZScsICc8aW5maWxlLm1hZT4nLCAnLW9tYWUnLCAnPG91dGZpbGUubWFlPic=

> <r_lp_tautomer_probability>
1

> <r_epik_Ionization_Penalty>
0.000941979

> <r_epik_Ionization_Penalty_Charging>
0

> <r_epik_Ionization_Penalty_Neutral>
0.000941979

> <r_epik_State_Penalty>
-0

> <r_epik_Charging_Adjusted_Penalty>
0

> <i_epik_Tot_Q>
0

> <i_epik_Tot_abs_Q>
0

> <r_epik_Metal_State_Penalty>
0.281647

> <b_epik_Metal_Only>
0

> <s_lp_Force_Field>
OPLS_2005

> <r_lp_Energy>
0.300577

> <b_lp_Chiralities_Consistent>
1

> <s_lp_Variant>
AV-unprocessed.smi:615-1

> <Gold.Version>
5.8.1

> <Gold.Id.Protein>
6NUR|6NUR_protein|mol2

> <Gold.PLP.Fitness>
37.0272

> <Gold.PLP.PLP>
-29.4074

> <Gold.PLP.part.hbond>
-3.0000

> <Gold.PLP.part.metal>
0.0000

> <Gold.PLP.part.buried>
-3.3129

> <Gold.PLP.part.nonpolar>
-22.4540

> <Gold.PLP.part.repulsive>
0.3033

> <Gold.PLP.ligand.clash>
0.0000

> <Gold.PLP.ligand.torsion>
0.3065

> <Gold.PLP.Chemscore.Hbond>
2.7020

> <Gold.PLP.Chemscore.CHOScore>
0.0000

> <Gold.PLP.Chemscore.Metal>
0.0000

> <Gold.Chemscore.Hbonds>
donor molecule, donor type, donor heavy atom, donor atom, acceptor molecule, acceptor atom, score
      L1  H     3    20       P1  8028  1.00
      L1  H     6    21       P1  8028  1.00
      P1  H  7997  8008       L1     9  0.61

> <Gold.PLP.Chemscore.Internal.Correction>
0.1269

> <Gold.Rescore>
     Score         DG    S(hbond)    S(metal)    S(lipo)     H(rot)  DE(clash)    DE(int)     intcor
     16.21     -17.82       2.41        0.00      63.94       1.24       0.25       1.36       ----

> <Gold.Chemscore.Fitness>
16.2130

> <Gold.Chemscore.DG>
-17.8199

> <Gold.Chemscore.ZeroCoef>
-5.4800

> <Gold.Chemscore.Hbond>
2.4078

> <Gold.Chemscore.Metal>
0.0000

> <Gold.Chemscore.Lipo>
63.9401

> <Gold.Chemscore.Internal_Hbond>
0.0000

> <Gold.Chemscore.DEClash>
0.2469

> <Gold.Chemscore.DEInternal>
1.3600

> <Gold.Chemscore.Rot>
1.2434

> <Gold.Chemscore.Internal.Correction>
   9.000000E+99

> <Gold.Chemscore.Hbonds>
donor molecule, donor type, donor heavy atom, donor atom, acceptor molecule, acceptor atom, score
      L1  H     3    20       P1  8028  0.99
      L1  H     6    21       P1  8028  0.94
      P1  H  7997  8008       L1     9  0.20

> <Gold.Chemscore.Hbond.Weighted>
-8.0421

> <Gold.Chemscore.Metal.Weighted>
-0.0000

> <Gold.Chemscore.Lipo.Weighted>
-7.4810

> <Gold.Chemscore.Internal_Hbond.Weighted>
0.0000

> <Gold.Chemscore.DEClash.Weighted>
0.2469

> <Gold.Chemscore.DEInternal.Weighted>
1.3600

> <Gold.Chemscore.Rot.Weighted>
3.1832

> <Gold.Chemscore.Internal.Correction.Weighted>
   9.000000E+99

> <Gold.Protein.RotatedTorsions>
[ 6907 6896 6895 6894 ] final -151.25 input  -60.11 | X-H torsion
[ 7974 7965 7964 7962 ] final    9.41 input  175.53 | X-H torsion
[ 8008 7997 7996 7995 ] final  -78.86 input   59.86 | X-H torsion
[ 10167 10162 10161 10158 ] final -158.36 input  -65.29 | X-H torsion
[ 10718 10713 10712 10709 ] final  -59.13 input   66.30 | X-H torsion
[ 10763 10752 10751 10750 ] final  142.20 input  -60.55 | X-H torsion
[ 11005 11000 10999 10996 ] final  -41.91 input  -57.11 | X-H torsion

> <Gold.Protein.ActiveResidues>
 VAL166  LYS551  ARG553  GLY616  TRP617  ASP618  TYR619  PRO620  LYS621  CYS622 
 ASP623  PHE694  ASN695  SER759  ASP760  ASP761  ALA762  ILE779  LEU786  VAL792 
 PHE793  MET794  SER795  GLU796  ALA797  LYS798  CYS799  TRP800  GLU811  SER814 

> <Gold.Protein.RotatedAtoms>
  151.2104  133.4559  159.2597 H   0  0  0  0  0  0  0  0  0  0  0  0  # atno 6907 bound_to 6896
  151.0982  134.9956  159.8446 H   0  0  0  0  0  0  0  0  0  0  0  0  # atno 6908 bound_to 6896
  152.5441  134.2033  159.8773 H   0  0  0  0  0  0  0  0  0  0  0  0  # atno 6909 bound_to 6896
  146.2404  139.9788  142.8438 H   0  0  0  0  0  0  0  0  0  0  0  0  # atno 7974 bound_to 7965
  154.5729  140.0687  156.8991 H   0  0  0  0  0  0  0  0  0  0  0  0  # atno 8008 bound_to 7997
  155.2601  140.3358  155.4256 H   0  0  0  0  0  0  0  0  0  0  0  0  # atno 8009 bound_to 7997
  156.2132  140.1767  156.7633 H   0  0  0  0  0  0  0  0  0  0  0  0  # atno 8010 bound_to 7997
  139.6698  143.9764  152.2277 H   0  0  0  0  0  0  0  0  0  0  0  0  # atno 10167 bound_to 10162
  156.1084  130.4178  150.0673 H   0  0  0  0  0  0  0  0  0  0  0  0  # atno 10718 bound_to 10713
  153.9518  135.2969  155.3438 H   0  0  0  0  0  0  0  0  0  0  0  0  # atno 10763 bound_to 10752
  154.7422  135.5019  153.9145 H   0  0  0  0  0  0  0  0  0  0  0  0  # atno 10764 bound_to 10752
  153.0990  135.6729  153.9817 H   0  0  0  0  0  0  0  0  0  0  0  0  # atno 10765 bound_to 10752
  141.0279  133.6833  156.2523 H   0  0  0  0  0  0  0  0  0  0  0  0  # atno 11005 bound_to 11000
  145.1611  140.9673  143.4376 LP  0  0  0  0  0  0  0  0  0  0  0  0  # atno 17320 bound_to 7965
  145.0115  139.3505  143.6117 LP  0  0  0  0  0  0  0  0  0  0  0  0  # atno 17321 bound_to 7965
  139.9526  144.6610  150.8157 LP  0  0  0  0  0  0  0  0  0  0  0  0  # atno 17342 bound_to 10162
  140.7614  143.3173  151.2704 LP  0  0  0  0  0  0  0  0  0  0  0  0  # atno 17343 bound_to 10162
  156.8642  130.9502  151.3615 LP  0  0  0  0  0  0  0  0  0  0  0  0  # atno 17370 bound_to 10713
  157.6263  130.8694  149.9195 LP  0  0  0  0  0  0  0  0  0  0  0  0  # atno 17371 bound_to 10713
  140.6458  134.5118  157.5573 LP  0  0  0  0  0  0  0  0  0  0  0  0  # atno 17394 bound_to 11000
  139.9188  134.8191  156.1278 LP  0  0  0  0  0  0  0  0  0  0  0  0  # atno 17395 bound_to 11000

$$$$
