AV-unprocessed.smi:1809|AV-procd|sdf|7312|dock7
  -GOLD-   22720 8573D 1   1.00000     0.00000
 Structure written by MMmdl.
 40 42  0  0  0  0  0  0  0  0  2 V2000
  144.4860  133.3415  150.3650 C   0  0  0  0  0  0  0  0  0  0  0  0
  144.3675  134.4962  151.3002 C   0  0  0  0  0  0  0  0  0  0  0  0
  143.5118  134.5112  152.3302 N   0  0  0  0  0  0  0  0  0  0  0  0
  143.5801  135.6921  153.0574 N   0  0  0  0  0  0  0  0  0  0  0  0
  144.4859  136.5358  152.5553 C   0  0  0  0  0  0  0  0  0  0  0  0
  144.6583  137.7880  153.1967 N   0  0  0  0  0  0  0  0  0  0  0  0
  145.2325  138.0355  154.3850 C   0  0  0  0  0  0  0  0  0  0  0  0
  145.6826  137.1843  155.1518 O   0  0  0  0  0  0  0  0  0  0  0  0
  145.2568  139.3496  154.6486 N   0  0  0  0  0  0  0  0  0  0  0  0
  145.8361  139.9511  155.8448 C   0  0  0  0  0  0  0  0  0  0  0  0
  147.0252  140.8688  155.5112 C   0  0  1  0  0  0  0  0  0  0  0  0
  147.8713  141.1765  156.7568 C   0  0  0  0  0  0  0  0  0  0  0  0
  149.0454  142.0227  156.4250 N   0  3  1  0  0  0  0  0  0  0  0  0
  150.0225  142.0830  157.5364 C   0  0  0  0  0  0  0  0  0  0  0  0
  151.1533  141.0970  157.1881 C   0  0  0  0  0  0  0  0  0  0  0  0
  150.7785  140.5031  155.8265 C   0  0  0  0  0  0  0  0  0  0  0  0
  149.8035  141.5303  155.2536 C   0  0  1  0  0  0  0  0  0  0  0  0
  148.9026  141.0393  154.1016 C   0  0  0  0  0  0  0  0  0  0  0  0
  147.8644  140.1967  154.5807 O   0  0  0  0  0  0  0  0  0  0  0  0
  145.3450  135.9491  151.1310 S   0  0  0  0  0  0  0  0  0  0  0  0
  143.8807  132.5025  150.7103 H   0  0  0  0  0  0  0  0  0  0  0  0
  145.5251  133.0183  150.3011 H   0  0  0  0  0  0  0  0  0  0  0  0
  144.1464  133.6312  149.3706 H   0  0  0  0  0  0  0  0  0  0  0  0
  144.3221  138.5879  152.6810 H   0  0  0  0  0  0  0  0  0  0  0  0
  144.8596  139.9809  153.9679 H   0  0  0  0  0  0  0  0  0  0  0  0
  145.0661  140.5093  156.3803 H   0  0  0  0  0  0  0  0  0  0  0  0
  146.1555  139.1499  156.5120 H   0  0  0  0  0  0  0  0  0  0  0  0
  146.6552  141.8010  155.0797 H   0  0  0  0  0  0  0  0  0  0  0  0
  147.2676  141.6881  157.5071 H   0  0  0  0  0  0  0  0  0  0  0  0
  148.2067  140.2394  157.2053 H   0  0  0  0  0  0  0  0  0  0  0  0
  150.4219  143.0963  157.5916 H   0  0  0  0  0  0  0  0  0  0  0  0
  149.5662  141.8644  158.5031 H   0  0  0  0  0  0  0  0  0  0  0  0
  152.1040  141.6277  157.1246 H   0  0  0  0  0  0  0  0  0  0  0  0
  151.2624  140.3178  157.9432 H   0  0  0  0  0  0  0  0  0  0  0  0
  151.6448  140.3399  155.1847 H   0  0  0  0  0  0  0  0  0  0  0  0
  150.2794  139.5430  155.9646 H   0  0  0  0  0  0  0  0  0  0  0  0
  150.3974  142.3678  154.8828 H   0  0  0  0  0  0  0  0  0  0  0  0
  148.4619  141.8892  153.5780 H   0  0  0  0  0  0  0  0  0  0  0  0
  149.4945  140.4958  153.3649 H   0  0  0  0  0  0  0  0  0  0  0  0
  148.7022  142.9517  156.2252 H   0  0  0  0  0  0  0  0  0  0  0  0
  1  2  1  0  0  0  0
  1 21  1  0  0  0  0
  1 22  1  0  0  0  0
  1 23  1  0  0  0  0
  2 20  1  0  0  0  0
  2  3  2  0  0  0  0
  3  4  1  0  0  0  0
  4  5  2  0  0  0  0
  5  6  1  0  0  0  0
  5 20  1  0  0  0  0
  6  7  1  0  0  0  0
  6 24  1  0  0  0  0
  7  8  2  0  0  0  0
  7  9  1  0  0  0  0
  9 10  1  0  0  0  0
  9 25  1  0  0  0  0
 10 11  1  0  0  0  0
 10 26  1  0  0  0  0
 10 27  1  0  0  0  0
 11 19  1  0  0  0  0
 11 12  1  0  0  0  0
 11 28  1  0  0  0  0
 12 13  1  0  0  0  0
 12 29  1  0  0  0  0
 12 30  1  0  0  0  0
 13 17  1  0  0  0  0
 13 14  1  0  0  0  0
 13 40  1  0  0  0  0
 14 15  1  0  0  0  0
 14 31  1  0  0  0  0
 14 32  1  0  0  0  0
 15 16  1  0  0  0  0
 15 33  1  0  0  0  0
 15 34  1  0  0  0  0
 16 17  1  0  0  0  0
 16 35  1  0  0  0  0
 16 36  1  0  0  0  0
 17 18  1  0  0  0  0
 17 37  1  0  0  0  0
 18 19  1  0  0  0  0
 18 38  1  0  0  0  0
 18 39  1  0  0  0  0
M  CHG  1  13   1
M  END
> <s_m_source_file>
AV-unprocessed.smi

> <i_m_source_file_index>
1809

> <i_lp_mmshare_version>
43012

> <i_f3d_flags>
0

> <s_epik_input>
W0NIM11jMW5uYyhzMSlbTkhdQyg9TylbTkhdW0NIMl1bQ0BIXShbQ0gyXTIpT1tDSDJdW0NAQEhdKE4yMylbQ0gyXVtDSDJdW0NIMl0z

> <s_epik_cmdline>
J2VwaWtfcHl0aG9uJywgJy1waCcsICc3LjAnLCAnLXRuJywgJzgnLCAnLW1hJywgJzIwMCcsICctbWV0YWxfYmluZGluZycsICctaW1hZScsICc8aW5maWxlLm1hZT4nLCAnLW9tYWUnLCAnPG91dGZpbGUubWFlPic=

> <r_lp_tautomer_probability>
1

> <r_epik_Ionization_Penalty>
0.112474

> <r_epik_Ionization_Penalty_Charging>
0.108916

> <r_epik_Ionization_Penalty_Neutral>
0.00355844

> <r_epik_State_Penalty>
0.0565397

> <r_epik_Charging_Adjusted_Penalty>
0.165456

> <i_epik_Tot_Q>
1

> <i_epik_Tot_abs_Q>
1

> <r_epik_Metal_State_Penalty>
0.422831

> <b_epik_Metal_Only>
0

> <s_lp_Force_Field>
OPLS_2005

> <r_lp_Energy>
33.5148

> <b_lp_Chiralities_Consistent>
1

> <s_lp_Variant>
AV-unprocessed.smi:1809-4

> <Gold.Version>
5.8.1

> <Gold.Id.Protein>
6NUR|6NUR_protein|mol2

> <Gold.PLP.Fitness>
38.5499

> <Gold.PLP.PLP>
-28.1423

> <Gold.PLP.part.hbond>
-3.0000

> <Gold.PLP.part.metal>
0.0000

> <Gold.PLP.part.buried>
-3.9003

> <Gold.PLP.part.nonpolar>
-21.5404

> <Gold.PLP.part.repulsive>
0.4064

> <Gold.PLP.ligand.clash>
0.0000

> <Gold.PLP.ligand.torsion>
0.7974

> <Gold.PLP.Chemscore.Hbond>
4.0000

> <Gold.PLP.Chemscore.CHOScore>
0.0000

> <Gold.PLP.Chemscore.Metal>
0.0000

> <Gold.Chemscore.Hbonds>
donor molecule, donor type, donor heavy atom, donor atom, acceptor molecule, acceptor atom, score
      L1  H     6    24       P1 10175  1.00
      L1  H     9    25       P1 10175  1.00
      L1  H    13    40       P1  8028  2.00

> <Gold.PLP.Chemscore.Internal.Correction>
0.0023

> <Gold.Rescore>
     Score         DG    S(hbond)    S(metal)    S(lipo)     H(rot)  DE(clash)    DE(int)     intcor
     18.05     -18.98       2.95        0.00      60.46       1.34       0.15       0.79       ----

> <Gold.Chemscore.Fitness>
18.0451

> <Gold.Chemscore.DG>
-18.9837

> <Gold.Chemscore.ZeroCoef>
-5.4800

> <Gold.Chemscore.Hbond>
2.9515

> <Gold.Chemscore.Metal>
0.0000

> <Gold.Chemscore.Lipo>
60.4584

> <Gold.Chemscore.Internal_Hbond>
0.0000

> <Gold.Chemscore.DEClash>
0.1497

> <Gold.Chemscore.DEInternal>
0.7889

> <Gold.Chemscore.Rot>
1.3391

> <Gold.Chemscore.Internal.Correction>
   9.000000E+99

> <Gold.Chemscore.Hbonds>
donor molecule, donor type, donor heavy atom, donor atom, acceptor molecule, acceptor atom, score
      L1  H     6    24       P1 10175  0.96
      L1  H     9    25       P1 10175  0.97
      L1  H    13    40       P1  8028  0.96

> <Gold.Chemscore.Hbond.Weighted>
-9.8581

> <Gold.Chemscore.Metal.Weighted>
-0.0000

> <Gold.Chemscore.Lipo.Weighted>
-7.0736

> <Gold.Chemscore.Internal_Hbond.Weighted>
0.0000

> <Gold.Chemscore.DEClash.Weighted>
0.1497

> <Gold.Chemscore.DEInternal.Weighted>
0.7889

> <Gold.Chemscore.Rot.Weighted>
3.4281

> <Gold.Chemscore.Internal.Correction.Weighted>
   9.000000E+99

> <Gold.Protein.RotatedTorsions>
[ 6907 6896 6895 6894 ] final  -92.99 input  -60.11 | X-H torsion
[ 7974 7965 7964 7962 ] final  -44.12 input  175.53 | X-H torsion
[ 8008 7997 7996 7995 ] final  134.02 input   59.86 | X-H torsion
[ 10167 10162 10161 10158 ] final  -80.37 input  -65.29 | X-H torsion
[ 10718 10713 10712 10709 ] final  -12.27 input   66.30 | X-H torsion
[ 10763 10752 10751 10750 ] final  -36.57 input  -60.55 | X-H torsion
[ 11005 11000 10999 10996 ] final  -93.78 input  -57.11 | X-H torsion

> <Gold.Protein.ActiveResidues>
 VAL166  LYS551  ARG553  GLY616  TRP617  ASP618  TYR619  PRO620  LYS621  CYS622 
 ASP623  PHE694  ASN695  SER759  ASP760  ASP761  ALA762  ILE779  LEU786  VAL792 
 PHE793  MET794  SER795  GLU796  ALA797  LYS798  CYS799  TRP800  GLU811  SER814 

> <Gold.Protein.RotatedAtoms>
  150.6915  134.2036  159.4331 H   0  0  0  0  0  0  0  0  0  0  0  0  # atno 6907 bound_to 6896
  152.0001  134.9930  160.0574 H   0  0  0  0  0  0  0  0  0  0  0  0  # atno 6908 bound_to 6896
  152.1586  133.4532  159.4886 H   0  0  0  0  0  0  0  0  0  0  0  0  # atno 6909 bound_to 6896
  145.9951  140.7137  142.9298 H   0  0  0  0  0  0  0  0  0  0  0  0  # atno 7974 bound_to 7965
  156.2996  140.2507  156.3348 H   0  0  0  0  0  0  0  0  0  0  0  0  # atno 8008 bound_to 7997
  154.9110  140.0403  157.1965 H   0  0  0  0  0  0  0  0  0  0  0  0  # atno 8009 bound_to 7997
  154.8405  140.2890  155.5667 H   0  0  0  0  0  0  0  0  0  0  0  0  # atno 8010 bound_to 7997
  140.4509  143.2483  151.8490 H   0  0  0  0  0  0  0  0  0  0  0  0  # atno 10167 bound_to 10162
  156.6471  130.4944  149.6075 H   0  0  0  0  0  0  0  0  0  0  0  0  # atno 10718 bound_to 10713
  153.8819  135.6821  153.4766 H   0  0  0  0  0  0  0  0  0  0  0  0  # atno 10763 bound_to 10752
  153.1229  135.4732  154.9222 H   0  0  0  0  0  0  0  0  0  0  0  0  # atno 10764 bound_to 10752
  154.7664  135.3225  154.8229 H   0  0  0  0  0  0  0  0  0  0  0  0  # atno 10765 bound_to 10752
  141.1488  133.7911  157.0207 H   0  0  0  0  0  0  0  0  0  0  0  0  # atno 11005 bound_to 11000
  144.6901  140.3137  143.7244 LP  0  0  0  0  0  0  0  0  0  0  0  0  # atno 17320 bound_to 7965
  145.7571  139.1812  143.2288 LP  0  0  0  0  0  0  0  0  0  0  0  0  # atno 17321 bound_to 7965
  139.4796  144.5121  151.8918 LP  0  0  0  0  0  0  0  0  0  0  0  0  # atno 17342 bound_to 10162
  140.4208  144.2245  150.5887 LP  0  0  0  0  0  0  0  0  0  0  0  0  # atno 17343 bound_to 10162
  156.2113  130.6681  151.1273 LP  0  0  0  0  0  0  0  0  0  0  0  0  # atno 17370 bound_to 10713
  157.7153  131.0713  150.6351 LP  0  0  0  0  0  0  0  0  0  0  0  0  # atno 17371 bound_to 10713
  140.0818  134.9644  157.1636 LP  0  0  0  0  0  0  0  0  0  0  0  0  # atno 17394 bound_to 11000
  140.3567  134.2539  155.7192 LP  0  0  0  0  0  0  0  0  0  0  0  0  # atno 17395 bound_to 11000

$$$$
