AV-unprocessed.smi:439|AV-procd|sdf|2580|dock7
  -GOLD-   2262022563D 1   1.00000     0.00000
 Structure written by MMmdl.
 45 46  0  0  0  0  0  0  0  0  2 V2000
  151.5363  144.8893  159.5549 C   0  0  0  0  0  0  0  0  0  0  0  0
  152.3351  144.4004  158.3392 C   0  0  0  0  0  0  0  0  0  0  0  0
  151.4965  143.5999  157.3298 C   0  0  0  0  0  0  0  0  0  0  0  0
  151.2839  142.1282  157.7319 C   0  0  0  0  0  0  0  0  0  0  0  0
  150.6661  141.3546  156.6336 N   0  0  0  0  0  0  0  0  0  0  0  0
  149.3019  141.5842  156.3091 C   0  0  0  0  0  0  0  0  0  0  0  0
  148.5868  142.5280  157.0331 N   0  0  0  0  0  0  0  0  0  0  0  0
  148.7216  140.9024  155.2847 C   0  0  0  0  0  0  0  0  0  0  0  0
  147.3642  141.0831  154.9357 N   0  0  0  0  0  0  0  0  0  0  0  0
  147.1127  141.9058  153.7391 C   0  0  0  0  0  0  0  0  0  0  0  0
  146.3246  143.1814  154.0764 C   0  0  0  0  0  0  0  0  0  0  0  0
  146.3100  140.6215  155.6758 C   0  0  0  0  0  0  0  0  0  0  0  0
  145.1588  140.9992  155.4446 O   0  0  0  0  0  0  0  0  0  0  0  0
  146.6021  139.6395  156.7254 C   0  0  0  0  0  0  0  0  0  0  0  0
  145.8535  139.6520  157.8525 C   0  0  0  0  0  0  0  0  0  0  0  0
  145.9984  138.7510  158.8783 O   0  0  0  0  0  0  0  0  0  0  0  0
  146.8382  137.6407  158.5839 C   0  0  0  0  0  0  0  0  0  0  0  0
  148.0535  138.0888  157.7606 C   0  0  0  0  0  0  0  0  0  0  0  0
  147.6159  138.7218  156.5651 O   0  0  0  0  0  0  0  0  0  0  0  0
  149.5180  139.9026  154.5595 C   0  0  0  0  0  0  0  0  0  0  0  0
  149.0127  139.2507  153.6453 O   0  0  0  0  0  0  0  0  0  0  0  0
  150.8109  139.7270  154.9387 N   0  5  0  0  0  0  0  0  0  0  0  0
  151.3984  140.4175  155.9568 C   0  0  0  0  0  0  0  0  0  0  0  0
  152.5691  140.2148  156.2823 O   0  0  0  0  0  0  0  0  0  0  0  0
  152.1903  145.3883  160.2703 H   0  0  0  0  0  0  0  0  0  0  0  0
  151.0545  144.0576  160.0694 H   0  0  0  0  0  0  0  0  0  0  0  0
  150.7629  145.6014  159.2679 H   0  0  0  0  0  0  0  0  0  0  0  0
  152.8056  145.2484  157.8404 H   0  0  0  0  0  0  0  0  0  0  0  0
  153.1499  143.7683  158.6935 H   0  0  0  0  0  0  0  0  0  0  0  0
  150.5224  144.0806  157.2312 H   0  0  0  0  0  0  0  0  0  0  0  0
  151.9597  143.6569  156.3440 H   0  0  0  0  0  0  0  0  0  0  0  0
  152.2246  141.6730  158.0395 H   0  0  0  0  0  0  0  0  0  0  0  0
  150.6767  142.0838  158.6374 H   0  0  0  0  0  0  0  0  0  0  0  0
  149.0091  143.0555  157.7834 H   0  0  0  0  0  0  0  0  0  0  0  0
  147.6013  142.6814  156.8749 H   0  0  0  0  0  0  0  0  0  0  0  0
  148.0545  142.1978  153.2733 H   0  0  0  0  0  0  0  0  0  0  0  0
  146.5842  141.3281  152.9790 H   0  0  0  0  0  0  0  0  0  0  0  0
  146.1588  143.7804  153.1809 H   0  0  0  0  0  0  0  0  0  0  0  0
  146.8662  143.8003  154.7925 H   0  0  0  0  0  0  0  0  0  0  0  0
  145.3494  142.9512  154.5054 H   0  0  0  0  0  0  0  0  0  0  0  0
  145.0505  140.3484  158.0479 H   0  0  0  0  0  0  0  0  0  0  0  0
  147.1593  137.1778  159.5173 H   0  0  0  0  0  0  0  0  0  0  0  0
  146.2635  136.8930  158.0357 H   0  0  0  0  0  0  0  0  0  0  0  0
  148.6715  138.7838  158.3311 H   0  0  0  0  0  0  0  0  0  0  0  0
  148.6808  137.2353  157.5034 H   0  0  0  0  0  0  0  0  0  0  0  0
  1  2  1  0  0  0  0
  1 25  1  0  0  0  0
  1 26  1  0  0  0  0
  1 27  1  0  0  0  0
  2  3  1  0  0  0  0
  2 28  1  0  0  0  0
  2 29  1  0  0  0  0
  3  4  1  0  0  0  0
  3 30  1  0  0  0  0
  3 31  1  0  0  0  0
  4  5  1  0  0  0  0
  4 32  1  0  0  0  0
  4 33  1  0  0  0  0
  5 23  1  0  0  0  0
  5  6  1  0  0  0  0
  6  7  1  0  0  0  0
  6  8  2  0  0  0  0
  7 34  1  0  0  0  0
  7 35  1  0  0  0  0
  8  9  1  0  0  0  0
  8 20  1  0  0  0  0
  9 10  1  0  0  0  0
  9 12  1  0  0  0  0
 10 11  1  0  0  0  0
 10 36  1  0  0  0  0
 10 37  1  0  0  0  0
 11 38  1  0  0  0  0
 11 39  1  0  0  0  0
 11 40  1  0  0  0  0
 12 13  2  0  0  0  0
 12 14  1  0  0  0  0
 14 19  1  0  0  0  0
 14 15  2  0  0  0  0
 15 16  1  0  0  0  0
 15 41  1  0  0  0  0
 16 17  1  0  0  0  0
 17 18  1  0  0  0  0
 17 42  1  0  0  0  0
 17 43  1  0  0  0  0
 18 19  1  0  0  0  0
 18 44  1  0  0  0  0
 18 45  1  0  0  0  0
 20 21  2  0  0  0  0
 20 22  1  0  0  0  0
 22 23  1  0  0  0  0
 23 24  2  0  0  0  0
M  CHG  1  22  -1
M  END
> <s_m_source_file>
AV-unprocessed.smi

> <i_m_source_file_index>
439

> <i_lp_mmshare_version>
43012

> <i_f3d_flags>
0

> <s_epik_input>
W0NIM11bQ0gyXVtDSDJdW0NIMl1uMWMoW05IMl0pYyhjKD1PKVtuSF1jMT1PKU4oW0NIMl1bQ0gzXSlDKD1PKUMyPVtDSF1PW0NIMl1bQ0gyXU8y

> <s_epik_cmdline>
J2VwaWtfcHl0aG9uJywgJy1waCcsICc3LjAnLCAnLXRuJywgJzgnLCAnLW1hJywgJzIwMCcsICctbWV0YWxfYmluZGluZycsICctaW1hZScsICc8aW5maWxlLm1hZT4nLCAnLW9tYWUnLCAnPG91dGZpbGUubWFlPic=

> <r_lp_tautomer_probability>
1

> <r_epik_Ionization_Penalty>
6.21372

> <r_epik_Ionization_Penalty_Charging>
0.188923

> <r_epik_Ionization_Penalty_Neutral>
6.0248

> <r_epik_State_Penalty>
6.02477

> <r_epik_Charging_Adjusted_Penalty>
6.2137

> <i_epik_Tot_Q>
-1

> <i_epik_Tot_abs_Q>
1

> <r_epik_Metal_State_Penalty>
1.95433

> <b_epik_Metal_Only>
1

> <s_epik_Chemistry_Notes>
This compound has an imine and may undergo hydrolysis.

> <s_lp_Force_Field>
OPLS_2005

> <r_lp_Energy>
37.3971

> <b_lp_Chiralities_Consistent>
1

> <s_lp_Variant>
AV-unprocessed.smi:439-2

> <Gold.Version>
5.8.1

> <Gold.Id.Protein>
6NUR|6NUR_protein|mol2

> <Gold.PLP.Fitness>
40.2255

> <Gold.PLP.PLP>
-35.1897

> <Gold.PLP.part.hbond>
-4.0000

> <Gold.PLP.part.metal>
0.0000

> <Gold.PLP.part.buried>
-3.7511

> <Gold.PLP.part.nonpolar>
-30.9808

> <Gold.PLP.part.repulsive>
2.7487

> <Gold.PLP.ligand.clash>
0.0000

> <Gold.PLP.ligand.torsion>
2.1711

> <Gold.PLP.Chemscore.Hbond>
1.9364

> <Gold.PLP.Chemscore.CHOScore>
0.0000

> <Gold.PLP.Chemscore.Metal>
0.0000

> <Gold.Chemscore.Hbonds>
donor molecule, donor type, donor heavy atom, donor atom, acceptor molecule, acceptor atom, score
      P1  H  6934  6947       L1    16  0.04
      P1  H  7989  7998       L1    22  0.60
      P1  H  7997  8010       L1    24  1.00

> <Gold.PLP.Chemscore.Internal.Correction>
3.5689

> <Gold.Rescore>
     Score         DG    S(hbond)    S(metal)    S(lipo)     H(rot)  DE(clash)    DE(int)     intcor
      7.58     -13.01       1.22        0.00      65.17       1.63       1.06       4.37       ----

> <Gold.Chemscore.Fitness>
7.5817

> <Gold.Chemscore.DG>
-13.0125

> <Gold.Chemscore.ZeroCoef>
-5.4800

> <Gold.Chemscore.Hbond>
1.2235

> <Gold.Chemscore.Metal>
0.0000

> <Gold.Chemscore.Lipo>
65.1740

> <Gold.Chemscore.Internal_Hbond>
0.0000

> <Gold.Chemscore.DEClash>
1.0605

> <Gold.Chemscore.DEInternal>
4.3703

> <Gold.Chemscore.Rot>
1.6325

> <Gold.Chemscore.Internal.Correction>
   9.000000E+99

> <Gold.Chemscore.Hbonds>
donor molecule, donor type, donor heavy atom, donor atom, acceptor molecule, acceptor atom, score
      P1  H  7989  7998       L1    22  0.01
      P1  H  7997  8010       L1    24  0.98

> <Gold.Chemscore.Hbond.Weighted>
-4.0865

> <Gold.Chemscore.Metal.Weighted>
-0.0000

> <Gold.Chemscore.Lipo.Weighted>
-7.6254

> <Gold.Chemscore.Internal_Hbond.Weighted>
0.0000

> <Gold.Chemscore.DEClash.Weighted>
1.0605

> <Gold.Chemscore.DEInternal.Weighted>
4.3703

> <Gold.Chemscore.Rot.Weighted>
4.1793

> <Gold.Chemscore.Internal.Correction.Weighted>
   9.000000E+99

> <Gold.Protein.RotatedTorsions>
[ 6907 6896 6895 6894 ] final   20.87 input  -60.11 | X-H torsion
[ 7974 7965 7964 7962 ] final   88.00 input  175.53 | X-H torsion
[ 8008 7997 7996 7995 ] final   74.39 input   59.86 | X-H torsion
[ 10167 10162 10161 10158 ] final  -60.89 input  -65.29 | X-H torsion
[ 10718 10713 10712 10709 ] final   15.78 input   66.30 | X-H torsion
[ 10763 10752 10751 10750 ] final  148.98 input  -60.55 | X-H torsion
[ 11005 11000 10999 10996 ] final -120.47 input  -57.11 | X-H torsion

> <Gold.Protein.ActiveResidues>
 VAL166  LYS551  ARG553  GLY616  TRP617  ASP618  TYR619  PRO620  LYS621  CYS622 
 ASP623  PHE694  ASN695  SER759  ASP760  ASP761  ALA762  ILE779  LEU786  VAL792 
 PHE793  MET794  SER795  GLU796  ALA797  LYS798  CYS799  TRP800  GLU811  SER814 

> <Gold.Protein.RotatedAtoms>
  151.9030  135.0370  160.0507 H   0  0  0  0  0  0  0  0  0  0  0  0  # atno 6907 bound_to 6896
  152.2342  133.5078  159.5241 H   0  0  0  0  0  0  0  0  0  0  0  0  # atno 6908 bound_to 6896
  150.7034  134.1092  159.4036 H   0  0  0  0  0  0  0  0  0  0  0  0  # atno 6909 bound_to 6896
  145.5515  139.2296  143.2510 H   0  0  0  0  0  0  0  0  0  0  0  0  # atno 7974 bound_to 7965
  155.7976  140.3477  155.5385 H   0  0  0  0  0  0  0  0  0  0  0  0  # atno 8008 bound_to 7997
  155.8570  140.0965  157.1658 H   0  0  0  0  0  0  0  0  0  0  0  0  # atno 8009 bound_to 7997
  154.4010  140.1365  156.3901 H   0  0  0  0  0  0  0  0  0  0  0  0  # atno 8010 bound_to 7997
  140.6041  143.2369  151.5861 H   0  0  0  0  0  0  0  0  0  0  0  0  # atno 10167 bound_to 10162
  157.0585  130.6299  149.5781 H   0  0  0  0  0  0  0  0  0  0  0  0  # atno 10718 bound_to 10713
  154.0636  135.2872  155.3320 H   0  0  0  0  0  0  0  0  0  0  0  0  # atno 10763 bound_to 10752
  154.6792  135.5270  153.8244 H   0  0  0  0  0  0  0  0  0  0  0  0  # atno 10764 bound_to 10752
  153.0513  135.6577  154.0823 H   0  0  0  0  0  0  0  0  0  0  0  0  # atno 10765 bound_to 10752
  141.0141  134.0221  157.3374 H   0  0  0  0  0  0  0  0  0  0  0  0  # atno 11005 bound_to 11000
  146.1913  140.6338  142.9144 LP  0  0  0  0  0  0  0  0  0  0  0  0  # atno 17320 bound_to 7965
  144.7527  140.5230  143.6791 LP  0  0  0  0  0  0  0  0  0  0  0  0  # atno 17321 bound_to 7965
  139.5312  144.2910  152.1152 LP  0  0  0  0  0  0  0  0  0  0  0  0  # atno 17342 bound_to 10162
  140.2096  144.4576  150.6392 LP  0  0  0  0  0  0  0  0  0  0  0  0  # atno 17343 bound_to 10162
  155.9986  130.5060  150.7575 LP  0  0  0  0  0  0  0  0  0  0  0  0  # atno 17370 bound_to 10713
  157.4974  131.0916  151.0355 LP  0  0  0  0  0  0  0  0  0  0  0  0  # atno 17371 bound_to 10713
  139.9107  135.0189  156.7677 LP  0  0  0  0  0  0  0  0  0  0  0  0  # atno 17394 bound_to 11000
  140.6684  133.9581  155.7843 LP  0  0  0  0  0  0  0  0  0  0  0  0  # atno 17395 bound_to 11000

$$$$
