AV-unprocessed.smi:308|AV-procd|sdf|2290|dock7
  -GOLD-   2262022193D 1   1.00000     0.00000
 Structure written by MMmdl.
 50 51  0  0  0  0  0  0  0  0  4 V2000
  147.5148  132.1288  155.0288 C   0  0  0  0  0  0  0  0  0  0  0  0
  147.5652  133.1616  153.8893 C   0  0  2  0  0  0  0  0  0  0  0  0
  148.9238  133.1842  153.1647 C   0  0  0  0  0  0  0  0  0  0  0  0
  150.0225  133.8544  154.0086 C   0  0  0  0  0  0  0  0  0  0  0  0
  149.6215  135.2291  154.4163 N   0  3  2  0  0  0  0  0  0  0  0  0
  150.7011  135.9932  155.0989 C   0  0  0  0  0  0  0  0  0  0  0  0
  150.8862  137.4007  154.4982 C   0  0  0  0  0  0  0  0  0  0  0  0
  151.8707  138.1497  155.2832 N   0  5  0  0  0  0  0  0  0  0  0  0
  151.6728  139.3952  155.7922 C   0  0  0  0  0  0  0  0  0  0  0  0
  151.1025  140.3487  155.2505 O   0  0  0  0  0  0  0  0  0  0  0  0
  152.2030  139.5282  157.0212 N   0  0  0  0  0  0  0  0  0  0  0  0
  152.1782  140.6492  157.8946 C   0  0  0  0  0  0  0  0  0  0  0  0
  153.0050  140.6126  159.0359 C   0  0  0  0  0  0  0  0  0  0  0  0
  152.9976  141.6922  159.9429 C   0  0  0  0  0  0  0  0  0  0  0  0
  152.1512  142.8037  159.7085 C   0  0  0  0  0  0  0  0  0  0  0  0
  152.0856  143.9207  160.5692 N   0  0  0  0  0  0  0  0  0  0  0  0
  151.4779  145.1613  160.1012 C   0  0  0  0  0  0  0  0  0  0  0  0
  152.5907  143.8164  161.9319 C   0  0  0  0  0  0  0  0  0  0  0  0
  151.3637  142.7859  158.6053 N   0  3  0  0  0  0  0  0  0  0  0  0
  151.3401  141.7741  157.7113 C   0  0  0  0  0  0  0  0  0  0  0  0
  148.3470  135.2256  155.1789 C   0  0  0  0  0  0  0  0  0  0  0  0
  147.2123  134.5842  154.3604 C   0  0  0  0  0  0  0  0  0  0  0  0
  148.2379  132.3458  155.8146 H   0  0  0  0  0  0  0  0  0  0  0  0
  147.7246  131.1260  154.6561 H   0  0  0  0  0  0  0  0  0  0  0  0
  146.5265  132.1054  155.4888 H   0  0  0  0  0  0  0  0  0  0  0  0
  146.8096  132.8572  153.1639 H   0  0  0  0  0  0  0  0  0  0  0  0
  149.2247  132.1719  152.8928 H   0  0  0  0  0  0  0  0  0  0  0  0
  148.8191  133.7301  152.2260 H   0  0  0  0  0  0  0  0  0  0  0  0
  150.2412  133.2578  154.8948 H   0  0  0  0  0  0  0  0  0  0  0  0
  150.9429  133.8919  153.4254 H   0  0  0  0  0  0  0  0  0  0  0  0
  150.4714  136.1059  156.1598 H   0  0  0  0  0  0  0  0  0  0  0  0
  151.6376  135.4351  155.0590 H   0  0  0  0  0  0  0  0  0  0  0  0
  151.2013  137.3015  153.4595 H   0  0  0  0  0  0  0  0  0  0  0  0
  149.9141  137.8942  154.4666 H   0  0  0  0  0  0  0  0  0  0  0  0
  152.7382  138.7362  157.3462 H   0  0  0  0  0  0  0  0  0  0  0  0
  153.6485  139.7638  159.2167 H   0  0  0  0  0  0  0  0  0  0  0  0
  153.6440  141.6473  160.8064 H   0  0  0  0  0  0  0  0  0  0  0  0
  152.0217  145.5527  159.2407 H   0  0  0  0  0  0  0  0  0  0  0  0
  151.4870  145.9266  160.8775 H   0  0  0  0  0  0  0  0  0  0  0  0
  150.4404  144.9943  159.8102 H   0  0  0  0  0  0  0  0  0  0  0  0
  152.0610  143.0352  162.4780 H   0  0  0  0  0  0  0  0  0  0  0  0
  152.4584  144.7514  162.4767 H   0  0  0  0  0  0  0  0  0  0  0  0
  153.6553  143.5808  161.9291 H   0  0  0  0  0  0  0  0  0  0  0  0
  150.6428  141.9032  156.8973 H   0  0  0  0  0  0  0  0  0  0  0  0
  148.4870  134.7013  156.1250 H   0  0  0  0  0  0  0  0  0  0  0  0
  148.0667  136.2507  155.4247 H   0  0  0  0  0  0  0  0  0  0  0  0
  147.0115  135.2088  153.4885 H   0  0  0  0  0  0  0  0  0  0  0  0
  146.2896  134.5730  154.9421 H   0  0  0  0  0  0  0  0  0  0  0  0
  149.4342  135.7467  153.5685 H   0  0  0  0  0  0  0  0  0  0  0  0
  150.7482  143.5824  158.4405 H   0  0  0  0  0  0  0  0  0  0  0  0
  1  2  1  0  0  0  0
  1 23  1  0  0  0  0
  1 24  1  0  0  0  0
  1 25  1  0  0  0  0
  2 22  1  0  0  0  0
  2  3  1  0  0  0  0
  2 26  1  0  0  0  0
  3  4  1  0  0  0  0
  3 27  1  0  0  0  0
  3 28  1  0  0  0  0
  4  5  1  0  0  0  0
  4 29  1  0  0  0  0
  4 30  1  0  0  0  0
  5  6  1  0  0  0  0
  5 21  1  0  0  0  0
  5 49  1  0  0  0  0
  6  7  1  0  0  0  0
  6 31  1  0  0  0  0
  6 32  1  0  0  0  0
  7  8  1  0  0  0  0
  7 33  1  0  0  0  0
  7 34  1  0  0  0  0
  8  9  1  0  0  0  0
  9 10  2  0  0  0  0
  9 11  1  0  0  0  0
 11 12  1  0  0  0  0
 11 35  1  0  0  0  0
 12 20  1  0  0  0  0
 12 13  2  0  0  0  0
 13 14  1  0  0  0  0
 13 36  1  0  0  0  0
 14 15  2  0  0  0  0
 14 37  1  0  0  0  0
 15 16  1  0  0  0  0
 15 19  1  0  0  0  0
 16 17  1  0  0  0  0
 16 18  1  0  0  0  0
 17 38  1  0  0  0  0
 17 39  1  0  0  0  0
 17 40  1  0  0  0  0
 18 41  1  0  0  0  0
 18 42  1  0  0  0  0
 18 43  1  0  0  0  0
 19 20  2  0  0  0  0
 19 50  1  0  0  0  0
 20 44  1  0  0  0  0
 21 22  1  0  0  0  0
 21 45  1  0  0  0  0
 21 46  1  0  0  0  0
 22 47  1  0  0  0  0
 22 48  1  0  0  0  0
M  CHG  1   5   1
M  CHG  1   8  -1
M  CHG  1  19   1
M  END
> <s_m_source_file>
AV-unprocessed.smi

> <i_m_source_file_index>
308

> <i_lp_mmshare_version>
43012

> <i_f3d_flags>
0

> <s_epik_input>
W0NIM11bQ0hdMVtDSDJdW0NIMl1OKFtDSDJdW0NIMl0xKVtDSDJdW0NIMl1bTkhdQyg9TylbTkhdYzJbY0hdW2NIXWMoTihbQ0gzXSlbQ0gzXSluW2NIXTI=

> <s_epik_cmdline>
J2VwaWtfcHl0aG9uJywgJy1waCcsICc3LjAnLCAnLXRuJywgJzgnLCAnLW1hJywgJzIwMCcsICctbWV0YWxfYmluZGluZycsICctaW1hZScsICc8aW5maWxlLm1hZT4nLCAnLW9tYWUnLCAnPG91dGZpbGUubWFlPic=

> <r_lp_tautomer_probability>
0.999994

> <r_epik_Ionization_Penalty>
7.42107

> <r_epik_Ionization_Penalty_Charging>
7.42107

> <r_epik_Ionization_Penalty_Neutral>
3.68925e-06

> <r_epik_State_Penalty>
7.0982

> <r_epik_Charging_Adjusted_Penalty>
14.5193

> <i_epik_Tot_Q>
1

> <i_epik_Tot_abs_Q>
3

> <r_epik_Metal_State_Penalty>
3.28646

> <b_epik_Metal_Only>
1

> <s_lp_Force_Field>
OPLS_2005

> <r_lp_Energy>
21.4752

> <b_lp_Chiralities_Consistent>
1

> <s_lp_Variant>
AV-unprocessed.smi:308-6

> <Gold.Version>
5.8.1

> <Gold.Id.Protein>
6NUR|6NUR_protein|mol2

> <Gold.PLP.Fitness>
50.8099

> <Gold.PLP.PLP>
-43.9674

> <Gold.PLP.part.hbond>
-2.0000

> <Gold.PLP.part.metal>
0.0000

> <Gold.PLP.part.buried>
-6.0200

> <Gold.PLP.part.nonpolar>
-35.1534

> <Gold.PLP.part.repulsive>
0.2188

> <Gold.PLP.ligand.clash>
0.0000

> <Gold.PLP.ligand.torsion>
1.1427

> <Gold.PLP.Chemscore.Hbond>
3.0000

> <Gold.PLP.Chemscore.CHOScore>
0.0000

> <Gold.PLP.Chemscore.Metal>
0.0000

> <Gold.Chemscore.Hbonds>
donor molecule, donor type, donor heavy atom, donor atom, acceptor molecule, acceptor atom, score
      L1  H     5    49       P1  7948  2.00
      P1  H  7989  7998       L1    10  1.00

> <Gold.PLP.Chemscore.Internal.Correction>
0.1280

> <Gold.Rescore>
     Score         DG    S(hbond)    S(metal)    S(lipo)     H(rot)  DE(clash)    DE(int)     intcor
     15.83     -18.39       1.91        0.00      87.10       1.42       0.02       2.54       ----

> <Gold.Chemscore.Fitness>
15.8309

> <Gold.Chemscore.DG>
-18.3931

> <Gold.Chemscore.ZeroCoef>
-5.4800

> <Gold.Chemscore.Hbond>
1.9065

> <Gold.Chemscore.Metal>
0.0000

> <Gold.Chemscore.Lipo>
87.1034

> <Gold.Chemscore.Internal_Hbond>
0.0000

> <Gold.Chemscore.DEClash>
0.0201

> <Gold.Chemscore.DEInternal>
2.5420

> <Gold.Chemscore.Rot>
1.4241

> <Gold.Chemscore.Internal.Correction>
   9.000000E+99

> <Gold.Chemscore.Hbonds>
donor molecule, donor type, donor heavy atom, donor atom, acceptor molecule, acceptor atom, score
      L1  H     5    49       P1  7948  0.35
      P1  H  7989  7998       L1    10  0.93

> <Gold.Chemscore.Hbond.Weighted>
-6.3676

> <Gold.Chemscore.Metal.Weighted>
-0.0000

> <Gold.Chemscore.Lipo.Weighted>
-10.1911

> <Gold.Chemscore.Internal_Hbond.Weighted>
0.0000

> <Gold.Chemscore.DEClash.Weighted>
0.0201

> <Gold.Chemscore.DEInternal.Weighted>
2.5420

> <Gold.Chemscore.Rot.Weighted>
3.6456

> <Gold.Chemscore.Internal.Correction.Weighted>
   9.000000E+99

> <Gold.Protein.RotatedTorsions>
[ 6907 6896 6895 6894 ] final  -57.48 input  -60.11 | X-H torsion
[ 7974 7965 7964 7962 ] final  -79.50 input  175.53 | X-H torsion
[ 8008 7997 7996 7995 ] final  -77.52 input   59.86 | X-H torsion
[ 10167 10162 10161 10158 ] final -178.10 input  -65.29 | X-H torsion
[ 10718 10713 10712 10709 ] final  104.61 input   66.30 | X-H torsion
[ 10763 10752 10751 10750 ] final  137.31 input  -60.55 | X-H torsion
[ 11005 11000 10999 10996 ] final  129.11 input  -57.11 | X-H torsion

> <Gold.Protein.ActiveResidues>
 VAL166  LYS551  ARG553  GLY616  TRP617  ASP618  TYR619  PRO620  LYS621  CYS622 
 ASP623  PHE694  ASN695  SER759  ASP760  ASP761  ALA762  ILE779  LEU786  VAL792 
 PHE793  MET794  SER795  GLU796  ALA797  LYS798  CYS799  TRP800  GLU811  SER814 

> <Gold.Protein.RotatedAtoms>
  150.8083  134.7222  159.6663 H   0  0  0  0  0  0  0  0  0  0  0  0  # atno 6907 bound_to 6896
  152.4203  134.5965  159.9998 H   0  0  0  0  0  0  0  0  0  0  0  0  # atno 6908 bound_to 6896
  151.6182  133.3304  159.3118 H   0  0  0  0  0  0  0  0  0  0  0  0  # atno 6909 bound_to 6896
  145.5724  140.9463  143.1388 H   0  0  0  0  0  0  0  0  0  0  0  0  # atno 7974 bound_to 7965
  154.5604  140.0709  156.8809 H   0  0  0  0  0  0  0  0  0  0  0  0  # atno 8008 bound_to 7997
  155.2823  140.3372  155.4239 H   0  0  0  0  0  0  0  0  0  0  0  0  # atno 8009 bound_to 7997
  156.2037  140.1731  156.7831 H   0  0  0  0  0  0  0  0  0  0  0  0  # atno 8010 bound_to 7997
  139.5448  144.2265  152.0966 H   0  0  0  0  0  0  0  0  0  0  0  0  # atno 10167 bound_to 10162
  157.6734  131.0808  150.5733 H   0  0  0  0  0  0  0  0  0  0  0  0  # atno 10718 bound_to 10713
  153.8709  135.3056  155.3442 H   0  0  0  0  0  0  0  0  0  0  0  0  # atno 10763 bound_to 10752
  154.7806  135.4837  153.9839 H   0  0  0  0  0  0  0  0  0  0  0  0  # atno 10764 bound_to 10752
  153.1406  135.6823  153.9128 H   0  0  0  0  0  0  0  0  0  0  0  0  # atno 10765 bound_to 10752
  139.9597  134.9605  156.9101 H   0  0  0  0  0  0  0  0  0  0  0  0  # atno 11005 bound_to 11000
  144.7432  139.7392  143.7303 LP  0  0  0  0  0  0  0  0  0  0  0  0  # atno 17320 bound_to 7965
  146.1775  139.4952  142.9888 LP  0  0  0  0  0  0  0  0  0  0  0  0  # atno 17321 bound_to 7965
  140.1750  144.4900  150.6559 LP  0  0  0  0  0  0  0  0  0  0  0  0  # atno 17342 bound_to 10162
  140.6692  143.2279  151.5667 LP  0  0  0  0  0  0  0  0  0  0  0  0  # atno 17343 bound_to 10162
  156.6034  130.4360  149.5888 LP  0  0  0  0  0  0  0  0  0  0  0  0  # atno 17370 bound_to 10713
  156.2488  130.6895  151.1625 LP  0  0  0  0  0  0  0  0  0  0  0  0  # atno 17371 bound_to 10713
  140.5527  134.0611  155.7374 LP  0  0  0  0  0  0  0  0  0  0  0  0  # atno 17394 bound_to 11000
  141.1273  133.9361  157.2608 LP  0  0  0  0  0  0  0  0  0  0  0  0  # atno 17395 bound_to 11000

$$$$
