AV-unprocessed.smi:44|AV-procd|sdf|397|dock6
  -GOLD-   2262016253D 1   1.00000     0.00000
 Structure written by MMmdl.
 29 31  0  0  0  0  0  0  0  0  1 V2000
  151.1537  135.6901  155.1812 O   0  0  0  0  0  0  0  0  0  0  0  0
  151.0211  136.9095  155.1021 C   0  0  0  0  0  0  0  0  0  0  0  0
  150.3874  137.5320  154.0784 N   0  0  0  0  0  0  0  0  0  0  0  0
  150.2347  138.9376  153.9792 C   0  0  0  0  0  0  0  0  0  0  0  0
  150.6769  139.8037  154.8537 N   0  0  0  0  0  0  0  0  0  0  0  0
  151.3232  139.1963  155.9118 C   0  0  0  0  0  0  0  0  0  0  0  0
  151.5351  137.8590  156.1170 C   0  0  0  0  0  0  0  0  0  0  0  0
  152.2233  137.6300  157.3017 N   0  0  0  0  0  0  0  0  0  0  0  0
  152.3968  138.8642  157.7701 C   0  0  0  0  0  0  0  0  0  0  0  0
  151.8935  139.8502  157.0025 N   0  0  0  0  0  0  0  0  0  0  0  0
  151.9410  141.3139  157.3001 C   0  0  1  0  0  0  0  0  0  0  0  0
  150.5449  141.9398  157.2256 C   0  0  0  0  0  0  0  0  0  0  0  0
  150.6609  143.0249  158.2725 C   0  0  0  0  0  0  0  0  0  0  0  0
  151.5028  142.3072  159.3301 C   0  0  2  0  0  0  0  0  0  0  0  0
  152.2327  143.1874  160.3590 C   0  0  0  0  0  0  0  0  0  0  0  0
  151.4091  143.5055  161.4614 O   0  0  0  0  0  0  0  0  0  0  0  0
  152.4177  141.4930  158.6016 O   0  0  0  0  0  0  0  0  0  0  0  0
  150.0031  136.9526  153.3465 H   0  0  0  0  0  0  0  0  0  0  0  0
  152.6448  141.7398  156.5834 H   0  0  0  0  0  0  0  0  0  0  0  0
  150.8523  141.6224  159.8760 H   0  0  0  0  0  0  0  0  0  0  0  0
  149.6987  139.2442  153.0799 H   0  0  0  0  0  0  0  0  0  0  0  0
  152.9060  139.0574  158.7028 H   0  0  0  0  0  0  0  0  0  0  0  0
  150.3304  142.3115  156.2235 H   0  0  0  0  0  0  0  0  0  0  0  0
  149.7837  141.2121  157.5107 H   0  0  0  0  0  0  0  0  0  0  0  0
  151.1850  143.8843  157.8531 H   0  0  0  0  0  0  0  0  0  0  0  0
  149.6951  143.3603  158.6511 H   0  0  0  0  0  0  0  0  0  0  0  0
  153.1079  142.6596  160.7384 H   0  0  0  0  0  0  0  0  0  0  0  0
  152.5907  144.1053  159.8920 H   0  0  0  0  0  0  0  0  0  0  0  0
  151.1369  142.7004  161.8743 H   0  0  0  0  0  0  0  0  0  0  0  0
  1  2  2  0  0  0  0
  2  7  1  0  0  0  0
  2  3  1  0  0  0  0
  3 18  1  0  0  0  0
  3  4  1  0  0  0  0
  4  5  2  0  0  0  0
  4 21  1  0  0  0  0
  5  6  1  0  0  0  0
  6 10  1  0  0  0  0
  6  7  2  0  0  0  0
  7  8  1  0  0  0  0
  8  9  2  0  0  0  0
  9 10  1  0  0  0  0
  9 22  1  0  0  0  0
 10 11  1  0  0  0  0
 11 19  1  0  0  0  0
 11 17  1  0  0  0  0
 11 12  1  0  0  0  0
 12 13  1  0  0  0  0
 12 23  1  0  0  0  0
 12 24  1  0  0  0  0
 13 14  1  0  0  0  0
 13 25  1  0  0  0  0
 13 26  1  0  0  0  0
 14 20  1  0  0  0  0
 14 15  1  0  0  0  0
 14 17  1  0  0  0  0
 15 16  1  0  0  0  0
 15 27  1  0  0  0  0
 15 28  1  0  0  0  0
 16 29  1  0  0  0  0
M  END
> <s_m_source_file>
AV-unprocessed.smi

> <i_m_source_file_index>
44

> <i_lp_mmshare_version>
43012

> <i_f3d_flags>
0

> <s_epik_input>
bjFbY0hdW25IXWMoPU8pYyhjMTIpbltjSF1uMltDQEhdM1tDSDJdW0NIMl1bQ0BIXShPMylbQ0gyXVtPSF0=

> <s_epik_cmdline>
J2VwaWtfcHl0aG9uJywgJy1waCcsICc3LjAnLCAnLXRuJywgJzgnLCAnLW1hJywgJzIwMCcsICctbWV0YWxfYmluZGluZycsICctaW1hZScsICc8aW5maWxlLm1hZT4nLCAnLW9tYWUnLCAnPG91dGZpbGUubWFlPic=

> <r_lp_tautomer_probability>
0.85571

> <r_epik_Ionization_Penalty>
0.00801444

> <r_epik_Ionization_Penalty_Charging>
0.00794574

> <r_epik_Ionization_Penalty_Neutral>
6.87072e-05

> <r_epik_State_Penalty>
0.0826172

> <r_epik_Charging_Adjusted_Penalty>
0.090563

> <i_epik_Tot_Q>
0

> <i_epik_Tot_abs_Q>
0

> <r_epik_Metal_State_Penalty>
0.440697

> <b_epik_Metal_Only>
0

> <s_epik_Chemistry_Notes>
This compound contains an acetal/aminal-like group ( X-CH(R)-Y where X, Y are N, S, or O) that may be acid/base labile, releasing an aldehyde.

> <s_lp_Force_Field>
OPLS_2005

> <r_lp_Energy>
42.4933

> <b_lp_Chiralities_Consistent>
1

> <s_lp_Variant>
AV-unprocessed.smi:44-3

> <Gold.Version>
5.8.1

> <Gold.Id.Protein>
6NUR|6NUR_protein|mol2

> <Gold.PLP.Fitness>
35.9094

> <Gold.PLP.PLP>
-25.5431

> <Gold.PLP.part.hbond>
-5.0092

> <Gold.PLP.part.metal>
0.0000

> <Gold.PLP.part.buried>
-4.6978

> <Gold.PLP.part.nonpolar>
-16.7852

> <Gold.PLP.part.repulsive>
0.2468

> <Gold.PLP.ligand.clash>
0.0000

> <Gold.PLP.ligand.torsion>
0.4439

> <Gold.PLP.Chemscore.Hbond>
2.7500

> <Gold.PLP.Chemscore.CHOScore>
1.0000

> <Gold.PLP.Chemscore.Metal>
0.0000

> <Gold.Chemscore.Hbonds>
donor molecule, donor type, donor heavy atom, donor atom, acceptor molecule, acceptor atom, score
      L1  H     3    18       P1  7948  0.90
      P1  H  7989  7998       L1     5  0.65
      P1  H 10752 10764       L1     1  1.00
      L1  C     4    21       P1  7957  1.00

> <Gold.PLP.Chemscore.Internal.Correction>
0.0040

> <Gold.Rescore>
     Score         DG    S(hbond)    S(metal)    S(lipo)     H(rot)  DE(clash)    DE(int)     intcor
      6.85      -8.46       1.15        0.00      42.32       2.27       1.07       0.54       ----

> <Gold.Chemscore.Fitness>
6.8478

> <Gold.Chemscore.DG>
-8.4645

> <Gold.Chemscore.ZeroCoef>
-5.4800

> <Gold.Chemscore.Hbond>
1.1525

> <Gold.Chemscore.Metal>
0.0000

> <Gold.Chemscore.Lipo>
42.3226

> <Gold.Chemscore.Internal_Hbond>
0.0000

> <Gold.Chemscore.DEClash>
1.0748

> <Gold.Chemscore.DEInternal>
0.5419

> <Gold.Chemscore.Rot>
2.2720

> <Gold.Chemscore.Internal.Correction>
   9.000000E+99

> <Gold.Chemscore.Hbonds>
donor molecule, donor type, donor heavy atom, donor atom, acceptor molecule, acceptor atom, score
      L1  H     3    18       P1  7948  0.18
      P1  H  7989  7998       L1     5  0.05
      P1  H 10752 10764       L1     1  0.29

> <Gold.Chemscore.Hbond.Weighted>
-3.8492

> <Gold.Chemscore.Metal.Weighted>
-0.0000

> <Gold.Chemscore.Lipo.Weighted>
-4.9517

> <Gold.Chemscore.Internal_Hbond.Weighted>
0.0000

> <Gold.Chemscore.DEClash.Weighted>
1.0748

> <Gold.Chemscore.DEInternal.Weighted>
0.5419

> <Gold.Chemscore.Rot.Weighted>
5.8164

> <Gold.Chemscore.Internal.Correction.Weighted>
   9.000000E+99

> <Gold.Protein.RotatedTorsions>
[ 6907 6896 6895 6894 ] final -161.59 input  -60.11 | X-H torsion
[ 7974 7965 7964 7962 ] final   55.85 input  175.53 | X-H torsion
[ 8008 7997 7996 7995 ] final   41.05 input   59.86 | X-H torsion
[ 10167 10162 10161 10158 ] final   56.47 input  -65.29 | X-H torsion
[ 10718 10713 10712 10709 ] final  -75.65 input   66.30 | X-H torsion
[ 10763 10752 10751 10750 ] final  -40.21 input  -60.55 | X-H torsion
[ 11005 11000 10999 10996 ] final   49.93 input  -57.11 | X-H torsion

> <Gold.Protein.ActiveResidues>
 VAL166  LYS551  ARG553  GLY616  TRP617  ASP618  TYR619  PRO620  LYS621  CYS622 
 ASP623  PHE694  ASN695  SER759  ASP760  ASP761  ALA762  ILE779  LEU786  VAL792 
 PHE793  MET794  SER795  GLU796  ALA797  LYS798  CYS799  TRP800  GLU811  SER814 

> <Gold.Protein.RotatedAtoms>
  151.3671  133.3868  159.2695 H   0  0  0  0  0  0  0  0  0  0  0  0  # atno 6907 bound_to 6896
  150.9680  134.9058  159.7781 H   0  0  0  0  0  0  0  0  0  0  0  0  # atno 6908 bound_to 6896
  152.5174  134.3632  159.9344 H   0  0  0  0  0  0  0  0  0  0  0  0  # atno 6909 bound_to 6896
  145.9461  139.3931  143.0334 H   0  0  0  0  0  0  0  0  0  0  0  0  # atno 7974 bound_to 7965
  155.2632  140.3361  155.4271 H   0  0  0  0  0  0  0  0  0  0  0  0  # atno 8008 bound_to 7997
  156.2165  140.1791  156.7619 H   0  0  0  0  0  0  0  0  0  0  0  0  # atno 8009 bound_to 7997
  154.5761  140.0661  156.9021 H   0  0  0  0  0  0  0  0  0  0  0  0  # atno 8010 bound_to 7997
  140.2084  144.3915  150.6499 H   0  0  0  0  0  0  0  0  0  0  0  0  # atno 10167 bound_to 10162
  156.0200  130.4446  150.3074 H   0  0  0  0  0  0  0  0  0  0  0  0  # atno 10718 bound_to 10713
  153.9422  135.6760  153.4744 H   0  0  0  0  0  0  0  0  0  0  0  0  # atno 10763 bound_to 10752
  153.0926  135.4867  154.8715 H   0  0  0  0  0  0  0  0  0  0  0  0  # atno 10764 bound_to 10752
  154.7371  135.3152  154.8751 H   0  0  0  0  0  0  0  0  0  0  0  0  # atno 10765 bound_to 10752
  140.1061  134.5017  155.8719 H   0  0  0  0  0  0  0  0  0  0  0  0  # atno 11005 bound_to 11000
  145.8234  140.9667  143.0886 LP  0  0  0  0  0  0  0  0  0  0  0  0  # atno 17320 bound_to 7965
  144.6787  140.0071  143.7484 LP  0  0  0  0  0  0  0  0  0  0  0  0  # atno 17321 bound_to 7965
  140.6341  143.2192  151.6432 LP  0  0  0  0  0  0  0  0  0  0  0  0  # atno 17342 bound_to 10162
  139.5190  144.3268  152.0862 LP  0  0  0  0  0  0  0  0  0  0  0  0  # atno 17343 bound_to 10162
  157.1177  131.0238  151.3022 LP  0  0  0  0  0  0  0  0  0  0  0  0  # atno 17370 bound_to 10713
  157.4654  130.7677  149.7274 LP  0  0  0  0  0  0  0  0  0  0  0  0  # atno 17371 bound_to 10713
  141.2118  133.6711  156.6613 LP  0  0  0  0  0  0  0  0  0  0  0  0  # atno 17394 bound_to 11000
  140.3154  134.8051  157.4210 LP  0  0  0  0  0  0  0  0  0  0  0  0  # atno 17395 bound_to 11000

$$$$
