AV-unprocessed.smi:1538|AV-procd|sdf|6193|dock10
  -GOLD-   22720 6363D 1   1.00000     0.00000
 Structure written by MMmdl.
 37 38  0  0  0  0  0  0  0  0  2 V2000
  153.3883  143.1552  162.7828 C   0  0  0  0  0  0  0  0  0  0  0  0
  152.9635  142.6025  161.4958 N   0  0  0  0  0  0  0  0  0  0  0  0
  153.4177  141.2299  161.2319 C   0  0  0  0  0  0  0  0  0  0  0  0
  153.3336  140.8286  159.7536 C   0  0  0  0  0  0  0  0  0  0  0  0
  151.9618  141.2096  159.1829 C   0  0  2  0  0  0  0  0  0  0  0  0
  151.8370  140.7528  157.7228 C   0  0  0  0  0  0  0  0  0  0  0  0
  152.6616  139.9765  157.2391 O   0  0  0  0  0  0  0  0  0  0  0  0
  150.7962  141.2371  157.0299 N   0  0  0  0  0  0  0  0  0  0  0  0
  150.5121  140.9060  155.6409 C   0  0  0  0  0  0  0  0  0  0  0  0
  149.3843  141.7898  155.0922 C   0  0  0  0  0  0  0  0  0  0  0  0
  148.3406  140.9930  154.4443 N   0  0  0  0  0  0  0  0  0  0  0  0
  148.3736  139.6507  154.1656 C   0  0  0  0  0  0  0  0  0  0  0  0
  147.1793  139.3475  153.5638 C   0  0  0  0  0  0  0  0  0  0  0  0
  146.4690  140.5164  153.5006 N   0  3  0  0  0  0  0  0  0  0  0  0
  147.1766  141.5159  154.0376 C   0  0  0  0  0  0  0  0  0  0  0  0
  151.7546  142.7325  159.3089 C   0  0  0  0  0  0  0  0  0  0  0  0
  152.1564  143.3165  160.6740 C   0  0  0  0  0  0  0  0  0  0  0  0
  151.7480  144.4416  160.9636 O   0  0  0  0  0  0  0  0  0  0  0  0
  152.5326  143.5143  163.3570 H   0  0  0  0  0  0  0  0  0  0  0  0
  154.0716  143.9912  162.6287 H   0  0  0  0  0  0  0  0  0  0  0  0
  153.9012  142.4155  163.3987 H   0  0  0  0  0  0  0  0  0  0  0  0
  154.4452  141.1027  161.5759 H   0  0  0  0  0  0  0  0  0  0  0  0
  152.8034  140.5538  161.8279 H   0  0  0  0  0  0  0  0  0  0  0  0
  154.1262  141.3317  159.1970 H   0  0  0  0  0  0  0  0  0  0  0  0
  153.5135  139.7575  159.6517 H   0  0  0  0  0  0  0  0  0  0  0  0
  151.1922  140.7060  159.7713 H   0  0  0  0  0  0  0  0  0  0  0  0
  150.1624  141.8699  157.4963 H   0  0  0  0  0  0  0  0  0  0  0  0
  151.4167  141.0392  155.0451 H   0  0  0  0  0  0  0  0  0  0  0  0
  150.2315  139.8537  155.5716 H   0  0  0  0  0  0  0  0  0  0  0  0
  148.9249  142.3755  155.8903 H   0  0  0  0  0  0  0  0  0  0  0  0
  149.7700  142.4956  154.3552 H   0  0  0  0  0  0  0  0  0  0  0  0
  149.2210  139.0271  154.4112 H   0  0  0  0  0  0  0  0  0  0  0  0
  146.7920  138.4119  153.1868 H   0  0  0  0  0  0  0  0  0  0  0  0
  146.8672  142.5424  154.1256 H   0  0  0  0  0  0  0  0  0  0  0  0
  152.3392  143.2613  158.5543 H   0  0  0  0  0  0  0  0  0  0  0  0
  150.7094  142.9785  159.1163 H   0  0  0  0  0  0  0  0  0  0  0  0
  145.5416  140.6129  153.1061 H   0  0  0  0  0  0  0  0  0  0  0  0
  1  2  1  0  0  0  0
  1 19  1  0  0  0  0
  1 20  1  0  0  0  0
  1 21  1  0  0  0  0
  2 17  1  0  0  0  0
  2  3  1  0  0  0  0
  3  4  1  0  0  0  0
  3 22  1  0  0  0  0
  3 23  1  0  0  0  0
  4  5  1  0  0  0  0
  4 24  1  0  0  0  0
  4 25  1  0  0  0  0
  5  6  1  0  0  0  0
  5 16  1  0  0  0  0
  5 26  1  0  0  0  0
  6  7  2  0  0  0  0
  6  8  1  0  0  0  0
  8  9  1  0  0  0  0
  8 27  1  0  0  0  0
  9 10  1  0  0  0  0
  9 28  1  0  0  0  0
  9 29  1  0  0  0  0
 10 11  1  0  0  0  0
 10 30  1  0  0  0  0
 10 31  1  0  0  0  0
 11 15  1  0  0  0  0
 11 12  1  0  0  0  0
 12 13  2  0  0  0  0
 12 32  1  0  0  0  0
 13 14  1  0  0  0  0
 13 33  1  0  0  0  0
 14 15  2  0  0  0  0
 14 37  1  0  0  0  0
 15 34  1  0  0  0  0
 16 17  1  0  0  0  0
 16 35  1  0  0  0  0
 16 36  1  0  0  0  0
 17 18  2  0  0  0  0
M  CHG  1  14   1
M  END
> <s_m_source_file>
AV-unprocessed.smi

> <i_m_source_file_index>
1538

> <i_lp_mmshare_version>
43012

> <i_f3d_flags>
0

> <s_epik_input>
W0NIM11OMVtDSDJdW0NIMl1bQ0BIXShbQ0gyXUMxPU8pQyg9TylbTkhdW0NIMl1bQ0gyXW4yW2NIXVtjSF1uW2NIXTI=

> <s_epik_cmdline>
J2VwaWtfcHl0aG9uJywgJy1waCcsICc3LjAnLCAnLXRuJywgJzgnLCAnLW1hJywgJzIwMCcsICctbWV0YWxfYmluZGluZycsICctaW1hZScsICc8aW5maWxlLm1hZT4nLCAnLW9tYWUnLCAnPG91dGZpbGUubWFlPic=

> <r_lp_tautomer_probability>
1

> <r_epik_Ionization_Penalty>
0.272873

> <r_epik_Ionization_Penalty_Charging>
0

> <r_epik_Ionization_Penalty_Neutral>
0.272873

> <r_epik_State_Penalty>
0.265096

> <r_epik_Charging_Adjusted_Penalty>
0.265096

> <i_epik_Tot_Q>
1

> <i_epik_Tot_abs_Q>
1

> <r_epik_Metal_State_Penalty>
0.549113

> <b_epik_Metal_Only>
0

> <s_lp_Force_Field>
OPLS_2005

> <r_lp_Energy>
17.9959

> <b_lp_Chiralities_Consistent>
1

> <s_lp_Variant>
AV-unprocessed.smi:1538-2

> <Gold.Version>
5.8.1

> <Gold.Id.Protein>
6NUR|6NUR_protein|mol2

> <Gold.PLP.Fitness>
47.6890

> <Gold.PLP.PLP>
-40.2505

> <Gold.PLP.part.hbond>
-2.0000

> <Gold.PLP.part.metal>
0.0000

> <Gold.PLP.part.buried>
-3.6180

> <Gold.PLP.part.nonpolar>
-34.3252

> <Gold.PLP.part.repulsive>
0.2293

> <Gold.PLP.ligand.clash>
0.0000

> <Gold.PLP.ligand.torsion>
0.7629

> <Gold.PLP.Chemscore.Hbond>
2.9825

> <Gold.PLP.Chemscore.CHOScore>
0.0000

> <Gold.PLP.Chemscore.Metal>
0.0000

> <Gold.Chemscore.Hbonds>
donor molecule, donor type, donor heavy atom, donor atom, acceptor molecule, acceptor atom, score
      L1  H    14    37       P1 10175  2.00
      P1  H  7997  8008       L1     7  1.00

> <Gold.PLP.Chemscore.Internal.Correction>
0.0167

> <Gold.Rescore>
     Score         DG    S(hbond)    S(metal)    S(lipo)     H(rot)  DE(clash)    DE(int)     intcor
     14.26     -15.29       1.91        0.00      74.06       2.05       0.51       0.52       ----

> <Gold.Chemscore.Fitness>
14.2628

> <Gold.Chemscore.DG>
-15.2902

> <Gold.Chemscore.ZeroCoef>
-5.4800

> <Gold.Chemscore.Hbond>
1.9124

> <Gold.Chemscore.Metal>
0.0000

> <Gold.Chemscore.Lipo>
74.0612

> <Gold.Chemscore.Internal_Hbond>
0.0000

> <Gold.Chemscore.DEClash>
0.5060

> <Gold.Chemscore.DEInternal>
0.5215

> <Gold.Chemscore.Rot>
2.0478

> <Gold.Chemscore.Internal.Correction>
   9.000000E+99

> <Gold.Chemscore.Hbonds>
donor molecule, donor type, donor heavy atom, donor atom, acceptor molecule, acceptor atom, score
      L1  H    14    37       P1 10175  0.81
      P1  H  7997  8008       L1     7  0.96

> <Gold.Chemscore.Hbond.Weighted>
-6.3874

> <Gold.Chemscore.Metal.Weighted>
-0.0000

> <Gold.Chemscore.Lipo.Weighted>
-8.6652

> <Gold.Chemscore.Internal_Hbond.Weighted>
0.0000

> <Gold.Chemscore.DEClash.Weighted>
0.5060

> <Gold.Chemscore.DEInternal.Weighted>
0.5215

> <Gold.Chemscore.Rot.Weighted>
5.2423

> <Gold.Chemscore.Internal.Correction.Weighted>
   9.000000E+99

> <Gold.Protein.RotatedTorsions>
[ 6907 6896 6895 6894 ] final -124.97 input  -60.11 | X-H torsion
[ 7974 7965 7964 7962 ] final  -45.22 input  175.53 | X-H torsion
[ 8008 7997 7996 7995 ] final  -74.19 input   59.86 | X-H torsion
[ 10167 10162 10161 10158 ] final   25.14 input  -65.29 | X-H torsion
[ 10718 10713 10712 10709 ] final -162.68 input   66.30 | X-H torsion
[ 10763 10752 10751 10750 ] final -170.58 input  -60.55 | X-H torsion
[ 11005 11000 10999 10996 ] final -152.66 input  -57.11 | X-H torsion

> <Gold.Protein.ActiveResidues>
 VAL166  LYS551  ARG553  GLY616  TRP617  ASP618  TYR619  PRO620  LYS621  CYS622 
 ASP623  PHE694  ASN695  SER759  ASP760  ASP761  ALA762  ILE779  LEU786  VAL792 
 PHE793  MET794  SER795  GLU796  ALA797  LYS798  CYS799  TRP800  GLU811  SER814 

> <Gold.Protein.RotatedAtoms>
  150.8821  133.7358  159.2928 H   0  0  0  0  0  0  0  0  0  0  0  0  # atno 6907 bound_to 6896
  151.4936  135.1057  159.9820 H   0  0  0  0  0  0  0  0  0  0  0  0  # atno 6908 bound_to 6896
  152.4766  133.8107  159.7057 H   0  0  0  0  0  0  0  0  0  0  0  0  # atno 6909 bound_to 6896
  145.9843  140.7250  142.9348 H   0  0  0  0  0  0  0  0  0  0  0  0  # atno 7974 bound_to 7965
  154.5309  140.0766  156.8344 H   0  0  0  0  0  0  0  0  0  0  0  0  # atno 8008 bound_to 7997
  155.3376  140.3405  155.4221 H   0  0  0  0  0  0  0  0  0  0  0  0  # atno 8009 bound_to 7997
  156.1780  140.1642  156.8313 H   0  0  0  0  0  0  0  0  0  0  0  0  # atno 8010 bound_to 7997
  140.5130  144.0128  150.6381 H   0  0  0  0  0  0  0  0  0  0  0  0  # atno 10167 bound_to 10162
  156.6139  130.8862  151.2942 H   0  0  0  0  0  0  0  0  0  0  0  0  # atno 10718 bound_to 10713
  154.6399  135.2897  155.0115 H   0  0  0  0  0  0  0  0  0  0  0  0  # atno 10763 bound_to 10752
  154.1246  135.6543  153.4913 H   0  0  0  0  0  0  0  0  0  0  0  0  # atno 10764 bound_to 10752
  153.0321  135.5296  154.7262 H   0  0  0  0  0  0  0  0  0  0  0  0  # atno 10765 bound_to 10752
  140.7164  134.3775  157.5190 H   0  0  0  0  0  0  0  0  0  0  0  0  # atno 11005 bound_to 11000
  144.6870  140.2961  143.7270 LP  0  0  0  0  0  0  0  0  0  0  0  0  # atno 17320 bound_to 7965
  145.7724  139.1862  143.2205 LP  0  0  0  0  0  0  0  0  0  0  0  0  # atno 17321 bound_to 7965
  140.3456  143.2993  152.0542 LP  0  0  0  0  0  0  0  0  0  0  0  0  # atno 17342 bound_to 10162
  139.4901  144.6411  151.6875 LP  0  0  0  0  0  0  0  0  0  0  0  0  # atno 17343 bound_to 10162
  157.7246  130.9605  150.1582 LP  0  0  0  0  0  0  0  0  0  0  0  0  # atno 17370 bound_to 10713
  156.2367  130.3687  149.8383 LP  0  0  0  0  0  0  0  0  0  0  0  0  # atno 17371 bound_to 10713
  139.8859  134.8925  156.2618 LP  0  0  0  0  0  0  0  0  0  0  0  0  # atno 17394 bound_to 11000
  141.0040  133.7134  156.1006 LP  0  0  0  0  0  0  0  0  0  0  0  0  # atno 17395 bound_to 11000

$$$$
