AV-unprocessed.smi:1047|AV-procd|sdf|4584|dock9
  -GOLD-   22720 3 53D 1   1.00000     0.00000
 Structure written by MMmdl.
 58 60  0  0  0  0  0  0  0  0  4 V2000
  143.0359  136.8320  153.2707 C   0  0  0  0  0  0  0  0  0  0  0  0
  144.5521  137.0522  153.1734 C   0  0  0  0  0  0  0  0  0  0  0  0
  145.0127  138.2096  153.9813 N   0  3  1  0  0  0  0  0  0  0  0  0
  144.7511  138.0246  155.4285 C   0  0  0  0  0  0  0  0  0  0  0  0
  145.1873  139.2687  156.2201 C   0  0  0  0  0  0  0  0  0  0  0  0
  146.5648  139.5311  155.9805 O   0  0  0  0  0  0  0  0  0  0  0  0
  146.8335  139.7886  154.6064 C   0  0  1  0  0  0  0  0  0  0  0  0
  148.3122  140.1863  154.4562 C   0  0  0  0  0  0  0  0  0  0  0  0
  149.1332  139.0824  153.9166 N   0  3  0  0  0  0  0  0  0  0  0  0
  150.5738  139.1944  154.2212 C   0  0  0  0  0  0  0  0  0  0  0  0
  150.8911  138.6614  155.6285 C   0  0  1  0  0  0  0  0  0  0  0  0
  151.3751  137.3374  155.5106 O   0  0  0  0  0  0  0  0  0  0  0  0
  151.9370  139.5354  156.3491 C   0  0  0  0  0  0  0  0  0  0  0  0
  151.4215  140.8614  156.7213 N   0  0  0  0  0  0  0  0  0  0  0  0
  150.5427  141.6669  156.0640 C   0  0  0  0  0  0  0  0  0  0  0  0
  150.3893  142.7994  156.8043 N   0  3  0  0  0  0  0  0  0  0  0  0
  151.1827  142.7183  157.9504 C   0  0  0  0  0  0  0  0  0  0  0  0
  151.3618  143.6142  158.9975 C   0  0  0  0  0  0  0  0  0  0  0  0
  152.2463  143.2305  160.0306 C   0  0  0  0  0  0  0  0  0  0  0  0
  152.4624  144.1854  161.1923 C   0  0  0  0  0  0  0  0  0  0  0  0
  152.9191  141.9820  159.9891 C   0  0  0  0  0  0  0  0  0  0  0  0
  153.8639  141.5779  161.1081 C   0  0  0  0  0  0  0  0  0  0  0  0
  152.7266  141.0863  158.9130 C   0  0  0  0  0  0  0  0  0  0  0  0
  151.8498  141.4783  157.9037 C   0  0  0  0  0  0  0  0  0  0  0  0
  146.4364  138.5637  153.7548 C   0  0  0  0  0  0  0  0  0  0  0  0
  142.7470  135.9238  152.7410 H   0  0  0  0  0  0  0  0  0  0  0  0
  142.4728  137.6540  152.8295 H   0  0  0  0  0  0  0  0  0  0  0  0
  142.7185  136.7225  154.3082 H   0  0  0  0  0  0  0  0  0  0  0  0
  145.0438  136.1479  153.5351 H   0  0  0  0  0  0  0  0  0  0  0  0
  144.8568  137.1743  152.1329 H   0  0  0  0  0  0  0  0  0  0  0  0
  143.6882  137.8425  155.5927 H   0  0  0  0  0  0  0  0  0  0  0  0
  145.2865  137.1449  155.7890 H   0  0  0  0  0  0  0  0  0  0  0  0
  144.5850  140.1364  155.9460 H   0  0  0  0  0  0  0  0  0  0  0  0
  145.0406  139.1049  157.2876 H   0  0  0  0  0  0  0  0  0  0  0  0
  146.2304  140.6427  154.2921 H   0  0  0  0  0  0  0  0  0  0  0  0
  148.3965  141.0533  153.7997 H   0  0  0  0  0  0  0  0  0  0  0  0
  148.7128  140.4826  155.4265 H   0  0  0  0  0  0  0  0  0  0  0  0
  148.7907  138.2106  154.2949 H   0  0  0  0  0  0  0  0  0  0  0  0
  151.1529  138.6543  153.4706 H   0  0  0  0  0  0  0  0  0  0  0  0
  150.8610  140.2445  154.1511 H   0  0  0  0  0  0  0  0  0  0  0  0
  149.9768  138.6390  156.2235 H   0  0  0  0  0  0  0  0  0  0  0  0
  152.3138  137.3490  155.6238 H   0  0  0  0  0  0  0  0  0  0  0  0
  152.3271  139.0387  157.2380 H   0  0  0  0  0  0  0  0  0  0  0  0
  152.7937  139.7012  155.6944 H   0  0  0  0  0  0  0  0  0  0  0  0
  150.0570  141.4502  155.1233 H   0  0  0  0  0  0  0  0  0  0  0  0
  150.8459  144.5632  159.0225 H   0  0  0  0  0  0  0  0  0  0  0  0
  153.5142  144.4615  161.2711 H   0  0  0  0  0  0  0  0  0  0  0  0
  152.1538  143.7233  162.1305 H   0  0  0  0  0  0  0  0  0  0  0  0
  151.8859  145.1028  161.0672 H   0  0  0  0  0  0  0  0  0  0  0  0
  154.2937  140.5913  160.9322 H   0  0  0  0  0  0  0  0  0  0  0  0
  153.3358  141.5453  162.0615 H   0  0  0  0  0  0  0  0  0  0  0  0
  154.6861  142.2889  161.1913 H   0  0  0  0  0  0  0  0  0  0  0  0
  153.2382  140.1357  158.8859 H   0  0  0  0  0  0  0  0  0  0  0  0
  147.0619  137.7051  154.0033 H   0  0  0  0  0  0  0  0  0  0  0  0
  146.6061  138.7885  152.7022 H   0  0  0  0  0  0  0  0  0  0  0  0
  149.0292  139.0605  152.9120 H   0  0  0  0  0  0  0  0  0  0  0  0
  144.4571  139.0024  153.6920 H   0  0  0  0  0  0  0  0  0  0  0  0
  149.7891  143.5714  156.5427 H   0  0  0  0  0  0  0  0  0  0  0  0
  1  2  1  0  0  0  0
  1 26  1  0  0  0  0
  1 27  1  0  0  0  0
  1 28  1  0  0  0  0
  2  3  1  0  0  0  0
  2 29  1  0  0  0  0
  2 30  1  0  0  0  0
  3 25  1  0  0  0  0
  3  4  1  0  0  0  0
  3 57  1  0  0  0  0
  4  5  1  0  0  0  0
  4 31  1  0  0  0  0
  4 32  1  0  0  0  0
  5  6  1  0  0  0  0
  5 33  1  0  0  0  0
  5 34  1  0  0  0  0
  6  7  1  0  0  0  0
  7  8  1  0  0  0  0
  7 25  1  0  0  0  0
  7 35  1  0  0  0  0
  8  9  1  0  0  0  0
  8 36  1  0  0  0  0
  8 37  1  0  0  0  0
  9 10  1  0  0  0  0
  9 38  1  0  0  0  0
  9 56  1  0  0  0  0
 10 11  1  0  0  0  0
 10 39  1  0  0  0  0
 10 40  1  0  0  0  0
 11 12  1  0  0  0  0
 11 13  1  0  0  0  0
 11 41  1  0  0  0  0
 12 42  1  0  0  0  0
 13 14  1  0  0  0  0
 13 43  1  0  0  0  0
 13 44  1  0  0  0  0
 14 24  1  0  0  0  0
 14 15  1  0  0  0  0
 15 16  2  0  0  0  0
 15 45  1  0  0  0  0
 16 17  1  0  0  0  0
 16 58  1  0  0  0  0
 17 24  2  0  0  0  0
 17 18  1  0  0  0  0
 18 19  2  0  0  0  0
 18 46  1  0  0  0  0
 19 20  1  0  0  0  0
 19 21  1  0  0  0  0
 20 47  1  0  0  0  0
 20 48  1  0  0  0  0
 20 49  1  0  0  0  0
 21 22  1  0  0  0  0
 21 23  2  0  0  0  0
 22 50  1  0  0  0  0
 22 51  1  0  0  0  0
 22 52  1  0  0  0  0
 23 24  1  0  0  0  0
 23 53  1  0  0  0  0
 25 54  1  0  0  0  0
 25 55  1  0  0  0  0
M  CHG  1   3   1
M  CHG  1   9   1
M  CHG  1  16   1
M  END
> <s_m_source_file>
AV-unprocessed.smi

> <i_m_source_file_index>
1047

> <i_lp_mmshare_version>
43012

> <i_f3d_flags>
0

> <s_epik_input>
W0NIM11bQ0gyXU4xW0NIMl1bQ0gyXU9bQ0BIXShbQ0gyXTEpW0NIMl1bTkhdW0NIMl1bQ0BIXShbT0hdKVtDSDJdbihbY0hdbjIpYyhjMjMpW2NIXWMoW0NIM10pYyhbY0hdMylbQ0gzXQ==

> <s_epik_cmdline>
J2VwaWtfcHl0aG9uJywgJy1waCcsICc3LjAnLCAnLXRuJywgJzgnLCAnLW1hJywgJzIwMCcsICctbWV0YWxfYmluZGluZycsICctaW1hZScsICc8aW5maWxlLm1hZT4nLCAnLW9tYWUnLCAnPG91dGZpbGUubWFlPic=

> <r_epik_Ionization_Penalty>
1.6114

> <r_epik_Ionization_Penalty_Charging>
1.61139

> <r_epik_Ionization_Penalty_Neutral>
5.04732e-06

> <r_epik_State_Penalty>
1.63724

> <r_epik_Charging_Adjusted_Penalty>
3.24864

> <i_epik_Tot_Q>
3

> <i_epik_Tot_abs_Q>
3

> <r_epik_Metal_State_Penalty>
5.64594

> <b_epik_Metal_Only>
0

> <s_lp_Force_Field>
OPLS_2005

> <r_lp_Energy>
40.2566

> <b_lp_Chiralities_Consistent>
1

> <s_lp_Variant>
AV-unprocessed.smi:1047-25

> <Gold.Version>
5.8.1

> <Gold.Id.Protein>
6NUR|6NUR_protein|mol2

> <Gold.PLP.Fitness>
58.5982

> <Gold.PLP.PLP>
-47.4033

> <Gold.PLP.part.hbond>
-3.0000

> <Gold.PLP.part.metal>
0.0000

> <Gold.PLP.part.buried>
-5.0527

> <Gold.PLP.part.nonpolar>
-38.4384

> <Gold.PLP.part.repulsive>
0.1920

> <Gold.PLP.ligand.clash>
0.0000

> <Gold.PLP.ligand.torsion>
1.7841

> <Gold.PLP.Chemscore.Hbond>
4.8640

> <Gold.PLP.Chemscore.CHOScore>
0.0000

> <Gold.PLP.Chemscore.Metal>
0.0000

> <Gold.Chemscore.Hbonds>
donor molecule, donor type, donor heavy atom, donor atom, acceptor molecule, acceptor atom, score
      L1  H     3    57       P1 10175  1.89
      L1  H     9    56       P1  7957  0.76
      L1  H    16    58       P1  8028  2.00

> <Gold.PLP.Chemscore.Internal.Correction>
0.1712

> <Gold.Rescore>
     Score         DG    S(hbond)    S(metal)    S(lipo)     H(rot)  DE(clash)    DE(int)     intcor
     20.62     -22.96       2.98        0.00     125.16       2.78       0.42       1.91       ----

> <Gold.Chemscore.Fitness>
20.6244

> <Gold.Chemscore.DG>
-22.9555

> <Gold.Chemscore.ZeroCoef>
-5.4800

> <Gold.Chemscore.Hbond>
2.9822

> <Gold.Chemscore.Metal>
0.0000

> <Gold.Chemscore.Lipo>
125.1630

> <Gold.Chemscore.Internal_Hbond>
0.0000

> <Gold.Chemscore.DEClash>
0.4199

> <Gold.Chemscore.DEInternal>
1.9112

> <Gold.Chemscore.Rot>
2.7848

> <Gold.Chemscore.Internal.Correction>
   9.000000E+99

> <Gold.Chemscore.Hbonds>
donor molecule, donor type, donor heavy atom, donor atom, acceptor molecule, acceptor atom, score
      L1  H     3    57       P1 10175  0.90
      L1  H     9    56       P1  7957  0.73
      L1  H    16    58       P1  8028  1.00

> <Gold.Chemscore.Hbond.Weighted>
-9.9605

> <Gold.Chemscore.Metal.Weighted>
-0.0000

> <Gold.Chemscore.Lipo.Weighted>
-14.6441

> <Gold.Chemscore.Internal_Hbond.Weighted>
0.0000

> <Gold.Chemscore.DEClash.Weighted>
0.4199

> <Gold.Chemscore.DEInternal.Weighted>
1.9112

> <Gold.Chemscore.Rot.Weighted>
7.1291

> <Gold.Chemscore.Internal.Correction.Weighted>
   9.000000E+99

> <Gold.Protein.RotatedTorsions>
[ 6907 6896 6895 6894 ] final  -68.21 input  -60.11 | X-H torsion
[ 7974 7965 7964 7962 ] final -122.71 input  175.53 | X-H torsion
[ 8008 7997 7996 7995 ] final -120.18 input   59.86 | X-H torsion
[ 10167 10162 10161 10158 ] final  -71.62 input  -65.29 | X-H torsion
[ 10718 10713 10712 10709 ] final   19.43 input   66.30 | X-H torsion
[ 10763 10752 10751 10750 ] final  -59.10 input  -60.55 | X-H torsion
[ 11005 11000 10999 10996 ] final  -89.04 input  -57.11 | X-H torsion

> <Gold.Protein.ActiveResidues>
 VAL166  LYS551  ARG553  GLY616  TRP617  ASP618  TYR619  PRO620  LYS621  CYS622 
 ASP623  PHE694  ASN695  SER759  ASP760  ASP761  ALA762  ILE779  LEU786  VAL792 
 PHE793  MET794  SER795  GLU796  ALA797  LYS798  CYS799  TRP800  GLU811  SER814 

> <Gold.Protein.RotatedAtoms>
  150.7368  134.5771  159.5919 H   0  0  0  0  0  0  0  0  0  0  0  0  # atno 6907 bound_to 6896
  152.3195  134.7395  160.0326 H   0  0  0  0  0  0  0  0  0  0  0  0  # atno 6908 bound_to 6896
  151.7916  133.3324  159.3537 H   0  0  0  0  0  0  0  0  0  0  0  0  # atno 6909 bound_to 6896
  145.0265  140.8032  143.4349 H   0  0  0  0  0  0  0  0  0  0  0  0  # atno 7974 bound_to 7965
  155.1277  140.0399  157.2766 H   0  0  0  0  0  0  0  0  0  0  0  0  # atno 8008 bound_to 7997
  154.6566  140.2581  155.7128 H   0  0  0  0  0  0  0  0  0  0  0  0  # atno 8009 bound_to 7997
  156.2601  140.2825  156.1021 H   0  0  0  0  0  0  0  0  0  0  0  0  # atno 8010 bound_to 7997
  140.5258  143.2326  151.7350 H   0  0  0  0  0  0  0  0  0  0  0  0  # atno 10167 bound_to 10162
  157.1103  130.6506  149.5895 H   0  0  0  0  0  0  0  0  0  0  0  0  # atno 10718 bound_to 10713
  154.2484  135.6330  153.5231 H   0  0  0  0  0  0  0  0  0  0  0  0  # atno 10763 bound_to 10752
  152.9917  135.5559  154.5834 H   0  0  0  0  0  0  0  0  0  0  0  0  # atno 10764 bound_to 10752
  154.5356  135.2891  155.1116 H   0  0  0  0  0  0  0  0  0  0  0  0  # atno 10765 bound_to 10752
  141.1591  133.7606  156.9538 H   0  0  0  0  0  0  0  0  0  0  0  0  # atno 11005 bound_to 11000
  145.1827  139.2343  143.5284 LP  0  0  0  0  0  0  0  0  0  0  0  0  # atno 17320 bound_to 7965
  146.3493  140.1605  142.8591 LP  0  0  0  0  0  0  0  0  0  0  0  0  # atno 17321 bound_to 7965
  139.4938  144.4188  152.0001 LP  0  0  0  0  0  0  0  0  0  0  0  0  # atno 17342 bound_to 10162
  140.3287  144.3342  150.5992 LP  0  0  0  0  0  0  0  0  0  0  0  0  # atno 17343 bound_to 10162
  155.9852  130.4881  150.7020 LP  0  0  0  0  0  0  0  0  0  0  0  0  # atno 17370 bound_to 10713
  157.4565  131.0878  151.0791 LP  0  0  0  0  0  0  0  0  0  0  0  0  # atno 17371 bound_to 10713
  140.1239  134.9399  157.2243 LP  0  0  0  0  0  0  0  0  0  0  0  0  # atno 17394 bound_to 11000
  140.3037  134.3102  155.7283 LP  0  0  0  0  0  0  0  0  0  0  0  0  # atno 17395 bound_to 11000

$$$$
