AV-unprocessed.smi:2859|AV-procd|sdf|11004|dock7
  -GOLD-   2272015463D 1   1.00000     0.00000
 Structure written by MMmdl.
 51 52  0  0  0  0  0  0  0  0  1 V2000
  145.9654  143.2382  160.4551 C   0  0  0  0  0  0  0  0  0  0  0  0
  146.7106  144.3510  159.6843 C   0  0  0  0  0  0  0  0  0  0  0  0
  145.7690  144.8577  158.5721 C   0  0  0  0  0  0  0  0  0  0  0  0
  147.0054  145.4908  160.6813 C   0  0  0  0  0  0  0  0  0  0  0  0
  148.0269  143.8548  159.0617 C   0  0  0  0  0  0  0  0  0  0  0  0
  148.0925  142.8481  158.0683 C   0  0  0  0  0  0  0  0  0  0  0  0
  149.3754  142.5081  157.5712 C   0  0  0  0  0  0  0  0  0  0  0  0
  149.5751  141.5250  156.5751 N   0  0  0  0  0  0  0  0  0  0  0  0
  148.8338  141.6391  155.3228 C   0  0  0  0  0  0  0  0  0  0  0  0
  148.9213  140.3300  154.5236 C   0  0  0  0  0  0  0  0  0  0  0  0
  150.2853  139.9772  154.3296 O   0  0  0  0  0  0  0  0  0  0  0  0
  150.9569  139.7288  155.5644 C   0  0  1  0  0  0  0  0  0  0  0  0
  152.3839  139.2474  155.2624 C   0  0  0  0  0  0  0  0  0  0  0  0
  152.7510  138.0676  155.7712 N   0  0  0  0  0  0  0  0  0  0  0  0
  153.1566  139.9327  154.5948 O   0  0  0  0  0  0  0  0  0  0  0  0
  150.9381  141.0142  156.4225 C   0  0  0  0  0  0  0  0  0  0  0  0
  150.4755  143.1301  158.0547 N   0  0  0  0  0  0  0  0  0  0  0  0
  150.3274  144.0392  159.0235 C   0  0  0  0  0  0  0  0  0  0  0  0
  151.5765  144.8318  159.4431 C   0  0  0  0  0  0  0  0  0  0  0  0
  152.7664  144.4174  158.5585 C   0  0  0  0  0  0  0  0  0  0  0  0
  151.9246  144.5775  160.9290 C   0  0  0  0  0  0  0  0  0  0  0  0
  151.3359  146.3543  159.3129 C   0  0  0  0  0  0  0  0  0  0  0  0
  149.1542  144.4482  159.5153 N   0  0  0  0  0  0  0  0  0  0  0  0
  145.0367  143.6117  160.8880 H   0  0  0  0  0  0  0  0  0  0  0  0
  146.5653  142.8468  161.2777 H   0  0  0  0  0  0  0  0  0  0  0  0
  145.6997  142.4048  159.8037 H   0  0  0  0  0  0  0  0  0  0  0  0
  145.5518  144.0703  157.8493 H   0  0  0  0  0  0  0  0  0  0  0  0
  146.2025  145.6953  158.0245 H   0  0  0  0  0  0  0  0  0  0  0  0
  144.8179  145.2001  158.9814 H   0  0  0  0  0  0  0  0  0  0  0  0
  146.0912  145.8527  161.1528 H   0  0  0  0  0  0  0  0  0  0  0  0
  147.4746  146.3457  160.1930 H   0  0  0  0  0  0  0  0  0  0  0  0
  147.6755  145.1575  161.4746 H   0  0  0  0  0  0  0  0  0  0  0  0
  147.2006  142.3739  157.6932 H   0  0  0  0  0  0  0  0  0  0  0  0
  147.7832  141.8540  155.5204 H   0  0  0  0  0  0  0  0  0  0  0  0
  149.2380  142.4663  154.7379 H   0  0  0  0  0  0  0  0  0  0  0  0
  148.3944  139.5240  155.0368 H   0  0  0  0  0  0  0  0  0  0  0  0
  148.4446  140.4527  153.5510 H   0  0  0  0  0  0  0  0  0  0  0  0
  150.4456  138.9240  156.0954 H   0  0  0  0  0  0  0  0  0  0  0  0
  153.6839  137.7192  155.6035 H   0  0  0  0  0  0  0  0  0  0  0  0
  152.0986  137.5347  156.3274 H   0  0  0  0  0  0  0  0  0  0  0  0
  151.5495  141.7901  155.9593 H   0  0  0  0  0  0  0  0  0  0  0  0
  151.3853  140.7922  157.3919 H   0  0  0  0  0  0  0  0  0  0  0  0
  153.6727  144.9596  158.8301 H   0  0  0  0  0  0  0  0  0  0  0  0
  152.5655  144.6179  157.5054 H   0  0  0  0  0  0  0  0  0  0  0  0
  152.9781  143.3517  158.6552 H   0  0  0  0  0  0  0  0  0  0  0  0
  152.1821  143.5342  161.1159 H   0  0  0  0  0  0  0  0  0  0  0  0
  151.0894  144.8340  161.5821 H   0  0  0  0  0  0  0  0  0  0  0  0
  152.7815  145.1736  161.2440 H   0  0  0  0  0  0  0  0  0  0  0  0
  152.2017  146.9236  159.6530 H   0  0  0  0  0  0  0  0  0  0  0  0
  150.4796  146.6731  159.9085 H   0  0  0  0  0  0  0  0  0  0  0  0
  151.1495  146.6526  158.2803 H   0  0  0  0  0  0  0  0  0  0  0  0
  1  2  1  0  0  0  0
  1 24  1  0  0  0  0
  1 25  1  0  0  0  0
  1 26  1  0  0  0  0
  2  3  1  0  0  0  0
  2  4  1  0  0  0  0
  2  5  1  0  0  0  0
  3 27  1  0  0  0  0
  3 28  1  0  0  0  0
  3 29  1  0  0  0  0
  4 30  1  0  0  0  0
  4 31  1  0  0  0  0
  4 32  1  0  0  0  0
  5 23  1  0  0  0  0
  5  6  2  0  0  0  0
  6  7  1  0  0  0  0
  6 33  1  0  0  0  0
  7  8  1  0  0  0  0
  7 17  2  0  0  0  0
  8 16  1  0  0  0  0
  8  9  1  0  0  0  0
  9 10  1  0  0  0  0
  9 34  1  0  0  0  0
  9 35  1  0  0  0  0
 10 11  1  0  0  0  0
 10 36  1  0  0  0  0
 10 37  1  0  0  0  0
 11 12  1  0  0  0  0
 12 13  1  0  0  0  0
 12 16  1  0  0  0  0
 12 38  1  0  0  0  0
 13 14  1  0  0  0  0
 13 15  2  0  0  0  0
 14 39  1  0  0  0  0
 14 40  1  0  0  0  0
 16 41  1  0  0  0  0
 16 42  1  0  0  0  0
 17 18  1  0  0  0  0
 18 19  1  0  0  0  0
 18 23  2  0  0  0  0
 19 20  1  0  0  0  0
 19 21  1  0  0  0  0
 19 22  1  0  0  0  0
 20 43  1  0  0  0  0
 20 44  1  0  0  0  0
 20 45  1  0  0  0  0
 21 46  1  0  0  0  0
 21 47  1  0  0  0  0
 21 48  1  0  0  0  0
 22 49  1  0  0  0  0
 22 50  1  0  0  0  0
 22 51  1  0  0  0  0
M  END
> <s_m_source_file>
AV-unprocessed.smi

> <i_m_source_file_index>
2859

> <i_lp_mmshare_version>
43012

> <i_f3d_flags>
0

> <s_epik_input>
W0NIM11DKFtDSDNdKShbQ0gzXSljMVtjSF1jKG5jKG4xKUMoW0NIM10pKFtDSDNdKVtDSDNdKU4yW0NIMl1bQ0gyXU9bQ0BIXShbQ0gyXTIpQyg9TylbTkgyXQ==

> <s_epik_cmdline>
J2VwaWtfcHl0aG9uJywgJy1waCcsICc3LjAnLCAnLXRuJywgJzgnLCAnLW1hJywgJzIwMCcsICctbWV0YWxfYmluZGluZycsICctaW1hZScsICc8aW5maWxlLm1hZT4nLCAnLW9tYWUnLCAnPG91dGZpbGUubWFlPic=

> <r_lp_tautomer_probability>
1

> <r_epik_Ionization_Penalty>
0.0011326

> <r_epik_Ionization_Penalty_Charging>
0

> <r_epik_Ionization_Penalty_Neutral>
0.0011326

> <r_epik_State_Penalty>
0.000721507

> <r_epik_Charging_Adjusted_Penalty>
0.000721507

> <i_epik_Tot_Q>
0

> <i_epik_Tot_abs_Q>
0

> <r_epik_Metal_State_Penalty>
-0

> <b_epik_Metal_Only>
0

> <s_lp_Force_Field>
OPLS_2005

> <r_lp_Energy>
9.66703

> <b_lp_Chiralities_Consistent>
1

> <s_lp_Variant>
AV-unprocessed.smi:2859-1

> <Gold.Version>
5.8.1

> <Gold.Id.Protein>
6NUR|6NUR_protein|mol2

> <Gold.PLP.Fitness>
46.3749

> <Gold.PLP.PLP>
-40.7825

> <Gold.PLP.part.hbond>
-3.6449

> <Gold.PLP.part.metal>
0.0000

> <Gold.PLP.part.buried>
-0.5441

> <Gold.PLP.part.nonpolar>
-37.3421

> <Gold.PLP.part.repulsive>
0.6374

> <Gold.PLP.ligand.clash>
0.0000

> <Gold.PLP.ligand.torsion>
0.5121

> <Gold.PLP.Chemscore.Hbond>
2.0000

> <Gold.PLP.Chemscore.CHOScore>
0.0000

> <Gold.PLP.Chemscore.Metal>
0.0000

> <Gold.Chemscore.Hbonds>
donor molecule, donor type, donor heavy atom, donor atom, acceptor molecule, acceptor atom, score
      P1  H  7989  7998       L1    11  0.90
      P1  H  7997  8009       L1    15  1.00

> <Gold.PLP.Chemscore.Internal.Correction>
0.6165

> <Gold.Rescore>
     Score         DG    S(hbond)    S(metal)    S(lipo)     H(rot)  DE(clash)    DE(int)     intcor
     15.46     -18.16       1.88        0.00      94.74       1.83       1.94       0.76       ----

> <Gold.Chemscore.Fitness>
15.4610

> <Gold.Chemscore.DG>
-18.1595

> <Gold.Chemscore.ZeroCoef>
-5.4800

> <Gold.Chemscore.Hbond>
1.8821

> <Gold.Chemscore.Metal>
0.0000

> <Gold.Chemscore.Lipo>
94.7355

> <Gold.Chemscore.Internal_Hbond>
0.0000

> <Gold.Chemscore.DEClash>
1.9409

> <Gold.Chemscore.DEInternal>
0.7575

> <Gold.Chemscore.Rot>
1.8323

> <Gold.Chemscore.Internal.Correction>
   9.000000E+99

> <Gold.Chemscore.Hbonds>
donor molecule, donor type, donor heavy atom, donor atom, acceptor molecule, acceptor atom, score
      P1  H  7989  7998       L1    11  0.18
      P1  H  7997  8009       L1    15  0.60

> <Gold.Chemscore.Hbond.Weighted>
-6.2861

> <Gold.Chemscore.Metal.Weighted>
-0.0000

> <Gold.Chemscore.Lipo.Weighted>
-11.0841

> <Gold.Chemscore.Internal_Hbond.Weighted>
0.0000

> <Gold.Chemscore.DEClash.Weighted>
1.9409

> <Gold.Chemscore.DEInternal.Weighted>
0.7575

> <Gold.Chemscore.Rot.Weighted>
4.6907

> <Gold.Chemscore.Internal.Correction.Weighted>
   9.000000E+99

> <Gold.Protein.RotatedTorsions>
[ 6907 6896 6895 6894 ] final   -5.93 input  -60.11 | X-H torsion
[ 7974 7965 7964 7962 ] final  124.25 input  175.53 | X-H torsion
[ 8008 7997 7996 7995 ] final -117.74 input   59.86 | X-H torsion
[ 10167 10162 10161 10158 ] final   51.34 input  -65.29 | X-H torsion
[ 10718 10713 10712 10709 ] final  -98.86 input   66.30 | X-H torsion
[ 10763 10752 10751 10750 ] final -139.68 input  -60.55 | X-H torsion
[ 11005 11000 10999 10996 ] final   97.48 input  -57.11 | X-H torsion

> <Gold.Protein.ActiveResidues>
 VAL166  LYS551  ARG553  GLY616  TRP617  ASP618  TYR619  PRO620  LYS621  CYS622 
 ASP623  PHE694  ASN695  SER759  ASP760  ASP761  ALA762  ILE779  LEU786  VAL792 
 PHE793  MET794  SER795  GLU796  ALA797  LYS798  CYS799  TRP800  GLU811  SER814 

> <Gold.Protein.RotatedAtoms>
  151.4736  135.1047  159.9758 H   0  0  0  0  0  0  0  0  0  0  0  0  # atno 6907 bound_to 6896
  152.4807  133.8243  159.7080 H   0  0  0  0  0  0  0  0  0  0  0  0  # atno 6908 bound_to 6896
  150.8876  133.7225  159.2940 H   0  0  0  0  0  0  0  0  0  0  0  0  # atno 6909 bound_to 6896
  145.0866  139.3618  143.4882 H   0  0  0  0  0  0  0  0  0  0  0  0  # atno 7974 bound_to 7965
  155.0886  140.0395  157.2661 H   0  0  0  0  0  0  0  0  0  0  0  0  # atno 8008 bound_to 7997
  154.6850  140.2641  155.6845 H   0  0  0  0  0  0  0  0  0  0  0  0  # atno 8009 bound_to 7997
  156.2708  140.2771  156.1408 H   0  0  0  0  0  0  0  0  0  0  0  0  # atno 8010 bound_to 7997
  140.2630  144.3352  150.6312 H   0  0  0  0  0  0  0  0  0  0  0  0  # atno 10167 bound_to 10162
  156.0118  130.5256  150.6584 H   0  0  0  0  0  0  0  0  0  0  0  0  # atno 10718 bound_to 10713
  154.8602  135.3575  154.5586 H   0  0  0  0  0  0  0  0  0  0  0  0  # atno 10763 bound_to 10752
  153.6202  135.7006  153.5318 H   0  0  0  0  0  0  0  0  0  0  0  0  # atno 10764 bound_to 10752
  153.3135  135.4171  155.1317 H   0  0  0  0  0  0  0  0  0  0  0  0  # atno 10765 bound_to 10752
  139.8776  134.9002  156.4313 H   0  0  0  0  0  0  0  0  0  0  0  0  # atno 11005 bound_to 11000
  146.3531  140.0680  142.8625 LP  0  0  0  0  0  0  0  0  0  0  0  0  # atno 17320 bound_to 7965
  145.1116  140.9408  143.4653 LP  0  0  0  0  0  0  0  0  0  0  0  0  # atno 17321 bound_to 7965
  140.5951  143.2167  151.7180 LP  0  0  0  0  0  0  0  0  0  0  0  0  # atno 17342 bound_to 10162
  139.5011  144.3880  152.0309 LP  0  0  0  0  0  0  0  0  0  0  0  0  # atno 17343 bound_to 10162
  157.4331  131.0852  151.1018 LP  0  0  0  0  0  0  0  0  0  0  0  0  # atno 17370 bound_to 10713
  157.1585  130.6215  149.5603 LP  0  0  0  0  0  0  0  0  0  0  0  0  # atno 17371 bound_to 10713
  140.9065  133.7742  155.9741 LP  0  0  0  0  0  0  0  0  0  0  0  0  # atno 17394 bound_to 11000
  140.8594  134.2859  157.5241 LP  0  0  0  0  0  0  0  0  0  0  0  0  # atno 17395 bound_to 11000

$$$$
