AV-unprocessed.smi:31|AV-procd|sdf|196|dock4
  -GOLD-   2262015463D 1   1.00000     0.00000
 Structure written by MMmdl.
 49 52  0  0  0  0  0  0  0  0  1 V2000
  152.4032  136.3529  156.5857 O   0  0  0  0  0  0  0  0  0  0  0  0
  151.9569  137.2594  155.8815 C   0  0  0  0  0  0  0  0  0  0  0  0
  152.6704  138.6193  155.8204 C   0  0  0  0  0  0  0  0  0  0  0  0
  151.7954  139.7631  156.1596 N   0  0  0  0  0  0  0  0  0  0  0  0
  150.8161  140.1770  155.2228 C   0  0  0  0  0  0  0  0  0  0  0  0
  150.6896  139.6085  154.1373 O   0  0  0  0  0  0  0  0  0  0  0  0
  149.9828  141.3001  155.6374 C   0  0  0  0  0  0  0  0  0  0  0  0
  149.0279  141.7605  154.8114 F   0  0  0  0  0  0  0  0  0  0  0  0
  150.1539  141.8865  156.8402 C   0  0  0  0  0  0  0  0  0  0  0  0
  151.1139  141.4711  157.7457 N   0  0  0  0  0  0  0  0  0  0  0  0
  151.2883  142.1351  159.0952 C   0  0  1  0  0  0  0  0  0  0  0  0
  152.6781  142.7909  159.1999 C   0  0  0  0  0  0  0  0  0  0  0  0
  152.3499  144.1934  159.6712 C   0  0  0  0  0  0  0  0  0  0  0  0
  150.9741  144.4134  159.0608 C   0  0  0  0  0  0  0  0  0  0  0  0
  150.3417  143.1543  159.2504 O   0  0  0  0  0  0  0  0  0  0  0  0
  151.9537  140.3836  157.4215 C   0  0  0  0  0  0  0  0  0  0  0  0
  152.8034  139.9862  158.2221 O   0  0  0  0  0  0  0  0  0  0  0  0
  150.8297  137.1764  155.1512 N   0  0  0  0  0  0  0  0  0  0  0  0
  149.9465  136.0747  154.9837 C   0  0  0  0  0  0  0  0  0  0  0  0
  148.5750  136.3674  154.8622 C   0  0  0  0  0  0  0  0  0  0  0  0
  147.6390  135.3327  154.6880 C   0  0  0  0  0  0  0  0  0  0  0  0
  148.0518  133.9874  154.6249 C   0  0  0  0  0  0  0  0  0  0  0  0
  149.4442  133.6854  154.6802 C   0  0  0  0  0  0  0  0  0  0  0  0
  150.3717  134.7289  154.8811 C   0  0  0  0  0  0  0  0  0  0  0  0
  149.9692  132.4210  154.5243 O   0  0  0  0  0  0  0  0  0  0  0  0
  149.2854  131.5679  153.6181 C   0  0  0  0  0  0  0  0  0  0  0  0
  148.1129  130.8613  154.3011 C   0  0  0  0  0  0  0  0  0  0  0  0
  147.2938  131.8067  155.1819 C   0  0  0  0  0  0  0  0  0  0  0  0
  147.0538  133.0427  154.5252 O   0  0  0  0  0  0  0  0  0  0  0  0
  153.5381  138.5943  156.4819 H   0  0  0  0  0  0  0  0  0  0  0  0
  153.1029  138.7313  154.8252 H   0  0  0  0  0  0  0  0  0  0  0  0
  149.5022  142.7107  157.0865 H   0  0  0  0  0  0  0  0  0  0  0  0
  151.1039  141.3551  159.8362 H   0  0  0  0  0  0  0  0  0  0  0  0
  153.3202  142.2420  159.8892 H   0  0  0  0  0  0  0  0  0  0  0  0
  153.1555  142.8227  158.2190 H   0  0  0  0  0  0  0  0  0  0  0  0
  152.2845  144.2194  160.7598 H   0  0  0  0  0  0  0  0  0  0  0  0
  153.0830  144.9349  159.3531 H   0  0  0  0  0  0  0  0  0  0  0  0
  150.4196  145.2180  159.5439 H   0  0  0  0  0  0  0  0  0  0  0  0
  151.0542  144.6389  157.9964 H   0  0  0  0  0  0  0  0  0  0  0  0
  150.5427  138.0294  154.6938 H   0  0  0  0  0  0  0  0  0  0  0  0
  148.2307  137.3900  154.9177 H   0  0  0  0  0  0  0  0  0  0  0  0
  146.5878  135.5731  154.6258 H   0  0  0  0  0  0  0  0  0  0  0  0
  151.4187  134.4714  154.9143 H   0  0  0  0  0  0  0  0  0  0  0  0
  148.9441  132.1315  152.7473 H   0  0  0  0  0  0  0  0  0  0  0  0
  149.9888  130.8267  153.2387 H   0  0  0  0  0  0  0  0  0  0  0  0
  147.4746  130.4175  153.5368 H   0  0  0  0  0  0  0  0  0  0  0  0
  148.4794  130.0369  154.9132 H   0  0  0  0  0  0  0  0  0  0  0  0
  146.3346  131.3463  155.4190 H   0  0  0  0  0  0  0  0  0  0  0  0
  147.7913  131.9740  156.1391 H   0  0  0  0  0  0  0  0  0  0  0  0
  1  2  2  0  0  0  0
  2  3  1  0  0  0  0
  2 18  1  0  0  0  0
  3  4  1  0  0  0  0
  3 30  1  0  0  0  0
  3 31  1  0  0  0  0
  4 16  1  0  0  0  0
  4  5  1  0  0  0  0
  5  6  2  0  0  0  0
  5  7  1  0  0  0  0
  7  8  1  0  0  0  0
  7  9  2  0  0  0  0
  9 10  1  0  0  0  0
  9 32  1  0  0  0  0
 10 11  1  0  0  0  0
 10 16  1  0  0  0  0
 11 15  1  0  0  0  0
 11 12  1  0  0  0  0
 11 33  1  0  0  0  0
 12 13  1  0  0  0  0
 12 34  1  0  0  0  0
 12 35  1  0  0  0  0
 13 14  1  0  0  0  0
 13 36  1  0  0  0  0
 13 37  1  0  0  0  0
 14 15  1  0  0  0  0
 14 38  1  0  0  0  0
 14 39  1  0  0  0  0
 16 17  2  0  0  0  0
 18 19  1  0  0  0  0
 18 40  1  0  0  0  0
 19 24  1  0  0  0  0
 19 20  2  0  0  0  0
 20 21  1  0  0  0  0
 20 41  1  0  0  0  0
 21 22  2  0  0  0  0
 21 42  1  0  0  0  0
 22 29  1  0  0  0  0
 22 23  1  0  0  0  0
 23 24  2  0  0  0  0
 23 25  1  0  0  0  0
 24 43  1  0  0  0  0
 25 26  1  0  0  0  0
 26 27  1  0  0  0  0
 26 44  1  0  0  0  0
 26 45  1  0  0  0  0
 27 28  1  0  0  0  0
 27 46  1  0  0  0  0
 27 47  1  0  0  0  0
 28 29  1  0  0  0  0
 28 48  1  0  0  0  0
 28 49  1  0  0  0  0
M  END
> <s_m_source_file>
AV-unprocessed.smi

> <i_m_source_file_index>
31

> <i_lp_mmshare_version>
43012

> <i_f3d_flags>
0

> <s_epik_input>
TzFbQ0gyXVtDSDJdW0NIMl1PYyhjMTIpW2NIXWMoW2NIXVtjSF0yKVtOSF1DKD1PKVtDSDJdbjNjKD1PKWMoRilbY0hdbihjMz1PKVtDQEBIXTRbQ0gyXVtDSDJdW0NIMl1PNA==

> <s_epik_cmdline>
J2VwaWtfcHl0aG9uJywgJy1waCcsICc3LjAnLCAnLXRuJywgJzgnLCAnLW1hJywgJzIwMCcsICctbWV0YWxfYmluZGluZycsICctaW1hZScsICc8aW5maWxlLm1hZT4nLCAnLW9tYWUnLCAnPG91dGZpbGUubWFlPic=

> <r_lp_tautomer_probability>
1

> <r_epik_Ionization_Penalty>
1.0483e-05

> <r_epik_Ionization_Penalty_Charging>
3.88729e-08

> <r_epik_Ionization_Penalty_Neutral>
1.04441e-05

> <r_epik_State_Penalty>
-0

> <r_epik_Charging_Adjusted_Penalty>
3.88729e-08

> <i_epik_Tot_Q>
0

> <i_epik_Tot_abs_Q>
0

> <r_epik_Metal_State_Penalty>
-0

> <b_epik_Metal_Only>
0

> <s_epik_Chemistry_Notes>
This compound contains an acetal/aminal-like group ( X-CH(R)-Y where X, Y are N, S, or O) that may be acid/base labile, releasing an aldehyde.

> <s_lp_Force_Field>
OPLS_2005

> <r_lp_Energy>
46.1803

> <b_lp_Chiralities_Consistent>
1

> <s_lp_Variant>
AV-unprocessed.smi:31-2

> <Gold.Version>
5.8.1

> <Gold.Id.Protein>
6NUR|6NUR_protein|mol2

> <Gold.PLP.Fitness>
54.7616

> <Gold.PLP.PLP>
-46.3920

> <Gold.PLP.part.hbond>
-3.0000

> <Gold.PLP.part.metal>
0.0000

> <Gold.PLP.part.buried>
-1.5317

> <Gold.PLP.part.nonpolar>
-41.6659

> <Gold.PLP.part.repulsive>
0.5386

> <Gold.PLP.ligand.clash>
0.0000

> <Gold.PLP.ligand.torsion>
0.4855

> <Gold.PLP.Chemscore.Hbond>
2.1500

> <Gold.PLP.Chemscore.CHOScore>
0.9595

> <Gold.PLP.Chemscore.Metal>
0.0000

> <Gold.Chemscore.Hbonds>
donor molecule, donor type, donor heavy atom, donor atom, acceptor molecule, acceptor atom, score
      P1  H  7989  7998       L1     6  0.35
      P1  H  7997  8008       L1    17  0.56
      P1  H 10752 10764       L1     1  0.90
      L1  C     9    32       P1  8028  0.97

> <Gold.PLP.Chemscore.Internal.Correction>
0.0120

> <Gold.Rescore>
     Score         DG    S(hbond)    S(metal)    S(lipo)     H(rot)  DE(clash)    DE(int)     intcor
     15.79     -17.59       1.89        0.00      85.40       1.64       0.06       1.73       ----

> <Gold.Chemscore.Fitness>
15.7918

> <Gold.Chemscore.DG>
-17.5875

> <Gold.Chemscore.ZeroCoef>
-5.4800

> <Gold.Chemscore.Hbond>
1.8927

> <Gold.Chemscore.Metal>
0.0000

> <Gold.Chemscore.Lipo>
85.3959

> <Gold.Chemscore.Internal_Hbond>
0.0000

> <Gold.Chemscore.DEClash>
0.0625

> <Gold.Chemscore.DEInternal>
1.7331

> <Gold.Chemscore.Rot>
1.6427

> <Gold.Chemscore.Internal.Correction>
   9.000000E+99

> <Gold.Chemscore.Hbonds>
donor molecule, donor type, donor heavy atom, donor atom, acceptor molecule, acceptor atom, score
      P1  H  7989  7998       L1     6  0.01
      P1  H  7997  8008       L1    17  0.08
      P1  H 10752 10764       L1     1  0.18

> <Gold.Chemscore.Hbond.Weighted>
-6.3215

> <Gold.Chemscore.Metal.Weighted>
-0.0000

> <Gold.Chemscore.Lipo.Weighted>
-9.9913

> <Gold.Chemscore.Internal_Hbond.Weighted>
0.0000

> <Gold.Chemscore.DEClash.Weighted>
0.0625

> <Gold.Chemscore.DEInternal.Weighted>
1.7331

> <Gold.Chemscore.Rot.Weighted>
4.2053

> <Gold.Chemscore.Internal.Correction.Weighted>
   9.000000E+99

> <Gold.Protein.RotatedTorsions>
[ 6907 6896 6895 6894 ] final -126.75 input  -60.11 | X-H torsion
[ 7974 7965 7964 7962 ] final  122.42 input  175.53 | X-H torsion
[ 8008 7997 7996 7995 ] final  -72.74 input   59.86 | X-H torsion
[ 10167 10162 10161 10158 ] final -132.86 input  -65.29 | X-H torsion
[ 10718 10713 10712 10709 ] final    9.33 input   66.30 | X-H torsion
[ 10763 10752 10751 10750 ] final  -13.39 input  -60.55 | X-H torsion
[ 11005 11000 10999 10996 ] final  175.36 input  -57.11 | X-H torsion

> <Gold.Protein.ActiveResidues>
 VAL166  LYS551  ARG553  GLY616  TRP617  ASP618  TYR619  PRO620  LYS621  CYS622 
 ASP623  PHE694  ASN695  SER759  ASP760  ASP761  ALA762  ILE779  LEU786  VAL792 
 PHE793  MET794  SER795  GLU796  ALA797  LYS798  CYS799  TRP800  GLU811  SER814 

> <Gold.Protein.RotatedAtoms>
  150.9002  133.7129  159.2880 H   0  0  0  0  0  0  0  0  0  0  0  0  # atno 6907 bound_to 6896
  151.4650  135.1040  159.9745 H   0  0  0  0  0  0  0  0  0  0  0  0  # atno 6908 bound_to 6896
  152.4872  133.8356  159.7181 H   0  0  0  0  0  0  0  0  0  0  0  0  # atno 6909 bound_to 6896
  145.1078  139.3474  143.4779 H   0  0  0  0  0  0  0  0  0  0  0  0  # atno 7974 bound_to 7965
  154.5190  140.0792  156.8136 H   0  0  0  0  0  0  0  0  0  0  0  0  # atno 8008 bound_to 7997
  155.3617  140.3418  155.4223 H   0  0  0  0  0  0  0  0  0  0  0  0  # atno 8009 bound_to 7997
  156.1660  140.1604  156.8518 H   0  0  0  0  0  0  0  0  0  0  0  0  # atno 8010 bound_to 7997
  139.9042  143.6571  152.2589 H   0  0  0  0  0  0  0  0  0  0  0  0  # atno 10167 bound_to 10162
  156.9647  130.5946  149.5664 H   0  0  0  0  0  0  0  0  0  0  0  0  # atno 10718 bound_to 10713
  153.5126  135.7016  153.5773 H   0  0  0  0  0  0  0  0  0  0  0  0  # atno 10763 bound_to 10752
  153.3857  135.3909  155.1888 H   0  0  0  0  0  0  0  0  0  0  0  0  # atno 10764 bound_to 10752
  154.8702  135.3846  154.4607 H   0  0  0  0  0  0  0  0  0  0  0  0  # atno 10765 bound_to 10752
  140.3614  134.7109  157.4333 H   0  0  0  0  0  0  0  0  0  0  0  0  # atno 11005 bound_to 11000
  146.3527  140.0983  142.8609 LP  0  0  0  0  0  0  0  0  0  0  0  0  # atno 17320 bound_to 7965
  145.0882  140.9266  143.4785 LP  0  0  0  0  0  0  0  0  0  0  0  0  # atno 17321 bound_to 7965
  139.6999  144.7636  151.1292 LP  0  0  0  0  0  0  0  0  0  0  0  0  # atno 17342 bound_to 10162
  140.7700  143.5473  150.9245 LP  0  0  0  0  0  0  0  0  0  0  0  0  # atno 17343 bound_to 10162
  156.0307  130.5399  150.8527 LP  0  0  0  0  0  0  0  0  0  0  0  0  # atno 17370 bound_to 10713
  157.5634  131.0946  150.9526 LP  0  0  0  0  0  0  0  0  0  0  0  0  # atno 17371 bound_to 10713
  140.0624  134.5977  155.8734 LP  0  0  0  0  0  0  0  0  0  0  0  0  # atno 17394 bound_to 11000
  141.1983  133.6600  156.5784 LP  0  0  0  0  0  0  0  0  0  0  0  0  # atno 17395 bound_to 11000

$$$$
