AV-unprocessed.smi:473|AV-procd|sdf|2663|dock4
  -GOLD-   2262023 73D 1   1.00000     0.00000
 Structure written by MMmdl.
 43 45  0  0  0  0  0  0  0  0  2 V2000
  152.3446  144.7741  160.3389 C   0  0  0  0  0  0  0  0  0  0  0  0
  152.1211  143.5643  159.4474 C   0  0  0  0  0  0  0  0  0  0  0  0
  151.3888  143.7346  158.2505 C   0  0  0  0  0  0  0  0  0  0  0  0
  151.2050  142.6105  157.4541 C   0  0  0  0  0  0  0  0  0  0  0  0
  150.5458  142.4508  156.2333 N   0  3  0  0  0  0  0  0  0  0  0  0
  150.6356  141.1516  155.8347 C   0  0  0  0  0  0  0  0  0  0  0  0
  151.3425  140.4799  156.7837 N   0  0  0  0  0  0  0  0  0  0  0  0
  151.7327  139.0651  156.8492 C   0  0  0  0  0  0  0  0  0  0  0  0
  151.3393  138.3968  158.1818 C   0  0  2  0  0  0  0  0  0  0  0  0
  151.8354  137.0723  158.1929 O   0  0  0  0  0  0  0  0  0  0  0  0
  149.8155  138.3571  158.3756 C   0  0  0  0  0  0  0  0  0  0  0  0
  149.5172  137.5773  159.5259 O   0  0  0  0  0  0  0  0  0  0  0  0
  148.2682  136.9004  159.4607 C   0  0  0  0  0  0  0  0  0  0  0  0
  147.9221  136.3814  160.8226 C   0  0  0  0  0  0  0  0  0  0  0  0
  147.7324  135.1221  161.3212 C   0  0  0  0  0  0  0  0  0  0  0  0
  147.4368  135.2765  162.7039 C   0  0  0  0  0  0  0  0  0  0  0  0
  147.4759  136.6191  162.9497 C   0  0  0  0  0  0  0  0  0  0  0  0
  147.7756  137.3073  161.8148 O   0  0  0  0  0  0  0  0  0  0  0  0
  151.7180  141.3491  157.8131 C   0  0  0  0  0  0  0  0  0  0  0  0
  152.4393  141.1627  158.9897 C   0  0  0  0  0  0  0  0  0  0  0  0
  152.6400  142.2947  159.8118 C   0  0  0  0  0  0  0  0  0  0  0  0
  153.4299  142.1241  161.0984 C   0  0  0  0  0  0  0  0  0  0  0  0
  151.8905  145.6707  159.9162 H   0  0  0  0  0  0  0  0  0  0  0  0
  153.4106  144.9670  160.4619 H   0  0  0  0  0  0  0  0  0  0  0  0
  151.9053  144.6108  161.3232 H   0  0  0  0  0  0  0  0  0  0  0  0
  150.9917  144.6983  157.9660 H   0  0  0  0  0  0  0  0  0  0  0  0
  150.2253  140.7318  154.9276 H   0  0  0  0  0  0  0  0  0  0  0  0
  151.2803  138.5468  156.0027 H   0  0  0  0  0  0  0  0  0  0  0  0
  152.8127  139.0147  156.7024 H   0  0  0  0  0  0  0  0  0  0  0  0
  151.7943  138.9481  159.0053 H   0  0  0  0  0  0  0  0  0  0  0  0
  151.7122  136.7125  159.0578 H   0  0  0  0  0  0  0  0  0  0  0  0
  149.4454  139.3716  158.5293 H   0  0  0  0  0  0  0  0  0  0  0  0
  149.3132  137.9657  157.4892 H   0  0  0  0  0  0  0  0  0  0  0  0
  147.4829  137.5502  159.0713 H   0  0  0  0  0  0  0  0  0  0  0  0
  148.3647  136.0638  158.7688 H   0  0  0  0  0  0  0  0  0  0  0  0
  147.7960  134.2025  160.7585 H   0  0  0  0  0  0  0  0  0  0  0  0
  147.2252  134.5031  163.4276 H   0  0  0  0  0  0  0  0  0  0  0  0
  147.3253  137.2252  163.8310 H   0  0  0  0  0  0  0  0  0  0  0  0
  152.8359  140.1965  159.2649 H   0  0  0  0  0  0  0  0  0  0  0  0
  153.7351  141.0874  161.2448 H   0  0  0  0  0  0  0  0  0  0  0  0
  152.8300  142.4186  161.9597 H   0  0  0  0  0  0  0  0  0  0  0  0
  154.3313  142.7370  161.0770 H   0  0  0  0  0  0  0  0  0  0  0  0
  150.0726  143.1741  155.7068 H   0  0  0  0  0  0  0  0  0  0  0  0
  1  2  1  0  0  0  0
  1 23  1  0  0  0  0
  1 24  1  0  0  0  0
  1 25  1  0  0  0  0
  2 21  1  0  0  0  0
  2  3  2  0  0  0  0
  3  4  1  0  0  0  0
  3 26  1  0  0  0  0
  4 19  2  0  0  0  0
  4  5  1  0  0  0  0
  5  6  2  0  0  0  0
  5 43  1  0  0  0  0
  6  7  1  0  0  0  0
  6 27  1  0  0  0  0
  7  8  1  0  0  0  0
  7 19  1  0  0  0  0
  8  9  1  0  0  0  0
  8 28  1  0  0  0  0
  8 29  1  0  0  0  0
  9 10  1  0  0  0  0
  9 11  1  0  0  0  0
  9 30  1  0  0  0  0
 10 31  1  0  0  0  0
 11 12  1  0  0  0  0
 11 32  1  0  0  0  0
 11 33  1  0  0  0  0
 12 13  1  0  0  0  0
 13 14  1  0  0  0  0
 13 34  1  0  0  0  0
 13 35  1  0  0  0  0
 14 18  1  0  0  0  0
 14 15  2  0  0  0  0
 15 16  1  0  0  0  0
 15 36  1  0  0  0  0
 16 17  2  0  0  0  0
 16 37  1  0  0  0  0
 17 18  1  0  0  0  0
 17 38  1  0  0  0  0
 19 20  1  0  0  0  0
 20 21  2  0  0  0  0
 20 39  1  0  0  0  0
 21 22  1  0  0  0  0
 22 40  1  0  0  0  0
 22 41  1  0  0  0  0
 22 42  1  0  0  0  0
M  CHG  1   5   1
M  END
> <s_m_source_file>
AV-unprocessed.smi

> <i_m_source_file_index>
473

> <i_lp_mmshare_version>
43012

> <i_f3d_flags>
0

> <s_epik_input>
W0NIM11jKFtjSF0xKWMoW0NIM10pW2NIXWMoYzEyKW4oW2NIXW4yKVtDSDJdW0NASF0oW09IXSlbQ0gyXU9bQ0gyXWMzW2NIXVtjSF1bY0hdbzM=

> <s_epik_cmdline>
J2VwaWtfcHl0aG9uJywgJy1waCcsICc3LjAnLCAnLXRuJywgJzgnLCAnLW1hJywgJzIwMCcsICctbWV0YWxfYmluZGluZycsICctaW1hZScsICc8aW5maWxlLm1hZT4nLCAnLW9tYWUnLCAnPG91dGZpbGUubWFlPic=

> <r_epik_Ionization_Penalty>
1.03981

> <r_epik_Ionization_Penalty_Charging>
1.03981

> <r_epik_Ionization_Penalty_Neutral>
9.34185e-07

> <r_epik_State_Penalty>
1.09172

> <r_epik_Charging_Adjusted_Penalty>
2.13153

> <i_epik_Tot_Q>
1

> <i_epik_Tot_abs_Q>
1

> <r_epik_Metal_State_Penalty>
5.0824

> <b_epik_Metal_Only>
0

> <s_lp_Force_Field>
OPLS_2005

> <r_lp_Energy>
14.0474

> <b_lp_Chiralities_Consistent>
1

> <s_lp_Variant>
AV-unprocessed.smi:473-3

> <Gold.Version>
5.8.1

> <Gold.Id.Protein>
6NUR|6NUR_protein|mol2

> <Gold.PLP.Fitness>
63.6374

> <Gold.PLP.PLP>
-53.2064

> <Gold.PLP.part.hbond>
-4.0000

> <Gold.PLP.part.metal>
0.0000

> <Gold.PLP.part.buried>
-7.1111

> <Gold.PLP.part.nonpolar>
-42.2461

> <Gold.PLP.part.repulsive>
0.1003

> <Gold.PLP.ligand.clash>
0.0000

> <Gold.PLP.ligand.torsion>
0.3338

> <Gold.PLP.Chemscore.Hbond>
3.6590

> <Gold.PLP.Chemscore.CHOScore>
0.0000

> <Gold.PLP.Chemscore.Metal>
0.0000

> <Gold.Chemscore.Hbonds>
donor molecule, donor type, donor heavy atom, donor atom, acceptor molecule, acceptor atom, score
      L1  H     5    43       P1  8028  2.00
      P1  H  6931  6943       L1    18  0.99
      P1  H  6934  6947       L1    18  0.62

> <Gold.PLP.Chemscore.Internal.Correction>
0.1218

> <Gold.Rescore>
     Score         DG    S(hbond)    S(metal)    S(lipo)     H(rot)  DE(clash)    DE(int)     intcor
     21.24     -21.50       2.31        0.00     125.36       2.49       0.01       0.25       ----

> <Gold.Chemscore.Fitness>
21.2418

> <Gold.Chemscore.DG>
-21.5001

> <Gold.Chemscore.ZeroCoef>
-5.4800

> <Gold.Chemscore.Hbond>
2.3147

> <Gold.Chemscore.Metal>
0.0000

> <Gold.Chemscore.Lipo>
125.3588

> <Gold.Chemscore.Internal_Hbond>
0.0000

> <Gold.Chemscore.DEClash>
0.0073

> <Gold.Chemscore.DEInternal>
0.2510

> <Gold.Chemscore.Rot>
2.4913

> <Gold.Chemscore.Internal.Correction>
   9.000000E+99

> <Gold.Chemscore.Hbonds>
donor molecule, donor type, donor heavy atom, donor atom, acceptor molecule, acceptor atom, score
      L1  H     5    43       P1  8028  0.94
      P1  H  6931  6943       L1    18  0.68
      P1  H  6934  6947       L1    18  0.39

> <Gold.Chemscore.Hbond.Weighted>
-7.7310

> <Gold.Chemscore.Metal.Weighted>
-0.0000

> <Gold.Chemscore.Lipo.Weighted>
-14.6670

> <Gold.Chemscore.Internal_Hbond.Weighted>
0.0000

> <Gold.Chemscore.DEClash.Weighted>
0.0073

> <Gold.Chemscore.DEInternal.Weighted>
0.2510

> <Gold.Chemscore.Rot.Weighted>
6.3778

> <Gold.Chemscore.Internal.Correction.Weighted>
   9.000000E+99

> <Gold.Protein.RotatedTorsions>
[ 6907 6896 6895 6894 ] final   92.00 input  -60.11 | X-H torsion
[ 7974 7965 7964 7962 ] final   36.16 input  175.53 | X-H torsion
[ 8008 7997 7996 7995 ] final  -18.13 input   59.86 | X-H torsion
[ 10167 10162 10161 10158 ] final   95.81 input  -65.29 | X-H torsion
[ 10718 10713 10712 10709 ] final  138.58 input   66.30 | X-H torsion
[ 10763 10752 10751 10750 ] final   61.32 input  -60.55 | X-H torsion
[ 11005 11000 10999 10996 ] final   46.99 input  -57.11 | X-H torsion

> <Gold.Protein.ActiveResidues>
 VAL166  LYS551  ARG553  GLY616  TRP617  ASP618  TYR619  PRO620  LYS621  CYS622 
 ASP623  PHE694  ASN695  SER759  ASP760  ASP761  ALA762  ILE779  LEU786  VAL792 
 PHE793  MET794  SER795  GLU796  ALA797  LYS798  CYS799  TRP800  GLU811  SER814 

> <Gold.Protein.RotatedAtoms>
  152.5452  134.1570  159.8541 H   0  0  0  0  0  0  0  0  0  0  0  0  # atno 6907 bound_to 6896
  151.1591  133.4849  159.2602 H   0  0  0  0  0  0  0  0  0  0  0  0  # atno 6908 bound_to 6896
  151.1391  135.0181  159.8672 H   0  0  0  0  0  0  0  0  0  0  0  0  # atno 6909 bound_to 6896
  146.1231  139.6052  142.9276 H   0  0  0  0  0  0  0  0  0  0  0  0  # atno 7974 bound_to 7965
  154.4928  140.2124  155.9511 H   0  0  0  0  0  0  0  0  0  0  0  0  # atno 8008 bound_to 7997
  156.1329  140.3193  155.8345 H   0  0  0  0  0  0  0  0  0  0  0  0  # atno 8009 bound_to 7997
  155.4262  140.0500  157.3013 H   0  0  0  0  0  0  0  0  0  0  0  0  # atno 8010 bound_to 7997
  139.7953  144.6835  150.9837 H   0  0  0  0  0  0  0  0  0  0  0  0  # atno 10167 bound_to 10162
  157.4238  131.1041  151.0325 H   0  0  0  0  0  0  0  0  0  0  0  0  # atno 10718 bound_to 10713
  152.9947  135.5505  154.6014 H   0  0  0  0  0  0  0  0  0  0  0  0  # atno 10763 bound_to 10752
  154.5355  135.2816  155.1144 H   0  0  0  0  0  0  0  0  0  0  0  0  # atno 10764 bound_to 10752
  154.2443  135.6410  153.5270 H   0  0  0  0  0  0  0  0  0  0  0  0  # atno 10765 bound_to 10752
  140.1319  134.4694  155.8515 H   0  0  0  0  0  0  0  0  0  0  0  0  # atno 11005 bound_to 11000
  145.5423  141.0420  143.2324 LP  0  0  0  0  0  0  0  0  0  0  0  0  # atno 17320 bound_to 7965
  144.7616  139.6942  143.7232 LP  0  0  0  0  0  0  0  0  0  0  0  0  # atno 17321 bound_to 7965
  140.7820  143.4337  151.0655 LP  0  0  0  0  0  0  0  0  0  0  0  0  # atno 17342 bound_to 10162
  139.8012  143.8081  152.3163 LP  0  0  0  0  0  0  0  0  0  0  0  0  # atno 17343 bound_to 10162
  157.1246  130.6076  149.5513 LP  0  0  0  0  0  0  0  0  0  0  0  0  # atno 17370 bound_to 10713
  155.9889  130.4935  150.7192 LP  0  0  0  0  0  0  0  0  0  0  0  0  # atno 17371 bound_to 10713
  141.2171  133.6799  156.7085 LP  0  0  0  0  0  0  0  0  0  0  0  0  # atno 17394 bound_to 11000
  140.2831  134.8301  157.3951 LP  0  0  0  0  0  0  0  0  0  0  0  0  # atno 17395 bound_to 11000

$$$$
