AV-unprocessed.smi:2547|AV-procd|sdf|10006|dock5
  -GOLD-   2272014 53D 1   1.00000     0.00000
 Structure written by MMmdl.
 44 45  0  0  0  0  0  0  0  0  2 V2000
  148.9363  135.5174  155.3356 C   0  0  0  0  0  0  0  0  0  0  0  0
  149.7665  136.5586  154.6926 N   0  3  2  0  0  0  0  0  0  0  0  0
  151.2176  136.2629  154.7886 C   0  0  0  0  0  0  0  0  0  0  0  0
  152.0467  137.2935  154.0003 C   0  0  0  0  0  0  0  0  0  0  0  0
  151.7449  138.7365  154.4426 C   0  0  2  0  0  0  0  0  0  0  0  0
  152.2734  138.9842  155.7847 N   0  0  0  0  0  0  0  0  0  0  0  0
  152.1320  140.1048  156.5086 C   0  0  0  0  0  0  0  0  0  0  0  0
  151.5078  141.0794  156.0790 O   0  0  0  0  0  0  0  0  0  0  0  0
  152.7768  139.9521  157.7312 N   0  0  0  0  0  0  0  0  0  0  0  0
  152.8084  140.8888  158.6348 C   0  0  0  0  0  0  0  0  0  0  0  0
  153.5022  140.6570  159.8905 C   0  0  0  0  0  0  0  0  0  0  0  0
  153.5509  141.6091  160.8444 C   0  0  0  0  0  0  0  0  0  0  0  0
  152.9136  142.8948  160.6501 C   0  0  0  0  0  0  0  0  0  0  0  0
  152.2615  143.1458  159.4991 C   0  0  0  0  0  0  0  0  0  0  0  0
  151.6550  144.3739  159.3182 N   0  0  0  0  0  0  0  0  0  0  0  0
  151.7069  145.4004  160.3454 C   0  0  0  0  0  0  0  0  0  0  0  0
  151.2006  144.8062  158.0074 C   0  0  0  0  0  0  0  0  0  0  0  0
  152.2133  142.1592  158.5158 N   0  0  0  0  0  0  0  0  0  0  0  0
  150.2279  138.9923  154.4026 C   0  0  0  0  0  0  0  0  0  0  0  0
  149.4414  137.9218  155.1815 C   0  0  0  0  0  0  0  0  0  0  0  0
  149.1290  135.4698  156.4084 H   0  0  0  0  0  0  0  0  0  0  0  0
  149.1464  134.5377  154.9056 H   0  0  0  0  0  0  0  0  0  0  0  0
  147.8758  135.7242  155.1867 H   0  0  0  0  0  0  0  0  0  0  0  0
  151.5210  136.2527  155.8366 H   0  0  0  0  0  0  0  0  0  0  0  0
  151.4130  135.2647  154.3950 H   0  0  0  0  0  0  0  0  0  0  0  0
  153.1113  137.0805  154.1068 H   0  0  0  0  0  0  0  0  0  0  0  0
  151.8226  137.1918  152.9374 H   0  0  0  0  0  0  0  0  0  0  0  0
  152.2179  139.4119  153.7283 H   0  0  0  0  0  0  0  0  0  0  0  0
  152.7982  138.2322  156.2073 H   0  0  0  0  0  0  0  0  0  0  0  0
  153.9965  139.7179  160.0935 H   0  0  0  0  0  0  0  0  0  0  0  0
  154.0734  141.4109  161.7686 H   0  0  0  0  0  0  0  0  0  0  0  0
  152.9652  143.6433  161.4277 H   0  0  0  0  0  0  0  0  0  0  0  0
  151.8232  144.9539  161.3334 H   0  0  0  0  0  0  0  0  0  0  0  0
  150.7916  145.9931  160.3486 H   0  0  0  0  0  0  0  0  0  0  0  0
  152.5508  146.0680  160.1703 H   0  0  0  0  0  0  0  0  0  0  0  0
  150.9669  143.9479  157.3764 H   0  0  0  0  0  0  0  0  0  0  0  0
  151.9755  145.3927  157.5133 H   0  0  0  0  0  0  0  0  0  0  0  0
  150.3027  145.4188  158.0902 H   0  0  0  0  0  0  0  0  0  0  0  0
  150.0017  139.9847  154.7948 H   0  0  0  0  0  0  0  0  0  0  0  0
  149.8935  138.9936  153.3642 H   0  0  0  0  0  0  0  0  0  0  0  0
  148.3723  138.1047  155.0677 H   0  0  0  0  0  0  0  0  0  0  0  0
  149.6604  137.9904  156.2483 H   0  0  0  0  0  0  0  0  0  0  0  0
  149.5338  136.5425  153.7099 H   0  0  0  0  0  0  0  0  0  0  0  0
  151.7097  142.4084  157.6766 H   0  0  0  0  0  0  0  0  0  0  0  0
  1  2  1  0  0  0  0
  1 21  1  0  0  0  0
  1 22  1  0  0  0  0
  1 23  1  0  0  0  0
  2 20  1  0  0  0  0
  2  3  1  0  0  0  0
  2 43  1  0  0  0  0
  3  4  1  0  0  0  0
  3 24  1  0  0  0  0
  3 25  1  0  0  0  0
  4  5  1  0  0  0  0
  4 26  1  0  0  0  0
  4 27  1  0  0  0  0
  5  6  1  0  0  0  0
  5 19  1  0  0  0  0
  5 28  1  0  0  0  0
  6  7  1  0  0  0  0
  6 29  1  0  0  0  0
  7  8  2  0  0  0  0
  7  9  1  0  0  0  0
  9 10  2  0  0  0  0
 10 18  1  0  0  0  0
 10 11  1  0  0  0  0
 11 12  2  0  0  0  0
 11 30  1  0  0  0  0
 12 13  1  0  0  0  0
 12 31  1  0  0  0  0
 13 14  2  0  0  0  0
 13 32  1  0  0  0  0
 14 15  1  0  0  0  0
 14 18  1  0  0  0  0
 15 16  1  0  0  0  0
 15 17  1  0  0  0  0
 16 33  1  0  0  0  0
 16 34  1  0  0  0  0
 16 35  1  0  0  0  0
 17 36  1  0  0  0  0
 17 37  1  0  0  0  0
 17 38  1  0  0  0  0
 18 44  1  0  0  0  0
 19 20  1  0  0  0  0
 19 39  1  0  0  0  0
 19 40  1  0  0  0  0
 20 41  1  0  0  0  0
 20 42  1  0  0  0  0
M  CHG  1   2   1
M  END
> <s_m_source_file>
AV-unprocessed.smi

> <i_m_source_file_index>
2547

> <i_lp_mmshare_version>
43012

> <i_f3d_flags>
0

> <s_epik_input>
W0NIM11OMVtDSDJdW0NIMl1bQ0hdKFtDSDJdW0NIMl0xKVtOSF1DKD1PKVtOSF1jMltjSF1bY0hdW2NIXWMobjIpTihbQ0gzXSlbQ0gzXQ==

> <s_epik_cmdline>
J2VwaWtfcHl0aG9uJywgJy1waCcsICc3LjAnLCAnLXRuJywgJzgnLCAnLW1hJywgJzIwMCcsICctbWV0YWxfYmluZGluZycsICctaW1hZScsICc8aW5maWxlLm1hZT4nLCAnLW9tYWUnLCAnPG91dGZpbGUubWFlPic=

> <r_lp_tautomer_probability>
0.999994

> <r_epik_Ionization_Penalty>
1.33208

> <r_epik_Ionization_Penalty_Charging>
1.33208

> <r_epik_Ionization_Penalty_Neutral>
6.0327e-08

> <r_epik_State_Penalty>
3.49719

> <r_epik_Charging_Adjusted_Penalty>
4.82927

> <i_epik_Tot_Q>
1

> <i_epik_Tot_abs_Q>
1

> <r_epik_Metal_State_Penalty>
3.51567

> <b_epik_Metal_Only>
1

> <s_lp_Force_Field>
OPLS_2005

> <r_lp_Energy>
40.5886

> <b_lp_Chiralities_Consistent>
1

> <s_lp_Variant>
AV-unprocessed.smi:2547-6

> <Gold.Version>
5.8.1

> <Gold.Id.Protein>
6NUR|6NUR_protein|mol2

> <Gold.PLP.Fitness>
48.8457

> <Gold.PLP.PLP>
-40.2272

> <Gold.PLP.part.hbond>
-2.0000

> <Gold.PLP.part.metal>
0.0000

> <Gold.PLP.part.buried>
-1.3904

> <Gold.PLP.part.nonpolar>
-35.9167

> <Gold.PLP.part.repulsive>
0.2717

> <Gold.PLP.ligand.clash>
0.0000

> <Gold.PLP.ligand.torsion>
0.0667

> <Gold.PLP.Chemscore.Hbond>
2.8882

> <Gold.PLP.Chemscore.CHOScore>
0.0000

> <Gold.PLP.Chemscore.Metal>
0.0000

> <Gold.Chemscore.Hbonds>
donor molecule, donor type, donor heavy atom, donor atom, acceptor molecule, acceptor atom, score
      L1  H     2    43       P1  7948  2.00
      P1  H  7997  8009       L1     9  0.70

> <Gold.PLP.Chemscore.Internal.Correction>
0.0873

> <Gold.Rescore>
     Score         DG    S(hbond)    S(metal)    S(lipo)     H(rot)  DE(clash)    DE(int)     intcor
     16.14     -16.59       0.96        0.00      89.60       1.00       0.37       0.09       ----

> <Gold.Chemscore.Fitness>
16.1365

> <Gold.Chemscore.DG>
-16.5946

> <Gold.Chemscore.ZeroCoef>
-5.4800

> <Gold.Chemscore.Hbond>
0.9554

> <Gold.Chemscore.Metal>
0.0000

> <Gold.Chemscore.Lipo>
89.6044

> <Gold.Chemscore.Internal_Hbond>
0.0000

> <Gold.Chemscore.DEClash>
0.3686

> <Gold.Chemscore.DEInternal>
0.0895

> <Gold.Chemscore.Rot>
1.0000

> <Gold.Chemscore.Internal.Correction>
   9.000000E+99

> <Gold.Chemscore.Hbonds>
donor molecule, donor type, donor heavy atom, donor atom, acceptor molecule, acceptor atom, score
      L1  H     2    43       P1  7948  0.74
      P1  H  7997  8009       L1     9  0.02

> <Gold.Chemscore.Hbond.Weighted>
-3.1909

> <Gold.Chemscore.Metal.Weighted>
-0.0000

> <Gold.Chemscore.Lipo.Weighted>
-10.4837

> <Gold.Chemscore.Internal_Hbond.Weighted>
0.0000

> <Gold.Chemscore.DEClash.Weighted>
0.3686

> <Gold.Chemscore.DEInternal.Weighted>
0.0895

> <Gold.Chemscore.Rot.Weighted>
2.5600

> <Gold.Chemscore.Internal.Correction.Weighted>
   9.000000E+99

> <Gold.Protein.RotatedTorsions>
[ 6907 6896 6895 6894 ] final -177.44 input  -60.11 | X-H torsion
[ 7974 7965 7964 7962 ] final   68.92 input  175.53 | X-H torsion
[ 8008 7997 7996 7995 ] final  157.89 input   59.86 | X-H torsion
[ 10167 10162 10161 10158 ] final   39.37 input  -65.29 | X-H torsion
[ 10718 10713 10712 10709 ] final  -98.27 input   66.30 | X-H torsion
[ 10763 10752 10751 10750 ] final  173.70 input  -60.55 | X-H torsion
[ 11005 11000 10999 10996 ] final   58.61 input  -57.11 | X-H torsion

> <Gold.Protein.ActiveResidues>
 VAL166  LYS551  ARG553  GLY616  TRP617  ASP618  TYR619  PRO620  LYS621  CYS622 
 ASP623  PHE694  ASN695  SER759  ASP760  ASP761  ALA762  ILE779  LEU786  VAL792 
 PHE793  MET794  SER795  GLU796  ALA797  LYS798  CYS799  TRP800  GLU811  SER814 

> <Gold.Protein.RotatedAtoms>
  151.6211  133.3339  159.3087 H   0  0  0  0  0  0  0  0  0  0  0  0  # atno 6907 bound_to 6896
  150.8105  134.7261  159.6695 H   0  0  0  0  0  0  0  0  0  0  0  0  # atno 6908 bound_to 6896
  152.4202  134.5974  160.0042 H   0  0  0  0  0  0  0  0  0  0  0  0  # atno 6909 bound_to 6896
  145.7967  139.2961  143.1179 H   0  0  0  0  0  0  0  0  0  0  0  0  # atno 7974 bound_to 7965
  156.2336  140.1873  156.7177 H   0  0  0  0  0  0  0  0  0  0  0  0  # atno 8008 bound_to 7997
  154.6067  140.0628  156.9467 H   0  0  0  0  0  0  0  0  0  0  0  0  # atno 8009 bound_to 7997
  155.2084  140.3298  155.4335 H   0  0  0  0  0  0  0  0  0  0  0  0  # atno 8010 bound_to 7997
  140.3846  144.1934  150.6130 H   0  0  0  0  0  0  0  0  0  0  0  0  # atno 10167 bound_to 10162
  156.0103  130.5230  150.6497 H   0  0  0  0  0  0  0  0  0  0  0  0  # atno 10718 bound_to 10713
  154.4437  135.2763  155.1830 H   0  0  0  0  0  0  0  0  0  0  0  0  # atno 10763 bound_to 10752
  154.3686  135.6113  153.5731 H   0  0  0  0  0  0  0  0  0  0  0  0  # atno 10764 bound_to 10752
  152.9842  135.5852  154.4769 H   0  0  0  0  0  0  0  0  0  0  0  0  # atno 10765 bound_to 10752
  140.0365  134.5936  155.9437 H   0  0  0  0  0  0  0  0  0  0  0  0  # atno 11005 bound_to 11000
  145.9921  140.8594  143.0061 LP  0  0  0  0  0  0  0  0  0  0  0  0  # atno 17320 bound_to 7965
  144.6774  140.2230  143.7364 LP  0  0  0  0  0  0  0  0  0  0  0  0  # atno 17321 bound_to 7965
  140.4902  143.2350  151.8829 LP  0  0  0  0  0  0  0  0  0  0  0  0  # atno 17342 bound_to 10162
  139.4793  144.5174  151.8849 LP  0  0  0  0  0  0  0  0  0  0  0  0  # atno 17343 bound_to 10162
  157.4261  131.0843  151.1084 LP  0  0  0  0  0  0  0  0  0  0  0  0  # atno 17370 bound_to 10713
  157.1671  130.6251  149.5629 LP  0  0  0  0  0  0  0  0  0  0  0  0  # atno 17371 bound_to 10713
  141.1860  133.6556  156.5221 LP  0  0  0  0  0  0  0  0  0  0  0  0  # atno 17394 bound_to 11000
  140.4139  134.7248  157.4852 LP  0  0  0  0  0  0  0  0  0  0  0  0  # atno 17395 bound_to 11000

$$$$
