AV-unprocessed.smi:3018|AV-procd|sdf|11479|dock5
  -GOLD-   2272016413D 1   1.00000     0.00000
 Structure written by MMmdl.
 45 46  0  0  0  0  0  0  0  0  1 V2000
  153.6828  137.1573  157.4212 C   0  0  0  0  0  0  0  0  0  0  0  0
  152.5858  137.8926  158.2009 C   0  0  0  0  0  0  0  0  0  0  0  0
  152.2795  139.2877  157.6258 C   0  0  2  0  0  0  0  0  0  0  0  0
  151.2374  139.8640  158.4117 O   0  0  0  0  0  0  0  0  0  0  0  0
  151.3213  141.2654  158.6611 C   0  0  0  0  0  0  0  0  0  0  0  0
  151.4097  142.0470  157.3343 C   0  0  0  0  0  0  0  0  0  0  0  0
  151.6423  143.5464  157.5839 C   0  0  0  0  0  0  0  0  0  0  0  0
  152.8898  143.7841  158.4501 C   0  0  0  0  0  0  0  0  0  0  0  0
  152.8078  143.0009  159.7697 C   0  0  0  0  0  0  0  0  0  0  0  0
  152.5816  141.5029  159.5105 C   0  0  0  0  0  0  0  0  0  0  0  0
  151.8303  139.1889  156.1602 C   0  0  0  0  0  0  0  0  0  0  0  0
  152.6645  139.0532  155.2649 O   0  0  0  0  0  0  0  0  0  0  0  0
  150.5084  139.2532  155.9351 N   0  0  0  0  0  0  0  0  0  0  0  0
  149.8672  139.2067  154.6234 C   0  0  0  0  0  0  0  0  0  0  0  0
  148.9705  140.4367  154.3693 C   0  0  0  0  0  0  0  0  0  0  0  0
  147.8821  140.2200  153.3304 C   0  0  0  0  0  0  0  0  0  0  0  0
  146.9476  141.0293  152.9741 N   0  0  0  0  0  0  0  0  0  0  0  0
  146.3255  140.3041  152.0114 N   0  0  0  0  0  0  0  0  0  0  0  0
  146.8660  139.1000  151.7903 C   0  0  0  0  0  0  0  0  0  0  0  0
  146.5066  138.2507  150.9784 O   0  0  0  0  0  0  0  0  0  0  0  0
  147.8771  139.0300  152.6469 N   0  0  0  0  0  0  0  0  0  0  0  0
  145.5284  140.6995  151.5337 H   0  0  0  0  0  0  0  0  0  0  0  0
  148.5297  138.2692  152.7663 H   0  0  0  0  0  0  0  0  0  0  0  0
  153.8707  136.1736  157.8517 H   0  0  0  0  0  0  0  0  0  0  0  0
  154.6211  137.7123  157.4399 H   0  0  0  0  0  0  0  0  0  0  0  0
  153.3976  137.0153  156.3785 H   0  0  0  0  0  0  0  0  0  0  0  0
  151.6815  137.2821  158.1879 H   0  0  0  0  0  0  0  0  0  0  0  0
  152.8830  137.9767  159.2473 H   0  0  0  0  0  0  0  0  0  0  0  0
  153.1839  139.8944  157.6893 H   0  0  0  0  0  0  0  0  0  0  0  0
  150.4602  141.6151  159.2319 H   0  0  0  0  0  0  0  0  0  0  0  0
  152.2245  141.6479  156.7288 H   0  0  0  0  0  0  0  0  0  0  0  0
  150.4996  141.9176  156.7494 H   0  0  0  0  0  0  0  0  0  0  0  0
  151.7462  144.0696  156.6329 H   0  0  0  0  0  0  0  0  0  0  0  0
  150.7684  143.9733  158.0779 H   0  0  0  0  0  0  0  0  0  0  0  0
  153.7804  143.4784  157.8997 H   0  0  0  0  0  0  0  0  0  0  0  0
  153.0039  144.8489  158.6554 H   0  0  0  0  0  0  0  0  0  0  0  0
  153.7223  143.1448  160.3457 H   0  0  0  0  0  0  0  0  0  0  0  0
  151.9929  143.3938  160.3790 H   0  0  0  0  0  0  0  0  0  0  0  0
  152.4947  140.9717  160.4587 H   0  0  0  0  0  0  0  0  0  0  0  0
  153.4516  141.0864  159.0013 H   0  0  0  0  0  0  0  0  0  0  0  0
  149.9003  139.3562  156.7347 H   0  0  0  0  0  0  0  0  0  0  0  0
  150.6012  139.0801  153.8255 H   0  0  0  0  0  0  0  0  0  0  0  0
  149.2489  138.3091  154.6019 H   0  0  0  0  0  0  0  0  0  0  0  0
  148.4917  140.7304  155.3039 H   0  0  0  0  0  0  0  0  0  0  0  0
  149.5865  141.2852  154.0681 H   0  0  0  0  0  0  0  0  0  0  0  0
  1  2  1  0  0  0  0
  1 24  1  0  0  0  0
  1 25  1  0  0  0  0
  1 26  1  0  0  0  0
  2  3  1  0  0  0  0
  2 27  1  0  0  0  0
  2 28  1  0  0  0  0
  3  4  1  0  0  0  0
  3 11  1  0  0  0  0
  3 29  1  0  0  0  0
  4  5  1  0  0  0  0
  5 10  1  0  0  0  0
  5  6  1  0  0  0  0
  5 30  1  0  0  0  0
  6  7  1  0  0  0  0
  6 31  1  0  0  0  0
  6 32  1  0  0  0  0
  7  8  1  0  0  0  0
  7 33  1  0  0  0  0
  7 34  1  0  0  0  0
  8  9  1  0  0  0  0
  8 35  1  0  0  0  0
  8 36  1  0  0  0  0
  9 10  1  0  0  0  0
  9 37  1  0  0  0  0
  9 38  1  0  0  0  0
 10 39  1  0  0  0  0
 10 40  1  0  0  0  0
 11 12  2  0  0  0  0
 11 13  1  0  0  0  0
 13 14  1  0  0  0  0
 13 41  1  0  0  0  0
 14 15  1  0  0  0  0
 14 42  1  0  0  0  0
 14 43  1  0  0  0  0
 15 16  1  0  0  0  0
 15 44  1  0  0  0  0
 15 45  1  0  0  0  0
 16 21  1  0  0  0  0
 16 17  2  0  0  0  0
 17 18  1  0  0  0  0
 18 22  1  0  0  0  0
 18 19  1  0  0  0  0
 19 20  2  0  0  0  0
 19 21  1  0  0  0  0
 21 23  1  0  0  0  0
M  END
> <s_m_source_file>
AV-unprocessed.smi

> <i_m_source_file_index>
3018

> <i_lp_mmshare_version>
43012

> <i_f3d_flags>
0

> <s_epik_input>
W0NIMl0xW0NIMl1bQ0gyXVtDSDJdW0NIMl1bQ0hdMU9bQ0BASF0oW0NIMl1bQ0gzXSlDKD1PKVtOSF1bQ0gyXVtDSDJdYzJuW25IXWMoPU8pW25IXTI=

> <s_epik_cmdline>
J2VwaWtfcHl0aG9uJywgJy1waCcsICc3LjAnLCAnLXRuJywgJzgnLCAnLW1hJywgJzIwMCcsICctbWV0YWxfYmluZGluZycsICctaW1hZScsICc8aW5maWxlLm1hZT4nLCAnLW9tYWUnLCAnPG91dGZpbGUubWFlPic=

> <r_lp_tautomer_probability>
1

> <r_epik_Ionization_Penalty>
0.000773817

> <r_epik_Ionization_Penalty_Charging>
0.000773741

> <r_epik_Ionization_Penalty_Neutral>
7.58514e-08

> <r_epik_State_Penalty>
-0

> <r_epik_Charging_Adjusted_Penalty>
0.000773741

> <i_epik_Tot_Q>
0

> <i_epik_Tot_abs_Q>
0

> <r_epik_Metal_State_Penalty>
0.495152

> <b_epik_Metal_Only>
0

> <s_lp_Force_Field>
OPLS_2005

> <r_lp_Energy>
32.5004

> <b_lp_Chiralities_Consistent>
1

> <s_lp_Variant>
AV-unprocessed.smi:3018-1

> <Gold.Version>
5.8.1

> <Gold.Id.Protein>
6NUR|6NUR_protein|mol2

> <Gold.PLP.Fitness>
44.9471

> <Gold.PLP.PLP>
-37.3721

> <Gold.PLP.part.hbond>
-5.2891

> <Gold.PLP.part.metal>
0.0000

> <Gold.PLP.part.buried>
-2.7994

> <Gold.PLP.part.nonpolar>
-32.7158

> <Gold.PLP.part.repulsive>
2.0761

> <Gold.PLP.ligand.clash>
0.0000

> <Gold.PLP.ligand.torsion>
1.2189

> <Gold.PLP.Chemscore.Hbond>
3.3010

> <Gold.PLP.Chemscore.CHOScore>
0.0000

> <Gold.PLP.Chemscore.Metal>
0.0000

> <Gold.Chemscore.Hbonds>
donor molecule, donor type, donor heavy atom, donor atom, acceptor molecule, acceptor atom, score
      L1  H    18    22       P1 10175  0.07
      L1  H    21    23       P1  7948  0.36
      P1  H  7954  7966       L1    20  1.00
      P1  H  7997  8010       L1    12  0.59

> <Gold.PLP.Chemscore.Internal.Correction>
0.1098

> <Gold.Rescore>
     Score         DG    S(hbond)    S(metal)    S(lipo)     H(rot)  DE(clash)    DE(int)     intcor
     13.14     -14.31       1.92        0.00      87.03       3.04       0.02       1.14       ----

> <Gold.Chemscore.Fitness>
13.1420

> <Gold.Chemscore.DG>
-14.3101

> <Gold.Chemscore.ZeroCoef>
-5.4800

> <Gold.Chemscore.Hbond>
1.9226

> <Gold.Chemscore.Metal>
0.0000

> <Gold.Chemscore.Lipo>
87.0290

> <Gold.Chemscore.Internal_Hbond>
0.0000

> <Gold.Chemscore.DEClash>
0.0234

> <Gold.Chemscore.DEInternal>
1.1447

> <Gold.Chemscore.Rot>
3.0367

> <Gold.Chemscore.Internal.Correction>
   9.000000E+99

> <Gold.Chemscore.Hbonds>
donor molecule, donor type, donor heavy atom, donor atom, acceptor molecule, acceptor atom, score
      L1  H    21    23       P1  7948  0.37
      P1  H  7954  7966       L1    20  0.41
      P1  H  7997  8010       L1    12  0.29

> <Gold.Chemscore.Hbond.Weighted>
-6.4216

> <Gold.Chemscore.Metal.Weighted>
-0.0000

> <Gold.Chemscore.Lipo.Weighted>
-10.1824

> <Gold.Chemscore.Internal_Hbond.Weighted>
0.0000

> <Gold.Chemscore.DEClash.Weighted>
0.0234

> <Gold.Chemscore.DEInternal.Weighted>
1.1447

> <Gold.Chemscore.Rot.Weighted>
7.7739

> <Gold.Chemscore.Internal.Correction.Weighted>
   9.000000E+99

> <Gold.Protein.RotatedTorsions>
[ 6907 6896 6895 6894 ] final   14.58 input  -60.11 | X-H torsion
[ 7974 7965 7964 7962 ] final  179.94 input  175.53 | X-H torsion
[ 8008 7997 7996 7995 ] final  100.93 input   59.86 | X-H torsion
[ 10167 10162 10161 10158 ] final -128.75 input  -65.29 | X-H torsion
[ 10718 10713 10712 10709 ] final -142.44 input   66.30 | X-H torsion
[ 10763 10752 10751 10750 ] final   74.75 input  -60.55 | X-H torsion
[ 11005 11000 10999 10996 ] final   83.39 input  -57.11 | X-H torsion

> <Gold.Protein.ActiveResidues>
 VAL166  LYS551  ARG553  GLY616  TRP617  ASP618  TYR619  PRO620  LYS621  CYS622 
 ASP623  PHE694  ASN695  SER759  ASP760  ASP761  ALA762  ILE779  LEU786  VAL792 
 PHE793  MET794  SER795  GLU796  ALA797  LYS798  CYS799  TRP800  GLU811  SER814 

> <Gold.Protein.RotatedAtoms>
  151.8045  135.0699  160.0404 H   0  0  0  0  0  0  0  0  0  0  0  0  # atno 6907 bound_to 6896
  152.3065  133.5704  159.5661 H   0  0  0  0  0  0  0  0  0  0  0  0  # atno 6908 bound_to 6896
  150.7299  134.0131  159.3718 H   0  0  0  0  0  0  0  0  0  0  0  0  # atno 6909 bound_to 6896
  144.7141  140.0623  143.6432 H   0  0  0  0  0  0  0  0  0  0  0  0  # atno 7974 bound_to 7965
  156.1250  140.3205  155.8264 H   0  0  0  0  0  0  0  0  0  0  0  0  # atno 8008 bound_to 7997
  155.4435  140.0527  157.3025 H   0  0  0  0  0  0  0  0  0  0  0  0  # atno 8009 bound_to 7997
  154.4856  140.2071  155.9677 H   0  0  0  0  0  0  0  0  0  0  0  0  # atno 8010 bound_to 7997
  139.9470  143.6099  152.2487 H   0  0  0  0  0  0  0  0  0  0  0  0  # atno 10167 bound_to 10162
  156.3460  130.7662  151.1807 H   0  0  0  0  0  0  0  0  0  0  0  0  # atno 10718 bound_to 10713
  153.0608  135.5014  154.8088 H   0  0  0  0  0  0  0  0  0  0  0  0  # atno 10763 bound_to 10752
  154.6879  135.2979  154.9524 H   0  0  0  0  0  0  0  0  0  0  0  0  # atno 10764 bound_to 10752
  154.0288  135.6732  153.4831 H   0  0  0  0  0  0  0  0  0  0  0  0  # atno 10765 bound_to 10752
  139.9033  134.8141  156.2302 H   0  0  0  0  0  0  0  0  0  0  0  0  # atno 11005 bound_to 11000
  145.9853  139.2973  143.1017 LP  0  0  0  0  0  0  0  0  0  0  0  0  # atno 17320 bound_to 7965
  145.8964  140.9271  143.0525 LP  0  0  0  0  0  0  0  0  0  0  0  0  # atno 17321 bound_to 7965
  139.6659  144.7662  151.1874 LP  0  0  0  0  0  0  0  0  0  0  0  0  # atno 17342 bound_to 10162
  140.7594  143.5939  150.8768 LP  0  0  0  0  0  0  0  0  0  0  0  0  # atno 17343 bound_to 10162
  157.7454  131.0441  150.4777 LP  0  0  0  0  0  0  0  0  0  0  0  0  # atno 17370 bound_to 10713
  156.4964  130.4107  149.6377 LP  0  0  0  0  0  0  0  0  0  0  0  0  # atno 17371 bound_to 10713
  141.0350  133.6968  156.1496 LP  0  0  0  0  0  0  0  0  0  0  0  0  # atno 17394 bound_to 11000
  140.7040  134.4533  157.5585 LP  0  0  0  0  0  0  0  0  0  0  0  0  # atno 17395 bound_to 11000

$$$$
