AV-unprocessed.smi:198|AV-procd|sdf|1555|dock8
  -GOLD-   2262019423D 1   1.00000     0.00000
 Structure written by MMmdl.
 59 63  0  0  0  0  0  0  0  0  2 V2000
  145.9443  137.7907  152.3726 C   0  0  0  0  0  0  0  0  0  0  0  0
  145.6870  136.3402  152.2469 N   0  3  2  0  0  0  0  0  0  0  0  0
  146.3287  135.5573  153.3311 C   0  0  0  0  0  0  0  0  0  0  0  0
  145.9158  134.0801  153.2586 C   0  0  0  0  0  0  0  0  0  0  0  0
  146.2569  133.4794  151.8779 C   0  0  2  0  0  0  0  0  0  0  0  0
  145.6489  134.3348  150.7409 C   0  0  1  0  0  0  0  0  0  0  0  0
  144.1250  134.1270  150.6178 C   0  0  0  0  0  0  0  0  0  0  0  0
  143.7994  132.6336  150.4760 C   0  0  0  0  0  0  0  0  0  0  0  0
  144.4039  131.8225  151.6323 C   0  0  0  0  0  0  0  0  0  0  0  0
  145.8423  132.0761  151.7532 N   0  0  0  0  0  0  0  0  0  0  0  0
  146.5789  131.1826  152.4643 C   0  0  0  0  0  0  0  0  0  0  0  0
  146.2304  129.8679  152.4610 N   0  0  0  0  0  0  0  0  0  0  0  0
  146.9329  128.9803  153.1709 C   0  0  0  0  0  0  0  0  0  0  0  0
  147.9992  129.1881  153.9447 N   0  0  0  0  0  0  0  0  0  0  0  0
  148.3576  130.5039  153.9513 C   0  0  0  0  0  0  0  0  0  0  0  0
  147.7126  131.5561  153.2409 C   0  0  0  0  0  0  0  0  0  0  0  0
  148.3786  132.7549  153.4678 N   0  0  0  0  0  0  0  0  0  0  0  0
  149.3572  132.4306  154.2678 C   0  0  0  0  0  0  0  0  0  0  0  0
  149.4004  131.1047  154.6351 N   0  0  0  0  0  0  0  0  0  0  0  0
  150.3853  130.4755  155.4661 C   0  0  0  0  0  0  0  0  0  0  0  0
  151.8691  130.8427  155.3481 C   0  0  0  0  0  0  0  0  0  0  0  0
  152.2625  129.3683  155.5963 C   0  0  0  0  0  0  0  0  0  0  0  0
  153.3511  128.7870  154.6747 C   0  0  0  0  0  0  0  0  0  0  0  0
  153.2668  127.3816  154.5446 O   0  0  0  0  0  0  0  0  0  0  0  0
  152.7175  129.0148  157.0278 C   0  0  0  0  0  0  0  0  0  0  0  0
  152.8364  127.6248  157.2539 O   0  0  0  0  0  0  0  0  0  0  0  0
  150.8005  129.0169  155.2376 C   0  0  0  0  0  0  0  0  0  0  0  0
  146.0353  135.8198  150.9005 C   0  0  0  0  0  0  0  0  0  0  0  0
  147.0083  138.0097  152.2725 H   0  0  0  0  0  0  0  0  0  0  0  0
  145.6086  138.1588  153.3426 H   0  0  0  0  0  0  0  0  0  0  0  0
  145.4065  138.3455  151.6031 H   0  0  0  0  0  0  0  0  0  0  0  0
  147.4135  135.6499  153.2585 H   0  0  0  0  0  0  0  0  0  0  0  0
  146.0391  135.9669  154.2996 H   0  0  0  0  0  0  0  0  0  0  0  0
  146.4253  133.5240  154.0463 H   0  0  0  0  0  0  0  0  0  0  0  0
  144.8493  133.9937  153.4665 H   0  0  0  0  0  0  0  0  0  0  0  0
  147.3382  133.5380  151.7625 H   0  0  0  0  0  0  0  0  0  0  0  0
  146.0880  133.9898  149.8033 H   0  0  0  0  0  0  0  0  0  0  0  0
  143.6105  134.5310  151.4901 H   0  0  0  0  0  0  0  0  0  0  0  0
  143.7398  134.6703  149.7544 H   0  0  0  0  0  0  0  0  0  0  0  0
  142.7195  132.4864  150.4418 H   0  0  0  0  0  0  0  0  0  0  0  0
  144.1928  132.2632  149.5285 H   0  0  0  0  0  0  0  0  0  0  0  0
  143.9052  132.0737  152.5689 H   0  0  0  0  0  0  0  0  0  0  0  0
  144.2264  130.7612  151.4523 H   0  0  0  0  0  0  0  0  0  0  0  0
  146.5895  127.9579  153.1138 H   0  0  0  0  0  0  0  0  0  0  0  0
  150.0757  133.1577  154.6177 H   0  0  0  0  0  0  0  0  0  0  0  0
  150.0380  130.6174  156.4902 H   0  0  0  0  0  0  0  0  0  0  0  0
  152.1244  131.2025  154.3506 H   0  0  0  0  0  0  0  0  0  0  0  0
  152.2165  131.5428  156.1084 H   0  0  0  0  0  0  0  0  0  0  0  0
  153.2827  129.2173  153.6750 H   0  0  0  0  0  0  0  0  0  0  0  0
  154.3460  129.0258  155.0522 H   0  0  0  0  0  0  0  0  0  0  0  0
  153.0775  127.1739  153.6425 H   0  0  0  0  0  0  0  0  0  0  0  0
  153.6855  129.4668  157.2471 H   0  0  0  0  0  0  0  0  0  0  0  0
  152.0157  129.4086  157.7639 H   0  0  0  0  0  0  0  0  0  0  0  0
  153.4475  127.2690  156.6268 H   0  0  0  0  0  0  0  0  0  0  0  0
  150.3225  128.3066  155.9129 H   0  0  0  0  0  0  0  0  0  0  0  0
  150.6706  128.7065  154.2000 H   0  0  0  0  0  0  0  0  0  0  0  0
  145.5386  136.4157  150.1335 H   0  0  0  0  0  0  0  0  0  0  0  0
  147.1083  135.9394  150.7410 H   0  0  0  0  0  0  0  0  0  0  0  0
  144.6902  136.2163  152.3539 H   0  0  0  0  0  0  0  0  0  0  0  0
  1  2  1  0  0  0  0
  1 29  1  0  0  0  0
  1 30  1  0  0  0  0
  1 31  1  0  0  0  0
  2 28  1  0  0  0  0
  2  3  1  0  0  0  0
  2 59  1  0  0  0  0
  3  4  1  0  0  0  0
  3 32  1  0  0  0  0
  3 33  1  0  0  0  0
  4  5  1  0  0  0  0
  4 34  1  0  0  0  0
  4 35  1  0  0  0  0
  5 10  1  0  0  0  0
  5  6  1  0  0  0  0
  5 36  1  0  0  0  0
  6  7  1  0  0  0  0
  6 28  1  0  0  0  0
  6 37  1  0  0  0  0
  7  8  1  0  0  0  0
  7 38  1  0  0  0  0
  7 39  1  0  0  0  0
  8  9  1  0  0  0  0
  8 40  1  0  0  0  0
  8 41  1  0  0  0  0
  9 10  1  0  0  0  0
  9 42  1  0  0  0  0
  9 43  1  0  0  0  0
 10 11  1  0  0  0  0
 11 16  1  0  0  0  0
 11 12  2  0  0  0  0
 12 13  1  0  0  0  0
 13 14  2  0  0  0  0
 13 44  1  0  0  0  0
 14 15  1  0  0  0  0
 15 19  1  0  0  0  0
 15 16  2  0  0  0  0
 16 17  1  0  0  0  0
 17 18  2  0  0  0  0
 18 19  1  0  0  0  0
 18 45  1  0  0  0  0
 19 20  1  0  0  0  0
 20 27  1  0  0  0  0
 20 21  1  0  0  0  0
 20 46  1  0  0  0  0
 21 22  1  0  0  0  0
 21 47  1  0  0  0  0
 21 48  1  0  0  0  0
 22 23  1  0  0  0  0
 22 25  1  0  0  0  0
 22 27  1  0  0  0  0
 23 24  1  0  0  0  0
 23 49  1  0  0  0  0
 23 50  1  0  0  0  0
 24 51  1  0  0  0  0
 25 26  1  0  0  0  0
 25 52  1  0  0  0  0
 25 53  1  0  0  0  0
 26 54  1  0  0  0  0
 27 55  1  0  0  0  0
 27 56  1  0  0  0  0
 28 57  1  0  0  0  0
 28 58  1  0  0  0  0
M  CHG  1   2   1
M  END
> <s_m_source_file>
AV-unprocessed.smi

> <i_m_source_file_index>
198

> <i_lp_mmshare_version>
43012

> <i_f3d_flags>
0

> <s_epik_input>
W0NIMl0xW0NIMl1OKFtDSDNdKVtDSDJdW0NAQEhdKFtDQEhdMTIpW0NIMl1bQ0gyXVtDSDJdTjJjKG5bY0hdbjMpYyhjMzQpbltjSF1uNFtDSF0oW0NIMl01KVtDSDJdQzUoW0NIMl1bT0hdKVtDSDJdW09IXQ==

> <s_epik_cmdline>
J2VwaWtfcHl0aG9uJywgJy1waCcsICc3LjAnLCAnLXRuJywgJzgnLCAnLW1hJywgJzIwMCcsICctbWV0YWxfYmluZGluZycsICctaW1hZScsICc8aW5maWxlLm1hZT4nLCAnLW9tYWUnLCAnPG91dGZpbGUubWFlPic=

> <r_lp_tautomer_probability>
1

> <r_epik_Ionization_Penalty>
0.00239938

> <r_epik_Ionization_Penalty_Charging>
0.00138697

> <r_epik_Ionization_Penalty_Neutral>
0.00101241

> <r_epik_State_Penalty>
-0

> <r_epik_Charging_Adjusted_Penalty>
0.00138697

> <i_epik_Tot_Q>
1

> <i_epik_Tot_abs_Q>
1

> <r_epik_Metal_State_Penalty>
-0

> <b_epik_Metal_Only>
0

> <s_lp_Force_Field>
OPLS_2005

> <r_lp_Energy>
59.0053

> <b_lp_Chiralities_Consistent>
1

> <s_lp_Variant>
AV-unprocessed.smi:198-4

> <Gold.Version>
5.8.1

> <Gold.Id.Protein>
6NUR|6NUR_protein|mol2

> <Gold.PLP.Fitness>
41.9668

> <Gold.PLP.PLP>
-40.5860

> <Gold.PLP.part.hbond>
-1.0000

> <Gold.PLP.part.metal>
0.0000

> <Gold.PLP.part.buried>
-3.8696

> <Gold.PLP.part.nonpolar>
-36.1179

> <Gold.PLP.part.repulsive>
0.4756

> <Gold.PLP.ligand.clash>
0.0538

> <Gold.PLP.ligand.torsion>
1.2364

> <Gold.PLP.Chemscore.Hbond>
1.0000

> <Gold.PLP.Chemscore.CHOScore>
0.0000

> <Gold.PLP.Chemscore.Metal>
0.0000

> <Gold.Chemscore.Hbonds>
donor molecule, donor type, donor heavy atom, donor atom, acceptor molecule, acceptor atom, score
      L1  H    24    51       P1 10737  0.58

> <Gold.PLP.Chemscore.Internal.Correction>
0.9074

> <Gold.Rescore>
     Score         DG    S(hbond)    S(metal)    S(lipo)     H(rot)  DE(clash)    DE(int)     intcor
      6.45      -9.86       0.90        0.00      79.07       3.08       0.06       3.34       ----

> <Gold.Chemscore.Fitness>
6.4527

> <Gold.Chemscore.DG>
-9.8589

> <Gold.Chemscore.ZeroCoef>
-5.4800

> <Gold.Chemscore.Hbond>
0.9005

> <Gold.Chemscore.Metal>
0.0000

> <Gold.Chemscore.Lipo>
79.0719

> <Gold.Chemscore.Internal_Hbond>
0.0000

> <Gold.Chemscore.DEClash>
0.0630

> <Gold.Chemscore.DEInternal>
3.3432

> <Gold.Chemscore.Rot>
3.0781

> <Gold.Chemscore.Internal.Correction>
   9.000000E+99

> <Gold.Chemscore.Hbonds>
donor molecule, donor type, donor heavy atom, donor atom, acceptor molecule, acceptor atom, score
      L1  H    24    51       P1 10737  0.50

> <Gold.Chemscore.Hbond.Weighted>
-3.0075

> <Gold.Chemscore.Metal.Weighted>
-0.0000

> <Gold.Chemscore.Lipo.Weighted>
-9.2514

> <Gold.Chemscore.Internal_Hbond.Weighted>
0.0000

> <Gold.Chemscore.DEClash.Weighted>
0.0630

> <Gold.Chemscore.DEInternal.Weighted>
3.3432

> <Gold.Chemscore.Rot.Weighted>
7.8800

> <Gold.Chemscore.Internal.Correction.Weighted>
   9.000000E+99

> <Gold.Protein.RotatedTorsions>
[ 6907 6896 6895 6894 ] final  152.96 input  -60.11 | X-H torsion
[ 7974 7965 7964 7962 ] final  179.38 input  175.53 | X-H torsion
[ 8008 7997 7996 7995 ] final  -95.17 input   59.86 | X-H torsion
[ 10167 10162 10161 10158 ] final   13.81 input  -65.29 | X-H torsion
[ 10718 10713 10712 10709 ] final   80.32 input   66.30 | X-H torsion
[ 10763 10752 10751 10750 ] final  164.62 input  -60.55 | X-H torsion
[ 11005 11000 10999 10996 ] final -120.48 input  -57.11 | X-H torsion

> <Gold.Protein.ActiveResidues>
 VAL166  LYS551  ARG553  GLY616  TRP617  ASP618  TYR619  PRO620  LYS621  CYS622 
 ASP623  PHE694  ASN695  SER759  ASP760  ASP761  ALA762  ILE779  LEU786  VAL792 
 PHE793  MET794  SER795  GLU796  ALA797  LYS798  CYS799  TRP800  GLU811  SER814 

> <Gold.Protein.RotatedAtoms>
  152.0794  133.4145  159.4493 H   0  0  0  0  0  0  0  0  0  0  0  0  # atno 6907 bound_to 6896
  150.6862  134.3000  159.4711 H   0  0  0  0  0  0  0  0  0  0  0  0  # atno 6908 bound_to 6896
  152.0840  134.9451  160.0623 H   0  0  0  0  0  0  0  0  0  0  0  0  # atno 6909 bound_to 6896
  144.7146  140.0540  143.6434 H   0  0  0  0  0  0  0  0  0  0  0  0  # atno 7974 bound_to 7965
  154.7579  140.0482  157.0949 H   0  0  0  0  0  0  0  0  0  0  0  0  # atno 8008 bound_to 7997
  154.9974  140.3120  155.4862 H   0  0  0  0  0  0  0  0  0  0  0  0  # atno 8009 bound_to 7997
  156.2898  140.2207  156.5082 H   0  0  0  0  0  0  0  0  0  0  0  0  # atno 8010 bound_to 7997
  140.5978  143.8667  150.6935 H   0  0  0  0  0  0  0  0  0  0  0  0  # atno 10167 bound_to 10162
  157.6802  130.9954  150.2062 H   0  0  0  0  0  0  0  0  0  0  0  0  # atno 10718 bound_to 10713
  154.3117  135.2757  155.2563 H   0  0  0  0  0  0  0  0  0  0  0  0  # atno 10763 bound_to 10752
  154.4955  135.5822  153.6495 H   0  0  0  0  0  0  0  0  0  0  0  0  # atno 10764 bound_to 10752
  152.9887  135.6145  154.3295 H   0  0  0  0  0  0  0  0  0  0  0  0  # atno 10765 bound_to 10752
  141.0140  134.0222  157.3374 H   0  0  0  0  0  0  0  0  0  0  0  0  # atno 11005 bound_to 11000
  145.9920  139.3022  143.0979 LP  0  0  0  0  0  0  0  0  0  0  0  0  # atno 17320 bound_to 7965
  145.8892  140.9314  143.0561 LP  0  0  0  0  0  0  0  0  0  0  0  0  # atno 17321 bound_to 7965
  140.2205  143.3812  152.1646 LP  0  0  0  0  0  0  0  0  0  0  0  0  # atno 17342 bound_to 10162
  139.5270  144.7114  151.5194 LP  0  0  0  0  0  0  0  0  0  0  0  0  # atno 17343 bound_to 10162
  156.2742  130.3725  149.8000 LP  0  0  0  0  0  0  0  0  0  0  0  0  # atno 17370 bound_to 10713
  156.5708  130.8424  151.3356 LP  0  0  0  0  0  0  0  0  0  0  0  0  # atno 17371 bound_to 10713
  139.9106  135.0189  156.7676 LP  0  0  0  0  0  0  0  0  0  0  0  0  # atno 17394 bound_to 11000
  140.6685  133.9581  155.7843 LP  0  0  0  0  0  0  0  0  0  0  0  0  # atno 17395 bound_to 11000

$$$$
