AV-unprocessed.smi:1019|AV-procd|sdf|4449|dock5
  -GOLD-   22720 2413D 1   1.00000     0.00000
 Structure written by MMmdl.
 45 47  0  0  0  0  0  0  0  0  3 V2000
  145.8171  139.5135  155.0781 C   0  0  0  0  0  0  0  0  0  0  0  0
  146.3733  139.8380  153.7442 N   0  3  1  0  0  0  0  0  0  0  0  0
  147.1741  141.0873  153.7694 C   0  0  0  0  0  0  0  0  0  0  0  0
  148.3284  140.9978  154.7529 C   0  0  0  0  0  0  0  0  0  0  0  0
  149.4784  140.2502  154.4221 C   0  0  0  0  0  0  0  0  0  0  0  0
  150.5468  140.1543  155.3346 C   0  0  0  0  0  0  0  0  0  0  0  0
  150.4714  140.8080  156.5794 C   0  0  0  0  0  0  0  0  0  0  0  0
  149.3275  141.5592  156.9116 C   0  0  0  0  0  0  0  0  0  0  0  0
  148.2584  141.6553  155.9998 C   0  0  0  0  0  0  0  0  0  0  0  0
  147.0853  138.6883  153.1248 C   0  0  0  0  0  0  0  0  0  0  0  0
  146.1326  137.7669  152.3384 C   0  0  1  0  0  0  0  0  0  0  0  0
  146.5385  137.7346  150.9823 O   0  0  0  0  0  0  0  0  0  0  0  0
  146.1453  136.3296  152.8961 C   0  0  0  0  0  0  0  0  0  0  0  0
  144.9982  135.5303  152.4450 N   0  0  0  0  0  0  0  0  0  0  0  0
  143.6638  135.7543  152.5939 C   0  0  0  0  0  0  0  0  0  0  0  0
  143.0048  134.7190  152.0036 N   0  3  0  0  0  0  0  0  0  0  0  0
  143.9307  133.8211  151.4682 C   0  0  0  0  0  0  0  0  0  0  0  0
  143.7489  132.6262  150.7787 C   0  0  0  0  0  0  0  0  0  0  0  0
  144.9156  131.9483  150.3686 C   0  0  0  0  0  0  0  0  0  0  0  0
  146.1997  132.4620  150.6453 C   0  0  0  0  0  0  0  0  0  0  0  0
  146.3726  133.6746  151.3452 C   0  0  0  0  0  0  0  0  0  0  0  0
  145.2138  134.3373  151.7476 C   0  0  0  0  0  0  0  0  0  0  0  0
  146.6141  139.3185  155.7969 H   0  0  0  0  0  0  0  0  0  0  0  0
  145.1733  138.6352  155.0370 H   0  0  0  0  0  0  0  0  0  0  0  0
  145.2142  140.3403  155.4552 H   0  0  0  0  0  0  0  0  0  0  0  0
  147.6002  141.2753  152.7826 H   0  0  0  0  0  0  0  0  0  0  0  0
  146.5327  141.9396  153.9995 H   0  0  0  0  0  0  0  0  0  0  0  0
  149.5433  139.7447  153.4696 H   0  0  0  0  0  0  0  0  0  0  0  0
  151.4250  139.5794  155.0799 H   0  0  0  0  0  0  0  0  0  0  0  0
  151.2912  140.7342  157.2787 H   0  0  0  0  0  0  0  0  0  0  0  0
  149.2700  142.0612  157.8663 H   0  0  0  0  0  0  0  0  0  0  0  0
  147.3839  142.2321  156.2637 H   0  0  0  0  0  0  0  0  0  0  0  0
  147.8658  139.0319  152.4457 H   0  0  0  0  0  0  0  0  0  0  0  0
  147.6027  138.1278  153.9051 H   0  0  0  0  0  0  0  0  0  0  0  0
  145.1134  138.1511  152.3799 H   0  0  0  0  0  0  0  0  0  0  0  0
  145.7796  137.8400  150.4293 H   0  0  0  0  0  0  0  0  0  0  0  0
  147.0497  135.8083  152.5788 H   0  0  0  0  0  0  0  0  0  0  0  0
  146.1570  136.3319  153.9868 H   0  0  0  0  0  0  0  0  0  0  0  0
  143.2097  136.5978  153.0940 H   0  0  0  0  0  0  0  0  0  0  0  0
  142.7668  132.2307  150.5646 H   0  0  0  0  0  0  0  0  0  0  0  0
  144.8237  131.0158  149.8306 H   0  0  0  0  0  0  0  0  0  0  0  0
  147.0698  131.9142  150.3131 H   0  0  0  0  0  0  0  0  0  0  0  0
  147.3599  134.0596  151.5516 H   0  0  0  0  0  0  0  0  0  0  0  0
  145.5845  140.0399  153.1471 H   0  0  0  0  0  0  0  0  0  0  0  0
  141.9968  134.6340  151.9707 H   0  0  0  0  0  0  0  0  0  0  0  0
  1  2  1  0  0  0  0
  1 23  1  0  0  0  0
  1 24  1  0  0  0  0
  1 25  1  0  0  0  0
  2  3  1  0  0  0  0
  2 10  1  0  0  0  0
  2 44  1  0  0  0  0
  3  4  1  0  0  0  0
  3 26  1  0  0  0  0
  3 27  1  0  0  0  0
  4  9  1  0  0  0  0
  4  5  2  0  0  0  0
  5  6  1  0  0  0  0
  5 28  1  0  0  0  0
  6  7  2  0  0  0  0
  6 29  1  0  0  0  0
  7  8  1  0  0  0  0
  7 30  1  0  0  0  0
  8  9  2  0  0  0  0
  8 31  1  0  0  0  0
  9 32  1  0  0  0  0
 10 11  1  0  0  0  0
 10 33  1  0  0  0  0
 10 34  1  0  0  0  0
 11 12  1  0  0  0  0
 11 13  1  0  0  0  0
 11 35  1  0  0  0  0
 12 36  1  0  0  0  0
 13 14  1  0  0  0  0
 13 37  1  0  0  0  0
 13 38  1  0  0  0  0
 14 22  1  0  0  0  0
 14 15  1  0  0  0  0
 15 16  2  0  0  0  0
 15 39  1  0  0  0  0
 16 17  1  0  0  0  0
 16 45  1  0  0  0  0
 17 22  2  0  0  0  0
 17 18  1  0  0  0  0
 18 19  2  0  0  0  0
 18 40  1  0  0  0  0
 19 20  1  0  0  0  0
 19 41  1  0  0  0  0
 20 21  2  0  0  0  0
 20 42  1  0  0  0  0
 21 22  1  0  0  0  0
 21 43  1  0  0  0  0
M  CHG  1   2   1
M  CHG  1  16   1
M  END
> <s_m_source_file>
AV-unprocessed.smi

> <i_m_source_file_index>
1019

> <i_lp_mmshare_version>
43012

> <i_f3d_flags>
0

> <s_epik_input>
W2NIXTFbY0hdW2NIXVtjSF1bY0hdYzFbQ0gyXU4oW0NIM10pW0NIMl1bQ0BIXShbT0hdKVtDSDJdbihbY0hdbjIpYyhjMjMpW2NIXVtjSF1bY0hdW2NIXTM=

> <s_epik_cmdline>
J2VwaWtfcHl0aG9uJywgJy1waCcsICc3LjAnLCAnLXRuJywgJzgnLCAnLW1hJywgJzIwMCcsICctbWV0YWxfYmluZGluZycsICctaW1hZScsICc8aW5maWxlLm1hZT4nLCAnLW9tYWUnLCAnPG91dGZpbGUubWFlPic=

> <r_epik_Ionization_Penalty>
1.5198

> <r_epik_Ionization_Penalty_Charging>
1.5198

> <r_epik_Ionization_Penalty_Neutral>
3.13312e-06

> <r_epik_State_Penalty>
1.624

> <r_epik_Charging_Adjusted_Penalty>
3.1438

> <i_epik_Tot_Q>
2

> <i_epik_Tot_abs_Q>
2

> <r_epik_Metal_State_Penalty>
5.67392

> <b_epik_Metal_Only>
0

> <s_lp_Force_Field>
OPLS_2005

> <r_lp_Energy>
24.7474

> <b_lp_Chiralities_Consistent>
1

> <s_lp_Variant>
AV-unprocessed.smi:1019-7

> <Gold.Version>
5.8.1

> <Gold.Id.Protein>
6NUR|6NUR_protein|mol2

> <Gold.PLP.Fitness>
51.9233

> <Gold.PLP.PLP>
-42.7460

> <Gold.PLP.part.hbond>
-4.7751

> <Gold.PLP.part.metal>
0.0000

> <Gold.PLP.part.buried>
-1.7608

> <Gold.PLP.part.nonpolar>
-36.4638

> <Gold.PLP.part.repulsive>
0.0000

> <Gold.PLP.ligand.clash>
0.0000

> <Gold.PLP.ligand.torsion>
1.5091

> <Gold.PLP.Chemscore.Hbond>
4.0000

> <Gold.PLP.Chemscore.CHOScore>
0.0000

> <Gold.PLP.Chemscore.Metal>
0.0000

> <Gold.Chemscore.Hbonds>
donor molecule, donor type, donor heavy atom, donor atom, acceptor molecule, acceptor atom, score
      L1  H     2    44       P1 10175  1.82
      L1  H    12    36       P1 10171  0.76
      P1  H  7954  7966       L1    12  1.00

> <Gold.PLP.Chemscore.Internal.Correction>
0.1955

> <Gold.Rescore>
     Score         DG    S(hbond)    S(metal)    S(lipo)     H(rot)  DE(clash)    DE(int)     intcor
     19.31     -20.93       2.82        0.00     105.22       2.46       0.17       1.45       ----

> <Gold.Chemscore.Fitness>
19.3100

> <Gold.Chemscore.DG>
-20.9302

> <Gold.Chemscore.ZeroCoef>
-5.4800

> <Gold.Chemscore.Hbond>
2.8217

> <Gold.Chemscore.Metal>
0.0000

> <Gold.Chemscore.Lipo>
105.2241

> <Gold.Chemscore.Internal_Hbond>
0.0000

> <Gold.Chemscore.DEClash>
0.1690

> <Gold.Chemscore.DEInternal>
1.4513

> <Gold.Chemscore.Rot>
2.4552

> <Gold.Chemscore.Internal.Correction>
   9.000000E+99

> <Gold.Chemscore.Hbonds>
donor molecule, donor type, donor heavy atom, donor atom, acceptor molecule, acceptor atom, score
      L1  H     2    44       P1 10175  0.88
      L1  H    12    36       P1 10171  0.74
      P1  H  7954  7966       L1    12  0.69

> <Gold.Chemscore.Hbond.Weighted>
-9.4244

> <Gold.Chemscore.Metal.Weighted>
-0.0000

> <Gold.Chemscore.Lipo.Weighted>
-12.3112

> <Gold.Chemscore.Internal_Hbond.Weighted>
0.0000

> <Gold.Chemscore.DEClash.Weighted>
0.1690

> <Gold.Chemscore.DEInternal.Weighted>
1.4513

> <Gold.Chemscore.Rot.Weighted>
6.2854

> <Gold.Chemscore.Internal.Correction.Weighted>
   9.000000E+99

> <Gold.Protein.RotatedTorsions>
[ 6907 6896 6895 6894 ] final   29.78 input  -60.11 | X-H torsion
[ 7974 7965 7964 7962 ] final  160.99 input  175.53 | X-H torsion
[ 8008 7997 7996 7995 ] final -138.75 input   59.86 | X-H torsion
[ 10167 10162 10161 10158 ] final  -59.18 input  -65.29 | X-H torsion
[ 10718 10713 10712 10709 ] final -146.35 input   66.30 | X-H torsion
[ 10763 10752 10751 10750 ] final   20.31 input  -60.55 | X-H torsion
[ 11005 11000 10999 10996 ] final  122.24 input  -57.11 | X-H torsion

> <Gold.Protein.ActiveResidues>
 VAL166  LYS551  ARG553  GLY616  TRP617  ASP618  TYR619  PRO620  LYS621  CYS622 
 ASP623  PHE694  ASN695  SER759  ASP760  ASP761  ALA762  ILE779  LEU786  VAL792 
 PHE793  MET794  SER795  GLU796  ALA797  LYS798  CYS799  TRP800  GLU811  SER814 

> <Gold.Protein.RotatedAtoms>
  152.0365  134.9737  160.0573 H   0  0  0  0  0  0  0  0  0  0  0  0  # atno 6907 bound_to 6896
  152.1193  133.4339  159.4676 H   0  0  0  0  0  0  0  0  0  0  0  0  # atno 6908 bound_to 6896
  150.6848  134.2473  159.4540 H   0  0  0  0  0  0  0  0  0  0  0  0  # atno 6909 bound_to 6896
  144.7708  139.7834  143.6297 H   0  0  0  0  0  0  0  0  0  0  0  0  # atno 7974 bound_to 7965
  155.4334  140.0526  157.3016 H   0  0  0  0  0  0  0  0  0  0  0  0  # atno 8008 bound_to 7997
  154.4849  140.2097  155.9635 H   0  0  0  0  0  0  0  0  0  0  0  0  # atno 8009 bound_to 7997
  156.1261  140.3180  155.8284 H   0  0  0  0  0  0  0  0  0  0  0  0  # atno 8010 bound_to 7997
  140.6151  143.2400  151.5616 H   0  0  0  0  0  0  0  0  0  0  0  0  # atno 10167 bound_to 10162
  156.3938  130.7899  151.2104 H   0  0  0  0  0  0  0  0  0  0  0  0  # atno 10718 bound_to 10713
  153.1088  135.6691  153.9538 H   0  0  0  0  0  0  0  0  0  0  0  0  # atno 10763 bound_to 10752
  153.9087  135.3027  155.3450 H   0  0  0  0  0  0  0  0  0  0  0  0  # atno 10764 bound_to 10752
  154.7508  135.5035  153.9363 H   0  0  0  0  0  0  0  0  0  0  0  0  # atno 10765 bound_to 10752
  139.9260  134.9641  156.8079 H   0  0  0  0  0  0  0  0  0  0  0  0  # atno 11005 bound_to 11000
  146.1854  139.5066  142.9840 LP  0  0  0  0  0  0  0  0  0  0  0  0  # atno 17320 bound_to 7965
  145.6328  141.0300  143.1854 LP  0  0  0  0  0  0  0  0  0  0  0  0  # atno 17321 bound_to 7965
  139.5392  144.2695  152.1316 LP  0  0  0  0  0  0  0  0  0  0  0  0  # atno 17342 bound_to 10162
  140.1902  144.4759  150.6483 LP  0  0  0  0  0  0  0  0  0  0  0  0  # atno 17343 bound_to 10162
  157.7500  131.0307  150.4150 LP  0  0  0  0  0  0  0  0  0  0  0  0  # atno 17370 bound_to 10713
  156.4417  130.3993  149.6693 LP  0  0  0  0  0  0  0  0  0  0  0  0  # atno 17371 bound_to 10713
  140.6336  133.9883  155.7673 LP  0  0  0  0  0  0  0  0  0  0  0  0  # atno 17394 bound_to 11000
  141.0817  134.0052  157.3375 LP  0  0  0  0  0  0  0  0  0  0  0  0  # atno 17395 bound_to 11000

$$$$
