AV-unprocessed.smi:135|AV-procd|sdf|1169|dock8
  -GOLD-   2262018313D 1   1.00000     0.00000
 Structure written by MMmdl.
 51 54  0  0  0  0  0  0  0  0  1 V2000
  153.5623  138.7163  157.1842 O   0  0  0  0  0  0  0  0  0  0  0  0
  153.0063  138.0656  158.0700 C   0  0  0  0  0  0  0  0  0  0  0  0
  151.5594  138.3796  158.4796 C   0  0  0  0  0  0  0  0  0  0  0  0
  151.1495  139.7672  158.1736 N   0  0  0  0  0  0  0  0  0  0  0  0
  149.9363  139.9735  157.4720 C   0  0  0  0  0  0  0  0  0  0  0  0
  149.2288  139.0258  157.1272 O   0  0  0  0  0  0  0  0  0  0  0  0
  149.6018  141.3644  157.1886 C   0  0  0  0  0  0  0  0  0  0  0  0
  148.4712  141.6537  156.5223 F   0  0  0  0  0  0  0  0  0  0  0  0
  150.4113  142.3691  157.5825 C   0  0  0  0  0  0  0  0  0  0  0  0
  151.5913  142.1538  158.2731 N   0  0  0  0  0  0  0  0  0  0  0  0
  152.5062  143.2918  158.6798 C   0  0  2  0  0  0  0  0  0  0  0  0
  152.5457  143.4438  160.2144 C   0  0  0  0  0  0  0  0  0  0  0  0
  152.1819  144.9012  160.4217 C   0  0  0  0  0  0  0  0  0  0  0  0
  151.3259  145.1920  159.1989 C   0  0  0  0  0  0  0  0  0  0  0  0
  152.0187  144.5001  158.1693 O   0  0  0  0  0  0  0  0  0  0  0  0
  151.9945  140.8324  158.5660 C   0  0  0  0  0  0  0  0  0  0  0  0
  153.0604  140.6166  159.1468 O   0  0  0  0  0  0  0  0  0  0  0  0
  153.5833  137.0545  158.7417 N   0  0  0  0  0  0  0  0  0  0  0  0
  154.8855  136.5184  158.5590 C   0  0  0  0  0  0  0  0  0  0  0  0
  155.8014  137.0659  157.6290 C   0  0  0  0  0  0  0  0  0  0  0  0
  157.0978  136.5303  157.5091 C   0  0  0  0  0  0  0  0  0  0  0  0
  157.4945  135.4547  158.3247 C   0  0  0  0  0  0  0  0  0  0  0  0
  156.5937  134.9146  159.2613 C   0  0  0  0  0  0  0  0  0  0  0  0
  155.2895  135.4376  159.3794 C   0  0  0  0  0  0  0  0  0  0  0  0
  154.4338  134.8886  160.3020 O   0  0  0  0  0  0  0  0  0  0  0  0
  154.4033  135.4609  161.5493 C   0  0  0  0  0  0  0  0  0  0  0  0
  154.1035  136.8307  161.7198 C   0  0  0  0  0  0  0  0  0  0  0  0
  154.0808  137.3954  163.0099 C   0  0  0  0  0  0  0  0  0  0  0  0
  154.3523  136.5936  164.1352 C   0  0  0  0  0  0  0  0  0  0  0  0
  154.6411  135.2254  163.9704 C   0  0  0  0  0  0  0  0  0  0  0  0
  154.6628  134.6604  162.6806 C   0  0  0  0  0  0  0  0  0  0  0  0
  150.8882  137.6677  157.9954 H   0  0  0  0  0  0  0  0  0  0  0  0
  151.4523  138.1596  159.5428 H   0  0  0  0  0  0  0  0  0  0  0  0
  150.1069  143.3742  157.3342 H   0  0  0  0  0  0  0  0  0  0  0  0
  153.4723  143.0621  158.2268 H   0  0  0  0  0  0  0  0  0  0  0  0
  151.8027  142.7957  160.6817 H   0  0  0  0  0  0  0  0  0  0  0  0
  153.5317  143.1911  160.6050 H   0  0  0  0  0  0  0  0  0  0  0  0
  151.6605  145.0825  161.3617 H   0  0  0  0  0  0  0  0  0  0  0  0
  153.0810  145.5188  160.4027 H   0  0  0  0  0  0  0  0  0  0  0  0
  150.3218  144.7831  159.3202 H   0  0  0  0  0  0  0  0  0  0  0  0
  151.2427  146.2572  158.9834 H   0  0  0  0  0  0  0  0  0  0  0  0
  152.9838  136.5378  159.3685 H   0  0  0  0  0  0  0  0  0  0  0  0
  155.5296  137.9082  157.0107 H   0  0  0  0  0  0  0  0  0  0  0  0
  157.7914  136.9522  156.7968 H   0  0  0  0  0  0  0  0  0  0  0  0
  158.4909  135.0476  158.2358 H   0  0  0  0  0  0  0  0  0  0  0  0
  156.9018  134.0916  159.8891 H   0  0  0  0  0  0  0  0  0  0  0  0
  153.8927  137.4525  160.8625 H   0  0  0  0  0  0  0  0  0  0  0  0
  153.8554  138.4440  163.1362 H   0  0  0  0  0  0  0  0  0  0  0  0
  154.3371  137.0274  165.1242 H   0  0  0  0  0  0  0  0  0  0  0  0
  154.8487  134.6095  164.8329 H   0  0  0  0  0  0  0  0  0  0  0  0
  154.8878  133.6112  162.5590 H   0  0  0  0  0  0  0  0  0  0  0  0
  1  2  2  0  0  0  0
  2  3  1  0  0  0  0
  2 18  1  0  0  0  0
  3  4  1  0  0  0  0
  3 32  1  0  0  0  0
  3 33  1  0  0  0  0
  4 16  1  0  0  0  0
  4  5  1  0  0  0  0
  5  6  2  0  0  0  0
  5  7  1  0  0  0  0
  7  8  1  0  0  0  0
  7  9  2  0  0  0  0
  9 10  1  0  0  0  0
  9 34  1  0  0  0  0
 10 11  1  0  0  0  0
 10 16  1  0  0  0  0
 11 15  1  0  0  0  0
 11 12  1  0  0  0  0
 11 35  1  0  0  0  0
 12 13  1  0  0  0  0
 12 36  1  0  0  0  0
 12 37  1  0  0  0  0
 13 14  1  0  0  0  0
 13 38  1  0  0  0  0
 13 39  1  0  0  0  0
 14 15  1  0  0  0  0
 14 40  1  0  0  0  0
 14 41  1  0  0  0  0
 16 17  2  0  0  0  0
 18 19  1  0  0  0  0
 18 42  1  0  0  0  0
 19 24  1  0  0  0  0
 19 20  2  0  0  0  0
 20 21  1  0  0  0  0
 20 43  1  0  0  0  0
 21 22  2  0  0  0  0
 21 44  1  0  0  0  0
 22 23  1  0  0  0  0
 22 45  1  0  0  0  0
 23 24  2  0  0  0  0
 23 46  1  0  0  0  0
 24 25  1  0  0  0  0
 25 26  1  0  0  0  0
 26 31  1  0  0  0  0
 26 27  2  0  0  0  0
 27 28  1  0  0  0  0
 27 47  1  0  0  0  0
 28 29  2  0  0  0  0
 28 48  1  0  0  0  0
 29 30  1  0  0  0  0
 29 49  1  0  0  0  0
 30 31  2  0  0  0  0
 30 50  1  0  0  0  0
 31 51  1  0  0  0  0
M  END
> <s_m_source_file>
AV-unprocessed.smi

> <i_m_source_file_index>
135

> <i_lp_mmshare_version>
43012

> <i_f3d_flags>
0

> <s_epik_input>
TzFbQ0gyXVtDSDJdW0NIMl1bQ0BIXTFuKGMyPU8pW2NIXWMoRiljKD1PKW4yW0NIMl1DKD1PKVtOSF1jM1tjSF1bY0hdW2NIXVtjSF1jM09jNFtjSF1bY0hdW2NIXVtjSF1bY0hdNA==

> <s_epik_cmdline>
J2VwaWtfcHl0aG9uJywgJy1waCcsICc3LjAnLCAnLXRuJywgJzgnLCAnLW1hJywgJzIwMCcsICctbWV0YWxfYmluZGluZycsICctaW1hZScsICc8aW5maWxlLm1hZT4nLCAnLW9tYWUnLCAnPG91dGZpbGUubWFlPic=

> <r_lp_tautomer_probability>
1

> <r_epik_Ionization_Penalty>
1.89877e-06

> <r_epik_Ionization_Penalty_Charging>
3.88729e-08

> <r_epik_Ionization_Penalty_Neutral>
1.8599e-06

> <r_epik_State_Penalty>
-0

> <r_epik_Charging_Adjusted_Penalty>
3.88729e-08

> <i_epik_Tot_Q>
0

> <i_epik_Tot_abs_Q>
0

> <r_epik_Metal_State_Penalty>
-0

> <b_epik_Metal_Only>
0

> <s_epik_Chemistry_Notes>
This compound contains an acetal/aminal-like group ( X-CH(R)-Y where X, Y are N, S, or O) that may be acid/base labile, releasing an aldehyde.

> <s_lp_Force_Field>
OPLS_2005

> <r_lp_Energy>
40.0565

> <b_lp_Chiralities_Consistent>
1

> <s_lp_Variant>
AV-unprocessed.smi:135-1

> <Gold.Version>
5.8.1

> <Gold.Id.Protein>
6NUR|6NUR_protein|mol2

> <Gold.PLP.Fitness>
55.7835

> <Gold.PLP.PLP>
-48.5637

> <Gold.PLP.part.hbond>
-2.0000

> <Gold.PLP.part.metal>
0.0000

> <Gold.PLP.part.buried>
-8.4811

> <Gold.PLP.part.nonpolar>
-39.0930

> <Gold.PLP.part.repulsive>
0.1836

> <Gold.PLP.ligand.clash>
0.0000

> <Gold.PLP.ligand.torsion>
0.9142

> <Gold.PLP.Chemscore.Hbond>
2.0000

> <Gold.PLP.Chemscore.CHOScore>
1.0000

> <Gold.PLP.Chemscore.Metal>
0.0000

> <Gold.Chemscore.Hbonds>
donor molecule, donor type, donor heavy atom, donor atom, acceptor molecule, acceptor atom, score
      P1  H  6896  6908       L1    25  0.90
      P1  H  7997  8010       L1     1  1.00
      L1  C     9    34       P1  8028  1.00

> <Gold.PLP.Chemscore.Internal.Correction>
0.0483

> <Gold.Rescore>
     Score         DG    S(hbond)    S(metal)    S(lipo)     H(rot)  DE(clash)    DE(int)     intcor
     16.32     -18.72       1.82        0.00     105.95       2.04       0.13       2.27       ----

> <Gold.Chemscore.Fitness>
16.3203

> <Gold.Chemscore.DG>
-18.7231

> <Gold.Chemscore.ZeroCoef>
-5.4800

> <Gold.Chemscore.Hbond>
1.8155

> <Gold.Chemscore.Metal>
0.0000

> <Gold.Chemscore.Lipo>
105.9478

> <Gold.Chemscore.Internal_Hbond>
0.0000

> <Gold.Chemscore.DEClash>
0.1336

> <Gold.Chemscore.DEInternal>
2.2691

> <Gold.Chemscore.Rot>
2.0377

> <Gold.Chemscore.Internal.Correction>
   9.000000E+99

> <Gold.Chemscore.Hbonds>
donor molecule, donor type, donor heavy atom, donor atom, acceptor molecule, acceptor atom, score
      P1  H  6896  6908       L1    25  0.16
      P1  H  7997  8010       L1     1  0.96

> <Gold.Chemscore.Hbond.Weighted>
-6.0637

> <Gold.Chemscore.Metal.Weighted>
-0.0000

> <Gold.Chemscore.Lipo.Weighted>
-12.3959

> <Gold.Chemscore.Internal_Hbond.Weighted>
0.0000

> <Gold.Chemscore.DEClash.Weighted>
0.1336

> <Gold.Chemscore.DEInternal.Weighted>
2.2691

> <Gold.Chemscore.Rot.Weighted>
5.2165

> <Gold.Chemscore.Internal.Correction.Weighted>
   9.000000E+99

> <Gold.Protein.RotatedTorsions>
[ 6907 6896 6895 6894 ] final  -63.22 input  -60.11 | X-H torsion
[ 7974 7965 7964 7962 ] final   27.82 input  175.53 | X-H torsion
[ 8008 7997 7996 7995 ] final   47.83 input   59.86 | X-H torsion
[ 10167 10162 10161 10158 ] final   -5.93 input  -65.29 | X-H torsion
[ 10718 10713 10712 10709 ] final   71.65 input   66.30 | X-H torsion
[ 10763 10752 10751 10750 ] final  117.30 input  -60.55 | X-H torsion
[ 11005 11000 10999 10996 ] final   97.05 input  -57.11 | X-H torsion

> <Gold.Protein.ActiveResidues>
 VAL166  LYS551  ARG553  GLY616  TRP617  ASP618  TYR619  PRO620  LYS621  CYS622 
 ASP623  PHE694  ASN695  SER759  ASP760  ASP761  ALA762  ILE779  LEU786  VAL792 
 PHE793  MET794  SER795  GLU796  ALA797  LYS798  CYS799  TRP800  GLU811  SER814 

> <Gold.Protein.RotatedAtoms>
  150.7664  134.6465  159.6264 H   0  0  0  0  0  0  0  0  0  0  0  0  # atno 6907 bound_to 6896
  152.3697  134.6749  160.0189 H   0  0  0  0  0  0  0  0  0  0  0  0  # atno 6908 bound_to 6896
  151.7113  133.3276  159.3328 H   0  0  0  0  0  0  0  0  0  0  0  0  # atno 6909 bound_to 6896
  146.1763  139.7139  142.8932 H   0  0  0  0  0  0  0  0  0  0  0  0  # atno 7974 bound_to 7965
  155.3756  140.3426  155.4245 H   0  0  0  0  0  0  0  0  0  0  0  0  # atno 8008 bound_to 7997
  156.1639  140.1609  156.8599 H   0  0  0  0  0  0  0  0  0  0  0  0  # atno 8009 bound_to 7997
  154.5166  140.0777  156.8074 H   0  0  0  0  0  0  0  0  0  0  0  0  # atno 8010 bound_to 7997
  140.6980  143.6252  150.8574 H   0  0  0  0  0  0  0  0  0  0  0  0  # atno 10167 bound_to 10162
  157.6462  130.9539  150.0818 H   0  0  0  0  0  0  0  0  0  0  0  0  # atno 10718 bound_to 10713
  153.5503  135.3541  155.2756 H   0  0  0  0  0  0  0  0  0  0  0  0  # atno 10763 bound_to 10752
  154.8707  135.4112  154.2945 H   0  0  0  0  0  0  0  0  0  0  0  0  # atno 10764 bound_to 10752
  153.3670  135.7062  153.6736 H   0  0  0  0  0  0  0  0  0  0  0  0  # atno 10765 bound_to 10752
  139.8778  134.8981  156.4250 H   0  0  0  0  0  0  0  0  0  0  0  0  # atno 11005 bound_to 11000
  145.4202  141.0405  143.2968 LP  0  0  0  0  0  0  0  0  0  0  0  0  # atno 17320 bound_to 7965
  144.8242  139.5739  143.6973 LP  0  0  0  0  0  0  0  0  0  0  0  0  # atno 17321 bound_to 7965
  139.9972  143.5783  152.2889 LP  0  0  0  0  0  0  0  0  0  0  0  0  # atno 17342 bound_to 10162
  139.6459  144.7658  151.2244 LP  0  0  0  0  0  0  0  0  0  0  0  0  # atno 17343 bound_to 10162
  156.1792  130.3649  149.9058 LP  0  0  0  0  0  0  0  0  0  0  0  0  # atno 17370 bound_to 10713
  156.7015  130.8935  151.3600 LP  0  0  0  0  0  0  0  0  0  0  0  0  # atno 17371 bound_to 10713
  140.9107  133.7714  155.9788 LP  0  0  0  0  0  0  0  0  0  0  0  0  # atno 17394 bound_to 11000
  140.8549  134.2910  157.5259 LP  0  0  0  0  0  0  0  0  0  0  0  0  # atno 17395 bound_to 11000

$$$$
