AV-unprocessed.smi:1005|AV-procd|sdf|4365|dock4
  -GOLD-   22720 2273D 1   1.00000     0.00000
 Structure written by MMmdl.
 56 58  0  0  0  0  0  0  0  0  2 V2000
  152.8582  142.9722  161.3257 C   0  0  0  0  0  0  0  0  0  0  0  0
  152.2660  142.5810  159.9832 C   0  0  0  0  0  0  0  0  0  0  0  0
  152.6744  141.3709  159.3784 C   0  0  0  0  0  0  0  0  0  0  0  0
  152.1485  140.9715  158.1303 C   0  0  0  0  0  0  0  0  0  0  0  0
  152.4031  139.8446  157.3672 N   0  0  0  0  0  0  0  0  0  0  0  0
  151.6109  140.0472  156.3185 C   0  0  0  0  0  0  0  0  0  0  0  0
  150.8726  141.1734  156.3111 N   0  0  0  0  0  0  0  0  0  0  0  0
  149.9453  141.6013  155.2786 C   0  0  0  0  0  0  0  0  0  0  0  0
  148.5724  140.9117  155.3942 C   0  0  1  0  0  0  0  0  0  0  0  0
  148.7304  139.5192  155.1995 O   0  0  0  0  0  0  0  0  0  0  0  0
  147.9389  141.1487  156.7806 C   0  0  0  0  0  0  0  0  0  0  0  0
  147.1522  142.3763  156.9196 N   0  0  0  0  0  0  0  0  0  0  0  0
  146.6173  142.5552  158.2676 C   0  0  0  0  0  0  0  0  0  0  0  0
  145.7586  143.8256  158.3787 C   0  0  0  0  0  0  0  0  0  0  0  0
  144.7214  143.7836  157.4051 O   0  0  0  0  0  0  0  0  0  0  0  0
  145.2107  143.6893  156.0697 C   0  0  2  0  0  0  0  0  0  0  0  0
  144.0165  143.6756  155.0957 C   0  0  0  0  0  0  0  0  0  0  0  0
  144.3693  144.1250  153.7234 N   0  3  0  0  0  0  0  0  0  0  0  0
  145.7086  143.6784  153.2751 C   0  0  0  0  0  0  0  0  0  0  0  0
  144.2067  145.5875  153.5640 C   0  0  0  0  0  0  0  0  0  0  0  0
  146.0473  142.3970  155.9670 C   0  0  0  0  0  0  0  0  0  0  0  0
  151.1955  141.8227  157.4980 C   0  0  0  0  0  0  0  0  0  0  0  0
  150.7800  143.0283  158.0907 C   0  0  0  0  0  0  0  0  0  0  0  0
  151.3151  143.4120  159.3382 C   0  0  0  0  0  0  0  0  0  0  0  0
  150.8597  144.7154  159.9702 C   0  0  0  0  0  0  0  0  0  0  0  0
  153.5745  142.2292  161.6774 H   0  0  0  0  0  0  0  0  0  0  0  0
  152.0735  143.0621  162.0773 H   0  0  0  0  0  0  0  0  0  0  0  0
  153.3775  143.9280  161.2504 H   0  0  0  0  0  0  0  0  0  0  0  0
  153.3974  140.7366  159.8698 H   0  0  0  0  0  0  0  0  0  0  0  0
  151.5630  139.3352  155.5074 H   0  0  0  0  0  0  0  0  0  0  0  0
  149.8376  142.6854  155.3315 H   0  0  0  0  0  0  0  0  0  0  0  0
  150.3943  141.3818  154.3090 H   0  0  0  0  0  0  0  0  0  0  0  0
  147.9307  141.2978  154.6034 H   0  0  0  0  0  0  0  0  0  0  0  0
  148.8490  139.3551  154.2768 H   0  0  0  0  0  0  0  0  0  0  0  0
  147.3082  140.2891  157.0127 H   0  0  0  0  0  0  0  0  0  0  0  0
  148.7258  141.1466  157.5365 H   0  0  0  0  0  0  0  0  0  0  0  0
  146.0159  141.6884  158.5455 H   0  0  0  0  0  0  0  0  0  0  0  0
  147.4251  142.6220  158.9947 H   0  0  0  0  0  0  0  0  0  0  0  0
  145.3134  143.8972  159.3710 H   0  0  0  0  0  0  0  0  0  0  0  0
  146.3676  144.7194  158.2346 H   0  0  0  0  0  0  0  0  0  0  0  0
  145.8498  144.5465  155.8485 H   0  0  0  0  0  0  0  0  0  0  0  0
  143.6616  142.6466  155.0204 H   0  0  0  0  0  0  0  0  0  0  0  0
  143.1818  144.2573  155.4899 H   0  0  0  0  0  0  0  0  0  0  0  0
  146.4851  144.0133  153.9640 H   0  0  0  0  0  0  0  0  0  0  0  0
  145.9375  144.0775  152.2865 H   0  0  0  0  0  0  0  0  0  0  0  0
  145.7591  142.5932  153.1964 H   0  0  0  0  0  0  0  0  0  0  0  0
  144.8893  146.1300  154.2196 H   0  0  0  0  0  0  0  0  0  0  0  0
  143.1874  145.8941  153.8013 H   0  0  0  0  0  0  0  0  0  0  0  0
  144.4076  145.8894  152.5355 H   0  0  0  0  0  0  0  0  0  0  0  0
  146.4395  142.3037  154.9535 H   0  0  0  0  0  0  0  0  0  0  0  0
  145.4020  141.5321  156.1310 H   0  0  0  0  0  0  0  0  0  0  0  0
  150.0544  143.6515  157.5896 H   0  0  0  0  0  0  0  0  0  0  0  0
  150.1173  145.2195  159.3507 H   0  0  0  0  0  0  0  0  0  0  0  0
  151.7042  145.3928  160.0982 H   0  0  0  0  0  0  0  0  0  0  0  0
  150.4110  144.5314  160.9466 H   0  0  0  0  0  0  0  0  0  0  0  0
  143.6984  143.7016  153.0980 H   0  0  0  0  0  0  0  0  0  0  0  0
  1  2  1  0  0  0  0
  1 26  1  0  0  0  0
  1 27  1  0  0  0  0
  1 28  1  0  0  0  0
  2 24  1  0  0  0  0
  2  3  2  0  0  0  0
  3  4  1  0  0  0  0
  3 29  1  0  0  0  0
  4 22  2  0  0  0  0
  4  5  1  0  0  0  0
  5  6  2  0  0  0  0
  6  7  1  0  0  0  0
  6 30  1  0  0  0  0
  7  8  1  0  0  0  0
  7 22  1  0  0  0  0
  8  9  1  0  0  0  0
  8 31  1  0  0  0  0
  8 32  1  0  0  0  0
  9 10  1  0  0  0  0
  9 11  1  0  0  0  0
  9 33  1  0  0  0  0
 10 34  1  0  0  0  0
 11 12  1  0  0  0  0
 11 35  1  0  0  0  0
 11 36  1  0  0  0  0
 12 21  1  0  0  0  0
 12 13  1  0  0  0  0
 13 14  1  0  0  0  0
 13 37  1  0  0  0  0
 13 38  1  0  0  0  0
 14 15  1  0  0  0  0
 14 39  1  0  0  0  0
 14 40  1  0  0  0  0
 15 16  1  0  0  0  0
 16 17  1  0  0  0  0
 16 21  1  0  0  0  0
 16 41  1  0  0  0  0
 17 18  1  0  0  0  0
 17 42  1  0  0  0  0
 17 43  1  0  0  0  0
 18 19  1  0  0  0  0
 18 20  1  0  0  0  0
 18 56  1  0  0  0  0
 19 44  1  0  0  0  0
 19 45  1  0  0  0  0
 19 46  1  0  0  0  0
 20 47  1  0  0  0  0
 20 48  1  0  0  0  0
 20 49  1  0  0  0  0
 21 50  1  0  0  0  0
 21 51  1  0  0  0  0
 22 23  1  0  0  0  0
 23 24  2  0  0  0  0
 23 52  1  0  0  0  0
 24 25  1  0  0  0  0
 25 53  1  0  0  0  0
 25 54  1  0  0  0  0
 25 55  1  0  0  0  0
M  CHG  1  18   1
M  END
> <s_m_source_file>
AV-unprocessed.smi

> <i_m_source_file_index>
1005

> <i_lp_mmshare_version>
43012

> <i_f3d_flags>
0

> <s_epik_input>
W0NIM11jKFtjSF0xKWMoW0NIM10pW2NIXWMoYzEyKW4oW2NIXW4yKVtDSDJdW0NASF0oW09IXSlbQ0gyXU4zW0NIMl1bQ0gyXU9bQ0BIXShbQ0gyXTMpW0NIMl1OKFtDSDNdKVtDSDNd

> <s_epik_cmdline>
J2VwaWtfcHl0aG9uJywgJy1waCcsICc3LjAnLCAnLXRuJywgJzgnLCAnLW1hJywgJzIwMCcsICctbWV0YWxfYmluZGluZycsICctaW1hZScsICc8aW5maWxlLm1hZT4nLCAnLW9tYWUnLCAnPG91dGZpbGUubWFlPic=

> <r_epik_Ionization_Penalty>
0.226781

> <r_epik_Ionization_Penalty_Charging>
0.00915946

> <r_epik_Ionization_Penalty_Neutral>
0.217622

> <r_epik_State_Penalty>
0.173018

> <r_epik_Charging_Adjusted_Penalty>
0.182178

> <i_epik_Tot_Q>
1

> <i_epik_Tot_abs_Q>
1

> <r_epik_Metal_State_Penalty>
0.0905268

> <b_epik_Metal_Only>
0

> <s_lp_Force_Field>
OPLS_2005

> <r_lp_Energy>
38.1997

> <b_lp_Chiralities_Consistent>
1

> <s_lp_Variant>
AV-unprocessed.smi:1005-4

> <Gold.Version>
5.8.1

> <Gold.Id.Protein>
6NUR|6NUR_protein|mol2

> <Gold.PLP.Fitness>
53.2146

> <Gold.PLP.PLP>
-46.4703

> <Gold.PLP.part.hbond>
-2.0000

> <Gold.PLP.part.metal>
0.0000

> <Gold.PLP.part.buried>
-6.9810

> <Gold.PLP.part.nonpolar>
-37.1166

> <Gold.PLP.part.repulsive>
0.3269

> <Gold.PLP.ligand.clash>
0.0000

> <Gold.PLP.ligand.torsion>
1.1780

> <Gold.PLP.Chemscore.Hbond>
3.0000

> <Gold.PLP.Chemscore.CHOScore>
0.0000

> <Gold.PLP.Chemscore.Metal>
0.0000

> <Gold.Chemscore.Hbonds>
donor molecule, donor type, donor heavy atom, donor atom, acceptor molecule, acceptor atom, score
      L1  H    18    56       P1 10174  2.00
      P1  H  7997  8010       L1     5  0.76

> <Gold.PLP.Chemscore.Internal.Correction>
0.1002

> <Gold.Rescore>
     Score         DG    S(hbond)    S(metal)    S(lipo)     H(rot)  DE(clash)    DE(int)     intcor
     17.18     -18.77       1.68        0.00     118.28       2.41       0.34       1.25       ----

> <Gold.Chemscore.Fitness>
17.1823

> <Gold.Chemscore.DG>
-18.7652

> <Gold.Chemscore.ZeroCoef>
-5.4800

> <Gold.Chemscore.Hbond>
1.6843

> <Gold.Chemscore.Metal>
0.0000

> <Gold.Chemscore.Lipo>
118.2762

> <Gold.Chemscore.Internal_Hbond>
0.0000

> <Gold.Chemscore.DEClash>
0.3375

> <Gold.Chemscore.DEInternal>
1.2455

> <Gold.Chemscore.Rot>
2.4136

> <Gold.Chemscore.Internal.Correction>
   9.000000E+99

> <Gold.Chemscore.Hbonds>
donor molecule, donor type, donor heavy atom, donor atom, acceptor molecule, acceptor atom, score
      L1  H    18    56       P1 10174  0.78
      P1  H  7997  8010       L1     5  0.25

> <Gold.Chemscore.Hbond.Weighted>
-5.6257

> <Gold.Chemscore.Metal.Weighted>
-0.0000

> <Gold.Chemscore.Lipo.Weighted>
-13.8383

> <Gold.Chemscore.Internal_Hbond.Weighted>
0.0000

> <Gold.Chemscore.DEClash.Weighted>
0.3375

> <Gold.Chemscore.DEInternal.Weighted>
1.2455

> <Gold.Chemscore.Rot.Weighted>
6.1788

> <Gold.Chemscore.Internal.Correction.Weighted>
   9.000000E+99

> <Gold.Protein.RotatedTorsions>
[ 6907 6896 6895 6894 ] final   79.83 input  -60.11 | X-H torsion
[ 7974 7965 7964 7962 ] final -178.96 input  175.53 | X-H torsion
[ 8008 7997 7996 7995 ] final   49.33 input   59.86 | X-H torsion
[ 10167 10162 10161 10158 ] final  144.14 input  -65.29 | X-H torsion
[ 10718 10713 10712 10709 ] final  -68.23 input   66.30 | X-H torsion
[ 10763 10752 10751 10750 ] final   68.69 input  -60.55 | X-H torsion
[ 11005 11000 10999 10996 ] final   -2.35 input  -57.11 | X-H torsion

> <Gold.Protein.ActiveResidues>
 VAL166  LYS551  ARG553  GLY616  TRP617  ASP618  TYR619  PRO620  LYS621  CYS622 
 ASP623  PHE694  ASN695  SER759  ASP760  ASP761  ALA762  ILE779  LEU786  VAL792 
 PHE793  MET794  SER795  GLU796  ALA797  LYS798  CYS799  TRP800  GLU811  SER814 

> <Gold.Protein.RotatedAtoms>
  152.5213  134.3451  159.9230 H   0  0  0  0  0  0  0  0  0  0  0  0  # atno 6907 bound_to 6896
  151.3401  133.3959  159.2678 H   0  0  0  0  0  0  0  0  0  0  0  0  # atno 6908 bound_to 6896
  150.9810  134.9183  159.7902 H   0  0  0  0  0  0  0  0  0  0  0  0  # atno 6909 bound_to 6896
  144.7133  140.0789  143.6426 H   0  0  0  0  0  0  0  0  0  0  0  0  # atno 7974 bound_to 7965
  155.4004  140.3437  155.4256 H   0  0  0  0  0  0  0  0  0  0  0  0  # atno 8008 bound_to 7997
  156.1506  140.1570  156.8807 H   0  0  0  0  0  0  0  0  0  0  0  0  # atno 8009 bound_to 7997
  154.5049  140.0805  156.7856 H   0  0  0  0  0  0  0  0  0  0  0  0  # atno 8010 bound_to 7997
  139.4953  144.5992  151.6517 H   0  0  0  0  0  0  0  0  0  0  0  0  # atno 10167 bound_to 10162
  156.0516  130.4291  150.1970 H   0  0  0  0  0  0  0  0  0  0  0  0  # atno 10718 bound_to 10713
  153.0248  135.5238  154.7174 H   0  0  0  0  0  0  0  0  0  0  0  0  # atno 10763 bound_to 10752
  154.6239  135.2892  155.0297 H   0  0  0  0  0  0  0  0  0  0  0  0  # atno 10764 bound_to 10752
  154.1273  135.6598  153.4967 H   0  0  0  0  0  0  0  0  0  0  0  0  # atno 10765 bound_to 10752
  140.6574  133.9351  155.8415 H   0  0  0  0  0  0  0  0  0  0  0  0  # atno 11005 bound_to 11000
  145.9719  139.2876  143.1094 LP  0  0  0  0  0  0  0  0  0  0  0  0  # atno 17320 bound_to 7965
  145.9107  140.9182  143.0455 LP  0  0  0  0  0  0  0  0  0  0  0  0  # atno 17321 bound_to 7965
  140.5638  144.0224  150.6182 LP  0  0  0  0  0  0  0  0  0  0  0  0  # atno 17342 bound_to 10162
  140.3319  143.3072  152.0678 LP  0  0  0  0  0  0  0  0  0  0  0  0  # atno 17343 bound_to 10162
  157.0053  130.9934  151.3380 LP  0  0  0  0  0  0  0  0  0  0  0  0  # atno 17370 bound_to 10713
  157.5447  130.8143  149.8071 LP  0  0  0  0  0  0  0  0  0  0  0  0  # atno 17371 bound_to 10713
  141.0491  134.0511  157.3806 LP  0  0  0  0  0  0  0  0  0  0  0  0  # atno 17394 bound_to 11000
  139.9025  135.0169  156.7334 LP  0  0  0  0  0  0  0  0  0  0  0  0  # atno 17395 bound_to 11000

$$$$
