AV-unprocessed.smi:2294|AV-procd|sdf|9216|dock8
  -GOLD-   2272012433D 1   1.00000     0.00000
 Structure written by MMmdl.
 34 35  0  0  0  0  0  0  0  0  1 V2000
  148.4087  138.4082  153.5894 C   0  0  0  0  0  0  0  0  0  0  0  0
  149.2613  139.3517  154.4192 C   0  0  0  0  0  0  0  0  0  0  0  0
  148.6504  140.5553  154.7824 N   0  0  0  0  0  0  0  0  0  0  0  0
  149.3009  141.4202  155.4896 C   0  0  0  0  0  0  0  0  0  0  0  0
  150.6199  141.1861  155.9138 N   0  0  0  0  0  0  0  0  0  0  0  0
  151.2483  142.2535  156.7115 C   0  0  0  0  0  0  0  0  0  0  0  0
  150.5331  142.4766  158.0628 C   0  0  2  0  0  0  0  0  0  0  0  0
  149.8548  143.7173  158.0248 O   0  0  0  0  0  0  0  0  0  0  0  0
  151.5275  142.4172  159.2158 C   0  0  0  0  0  0  0  0  0  0  0  0
  151.7501  143.5505  160.0308 C   0  0  0  0  0  0  0  0  0  0  0  0
  152.6771  143.4961  161.0894 C   0  0  0  0  0  0  0  0  0  0  0  0
  153.3924  142.3098  161.3390 C   0  0  0  0  0  0  0  0  0  0  0  0
  153.1825  141.1797  160.5264 C   0  0  0  0  0  0  0  0  0  0  0  0
  152.2559  141.2318  159.4666 C   0  0  0  0  0  0  0  0  0  0  0  0
  152.0751  140.1372  158.6888 F   0  0  0  0  0  0  0  0  0  0  0  0
  151.2908  140.0401  155.6003 C   0  0  0  0  0  0  0  0  0  0  0  0
  152.4488  139.8436  155.9731 O   0  0  0  0  0  0  0  0  0  0  0  0
  150.5379  139.0652  154.7940 C   0  0  0  0  0  0  0  0  0  0  0  0
  151.2545  137.7717  154.4256 C   0  0  0  0  0  0  0  0  0  0  0  0
  148.8752  138.2230  152.6216 H   0  0  0  0  0  0  0  0  0  0  0  0
  147.4169  138.8243  153.4087 H   0  0  0  0  0  0  0  0  0  0  0  0
  148.2810  137.4555  154.1038 H   0  0  0  0  0  0  0  0  0  0  0  0
  148.8733  142.3773  155.7944 H   0  0  0  0  0  0  0  0  0  0  0  0
  152.2860  141.9703  156.9014 H   0  0  0  0  0  0  0  0  0  0  0  0
  151.3271  143.1913  156.1581 H   0  0  0  0  0  0  0  0  0  0  0  0
  149.7778  141.7056  158.2191 H   0  0  0  0  0  0  0  0  0  0  0  0
  149.8204  144.0132  157.1280 H   0  0  0  0  0  0  0  0  0  0  0  0
  151.2125  144.4691  159.8457 H   0  0  0  0  0  0  0  0  0  0  0  0
  152.8404  144.3658  161.7087 H   0  0  0  0  0  0  0  0  0  0  0  0
  154.1038  142.2681  162.1507 H   0  0  0  0  0  0  0  0  0  0  0  0
  153.7349  140.2709  160.7147 H   0  0  0  0  0  0  0  0  0  0  0  0
  151.5517  137.2364  155.3278 H   0  0  0  0  0  0  0  0  0  0  0  0
  152.1545  137.9905  153.8500 H   0  0  0  0  0  0  0  0  0  0  0  0
  150.6426  137.0954  153.8311 H   0  0  0  0  0  0  0  0  0  0  0  0
  1  2  1  0  0  0  0
  1 20  1  0  0  0  0
  1 21  1  0  0  0  0
  1 22  1  0  0  0  0
  2 18  2  0  0  0  0
  2  3  1  0  0  0  0
  3  4  2  0  0  0  0
  4  5  1  0  0  0  0
  4 23  1  0  0  0  0
  5  6  1  0  0  0  0
  5 16  1  0  0  0  0
  6  7  1  0  0  0  0
  6 24  1  0  0  0  0
  6 25  1  0  0  0  0
  7  8  1  0  0  0  0
  7  9  1  0  0  0  0
  7 26  1  0  0  0  0
  8 27  1  0  0  0  0
  9 14  1  0  0  0  0
  9 10  2  0  0  0  0
 10 11  1  0  0  0  0
 10 28  1  0  0  0  0
 11 12  2  0  0  0  0
 11 29  1  0  0  0  0
 12 13  1  0  0  0  0
 12 30  1  0  0  0  0
 13 14  2  0  0  0  0
 13 31  1  0  0  0  0
 14 15  1  0  0  0  0
 16 17  2  0  0  0  0
 16 18  1  0  0  0  0
 18 19  1  0  0  0  0
 19 32  1  0  0  0  0
 19 33  1  0  0  0  0
 19 34  1  0  0  0  0
M  END
> <s_m_source_file>
AV-unprocessed.smi

> <i_m_source_file_index>
2294

> <i_lp_mmshare_version>
43012

> <i_f3d_flags>
0

> <s_epik_input>
W0NIM11jMW5bY0hdbihjKD1PKWMxW0NIM10pW0NIMl1bQ0BIXShbT0hdKWMyW2NIXVtjSF1bY0hdW2NIXWMyRg==

> <s_epik_cmdline>
J2VwaWtfcHl0aG9uJywgJy1waCcsICc3LjAnLCAnLXRuJywgJzgnLCAnLW1hJywgJzIwMCcsICctbWV0YWxfYmluZGluZycsICctaW1hZScsICc8aW5maWxlLm1hZT4nLCAnLW9tYWUnLCAnPG91dGZpbGUubWFlPic=

> <r_lp_tautomer_probability>
1

> <r_epik_Ionization_Penalty>
5.07259e-05

> <r_epik_Ionization_Penalty_Charging>
7.56727e-08

> <r_epik_Ionization_Penalty_Neutral>
5.06502e-05

> <r_epik_State_Penalty>
-0

> <r_epik_Charging_Adjusted_Penalty>
7.56727e-08

> <i_epik_Tot_Q>
0

> <i_epik_Tot_abs_Q>
0

> <r_epik_Metal_State_Penalty>
-0

> <b_epik_Metal_Only>
0

> <s_lp_Force_Field>
OPLS_2005

> <r_lp_Energy>
20.4384

> <b_lp_Chiralities_Consistent>
1

> <s_lp_Variant>
AV-unprocessed.smi:2294-1

> <Gold.Version>
5.8.1

> <Gold.Id.Protein>
6NUR|6NUR_protein|mol2

> <Gold.PLP.Fitness>
48.3779

> <Gold.PLP.PLP>
-40.8623

> <Gold.PLP.part.hbond>
-2.9608

> <Gold.PLP.part.metal>
0.0000

> <Gold.PLP.part.buried>
-0.6809

> <Gold.PLP.part.nonpolar>
-36.7538

> <Gold.PLP.part.repulsive>
0.1020

> <Gold.PLP.ligand.clash>
0.0000

> <Gold.PLP.ligand.torsion>
0.7463

> <Gold.PLP.Chemscore.Hbond>
2.0000

> <Gold.PLP.Chemscore.CHOScore>
1.0000

> <Gold.PLP.Chemscore.Metal>
0.0000

> <Gold.Chemscore.Hbonds>
donor molecule, donor type, donor heavy atom, donor atom, acceptor molecule, acceptor atom, score
      L1  H     8    27       P1  8028  1.00
      P1  H  7997  8008       L1    17  1.00
      L1  C     4    23       P1  8028  1.00

> <Gold.PLP.Chemscore.Internal.Correction>
0.0081

> <Gold.Rescore>
     Score         DG    S(hbond)    S(metal)    S(lipo)     H(rot)  DE(clash)    DE(int)     intcor
     16.44     -18.73       1.85        0.00     104.63       2.02       1.43       0.86       ----

> <Gold.Chemscore.Fitness>
16.4392

> <Gold.Chemscore.DG>
-18.7289

> <Gold.Chemscore.ZeroCoef>
-5.4800

> <Gold.Chemscore.Hbond>
1.8483

> <Gold.Chemscore.Metal>
0.0000

> <Gold.Chemscore.Lipo>
104.6308

> <Gold.Chemscore.Internal_Hbond>
0.0000

> <Gold.Chemscore.DEClash>
1.4259

> <Gold.Chemscore.DEInternal>
0.8638

> <Gold.Chemscore.Rot>
2.0181

> <Gold.Chemscore.Internal.Correction>
   9.000000E+99

> <Gold.Chemscore.Hbonds>
donor molecule, donor type, donor heavy atom, donor atom, acceptor molecule, acceptor atom, score
      L1  H     8    27       P1  8028  0.75
      P1  H  7997  8008       L1    17  0.99

> <Gold.Chemscore.Hbond.Weighted>
-6.1735

> <Gold.Chemscore.Metal.Weighted>
-0.0000

> <Gold.Chemscore.Lipo.Weighted>
-12.2418

> <Gold.Chemscore.Internal_Hbond.Weighted>
0.0000

> <Gold.Chemscore.DEClash.Weighted>
1.4259

> <Gold.Chemscore.DEInternal.Weighted>
0.8638

> <Gold.Chemscore.Rot.Weighted>
5.1663

> <Gold.Chemscore.Internal.Correction.Weighted>
   9.000000E+99

> <Gold.Protein.RotatedTorsions>
[ 6907 6896 6895 6894 ] final  115.43 input  -60.11 | X-H torsion
[ 7974 7965 7964 7962 ] final   -3.91 input  175.53 | X-H torsion
[ 8008 7997 7996 7995 ] final  -28.68 input   59.86 | X-H torsion
[ 10167 10162 10161 10158 ] final  -36.25 input  -65.29 | X-H torsion
[ 10718 10713 10712 10709 ] final -150.83 input   66.30 | X-H torsion
[ 10763 10752 10751 10750 ] final -168.45 input  -60.55 | X-H torsion
[ 11005 11000 10999 10996 ] final -133.07 input  -57.11 | X-H torsion

> <Gold.Protein.ActiveResidues>
 VAL166  LYS551  ARG553  GLY616  TRP617  ASP618  TYR619  PRO620  LYS621  CYS622 
 ASP623  PHE694  ASN695  SER759  ASP760  ASP761  ALA762  ILE779  LEU786  VAL792 
 PHE793  MET794  SER795  GLU796  ALA797  LYS798  CYS799  TRP800  GLU811  SER814 

> <Gold.Protein.RotatedAtoms>
  152.4742  133.8099  159.6997 H   0  0  0  0  0  0  0  0  0  0  0  0  # atno 6907 bound_to 6896
  150.8748  133.7444  159.2956 H   0  0  0  0  0  0  0  0  0  0  0  0  # atno 6908 bound_to 6896
  151.4968  135.1063  159.9870 H   0  0  0  0  0  0  0  0  0  0  0  0  # atno 6909 bound_to 6896
  146.2381  140.1791  142.8332 H   0  0  0  0  0  0  0  0  0  0  0  0  # atno 7974 bound_to 7965
  154.4322  140.1839  156.1127 H   0  0  0  0  0  0  0  0  0  0  0  0  # atno 8008 bound_to 7997
  156.0205  140.3341  155.7008 H   0  0  0  0  0  0  0  0  0  0  0  0  # atno 8009 bound_to 7997
  155.5983  140.0638  157.2731 H   0  0  0  0  0  0  0  0  0  0  0  0  # atno 8010 bound_to 7997
  140.7147  143.3422  151.2334 H   0  0  0  0  0  0  0  0  0  0  0  0  # atno 10167 bound_to 10162
  156.4512  130.8169  151.2399 H   0  0  0  0  0  0  0  0  0  0  0  0  # atno 10718 bound_to 10713
  154.6628  135.2927  154.9845 H   0  0  0  0  0  0  0  0  0  0  0  0  # atno 10763 bound_to 10752
  154.0899  135.6592  153.4855 H   0  0  0  0  0  0  0  0  0  0  0  0  # atno 10764 bound_to 10752
  153.0439  135.5217  154.7586 H   0  0  0  0  0  0  0  0  0  0  0  0  # atno 10765 bound_to 10752
  140.9113  134.1564  157.4387 H   0  0  0  0  0  0  0  0  0  0  0  0  # atno 11005 bound_to 11000
  144.9949  140.8580  143.5317 LP  0  0  0  0  0  0  0  0  0  0  0  0  # atno 17320 bound_to 7965
  145.1802  139.2356  143.5296 LP  0  0  0  0  0  0  0  0  0  0  0  0  # atno 17321 bound_to 7965
  139.6932  143.9657  152.2869 LP  0  0  0  0  0  0  0  0  0  0  0  0  # atno 17342 bound_to 10162
  139.9325  144.6732  150.8348 LP  0  0  0  0  0  0  0  0  0  0  0  0  # atno 17343 bound_to 10162
  157.7502  131.0137  150.3435 LP  0  0  0  0  0  0  0  0  0  0  0  0  # atno 17370 bound_to 10713
  156.3814  130.3881  149.7099 LP  0  0  0  0  0  0  0  0  0  0  0  0  # atno 17371 bound_to 10713
  139.8758  134.9937  156.5656 LP  0  0  0  0  0  0  0  0  0  0  0  0  # atno 17394 bound_to 11000
  140.8106  133.8432  155.8807 LP  0  0  0  0  0  0  0  0  0  0  0  0  # atno 17395 bound_to 11000

$$$$
