AV-unprocessed.smi:210|AV-procd|sdf|1611|dock5
  -GOLD-   2262019533D 1   1.00000     0.00000
 Structure written by MMmdl.
 57 61  0  0  0  0  0  0  0  0  1 V2000
  153.0131  138.4299  154.6803 C   0  0  0  0  0  0  0  0  0  0  0  0
  152.0539  139.4739  154.6731 O   0  0  0  0  0  0  0  0  0  0  0  0
  151.0555  139.3078  155.6708 C   0  0  2  0  0  0  0  0  0  0  0  0
  149.9001  138.4555  155.1312 C   0  0  0  0  0  0  0  0  0  0  0  0
  149.2407  139.7592  154.6517 C   0  0  1  0  0  0  0  0  0  0  0  0
  147.7880  139.8068  154.8233 N   0  0  0  0  0  0  0  0  0  0  0  0
  147.0744  140.7653  153.9876 C   0  0  0  0  0  0  0  0  0  0  0  0
  147.2004  138.5904  154.7858 C   0  0  0  0  0  0  0  0  0  0  0  0
  147.1270  137.8364  155.9143 N   0  0  0  0  0  0  0  0  0  0  0  0
  146.5403  136.6360  155.8744 C   0  0  0  0  0  0  0  0  0  0  0  0
  145.9744  136.0169  154.8353 N   0  0  0  0  0  0  0  0  0  0  0  0
  146.0463  136.7759  153.7033 C   0  0  0  0  0  0  0  0  0  0  0  0
  146.6402  138.0640  153.5934 C   0  0  0  0  0  0  0  0  0  0  0  0
  146.5300  138.5341  152.2918 N   0  0  0  0  0  0  0  0  0  0  0  0
  145.9066  137.5746  151.6640 C   0  0  0  0  0  0  0  0  0  0  0  0
  145.5728  136.4825  152.4353 N   0  0  0  0  0  0  0  0  0  0  0  0
  144.8991  135.2936  151.9953 C   0  0  0  0  0  0  0  0  0  0  0  0
  145.5563  133.9218  152.1492 C   0  0  0  0  0  0  0  0  0  0  0  0
  144.8621  133.4507  150.8516 C   0  0  0  0  0  0  0  0  0  0  0  0
  145.7403  132.6098  149.9102 C   0  0  0  0  0  0  0  0  0  0  0  0
  145.0951  132.3823  148.6736 O   0  0  0  0  0  0  0  0  0  0  0  0
  143.5103  132.7372  151.0552 C   0  0  0  0  0  0  0  0  0  0  0  0
  142.8626  132.4935  149.8227 O   0  0  0  0  0  0  0  0  0  0  0  0
  144.7684  134.9561  150.5085 C   0  0  0  0  0  0  0  0  0  0  0  0
  150.0516  140.4794  155.7501 C   0  0  0  0  0  0  0  0  0  0  0  0
  150.4975  141.9431  155.6149 C   0  0  0  0  0  0  0  0  0  0  0  0
  150.4157  142.0552  157.1404 C   0  0  0  0  0  0  0  0  0  0  0  0
  149.4699  140.8497  157.1283 C   0  0  0  0  0  0  0  0  0  0  0  0
  153.7847  138.6356  153.9383 H   0  0  0  0  0  0  0  0  0  0  0  0
  152.5504  137.4752  154.4271 H   0  0  0  0  0  0  0  0  0  0  0  0
  153.4963  138.3317  155.6526 H   0  0  0  0  0  0  0  0  0  0  0  0
  151.4303  138.9488  156.6311 H   0  0  0  0  0  0  0  0  0  0  0  0
  150.1703  137.7624  154.3339 H   0  0  0  0  0  0  0  0  0  0  0  0
  149.3487  137.9541  155.9289 H   0  0  0  0  0  0  0  0  0  0  0  0
  149.5789  140.0400  153.6523 H   0  0  0  0  0  0  0  0  0  0  0  0
  145.9974  140.6998  154.1485 H   0  0  0  0  0  0  0  0  0  0  0  0
  147.2753  140.5843  152.9309 H   0  0  0  0  0  0  0  0  0  0  0  0
  147.3788  141.7852  154.2177 H   0  0  0  0  0  0  0  0  0  0  0  0
  146.5211  136.0948  156.8088 H   0  0  0  0  0  0  0  0  0  0  0  0
  145.6737  137.6385  150.6110 H   0  0  0  0  0  0  0  0  0  0  0  0
  143.9139  135.2944  152.4642 H   0  0  0  0  0  0  0  0  0  0  0  0
  146.6433  133.9640  152.0581 H   0  0  0  0  0  0  0  0  0  0  0  0
  145.2622  133.3796  153.0485 H   0  0  0  0  0  0  0  0  0  0  0  0
  146.7037  133.0855  149.7254 H   0  0  0  0  0  0  0  0  0  0  0  0
  145.9606  131.6380  150.3526 H   0  0  0  0  0  0  0  0  0  0  0  0
  145.1268  133.1802  148.1678 H   0  0  0  0  0  0  0  0  0  0  0  0
  143.6345  131.7893  151.5790 H   0  0  0  0  0  0  0  0  0  0  0  0
  142.8383  133.3352  151.6709 H   0  0  0  0  0  0  0  0  0  0  0  0
  142.0251  132.9313  149.8322 H   0  0  0  0  0  0  0  0  0  0  0  0
  143.8255  135.2705  150.0598 H   0  0  0  0  0  0  0  0  0  0  0  0
  145.6136  135.3104  149.9164 H   0  0  0  0  0  0  0  0  0  0  0  0
  151.4903  142.0974  155.1945 H   0  0  0  0  0  0  0  0  0  0  0  0
  149.7563  142.5641  155.1104 H   0  0  0  0  0  0  0  0  0  0  0  0
  151.3670  141.8393  157.6294 H   0  0  0  0  0  0  0  0  0  0  0  0
  149.9719  142.9811  157.5069 H   0  0  0  0  0  0  0  0  0  0  0  0
  148.4219  141.1480  157.1061 H   0  0  0  0  0  0  0  0  0  0  0  0
  149.6571  140.1207  157.9173 H   0  0  0  0  0  0  0  0  0  0  0  0
  1  2  1  0  0  0  0
  1 29  1  0  0  0  0
  1 30  1  0  0  0  0
  1 31  1  0  0  0  0
  2  3  1  0  0  0  0
  3 25  1  0  0  0  0
  3  4  1  0  0  0  0
  3 32  1  0  0  0  0
  4  5  1  0  0  0  0
  4 33  1  0  0  0  0
  4 34  1  0  0  0  0
  5  6  1  0  0  0  0
  5 25  1  0  0  0  0
  5 35  1  0  0  0  0
  6  7  1  0  0  0  0
  6  8  1  0  0  0  0
  7 36  1  0  0  0  0
  7 37  1  0  0  0  0
  7 38  1  0  0  0  0
  8 13  1  0  0  0  0
  8  9  2  0  0  0  0
  9 10  1  0  0  0  0
 10 11  2  0  0  0  0
 10 39  1  0  0  0  0
 11 12  1  0  0  0  0
 12 16  1  0  0  0  0
 12 13  2  0  0  0  0
 13 14  1  0  0  0  0
 14 15  2  0  0  0  0
 15 16  1  0  0  0  0
 15 40  1  0  0  0  0
 16 17  1  0  0  0  0
 17 24  1  0  0  0  0
 17 18  1  0  0  0  0
 17 41  1  0  0  0  0
 18 19  1  0  0  0  0
 18 42  1  0  0  0  0
 18 43  1  0  0  0  0
 19 20  1  0  0  0  0
 19 22  1  0  0  0  0
 19 24  1  0  0  0  0
 20 21  1  0  0  0  0
 20 44  1  0  0  0  0
 20 45  1  0  0  0  0
 21 46  1  0  0  0  0
 22 23  1  0  0  0  0
 22 47  1  0  0  0  0
 22 48  1  0  0  0  0
 23 49  1  0  0  0  0
 24 50  1  0  0  0  0
 24 51  1  0  0  0  0
 25 28  1  0  0  0  0
 25 26  1  0  0  0  0
 26 27  1  0  0  0  0
 26 52  1  0  0  0  0
 26 53  1  0  0  0  0
 27 28  1  0  0  0  0
 27 54  1  0  0  0  0
 27 55  1  0  0  0  0
 28 56  1  0  0  0  0
 28 57  1  0  0  0  0
M  END
> <s_m_source_file>
AV-unprocessed.smi

> <i_m_source_file_index>
210

> <i_lp_mmshare_version>
43012

> <i_f3d_flags>
0

> <s_epik_input>
W0NIMl0xW0NIMl1bQ0gyXUMxMltDQEhdKE9bQ0gzXSlbQ0gyXVtDQEhdMk4oW0NIM10pYyhuW2NIXW4zKWMoYzM0KW5bY0hdbjRbQ0hdKFtDSDJdNSlbQ0gyXUM1KFtDSDJdW09IXSlbQ0gyXVtPSF0=

> <s_epik_cmdline>
J2VwaWtfcHl0aG9uJywgJy1waCcsICc3LjAnLCAnLXRuJywgJzgnLCAnLW1hJywgJzIwMCcsICctbWV0YWxfYmluZGluZycsICctaW1hZScsICc8aW5maWxlLm1hZT4nLCAnLW9tYWUnLCAnPG91dGZpbGUubWFlPic=

> <r_lp_tautomer_probability>
1

> <r_epik_Ionization_Penalty>
0.00313676

> <r_epik_Ionization_Penalty_Charging>
0

> <r_epik_Ionization_Penalty_Neutral>
0.00313676

> <r_epik_State_Penalty>
0.00199132

> <r_epik_Charging_Adjusted_Penalty>
0.00199132

> <i_epik_Tot_Q>
0

> <i_epik_Tot_abs_Q>
0

> <r_epik_Metal_State_Penalty>
-0

> <b_epik_Metal_Only>
0

> <s_lp_Force_Field>
OPLS_2005

> <r_lp_Energy>
59.5036

> <b_lp_Chiralities_Consistent>
1

> <s_lp_Variant>
AV-unprocessed.smi:210-1

> <Gold.Version>
5.8.1

> <Gold.Id.Protein>
6NUR|6NUR_protein|mol2

> <Gold.PLP.Fitness>
48.9484

> <Gold.PLP.PLP>
-41.7232

> <Gold.PLP.part.hbond>
-5.0000

> <Gold.PLP.part.metal>
0.0000

> <Gold.PLP.part.buried>
-3.9310

> <Gold.PLP.part.nonpolar>
-33.4816

> <Gold.PLP.part.repulsive>
0.4919

> <Gold.PLP.ligand.clash>
0.9035

> <Gold.PLP.ligand.torsion>
2.1551

> <Gold.PLP.Chemscore.Hbond>
2.8880

> <Gold.PLP.Chemscore.CHOScore>
0.8769

> <Gold.PLP.Chemscore.Metal>
0.0000

> <Gold.Chemscore.Hbonds>
donor molecule, donor type, donor heavy atom, donor atom, acceptor molecule, acceptor atom, score
      L1  H    21    46       P1  7921  0.98
      L1  H    23    49       P1 10186  1.00
      P1  H  7989  7998       L1     2  0.88
      L1  C    15    40       P1 10171  0.90

> <Gold.PLP.Chemscore.Internal.Correction>
1.1443

> <Gold.Rescore>
     Score         DG    S(hbond)    S(metal)    S(lipo)     H(rot)  DE(clash)    DE(int)     intcor
     10.66     -15.79       2.42        0.00      97.21       3.57       0.31       4.82       ----

> <Gold.Chemscore.Fitness>
10.6612

> <Gold.Chemscore.DG>
-15.7867

> <Gold.Chemscore.ZeroCoef>
-5.4800

> <Gold.Chemscore.Hbond>
2.4179

> <Gold.Chemscore.Metal>
0.0000

> <Gold.Chemscore.Lipo>
97.2069

> <Gold.Chemscore.Internal_Hbond>
0.0000

> <Gold.Chemscore.DEClash>
0.3081

> <Gold.Chemscore.DEInternal>
4.8174

> <Gold.Chemscore.Rot>
3.5712

> <Gold.Chemscore.Internal.Correction>
   9.000000E+99

> <Gold.Chemscore.Hbonds>
donor molecule, donor type, donor heavy atom, donor atom, acceptor molecule, acceptor atom, score
      L1  H    21    46       P1  7921  0.23
      L1  H    23    49       P1 10186  0.95
      P1  H  7989  7998       L1     2  0.74

> <Gold.Chemscore.Hbond.Weighted>
-8.0759

> <Gold.Chemscore.Metal.Weighted>
-0.0000

> <Gold.Chemscore.Lipo.Weighted>
-11.3732

> <Gold.Chemscore.Internal_Hbond.Weighted>
0.0000

> <Gold.Chemscore.DEClash.Weighted>
0.3081

> <Gold.Chemscore.DEInternal.Weighted>
4.8174

> <Gold.Chemscore.Rot.Weighted>
9.1423

> <Gold.Chemscore.Internal.Correction.Weighted>
   9.000000E+99

> <Gold.Protein.RotatedTorsions>
[ 6907 6896 6895 6894 ] final  177.21 input  -60.11 | X-H torsion
[ 7974 7965 7964 7962 ] final   -7.71 input  175.53 | X-H torsion
[ 8008 7997 7996 7995 ] final  -51.12 input   59.86 | X-H torsion
[ 10167 10162 10161 10158 ] final   -5.91 input  -65.29 | X-H torsion
[ 10718 10713 10712 10709 ] final  156.30 input   66.30 | X-H torsion
[ 10763 10752 10751 10750 ] final -119.51 input  -60.55 | X-H torsion
[ 11005 11000 10999 10996 ] final  -51.95 input  -57.11 | X-H torsion

> <Gold.Protein.ActiveResidues>
 VAL166  LYS551  ARG553  GLY616  TRP617  ASP618  TYR619  PRO620  LYS621  CYS622 
 ASP623  PHE694  ASN695  SER759  ASP760  ASP761  ALA762  ILE779  LEU786  VAL792 
 PHE793  MET794  SER795  GLU796  ALA797  LYS798  CYS799  TRP800  GLU811  SER814 

> <Gold.Protein.RotatedAtoms>
  151.7076  133.3312  159.3282 H   0  0  0  0  0  0  0  0  0  0  0  0  # atno 6907 bound_to 6896
  150.7708  134.6561  159.6323 H   0  0  0  0  0  0  0  0  0  0  0  0  # atno 6908 bound_to 6896
  152.3731  134.6706  160.0221 H   0  0  0  0  0  0  0  0  0  0  0  0  # atno 6909 bound_to 6896
  146.2300  140.2360  142.8342 H   0  0  0  0  0  0  0  0  0  0  0  0  # atno 7974 bound_to 7965
  154.4076  140.1256  156.4776 H   0  0  0  0  0  0  0  0  0  0  0  0  # atno 8008 bound_to 7997
  155.7117  140.3494  155.4957 H   0  0  0  0  0  0  0  0  0  0  0  0  # atno 8009 bound_to 7997
  155.9295  140.1067  157.1134 H   0  0  0  0  0  0  0  0  0  0  0  0  # atno 8010 bound_to 7997
  140.6979  143.6254  150.8573 H   0  0  0  0  0  0  0  0  0  0  0  0  # atno 10167 bound_to 10162
  157.2068  131.0688  151.1993 H   0  0  0  0  0  0  0  0  0  0  0  0  # atno 10718 bound_to 10713
  154.8619  135.4236  154.2310 H   0  0  0  0  0  0  0  0  0  0  0  0  # atno 10763 bound_to 10752
  153.3295  135.6987  153.6966 H   0  0  0  0  0  0  0  0  0  0  0  0  # atno 10764 bound_to 10752
  153.5988  135.3541  155.2911 H   0  0  0  0  0  0  0  0  0  0  0  0  # atno 10765 bound_to 10752
  141.0898  133.6635  156.3952 H   0  0  0  0  0  0  0  0  0  0  0  0  # atno 11005 bound_to 11000
  144.9521  140.8189  143.5565 LP  0  0  0  0  0  0  0  0  0  0  0  0  # atno 17320 bound_to 7965
  145.2322  139.2110  143.5037 LP  0  0  0  0  0  0  0  0  0  0  0  0  # atno 17321 bound_to 7965
  139.9974  143.5781  152.2888 LP  0  0  0  0  0  0  0  0  0  0  0  0  # atno 17342 bound_to 10162
  139.6458  144.7658  151.2246 LP  0  0  0  0  0  0  0  0  0  0  0  0  # atno 17343 bound_to 10162
  157.3712  130.7182  149.6566 LP  0  0  0  0  0  0  0  0  0  0  0  0  # atno 17370 bound_to 10713
  155.9694  130.4198  150.4393 LP  0  0  0  0  0  0  0  0  0  0  0  0  # atno 17371 bound_to 10713
  140.5278  134.6242  157.5340 LP  0  0  0  0  0  0  0  0  0  0  0  0  # atno 17394 bound_to 11000
  139.9722  134.7274  156.0019 LP  0  0  0  0  0  0  0  0  0  0  0  0  # atno 17395 bound_to 11000

$$$$
