AV-unprocessed.smi:1419|AV-procd|sdf|5785|dock4
  -GOLD-   22720 5433D 1   1.00000     0.00000
 Structure written by MMmdl.
 41 42  0  0  0  0  0  0  0  0  1 V2000
  148.1545  141.4018  157.7243 C   0  0  0  0  0  0  0  0  0  0  0  0
  149.5104  141.4464  157.0010 C   0  0  1  0  0  0  0  0  0  0  0  0
  149.4173  142.0233  155.5710 C   0  0  0  0  0  0  0  0  0  0  0  0
  148.5626  141.2362  154.7025 N   0  0  0  0  0  0  0  0  0  0  0  0
  147.3955  141.6491  154.0732 C   0  0  0  0  0  0  0  0  0  0  0  0
  146.9336  140.5695  153.3549 C   0  0  0  0  0  0  0  0  0  0  0  0
  147.7979  139.4900  153.5228 N   0  0  0  0  0  0  0  0  0  0  0  0
  148.7393  139.9610  154.3304 C   0  0  0  0  0  0  0  0  0  0  0  0
  150.4483  142.2291  157.7999 N   0  0  0  0  0  0  0  0  0  0  0  0
  151.5783  141.7660  158.3608 C   0  0  0  0  0  0  0  0  0  0  0  0
  151.9322  140.5915  158.2489 O   0  0  0  0  0  0  0  0  0  0  0  0
  152.2904  142.6931  159.0482 N   0  0  0  0  0  0  0  0  0  0  0  0
  153.1867  142.4557  160.1876 C   0  0  0  0  0  0  0  0  0  0  0  0
  152.5251  143.0400  161.4505 C   0  0  1  0  0  0  0  0  0  0  0  0
  153.4207  142.9018  162.6863 C   0  0  0  0  0  0  0  0  0  0  0  0
  152.2611  144.4313  161.2506 O   0  0  0  0  0  0  0  0  0  0  0  0
  151.4810  144.7566  160.0952 C   0  0  2  0  0  0  0  0  0  0  0  0
  150.0012  144.3800  160.2930 C   0  0  0  0  0  0  0  0  0  0  0  0
  152.1243  144.1331  158.8380 C   0  0  0  0  0  0  0  0  0  0  0  0
  147.4481  140.7486  157.2115 H   0  0  0  0  0  0  0  0  0  0  0  0
  147.7063  142.3938  157.7868 H   0  0  0  0  0  0  0  0  0  0  0  0
  148.2649  141.0216  158.7404 H   0  0  0  0  0  0  0  0  0  0  0  0
  149.8814  140.4214  156.9410 H   0  0  0  0  0  0  0  0  0  0  0  0
  149.0346  143.0445  155.5992 H   0  0  0  0  0  0  0  0  0  0  0  0
  150.4059  142.0741  155.1122 H   0  0  0  0  0  0  0  0  0  0  0  0
  146.9995  142.6475  154.1877 H   0  0  0  0  0  0  0  0  0  0  0  0
  146.0537  140.4875  152.7342 H   0  0  0  0  0  0  0  0  0  0  0  0
  149.5762  139.3638  154.6620 H   0  0  0  0  0  0  0  0  0  0  0  0
  150.2236  143.2040  157.9355 H   0  0  0  0  0  0  0  0  0  0  0  0
  153.4306  141.4054  160.3467 H   0  0  0  0  0  0  0  0  0  0  0  0
  154.1411  142.9505  160.0006 H   0  0  0  0  0  0  0  0  0  0  0  0
  151.5897  142.5158  161.6489 H   0  0  0  0  0  0  0  0  0  0  0  0
  153.6447  141.8554  162.8945 H   0  0  0  0  0  0  0  0  0  0  0  0
  152.9333  143.3189  163.5678 H   0  0  0  0  0  0  0  0  0  0  0  0
  154.3669  143.4263  162.5494 H   0  0  0  0  0  0  0  0  0  0  0  0
  151.5247  145.8411  159.9909 H   0  0  0  0  0  0  0  0  0  0  0  0
  149.4013  144.7148  159.4464 H   0  0  0  0  0  0  0  0  0  0  0  0
  149.5980  144.8513  161.1894 H   0  0  0  0  0  0  0  0  0  0  0  0
  149.8537  143.3047  160.3885 H   0  0  0  0  0  0  0  0  0  0  0  0
  153.1031  144.5813  158.6616 H   0  0  0  0  0  0  0  0  0  0  0  0
  151.5291  144.3695  157.9548 H   0  0  0  0  0  0  0  0  0  0  0  0
  1  2  1  0  0  0  0
  1 20  1  0  0  0  0
  1 21  1  0  0  0  0
  1 22  1  0  0  0  0
  2  3  1  0  0  0  0
  2  9  1  0  0  0  0
  2 23  1  0  0  0  0
  3  4  1  0  0  0  0
  3 24  1  0  0  0  0
  3 25  1  0  0  0  0
  4  8  1  0  0  0  0
  4  5  1  0  0  0  0
  5  6  2  0  0  0  0
  5 26  1  0  0  0  0
  6  7  1  0  0  0  0
  6 27  1  0  0  0  0
  7  8  2  0  0  0  0
  8 28  1  0  0  0  0
  9 10  1  0  0  0  0
  9 29  1  0  0  0  0
 10 11  2  0  0  0  0
 10 12  1  0  0  0  0
 12 19  1  0  0  0  0
 12 13  1  0  0  0  0
 13 14  1  0  0  0  0
 13 30  1  0  0  0  0
 13 31  1  0  0  0  0
 14 15  1  0  0  0  0
 14 16  1  0  0  0  0
 14 32  1  0  0  0  0
 15 33  1  0  0  0  0
 15 34  1  0  0  0  0
 15 35  1  0  0  0  0
 16 17  1  0  0  0  0
 17 18  1  0  0  0  0
 17 19  1  0  0  0  0
 17 36  1  0  0  0  0
 18 37  1  0  0  0  0
 18 38  1  0  0  0  0
 18 39  1  0  0  0  0
 19 40  1  0  0  0  0
 19 41  1  0  0  0  0
M  END
> <s_m_source_file>
AV-unprocessed.smi

> <i_m_source_file_index>
1419

> <i_lp_mmshare_version>
43012

> <i_f3d_flags>
0

> <s_epik_input>
W2NIXTFuW2NIXVtjSF1uMVtDSDJdW0NAQEhdKFtDSDNdKVtOSF1DKD1PKU4yW0NIMl1bQ0BASF0oW0NIM10pT1tDQEBIXShbQ0gzXSlbQ0gyXTI=

> <s_epik_cmdline>
J2VwaWtfcHl0aG9uJywgJy1waCcsICc3LjAnLCAnLXRuJywgJzgnLCAnLW1hJywgJzIwMCcsICctbWV0YWxfYmluZGluZycsICctaW1hZScsICc8aW5maWxlLm1hZT4nLCAnLW9tYWUnLCAnPG91dGZpbGUubWFlPic=

> <r_lp_tautomer_probability>
1

> <r_epik_Ionization_Penalty>
0.625124

> <r_epik_Ionization_Penalty_Charging>
0.625093

> <r_epik_Ionization_Penalty_Neutral>
3.17415e-05

> <r_epik_State_Penalty>
0.641455

> <r_epik_Charging_Adjusted_Penalty>
1.26655

> <i_epik_Tot_Q>
0

> <i_epik_Tot_abs_Q>
0

> <r_epik_Metal_State_Penalty>
0.307717

> <b_epik_Metal_Only>
0

> <s_lp_Force_Field>
OPLS_2005

> <r_lp_Energy>
31.3243

> <b_lp_Chiralities_Consistent>
1

> <s_lp_Variant>
AV-unprocessed.smi:1419-12

> <Gold.Version>
5.8.1

> <Gold.Id.Protein>
6NUR|6NUR_protein|mol2

> <Gold.PLP.Fitness>
45.7314

> <Gold.PLP.PLP>
-43.5646

> <Gold.PLP.part.hbond>
0.0000

> <Gold.PLP.part.metal>
0.0000

> <Gold.PLP.part.buried>
-4.2289

> <Gold.PLP.part.nonpolar>
-40.3504

> <Gold.PLP.part.repulsive>
1.1538

> <Gold.PLP.ligand.clash>
0.3341

> <Gold.PLP.ligand.torsion>
0.2681

> <Gold.PLP.Chemscore.Hbond>
0.0000

> <Gold.PLP.Chemscore.CHOScore>
0.9973

> <Gold.PLP.Chemscore.Metal>
0.0000

> <Gold.Chemscore.Hbonds>
donor molecule, donor type, donor heavy atom, donor atom, acceptor molecule, acceptor atom, score
      L1  C     6    27       P1 10175  1.00

> <Gold.PLP.Chemscore.Internal.Correction>
0.0451

> <Gold.Rescore>
     Score         DG    S(hbond)    S(metal)    S(lipo)     H(rot)  DE(clash)    DE(int)     intcor
     12.09     -14.26       0.44        0.00      97.02       1.58       2.03       0.14       ----

> <Gold.Chemscore.Fitness>
12.0888

> <Gold.Chemscore.DG>
-14.2577

> <Gold.Chemscore.ZeroCoef>
-5.4800

> <Gold.Chemscore.Hbond>
0.4380

> <Gold.Chemscore.Metal>
0.0000

> <Gold.Chemscore.Lipo>
97.0236

> <Gold.Chemscore.Internal_Hbond>
0.0000

> <Gold.Chemscore.DEClash>
2.0254

> <Gold.Chemscore.DEInternal>
0.1434

> <Gold.Chemscore.Rot>
1.5769

> <Gold.Chemscore.Internal.Correction>
   9.000000E+99

> <Gold.Chemscore.Hbond.Weighted>
-1.4628

> <Gold.Chemscore.Metal.Weighted>
-0.0000

> <Gold.Chemscore.Lipo.Weighted>
-11.3518

> <Gold.Chemscore.Internal_Hbond.Weighted>
0.0000

> <Gold.Chemscore.DEClash.Weighted>
2.0254

> <Gold.Chemscore.DEInternal.Weighted>
0.1434

> <Gold.Chemscore.Rot.Weighted>
4.0369

> <Gold.Chemscore.Internal.Correction.Weighted>
   9.000000E+99

> <Gold.Protein.RotatedTorsions>
[ 6907 6896 6895 6894 ] final  -50.72 input  -60.11 | X-H torsion
[ 7974 7965 7964 7962 ] final  -54.54 input  175.53 | X-H torsion
[ 8008 7997 7996 7995 ] final -146.57 input   59.86 | X-H torsion
[ 10167 10162 10161 10158 ] final  156.28 input  -65.29 | X-H torsion
[ 10718 10713 10712 10709 ] final -100.21 input   66.30 | X-H torsion
[ 10763 10752 10751 10750 ] final  131.48 input  -60.55 | X-H torsion
[ 11005 11000 10999 10996 ] final   62.67 input  -57.11 | X-H torsion

> <Gold.Protein.ActiveResidues>
 VAL166  LYS551  ARG553  GLY616  TRP617  ASP618  TYR619  PRO620  LYS621  CYS622 
 ASP623  PHE694  ASN695  SER759  ASP760  ASP761  ALA762  ILE779  LEU786  VAL792 
 PHE793  MET794  SER795  GLU796  ALA797  LYS798  CYS799  TRP800  GLU811  SER814 

> <Gold.Protein.RotatedAtoms>
  150.8680  134.8047  159.7132 H   0  0  0  0  0  0  0  0  0  0  0  0  # atno 6907 bound_to 6896
  152.4694  134.4993  159.9729 H   0  0  0  0  0  0  0  0  0  0  0  0  # atno 6908 bound_to 6896
  151.5086  133.3451  159.2916 H   0  0  0  0  0  0  0  0  0  0  0  0  # atno 6909 bound_to 6896
  145.8844  140.8120  142.9823 H   0  0  0  0  0  0  0  0  0  0  0  0  # atno 7974 bound_to 7965
  155.5616  140.0626  157.2827 H   0  0  0  0  0  0  0  0  0  0  0  0  # atno 8008 bound_to 7997
  154.4388  140.1885  156.0833 H   0  0  0  0  0  0  0  0  0  0  0  0  # atno 8009 bound_to 7997
  156.0443  140.3292  155.7282 H   0  0  0  0  0  0  0  0  0  0  0  0  # atno 8010 bound_to 7997
  139.4821  144.5023  151.8150 H   0  0  0  0  0  0  0  0  0  0  0  0  # atno 10167 bound_to 10162
  156.0156  130.5317  150.6783 H   0  0  0  0  0  0  0  0  0  0  0  0  # atno 10718 bound_to 10713
  153.7750  135.3176  155.3357 H   0  0  0  0  0  0  0  0  0  0  0  0  # atno 10763 bound_to 10752
  154.8182  135.4621  154.0707 H   0  0  0  0  0  0  0  0  0  0  0  0  # atno 10764 bound_to 10752
  153.1978  135.6918  153.8354 H   0  0  0  0  0  0  0  0  0  0  0  0  # atno 10765 bound_to 10752
  140.0076  134.6345  155.9830 H   0  0  0  0  0  0  0  0  0  0  0  0  # atno 11005 bound_to 11000
  144.6728  140.1433  143.7435 LP  0  0  0  0  0  0  0  0  0  0  0  0  # atno 17320 bound_to 7965
  145.8985  139.2416  143.1508 LP  0  0  0  0  0  0  0  0  0  0  0  0  # atno 17321 bound_to 7965
  140.4517  144.1845  150.5898 LP  0  0  0  0  0  0  0  0  0  0  0  0  # atno 17342 bound_to 10162
  140.4577  143.2461  151.9262 LP  0  0  0  0  0  0  0  0  0  0  0  0  # atno 17343 bound_to 10162
  157.4491  131.0870  151.0865 LP  0  0  0  0  0  0  0  0  0  0  0  0  # atno 17370 bound_to 10713
  157.1386  130.6133  149.5549 LP  0  0  0  0  0  0  0  0  0  0  0  0  # atno 17371 bound_to 10713
  141.1688  133.6537  156.4576 LP  0  0  0  0  0  0  0  0  0  0  0  0  # atno 17394 bound_to 11000
  140.4613  134.6839  157.5086 LP  0  0  0  0  0  0  0  0  0  0  0  0  # atno 17395 bound_to 11000

$$$$
