AV-unprocessed.smi:1831|AV-procd|sdf|7459|dock2
  -GOLD-   22720 9153D 1   1.00000     0.00000
 Structure written by MMmdl.
 41 42  0  0  0  0  0  0  0  0  2 V2000
  150.2442  142.2854  156.3578 C   0  0  0  0  0  0  0  0  0  0  0  0
  149.9194  141.1331  155.4703 C   0  0  0  0  0  0  0  0  0  0  0  0
  150.8238  140.2040  155.1367 N   0  0  0  0  0  0  0  0  0  0  0  0
  150.2952  139.2258  154.3049 N   0  0  0  0  0  0  0  0  0  0  0  0
  149.0058  139.4456  154.0329 C   0  0  0  0  0  0  0  0  0  0  0  0
  148.3333  138.5198  153.1967 N   0  0  0  0  0  0  0  0  0  0  0  0
  147.0354  138.5095  152.8522 C   0  0  0  0  0  0  0  0  0  0  0  0
  146.2019  139.3499  153.1900 O   0  0  0  0  0  0  0  0  0  0  0  0
  146.7464  137.4505  152.0817 N   0  0  0  0  0  0  0  0  0  0  0  0
  145.4311  137.1354  151.5318 C   0  0  0  0  0  0  0  0  0  0  0  0
  145.0555  135.6549  151.7373 C   0  0  1  0  0  0  0  0  0  0  0  0
  143.8611  135.4031  152.6550 C   0  0  0  0  0  0  0  0  0  0  0  0
  143.4241  134.0010  152.2493 C   0  0  0  0  0  0  0  0  0  0  0  0
  143.6046  133.9468  150.7811 N   0  3  2  0  0  0  0  0  0  0  0  0
  143.7862  132.5843  150.2040 C   0  0  0  0  0  0  0  0  0  0  0  0
  144.9605  131.8487  150.8775 C   0  0  0  0  0  0  0  0  0  0  0  0
  144.0210  132.6327  148.6815 C   0  0  0  0  0  0  0  0  0  0  0  0
  144.6678  134.9280  150.4395 C   0  0  0  0  0  0  0  0  0  0  0  0
  148.3185  140.8860  154.7835 S   0  0  0  0  0  0  0  0  0  0  0  0
  151.1315  142.8029  155.9924 H   0  0  0  0  0  0  0  0  0  0  0  0
  150.4348  141.9333  157.3716 H   0  0  0  0  0  0  0  0  0  0  0  0
  149.4144  142.9918  156.3827 H   0  0  0  0  0  0  0  0  0  0  0  0
  148.9055  137.7731  152.8305 H   0  0  0  0  0  0  0  0  0  0  0  0
  147.4961  136.8137  151.8534 H   0  0  0  0  0  0  0  0  0  0  0  0
  144.6673  137.7900  151.9558 H   0  0  0  0  0  0  0  0  0  0  0  0
  145.4615  137.3569  150.4647 H   0  0  0  0  0  0  0  0  0  0  0  0
  145.9146  135.1330  152.1632 H   0  0  0  0  0  0  0  0  0  0  0  0
  144.1133  135.4755  153.7132 H   0  0  0  0  0  0  0  0  0  0  0  0
  143.0618  136.1162  152.4465 H   0  0  0  0  0  0  0  0  0  0  0  0
  144.0720  133.2662  152.7303 H   0  0  0  0  0  0  0  0  0  0  0  0
  142.3944  133.7901  152.5394 H   0  0  0  0  0  0  0  0  0  0  0  0
  142.8726  132.0162  150.3863 H   0  0  0  0  0  0  0  0  0  0  0  0
  145.1016  130.8592  150.4419 H   0  0  0  0  0  0  0  0  0  0  0  0
  144.8007  131.7025  151.9455 H   0  0  0  0  0  0  0  0  0  0  0  0
  145.8940  132.3985  150.7538 H   0  0  0  0  0  0  0  0  0  0  0  0
  144.1920  131.6325  148.2825 H   0  0  0  0  0  0  0  0  0  0  0  0
  144.8927  133.2388  148.4328 H   0  0  0  0  0  0  0  0  0  0  0  0
  143.1645  133.0408  148.1450 H   0  0  0  0  0  0  0  0  0  0  0  0
  144.2651  135.6201  149.6989 H   0  0  0  0  0  0  0  0  0  0  0  0
  145.5490  134.4556  150.0037 H   0  0  0  0  0  0  0  0  0  0  0  0
  142.7517  134.3182  150.3876 H   0  0  0  0  0  0  0  0  0  0  0  0
  1  2  1  0  0  0  0
  1 20  1  0  0  0  0
  1 21  1  0  0  0  0
  1 22  1  0  0  0  0
  2 19  1  0  0  0  0
  2  3  2  0  0  0  0
  3  4  1  0  0  0  0
  4  5  2  0  0  0  0
  5  6  1  0  0  0  0
  5 19  1  0  0  0  0
  6  7  1  0  0  0  0
  6 23  1  0  0  0  0
  7  8  2  0  0  0  0
  7  9  1  0  0  0  0
  9 10  1  0  0  0  0
  9 24  1  0  0  0  0
 10 11  1  0  0  0  0
 10 25  1  0  0  0  0
 10 26  1  0  0  0  0
 11 18  1  0  0  0  0
 11 12  1  0  0  0  0
 11 27  1  0  0  0  0
 12 13  1  0  0  0  0
 12 28  1  0  0  0  0
 12 29  1  0  0  0  0
 13 14  1  0  0  0  0
 13 30  1  0  0  0  0
 13 31  1  0  0  0  0
 14 15  1  0  0  0  0
 14 18  1  0  0  0  0
 14 41  1  0  0  0  0
 15 16  1  0  0  0  0
 15 17  1  0  0  0  0
 15 32  1  0  0  0  0
 16 33  1  0  0  0  0
 16 34  1  0  0  0  0
 16 35  1  0  0  0  0
 17 36  1  0  0  0  0
 17 37  1  0  0  0  0
 17 38  1  0  0  0  0
 18 39  1  0  0  0  0
 18 40  1  0  0  0  0
M  CHG  1  14   1
M  END
> <s_m_source_file>
AV-unprocessed.smi

> <i_m_source_file_index>
1831

> <i_lp_mmshare_version>
43012

> <i_f3d_flags>
0

> <s_epik_input>
W0NIM11jMW5uYyhzMSlbTkhdQyg9TylbTkhdW0NIMl1bQ0BASF0yW0NIMl1bQ0gyXU4oW0NIMl0yKVtDSF0oW0NIM10pW0NIM10=

> <s_epik_cmdline>
J2VwaWtfcHl0aG9uJywgJy1waCcsICc3LjAnLCAnLXRuJywgJzgnLCAnLW1hJywgJzIwMCcsICctbWV0YWxfYmluZGluZycsICctaW1hZScsICc8aW5maWxlLm1hZT4nLCAnLW9tYWUnLCAnPG91dGZpbGUubWFlPic=

> <r_lp_tautomer_probability>
1

> <r_epik_Ionization_Penalty>
0.00080807

> <r_epik_Ionization_Penalty_Charging>
0.000218981

> <r_epik_Ionization_Penalty_Neutral>
0.00058909

> <r_epik_State_Penalty>
-0

> <r_epik_Charging_Adjusted_Penalty>
0.000218981

> <i_epik_Tot_Q>
1

> <i_epik_Tot_abs_Q>
1

> <r_epik_Metal_State_Penalty>
0.236062

> <b_epik_Metal_Only>
0

> <s_lp_Force_Field>
OPLS_2005

> <r_lp_Energy>
28.8187

> <b_lp_Chiralities_Consistent>
1

> <s_lp_Variant>
AV-unprocessed.smi:1831-4

> <Gold.Version>
5.8.1

> <Gold.Id.Protein>
6NUR|6NUR_protein|mol2

> <Gold.PLP.Fitness>
46.3336

> <Gold.PLP.PLP>
-34.9567

> <Gold.PLP.part.hbond>
-5.4109

> <Gold.PLP.part.metal>
0.0000

> <Gold.PLP.part.buried>
1.3402

> <Gold.PLP.part.nonpolar>
-32.6980

> <Gold.PLP.part.repulsive>
1.2471

> <Gold.PLP.ligand.clash>
0.0000

> <Gold.PLP.ligand.torsion>
0.8619

> <Gold.PLP.Chemscore.Hbond>
4.3600

> <Gold.PLP.Chemscore.CHOScore>
0.0000

> <Gold.PLP.Chemscore.Metal>
0.0000

> <Gold.Chemscore.Hbonds>
donor molecule, donor type, donor heavy atom, donor atom, acceptor molecule, acceptor atom, score
      L1  H     6    23       P1  7948  0.94
      L1  H     9    24       P1  7948  1.00
      L1  H    14    41       P1 10186  2.00
      P1  H  7989  7998       L1     3  0.20

> <Gold.PLP.Chemscore.Internal.Correction>
0.0206

> <Gold.Rescore>
     Score         DG    S(hbond)    S(metal)    S(lipo)     H(rot)  DE(clash)    DE(int)     intcor
     15.80     -19.61       2.63        0.00      79.31       1.54       2.33       1.49       ----

> <Gold.Chemscore.Fitness>
15.7990

> <Gold.Chemscore.DG>
-19.6147

> <Gold.Chemscore.ZeroCoef>
-5.4800

> <Gold.Chemscore.Hbond>
2.6338

> <Gold.Chemscore.Metal>
0.0000

> <Gold.Chemscore.Lipo>
79.3086

> <Gold.Chemscore.Internal_Hbond>
0.0000

> <Gold.Chemscore.DEClash>
2.3269

> <Gold.Chemscore.DEInternal>
1.4888

> <Gold.Chemscore.Rot>
1.5396

> <Gold.Chemscore.Internal.Correction>
   9.000000E+99

> <Gold.Chemscore.Hbonds>
donor molecule, donor type, donor heavy atom, donor atom, acceptor molecule, acceptor atom, score
      L1  H     6    23       P1  7948  0.92
      L1  H     9    24       P1  7948  0.94
      L1  H    14    41       P1 10186  0.74

> <Gold.Chemscore.Hbond.Weighted>
-8.7969

> <Gold.Chemscore.Metal.Weighted>
-0.0000

> <Gold.Chemscore.Lipo.Weighted>
-9.2791

> <Gold.Chemscore.Internal_Hbond.Weighted>
0.0000

> <Gold.Chemscore.DEClash.Weighted>
2.3269

> <Gold.Chemscore.DEInternal.Weighted>
1.4888

> <Gold.Chemscore.Rot.Weighted>
3.9413

> <Gold.Chemscore.Internal.Correction.Weighted>
   9.000000E+99

> <Gold.Protein.RotatedTorsions>
[ 6907 6896 6895 6894 ] final  130.68 input  -60.11 | X-H torsion
[ 7974 7965 7964 7962 ] final   67.37 input  175.53 | X-H torsion
[ 8008 7997 7996 7995 ] final -176.86 input   59.86 | X-H torsion
[ 10167 10162 10161 10158 ] final   23.51 input  -65.29 | X-H torsion
[ 10718 10713 10712 10709 ] final -113.04 input   66.30 | X-H torsion
[ 10763 10752 10751 10750 ] final   39.59 input  -60.55 | X-H torsion
[ 11005 11000 10999 10996 ] final  -12.28 input  -57.11 | X-H torsion

> <Gold.Protein.ActiveResidues>
 VAL166  LYS551  ARG553  GLY616  TRP617  ASP618  TYR619  PRO620  LYS621  CYS622 
 ASP623  PHE694  ASN695  SER759  ASP760  ASP761  ALA762  ILE779  LEU786  VAL792 
 PHE793  MET794  SER795  GLU796  ALA797  LYS798  CYS799  TRP800  GLU811  SER814 

> <Gold.Protein.RotatedAtoms>
  152.3502  133.6170  159.5938 H   0  0  0  0  0  0  0  0  0  0  0  0  # atno 6907 bound_to 6896
  150.7533  133.9587  159.3517 H   0  0  0  0  0  0  0  0  0  0  0  0  # atno 6908 bound_to 6896
  151.7439  135.0849  160.0371 H   0  0  0  0  0  0  0  0  0  0  0  0  # atno 6909 bound_to 6896
  145.8154  139.3055  143.1074 H   0  0  0  0  0  0  0  0  0  0  0  0  # atno 7974 bound_to 7965
  156.0000  140.1218  157.0557 H   0  0  0  0  0  0  0  0  0  0  0  0  # atno 8008 bound_to 7997
  154.4239  140.1108  156.5752 H   0  0  0  0  0  0  0  0  0  0  0  0  # atno 8009 bound_to 7997
  155.6226  140.3472  155.4659 H   0  0  0  0  0  0  0  0  0  0  0  0  # atno 8010 bound_to 7997
  140.5263  143.9917  150.6442 H   0  0  0  0  0  0  0  0  0  0  0  0  # atno 10167 bound_to 10162
  156.0742  130.5952  150.8589 H   0  0  0  0  0  0  0  0  0  0  0  0  # atno 10718 bound_to 10713
  152.9962  135.6216  154.2490 H   0  0  0  0  0  0  0  0  0  0  0  0  # atno 10763 bound_to 10752
  154.2229  135.2795  155.2920 H   0  0  0  0  0  0  0  0  0  0  0  0  # atno 10764 bound_to 10752
  154.5514  135.5732  153.6983 H   0  0  0  0  0  0  0  0  0  0  0  0  # atno 10765 bound_to 10752
  140.7640  133.8492  155.9149 H   0  0  0  0  0  0  0  0  0  0  0  0  # atno 11005 bound_to 11000
  145.9732  140.8743  143.0152 LP  0  0  0  0  0  0  0  0  0  0  0  0  # atno 17320 bound_to 7965
  144.6753  140.1975  143.7390 LP  0  0  0  0  0  0  0  0  0  0  0  0  # atno 17321 bound_to 7965
  140.3280  143.3095  152.0716 LP  0  0  0  0  0  0  0  0  0  0  0  0  # atno 17342 bound_to 10162
  139.4939  144.6529  151.6637 LP  0  0  0  0  0  0  0  0  0  0  0  0  # atno 17343 bound_to 10162
  157.5829  131.0946  150.9242 LP  0  0  0  0  0  0  0  0  0  0  0  0  # atno 17370 bound_to 10713
  156.9434  130.5393  149.5280 LP  0  0  0  0  0  0  0  0  0  0  0  0  # atno 17371 bound_to 10713
  140.9636  134.1623  157.4634 LP  0  0  0  0  0  0  0  0  0  0  0  0  # atno 17394 bound_to 11000
  139.8766  134.9954  156.5740 LP  0  0  0  0  0  0  0  0  0  0  0  0  # atno 17395 bound_to 11000

$$$$
