AV-unprocessed.smi:2931|AV-procd|sdf|11248|dock9
  -GOLD-   2272016143D 1   1.00000     0.00000
 Structure written by MMmdl.
 43 44  0  0  0  0  0  0  0  0  3 V2000
  146.1686  133.5105  150.8205 C   0  0  0  0  0  0  0  0  0  0  0  0
  146.3018  134.7238  151.6549 N   0  3  1  0  0  0  0  0  0  0  0  0
  145.4804  135.8514  151.1478 C   0  0  0  0  0  0  0  0  0  0  0  0
  145.7455  137.1334  151.9550 C   0  0  0  0  0  0  0  0  0  0  0  0
  145.5198  136.9017  153.4586 C   0  0  0  0  0  0  0  0  0  0  0  0
  146.3346  135.6963  153.9619 C   0  0  2  0  0  0  0  0  0  0  0  0
  147.7596  136.0276  153.9760 N   0  0  0  0  0  0  0  0  0  0  0  0
  148.4510  136.4098  155.0587 C   0  0  0  0  0  0  0  0  0  0  0  0
  147.9735  136.4804  156.1904 O   0  0  0  0  0  0  0  0  0  0  0  0
  149.7236  136.7052  154.7602 N   0  0  0  0  0  0  0  0  0  0  0  0
  150.7140  137.2023  155.7120 C   0  0  0  0  0  0  0  0  0  0  0  0
  151.5584  138.3708  155.1643 C   0  0  0  0  0  0  0  0  0  0  0  0
  150.8565  139.7164  155.2305 C   0  0  0  0  0  0  0  0  0  0  0  0
  149.7335  139.9826  154.4154 C   0  0  0  0  0  0  0  0  0  0  0  0
  149.1072  141.2430  154.4978 C   0  0  0  0  0  0  0  0  0  0  0  0
  149.5824  142.1760  155.3517 N   0  3  0  0  0  0  0  0  0  0  0  0
  150.6520  141.9617  156.1490 C   0  0  0  0  0  0  0  0  0  0  0  0
  151.3202  140.7211  156.1082 C   0  0  0  0  0  0  0  0  0  0  0  0
  146.0404  134.4542  153.0914 C   0  0  0  0  0  0  0  0  0  0  0  0
  145.1461  133.1313  150.8417 H   0  0  0  0  0  0  0  0  0  0  0  0
  146.8337  132.7231  151.1768 H   0  0  0  0  0  0  0  0  0  0  0  0
  146.4329  133.7250  149.7846 H   0  0  0  0  0  0  0  0  0  0  0  0
  145.7097  136.0297  150.0963 H   0  0  0  0  0  0  0  0  0  0  0  0
  144.4232  135.5858  151.2006 H   0  0  0  0  0  0  0  0  0  0  0  0
  146.7684  137.4696  151.7811 H   0  0  0  0  0  0  0  0  0  0  0  0
  145.0962  137.9352  151.6023 H   0  0  0  0  0  0  0  0  0  0  0  0
  145.7732  137.8000  154.0231 H   0  0  0  0  0  0  0  0  0  0  0  0
  144.4593  136.7186  153.6371 H   0  0  0  0  0  0  0  0  0  0  0  0
  146.0280  135.4865  154.9884 H   0  0  0  0  0  0  0  0  0  0  0  0
  148.2400  136.0104  153.0881 H   0  0  0  0  0  0  0  0  0  0  0  0
  150.0208  136.6201  153.7990 H   0  0  0  0  0  0  0  0  0  0  0  0
  150.1727  137.5310  156.5995 H   0  0  0  0  0  0  0  0  0  0  0  0
  151.3626  136.3868  156.0354 H   0  0  0  0  0  0  0  0  0  0  0  0
  152.4930  138.4378  155.7224 H   0  0  0  0  0  0  0  0  0  0  0  0
  151.8443  138.1668  154.1318 H   0  0  0  0  0  0  0  0  0  0  0  0
  149.3580  139.2330  153.7337 H   0  0  0  0  0  0  0  0  0  0  0  0
  148.2487  141.5320  153.9092 H   0  0  0  0  0  0  0  0  0  0  0  0
  150.9400  142.7830  156.7890 H   0  0  0  0  0  0  0  0  0  0  0  0
  152.1775  140.5446  156.7417 H   0  0  0  0  0  0  0  0  0  0  0  0
  144.9991  134.1524  153.2157 H   0  0  0  0  0  0  0  0  0  0  0  0
  146.6464  133.6101  153.4229 H   0  0  0  0  0  0  0  0  0  0  0  0
  147.2663  135.0148  151.5879 H   0  0  0  0  0  0  0  0  0  0  0  0
  149.1165  143.0830  155.3942 H   0  0  0  0  0  0  0  0  0  0  0  0
  1  2  1  0  0  0  0
  1 20  1  0  0  0  0
  1 21  1  0  0  0  0
  1 22  1  0  0  0  0
  2 19  1  0  0  0  0
  2  3  1  0  0  0  0
  2 42  1  0  0  0  0
  3  4  1  0  0  0  0
  3 23  1  0  0  0  0
  3 24  1  0  0  0  0
  4  5  1  0  0  0  0
  4 25  1  0  0  0  0
  4 26  1  0  0  0  0
  5  6  1  0  0  0  0
  5 27  1  0  0  0  0
  5 28  1  0  0  0  0
  6  7  1  0  0  0  0
  6 19  1  0  0  0  0
  6 29  1  0  0  0  0
  7  8  1  0  0  0  0
  7 30  1  0  0  0  0
  8  9  2  0  0  0  0
  8 10  1  0  0  0  0
 10 11  1  0  0  0  0
 10 31  1  0  0  0  0
 11 12  1  0  0  0  0
 11 32  1  0  0  0  0
 11 33  1  0  0  0  0
 12 13  1  0  0  0  0
 12 34  1  0  0  0  0
 12 35  1  0  0  0  0
 13 18  1  0  0  0  0
 13 14  2  0  0  0  0
 14 15  1  0  0  0  0
 14 36  1  0  0  0  0
 15 16  2  0  0  0  0
 15 37  1  0  0  0  0
 16 17  1  0  0  0  0
 16 43  1  0  0  0  0
 17 18  2  0  0  0  0
 17 38  1  0  0  0  0
 18 39  1  0  0  0  0
 19 40  1  0  0  0  0
 19 41  1  0  0  0  0
M  CHG  1   2   1
M  CHG  1  16   1
M  END
> <s_m_source_file>
AV-unprocessed.smi

> <i_m_source_file_index>
2931

> <i_lp_mmshare_version>
43012

> <i_f3d_flags>
0

> <s_epik_input>
W0NIM11OMVtDSDJdW0NIMl1bQ0gyXVtDQEhdKFtDSDJdMSlbTkhdQyg9TylbTkhdW0NIMl1bQ0gyXWMyW2NIXVtjSF1uW2NIXVtjSF0y

> <s_epik_cmdline>
J2VwaWtfcHl0aG9uJywgJy1waCcsICc3LjAnLCAnLXRuJywgJzgnLCAnLW1hJywgJzIwMCcsICctbWV0YWxfYmluZGluZycsICctaW1hZScsICc8aW5maWxlLm1hZT4nLCAnLW9tYWUnLCAnPG91dGZpbGUubWFlPic=

> <r_epik_Ionization_Penalty>
1.43754

> <r_epik_Ionization_Penalty_Charging>
1.4375

> <r_epik_Ionization_Penalty_Neutral>
3.7629e-05

> <r_epik_State_Penalty>
1.52008

> <r_epik_Charging_Adjusted_Penalty>
2.95758

> <i_epik_Tot_Q>
2

> <i_epik_Tot_abs_Q>
2

> <r_epik_Metal_State_Penalty>
1.57105

> <b_epik_Metal_Only>
0

> <s_lp_Force_Field>
OPLS_2005

> <r_lp_Energy>
32.3729

> <b_lp_Chiralities_Consistent>
1

> <s_lp_Variant>
AV-unprocessed.smi:2931-7

> <Gold.Version>
5.8.1

> <Gold.Id.Protein>
6NUR|6NUR_protein|mol2

> <Gold.PLP.Fitness>
46.1953

> <Gold.PLP.PLP>
-31.8106

> <Gold.PLP.part.hbond>
-3.6253

> <Gold.PLP.part.metal>
0.0000

> <Gold.PLP.part.buried>
-2.5149

> <Gold.PLP.part.nonpolar>
-26.7506

> <Gold.PLP.part.repulsive>
0.2955

> <Gold.PLP.ligand.clash>
0.0000

> <Gold.PLP.ligand.torsion>
0.5366

> <Gold.PLP.Chemscore.Hbond>
5.1479

> <Gold.PLP.Chemscore.CHOScore>
0.0000

> <Gold.PLP.Chemscore.Metal>
0.0000

> <Gold.Chemscore.Hbonds>
donor molecule, donor type, donor heavy atom, donor atom, acceptor molecule, acceptor atom, score
      L1  H     2    42       P1  7948  1.92
      L1  H     7    30       P1  7948  0.75
      L1  H    10    31       P1  7948  0.41
      L1  H    16    43       P1  8028  2.00

> <Gold.PLP.Chemscore.Internal.Correction>
0.0142

> <Gold.Rescore>
     Score         DG    S(hbond)    S(metal)    S(lipo)     H(rot)  DE(clash)    DE(int)     intcor
     19.29     -19.75       2.97        0.00      73.19       1.65       0.00       0.46       ----

> <Gold.Chemscore.Fitness>
19.2886

> <Gold.Chemscore.DG>
-19.7510

> <Gold.Chemscore.ZeroCoef>
-5.4800

> <Gold.Chemscore.Hbond>
2.9709

> <Gold.Chemscore.Metal>
0.0000

> <Gold.Chemscore.Lipo>
73.1866

> <Gold.Chemscore.Internal_Hbond>
0.0000

> <Gold.Chemscore.DEClash>
0.0013

> <Gold.Chemscore.DEInternal>
0.4610

> <Gold.Chemscore.Rot>
1.6464

> <Gold.Chemscore.Internal.Correction>
   9.000000E+99

> <Gold.Chemscore.Hbonds>
donor molecule, donor type, donor heavy atom, donor atom, acceptor molecule, acceptor atom, score
      L1  H     2    42       P1  7948  0.75
      L1  H     7    30       P1  7948  0.75
      L1  H    10    31       P1  7948  0.10
      L1  H    16    43       P1  8028  0.99

> <Gold.Chemscore.Hbond.Weighted>
-9.9229

> <Gold.Chemscore.Metal.Weighted>
-0.0000

> <Gold.Chemscore.Lipo.Weighted>
-8.5628

> <Gold.Chemscore.Internal_Hbond.Weighted>
0.0000

> <Gold.Chemscore.DEClash.Weighted>
0.0013

> <Gold.Chemscore.DEInternal.Weighted>
0.4610

> <Gold.Chemscore.Rot.Weighted>
4.2148

> <Gold.Chemscore.Internal.Correction.Weighted>
   9.000000E+99

> <Gold.Protein.RotatedTorsions>
[ 6907 6896 6895 6894 ] final   21.53 input  -60.11 | X-H torsion
[ 7974 7965 7964 7962 ] final -168.10 input  175.53 | X-H torsion
[ 8008 7997 7996 7995 ] final  136.70 input   59.86 | X-H torsion
[ 10167 10162 10161 10158 ] final   92.27 input  -65.29 | X-H torsion
[ 10718 10713 10712 10709 ] final  -22.83 input   66.30 | X-H torsion
[ 10763 10752 10751 10750 ] final   90.46 input  -60.55 | X-H torsion
[ 11005 11000 10999 10996 ] final  157.91 input  -57.11 | X-H torsion

> <Gold.Protein.ActiveResidues>
 VAL166  LYS551  ARG553  GLY616  TRP617  ASP618  TYR619  PRO620  LYS621  CYS622 
 ASP623  PHE694  ASN695  SER759  ASP760  ASP761  ALA762  ILE779  LEU786  VAL792 
 PHE793  MET794  SER795  GLU796  ALA797  LYS798  CYS799  TRP800  GLU811  SER814 

> <Gold.Protein.RotatedAtoms>
  151.9132  135.0330  160.0515 H   0  0  0  0  0  0  0  0  0  0  0  0  # atno 6907 bound_to 6896
  152.2262  133.5017  159.5198 H   0  0  0  0  0  0  0  0  0  0  0  0  # atno 6908 bound_to 6896
  150.7013  134.1194  159.4072 H   0  0  0  0  0  0  0  0  0  0  0  0  # atno 6909 bound_to 6896
  144.7209  140.2420  143.6290 H   0  0  0  0  0  0  0  0  0  0  0  0  # atno 7974 bound_to 7965
  156.3003  140.2438  156.3788 H   0  0  0  0  0  0  0  0  0  0  0  0  # atno 8008 bound_to 7997
  154.8720  140.0416  157.1750 H   0  0  0  0  0  0  0  0  0  0  0  0  # atno 8009 bound_to 7997
  154.8785  140.2945  155.5443 H   0  0  0  0  0  0  0  0  0  0  0  0  # atno 8010 bound_to 7997
  139.8293  144.6695  150.9420 H   0  0  0  0  0  0  0  0  0  0  0  0  # atno 10167 bound_to 10162
  156.4992  130.4584  149.6711 H   0  0  0  0  0  0  0  0  0  0  0  0  # atno 10718 bound_to 10713
  153.1978  135.4433  155.0229 H   0  0  0  0  0  0  0  0  0  0  0  0  # atno 10763 bound_to 10752
  154.8129  135.3302  154.7258 H   0  0  0  0  0  0  0  0  0  0  0  0  # atno 10764 bound_to 10752
  153.7706  135.6985  153.4962 H   0  0  0  0  0  0  0  0  0  0  0  0  # atno 10765 bound_to 10752
  140.1814  134.8473  157.2807 H   0  0  0  0  0  0  0  0  0  0  0  0  # atno 11005 bound_to 11000
  145.8311  139.2086  143.1882 LP  0  0  0  0  0  0  0  0  0  0  0  0  # atno 17320 bound_to 7965
  146.0430  140.8146  142.9819 LP  0  0  0  0  0  0  0  0  0  0  0  0  # atno 17321 bound_to 7965
  140.7808  143.4016  151.1139 LP  0  0  0  0  0  0  0  0  0  0  0  0  # atno 17342 bound_to 10162
  139.7671  143.8549  152.3113 LP  0  0  0  0  0  0  0  0  0  0  0  0  # atno 17343 bound_to 10162
  156.3349  130.7351  151.2287 LP  0  0  0  0  0  0  0  0  0  0  0  0  # atno 17370 bound_to 10713
  157.7465  131.0419  150.4671 LP  0  0  0  0  0  0  0  0  0  0  0  0  # atno 17371 bound_to 10713
  140.2263  134.3963  155.7542 LP  0  0  0  0  0  0  0  0  0  0  0  0  # atno 17394 bound_to 11000
  141.2223  133.7192  156.8570 LP  0  0  0  0  0  0  0  0  0  0  0  0  # atno 17395 bound_to 11000

$$$$
