AV-unprocessed.smi:2189|AV-procd|sdf|8887|dock6
  -GOLD-   2272012 83D 1   1.00000     0.00000
 Structure written by MMmdl.
 39 41  0  0  0  0  0  0  0  0  3 V2000
  151.6080  140.2015  155.5565 O   0  0  0  0  0  0  0  0  0  0  0  0
  151.0012  141.1342  156.0990 C   0  0  0  0  0  0  0  0  0  0  0  0
  149.7766  141.6103  155.7158 N   0  5  0  0  0  0  0  0  0  0  0  0
  149.1812  141.4641  154.3857 C   0  0  0  0  0  0  0  0  0  0  0  0
  147.7486  140.8997  154.5082 C   0  0  0  0  0  0  0  0  0  0  0  0
  146.6900  141.9270  154.8996 C   0  0  0  0  0  0  0  0  0  0  0  0
  145.9761  142.6694  153.9313 C   0  0  0  0  0  0  0  0  0  0  0  0
  145.0053  143.6019  154.3504 C   0  0  0  0  0  0  0  0  0  0  0  0
  144.7711  143.7817  155.7291 C   0  0  0  0  0  0  0  0  0  0  0  0
  145.5145  143.0218  156.6549 C   0  0  0  0  0  0  0  0  0  0  0  0
  146.4353  142.1371  156.2140 N   0  3  0  0  0  0  0  0  0  0  0  0
  151.6330  141.8296  157.2346 C   0  0  0  0  0  0  0  0  0  0  0  0
  151.3380  143.1409  157.4342 C   0  0  0  0  0  0  0  0  0  0  0  0
  151.9011  143.8880  158.5309 C   0  0  0  0  0  0  0  0  0  0  0  0
  152.7572  143.2601  159.3442 C   0  0  0  0  0  0  0  0  0  0  0  0
  153.1281  141.9262  159.1808 N   0  0  0  0  0  0  0  0  0  0  0  0
  154.1419  141.4053  160.0913 C   0  0  0  0  0  0  0  0  0  0  0  0
  153.7896  139.9939  160.5241 C   0  0  0  0  0  0  0  0  0  0  0  0
  153.8300  138.9812  159.0019 S   0  0  0  0  0  0  0  0  0  0  0  0
  155.1860  139.0618  158.4365 O   0  0  0  0  0  0  0  0  0  0  0  0
  153.2566  137.6637  159.3156 O   0  0  0  0  0  0  0  0  0  0  0  0
  152.7743  139.8478  158.0326 N   0  0  0  0  0  0  0  0  0  0  0  0
  152.5521  141.1264  158.1532 C   0  0  0  0  0  0  0  0  0  0  0  0
  149.1359  142.4039  153.8337 H   0  0  0  0  0  0  0  0  0  0  0  0
  149.7708  140.7886  153.7659 H   0  0  0  0  0  0  0  0  0  0  0  0
  147.4574  140.4549  153.5560 H   0  0  0  0  0  0  0  0  0  0  0  0
  147.7354  140.0841  155.2325 H   0  0  0  0  0  0  0  0  0  0  0  0
  146.1631  142.5148  152.8786 H   0  0  0  0  0  0  0  0  0  0  0  0
  144.4463  144.1707  153.6222 H   0  0  0  0  0  0  0  0  0  0  0  0
  144.0310  144.4901  156.0712 H   0  0  0  0  0  0  0  0  0  0  0  0
  145.3995  143.0915  157.7266 H   0  0  0  0  0  0  0  0  0  0  0  0
  150.6728  143.6677  156.7650 H   0  0  0  0  0  0  0  0  0  0  0  0
  151.6385  144.9232  158.6908 H   0  0  0  0  0  0  0  0  0  0  0  0
  153.2124  143.7667  160.1826 H   0  0  0  0  0  0  0  0  0  0  0  0
  155.1157  141.4312  159.6013 H   0  0  0  0  0  0  0  0  0  0  0  0
  154.2225  142.0343  160.9785 H   0  0  0  0  0  0  0  0  0  0  0  0
  154.5142  139.5927  161.2321 H   0  0  0  0  0  0  0  0  0  0  0  0
  152.7965  139.9368  160.9714 H   0  0  0  0  0  0  0  0  0  0  0  0
  146.9563  141.5919  156.9011 H   0  0  0  0  0  0  0  0  0  0  0  0
  1  2  2  0  0  0  0
  2  3  1  0  0  0  0
  2 12  1  0  0  0  0
  3  4  1  0  0  0  0
  4  5  1  0  0  0  0
  4 24  1  0  0  0  0
  4 25  1  0  0  0  0
  5  6  1  0  0  0  0
  5 26  1  0  0  0  0
  5 27  1  0  0  0  0
  6 11  1  0  0  0  0
  6  7  2  0  0  0  0
  7  8  1  0  0  0  0
  7 28  1  0  0  0  0
  8  9  2  0  0  0  0
  8 29  1  0  0  0  0
  9 10  1  0  0  0  0
  9 30  1  0  0  0  0
 10 11  2  0  0  0  0
 10 31  1  0  0  0  0
 11 39  1  0  0  0  0
 12 23  1  0  0  0  0
 12 13  2  0  0  0  0
 13 14  1  0  0  0  0
 13 32  1  0  0  0  0
 14 15  2  0  0  0  0
 14 33  1  0  0  0  0
 15 16  1  0  0  0  0
 15 34  1  0  0  0  0
 16 23  1  0  0  0  0
 16 17  1  0  0  0  0
 17 18  1  0  0  0  0
 17 35  1  0  0  0  0
 17 36  1  0  0  0  0
 18 19  1  0  0  0  0
 18 37  1  0  0  0  0
 18 38  1  0  0  0  0
 19 20  2  0  0  0  0
 19 21  2  0  0  0  0
 19 22  1  0  0  0  0
 22 23  2  0  0  0  0
M  CHG  1   3  -1
M  CHG  1  11   1
M  END
> <s_m_source_file>
AV-unprocessed.smi

> <i_m_source_file_index>
2189

> <i_lp_mmshare_version>
43012

> <i_f3d_flags>
0

> <s_epik_input>
W0NIMl0xW0NIMl1TKD1PKSg9TylOPUMoTjEyKUMoPVtDSF1bQ0hdPVtDSF0yKUMoPU8pW05IXVtDSDJdW0NIMl1jM1tjSF1bY0hdW2NIXVtjSF1uMw==

> <s_epik_cmdline>
J2VwaWtfcHl0aG9uJywgJy1waCcsICc3LjAnLCAnLXRuJywgJzgnLCAnLW1hJywgJzIwMCcsICctbWV0YWxfYmluZGluZycsICctaW1hZScsICc8aW5maWxlLm1hZT4nLCAnLW9tYWUnLCAnPG91dGZpbGUubWFlPic=

> <r_epik_Ionization_Penalty>
6.52844

> <r_epik_Ionization_Penalty_Charging>
6.52844

> <r_epik_Ionization_Penalty_Neutral>
1.18271e-13

> <r_epik_State_Penalty>
7.49351

> <r_epik_Charging_Adjusted_Penalty>
14.0219

> <i_epik_Tot_Q>
0

> <i_epik_Tot_abs_Q>
2

> <r_epik_Metal_State_Penalty>
3.53414

> <b_epik_Metal_Only>
1

> <s_lp_Force_Field>
OPLS_2005

> <r_lp_Energy>
35.7172

> <b_lp_Chiralities_Consistent>
1

> <s_lp_Variant>
AV-unprocessed.smi:2189-4

> <Gold.Version>
5.8.1

> <Gold.Id.Protein>
6NUR|6NUR_protein|mol2

> <Gold.PLP.Fitness>
49.0470

> <Gold.PLP.PLP>
-45.4240

> <Gold.PLP.part.hbond>
-2.5344

> <Gold.PLP.part.metal>
0.0000

> <Gold.PLP.part.buried>
-5.5057

> <Gold.PLP.part.nonpolar>
-36.8590

> <Gold.PLP.part.repulsive>
0.1244

> <Gold.PLP.ligand.clash>
0.0000

> <Gold.PLP.ligand.torsion>
0.9874

> <Gold.PLP.Chemscore.Hbond>
1.7389

> <Gold.PLP.Chemscore.CHOScore>
0.0000

> <Gold.PLP.Chemscore.Metal>
0.0000

> <Gold.Chemscore.Hbonds>
donor molecule, donor type, donor heavy atom, donor atom, acceptor molecule, acceptor atom, score
      P1  H  7989  7998       L1     1  0.61
      P1  H  7997  8009       L1    20  0.80

> <Gold.PLP.Chemscore.Internal.Correction>
0.3811

> <Gold.Rescore>
     Score         DG    S(hbond)    S(metal)    S(lipo)     H(rot)  DE(clash)    DE(int)     intcor
     14.33     -17.35       1.12        0.00     102.54       1.51       0.64       2.38       ----

> <Gold.Chemscore.Fitness>
14.3307

> <Gold.Chemscore.DG>
-17.3536

> <Gold.Chemscore.ZeroCoef>
-5.4800

> <Gold.Chemscore.Hbond>
1.1212

> <Gold.Chemscore.Metal>
0.0000

> <Gold.Chemscore.Lipo>
102.5367

> <Gold.Chemscore.Internal_Hbond>
0.0000

> <Gold.Chemscore.DEClash>
0.6395

> <Gold.Chemscore.DEInternal>
2.3834

> <Gold.Chemscore.Rot>
1.5109

> <Gold.Chemscore.Internal.Correction>
   9.000000E+99

> <Gold.Chemscore.Hbonds>
donor molecule, donor type, donor heavy atom, donor atom, acceptor molecule, acceptor atom, score
      P1  H  7989  7998       L1     1  0.18
      P1  H  7997  8009       L1    20  0.74

> <Gold.Chemscore.Hbond.Weighted>
-3.7449

> <Gold.Chemscore.Metal.Weighted>
-0.0000

> <Gold.Chemscore.Lipo.Weighted>
-11.9968

> <Gold.Chemscore.Internal_Hbond.Weighted>
0.0000

> <Gold.Chemscore.DEClash.Weighted>
0.6395

> <Gold.Chemscore.DEInternal.Weighted>
2.3834

> <Gold.Chemscore.Rot.Weighted>
3.8680

> <Gold.Chemscore.Internal.Correction.Weighted>
   9.000000E+99

> <Gold.Protein.RotatedTorsions>
[ 6907 6896 6895 6894 ] final   21.61 input  -60.11 | X-H torsion
[ 7974 7965 7964 7962 ] final   26.86 input  175.53 | X-H torsion
[ 8008 7997 7996 7995 ] final  103.51 input   59.86 | X-H torsion
[ 10167 10162 10161 10158 ] final  167.09 input  -65.29 | X-H torsion
[ 10718 10713 10712 10709 ] final   40.25 input   66.30 | X-H torsion
[ 10763 10752 10751 10750 ] final   53.56 input  -60.55 | X-H torsion
[ 11005 11000 10999 10996 ] final  -96.92 input  -57.11 | X-H torsion

> <Gold.Protein.ActiveResidues>
 VAL166  LYS551  ARG553  GLY616  TRP617  ASP618  TYR619  PRO620  LYS621  CYS622 
 ASP623  PHE694  ASN695  SER759  ASP760  ASP761  ALA762  ILE779  LEU786  VAL792 
 PHE793  MET794  SER795  GLU796  ALA797  LYS798  CYS799  TRP800  GLU811  SER814 

> <Gold.Protein.RotatedAtoms>
  151.9145  135.0325  160.0516 H   0  0  0  0  0  0  0  0  0  0  0  0  # atno 6907 bound_to 6896
  152.2252  133.5010  159.5193 H   0  0  0  0  0  0  0  0  0  0  0  0  # atno 6908 bound_to 6896
  150.7010  134.1206  159.4076 H   0  0  0  0  0  0  0  0  0  0  0  0  # atno 6909 bound_to 6896
  146.1815  139.7270  142.8897 H   0  0  0  0  0  0  0  0  0  0  0  0  # atno 7974 bound_to 7965
  156.1491  140.3163  155.8618 H   0  0  0  0  0  0  0  0  0  0  0  0  # atno 8008 bound_to 7997
  155.4007  140.0499  157.3054 H   0  0  0  0  0  0  0  0  0  0  0  0  # atno 8009 bound_to 7997
  154.5042  140.2140  155.9296 H   0  0  0  0  0  0  0  0  0  0  0  0  # atno 8010 bound_to 7997
  139.4938  144.3959  151.9465 H   0  0  0  0  0  0  0  0  0  0  0  0  # atno 10167 bound_to 10162
  157.3800  130.7748  149.7185 H   0  0  0  0  0  0  0  0  0  0  0  0  # atno 10718 bound_to 10713
  152.9796  135.5774  154.4762 H   0  0  0  0  0  0  0  0  0  0  0  0  # atno 10763 bound_to 10752
  154.4317  135.2774  155.1909 H   0  0  0  0  0  0  0  0  0  0  0  0  # atno 10764 bound_to 10752
  154.3615  135.6187  153.5747 H   0  0  0  0  0  0  0  0  0  0  0  0  # atno 10765 bound_to 10752
  141.1396  133.8133  157.0637 H   0  0  0  0  0  0  0  0  0  0  0  0  # atno 11005 bound_to 11000
  145.4062  141.0391  143.3043 LP  0  0  0  0  0  0  0  0  0  0  0  0  # atno 17320 bound_to 7965
  144.8323  139.5607  143.6938 LP  0  0  0  0  0  0  0  0  0  0  0  0  # atno 17321 bound_to 7965
  140.3397  144.3218  150.5970 LP  0  0  0  0  0  0  0  0  0  0  0  0  # atno 17342 bound_to 10162
  140.5576  143.2197  151.7820 LP  0  0  0  0  0  0  0  0  0  0  0  0  # atno 17343 bound_to 10162
  155.9774  130.4064  150.3717 LP  0  0  0  0  0  0  0  0  0  0  0  0  # atno 17370 bound_to 10713
  157.1820  131.0394  151.2744 LP  0  0  0  0  0  0  0  0  0  0  0  0  # atno 17371 bound_to 10713
  140.0555  134.9783  157.1213 LP  0  0  0  0  0  0  0  0  0  0  0  0  # atno 17394 bound_to 11000
  140.3925  134.2169  155.7165 LP  0  0  0  0  0  0  0  0  0  0  0  0  # atno 17395 bound_to 11000

$$$$
