AV-unprocessed.smi:2156|AV-procd|sdf|8779|dock4
  -GOLD-   2272011563D 1   1.00000     0.00000
 Structure written by MMmdl.
 34 34  0  0  0  0  0  0  0  0  1 V2000
  153.7389  141.2524  160.7481 C   0  0  0  0  0  0  0  0  0  0  0  0
  153.7523  142.5091  159.8712 C   0  0  0  0  0  0  0  0  0  0  0  0
  152.6202  143.4886  160.2268 C   0  0  0  0  0  0  0  0  0  0  0  0
  152.1994  144.4127  159.0661 C   0  0  2  0  0  0  0  0  0  0  0  0
  151.0061  145.2969  159.4536 C   0  0  0  0  0  0  0  0  0  0  0  0
  151.8478  143.6311  157.8815 N   0  0  0  0  0  0  0  0  0  0  0  0
  151.2058  142.4521  157.8749 C   0  0  0  0  0  0  0  0  0  0  0  0
  150.8174  141.8865  158.8981 O   0  0  0  0  0  0  0  0  0  0  0  0
  150.9434  141.8415  156.4907 C   0  0  0  0  0  0  0  0  0  0  0  0
  151.4042  140.4503  156.3747 N   0  0  0  0  0  0  0  0  0  0  0  0
  152.1406  139.8697  157.3978 C   0  0  0  0  0  0  0  0  0  0  0  0
  152.6055  138.5988  157.3531 C   0  0  0  0  0  0  0  0  0  0  0  0
  152.3449  137.7575  156.1900 C   0  0  0  0  0  0  0  0  0  0  0  0
  152.7215  136.5953  156.0569 O   0  0  0  0  0  0  0  0  0  0  0  0
  151.6042  138.3785  155.1808 N   0  0  0  0  0  0  0  0  0  0  0  0
  151.1237  139.6884  155.2196 C   0  0  0  0  0  0  0  0  0  0  0  0
  150.4836  140.1406  154.2709 O   0  0  0  0  0  0  0  0  0  0  0  0
  151.4016  137.8356  154.3541 H   0  0  0  0  0  0  0  0  0  0  0  0
  154.5542  140.5818  160.4770 H   0  0  0  0  0  0  0  0  0  0  0  0
  152.8041  140.7031  160.6339 H   0  0  0  0  0  0  0  0  0  0  0  0
  153.8534  141.5053  161.8026 H   0  0  0  0  0  0  0  0  0  0  0  0
  154.7149  143.0108  159.9767 H   0  0  0  0  0  0  0  0  0  0  0  0
  153.6745  142.2085  158.8263 H   0  0  0  0  0  0  0  0  0  0  0  0
  151.7536  142.9288  160.5817 H   0  0  0  0  0  0  0  0  0  0  0  0
  152.9453  144.1049  161.0663 H   0  0  0  0  0  0  0  0  0  0  0  0
  153.0335  145.0799  158.8417 H   0  0  0  0  0  0  0  0  0  0  0  0
  151.2428  145.9198  160.3168 H   0  0  0  0  0  0  0  0  0  0  0  0
  150.1314  144.6969  159.7069 H   0  0  0  0  0  0  0  0  0  0  0  0
  150.7293  145.9626  158.6356 H   0  0  0  0  0  0  0  0  0  0  0  0
  152.1187  144.0202  156.9899 H   0  0  0  0  0  0  0  0  0  0  0  0
  149.8721  141.8998  156.2934 H   0  0  0  0  0  0  0  0  0  0  0  0
  151.4113  142.4597  155.7219 H   0  0  0  0  0  0  0  0  0  0  0  0
  152.3621  140.4575  158.2772 H   0  0  0  0  0  0  0  0  0  0  0  0
  153.1744  138.2030  158.1819 H   0  0  0  0  0  0  0  0  0  0  0  0
  1  2  1  0  0  0  0
  1 19  1  0  0  0  0
  1 20  1  0  0  0  0
  1 21  1  0  0  0  0
  2  3  1  0  0  0  0
  2 22  1  0  0  0  0
  2 23  1  0  0  0  0
  3  4  1  0  0  0  0
  3 24  1  0  0  0  0
  3 25  1  0  0  0  0
  4  5  1  0  0  0  0
  4  6  1  0  0  0  0
  4 26  1  0  0  0  0
  5 27  1  0  0  0  0
  5 28  1  0  0  0  0
  5 29  1  0  0  0  0
  6  7  1  0  0  0  0
  6 30  1  0  0  0  0
  7  8  2  0  0  0  0
  7  9  1  0  0  0  0
  9 10  1  0  0  0  0
  9 31  1  0  0  0  0
  9 32  1  0  0  0  0
 10 16  1  0  0  0  0
 10 11  1  0  0  0  0
 11 12  2  0  0  0  0
 11 33  1  0  0  0  0
 12 13  1  0  0  0  0
 12 34  1  0  0  0  0
 13 14  2  0  0  0  0
 13 15  1  0  0  0  0
 15 18  1  0  0  0  0
 15 16  1  0  0  0  0
 16 17  2  0  0  0  0
M  END
> <s_m_source_file>
AV-unprocessed.smi

> <i_m_source_file_index>
2156

> <i_lp_mmshare_version>
43012

> <i_f3d_flags>
0

> <s_epik_input>
W0NIM11bQ0gyXVtDSDJdW0NASF0oW0NIM10pW05IXUMoPU8pW0NIMl1uMVtjSF1bY0hdYyg9TylbbkhdYzE9Tw==

> <s_epik_cmdline>
J2VwaWtfcHl0aG9uJywgJy1waCcsICc3LjAnLCAnLXRuJywgJzgnLCAnLW1hJywgJzIwMCcsICctbWV0YWxfYmluZGluZycsICctaW1hZScsICc8aW5maWxlLm1hZT4nLCAnLW9tYWUnLCAnPG91dGZpbGUubWFlPic=

> <r_lp_tautomer_probability>
0.999537

> <r_epik_Ionization_Penalty>
0.00324917

> <r_epik_Ionization_Penalty_Charging>
0.00324916

> <r_epik_Ionization_Penalty_Neutral>
1.93017e-08

> <r_epik_State_Penalty>
0.00229371

> <r_epik_Charging_Adjusted_Penalty>
0.00554286

> <i_epik_Tot_Q>
0

> <i_epik_Tot_abs_Q>
0

> <r_epik_Metal_State_Penalty>
0.364744

> <b_epik_Metal_Only>
0

> <s_lp_Force_Field>
OPLS_2005

> <r_lp_Energy>
3.31869

> <b_lp_Chiralities_Consistent>
1

> <s_lp_Variant>
AV-unprocessed.smi:2156-1

> <Gold.Version>
5.8.1

> <Gold.Id.Protein>
6NUR|6NUR_protein|mol2

> <Gold.PLP.Fitness>
42.0215

> <Gold.PLP.PLP>
-37.1711

> <Gold.PLP.part.hbond>
-2.1913

> <Gold.PLP.part.metal>
0.0000

> <Gold.PLP.part.buried>
-5.3565

> <Gold.PLP.part.nonpolar>
-30.3595

> <Gold.PLP.part.repulsive>
0.2711

> <Gold.PLP.ligand.clash>
0.0000

> <Gold.PLP.ligand.torsion>
0.5912

> <Gold.PLP.Chemscore.Hbond>
2.0000

> <Gold.PLP.Chemscore.CHOScore>
0.0000

> <Gold.PLP.Chemscore.Metal>
0.0000

> <Gold.Chemscore.Hbonds>
donor molecule, donor type, donor heavy atom, donor atom, acceptor molecule, acceptor atom, score
      P1  H  7989  7998       L1    17  1.00
      P1  H 10752 10763       L1    14  0.85

> <Gold.PLP.Chemscore.Internal.Correction>
0.0328

> <Gold.Rescore>
     Score         DG    S(hbond)    S(metal)    S(lipo)     H(rot)  DE(clash)    DE(int)     intcor
     11.64     -15.11       1.92        0.00      75.49       2.19       0.01       3.45       ----

> <Gold.Chemscore.Fitness>
11.6445

> <Gold.Chemscore.DG>
-15.1111

> <Gold.Chemscore.ZeroCoef>
-5.4800

> <Gold.Chemscore.Hbond>
1.9214

> <Gold.Chemscore.Metal>
0.0000

> <Gold.Chemscore.Lipo>
75.4916

> <Gold.Chemscore.Internal_Hbond>
0.0000

> <Gold.Chemscore.DEClash>
0.0141

> <Gold.Chemscore.DEInternal>
3.4525

> <Gold.Chemscore.Rot>
2.1949

> <Gold.Chemscore.Internal.Correction>
   9.000000E+99

> <Gold.Chemscore.Hbonds>
donor molecule, donor type, donor heavy atom, donor atom, acceptor molecule, acceptor atom, score
      P1  H  7989  7998       L1    17  0.28
      P1  H 10752 10763       L1    14  0.82

> <Gold.Chemscore.Hbond.Weighted>
-6.4174

> <Gold.Chemscore.Metal.Weighted>
-0.0000

> <Gold.Chemscore.Lipo.Weighted>
-8.8325

> <Gold.Chemscore.Internal_Hbond.Weighted>
0.0000

> <Gold.Chemscore.DEClash.Weighted>
0.0141

> <Gold.Chemscore.DEInternal.Weighted>
3.4525

> <Gold.Chemscore.Rot.Weighted>
5.6188

> <Gold.Chemscore.Internal.Correction.Weighted>
   9.000000E+99

> <Gold.Protein.RotatedTorsions>
[ 6907 6896 6895 6894 ] final  -58.82 input  -60.11 | X-H torsion
[ 7974 7965 7964 7962 ] final   29.76 input  175.53 | X-H torsion
[ 8008 7997 7996 7995 ] final  151.57 input   59.86 | X-H torsion
[ 10167 10162 10161 10158 ] final -156.22 input  -65.29 | X-H torsion
[ 10718 10713 10712 10709 ] final  -99.23 input   66.30 | X-H torsion
[ 10763 10752 10751 10750 ] final   83.82 input  -60.55 | X-H torsion
[ 11005 11000 10999 10996 ] final   16.25 input  -57.11 | X-H torsion

> <Gold.Protein.ActiveResidues>
 VAL166  LYS551  ARG553  GLY616  TRP617  ASP618  TYR619  PRO620  LYS621  CYS622 
 ASP623  PHE694  ASN695  SER759  ASP760  ASP761  ALA762  ILE779  LEU786  VAL792 
 PHE793  MET794  SER795  GLU796  ALA797  LYS798  CYS799  TRP800  GLU811  SER814 

> <Gold.Protein.RotatedAtoms>
  150.7977  134.7049  159.6570 H   0  0  0  0  0  0  0  0  0  0  0  0  # atno 6907 bound_to 6896
  152.4091  134.6151  160.0046 H   0  0  0  0  0  0  0  0  0  0  0  0  # atno 6908 bound_to 6896
  151.6400  133.3289  159.3164 H   0  0  0  0  0  0  0  0  0  0  0  0  # atno 6909 bound_to 6896
  146.1652  139.6879  142.9005 H   0  0  0  0  0  0  0  0  0  0  0  0  # atno 7974 bound_to 7965
  156.2668  140.2044  156.6196 H   0  0  0  0  0  0  0  0  0  0  0  0  # atno 8008 bound_to 7997
  154.6767  140.0544  157.0247 H   0  0  0  0  0  0  0  0  0  0  0  0  # atno 8009 bound_to 7997
  155.1059  140.3210  155.4537 H   0  0  0  0  0  0  0  0  0  0  0  0  # atno 8010 bound_to 7997
  139.6868  143.9488  152.2365 H   0  0  0  0  0  0  0  0  0  0  0  0  # atno 10167 bound_to 10162
  156.0128  130.5273  150.6639 H   0  0  0  0  0  0  0  0  0  0  0  0  # atno 10718 bound_to 10713
  153.1325  135.4677  154.9371 H   0  0  0  0  0  0  0  0  0  0  0  0  # atno 10763 bound_to 10752
  154.7677  135.3149  154.8255 H   0  0  0  0  0  0  0  0  0  0  0  0  # atno 10764 bound_to 10752
  153.8795  135.6895  153.4822 H   0  0  0  0  0  0  0  0  0  0  0  0  # atno 10765 bound_to 10752
  140.4492  134.1241  155.7700 H   0  0  0  0  0  0  0  0  0  0  0  0  # atno 11005 bound_to 11000
  145.4484  141.0427  143.2818 LP  0  0  0  0  0  0  0  0  0  0  0  0  # atno 17320 bound_to 7965
  144.8083  139.6010  143.7041 LP  0  0  0  0  0  0  0  0  0  0  0  0  # atno 17321 bound_to 7965
  139.9293  144.6751  150.8380 LP  0  0  0  0  0  0  0  0  0  0  0  0  # atno 17342 bound_to 10162
  140.7670  143.3320  151.2390 LP  0  0  0  0  0  0  0  0  0  0  0  0  # atno 17343 bound_to 10162
  157.4376  131.0857  151.0976 LP  0  0  0  0  0  0  0  0  0  0  0  0  # atno 17370 bound_to 10713
  157.1530  130.6192  149.5588 LP  0  0  0  0  0  0  0  0  0  0  0  0  # atno 17371 bound_to 10713
  141.1671  133.8681  157.1681 LP  0  0  0  0  0  0  0  0  0  0  0  0  # atno 17394 bound_to 11000
  140.0018  135.0025  157.0206 LP  0  0  0  0  0  0  0  0  0  0  0  0  # atno 17395 bound_to 11000

$$$$
