AV-unprocessed.smi:1240|AV-procd|sdf|5197|dock2
  -GOLD-   22720 4283D 1   1.00000     0.00000
 Structure written by MMmdl.
 47 49  0  0  0  0  0  0  0  0  1 V2000
  144.5689  135.9646  152.9214 O   0  0  0  0  0  0  0  0  0  0  0  0
  145.7713  135.9496  152.6586 C   0  0  0  0  0  0  0  0  0  0  0  0
  146.6675  136.7419  153.2637 N   0  0  0  0  0  0  0  0  0  0  0  0
  146.3530  137.7294  154.2931 C   0  0  0  0  0  0  0  0  0  0  0  0
  147.0922  139.0911  154.0984 C   0  0  2  0  0  0  0  0  0  0  0  0
  148.5117  138.9998  154.7569 C   0  0  1  0  0  0  0  0  0  0  0  0
  149.4529  137.8683  154.3800 C   0  0  0  0  0  0  0  0  0  0  0  0
  150.7619  138.3486  154.9940 C   0  0  0  0  0  0  0  0  0  0  0  0
  150.7530  139.7610  154.8173 O   0  0  0  0  0  0  0  0  0  0  0  0
  149.4300  140.2066  154.5263 C   0  0  0  0  0  0  0  0  0  0  0  0
  146.3203  140.2918  154.5091 N   0  0  0  0  0  0  0  0  0  0  0  0
  146.2765  140.4365  155.9705 C   0  0  0  0  0  0  0  0  0  0  0  0
  145.3925  141.6139  156.4128 C   0  0  0  0  0  0  0  0  0  0  0  0
  145.8905  142.8160  155.8382 O   0  0  0  0  0  0  0  0  0  0  0  0
  145.9450  142.7574  154.4180 C   0  0  0  0  0  0  0  0  0  0  0  0
  146.8132  141.5656  153.9754 C   0  0  0  0  0  0  0  0  0  0  0  0
  146.3587  135.1740  151.7310 N   0  0  0  0  0  0  0  0  0  0  0  0
  145.7616  134.2236  150.8589 C   0  0  0  0  0  0  0  0  0  0  0  0
  146.5503  133.1316  150.4414 C   0  0  0  0  0  0  0  0  0  0  0  0
  145.9785  132.1675  149.5874 C   0  0  0  0  0  0  0  0  0  0  0  0
  144.7032  132.2276  149.1503 N   0  0  0  0  0  0  0  0  0  0  0  0
  143.9451  133.2656  149.5623 C   0  0  0  0  0  0  0  0  0  0  0  0
  144.4186  134.2830  150.4147 C   0  0  0  0  0  0  0  0  0  0  0  0
  147.6353  136.6669  152.9863 H   0  0  0  0  0  0  0  0  0  0  0  0
  145.2706  137.8635  154.2838 H   0  0  0  0  0  0  0  0  0  0  0  0
  146.5980  137.2944  155.2621 H   0  0  0  0  0  0  0  0  0  0  0  0
  147.2564  139.1741  153.0230 H   0  0  0  0  0  0  0  0  0  0  0  0
  148.3657  138.9091  155.8344 H   0  0  0  0  0  0  0  0  0  0  0  0
  149.1381  136.8944  154.7556 H   0  0  0  0  0  0  0  0  0  0  0  0
  149.5934  137.8089  153.3008 H   0  0  0  0  0  0  0  0  0  0  0  0
  150.7883  138.1270  156.0615 H   0  0  0  0  0  0  0  0  0  0  0  0
  151.6364  137.8923  154.5296 H   0  0  0  0  0  0  0  0  0  0  0  0
  149.3937  140.5282  153.4846 H   0  0  0  0  0  0  0  0  0  0  0  0
  149.1664  141.0594  155.1523 H   0  0  0  0  0  0  0  0  0  0  0  0
  145.9284  139.5346  156.4633 H   0  0  0  0  0  0  0  0  0  0  0  0
  147.2871  140.5984  156.3489 H   0  0  0  0  0  0  0  0  0  0  0  0
  144.3557  141.4549  156.1125 H   0  0  0  0  0  0  0  0  0  0  0  0
  145.4025  141.7092  157.4986 H   0  0  0  0  0  0  0  0  0  0  0  0
  144.9356  142.6688  154.0133 H   0  0  0  0  0  0  0  0  0  0  0  0
  146.3607  143.6911  154.0391 H   0  0  0  0  0  0  0  0  0  0  0  0
  147.8448  141.7304  154.2909 H   0  0  0  0  0  0  0  0  0  0  0  0
  146.8086  141.5482  152.8859 H   0  0  0  0  0  0  0  0  0  0  0  0
  147.3451  135.3305  151.5860 H   0  0  0  0  0  0  0  0  0  0  0  0
  147.5772  133.0330  150.7618 H   0  0  0  0  0  0  0  0  0  0  0  0
  146.5618  131.3244  149.2477 H   0  0  0  0  0  0  0  0  0  0  0  0
  142.9254  133.2831  149.2070 H   0  0  0  0  0  0  0  0  0  0  0  0
  143.7449  135.0706  150.7148 H   0  0  0  0  0  0  0  0  0  0  0  0
  1  2  2  0  0  0  0
  2  3  1  0  0  0  0
  2 17  1  0  0  0  0
  3  4  1  0  0  0  0
  3 24  1  0  0  0  0
  4  5  1  0  0  0  0
  4 25  1  0  0  0  0
  4 26  1  0  0  0  0
  5  6  1  0  0  0  0
  5 11  1  0  0  0  0
  5 27  1  0  0  0  0
  6 10  1  0  0  0  0
  6  7  1  0  0  0  0
  6 28  1  0  0  0  0
  7  8  1  0  0  0  0
  7 29  1  0  0  0  0
  7 30  1  0  0  0  0
  8  9  1  0  0  0  0
  8 31  1  0  0  0  0
  8 32  1  0  0  0  0
  9 10  1  0  0  0  0
 10 33  1  0  0  0  0
 10 34  1  0  0  0  0
 11 16  1  0  0  0  0
 11 12  1  0  0  0  0
 12 13  1  0  0  0  0
 12 35  1  0  0  0  0
 12 36  1  0  0  0  0
 13 14  1  0  0  0  0
 13 37  1  0  0  0  0
 13 38  1  0  0  0  0
 14 15  1  0  0  0  0
 15 16  1  0  0  0  0
 15 39  1  0  0  0  0
 15 40  1  0  0  0  0
 16 41  1  0  0  0  0
 16 42  1  0  0  0  0
 17 18  1  0  0  0  0
 17 43  1  0  0  0  0
 18 23  1  0  0  0  0
 18 19  2  0  0  0  0
 19 20  1  0  0  0  0
 19 44  1  0  0  0  0
 20 21  2  0  0  0  0
 20 45  1  0  0  0  0
 21 22  1  0  0  0  0
 22 23  2  0  0  0  0
 22 46  1  0  0  0  0
 23 47  1  0  0  0  0
M  END
> <s_m_source_file>
AV-unprocessed.smi

> <i_m_source_file_index>
1240

> <i_lp_mmshare_version>
43012

> <i_f3d_flags>
0

> <s_epik_input>
W2NIXTFbY0hdbltjSF1bY0hdYzFbTkhdQyg9TylbTkhdW0NIMl1bQ0BIXShbQ0BASF0yW0NIMl1bQ0gyXU9bQ0gyXTIpTjNbQ0gyXVtDSDJdT1tDSDJdW0NIMl0z

> <s_epik_cmdline>
J2VwaWtfcHl0aG9uJywgJy1waCcsICc3LjAnLCAnLXRuJywgJzgnLCAnLW1hJywgJzIwMCcsICctbWV0YWxfYmluZGluZycsICctaW1hZScsICc8aW5maWxlLm1hZT4nLCAnLW9tYWUnLCAnPG91dGZpbGUubWFlPic=

> <r_epik_Ionization_Penalty>
0.238664

> <r_epik_Ionization_Penalty_Charging>
0

> <r_epik_Ionization_Penalty_Neutral>
0.238664

> <r_epik_State_Penalty>
0.217087

> <r_epik_Charging_Adjusted_Penalty>
0.217087

> <i_epik_Tot_Q>
0

> <i_epik_Tot_abs_Q>
0

> <r_epik_Metal_State_Penalty>
0.199194

> <b_epik_Metal_Only>
0

> <s_lp_Force_Field>
OPLS_2005

> <r_lp_Energy>
60.4564

> <b_lp_Chiralities_Consistent>
1

> <s_lp_Variant>
AV-unprocessed.smi:1240-3

> <Gold.Version>
5.8.1

> <Gold.Id.Protein>
6NUR|6NUR_protein|mol2

> <Gold.PLP.Fitness>
49.3530

> <Gold.PLP.PLP>
-35.9893

> <Gold.PLP.part.hbond>
-3.0000

> <Gold.PLP.part.metal>
0.0000

> <Gold.PLP.part.buried>
-5.7428

> <Gold.PLP.part.nonpolar>
-28.5814

> <Gold.PLP.part.repulsive>
0.7401

> <Gold.PLP.ligand.clash>
0.0108

> <Gold.PLP.ligand.torsion>
0.8556

> <Gold.PLP.Chemscore.Hbond>
2.9440

> <Gold.PLP.Chemscore.CHOScore>
2.0000

> <Gold.PLP.Chemscore.Metal>
0.0000

> <Gold.Chemscore.Hbonds>
donor molecule, donor type, donor heavy atom, donor atom, acceptor molecule, acceptor atom, score
      L1  H     3    24       P1  7948  1.00
      L1  H    17    43       P1  7948  1.00
      P1  H  7989  7998       L1     9  0.80
      L1  C    20    45       P1 10747  0.60
      L1  C    22    46       P1 10186  1.00

> <Gold.PLP.Chemscore.Internal.Correction>
0.2538

> <Gold.Rescore>
     Score         DG    S(hbond)    S(metal)    S(lipo)     H(rot)  DE(clash)    DE(int)     intcor
     19.11     -20.48       2.65        0.00      88.72       1.65       0.15       1.21       ----

> <Gold.Chemscore.Fitness>
19.1097

> <Gold.Chemscore.DG>
-20.4752

> <Gold.Chemscore.ZeroCoef>
-5.4800

> <Gold.Chemscore.Hbond>
2.6471

> <Gold.Chemscore.Metal>
0.0000

> <Gold.Chemscore.Lipo>
88.7174

> <Gold.Chemscore.Internal_Hbond>
0.0000

> <Gold.Chemscore.DEClash>
0.1508

> <Gold.Chemscore.DEInternal>
1.2147

> <Gold.Chemscore.Rot>
1.6508

> <Gold.Chemscore.Internal.Correction>
   9.000000E+99

> <Gold.Chemscore.Hbonds>
donor molecule, donor type, donor heavy atom, donor atom, acceptor molecule, acceptor atom, score
      L1  H     3    24       P1  7948  0.98
      L1  H    17    43       P1  7948  0.91
      P1  H  7989  7998       L1     9  0.12

> <Gold.Chemscore.Hbond.Weighted>
-8.8414

> <Gold.Chemscore.Metal.Weighted>
-0.0000

> <Gold.Chemscore.Lipo.Weighted>
-10.3799

> <Gold.Chemscore.Internal_Hbond.Weighted>
0.0000

> <Gold.Chemscore.DEClash.Weighted>
0.1508

> <Gold.Chemscore.DEInternal.Weighted>
1.2147

> <Gold.Chemscore.Rot.Weighted>
4.2262

> <Gold.Chemscore.Internal.Correction.Weighted>
   9.000000E+99

> <Gold.Protein.RotatedTorsions>
[ 6907 6896 6895 6894 ] final -171.69 input  -60.11 | X-H torsion
[ 7974 7965 7964 7962 ] final -170.90 input  175.53 | X-H torsion
[ 8008 7997 7996 7995 ] final  127.05 input   59.86 | X-H torsion
[ 10167 10162 10161 10158 ] final -175.00 input  -65.29 | X-H torsion
[ 10718 10713 10712 10709 ] final -156.31 input   66.30 | X-H torsion
[ 10763 10752 10751 10750 ] final   68.84 input  -60.55 | X-H torsion
[ 11005 11000 10999 10996 ] final  112.39 input  -57.11 | X-H torsion

> <Gold.Protein.ActiveResidues>
 VAL166  LYS551  ARG553  GLY616  TRP617  ASP618  TYR619  PRO620  LYS621  CYS622 
 ASP623  PHE694  ASN695  SER759  ASP760  ASP761  ALA762  ILE779  LEU786  VAL792 
 PHE793  MET794  SER795  GLU796  ALA797  LYS798  CYS799  TRP800  GLU811  SER814 

> <Gold.Protein.RotatedAtoms>
  151.5278  133.3454  159.2912 H   0  0  0  0  0  0  0  0  0  0  0  0  # atno 6907 bound_to 6896
  150.8612  134.7967  159.7095 H   0  0  0  0  0  0  0  0  0  0  0  0  # atno 6908 bound_to 6896
  152.4631  134.5148  159.9816 H   0  0  0  0  0  0  0  0  0  0  0  0  # atno 6909 bound_to 6896
  144.7164  140.2002  143.6339 H   0  0  0  0  0  0  0  0  0  0  0  0  # atno 7974 bound_to 7965
  156.2880  140.2678  156.2210 H   0  0  0  0  0  0  0  0  0  0  0  0  # atno 8008 bound_to 7997
  155.0168  140.0387  157.2439 H   0  0  0  0  0  0  0  0  0  0  0  0  # atno 8009 bound_to 7997
  154.7470  140.2736  155.6329 H   0  0  0  0  0  0  0  0  0  0  0  0  # atno 8010 bound_to 7997
  139.5604  144.1884  152.1229 H   0  0  0  0  0  0  0  0  0  0  0  0  # atno 10167 bound_to 10162
  156.5247  130.8494  151.2695 H   0  0  0  0  0  0  0  0  0  0  0  0  # atno 10718 bound_to 10713
  153.0256  135.5233  154.7196 H   0  0  0  0  0  0  0  0  0  0  0  0  # atno 10763 bound_to 10752
  154.6255  135.2894  155.0279 H   0  0  0  0  0  0  0  0  0  0  0  0  # atno 10764 bound_to 10752
  154.1250  135.6602  153.4963 H   0  0  0  0  0  0  0  0  0  0  0  0  # atno 10765 bound_to 10752
  139.8926  134.9528  156.6577 H   0  0  0  0  0  0  0  0  0  0  0  0  # atno 11005 bound_to 11000
  145.8687  139.2260  143.1674 LP  0  0  0  0  0  0  0  0  0  0  0  0  # atno 17320 bound_to 7965
  146.0106  140.8439  142.9973 LP  0  0  0  0  0  0  0  0  0  0  0  0  # atno 17321 bound_to 7965
  140.1396  144.5214  150.6752 LP  0  0  0  0  0  0  0  0  0  0  0  0  # atno 17342 bound_to 10162
  140.6883  143.2362  151.5201 LP  0  0  0  0  0  0  0  0  0  0  0  0  # atno 17343 bound_to 10162
  157.7431  130.9905  150.2568 LP  0  0  0  0  0  0  0  0  0  0  0  0  # atno 17370 bound_to 10713
  156.3116  130.3772  149.7657 LP  0  0  0  0  0  0  0  0  0  0  0  0  # atno 17371 bound_to 10713
  140.7471  133.8929  155.8320 LP  0  0  0  0  0  0  0  0  0  0  0  0  # atno 17394 bound_to 11000
  141.0031  134.1123  157.4297 LP  0  0  0  0  0  0  0  0  0  0  0  0  # atno 17395 bound_to 11000

$$$$
