AV-unprocessed.smi:3042|AV-procd|sdf|11601|dock4
  -GOLD-   2272016583D 1   1.00000     0.00000
 Structure written by MMmdl.
 32 33  0  0  0  0  0  0  0  0  1 V2000
  150.3645  138.5375  158.9408 N   0  0  0  0  0  0  0  0  0  0  0  0
  151.3873  139.5550  158.6469 C   0  0  0  0  0  0  0  0  0  0  0  0
  150.7875  140.9460  158.3188 C   0  0  2  0  0  0  0  0  0  0  0  0
  150.1676  140.8979  156.9230 C   0  0  0  0  0  0  0  0  0  0  0  0
  148.8118  141.2302  156.7094 C   0  0  0  0  0  0  0  0  0  0  0  0
  148.2954  141.1758  155.4007 C   0  0  0  0  0  0  0  0  0  0  0  0
  149.1581  140.7915  154.3552 C   0  0  0  0  0  0  0  0  0  0  0  0
  150.4562  140.4717  154.5447 N   0  0  0  0  0  0  0  0  0  0  0  0
  150.9436  140.5276  155.8029 C   0  0  0  0  0  0  0  0  0  0  0  0
  151.7413  142.0673  158.4493 N   0  0  0  0  0  0  0  0  0  0  0  0
  151.2213  143.3002  157.8467 C   0  0  0  0  0  0  0  0  0  0  0  0
  152.1990  144.4802  157.9785 C   0  0  0  0  0  0  0  0  0  0  0  0
  152.5017  144.6961  159.3508 O   0  0  0  0  0  0  0  0  0  0  0  0
  153.0670  143.5455  159.9652 C   0  0  0  0  0  0  0  0  0  0  0  0
  152.0955  142.3587  159.8411 C   0  0  0  0  0  0  0  0  0  0  0  0
  149.6383  138.9251  159.5414 H   0  0  0  0  0  0  0  0  0  0  0  0
  149.9100  138.2307  158.0822 H   0  0  0  0  0  0  0  0  0  0  0  0
  152.0451  139.6206  159.5116 H   0  0  0  0  0  0  0  0  0  0  0  0
  152.0087  139.2177  157.8168 H   0  0  0  0  0  0  0  0  0  0  0  0
  149.9739  141.1164  159.0262 H   0  0  0  0  0  0  0  0  0  0  0  0
  148.1782  141.5220  157.5341 H   0  0  0  0  0  0  0  0  0  0  0  0
  147.2633  141.4244  155.2028 H   0  0  0  0  0  0  0  0  0  0  0  0
  148.7959  140.7406  153.3391 H   0  0  0  0  0  0  0  0  0  0  0  0
  151.9858  140.2674  155.9179 H   0  0  0  0  0  0  0  0  0  0  0  0
  151.0127  143.1531  156.7873 H   0  0  0  0  0  0  0  0  0  0  0  0
  150.2727  143.5672  158.3151 H   0  0  0  0  0  0  0  0  0  0  0  0
  153.1163  144.2883  157.4197 H   0  0  0  0  0  0  0  0  0  0  0  0
  151.7560  145.3868  157.5662 H   0  0  0  0  0  0  0  0  0  0  0  0
  154.0255  143.3095  159.5005 H   0  0  0  0  0  0  0  0  0  0  0  0
  153.2657  143.7640  161.0144 H   0  0  0  0  0  0  0  0  0  0  0  0
  151.1929  142.5674  160.4173 H   0  0  0  0  0  0  0  0  0  0  0  0
  152.5756  141.4982  160.3037 H   0  0  0  0  0  0  0  0  0  0  0  0
  1  2  1  0  0  0  0
  1 16  1  0  0  0  0
  1 17  1  0  0  0  0
  2  3  1  0  0  0  0
  2 18  1  0  0  0  0
  2 19  1  0  0  0  0
  3  4  1  0  0  0  0
  3 10  1  0  0  0  0
  3 20  1  0  0  0  0
  4  9  1  0  0  0  0
  4  5  2  0  0  0  0
  5  6  1  0  0  0  0
  5 21  1  0  0  0  0
  6  7  2  0  0  0  0
  6 22  1  0  0  0  0
  7  8  1  0  0  0  0
  7 23  1  0  0  0  0
  8  9  2  0  0  0  0
  9 24  1  0  0  0  0
 10 15  1  0  0  0  0
 10 11  1  0  0  0  0
 11 12  1  0  0  0  0
 11 25  1  0  0  0  0
 11 26  1  0  0  0  0
 12 13  1  0  0  0  0
 12 27  1  0  0  0  0
 12 28  1  0  0  0  0
 13 14  1  0  0  0  0
 14 15  1  0  0  0  0
 14 29  1  0  0  0  0
 14 30  1  0  0  0  0
 15 31  1  0  0  0  0
 15 32  1  0  0  0  0
M  END
> <s_m_source_file>
AV-unprocessed.smi

> <i_m_source_file_index>
3042

> <i_lp_mmshare_version>
43012

> <i_f3d_flags>
0

> <s_epik_input>
W0NIMl0xW0NIMl1PW0NIMl1bQ0gyXU4xW0NASF0oW0NIMl1bTkgyXSljMltjSF1bY0hdW2NIXW5bY0hdMg==

> <s_epik_cmdline>
J2VwaWtfcHl0aG9uJywgJy1waCcsICc3LjAnLCAnLXRuJywgJzgnLCAnLW1hJywgJzIwMCcsICctbWV0YWxfYmluZGluZycsICctaW1hZScsICc8aW5maWxlLm1hZT4nLCAnLW9tYWUnLCAnPG91dGZpbGUubWFlPic=

> <r_epik_Ionization_Penalty>
2.62143

> <r_epik_Ionization_Penalty_Charging>
0

> <r_epik_Ionization_Penalty_Neutral>
2.62143

> <r_epik_State_Penalty>
2.72742

> <r_epik_Charging_Adjusted_Penalty>
2.72742

> <i_epik_Tot_Q>
0

> <i_epik_Tot_abs_Q>
0

> <r_epik_Metal_State_Penalty>
2.72081

> <b_epik_Metal_Only>
0

> <s_lp_Force_Field>
OPLS_2005

> <r_lp_Energy>
27.3222

> <b_lp_Chiralities_Consistent>
1

> <s_lp_Variant>
AV-unprocessed.smi:3042-3

> <Gold.Version>
5.8.1

> <Gold.Id.Protein>
6NUR|6NUR_protein|mol2

> <Gold.PLP.Fitness>
35.3059

> <Gold.PLP.PLP>
-30.0965

> <Gold.PLP.part.hbond>
-1.0490

> <Gold.PLP.part.metal>
0.0000

> <Gold.PLP.part.buried>
-4.2940

> <Gold.PLP.part.nonpolar>
-24.7185

> <Gold.PLP.part.repulsive>
0.1289

> <Gold.PLP.ligand.clash>
0.0000

> <Gold.PLP.ligand.torsion>
0.4293

> <Gold.PLP.Chemscore.Hbond>
1.0000

> <Gold.PLP.Chemscore.CHOScore>
1.0000

> <Gold.PLP.Chemscore.Metal>
0.0000

> <Gold.Chemscore.Hbonds>
donor molecule, donor type, donor heavy atom, donor atom, acceptor molecule, acceptor atom, score
      P1  H  7989  7998       L1     8  1.00
      L1  C     7    23       P1  7957  1.00

> <Gold.PLP.Chemscore.Internal.Correction>
0.0681

> <Gold.Rescore>
     Score         DG    S(hbond)    S(metal)    S(lipo)     H(rot)  DE(clash)    DE(int)     intcor
     14.06     -14.37       0.79        0.00      84.96       1.44       0.05       0.26       ----

> <Gold.Chemscore.Fitness>
14.0584

> <Gold.Chemscore.DG>
-14.3734

> <Gold.Chemscore.ZeroCoef>
-5.4800

> <Gold.Chemscore.Hbond>
0.7873

> <Gold.Chemscore.Metal>
0.0000

> <Gold.Chemscore.Lipo>
84.9565

> <Gold.Chemscore.Internal_Hbond>
0.0000

> <Gold.Chemscore.DEClash>
0.0532

> <Gold.Chemscore.DEInternal>
0.2618

> <Gold.Chemscore.Rot>
1.4359

> <Gold.Chemscore.Internal.Correction>
   9.000000E+99

> <Gold.Chemscore.Hbonds>
donor molecule, donor type, donor heavy atom, donor atom, acceptor molecule, acceptor atom, score
      P1  H  7989  7998       L1     8  0.70

> <Gold.Chemscore.Hbond.Weighted>
-2.6294

> <Gold.Chemscore.Metal.Weighted>
-0.0000

> <Gold.Chemscore.Lipo.Weighted>
-9.9399

> <Gold.Chemscore.Internal_Hbond.Weighted>
0.0000

> <Gold.Chemscore.DEClash.Weighted>
0.0532

> <Gold.Chemscore.DEInternal.Weighted>
0.2618

> <Gold.Chemscore.Rot.Weighted>
3.6759

> <Gold.Chemscore.Internal.Correction.Weighted>
   9.000000E+99

> <Gold.Protein.RotatedTorsions>
[ 6907 6896 6895 6894 ] final  141.74 input  -60.11 | X-H torsion
[ 7974 7965 7964 7962 ] final -135.00 input  175.53 | X-H torsion
[ 8008 7997 7996 7995 ] final -147.73 input   59.86 | X-H torsion
[ 10167 10162 10161 10158 ] final  -67.28 input  -65.29 | X-H torsion
[ 10718 10713 10712 10709 ] final  116.79 input   66.30 | X-H torsion
[ 10763 10752 10751 10750 ] final  151.37 input  -60.55 | X-H torsion
[ 11005 11000 10999 10996 ] final  -11.23 input  -57.11 | X-H torsion

> <Gold.Protein.ActiveResidues>
 VAL166  LYS551  ARG553  GLY616  TRP617  ASP618  TYR619  PRO620  LYS621  CYS622 
 ASP623  PHE694  ASN695  SER759  ASP760  ASP761  ALA762  ILE779  LEU786  VAL792 
 PHE793  MET794  SER795  GLU796  ALA797  LYS798  CYS799  TRP800  GLU811  SER814 

> <Gold.Protein.RotatedAtoms>
  152.2273  133.5030  159.5195 H   0  0  0  0  0  0  0  0  0  0  0  0  # atno 6907 bound_to 6896
  150.7028  134.1263  159.4062 H   0  0  0  0  0  0  0  0  0  0  0  0  # atno 6908 bound_to 6896
  151.9184  135.0309  160.0571 H   0  0  0  0  0  0  0  0  0  0  0  0  # atno 6909 bound_to 6896
  144.9052  140.6824  143.5060 H   0  0  0  0  0  0  0  0  0  0  0  0  # atno 7974 bound_to 7965
  155.5802  140.0642  157.2785 H   0  0  0  0  0  0  0  0  0  0  0  0  # atno 8008 bound_to 7997
  154.4335  140.1853  156.1015 H   0  0  0  0  0  0  0  0  0  0  0  0  # atno 8009 bound_to 7997
  156.0311  140.3306  155.7144 H   0  0  0  0  0  0  0  0  0  0  0  0  # atno 8010 bound_to 7997
  140.5594  143.2312  151.6757 H   0  0  0  0  0  0  0  0  0  0  0  0  # atno 10167 bound_to 10162
  157.6138  131.1029  150.7522 H   0  0  0  0  0  0  0  0  0  0  0  0  # atno 10718 bound_to 10713
  154.1027  135.2844  155.3248 H   0  0  0  0  0  0  0  0  0  0  0  0  # atno 10763 bound_to 10752
  154.6544  135.5357  153.7944 H   0  0  0  0  0  0  0  0  0  0  0  0  # atno 10764 bound_to 10752
  153.0373  135.6518  154.1189 H   0  0  0  0  0  0  0  0  0  0  0  0  # atno 10765 bound_to 10752
  140.7531  133.8576  155.9061 H   0  0  0  0  0  0  0  0  0  0  0  0  # atno 11005 bound_to 11000
  145.3548  139.1697  143.4415 LP  0  0  0  0  0  0  0  0  0  0  0  0  # atno 17320 bound_to 7965
  146.3130  140.3603  142.8664 LP  0  0  0  0  0  0  0  0  0  0  0  0  # atno 17321 bound_to 7965
  139.5063  144.3686  152.0492 LP  0  0  0  0  0  0  0  0  0  0  0  0  # atno 17342 bound_to 10162
  140.2811  144.3858  150.6118 LP  0  0  0  0  0  0  0  0  0  0  0  0  # atno 17343 bound_to 10162
  156.7894  130.4885  149.5387 LP  0  0  0  0  0  0  0  0  0  0  0  0  # atno 17370 bound_to 10713
  156.1252  130.6138  151.0252 LP  0  0  0  0  0  0  0  0  0  0  0  0  # atno 17371 bound_to 10713
  140.9732  134.1503  157.4558 LP  0  0  0  0  0  0  0  0  0  0  0  0  # atno 17394 bound_to 11000
  139.8784  134.9986  156.5907 LP  0  0  0  0  0  0  0  0  0  0  0  0  # atno 17395 bound_to 11000

$$$$
