AV-unprocessed.smi:740|AV-procd|sdf|3552|dock2
  -GOLD-   22720 0543D 1   1.00000     0.00000
 Structure written by MMmdl.
 45 47  0  0  0  0  0  0  0  0  2 V2000
  152.1761  144.5406  160.4061 C   0  0  0  0  0  0  0  0  0  0  0  0
  151.9919  143.4347  159.3809 C   0  0  0  0  0  0  0  0  0  0  0  0
  151.1351  143.6698  158.2823 C   0  0  0  0  0  0  0  0  0  0  0  0
  150.9854  142.6389  157.3627 C   0  0  0  0  0  0  0  0  0  0  0  0
  150.2228  142.5604  156.1958 N   0  3  0  0  0  0  0  0  0  0  0  0
  150.3951  141.3378  155.6221 C   0  0  0  0  0  0  0  0  0  0  0  0
  151.2591  140.6349  156.4035 N   0  0  0  0  0  0  0  0  0  0  0  0
  151.7737  139.2690  156.2304 C   0  0  0  0  0  0  0  0  0  0  0  0
  150.9286  138.2151  156.9724 C   0  0  2  0  0  0  0  0  0  0  0  0
  150.5303  137.2184  156.0515 O   0  0  0  0  0  0  0  0  0  0  0  0
  149.6686  138.8418  157.6053 C   0  0  0  0  0  0  0  0  0  0  0  0
  148.8388  137.8430  158.2887 N   0  0  0  0  0  0  0  0  0  0  0  0
  147.5298  137.6707  158.0597 C   0  0  0  0  0  0  0  0  0  0  0  0
  146.8418  138.3019  157.2579 O   0  0  0  0  0  0  0  0  0  0  0  0
  146.9615  136.5681  158.9420 C   0  0  0  0  0  0  0  0  0  0  0  0
  148.1767  136.1107  159.7630 C   0  0  2  0  0  0  0  0  0  0  0  0
  147.9878  136.2562  161.2821 C   0  0  0  0  0  0  0  0  0  0  0  0
  149.2916  137.0151  159.2409 C   0  0  0  0  0  0  0  0  0  0  0  0
  150.4450  136.9635  159.6682 O   0  0  0  0  0  0  0  0  0  0  0  0
  151.6541  141.4069  157.5030 C   0  0  0  0  0  0  0  0  0  0  0  0
  152.5029  141.1598  158.5797 C   0  0  0  0  0  0  0  0  0  0  0  0
  152.6658  142.1947  159.5284 C   0  0  0  0  0  0  0  0  0  0  0  0
  153.5816  141.9506  160.7160 C   0  0  0  0  0  0  0  0  0  0  0  0
  151.6273  145.4400  160.1254 H   0  0  0  0  0  0  0  0  0  0  0  0
  153.2288  144.8088  160.4980 H   0  0  0  0  0  0  0  0  0  0  0  0
  151.8132  144.2195  161.3828 H   0  0  0  0  0  0  0  0  0  0  0  0
  150.6171  144.6103  158.1640 H   0  0  0  0  0  0  0  0  0  0  0  0
  149.9304  140.9883  154.7114 H   0  0  0  0  0  0  0  0  0  0  0  0
  151.7605  139.0634  155.1593 H   0  0  0  0  0  0  0  0  0  0  0  0
  152.8200  139.2311  156.5344 H   0  0  0  0  0  0  0  0  0  0  0  0
  151.5459  137.7506  157.7426 H   0  0  0  0  0  0  0  0  0  0  0  0
  150.3273  137.6340  155.2274 H   0  0  0  0  0  0  0  0  0  0  0  0
  149.9660  139.5903  158.3420 H   0  0  0  0  0  0  0  0  0  0  0  0
  149.0947  139.3927  156.8578 H   0  0  0  0  0  0  0  0  0  0  0  0
  146.1594  136.9635  159.5664 H   0  0  0  0  0  0  0  0  0  0  0  0
  146.5590  135.7602  158.3301 H   0  0  0  0  0  0  0  0  0  0  0  0
  148.4215  135.0760  159.5194 H   0  0  0  0  0  0  0  0  0  0  0  0
  148.8587  135.8869  161.8245 H   0  0  0  0  0  0  0  0  0  0  0  0
  147.1237  135.6852  161.6223 H   0  0  0  0  0  0  0  0  0  0  0  0
  147.8315  137.2967  161.5702 H   0  0  0  0  0  0  0  0  0  0  0  0
  153.0142  140.2160  158.6954 H   0  0  0  0  0  0  0  0  0  0  0  0
  153.9786  140.9350  160.7124 H   0  0  0  0  0  0  0  0  0  0  0  0
  153.0426  142.0921  161.6530 H   0  0  0  0  0  0  0  0  0  0  0  0
  154.4265  142.6393  160.6941 H   0  0  0  0  0  0  0  0  0  0  0  0
  149.6274  143.2859  155.8169 H   0  0  0  0  0  0  0  0  0  0  0  0
  1  2  1  0  0  0  0
  1 24  1  0  0  0  0
  1 25  1  0  0  0  0
  1 26  1  0  0  0  0
  2 22  1  0  0  0  0
  2  3  2  0  0  0  0
  3  4  1  0  0  0  0
  3 27  1  0  0  0  0
  4 20  2  0  0  0  0
  4  5  1  0  0  0  0
  5  6  2  0  0  0  0
  5 45  1  0  0  0  0
  6  7  1  0  0  0  0
  6 28  1  0  0  0  0
  7  8  1  0  0  0  0
  7 20  1  0  0  0  0
  8  9  1  0  0  0  0
  8 29  1  0  0  0  0
  8 30  1  0  0  0  0
  9 10  1  0  0  0  0
  9 11  1  0  0  0  0
  9 31  1  0  0  0  0
 10 32  1  0  0  0  0
 11 12  1  0  0  0  0
 11 33  1  0  0  0  0
 11 34  1  0  0  0  0
 12 18  1  0  0  0  0
 12 13  1  0  0  0  0
 13 14  2  0  0  0  0
 13 15  1  0  0  0  0
 15 16  1  0  0  0  0
 15 35  1  0  0  0  0
 15 36  1  0  0  0  0
 16 17  1  0  0  0  0
 16 18  1  0  0  0  0
 16 37  1  0  0  0  0
 17 38  1  0  0  0  0
 17 39  1  0  0  0  0
 17 40  1  0  0  0  0
 18 19  2  0  0  0  0
 20 21  1  0  0  0  0
 21 22  2  0  0  0  0
 21 41  1  0  0  0  0
 22 23  1  0  0  0  0
 23 42  1  0  0  0  0
 23 43  1  0  0  0  0
 23 44  1  0  0  0  0
M  CHG  1   5   1
M  END
> <s_m_source_file>
AV-unprocessed.smi

> <i_m_source_file_index>
740

> <i_lp_mmshare_version>
43012

> <i_f3d_flags>
0

> <s_epik_input>
W0NIM11jKFtjSF0xKWMoW0NIM10pW2NIXWMoYzEyKW4oW2NIXW4yKVtDSDJdW0NASF0oW09IXSlbQ0gyXU4zQyg9TylbQ0gyXVtDQEBIXShbQ0gzXSlDMz1P

> <s_epik_cmdline>
J2VwaWtfcHl0aG9uJywgJy1waCcsICc3LjAnLCAnLXRuJywgJzgnLCAnLW1hJywgJzIwMCcsICctbWV0YWxfYmluZGluZycsICctaW1hZScsICc8aW5maWxlLm1hZT4nLCAnLW9tYWUnLCAnPG91dGZpbGUubWFlPic=

> <r_lp_tautomer_probability>
1

> <r_epik_Ionization_Penalty>
1.08202

> <r_epik_Ionization_Penalty_Charging>
1.08202

> <r_epik_Ionization_Penalty_Neutral>
1.16605e-06

> <r_epik_State_Penalty>
1.13754

> <r_epik_Charging_Adjusted_Penalty>
2.21956

> <i_epik_Tot_Q>
1

> <i_epik_Tot_abs_Q>
1

> <r_epik_Metal_State_Penalty>
5.13645

> <b_epik_Metal_Only>
0

> <s_lp_Force_Field>
OPLS_2005

> <r_lp_Energy>
22.2654

> <b_lp_Chiralities_Consistent>
1

> <s_lp_Variant>
AV-unprocessed.smi:740-7

> <Gold.Version>
5.8.1

> <Gold.Id.Protein>
6NUR|6NUR_protein|mol2

> <Gold.PLP.Fitness>
49.8744

> <Gold.PLP.PLP>
-43.1158

> <Gold.PLP.part.hbond>
-2.1587

> <Gold.PLP.part.metal>
0.0000

> <Gold.PLP.part.buried>
-5.8657

> <Gold.PLP.part.nonpolar>
-34.9563

> <Gold.PLP.part.repulsive>
0.1077

> <Gold.PLP.ligand.clash>
0.0000

> <Gold.PLP.ligand.torsion>
1.1431

> <Gold.PLP.Chemscore.Hbond>
3.0000

> <Gold.PLP.Chemscore.CHOScore>
0.0000

> <Gold.PLP.Chemscore.Metal>
0.0000

> <Gold.Chemscore.Hbonds>
donor molecule, donor type, donor heavy atom, donor atom, acceptor molecule, acceptor atom, score
      L1  H     5    45       P1  8028  2.00
      P1  H  6896  6907       L1    19  1.00

> <Gold.PLP.Chemscore.Internal.Correction>
0.0447

> <Gold.Rescore>
     Score         DG    S(hbond)    S(metal)    S(lipo)     H(rot)  DE(clash)    DE(int)     intcor
     16.12     -18.38       1.96        0.00     106.26       2.37       0.02       2.23       ----

> <Gold.Chemscore.Fitness>
16.1238

> <Gold.Chemscore.DG>
-18.3762

> <Gold.Chemscore.ZeroCoef>
-5.4800

> <Gold.Chemscore.Hbond>
1.9574

> <Gold.Chemscore.Metal>
0.0000

> <Gold.Chemscore.Lipo>
106.2567

> <Gold.Chemscore.Internal_Hbond>
0.0000

> <Gold.Chemscore.DEClash>
0.0249

> <Gold.Chemscore.DEInternal>
2.2274

> <Gold.Chemscore.Rot>
2.3724

> <Gold.Chemscore.Internal.Correction>
   9.000000E+99

> <Gold.Chemscore.Hbonds>
donor molecule, donor type, donor heavy atom, donor atom, acceptor molecule, acceptor atom, score
      L1  H     5    45       P1  8028  0.99
      P1  H  6896  6907       L1    19  0.81

> <Gold.Chemscore.Hbond.Weighted>
-6.5376

> <Gold.Chemscore.Metal.Weighted>
-0.0000

> <Gold.Chemscore.Lipo.Weighted>
-12.4320

> <Gold.Chemscore.Internal_Hbond.Weighted>
0.0000

> <Gold.Chemscore.DEClash.Weighted>
0.0249

> <Gold.Chemscore.DEInternal.Weighted>
2.2274

> <Gold.Chemscore.Rot.Weighted>
6.0734

> <Gold.Chemscore.Internal.Correction.Weighted>
   9.000000E+99

> <Gold.Protein.RotatedTorsions>
[ 6907 6896 6895 6894 ] final  -27.92 input  -60.11 | X-H torsion
[ 7974 7965 7964 7962 ] final -152.87 input  175.53 | X-H torsion
[ 8008 7997 7996 7995 ] final  101.58 input   59.86 | X-H torsion
[ 10167 10162 10161 10158 ] final   13.61 input  -65.29 | X-H torsion
[ 10718 10713 10712 10709 ] final -121.79 input   66.30 | X-H torsion
[ 10763 10752 10751 10750 ] final   13.98 input  -60.55 | X-H torsion
[ 11005 11000 10999 10996 ] final -102.91 input  -57.11 | X-H torsion

> <Gold.Protein.ActiveResidues>
 VAL166  LYS551  ARG553  GLY616  TRP617  ASP618  TYR619  PRO620  LYS621  CYS622 
 ASP623  PHE694  ASN695  SER759  ASP760  ASP761  ALA762  ILE779  LEU786  VAL792 
 PHE793  MET794  SER795  GLU796  ALA797  LYS798  CYS799  TRP800  GLU811  SER814 

> <Gold.Protein.RotatedAtoms>
  151.1402  135.0175  159.8621 H   0  0  0  0  0  0  0  0  0  0  0  0  # atno 6907 bound_to 6896
  152.5452  134.1508  159.8527 H   0  0  0  0  0  0  0  0  0  0  0  0  # atno 6908 bound_to 6896
  151.1583  133.4816  159.2627 H   0  0  0  0  0  0  0  0  0  0  0  0  # atno 6909 bound_to 6896
  144.7771  140.4603  143.5866 H   0  0  0  0  0  0  0  0  0  0  0  0  # atno 7974 bound_to 7965
  156.1312  140.3195  155.8352 H   0  0  0  0  0  0  0  0  0  0  0  0  # atno 8008 bound_to 7997
  155.4328  140.0520  157.3034 H   0  0  0  0  0  0  0  0  0  0  0  0  # atno 8009 bound_to 7997
  154.4901  140.2088  155.9580 H   0  0  0  0  0  0  0  0  0  0  0  0  # atno 8010 bound_to 7997
  140.5991  143.8641  150.6947 H   0  0  0  0  0  0  0  0  0  0  0  0  # atno 10167 bound_to 10162
  156.1365  130.6434  150.9705 H   0  0  0  0  0  0  0  0  0  0  0  0  # atno 10718 bound_to 10713
  153.1667  135.6805  153.8665 H   0  0  0  0  0  0  0  0  0  0  0  0  # atno 10763 bound_to 10752
  153.8043  135.3151  155.3395 H   0  0  0  0  0  0  0  0  0  0  0  0  # atno 10764 bound_to 10752
  154.7970  135.4801  154.0275 H   0  0  0  0  0  0  0  0  0  0  0  0  # atno 10765 bound_to 10752
  141.1169  133.8597  157.1420 H   0  0  0  0  0  0  0  0  0  0  0  0  # atno 11005 bound_to 11000
  145.6155  139.1518  143.3052 LP  0  0  0  0  0  0  0  0  0  0  0  0  # atno 17320 bound_to 7965
  146.1957  140.6269  142.9125 LP  0  0  0  0  0  0  0  0  0  0  0  0  # atno 17321 bound_to 7965
  140.2182  143.3829  152.1664 LP  0  0  0  0  0  0  0  0  0  0  0  0  # atno 17342 bound_to 10162
  139.5279  144.7124  151.5164 LP  0  0  0  0  0  0  0  0  0  0  0  0  # atno 17343 bound_to 10162
  157.6537  131.0893  150.7994 LP  0  0  0  0  0  0  0  0  0  0  0  0  # atno 17370 bound_to 10713
  156.8073  130.4941  149.5361 LP  0  0  0  0  0  0  0  0  0  0  0  0  # atno 17371 bound_to 10713
  140.0097  134.9993  157.0368 LP  0  0  0  0  0  0  0  0  0  0  0  0  # atno 17394 bound_to 11000
  140.4621  134.1473  155.7192 LP  0  0  0  0  0  0  0  0  0  0  0  0  # atno 17395 bound_to 11000

$$$$
