AV-unprocessed.smi:2943|AV-procd|sdf|11269|dock10
  -GOLD-   2272016163D 1   1.00000     0.00000
 Structure written by MMmdl.
 36 38  0  0  0  0  0  0  0  0  1 V2000
  148.8038  140.7337  154.5756 C   0  0  0  0  0  0  0  0  0  0  0  0
  149.8613  140.4867  155.6107 C   0  0  0  0  0  0  0  0  0  0  0  0
  149.9983  141.1438  156.8122 C   0  0  0  0  0  0  0  0  0  0  0  0
  149.1454  142.2430  157.3687 C   0  0  0  0  0  0  0  0  0  0  0  0
  151.0939  140.6320  157.5108 N   0  0  0  0  0  0  0  0  0  0  0  0
  151.5525  141.0693  158.8225 C   0  0  0  0  0  0  0  0  0  0  0  0
  152.3724  142.3682  158.7452 C   0  0  1  0  0  0  0  0  0  0  0  0
  151.9405  143.3043  157.6173 C   0  0  0  0  0  0  0  0  0  0  0  0
  152.3835  144.6483  158.1481 C   0  0  0  0  0  0  0  0  0  0  0  0
  152.0604  144.5110  159.6323 C   0  0  0  0  0  0  0  0  0  0  0  0
  152.2484  143.1336  159.9427 O   0  0  0  0  0  0  0  0  0  0  0  0
  151.6850  139.6356  156.7478 C   0  0  0  0  0  0  0  0  0  0  0  0
  152.7835  138.8891  157.0724 N   0  0  0  0  0  0  0  0  0  0  0  0
  153.0972  138.0183  156.1101 C   0  0  0  0  0  0  0  0  0  0  0  0
  152.4871  137.8123  154.9397 N   0  0  0  0  0  0  0  0  0  0  0  0
  151.3998  138.5529  154.6273 C   0  0  0  0  0  0  0  0  0  0  0  0
  150.7955  138.3079  153.3962 N   0  0  0  0  0  0  0  0  0  0  0  0
  150.9316  139.5293  155.5460 C   0  0  0  0  0  0  0  0  0  0  0  0
  147.8739  141.0836  155.0238 H   0  0  0  0  0  0  0  0  0  0  0  0
  148.5645  139.8256  154.0234 H   0  0  0  0  0  0  0  0  0  0  0  0
  149.1288  141.4845  153.8554 H   0  0  0  0  0  0  0  0  0  0  0  0
  148.5276  142.7000  156.5965 H   0  0  0  0  0  0  0  0  0  0  0  0
  149.7525  143.0367  157.8026 H   0  0  0  0  0  0  0  0  0  0  0  0
  148.4828  141.8607  158.1451 H   0  0  0  0  0  0  0  0  0  0  0  0
  150.6920  141.1991  159.4789 H   0  0  0  0  0  0  0  0  0  0  0  0
  152.1518  140.2726  159.2647 H   0  0  0  0  0  0  0  0  0  0  0  0
  153.4311  142.1366  158.6230 H   0  0  0  0  0  0  0  0  0  0  0  0
  152.3926  143.0510  156.6580 H   0  0  0  0  0  0  0  0  0  0  0  0
  150.8559  143.2926  157.4992 H   0  0  0  0  0  0  0  0  0  0  0  0
  153.4577  144.7733  158.0048 H   0  0  0  0  0  0  0  0  0  0  0  0
  151.8733  145.4881  157.6755 H   0  0  0  0  0  0  0  0  0  0  0  0
  152.6845  145.1503  160.2570 H   0  0  0  0  0  0  0  0  0  0  0  0
  151.0170  144.7673  159.8199 H   0  0  0  0  0  0  0  0  0  0  0  0
  153.9591  137.3971  156.3041 H   0  0  0  0  0  0  0  0  0  0  0  0
  151.1535  137.6073  152.7633 H   0  0  0  0  0  0  0  0  0  0  0  0
  149.9787  138.8223  153.0998 H   0  0  0  0  0  0  0  0  0  0  0  0
  1  2  1  0  0  0  0
  1 19  1  0  0  0  0
  1 20  1  0  0  0  0
  1 21  1  0  0  0  0
  2 18  1  0  0  0  0
  2  3  2  0  0  0  0
  3  4  1  0  0  0  0
  3  5  1  0  0  0  0
  4 22  1  0  0  0  0
  4 23  1  0  0  0  0
  4 24  1  0  0  0  0
  5  6  1  0  0  0  0
  5 12  1  0  0  0  0
  6  7  1  0  0  0  0
  6 25  1  0  0  0  0
  6 26  1  0  0  0  0
  7 11  1  0  0  0  0
  7  8  1  0  0  0  0
  7 27  1  0  0  0  0
  8  9  1  0  0  0  0
  8 28  1  0  0  0  0
  8 29  1  0  0  0  0
  9 10  1  0  0  0  0
  9 30  1  0  0  0  0
  9 31  1  0  0  0  0
 10 11  1  0  0  0  0
 10 32  1  0  0  0  0
 10 33  1  0  0  0  0
 12 18  1  0  0  0  0
 12 13  2  0  0  0  0
 13 14  1  0  0  0  0
 14 15  2  0  0  0  0
 14 34  1  0  0  0  0
 15 16  1  0  0  0  0
 16 17  1  0  0  0  0
 16 18  2  0  0  0  0
 17 35  1  0  0  0  0
 17 36  1  0  0  0  0
M  END
> <s_m_source_file>
AV-unprocessed.smi

> <i_m_source_file_index>
2943

> <i_lp_mmshare_version>
43012

> <i_f3d_flags>
0

> <s_epik_input>
bjFbY0hdbmMoW05IMl0pYyhjMTIpYyhbQ0gzXSljKFtDSDNdKW4yW0NIMl1bQ0BASF0zW0NIMl1bQ0gyXVtDSDJdTzM=

> <s_epik_cmdline>
J2VwaWtfcHl0aG9uJywgJy1waCcsICc3LjAnLCAnLXRuJywgJzgnLCAnLW1hJywgJzIwMCcsICctbWV0YWxfYmluZGluZycsICctaW1hZScsICc8aW5maWxlLm1hZT4nLCAnLW9tYWUnLCAnPG91dGZpbGUubWFlPic=

> <r_epik_Ionization_Penalty>
0.0115167

> <r_epik_Ionization_Penalty_Charging>
0

> <r_epik_Ionization_Penalty_Neutral>
0.0115167

> <r_epik_State_Penalty>
0.00863248

> <r_epik_Charging_Adjusted_Penalty>
0.00863248

> <i_epik_Tot_Q>
0

> <i_epik_Tot_abs_Q>
0

> <r_epik_Metal_State_Penalty>
0.00847169

> <b_epik_Metal_Only>
0

> <s_lp_Force_Field>
OPLS_2005

> <r_lp_Energy>
17.4582

> <b_lp_Chiralities_Consistent>
1

> <s_lp_Variant>
AV-unprocessed.smi:2943-2

> <Gold.Version>
5.8.1

> <Gold.Id.Protein>
6NUR|6NUR_protein|mol2

> <Gold.PLP.Fitness>
41.3381

> <Gold.PLP.PLP>
-35.2325

> <Gold.PLP.part.hbond>
-4.9817

> <Gold.PLP.part.metal>
0.0000

> <Gold.PLP.part.buried>
0.2552

> <Gold.PLP.part.nonpolar>
-28.9800

> <Gold.PLP.part.repulsive>
0.1913

> <Gold.PLP.ligand.clash>
0.0000

> <Gold.PLP.ligand.torsion>
0.6277

> <Gold.PLP.Chemscore.Hbond>
2.4536

> <Gold.PLP.Chemscore.CHOScore>
0.0000

> <Gold.PLP.Chemscore.Metal>
0.0000

> <Gold.Chemscore.Hbonds>
donor molecule, donor type, donor heavy atom, donor atom, acceptor molecule, acceptor atom, score
      L1  H    17    35       P1  7949  0.94
      L1  H    17    36       P1  7957  0.18
      P1  H  7997  8009       L1    13  0.65
      P1  H 10752 10763       L1    15  0.21

> <Gold.PLP.Chemscore.Internal.Correction>
0.0004

> <Gold.Rescore>
     Score         DG    S(hbond)    S(metal)    S(lipo)     H(rot)  DE(clash)    DE(int)     intcor
     12.80     -15.39       1.13        0.00      80.00       1.26       0.08       2.51       ----

> <Gold.Chemscore.Fitness>
12.7959

> <Gold.Chemscore.DG>
-15.3868

> <Gold.Chemscore.ZeroCoef>
-5.4800

> <Gold.Chemscore.Hbond>
1.1299

> <Gold.Chemscore.Metal>
0.0000

> <Gold.Chemscore.Lipo>
80.0027

> <Gold.Chemscore.Internal_Hbond>
0.0000

> <Gold.Chemscore.DEClash>
0.0825

> <Gold.Chemscore.DEInternal>
2.5083

> <Gold.Chemscore.Rot>
1.2607

> <Gold.Chemscore.Internal.Correction>
   9.000000E+99

> <Gold.Chemscore.Hbonds>
donor molecule, donor type, donor heavy atom, donor atom, acceptor molecule, acceptor atom, score
      L1  H    17    35       P1  7949  0.40
      L1  H    17    36       P1  7957  0.15
      P1  H  7997  8009       L1    13  0.03
      P1  H 10752 10763       L1    15  0.12

> <Gold.Chemscore.Hbond.Weighted>
-3.7739

> <Gold.Chemscore.Metal.Weighted>
-0.0000

> <Gold.Chemscore.Lipo.Weighted>
-9.3603

> <Gold.Chemscore.Internal_Hbond.Weighted>
0.0000

> <Gold.Chemscore.DEClash.Weighted>
0.0825

> <Gold.Chemscore.DEInternal.Weighted>
2.5083

> <Gold.Chemscore.Rot.Weighted>
3.2274

> <Gold.Chemscore.Internal.Correction.Weighted>
   9.000000E+99

> <Gold.Protein.RotatedTorsions>
[ 6907 6896 6895 6894 ] final  -17.30 input  -60.11 | X-H torsion
[ 7974 7965 7964 7962 ] final  -40.19 input  175.53 | X-H torsion
[ 8008 7997 7996 7995 ] final  175.32 input   59.86 | X-H torsion
[ 10167 10162 10161 10158 ] final   73.35 input  -65.29 | X-H torsion
[ 10718 10713 10712 10709 ] final   55.84 input   66.30 | X-H torsion
[ 10763 10752 10751 10750 ] final   41.86 input  -60.55 | X-H torsion
[ 11005 11000 10999 10996 ] final   96.14 input  -57.11 | X-H torsion

> <Gold.Protein.ActiveResidues>
 VAL166  LYS551  ARG553  GLY616  TRP617  ASP618  TYR619  PRO620  LYS621  CYS622 
 ASP623  PHE694  ASN695  SER759  ASP760  ASP761  ALA762  ILE779  LEU786  VAL792 
 PHE793  MET794  SER795  GLU796  ALA797  LYS798  CYS799  TRP800  GLU811  SER814 

> <Gold.Protein.RotatedAtoms>
  151.2955  135.0754  159.9219 H   0  0  0  0  0  0  0  0  0  0  0  0  # atno 6907 bound_to 6896
  152.5308  133.9888  159.7851 H   0  0  0  0  0  0  0  0  0  0  0  0  # atno 6908 bound_to 6896
  151.0165  133.5865  159.2707 H   0  0  0  0  0  0  0  0  0  0  0  0  # atno 6909 bound_to 6896
  146.0327  140.6711  142.9125 H   0  0  0  0  0  0  0  0  0  0  0  0  # atno 7974 bound_to 7965
  156.0883  140.1412  156.9625 H   0  0  0  0  0  0  0  0  0  0  0  0  # atno 8008 bound_to 7997
  154.4626  140.0937  156.6982 H   0  0  0  0  0  0  0  0  0  0  0  0  # atno 8009 bound_to 7997
  155.4962  140.3449  155.4365 H   0  0  0  0  0  0  0  0  0  0  0  0  # atno 8010 bound_to 7997
  140.0254  144.5508  150.7549 H   0  0  0  0  0  0  0  0  0  0  0  0  # atno 10167 bound_to 10162
  157.5379  130.8676  149.8780 H   0  0  0  0  0  0  0  0  0  0  0  0  # atno 10718 bound_to 10713
  152.9897  135.6149  154.2856 H   0  0  0  0  0  0  0  0  0  0  0  0  # atno 10763 bound_to 10752
  154.2584  135.2783  155.2790 H   0  0  0  0  0  0  0  0  0  0  0  0  # atno 10764 bound_to 10752
  154.5227  135.5810  153.6751 H   0  0  0  0  0  0  0  0  0  0  0  0  # atno 10765 bound_to 10752
  139.8783  134.8935  156.4114 H   0  0  0  0  0  0  0  0  0  0  0  0  # atno 11005 bound_to 11000
  144.7037  140.3765  143.7135 LP  0  0  0  0  0  0  0  0  0  0  0  0  # atno 17320 bound_to 7965
  145.7014  139.1662  143.2590 LP  0  0  0  0  0  0  0  0  0  0  0  0  # atno 17321 bound_to 7965
  140.7325  143.2706  151.3901 LP  0  0  0  0  0  0  0  0  0  0  0  0  # atno 17342 bound_to 10162
  139.6112  144.1095  152.2300 LP  0  0  0  0  0  0  0  0  0  0  0  0  # atno 17343 bound_to 10162
  156.0473  130.3725  150.1285 LP  0  0  0  0  0  0  0  0  0  0  0  0  # atno 17370 bound_to 10713
  156.9467  130.9761  151.3506 LP  0  0  0  0  0  0  0  0  0  0  0  0  # atno 17371 bound_to 10713
  140.9198  133.7653  155.9892 LP  0  0  0  0  0  0  0  0  0  0  0  0  # atno 17394 bound_to 11000
  140.8453  134.3018  157.5297 LP  0  0  0  0  0  0  0  0  0  0  0  0  # atno 17395 bound_to 11000

$$$$
