AV-unprocessed.smi:16|AV-procd|sdf|88|dock10
  -GOLD-   2262015223D 1   1.00000     0.00000
 Structure written by MMmdl.
 60 64  0  0  0  0  0  0  0  0  2 V2000
  150.4083  135.8762  155.4752 C   0  0  0  0  0  0  0  0  0  0  0  0
  151.1825  137.2027  155.4801 C   0  0  0  0  0  0  0  0  0  0  0  0
  150.2967  138.3746  155.2660 N   0  3  2  0  0  0  0  0  0  0  0  0
  151.0541  139.6490  155.1672 C   0  0  0  0  0  0  0  0  0  0  0  0
  150.1263  140.8125  154.7830 C   0  0  0  0  0  0  0  0  0  0  0  0
  148.9499  140.9377  155.7748 C   0  0  1  0  0  0  0  0  0  0  0  0
  148.0418  141.9862  155.4301 O   0  0  0  0  0  0  0  0  0  0  0  0
  147.2608  141.7419  154.2616 C   0  0  0  0  0  0  0  0  0  0  0  0
  146.4925  140.4196  154.4037 C   0  0  0  0  0  0  0  0  0  0  0  0
  147.4117  139.3332  154.7192 N   0  0  0  0  0  0  0  0  0  0  0  0
  146.8204  138.1208  154.6575 C   0  0  0  0  0  0  0  0  0  0  0  0
  146.6846  137.3661  155.7788 N   0  0  0  0  0  0  0  0  0  0  0  0
  146.1300  136.1523  155.6977 C   0  0  0  0  0  0  0  0  0  0  0  0
  145.6690  135.5151  154.6181 N   0  0  0  0  0  0  0  0  0  0  0  0
  145.8105  136.2743  153.4933 C   0  0  0  0  0  0  0  0  0  0  0  0
  146.3628  137.5825  153.4286 C   0  0  0  0  0  0  0  0  0  0  0  0
  146.3375  138.0529  152.1228 N   0  0  0  0  0  0  0  0  0  0  0  0
  145.7893  137.0769  151.4505 C   0  0  0  0  0  0  0  0  0  0  0  0
  145.4774  135.9564  152.1886 N   0  0  0  0  0  0  0  0  0  0  0  0
  144.8521  134.7600  151.7076 C   0  0  0  0  0  0  0  0  0  0  0  0
  145.5564  133.4051  151.8088 C   0  0  0  0  0  0  0  0  0  0  0  0
  144.8755  132.9610  150.4941 C   0  0  0  0  0  0  0  0  0  0  0  0
  145.7689  132.1872  149.5111 C   0  0  0  0  0  0  0  0  0  0  0  0
  146.4797  131.1599  150.1714 O   0  0  0  0  0  0  0  0  0  0  0  0
  143.5404  132.2084  150.6648 C   0  0  0  0  0  0  0  0  0  0  0  0
  142.8651  132.0667  149.4314 O   0  0  0  0  0  0  0  0  0  0  0  0
  144.7450  134.4732  150.2083 C   0  0  0  0  0  0  0  0  0  0  0  0
  148.1999  139.5954  155.9273 C   0  0  1  0  0  0  0  0  0  0  0  0
  149.2111  138.4741  156.2772 C   0  0  0  0  0  0  0  0  0  0  0  0
  149.3670  141.2048  156.7465 H   0  0  0  0  0  0  0  0  0  0  0  0
  147.4988  139.6906  156.7580 H   0  0  0  0  0  0  0  0  0  0  0  0
  151.0886  135.0356  155.6121 H   0  0  0  0  0  0  0  0  0  0  0  0
  149.8938  135.7269  154.5263 H   0  0  0  0  0  0  0  0  0  0  0  0
  149.6656  135.8257  156.2710 H   0  0  0  0  0  0  0  0  0  0  0  0
  151.7411  137.3208  156.4098 H   0  0  0  0  0  0  0  0  0  0  0  0
  151.9238  137.1547  154.6813 H   0  0  0  0  0  0  0  0  0  0  0  0
  151.5499  139.8565  156.1169 H   0  0  0  0  0  0  0  0  0  0  0  0
  151.8368  139.5564  154.4134 H   0  0  0  0  0  0  0  0  0  0  0  0
  150.6899  141.7453  154.7552 H   0  0  0  0  0  0  0  0  0  0  0  0
  149.7673  140.6398  153.7688 H   0  0  0  0  0  0  0  0  0  0  0  0
  146.5596  142.5664  154.1327 H   0  0  0  0  0  0  0  0  0  0  0  0
  147.8888  141.7334  153.3711 H   0  0  0  0  0  0  0  0  0  0  0  0
  145.7459  140.5097  155.1944 H   0  0  0  0  0  0  0  0  0  0  0  0
  145.9565  140.2012  153.4788 H   0  0  0  0  0  0  0  0  0  0  0  0
  146.0494  135.6112  156.6292 H   0  0  0  0  0  0  0  0  0  0  0  0
  145.6095  137.1437  150.3872 H   0  0  0  0  0  0  0  0  0  0  0  0
  143.8697  134.7208  152.1811 H   0  0  0  0  0  0  0  0  0  0  0  0
  146.6409  133.4935  151.7207 H   0  0  0  0  0  0  0  0  0  0  0  0
  145.2858  132.8250  152.6917 H   0  0  0  0  0  0  0  0  0  0  0  0
  145.1706  131.7249  148.7254 H   0  0  0  0  0  0  0  0  0  0  0  0
  146.4787  132.8436  149.0072 H   0  0  0  0  0  0  0  0  0  0  0  0
  147.4025  131.3596  150.1319 H   0  0  0  0  0  0  0  0  0  0  0  0
  143.6996  131.2097  151.0714 H   0  0  0  0  0  0  0  0  0  0  0  0
  142.8819  132.7186  151.3681 H   0  0  0  0  0  0  0  0  0  0  0  0
  142.2376  132.7687  149.3504 H   0  0  0  0  0  0  0  0  0  0  0  0
  143.7994  134.7745  149.7563 H   0  0  0  0  0  0  0  0  0  0  0  0
  145.5913  134.8712  149.6449 H   0  0  0  0  0  0  0  0  0  0  0  0
  148.6998  137.5194  156.3922 H   0  0  0  0  0  0  0  0  0  0  0  0
  149.6581  138.6837  157.2504 H   0  0  0  0  0  0  0  0  0  0  0  0
  149.8553  138.2378  154.3674 H   0  0  0  0  0  0  0  0  0  0  0  0
  1  2  1  0  0  0  0
  1 32  1  0  0  0  0
  1 33  1  0  0  0  0
  1 34  1  0  0  0  0
  2  3  1  0  0  0  0
  2 35  1  0  0  0  0
  2 36  1  0  0  0  0
  3 29  1  0  0  0  0
  3  4  1  0  0  0  0
  3 60  1  0  0  0  0
  4  5  1  0  0  0  0
  4 37  1  0  0  0  0
  4 38  1  0  0  0  0
  5  6  1  0  0  0  0
  5 39  1  0  0  0  0
  5 40  1  0  0  0  0
  6 30  1  0  0  0  0
  6 28  1  0  0  0  0
  6  7  1  0  0  0  0
  7  8  1  0  0  0  0
  8  9  1  0  0  0  0
  8 41  1  0  0  0  0
  8 42  1  0  0  0  0
  9 10  1  0  0  0  0
  9 43  1  0  0  0  0
  9 44  1  0  0  0  0
 10 11  1  0  0  0  0
 10 28  1  0  0  0  0
 11 16  1  0  0  0  0
 11 12  2  0  0  0  0
 12 13  1  0  0  0  0
 13 14  2  0  0  0  0
 13 45  1  0  0  0  0
 14 15  1  0  0  0  0
 15 19  1  0  0  0  0
 15 16  2  0  0  0  0
 16 17  1  0  0  0  0
 17 18  2  0  0  0  0
 18 19  1  0  0  0  0
 18 46  1  0  0  0  0
 19 20  1  0  0  0  0
 20 27  1  0  0  0  0
 20 21  1  0  0  0  0
 20 47  1  0  0  0  0
 21 22  1  0  0  0  0
 21 48  1  0  0  0  0
 21 49  1  0  0  0  0
 22 23  1  0  0  0  0
 22 25  1  0  0  0  0
 22 27  1  0  0  0  0
 23 24  1  0  0  0  0
 23 50  1  0  0  0  0
 23 51  1  0  0  0  0
 24 52  1  0  0  0  0
 25 26  1  0  0  0  0
 25 53  1  0  0  0  0
 25 54  1  0  0  0  0
 26 55  1  0  0  0  0
 27 56  1  0  0  0  0
 27 57  1  0  0  0  0
 28 31  1  0  0  0  0
 28 29  1  0  0  0  0
 29 58  1  0  0  0  0
 29 59  1  0  0  0  0
M  CHG  1   3   1
M  END
> <s_m_source_file>
AV-unprocessed.smi

> <i_m_source_file_index>
16

> <i_lp_mmshare_version>
43012

> <i_f3d_flags>
0

> <s_epik_input>
W0NIM11bQ0gyXU4oW0NIMl1bQ0gyXTEpW0NIMl1bQ0BASF0oW0NAQEhdMTIpTihbQ0gyXVtDSDJdTzIpYyhuW2NIXW4zKWMoYzM0KW5bY0hdbjRbQ0hdKFtDSDJdNSlbQ0gyXUM1KFtDSDJdW09IXSlbQ0gyXVtPSF0=

> <s_epik_cmdline>
J2VwaWtfcHl0aG9uJywgJy1waCcsICc3LjAnLCAnLXRuJywgJzgnLCAnLW1hJywgJzIwMCcsICctbWV0YWxfYmluZGluZycsICctaW1hZScsICc8aW5maWxlLm1hZT4nLCAnLW9tYWUnLCAnPG91dGZpbGUubWFlPic=

> <r_lp_tautomer_probability>
1

> <r_epik_Ionization_Penalty>
0.0135603

> <r_epik_Ionization_Penalty_Charging>
0.0131385

> <r_epik_Ionization_Penalty_Neutral>
0.000421734

> <r_epik_State_Penalty>
0.0102091

> <r_epik_Charging_Adjusted_Penalty>
0.0233476

> <i_epik_Tot_Q>
1

> <i_epik_Tot_abs_Q>
1

> <r_epik_Metal_State_Penalty>
0.0103746

> <b_epik_Metal_Only>
0

> <s_lp_Force_Field>
OPLS_2005

> <r_lp_Energy>
60.5416

> <b_lp_Chiralities_Consistent>
1

> <s_lp_Variant>
AV-unprocessed.smi:16-2

> <Gold.Version>
5.8.1

> <Gold.Id.Protein>
6NUR|6NUR_protein|mol2

> <Gold.PLP.Fitness>
45.8073

> <Gold.PLP.PLP>
-36.4677

> <Gold.PLP.part.hbond>
-3.8054

> <Gold.PLP.part.metal>
0.0000

> <Gold.PLP.part.buried>
-2.7351

> <Gold.PLP.part.nonpolar>
-32.0865

> <Gold.PLP.part.repulsive>
2.2351

> <Gold.PLP.ligand.clash>
0.0000

> <Gold.PLP.ligand.torsion>
0.8970

> <Gold.PLP.Chemscore.Hbond>
2.8200

> <Gold.PLP.Chemscore.CHOScore>
0.6680

> <Gold.PLP.Chemscore.Metal>
0.0000

> <Gold.Chemscore.Hbonds>
donor molecule, donor type, donor heavy atom, donor atom, acceptor molecule, acceptor atom, score
      L1  H    24    52       P1 10747  0.99
      L1  H    26    55       P1 10186  0.93
      P1  H 10785 10796       L1    26  0.89
      L1  C    18    46       P1 10171  0.70

> <Gold.PLP.Chemscore.Internal.Correction>
0.6695

> <Gold.Rescore>
     Score         DG    S(hbond)    S(metal)    S(lipo)     H(rot)  DE(clash)    DE(int)     intcor
     11.43     -16.53       2.63        0.00      92.22       3.33       2.98       2.13       ----

> <Gold.Chemscore.Fitness>
11.4319

> <Gold.Chemscore.DG>
-16.5349

> <Gold.Chemscore.ZeroCoef>
-5.4800

> <Gold.Chemscore.Hbond>
2.6281

> <Gold.Chemscore.Metal>
0.0000

> <Gold.Chemscore.Lipo>
92.2155

> <Gold.Chemscore.Internal_Hbond>
0.0000

> <Gold.Chemscore.DEClash>
2.9779

> <Gold.Chemscore.DEInternal>
2.1251

> <Gold.Chemscore.Rot>
3.3251

> <Gold.Chemscore.Internal.Correction>
   9.000000E+99

> <Gold.Chemscore.Hbonds>
donor molecule, donor type, donor heavy atom, donor atom, acceptor molecule, acceptor atom, score
      L1  H    24    52       P1 10747  0.93
      L1  H    26    55       P1 10186  0.89
      P1  H 10785 10796       L1    26  0.57

> <Gold.Chemscore.Hbond.Weighted>
-8.7778

> <Gold.Chemscore.Metal.Weighted>
-0.0000

> <Gold.Chemscore.Lipo.Weighted>
-10.7892

> <Gold.Chemscore.Internal_Hbond.Weighted>
0.0000

> <Gold.Chemscore.DEClash.Weighted>
2.9779

> <Gold.Chemscore.DEInternal.Weighted>
2.1251

> <Gold.Chemscore.Rot.Weighted>
8.5122

> <Gold.Chemscore.Internal.Correction.Weighted>
   9.000000E+99

> <Gold.Protein.RotatedTorsions>
[ 6907 6896 6895 6894 ] final   51.65 input  -60.11 | X-H torsion
[ 7974 7965 7964 7962 ] final  156.82 input  175.53 | X-H torsion
[ 8008 7997 7996 7995 ] final -150.65 input   59.86 | X-H torsion
[ 10167 10162 10161 10158 ] final  -38.20 input  -65.29 | X-H torsion
[ 10718 10713 10712 10709 ] final   13.68 input   66.30 | X-H torsion
[ 10763 10752 10751 10750 ] final -147.55 input  -60.55 | X-H torsion
[ 11005 11000 10999 10996 ] final  141.20 input  -57.11 | X-H torsion

> <Gold.Protein.ActiveResidues>
 VAL166  LYS551  ARG553  GLY616  TRP617  ASP618  TYR619  PRO620  LYS621  CYS622 
 ASP623  PHE694  ASN695  SER759  ASP760  ASP761  ALA762  ILE779  LEU786  VAL792 
 PHE793  MET794  SER795  GLU796  ALA797  LYS798  CYS799  TRP800  GLU811  SER814 

> <Gold.Protein.RotatedAtoms>
  152.3149  134.7452  160.0327 H   0  0  0  0  0  0  0  0  0  0  0  0  # atno 6907 bound_to 6896
  151.7920  133.3355  159.3510 H   0  0  0  0  0  0  0  0  0  0  0  0  # atno 6908 bound_to 6896
  150.7339  134.5764  159.5961 H   0  0  0  0  0  0  0  0  0  0  0  0  # atno 6909 bound_to 6896
  144.7940  139.7256  143.6210 H   0  0  0  0  0  0  0  0  0  0  0  0  # atno 7974 bound_to 7965
  155.6270  140.0687  157.2661 H   0  0  0  0  0  0  0  0  0  0  0  0  # atno 8008 bound_to 7997
  154.4215  140.1774  156.1480 H   0  0  0  0  0  0  0  0  0  0  0  0  # atno 8009 bound_to 7997
  155.9964  140.3340  155.6806 H   0  0  0  0  0  0  0  0  0  0  0  0  # atno 8010 bound_to 7997
  140.7098  143.3292  151.2607 H   0  0  0  0  0  0  0  0  0  0  0  0  # atno 10167 bound_to 10162
  157.0281  130.6182  149.5731 H   0  0  0  0  0  0  0  0  0  0  0  0  # atno 10718 bound_to 10713
  154.8280  135.3357  154.6835 H   0  0  0  0  0  0  0  0  0  0  0  0  # atno 10763 bound_to 10752
  153.7459  135.6942  153.4961 H   0  0  0  0  0  0  0  0  0  0  0  0  # atno 10764 bound_to 10752
  153.2211  135.4448  155.0441 H   0  0  0  0  0  0  0  0  0  0  0  0  # atno 10765 bound_to 10752
  140.0384  134.9317  157.0796 H   0  0  0  0  0  0  0  0  0  0  0  0  # atno 11005 bound_to 11000
  146.2202  139.5621  142.9624 LP  0  0  0  0  0  0  0  0  0  0  0  0  # atno 17320 bound_to 7965
  145.5722  141.0393  143.2168 LP  0  0  0  0  0  0  0  0  0  0  0  0  # atno 17321 bound_to 7965
  139.6770  143.9921  152.2786 LP  0  0  0  0  0  0  0  0  0  0  0  0  # atno 17342 bound_to 10162
  139.9538  144.6603  150.8146 LP  0  0  0  0  0  0  0  0  0  0  0  0  # atno 17343 bound_to 10162
  156.0079  130.5167  150.7891 LP  0  0  0  0  0  0  0  0  0  0  0  0  # atno 17370 bound_to 10713
  157.5198  131.0931  151.0093 LP  0  0  0  0  0  0  0  0  0  0  0  0  # atno 17371 bound_to 10713
  140.4110  134.1982  155.7163 LP  0  0  0  0  0  0  0  0  0  0  0  0  # atno 17394 bound_to 11000
  141.1870  133.8291  157.1049 LP  0  0  0  0  0  0  0  0  0  0  0  0  # atno 17395 bound_to 11000

$$$$
