AV-unprocessed.smi:265|AV-procd|sdf|2021|dock10
  -GOLD-   2262021223D 1   1.00000     0.00000
 Structure written by MMmdl.
 52 56  0  0  0  0  0  0  0  0  1 V2000
  148.6029  132.3436  158.6633 C   0  0  0  0  0  0  0  0  0  0  0  0
  149.3601  131.1167  158.1286 C   0  0  2  0  0  0  0  0  0  0  0  0
  149.5566  130.2178  159.2188 O   0  0  0  0  0  0  0  0  0  0  0  0
  150.8208  129.5913  159.0894 C   0  0  0  0  0  0  0  0  0  0  0  0
  151.6896  130.7131  158.5457 C   0  0  0  0  0  0  0  0  0  0  0  0
  150.7682  131.3815  157.5264 C   0  0  2  0  0  0  0  0  0  0  0  0
  151.0887  132.7608  157.4688 O   0  0  0  0  0  0  0  0  0  0  0  0
  150.8795  130.7904  156.0950 C   0  0  0  0  0  0  0  0  0  0  0  0
  149.9044  131.3122  155.1484 N   0  0  0  0  0  0  0  0  0  0  0  0
  149.7688  132.6229  154.7488 C   0  0  0  0  0  0  0  0  0  0  0  0
  148.8213  132.8456  153.8800 N   0  0  0  0  0  0  0  0  0  0  0  0
  148.2660  131.5916  153.6540 C   0  0  0  0  0  0  0  0  0  0  0  0
  147.2133  131.1090  152.8260 C   0  0  0  0  0  0  0  0  0  0  0  0
  146.4722  131.9250  152.0339 N   0  0  0  0  0  0  0  0  0  0  0  0
  145.1227  131.4878  151.6779 C   0  0  0  0  0  0  0  0  0  0  0  0
  144.5911  132.2886  150.4795 C   0  0  0  0  0  0  0  0  0  0  0  0
  144.6790  133.8048  150.7195 C   0  0  1  0  0  0  0  0  0  0  0  0
  143.7668  134.1970  151.7371 O   0  0  0  0  0  0  0  0  0  0  0  0
  143.6537  135.6127  151.8946 C   0  0  0  0  0  0  0  0  0  0  0  0
  145.0268  136.3026  151.9966 C   0  0  0  0  0  0  0  0  0  0  0  0
  145.1044  137.4542  152.4182 O   0  0  0  0  0  0  0  0  0  0  0  0
  146.1075  135.6261  151.5755 N   0  0  0  0  0  0  0  0  0  0  0  0
  146.0938  134.2227  151.1760 C   0  0  1  0  0  0  0  0  0  0  0  0
  146.5932  133.3480  152.3440 C   0  0  0  0  0  0  0  0  0  0  0  0
  146.9627  129.7724  152.8497 N   0  0  0  0  0  0  0  0  0  0  0  0
  147.6837  128.9637  153.6317 C   0  0  0  0  0  0  0  0  0  0  0  0
  148.6858  129.2757  154.4556 N   0  0  0  0  0  0  0  0  0  0  0  0
  148.9453  130.6139  154.4349 C   0  0  0  0  0  0  0  0  0  0  0  0
  144.4136  134.3184  149.7933 H   0  0  0  0  0  0  0  0  0  0  0  0
  146.7811  134.1070  150.3370 H   0  0  0  0  0  0  0  0  0  0  0  0
  148.4023  133.0627  157.8686 H   0  0  0  0  0  0  0  0  0  0  0  0
  149.1701  132.8506  159.4447 H   0  0  0  0  0  0  0  0  0  0  0  0
  147.6436  132.0499  159.0897 H   0  0  0  0  0  0  0  0  0  0  0  0
  148.7283  130.6136  157.3950 H   0  0  0  0  0  0  0  0  0  0  0  0
  151.1775  129.2049  160.0442 H   0  0  0  0  0  0  0  0  0  0  0  0
  150.7551  128.7634  158.3819 H   0  0  0  0  0  0  0  0  0  0  0  0
  151.9175  131.4011  159.3618 H   0  0  0  0  0  0  0  0  0  0  0  0
  152.6394  130.3621  158.1456 H   0  0  0  0  0  0  0  0  0  0  0  0
  151.5194  132.9354  156.6460 H   0  0  0  0  0  0  0  0  0  0  0  0
  151.8727  130.9819  155.6867 H   0  0  0  0  0  0  0  0  0  0  0  0
  150.7738  129.7050  156.1289 H   0  0  0  0  0  0  0  0  0  0  0  0
  150.3964  133.4157  155.1297 H   0  0  0  0  0  0  0  0  0  0  0  0
  145.1234  130.4255  151.4292 H   0  0  0  0  0  0  0  0  0  0  0  0
  144.4628  131.6178  152.5367 H   0  0  0  0  0  0  0  0  0  0  0  0
  145.1761  132.0336  149.5950 H   0  0  0  0  0  0  0  0  0  0  0  0
  143.5623  132.0010  150.2615 H   0  0  0  0  0  0  0  0  0  0  0  0
  143.1115  136.0300  151.0453 H   0  0  0  0  0  0  0  0  0  0  0  0
  143.0671  135.8243  152.7888 H   0  0  0  0  0  0  0  0  0  0  0  0
  147.0041  136.0898  151.6069 H   0  0  0  0  0  0  0  0  0  0  0  0
  146.0058  133.5514  153.2409 H   0  0  0  0  0  0  0  0  0  0  0  0
  147.6213  133.6182  152.5832 H   0  0  0  0  0  0  0  0  0  0  0  0
  147.4201  127.9170  153.5915 H   0  0  0  0  0  0  0  0  0  0  0  0
  1  2  1  0  0  0  0
  1 31  1  0  0  0  0
  1 32  1  0  0  0  0
  1 33  1  0  0  0  0
  2  6  1  0  0  0  0
  2  3  1  0  0  0  0
  2 34  1  0  0  0  0
  3  4  1  0  0  0  0
  4  5  1  0  0  0  0
  4 35  1  0  0  0  0
  4 36  1  0  0  0  0
  5  6  1  0  0  0  0
  5 37  1  0  0  0  0
  5 38  1  0  0  0  0
  6  7  1  0  0  0  0
  6  8  1  0  0  0  0
  7 39  1  0  0  0  0
  8  9  1  0  0  0  0
  8 40  1  0  0  0  0
  8 41  1  0  0  0  0
  9 28  1  0  0  0  0
  9 10  1  0  0  0  0
 10 11  2  0  0  0  0
 10 42  1  0  0  0  0
 11 12  1  0  0  0  0
 12 28  2  0  0  0  0
 12 13  1  0  0  0  0
 13 14  1  0  0  0  0
 13 25  2  0  0  0  0
 14 24  1  0  0  0  0
 14 15  1  0  0  0  0
 15 16  1  0  0  0  0
 15 43  1  0  0  0  0
 15 44  1  0  0  0  0
 16 17  1  0  0  0  0
 16 45  1  0  0  0  0
 16 46  1  0  0  0  0
 17 29  1  0  0  0  0
 17 23  1  0  0  0  0
 17 18  1  0  0  0  0
 18 19  1  0  0  0  0
 19 20  1  0  0  0  0
 19 47  1  0  0  0  0
 19 48  1  0  0  0  0
 20 21  2  0  0  0  0
 20 22  1  0  0  0  0
 22 23  1  0  0  0  0
 22 49  1  0  0  0  0
 23 30  1  0  0  0  0
 23 24  1  0  0  0  0
 24 50  1  0  0  0  0
 24 51  1  0  0  0  0
 25 26  1  0  0  0  0
 26 27  2  0  0  0  0
 26 52  1  0  0  0  0
 27 28  1  0  0  0  0
M  END
> <s_m_source_file>
AV-unprocessed.smi

> <i_m_source_file_index>
265

> <i_lp_mmshare_version>
43012

> <i_f3d_flags>
0

> <s_epik_input>
W0NIMl0xW0NIMl1PW0NAQEhdKFtDSDNdKVtDQEBdMShbT0hdKVtDSDJdbihbY0hdbjIpYyhjMjMpbltjSF1uYzNOKFtDSDJdW0NIMl00KVtDSDJdW0NAQEhdKFtDQEhdNDUpW05IXUMoPU8pW0NIMl1PNQ==

> <s_epik_cmdline>
J2VwaWtfcHl0aG9uJywgJy1waCcsICc3LjAnLCAnLXRuJywgJzgnLCAnLW1hJywgJzIwMCcsICctbWV0YWxfYmluZGluZycsICctaW1hZScsICc8aW5maWxlLm1hZT4nLCAnLW9tYWUnLCAnPG91dGZpbGUubWFlPic=

> <r_lp_tautomer_probability>
1

> <r_epik_Ionization_Penalty>
0.00221504

> <r_epik_Ionization_Penalty_Charging>
0

> <r_epik_Ionization_Penalty_Neutral>
0.00221504

> <r_epik_State_Penalty>
-0

> <r_epik_Charging_Adjusted_Penalty>
0

> <i_epik_Tot_Q>
0

> <i_epik_Tot_abs_Q>
0

> <r_epik_Metal_State_Penalty>
-0

> <b_epik_Metal_Only>
0

> <s_lp_Force_Field>
OPLS_2005

> <r_lp_Energy>
45.2978

> <b_lp_Chiralities_Consistent>
1

> <s_lp_Variant>
AV-unprocessed.smi:265-7

> <Gold.Version>
5.8.1

> <Gold.Id.Protein>
6NUR|6NUR_protein|mol2

> <Gold.PLP.Fitness>
40.2647

> <Gold.PLP.PLP>
-35.0114

> <Gold.PLP.part.hbond>
-2.0000

> <Gold.PLP.part.metal>
0.0000

> <Gold.PLP.part.buried>
-7.2847

> <Gold.PLP.part.nonpolar>
-27.6237

> <Gold.PLP.part.repulsive>
1.3083

> <Gold.PLP.ligand.clash>
0.0000

> <Gold.PLP.ligand.torsion>
0.5622

> <Gold.PLP.Chemscore.Hbond>
2.0000

> <Gold.PLP.Chemscore.CHOScore>
0.0000

> <Gold.PLP.Chemscore.Metal>
0.0000

> <Gold.Chemscore.Hbonds>
donor molecule, donor type, donor heavy atom, donor atom, acceptor molecule, acceptor atom, score
      L1  H    22    49       P1  7948  1.00
      P1  H  6896  6907       L1     7  1.00

> <Gold.PLP.Chemscore.Internal.Correction>
0.3777

> <Gold.Rescore>
     Score         DG    S(hbond)    S(metal)    S(lipo)     H(rot)  DE(clash)    DE(int)     intcor
     11.15     -13.22       1.99        0.00      58.35       2.25       0.00       2.07       ----

> <Gold.Chemscore.Fitness>
11.1475

> <Gold.Chemscore.DG>
-13.2151

> <Gold.Chemscore.ZeroCoef>
-5.4800

> <Gold.Chemscore.Hbond>
1.9928

> <Gold.Chemscore.Metal>
0.0000

> <Gold.Chemscore.Lipo>
58.3519

> <Gold.Chemscore.Internal_Hbond>
0.0000

> <Gold.Chemscore.DEClash>
0.0000

> <Gold.Chemscore.DEInternal>
2.0675

> <Gold.Chemscore.Rot>
2.2453

> <Gold.Chemscore.Internal.Correction>
   9.000000E+99

> <Gold.Chemscore.Hbonds>
donor molecule, donor type, donor heavy atom, donor atom, acceptor molecule, acceptor atom, score
      L1  H    22    49       P1  7948  0.98
      P1  H  6896  6907       L1     7  0.64

> <Gold.Chemscore.Hbond.Weighted>
-6.6558

> <Gold.Chemscore.Metal.Weighted>
-0.0000

> <Gold.Chemscore.Lipo.Weighted>
-6.8272

> <Gold.Chemscore.Internal_Hbond.Weighted>
0.0000

> <Gold.Chemscore.DEClash.Weighted>
0.0000

> <Gold.Chemscore.DEInternal.Weighted>
2.0675

> <Gold.Chemscore.Rot.Weighted>
5.7479

> <Gold.Chemscore.Internal.Correction.Weighted>
   9.000000E+99

> <Gold.Protein.RotatedTorsions>
[ 6907 6896 6895 6894 ] final -160.09 input  -60.11 | X-H torsion
[ 7974 7965 7964 7962 ] final  -61.25 input  175.53 | X-H torsion
[ 8008 7997 7996 7995 ] final   90.98 input   59.86 | X-H torsion
[ 10167 10162 10161 10158 ] final  -52.25 input  -65.29 | X-H torsion
[ 10718 10713 10712 10709 ] final  116.64 input   66.30 | X-H torsion
[ 10763 10752 10751 10750 ] final  -18.29 input  -60.55 | X-H torsion
[ 11005 11000 10999 10996 ] final  129.13 input  -57.11 | X-H torsion

> <Gold.Protein.ActiveResidues>
 VAL166  LYS551  ARG553  GLY616  TRP617  ASP618  TYR619  PRO620  LYS621  CYS622 
 ASP623  PHE694  ASN695  SER759  ASP760  ASP761  ALA762  ILE779  LEU786  VAL792 
 PHE793  MET794  SER795  GLU796  ALA797  LYS798  CYS799  TRP800  GLU811  SER814 

> <Gold.Protein.RotatedAtoms>
  151.3438  133.3952  159.2673 H   0  0  0  0  0  0  0  0  0  0  0  0  # atno 6907 bound_to 6896
  150.9857  134.9203  159.7880 H   0  0  0  0  0  0  0  0  0  0  0  0  # atno 6908 bound_to 6896
  152.5231  134.3402  159.9266 H   0  0  0  0  0  0  0  0  0  0  0  0  # atno 6909 bound_to 6896
  145.8058  140.8628  143.0208 H   0  0  0  0  0  0  0  0  0  0  0  0  # atno 7974 bound_to 7965
  156.0183  140.3343  155.7012 H   0  0  0  0  0  0  0  0  0  0  0  0  # atno 8008 bound_to 7997
  155.6059  140.0660  157.2738 H   0  0  0  0  0  0  0  0  0  0  0  0  # atno 8009 bound_to 7997
  154.4306  140.1802  156.1209 H   0  0  0  0  0  0  0  0  0  0  0  0  # atno 8010 bound_to 7997
  140.6547  143.2590  151.4621 H   0  0  0  0  0  0  0  0  0  0  0  0  # atno 10167 bound_to 10162
  157.6148  131.1028  150.7501 H   0  0  0  0  0  0  0  0  0  0  0  0  # atno 10718 bound_to 10713
  153.5869  135.7003  153.5439 H   0  0  0  0  0  0  0  0  0  0  0  0  # atno 10763 bound_to 10752
  153.3212  135.4073  155.1418 H   0  0  0  0  0  0  0  0  0  0  0  0  # atno 10764 bound_to 10752
  154.8607  135.3696  154.5399 H   0  0  0  0  0  0  0  0  0  0  0  0  # atno 10765 bound_to 10752
  139.9598  134.9605  156.9103 H   0  0  0  0  0  0  0  0  0  0  0  0  # atno 11005 bound_to 11000
  144.6763  140.0324  143.7482 LP  0  0  0  0  0  0  0  0  0  0  0  0  # atno 17320 bound_to 7965
  145.9830  139.2955  143.1030 LP  0  0  0  0  0  0  0  0  0  0  0  0  # atno 17321 bound_to 7965
  139.5767  144.1802  152.1913 LP  0  0  0  0  0  0  0  0  0  0  0  0  # atno 17342 bound_to 10162
  140.1115  144.5453  150.6922 LP  0  0  0  0  0  0  0  0  0  0  0  0  # atno 17343 bound_to 10162
  156.7871  130.4878  149.5391 LP  0  0  0  0  0  0  0  0  0  0  0  0  # atno 17370 bound_to 10713
  156.1265  130.6147  151.0271 LP  0  0  0  0  0  0  0  0  0  0  0  0  # atno 17371 bound_to 10713
  140.5525  134.0613  155.7373 LP  0  0  0  0  0  0  0  0  0  0  0  0  # atno 17394 bound_to 11000
  141.1274  133.9359  157.2606 LP  0  0  0  0  0  0  0  0  0  0  0  0  # atno 17395 bound_to 11000

$$$$
