AV-unprocessed.smi:234|AV-procd|sdf|1795|dock10
  -GOLD-   2262020363D 1   1.00000     0.00000
 Structure written by MMmdl.
 59 62  0  0  0  0  0  0  0  0  1 V2000
  153.4561  141.9839  160.9631 C   0  0  0  0  0  0  0  0  0  0  0  0
  152.5013  142.5210  159.8891 C   0  0  0  0  0  0  0  0  0  0  0  0
  151.9777  141.4902  159.0621 O   0  0  0  0  0  0  0  0  0  0  0  0
  151.1818  141.9403  157.9731 C   0  0  2  0  0  0  0  0  0  0  0  0
  149.7357  142.3011  158.3256 C   0  0  0  0  0  0  0  0  0  0  0  0
  149.3681  141.6653  156.9829 C   0  0  2  0  0  0  0  0  0  0  0  0
  148.0889  140.9518  157.0031 N   0  0  0  0  0  0  0  0  0  0  0  0
  147.0071  141.5792  157.7510 C   0  0  0  0  0  0  0  0  0  0  0  0
  147.6449  140.5123  155.8025 C   0  0  0  0  0  0  0  0  0  0  0  0
  148.1526  141.0294  154.6521 N   0  0  0  0  0  0  0  0  0  0  0  0
  147.7182  140.5824  153.4702 C   0  0  0  0  0  0  0  0  0  0  0  0
  146.8017  139.6454  153.2176 N   0  0  0  0  0  0  0  0  0  0  0  0
  146.2844  139.1334  154.3715 C   0  0  0  0  0  0  0  0  0  0  0  0
  146.6396  139.5159  155.6944 C   0  0  0  0  0  0  0  0  0  0  0  0
  145.9042  138.7851  156.6182 N   0  0  0  0  0  0  0  0  0  0  0  0
  145.1590  138.0069  155.8817 C   0  0  0  0  0  0  0  0  0  0  0  0
  145.3348  138.1378  154.5218 N   0  0  0  0  0  0  0  0  0  0  0  0
  144.6583  137.3815  153.4795 C   0  0  0  0  0  0  0  0  0  0  0  0
  145.5953  136.4117  152.7179 C   0  0  1  0  0  0  0  0  0  0  0  0
  146.4210  137.1772  151.8560 O   0  0  0  0  0  0  0  0  0  0  0  0
  146.5012  135.6197  153.6667 C   0  0  0  0  0  0  0  0  0  0  0  0
  146.0080  134.1832  153.5390 C   0  0  0  0  0  0  0  0  0  0  0  0
  145.5692  134.1159  152.1944 O   0  0  0  0  0  0  0  0  0  0  0  0
  144.8371  135.3050  151.9385 C   0  0  2  0  0  0  0  0  0  0  0  0
  144.6497  135.5107  150.4258 C   0  0  0  0  0  0  0  0  0  0  0  0
  150.6365  140.7719  157.1122 C   0  0  0  0  0  0  0  0  0  0  0  0
  151.4102  140.4990  155.8220 C   0  0  0  0  0  0  0  0  0  0  0  0
  150.4911  139.4234  157.8429 C   0  0  0  0  0  0  0  0  0  0  0  0
  153.9378  142.8053  161.4934 H   0  0  0  0  0  0  0  0  0  0  0  0
  154.2398  141.3699  160.5186 H   0  0  0  0  0  0  0  0  0  0  0  0
  152.9339  141.3824  161.7055 H   0  0  0  0  0  0  0  0  0  0  0  0
  151.6988  143.1095  160.3358 H   0  0  0  0  0  0  0  0  0  0  0  0
  153.0553  143.2009  159.2415 H   0  0  0  0  0  0  0  0  0  0  0  0
  151.6718  142.7007  157.3599 H   0  0  0  0  0  0  0  0  0  0  0  0
  149.3535  141.7627  159.1946 H   0  0  0  0  0  0  0  0  0  0  0  0
  149.5310  143.3699  158.3867 H   0  0  0  0  0  0  0  0  0  0  0  0
  149.4543  142.3902  156.1704 H   0  0  0  0  0  0  0  0  0  0  0  0
  146.7628  142.5544  157.3283 H   0  0  0  0  0  0  0  0  0  0  0  0
  147.2942  141.7221  158.7926 H   0  0  0  0  0  0  0  0  0  0  0  0
  146.1059  140.9646  157.7395 H   0  0  0  0  0  0  0  0  0  0  0  0
  148.1726  141.0383  152.6030 H   0  0  0  0  0  0  0  0  0  0  0  0
  144.4658  137.2997  156.3136 H   0  0  0  0  0  0  0  0  0  0  0  0
  143.8326  136.8337  153.9357 H   0  0  0  0  0  0  0  0  0  0  0  0
  144.2061  138.0888  152.7831 H   0  0  0  0  0  0  0  0  0  0  0  0
  147.2048  136.6804  151.6771 H   0  0  0  0  0  0  0  0  0  0  0  0
  147.5438  135.6656  153.3472 H   0  0  0  0  0  0  0  0  0  0  0  0
  146.4640  135.9725  154.6979 H   0  0  0  0  0  0  0  0  0  0  0  0
  146.7869  133.4495  153.7474 H   0  0  0  0  0  0  0  0  0  0  0  0
  145.1680  133.9971  154.2102 H   0  0  0  0  0  0  0  0  0  0  0  0
  143.8559  135.1550  152.3905 H   0  0  0  0  0  0  0  0  0  0  0  0
  144.1044  136.4310  150.2155 H   0  0  0  0  0  0  0  0  0  0  0  0
  144.0820  134.6869  149.9935 H   0  0  0  0  0  0  0  0  0  0  0  0
  145.6057  135.5575  149.9042 H   0  0  0  0  0  0  0  0  0  0  0  0
  150.9314  139.7272  155.2186 H   0  0  0  0  0  0  0  0  0  0  0  0
  152.4272  140.1668  156.0319 H   0  0  0  0  0  0  0  0  0  0  0  0
  151.4822  141.3933  155.2027 H   0  0  0  0  0  0  0  0  0  0  0  0
  150.0103  138.6722  157.2164 H   0  0  0  0  0  0  0  0  0  0  0  0
  149.8975  139.5090  158.7531 H   0  0  0  0  0  0  0  0  0  0  0  0
  151.4627  139.0215  158.1314 H   0  0  0  0  0  0  0  0  0  0  0  0
  1  2  1  0  0  0  0
  1 29  1  0  0  0  0
  1 30  1  0  0  0  0
  1 31  1  0  0  0  0
  2  3  1  0  0  0  0
  2 32  1  0  0  0  0
  2 33  1  0  0  0  0
  3  4  1  0  0  0  0
  4 26  1  0  0  0  0
  4  5  1  0  0  0  0
  4 34  1  0  0  0  0
  5  6  1  0  0  0  0
  5 35  1  0  0  0  0
  5 36  1  0  0  0  0
  6  7  1  0  0  0  0
  6 26  1  0  0  0  0
  6 37  1  0  0  0  0
  7  8  1  0  0  0  0
  7  9  1  0  0  0  0
  8 38  1  0  0  0  0
  8 39  1  0  0  0  0
  8 40  1  0  0  0  0
  9 14  1  0  0  0  0
  9 10  2  0  0  0  0
 10 11  1  0  0  0  0
 11 12  2  0  0  0  0
 11 41  1  0  0  0  0
 12 13  1  0  0  0  0
 13 17  1  0  0  0  0
 13 14  2  0  0  0  0
 14 15  1  0  0  0  0
 15 16  2  0  0  0  0
 16 17  1  0  0  0  0
 16 42  1  0  0  0  0
 17 18  1  0  0  0  0
 18 19  1  0  0  0  0
 18 43  1  0  0  0  0
 18 44  1  0  0  0  0
 19 24  1  0  0  0  0
 19 20  1  0  0  0  0
 19 21  1  0  0  0  0
 20 45  1  0  0  0  0
 21 22  1  0  0  0  0
 21 46  1  0  0  0  0
 21 47  1  0  0  0  0
 22 23  1  0  0  0  0
 22 48  1  0  0  0  0
 22 49  1  0  0  0  0
 23 24  1  0  0  0  0
 24 25  1  0  0  0  0
 24 50  1  0  0  0  0
 25 51  1  0  0  0  0
 25 52  1  0  0  0  0
 25 53  1  0  0  0  0
 26 27  1  0  0  0  0
 26 28  1  0  0  0  0
 27 54  1  0  0  0  0
 27 55  1  0  0  0  0
 27 56  1  0  0  0  0
 28 57  1  0  0  0  0
 28 58  1  0  0  0  0
 28 59  1  0  0  0  0
M  END
> <s_m_source_file>
AV-unprocessed.smi

> <i_m_source_file_index>
234

> <i_lp_mmshare_version>
43012

> <i_f3d_flags>
0

> <s_epik_input>
W0NIM11bQ0gyXU9bQ0BASF0oQzEoW0NIM10pW0NIM10pW0NIMl1bQ0BIXTFOKFtDSDNdKWMobltjSF1uMiljKGMyMyluW2NIXW4zW0NIMl1bQ0BAXTQoW09IXSlbQ0gyXVtDSDJdT1tDQEhdNFtDSDNd

> <s_epik_cmdline>
J2VwaWtfcHl0aG9uJywgJy1waCcsICc3LjAnLCAnLXRuJywgJzgnLCAnLW1hJywgJzIwMCcsICctbWV0YWxfYmluZGluZycsICctaW1hZScsICc8aW5maWxlLm1hZT4nLCAnLW9tYWUnLCAnPG91dGZpbGUubWFlPic=

> <r_lp_tautomer_probability>
1

> <r_epik_Ionization_Penalty>
0.00349132

> <r_epik_Ionization_Penalty_Charging>
0

> <r_epik_Ionization_Penalty_Neutral>
0.00349132

> <r_epik_State_Penalty>
0.00242418

> <r_epik_Charging_Adjusted_Penalty>
0.00242418

> <i_epik_Tot_Q>
0

> <i_epik_Tot_abs_Q>
0

> <r_epik_Metal_State_Penalty>
-0

> <b_epik_Metal_Only>
0

> <s_lp_Force_Field>
OPLS_2005

> <r_lp_Energy>
47.8509

> <b_lp_Chiralities_Consistent>
1

> <s_lp_Variant>
AV-unprocessed.smi:234-11

> <Gold.Version>
5.8.1

> <Gold.Id.Protein>
6NUR|6NUR_protein|mol2

> <Gold.PLP.Fitness>
37.5002

> <Gold.PLP.PLP>
-33.1589

> <Gold.PLP.part.hbond>
-1.0000

> <Gold.PLP.part.metal>
0.0000

> <Gold.PLP.part.buried>
-4.7537

> <Gold.PLP.part.nonpolar>
-28.1827

> <Gold.PLP.part.repulsive>
0.4856

> <Gold.PLP.ligand.clash>
0.0000

> <Gold.PLP.ligand.torsion>
1.1565

> <Gold.PLP.Chemscore.Hbond>
1.0000

> <Gold.PLP.Chemscore.CHOScore>
1.0000

> <Gold.PLP.Chemscore.Metal>
0.0000

> <Gold.Chemscore.Hbonds>
donor molecule, donor type, donor heavy atom, donor atom, acceptor molecule, acceptor atom, score
      L1  H    20    45       P1  7948  1.00
      L1  C    11    41       P1  7957  0.94

> <Gold.PLP.Chemscore.Internal.Correction>
0.6543

> <Gold.Rescore>
     Score         DG    S(hbond)    S(metal)    S(lipo)     H(rot)  DE(clash)    DE(int)     intcor
     10.15     -11.16       0.99        0.00      77.53       2.62       0.09       0.93       ----

> <Gold.Chemscore.Fitness>
10.1479

> <Gold.Chemscore.DG>
-11.1616

> <Gold.Chemscore.ZeroCoef>
-5.4800

> <Gold.Chemscore.Hbond>
0.9947

> <Gold.Chemscore.Metal>
0.0000

> <Gold.Chemscore.Lipo>
77.5329

> <Gold.Chemscore.Internal_Hbond>
0.0000

> <Gold.Chemscore.DEClash>
0.0866

> <Gold.Chemscore.DEInternal>
0.9271

> <Gold.Chemscore.Rot>
2.6219

> <Gold.Chemscore.Internal.Correction>
   9.000000E+99

> <Gold.Chemscore.Hbonds>
donor molecule, donor type, donor heavy atom, donor atom, acceptor molecule, acceptor atom, score
      L1  H    20    45       P1  7948  0.99

> <Gold.Chemscore.Hbond.Weighted>
-3.3224

> <Gold.Chemscore.Metal.Weighted>
-0.0000

> <Gold.Chemscore.Lipo.Weighted>
-9.0714

> <Gold.Chemscore.Internal_Hbond.Weighted>
0.0000

> <Gold.Chemscore.DEClash.Weighted>
0.0866

> <Gold.Chemscore.DEInternal.Weighted>
0.9271

> <Gold.Chemscore.Rot.Weighted>
6.7121

> <Gold.Chemscore.Internal.Correction.Weighted>
   9.000000E+99

> <Gold.Protein.RotatedTorsions>
[ 6907 6896 6895 6894 ] final  120.23 input  -60.11 | X-H torsion
[ 7974 7965 7964 7962 ] final   76.78 input  175.53 | X-H torsion
[ 8008 7997 7996 7995 ] final  130.05 input   59.86 | X-H torsion
[ 10167 10162 10161 10158 ] final -176.09 input  -65.29 | X-H torsion
[ 10718 10713 10712 10709 ] final  -72.21 input   66.30 | X-H torsion
[ 10763 10752 10751 10750 ] final -177.31 input  -60.55 | X-H torsion
[ 11005 11000 10999 10996 ] final   91.00 input  -57.11 | X-H torsion

> <Gold.Protein.ActiveResidues>
 VAL166  LYS551  ARG553  GLY616  TRP617  ASP618  TYR619  PRO620  LYS621  CYS622 
 ASP623  PHE694  ASN695  SER759  ASP760  ASP761  ALA762  ILE779  LEU786  VAL792 
 PHE793  MET794  SER795  GLU796  ALA797  LYS798  CYS799  TRP800  GLU811  SER814 

> <Gold.Protein.RotatedAtoms>
  152.4413  133.7453  159.6663 H   0  0  0  0  0  0  0  0  0  0  0  0  # atno 6907 bound_to 6896
  150.8304  133.8090  159.3107 H   0  0  0  0  0  0  0  0  0  0  0  0  # atno 6908 bound_to 6896
  151.5745  135.1063  160.0054 H   0  0  0  0  0  0  0  0  0  0  0  0  # atno 6909 bound_to 6896
  145.6985  139.2575  143.1719 H   0  0  0  0  0  0  0  0  0  0  0  0  # atno 7974 bound_to 7965
  156.2947  140.2605  156.2698 H   0  0  0  0  0  0  0  0  0  0  0  0  # atno 8008 bound_to 7997
  154.9706  140.0391  157.2251 H   0  0  0  0  0  0  0  0  0  0  0  0  # atno 8009 bound_to 7997
  154.7862  140.2804  155.6030 H   0  0  0  0  0  0  0  0  0  0  0  0  # atno 8010 bound_to 7997
  139.5547  144.2018  152.1139 H   0  0  0  0  0  0  0  0  0  0  0  0  # atno 10167 bound_to 10162
  156.0330  130.4367  150.2558 H   0  0  0  0  0  0  0  0  0  0  0  0  # atno 10718 bound_to 10713
  154.5617  135.2820  155.0913 H   0  0  0  0  0  0  0  0  0  0  0  0  # atno 10763 bound_to 10752
  154.2319  135.6372  153.5182 H   0  0  0  0  0  0  0  0  0  0  0  0  # atno 10764 bound_to 10752
  153.0031  135.5539  154.6213 H   0  0  0  0  0  0  0  0  0  0  0  0  # atno 10765 bound_to 10752
  139.8846  134.8647  156.3365 H   0  0  0  0  0  0  0  0  0  0  0  0  # atno 11005 bound_to 11000
  146.0819  140.7755  142.9637 LP  0  0  0  0  0  0  0  0  0  0  0  0  # atno 17320 bound_to 7965
  144.6975  140.3502  143.7183 LP  0  0  0  0  0  0  0  0  0  0  0  0  # atno 17321 bound_to 7965
  140.1520  144.5105  150.6682 LP  0  0  0  0  0  0  0  0  0  0  0  0  # atno 17342 bound_to 10162
  140.6818  143.2330  151.5365 LP  0  0  0  0  0  0  0  0  0  0  0  0  # atno 17343 bound_to 10162
  157.0659  131.0103  151.3206 LP  0  0  0  0  0  0  0  0  0  0  0  0  # atno 17370 bound_to 10713
  157.5035  130.7895  149.7630 LP  0  0  0  0  0  0  0  0  0  0  0  0  # atno 17371 bound_to 10713
  140.9688  133.7341  156.0504 LP  0  0  0  0  0  0  0  0  0  0  0  0  # atno 17394 bound_to 11000
  140.7897  134.3631  157.5467 LP  0  0  0  0  0  0  0  0  0  0  0  0  # atno 17395 bound_to 11000

$$$$
