AV-unprocessed.smi:312|AV-procd|sdf|2307|dock1
  -GOLD-   2262022203D 1   1.00000     0.00000
 Structure written by MMmdl.
 35 36  0  0  0  0  0  0  0  0  1 V2000
  151.1133  139.8076  156.3331 C   0  0  0  0  0  0  0  0  0  0  0  0
  150.4901  141.1861  156.5967 C   0  0  2  0  0  0  0  0  0  0  0  0
  150.1363  141.9118  155.2849 C   0  0  0  0  0  0  0  0  0  0  0  0
  149.0279  141.2809  154.5917 N   0  0  0  0  0  0  0  0  0  0  0  0
  147.8686  141.8933  154.1340 C   0  0  0  0  0  0  0  0  0  0  0  0
  147.1142  140.9093  153.5358 C   0  0  0  0  0  0  0  0  0  0  0  0
  147.7846  139.6907  153.6156 N   0  0  0  0  0  0  0  0  0  0  0  0
  148.9082  139.9893  154.2546 C   0  0  0  0  0  0  0  0  0  0  0  0
  151.4123  142.0007  157.3852 N   0  0  0  0  0  0  0  0  0  0  0  0
  151.7736  141.7646  158.6556 C   0  0  0  0  0  0  0  0  0  0  0  0
  151.3822  140.7908  159.3002 O   0  0  0  0  0  0  0  0  0  0  0  0
  152.7187  142.7947  159.2956 C   0  0  0  0  0  0  0  0  0  0  0  0
  153.0085  142.4763  160.7811 C   0  0  0  0  0  0  0  0  0  0  0  0
  152.4734  143.6546  161.6060 C   0  0  0  0  0  0  0  0  0  0  0  0
  151.4953  144.3835  160.6887 C   0  0  0  0  0  0  0  0  0  0  0  0
  152.0987  144.2046  159.2967 C   0  0  0  0  0  0  0  0  0  0  0  0
  150.4355  139.1743  155.7604 H   0  0  0  0  0  0  0  0  0  0  0  0
  151.3337  139.2904  157.2677 H   0  0  0  0  0  0  0  0  0  0  0  0
  152.0441  139.8929  155.7714 H   0  0  0  0  0  0  0  0  0  0  0  0
  149.5637  141.0339  157.1539 H   0  0  0  0  0  0  0  0  0  0  0  0
  149.8861  142.9566  155.4761 H   0  0  0  0  0  0  0  0  0  0  0  0
  150.9949  141.9134  154.6122 H   0  0  0  0  0  0  0  0  0  0  0  0
  147.6835  142.9493  154.2653 H   0  0  0  0  0  0  0  0  0  0  0  0
  146.1485  140.9839  153.0582 H   0  0  0  0  0  0  0  0  0  0  0  0
  149.6648  139.2515  154.4783 H   0  0  0  0  0  0  0  0  0  0  0  0
  151.7876  142.8234  156.9359 H   0  0  0  0  0  0  0  0  0  0  0  0
  153.6530  142.8142  158.7317 H   0  0  0  0  0  0  0  0  0  0  0  0
  152.5257  141.5513  161.1016 H   0  0  0  0  0  0  0  0  0  0  0  0
  154.0770  142.3427  160.9532 H   0  0  0  0  0  0  0  0  0  0  0  0
  152.0089  143.3349  162.5392 H   0  0  0  0  0  0  0  0  0  0  0  0
  153.2967  144.3232  161.8610 H   0  0  0  0  0  0  0  0  0  0  0  0
  150.5162  143.9049  160.7346 H   0  0  0  0  0  0  0  0  0  0  0  0
  151.3674  145.4319  160.9592 H   0  0  0  0  0  0  0  0  0  0  0  0
  152.8838  144.9455  159.1404 H   0  0  0  0  0  0  0  0  0  0  0  0
  151.3573  144.3553  158.5102 H   0  0  0  0  0  0  0  0  0  0  0  0
  1  2  1  0  0  0  0
  1 17  1  0  0  0  0
  1 18  1  0  0  0  0
  1 19  1  0  0  0  0
  2  3  1  0  0  0  0
  2  9  1  0  0  0  0
  2 20  1  0  0  0  0
  3  4  1  0  0  0  0
  3 21  1  0  0  0  0
  3 22  1  0  0  0  0
  4  8  1  0  0  0  0
  4  5  1  0  0  0  0
  5  6  2  0  0  0  0
  5 23  1  0  0  0  0
  6  7  1  0  0  0  0
  6 24  1  0  0  0  0
  7  8  2  0  0  0  0
  8 25  1  0  0  0  0
  9 10  1  0  0  0  0
  9 26  1  0  0  0  0
 10 11  2  0  0  0  0
 10 12  1  0  0  0  0
 12 16  1  0  0  0  0
 12 13  1  0  0  0  0
 12 27  1  0  0  0  0
 13 14  1  0  0  0  0
 13 28  1  0  0  0  0
 13 29  1  0  0  0  0
 14 15  1  0  0  0  0
 14 30  1  0  0  0  0
 14 31  1  0  0  0  0
 15 16  1  0  0  0  0
 15 32  1  0  0  0  0
 15 33  1  0  0  0  0
 16 34  1  0  0  0  0
 16 35  1  0  0  0  0
M  END
> <s_m_source_file>
AV-unprocessed.smi

> <i_m_source_file_index>
312

> <i_lp_mmshare_version>
43012

> <i_f3d_flags>
0

> <s_epik_input>
W2NIXTFuW2NIXVtjSF1uMVtDSDJdW0NAQEhdKFtDSDNdKVtOSF1DKD1PKVtDSF0yW0NIMl1bQ0gyXVtDSDJdW0NIMl0y

> <s_epik_cmdline>
J2VwaWtfcHl0aG9uJywgJy1waCcsICc3LjAnLCAnLXRuJywgJzgnLCAnLW1hJywgJzIwMCcsICctbWV0YWxfYmluZGluZycsICctaW1hZScsICc8aW5maWxlLm1hZT4nLCAnLW9tYWUnLCAnPG91dGZpbGUubWFlPic=

> <r_lp_tautomer_probability>
1

> <r_epik_Ionization_Penalty>
0.642614

> <r_epik_Ionization_Penalty_Charging>
0.642614

> <r_epik_Ionization_Penalty_Neutral>
3.44135e-08

> <r_epik_State_Penalty>
0.660429

> <r_epik_Charging_Adjusted_Penalty>
1.30304

> <i_epik_Tot_Q>
0

> <i_epik_Tot_abs_Q>
0

> <r_epik_Metal_State_Penalty>
0.31224

> <b_epik_Metal_Only>
0

> <s_lp_Force_Field>
OPLS_2005

> <r_lp_Energy>
22.1454

> <b_lp_Chiralities_Consistent>
1

> <s_lp_Variant>
AV-unprocessed.smi:312-3

> <Gold.Version>
5.8.1

> <Gold.Id.Protein>
6NUR|6NUR_protein|mol2

> <Gold.PLP.Fitness>
43.4073

> <Gold.PLP.PLP>
-37.6814

> <Gold.PLP.part.hbond>
0.0000

> <Gold.PLP.part.metal>
0.0000

> <Gold.PLP.part.buried>
-1.9649

> <Gold.PLP.part.nonpolar>
-35.3305

> <Gold.PLP.part.repulsive>
0.3079

> <Gold.PLP.ligand.clash>
0.0000

> <Gold.PLP.ligand.torsion>
0.1937

> <Gold.PLP.Chemscore.Hbond>
0.0000

> <Gold.PLP.Chemscore.CHOScore>
2.0000

> <Gold.PLP.Chemscore.Metal>
0.0000

> <Gold.Chemscore.Hbonds>
donor molecule, donor type, donor heavy atom, donor atom, acceptor molecule, acceptor atom, score
      L1  C     5    23       P1  8028  1.00
      L1  C     6    24       P1 10175  0.89

> <Gold.PLP.Chemscore.Internal.Correction>
0.1135

> <Gold.Rescore>
     Score         DG    S(hbond)    S(metal)    S(lipo)     H(rot)  DE(clash)    DE(int)     intcor
     11.56     -11.91       0.00        0.00      93.37       1.76       0.12       0.23       ----

> <Gold.Chemscore.Fitness>
11.5594

> <Gold.Chemscore.DG>
-11.9083

> <Gold.Chemscore.ZeroCoef>
-5.4800

> <Gold.Chemscore.Hbond>
0.0000

> <Gold.Chemscore.Metal>
0.0000

> <Gold.Chemscore.Lipo>
93.3718

> <Gold.Chemscore.Internal_Hbond>
0.0000

> <Gold.Chemscore.DEClash>
0.1153

> <Gold.Chemscore.DEInternal>
0.2336

> <Gold.Chemscore.Rot>
1.7563

> <Gold.Chemscore.Internal.Correction>
   9.000000E+99

> <Gold.Chemscore.Hbond.Weighted>
-0.0000

> <Gold.Chemscore.Metal.Weighted>
-0.0000

> <Gold.Chemscore.Lipo.Weighted>
-10.9245

> <Gold.Chemscore.Internal_Hbond.Weighted>
0.0000

> <Gold.Chemscore.DEClash.Weighted>
0.1153

> <Gold.Chemscore.DEInternal.Weighted>
0.2336

> <Gold.Chemscore.Rot.Weighted>
4.4962

> <Gold.Chemscore.Internal.Correction.Weighted>
   9.000000E+99

> <Gold.Protein.RotatedTorsions>
[ 6907 6896 6895 6894 ] final  -48.00 input  -60.11 | X-H torsion
[ 7974 7965 7964 7962 ] final   28.01 input  175.53 | X-H torsion
[ 8008 7997 7996 7995 ] final   90.85 input   59.86 | X-H torsion
[ 10167 10162 10161 10158 ] final   99.96 input  -65.29 | X-H torsion
[ 10718 10713 10712 10709 ] final  -46.27 input   66.30 | X-H torsion
[ 10763 10752 10751 10750 ] final  -89.64 input  -60.55 | X-H torsion
[ 11005 11000 10999 10996 ] final   42.34 input  -57.11 | X-H torsion

> <Gold.Protein.ActiveResidues>
 VAL166  LYS551  ARG553  GLY616  TRP617  ASP618  TYR619  PRO620  LYS621  CYS622 
 ASP623  PHE694  ASN695  SER759  ASP760  ASP761  ALA762  ILE779  LEU786  VAL792 
 PHE793  MET794  SER795  GLU796  ALA797  LYS798  CYS799  TRP800  GLU811  SER814 

> <Gold.Protein.RotatedAtoms>
  150.8950  134.8358  159.7320 H   0  0  0  0  0  0  0  0  0  0  0  0  # atno 6907 bound_to 6896
  152.4860  134.4589  159.9608 H   0  0  0  0  0  0  0  0  0  0  0  0  # atno 6908 bound_to 6896
  151.4647  133.3545  159.2850 H   0  0  0  0  0  0  0  0  0  0  0  0  # atno 6909 bound_to 6896
  146.1753  139.7114  142.8939 H   0  0  0  0  0  0  0  0  0  0  0  0  # atno 7974 bound_to 7965
  156.0168  140.3344  155.6997 H   0  0  0  0  0  0  0  0  0  0  0  0  # atno 8008 bound_to 7997
  155.6079  140.0662  157.2732 H   0  0  0  0  0  0  0  0  0  0  0  0  # atno 8009 bound_to 7997
  154.4301  140.1798  156.1229 H   0  0  0  0  0  0  0  0  0  0  0  0  # atno 8010 bound_to 7997
  139.7570  144.6966  151.0348 H   0  0  0  0  0  0  0  0  0  0  0  0  # atno 10167 bound_to 10162
  156.2200  130.4165  149.9005 H   0  0  0  0  0  0  0  0  0  0  0  0  # atno 10718 bound_to 10713
  154.6574  135.5333  153.7976 H   0  0  0  0  0  0  0  0  0  0  0  0  # atno 10763 bound_to 10752
  153.0422  135.6497  154.0923 H   0  0  0  0  0  0  0  0  0  0  0  0  # atno 10764 bound_to 10752
  154.0835  135.2945  155.3265 H   0  0  0  0  0  0  0  0  0  0  0  0  # atno 10765 bound_to 10752
  140.1748  134.4176  155.8235 H   0  0  0  0  0  0  0  0  0  0  0  0  # atno 11005 bound_to 11000
  145.4229  141.0408  143.2954 LP  0  0  0  0  0  0  0  0  0  0  0  0  # atno 17320 bound_to 7965
  144.8226  139.5765  143.6980 LP  0  0  0  0  0  0  0  0  0  0  0  0  # atno 17321 bound_to 7965
  140.7803  143.4742  151.0105 LP  0  0  0  0  0  0  0  0  0  0  0  0  # atno 17342 bound_to 10162
  139.8428  143.7540  152.3180 LP  0  0  0  0  0  0  0  0  0  0  0  0  # atno 17343 bound_to 10162
  156.6655  130.8799  151.3554 LP  0  0  0  0  0  0  0  0  0  0  0  0  # atno 17370 bound_to 10713
  157.7082  130.9410  150.1002 LP  0  0  0  0  0  0  0  0  0  0  0  0  # atno 17371 bound_to 10713
  141.2220  133.6973  156.7828 LP  0  0  0  0  0  0  0  0  0  0  0  0  # atno 17394 bound_to 11000
  140.2335  134.8668  157.3501 LP  0  0  0  0  0  0  0  0  0  0  0  0  # atno 17395 bound_to 11000

$$$$
