AV-unprocessed.smi:2727|AV-procd|sdf|10523|dock9
  -GOLD-   2272014563D 1   1.00000     0.00000
 Structure written by MMmdl.
 40 41  0  0  0  0  0  0  0  0  1 V2000
  152.2046  137.5032  154.1956 O   0  0  0  0  0  0  0  0  0  0  0  0
  151.4295  137.3740  155.1491 C   0  0  0  0  0  0  0  0  0  0  0  0
  150.6218  138.3737  155.5346 N   0  0  0  0  0  0  0  0  0  0  0  0
  150.5451  139.6874  154.9037 C   0  0  0  0  0  0  0  0  0  0  0  0
  150.6935  140.8222  155.9377 C   0  0  0  0  0  0  0  0  0  0  0  0
  151.7217  140.5207  157.0428 C   0  0  0  0  0  0  0  0  0  0  0  0
  152.6962  139.8145  156.7773 O   0  0  0  0  0  0  0  0  0  0  0  0
  151.5238  141.0313  158.2833 N   0  0  0  0  0  0  0  0  0  0  0  0
  150.3962  141.9261  158.5718 C   0  0  0  0  0  0  0  0  0  0  0  0
  150.6960  143.3840  158.1673 C   0  0  0  0  0  0  0  0  0  0  0  0
  152.1561  143.8499  158.3602 C   0  0  0  0  0  0  0  0  0  0  0  0
  152.8330  143.3744  159.6610 C   0  0  0  0  0  0  0  0  0  0  0  0
  153.4468  141.9616  159.5604 C   0  0  0  0  0  0  0  0  0  0  0  0
  152.4163  140.8236  159.4326 C   0  0  0  0  0  0  0  0  0  0  0  0
  151.2334  136.2633  155.9582 N   0  0  0  0  0  0  0  0  0  0  0  0
  150.4666  135.2947  155.5593 C   0  0  0  0  0  0  0  0  0  0  0  0
  149.7219  135.0881  154.4008 N   0  0  0  0  0  0  0  0  0  0  0  0
  149.0885  133.8818  154.5099 C   0  0  0  0  0  0  0  0  0  0  0  0
  149.4173  133.3492  155.6829 C   0  0  0  0  0  0  0  0  0  0  0  0
  150.2595  134.1901  156.3466 O   0  0  0  0  0  0  0  0  0  0  0  0
  150.0087  138.2083  156.3197 H   0  0  0  0  0  0  0  0  0  0  0  0
  151.3067  139.7653  154.1253 H   0  0  0  0  0  0  0  0  0  0  0  0
  149.5796  139.7627  154.4023 H   0  0  0  0  0  0  0  0  0  0  0  0
  150.9811  141.7427  155.4285 H   0  0  0  0  0  0  0  0  0  0  0  0
  149.7251  141.0033  156.4036 H   0  0  0  0  0  0  0  0  0  0  0  0
  149.4860  141.5798  158.0790 H   0  0  0  0  0  0  0  0  0  0  0  0
  150.1571  141.9021  159.6353 H   0  0  0  0  0  0  0  0  0  0  0  0
  150.4296  143.5275  157.1196 H   0  0  0  0  0  0  0  0  0  0  0  0
  150.0308  144.0393  158.7307 H   0  0  0  0  0  0  0  0  0  0  0  0
  152.7580  143.5349  157.5067 H   0  0  0  0  0  0  0  0  0  0  0  0
  152.1667  144.9399  158.3321 H   0  0  0  0  0  0  0  0  0  0  0  0
  153.6415  144.0683  159.8933 H   0  0  0  0  0  0  0  0  0  0  0  0
  152.1384  143.4363  160.4995 H   0  0  0  0  0  0  0  0  0  0  0  0
  154.1427  141.9296  158.7219 H   0  0  0  0  0  0  0  0  0  0  0  0
  154.0506  141.7788  160.4498 H   0  0  0  0  0  0  0  0  0  0  0  0
  151.8364  140.7570  160.3539 H   0  0  0  0  0  0  0  0  0  0  0  0
  152.9310  139.8647  159.3743 H   0  0  0  0  0  0  0  0  0  0  0  0
  149.6342  135.6944  153.5978 H   0  0  0  0  0  0  0  0  0  0  0  0
  148.4521  133.5242  153.7139 H   0  0  0  0  0  0  0  0  0  0  0  0
  149.1481  132.4232  156.1690 H   0  0  0  0  0  0  0  0  0  0  0  0
  1  2  2  0  0  0  0
  2 15  1  0  0  0  0
  2  3  1  0  0  0  0
  3  4  1  0  0  0  0
  3 21  1  0  0  0  0
  4  5  1  0  0  0  0
  4 22  1  0  0  0  0
  4 23  1  0  0  0  0
  5  6  1  0  0  0  0
  5 24  1  0  0  0  0
  5 25  1  0  0  0  0
  6  7  2  0  0  0  0
  6  8  1  0  0  0  0
  8 14  1  0  0  0  0
  8  9  1  0  0  0  0
  9 10  1  0  0  0  0
  9 26  1  0  0  0  0
  9 27  1  0  0  0  0
 10 11  1  0  0  0  0
 10 28  1  0  0  0  0
 10 29  1  0  0  0  0
 11 12  1  0  0  0  0
 11 30  1  0  0  0  0
 11 31  1  0  0  0  0
 12 13  1  0  0  0  0
 12 32  1  0  0  0  0
 12 33  1  0  0  0  0
 13 14  1  0  0  0  0
 13 34  1  0  0  0  0
 13 35  1  0  0  0  0
 14 36  1  0  0  0  0
 14 37  1  0  0  0  0
 15 16  2  0  0  0  0
 16 20  1  0  0  0  0
 16 17  1  0  0  0  0
 17 38  1  0  0  0  0
 17 18  1  0  0  0  0
 18 39  1  0  0  0  0
 18 19  2  0  0  0  0
 19 40  1  0  0  0  0
 19 20  1  0  0  0  0
M  END
> <s_m_source_file>
AV-unprocessed.smi

> <i_m_source_file_index>
2727

> <i_lp_mmshare_version>
43012

> <i_f3d_flags>
0

> <s_epik_input>
bzFbY0hdW2NIXW5jMVtOSF1DKD1PKVtOSF1bQ0gyXVtDSDJdQyg9TylOMltDSDJdW0NIMl1bQ0gyXVtDSDJdW0NIMl1bQ0gyXTI=

> <s_epik_cmdline>
J2VwaWtfcHl0aG9uJywgJy1waCcsICc3LjAnLCAnLXRuJywgJzgnLCAnLW1hJywgJzIwMCcsICctbWV0YWxfYmluZGluZycsICctaW1hZScsICc8aW5maWxlLm1hZT4nLCAnLW9tYWUnLCAnPG91dGZpbGUubWFlPic=

> <r_lp_tautomer_probability>
0.107061

> <r_epik_Ionization_Penalty>
0.376272

> <r_epik_Ionization_Penalty_Charging>
0.375918

> <r_epik_Ionization_Penalty_Neutral>
0.000353756

> <r_epik_State_Penalty>
2.48665

> <r_epik_Charging_Adjusted_Penalty>
2.86256

> <i_epik_Tot_Q>
0

> <i_epik_Tot_abs_Q>
0

> <r_epik_Metal_State_Penalty>
4.1171

> <b_epik_Metal_Only>
0

> <s_lp_Force_Field>
OPLS_2005

> <r_lp_Energy>
47.9019

> <b_lp_Chiralities_Consistent>
1

> <s_lp_Variant>
AV-unprocessed.smi:2727-3

> <Gold.Version>
5.8.1

> <Gold.Id.Protein>
6NUR|6NUR_protein|mol2

> <Gold.PLP.Fitness>
43.9894

> <Gold.PLP.PLP>
-37.8880

> <Gold.PLP.part.hbond>
-3.1457

> <Gold.PLP.part.metal>
0.0000

> <Gold.PLP.part.buried>
-4.2306

> <Gold.PLP.part.nonpolar>
-31.2051

> <Gold.PLP.part.repulsive>
0.2883

> <Gold.PLP.ligand.clash>
0.0000

> <Gold.PLP.ligand.torsion>
1.2518

> <Gold.PLP.Chemscore.Hbond>
2.8640

> <Gold.PLP.Chemscore.CHOScore>
0.0000

> <Gold.PLP.Chemscore.Metal>
0.0000

> <Gold.Chemscore.Hbonds>
donor molecule, donor type, donor heavy atom, donor atom, acceptor molecule, acceptor atom, score
      L1  H    17    38       P1  7948  0.85
      P1  H  7997  8010       L1     7  1.00
      P1  H 10752 10765       L1     1  0.78

> <Gold.PLP.Chemscore.Internal.Correction>
0.0131

> <Gold.Rescore>
     Score         DG    S(hbond)    S(metal)    S(lipo)     H(rot)  DE(clash)    DE(int)     intcor
     19.04     -20.15       2.93        0.00      79.14       1.70       0.01       1.10       ----

> <Gold.Chemscore.Fitness>
19.0450

> <Gold.Chemscore.DG>
-20.1544

> <Gold.Chemscore.ZeroCoef>
-5.4800

> <Gold.Chemscore.Hbond>
2.9260

> <Gold.Chemscore.Metal>
0.0000

> <Gold.Chemscore.Lipo>
79.1435

> <Gold.Chemscore.Internal_Hbond>
0.0000

> <Gold.Chemscore.DEClash>
0.0052

> <Gold.Chemscore.DEInternal>
1.1041

> <Gold.Chemscore.Rot>
1.7025

> <Gold.Chemscore.Internal.Correction>
   9.000000E+99

> <Gold.Chemscore.Hbonds>
donor molecule, donor type, donor heavy atom, donor atom, acceptor molecule, acceptor atom, score
      L1  H    17    38       P1  7948  0.14
      P1  H  7997  8010       L1     7  1.00
      P1  H 10752 10765       L1     1  0.17

> <Gold.Chemscore.Hbond.Weighted>
-9.7729

> <Gold.Chemscore.Metal.Weighted>
-0.0000

> <Gold.Chemscore.Lipo.Weighted>
-9.2598

> <Gold.Chemscore.Internal_Hbond.Weighted>
0.0000

> <Gold.Chemscore.DEClash.Weighted>
0.0052

> <Gold.Chemscore.DEInternal.Weighted>
1.1041

> <Gold.Chemscore.Rot.Weighted>
4.3584

> <Gold.Chemscore.Internal.Correction.Weighted>
   9.000000E+99

> <Gold.Protein.RotatedTorsions>
[ 6907 6896 6895 6894 ] final  -79.74 input  -60.11 | X-H torsion
[ 7974 7965 7964 7962 ] final  -23.21 input  175.53 | X-H torsion
[ 8008 7997 7996 7995 ] final   72.57 input   59.86 | X-H torsion
[ 10167 10162 10161 10158 ] final -109.17 input  -65.29 | X-H torsion
[ 10718 10713 10712 10709 ] final -163.78 input   66.30 | X-H torsion
[ 10763 10752 10751 10750 ] final  156.79 input  -60.55 | X-H torsion
[ 11005 11000 10999 10996 ] final -107.30 input  -57.11 | X-H torsion

> <Gold.Protein.ActiveResidues>
 VAL166  LYS551  ARG553  GLY616  TRP617  ASP618  TYR619  PRO620  LYS621  CYS622 
 ASP623  PHE694  ASN695  SER759  ASP760  ASP761  ALA762  ILE779  LEU786  VAL792 
 PHE793  MET794  SER795  GLU796  ALA797  LYS798  CYS799  TRP800  GLU811  SER814 

> <Gold.Protein.RotatedAtoms>
  150.6943  134.4075  159.5146 H   0  0  0  0  0  0  0  0  0  0  0  0  # atno 6907 bound_to 6896
  152.1839  134.8728  160.0533 H   0  0  0  0  0  0  0  0  0  0  0  0  # atno 6908 bound_to 6896
  151.9708  133.3690  159.4107 H   0  0  0  0  0  0  0  0  0  0  0  0  # atno 6909 bound_to 6896
  146.1630  140.4584  142.8563 H   0  0  0  0  0  0  0  0  0  0  0  0  # atno 7974 bound_to 7965
  155.7708  140.3484  155.5246 H   0  0  0  0  0  0  0  0  0  0  0  0  # atno 8008 bound_to 7997
  155.8824  140.1004  157.1497 H   0  0  0  0  0  0  0  0  0  0  0  0  # atno 8009 bound_to 7997
  154.4026  140.1320  156.4200 H   0  0  0  0  0  0  0  0  0  0  0  0  # atno 8010 bound_to 7997
  140.1583  143.4142  152.1445 H   0  0  0  0  0  0  0  0  0  0  0  0  # atno 10167 bound_to 10162
  156.6296  130.8924  151.2974 H   0  0  0  0  0  0  0  0  0  0  0  0  # atno 10718 bound_to 10713
  154.1899  135.2795  155.3025 H   0  0  0  0  0  0  0  0  0  0  0  0  # atno 10763 bound_to 10752
  154.5937  135.5551  153.7307 H   0  0  0  0  0  0  0  0  0  0  0  0  # atno 10764 bound_to 10752
  153.0115  135.6374  154.2037 H   0  0  0  0  0  0  0  0  0  0  0  0  # atno 10765 bound_to 10752
  141.0961  133.8968  157.1959 H   0  0  0  0  0  0  0  0  0  0  0  0  # atno 11005 bound_to 11000
  144.8053  140.6288  143.6451 LP  0  0  0  0  0  0  0  0  0  0  0  0  # atno 17320 bound_to 7965
  145.4540  139.1520  143.3903 LP  0  0  0  0  0  0  0  0  0  0  0  0  # atno 17321 bound_to 7965
  139.5393  144.7241  151.4786 LP  0  0  0  0  0  0  0  0  0  0  0  0  # atno 17342 bound_to 10162
  140.6659  143.8398  150.6942 LP  0  0  0  0  0  0  0  0  0  0  0  0  # atno 17343 bound_to 10162
  157.7204  130.9551  150.1416 LP  0  0  0  0  0  0  0  0  0  0  0  0  # atno 17370 bound_to 10713
  156.2246  130.3677  149.8516 LP  0  0  0  0  0  0  0  0  0  0  0  0  # atno 17371 bound_to 10713
  139.9798  135.0102  156.9722 LP  0  0  0  0  0  0  0  0  0  0  0  0  # atno 17394 bound_to 11000
  140.5136  134.0977  155.7276 LP  0  0  0  0  0  0  0  0  0  0  0  0  # atno 17395 bound_to 11000

$$$$
