AV-unprocessed.smi:1265|AV-procd|sdf|5317|dock2
  -GOLD-   22720 4443D 1   1.00000     0.00000
 Structure written by MMmdl.
 45 47  0  0  0  0  0  0  0  0  2 V2000
  145.9084  138.7415  153.3229 O   0  0  0  0  0  0  0  0  0  0  0  0
  146.8374  137.9552  153.1431 C   0  0  0  0  0  0  0  0  0  0  0  0
  148.0867  138.1737  153.5766 N   0  0  0  0  0  0  0  0  0  0  0  0
  148.5489  139.3568  154.3019 C   0  0  0  0  0  0  0  0  0  0  0  0
  149.1920  139.0007  155.6831 C   0  0  1  0  0  0  0  0  0  0  0  0
  148.1303  138.6468  156.6758 N   0  0  0  0  0  0  0  0  0  0  0  0
  148.5962  138.3177  158.0312 C   0  0  0  0  0  0  0  0  0  0  0  0
  147.4467  137.8915  158.9608 C   0  0  0  0  0  0  0  0  0  0  0  0
  146.4604  138.9134  159.0086 O   0  0  0  0  0  0  0  0  0  0  0  0
  145.9268  139.2022  157.7240 C   0  0  0  0  0  0  0  0  0  0  0  0
  147.0584  139.6466  156.7822 C   0  0  0  0  0  0  0  0  0  0  0  0
  150.2241  137.8593  155.4492 C   0  0  0  0  0  0  0  0  0  0  0  0
  151.4306  138.4172  154.6863 C   0  0  0  0  0  0  0  0  0  0  0  0
  151.6444  140.1374  155.2011 S   0  0  0  0  0  0  0  0  0  0  0  0
  150.0822  140.1914  156.1228 C   0  0  0  0  0  0  0  0  0  0  0  0
  146.7506  136.7762  152.5024 N   0  0  0  0  0  0  0  0  0  0  0  0
  145.6178  136.1495  151.9118 C   0  0  0  0  0  0  0  0  0  0  0  0
  144.3465  136.5254  152.4011 C   0  0  0  0  0  0  0  0  0  0  0  0
  143.1870  135.9336  151.8604 C   0  0  0  0  0  0  0  0  0  0  0  0
  143.2978  135.0087  150.8836 N   0  3  0  0  0  0  0  0  0  0  0  0
  144.4889  134.6094  150.3894 C   0  0  0  0  0  0  0  0  0  0  0  0
  145.6835  135.1650  150.8917 C   0  0  0  0  0  0  0  0  0  0  0  0
  148.7873  137.4753  153.3752 H   0  0  0  0  0  0  0  0  0  0  0  0
  149.2263  139.9415  153.6802 H   0  0  0  0  0  0  0  0  0  0  0  0
  147.6938  140.0194  154.4278 H   0  0  0  0  0  0  0  0  0  0  0  0
  149.3005  137.4895  158.0138 H   0  0  0  0  0  0  0  0  0  0  0  0
  149.1090  139.1680  158.4793 H   0  0  0  0  0  0  0  0  0  0  0  0
  146.9982  136.9577  158.6176 H   0  0  0  0  0  0  0  0  0  0  0  0
  147.8223  137.7139  159.9686 H   0  0  0  0  0  0  0  0  0  0  0  0
  145.4149  138.3243  157.3265 H   0  0  0  0  0  0  0  0  0  0  0  0
  145.1813  139.9918  157.8181 H   0  0  0  0  0  0  0  0  0  0  0  0
  147.4655  140.5932  157.1394 H   0  0  0  0  0  0  0  0  0  0  0  0
  146.6081  139.8444  155.8123 H   0  0  0  0  0  0  0  0  0  0  0  0
  150.6292  137.4948  156.3903 H   0  0  0  0  0  0  0  0  0  0  0  0
  149.7942  136.9932  154.9463 H   0  0  0  0  0  0  0  0  0  0  0  0
  152.3353  137.8413  154.8827 H   0  0  0  0  0  0  0  0  0  0  0  0
  151.2568  138.3893  153.6107 H   0  0  0  0  0  0  0  0  0  0  0  0
  149.5938  141.1558  155.9803 H   0  0  0  0  0  0  0  0  0  0  0  0
  150.3481  140.1247  157.1762 H   0  0  0  0  0  0  0  0  0  0  0  0
  147.6018  136.2343  152.4740 H   0  0  0  0  0  0  0  0  0  0  0  0
  144.2556  137.2651  153.1836 H   0  0  0  0  0  0  0  0  0  0  0  0
  142.1822  136.1698  152.1790 H   0  0  0  0  0  0  0  0  0  0  0  0
  144.4523  133.8577  149.6144 H   0  0  0  0  0  0  0  0  0  0  0  0
  146.6192  134.8144  150.4863 H   0  0  0  0  0  0  0  0  0  0  0  0
  142.4466  134.5915  150.5056 H   0  0  0  0  0  0  0  0  0  0  0  0
  1  2  2  0  0  0  0
  2  3  1  0  0  0  0
  2 16  1  0  0  0  0
  3  4  1  0  0  0  0
  3 23  1  0  0  0  0
  4  5  1  0  0  0  0
  4 24  1  0  0  0  0
  4 25  1  0  0  0  0
  5 15  1  0  0  0  0
  5  6  1  0  0  0  0
  5 12  1  0  0  0  0
  6 11  1  0  0  0  0
  6  7  1  0  0  0  0
  7  8  1  0  0  0  0
  7 26  1  0  0  0  0
  7 27  1  0  0  0  0
  8  9  1  0  0  0  0
  8 28  1  0  0  0  0
  8 29  1  0  0  0  0
  9 10  1  0  0  0  0
 10 11  1  0  0  0  0
 10 30  1  0  0  0  0
 10 31  1  0  0  0  0
 11 32  1  0  0  0  0
 11 33  1  0  0  0  0
 12 13  1  0  0  0  0
 12 34  1  0  0  0  0
 12 35  1  0  0  0  0
 13 14  1  0  0  0  0
 13 36  1  0  0  0  0
 13 37  1  0  0  0  0
 14 15  1  0  0  0  0
 15 38  1  0  0  0  0
 15 39  1  0  0  0  0
 16 17  1  0  0  0  0
 16 40  1  0  0  0  0
 17 22  1  0  0  0  0
 17 18  2  0  0  0  0
 18 19  1  0  0  0  0
 18 41  1  0  0  0  0
 19 20  2  0  0  0  0
 19 42  1  0  0  0  0
 20 21  1  0  0  0  0
 20 45  1  0  0  0  0
 21 22  2  0  0  0  0
 21 43  1  0  0  0  0
 22 44  1  0  0  0  0
M  CHG  1  20   1
M  END
> <s_m_source_file>
AV-unprocessed.smi

> <i_m_source_file_index>
1265

> <i_lp_mmshare_version>
43012

> <i_f3d_flags>
0

> <s_epik_input>
W2NIXTFbY0hdbltjSF1bY0hdYzFbTkhdQyg9TylbTkhdW0NIMl1bQ0BdMihbQ0gyXVtDSDJdU1tDSDJdMilOM1tDSDJdW0NIMl1PW0NIMl1bQ0gyXTM=

> <s_epik_cmdline>
J2VwaWtfcHl0aG9uJywgJy1waCcsICc3LjAnLCAnLXRuJywgJzgnLCAnLW1hJywgJzIwMCcsICctbWV0YWxfYmluZGluZycsICctaW1hZScsICc8aW5maWxlLm1hZT4nLCAnLW9tYWUnLCAnPG91dGZpbGUubWFlPic=

> <r_epik_Ionization_Penalty>
1.06168

> <r_epik_Ionization_Penalty_Charging>
1.04215

> <r_epik_Ionization_Penalty_Neutral>
0.019527

> <r_epik_State_Penalty>
1.12733

> <r_epik_Charging_Adjusted_Penalty>
2.16948

> <i_epik_Tot_Q>
1

> <i_epik_Tot_abs_Q>
1

> <r_epik_Metal_State_Penalty>
1.22116

> <b_epik_Metal_Only>
0

> <s_lp_Force_Field>
OPLS_2005

> <r_lp_Energy>
64.97

> <b_lp_Chiralities_Consistent>
1

> <s_lp_Variant>
AV-unprocessed.smi:1265-3

> <Gold.Version>
5.8.1

> <Gold.Id.Protein>
6NUR|6NUR_protein|mol2

> <Gold.PLP.Fitness>
37.6151

> <Gold.PLP.PLP>
-25.1911

> <Gold.PLP.part.hbond>
-3.7440

> <Gold.PLP.part.metal>
0.0000

> <Gold.PLP.part.buried>
-3.5411

> <Gold.PLP.part.nonpolar>
-18.8760

> <Gold.PLP.part.repulsive>
0.1639

> <Gold.PLP.ligand.clash>
0.0000

> <Gold.PLP.ligand.torsion>
0.3594

> <Gold.PLP.Chemscore.Hbond>
4.3548

> <Gold.PLP.Chemscore.CHOScore>
0.0000

> <Gold.PLP.Chemscore.Metal>
0.0000

> <Gold.Chemscore.Hbonds>
donor molecule, donor type, donor heavy atom, donor atom, acceptor molecule, acceptor atom, score
      L1  H     3    23       P1  7948  0.62
      L1  H    16    40       P1  7948  0.72
      L1  H    20    45       P1 10186  1.90
      P1  H  6934  6947       L1     9  0.01

> <Gold.PLP.Chemscore.Internal.Correction>
0.0785

> <Gold.Rescore>
     Score         DG    S(hbond)    S(metal)    S(lipo)     H(rot)  DE(clash)    DE(int)     intcor
     15.33     -17.07       2.63        0.00      56.23       1.47       0.10       1.64       ----

> <Gold.Chemscore.Fitness>
15.3332

> <Gold.Chemscore.DG>
-17.0656

> <Gold.Chemscore.ZeroCoef>
-5.4800

> <Gold.Chemscore.Hbond>
2.6289

> <Gold.Chemscore.Metal>
0.0000

> <Gold.Chemscore.Lipo>
56.2329

> <Gold.Chemscore.Internal_Hbond>
0.0000

> <Gold.Chemscore.DEClash>
0.0958

> <Gold.Chemscore.DEInternal>
1.6366

> <Gold.Chemscore.Rot>
1.4743

> <Gold.Chemscore.Internal.Correction>
   9.000000E+99

> <Gold.Chemscore.Hbonds>
donor molecule, donor type, donor heavy atom, donor atom, acceptor molecule, acceptor atom, score
      L1  H     3    23       P1  7948  0.61
      L1  H    16    40       P1  7948  0.68
      L1  H    20    45       P1 10186  0.21

> <Gold.Chemscore.Hbond.Weighted>
-8.7805

> <Gold.Chemscore.Metal.Weighted>
-0.0000

> <Gold.Chemscore.Lipo.Weighted>
-6.5792

> <Gold.Chemscore.Internal_Hbond.Weighted>
0.0000

> <Gold.Chemscore.DEClash.Weighted>
0.0958

> <Gold.Chemscore.DEInternal.Weighted>
1.6366

> <Gold.Chemscore.Rot.Weighted>
3.7742

> <Gold.Chemscore.Internal.Correction.Weighted>
   9.000000E+99

> <Gold.Protein.RotatedTorsions>
[ 6907 6896 6895 6894 ] final   54.42 input  -60.11 | X-H torsion
[ 7974 7965 7964 7962 ] final   -7.82 input  175.53 | X-H torsion
[ 8008 7997 7996 7995 ] final  -65.09 input   59.86 | X-H torsion
[ 10167 10162 10161 10158 ] final   51.31 input  -65.29 | X-H torsion
[ 10718 10713 10712 10709 ] final   37.04 input   66.30 | X-H torsion
[ 10763 10752 10751 10750 ] final  166.06 input  -60.55 | X-H torsion
[ 11005 11000 10999 10996 ] final  -89.80 input  -57.11 | X-H torsion

> <Gold.Protein.ActiveResidues>
 VAL166  LYS551  ARG553  GLY616  TRP617  ASP618  TYR619  PRO620  LYS621  CYS622 
 ASP623  PHE694  ASN695  SER759  ASP760  ASP761  ALA762  ILE779  LEU786  VAL792 
 PHE793  MET794  SER795  GLU796  ALA797  LYS798  CYS799  TRP800  GLU811  SER814 

> <Gold.Protein.RotatedAtoms>
  152.3437  134.7101  160.0256 H   0  0  0  0  0  0  0  0  0  0  0  0  # atno 6907 bound_to 6896
  151.7477  133.3320  159.3391 H   0  0  0  0  0  0  0  0  0  0  0  0  # atno 6908 bound_to 6896
  150.7495  134.6153  159.6152 H   0  0  0  0  0  0  0  0  0  0  0  0  # atno 6909 bound_to 6896
  146.2297  140.2376  142.8342 H   0  0  0  0  0  0  0  0  0  0  0  0  # atno 7974 bound_to 7965
  154.4650  140.0940  156.6997 H   0  0  0  0  0  0  0  0  0  0  0  0  # atno 8008 bound_to 7997
  155.4883  140.3470  155.4332 H   0  0  0  0  0  0  0  0  0  0  0  0  # atno 8009 bound_to 7997
  156.0940  140.1405  156.9543 H   0  0  0  0  0  0  0  0  0  0  0  0  # atno 8010 bound_to 7997
  140.2632  144.3349  150.6312 H   0  0  0  0  0  0  0  0  0  0  0  0  # atno 10167 bound_to 10162
  157.3422  130.7554  149.6920 H   0  0  0  0  0  0  0  0  0  0  0  0  # atno 10718 bound_to 10713
  154.3334  135.2754  155.2460 H   0  0  0  0  0  0  0  0  0  0  0  0  # atno 10763 bound_to 10752
  154.4762  135.5870  153.6360 H   0  0  0  0  0  0  0  0  0  0  0  0  # atno 10764 bound_to 10752
  152.9864  135.6100  154.3528 H   0  0  0  0  0  0  0  0  0  0  0  0  # atno 10765 bound_to 10752
  141.1578  133.7652  156.9646 H   0  0  0  0  0  0  0  0  0  0  0  0  # atno 11005 bound_to 11000
  144.9509  140.8177  143.5572 LP  0  0  0  0  0  0  0  0  0  0  0  0  # atno 17320 bound_to 7965
  145.2337  139.2103  143.5029 LP  0  0  0  0  0  0  0  0  0  0  0  0  # atno 17321 bound_to 7965
  140.5949  143.2167  151.7183 LP  0  0  0  0  0  0  0  0  0  0  0  0  # atno 17342 bound_to 10162
  139.5010  144.3882  152.0306 LP  0  0  0  0  0  0  0  0  0  0  0  0  # atno 17343 bound_to 10162
  155.9709  130.4164  150.4231 LP  0  0  0  0  0  0  0  0  0  0  0  0  # atno 17370 bound_to 10713
  157.2280  131.0497  151.2508 LP  0  0  0  0  0  0  0  0  0  0  0  0  # atno 17371 bound_to 10713
  140.1170  134.9441  157.2148 LP  0  0  0  0  0  0  0  0  0  0  0  0  # atno 17394 bound_to 11000
  140.3121  134.3012  155.7264 LP  0  0  0  0  0  0  0  0  0  0  0  0  # atno 17395 bound_to 11000

$$$$
