AV-unprocessed.smi:101|AV-procd|sdf|938|dock3
  -GOLD-   2262017453D 1   1.00000     0.00000
 Structure written by MMmdl.
 43 45  0  0  0  0  0  0  0  0  2 V2000
  149.3011  133.3792  153.6049 C   0  0  0  0  0  0  0  0  0  0  0  0
  149.3178  134.2596  154.8424 C   0  0  0  0  0  0  0  0  0  0  0  0
  148.8781  135.5375  154.8243 C   0  0  0  0  0  0  0  0  0  0  0  0
  148.8969  136.3351  155.9552 N   0  0  0  0  0  0  0  0  0  0  0  0
  148.3826  137.7554  155.9152 C   0  0  1  0  0  0  0  0  0  0  0  0
  149.4093  138.6223  156.2970 O   0  0  0  0  0  0  0  0  0  0  0  0
  149.4400  139.7425  155.4232 C   0  0  1  0  0  0  0  0  0  0  0  0
  150.8239  140.4071  155.4227 C   0  0  0  0  0  0  0  0  0  0  0  0
  150.9437  141.2405  156.5637 O   0  0  0  0  0  0  0  0  0  0  0  0
  151.9175  141.0115  157.4657 C   0  0  0  0  0  0  0  0  0  0  0  0
  152.6227  140.0003  157.4658 O   0  0  0  0  0  0  0  0  0  0  0  0
  152.0564  142.1122  158.4627 C   0  0  0  0  0  0  0  0  0  0  0  0
  152.6079  141.8298  159.7343 C   0  0  0  0  0  0  0  0  0  0  0  0
  152.7536  142.8488  160.6955 C   0  0  0  0  0  0  0  0  0  0  0  0
  152.3496  144.1631  160.3968 C   0  0  0  0  0  0  0  0  0  0  0  0
  151.7973  144.4566  159.1364 C   0  0  0  0  0  0  0  0  0  0  0  0
  151.6502  143.4387  158.1740 C   0  0  0  0  0  0  0  0  0  0  0  0
  148.9793  139.1710  154.0776 C   0  0  1  0  0  0  0  0  0  0  0  0
  150.0538  138.5607  153.3852 O   0  0  0  0  0  0  0  0  0  0  0  0
  147.9480  138.1273  154.4858 C   0  0  2  0  0  0  0  0  0  0  0  0
  146.6512  138.6887  154.4799 O   0  0  0  0  0  0  0  0  0  0  0  0
  149.3550  135.7987  157.1860 C   0  0  0  0  0  0  0  0  0  0  0  0
  149.3142  136.5204  158.1831 O   0  0  0  0  0  0  0  0  0  0  0  0
  149.8081  134.5131  157.2122 N   0  5  0  0  0  0  0  0  0  0  0  0
  149.8217  133.7121  156.1079 C   0  0  0  0  0  0  0  0  0  0  0  0
  150.2387  132.5547  156.1449 O   0  0  0  0  0  0  0  0  0  0  0  0
  148.9082  133.9169  152.7416 H   0  0  0  0  0  0  0  0  0  0  0  0
  148.6760  132.5011  153.7701 H   0  0  0  0  0  0  0  0  0  0  0  0
  150.3101  133.0440  153.3635 H   0  0  0  0  0  0  0  0  0  0  0  0
  148.4963  135.9392  153.8975 H   0  0  0  0  0  0  0  0  0  0  0  0
  147.5826  137.8127  156.6555 H   0  0  0  0  0  0  0  0  0  0  0  0
  148.6886  140.4569  155.7651 H   0  0  0  0  0  0  0  0  0  0  0  0
  151.6137  139.6543  155.4142 H   0  0  0  0  0  0  0  0  0  0  0  0
  150.9388  141.0185  154.5266 H   0  0  0  0  0  0  0  0  0  0  0  0
  152.9265  140.8285  159.9864 H   0  0  0  0  0  0  0  0  0  0  0  0
  153.1766  142.6211  161.6628 H   0  0  0  0  0  0  0  0  0  0  0  0
  152.4625  144.9447  161.1335 H   0  0  0  0  0  0  0  0  0  0  0  0
  151.4855  145.4647  158.9060 H   0  0  0  0  0  0  0  0  0  0  0  0
  151.2209  143.6982  157.2171 H   0  0  0  0  0  0  0  0  0  0  0  0
  148.5611  139.9435  153.4307 H   0  0  0  0  0  0  0  0  0  0  0  0
  150.2208  139.0517  152.5957 H   0  0  0  0  0  0  0  0  0  0  0  0
  147.9504  137.2573  153.8264 H   0  0  0  0  0  0  0  0  0  0  0  0
  146.5705  139.2326  153.7105 H   0  0  0  0  0  0  0  0  0  0  0  0
  1  2  1  0  0  0  0
  1 27  1  0  0  0  0
  1 28  1  0  0  0  0
  1 29  1  0  0  0  0
  2 25  1  0  0  0  0
  2  3  2  0  0  0  0
  3  4  1  0  0  0  0
  3 30  1  0  0  0  0
  4  5  1  0  0  0  0
  4 22  1  0  0  0  0
  5 20  1  0  0  0  0
  5  6  1  0  0  0  0
  5 31  1  0  0  0  0
  6  7  1  0  0  0  0
  7  8  1  0  0  0  0
  7 18  1  0  0  0  0
  7 32  1  0  0  0  0
  8  9  1  0  0  0  0
  8 33  1  0  0  0  0
  8 34  1  0  0  0  0
  9 10  1  0  0  0  0
 10 11  2  0  0  0  0
 10 12  1  0  0  0  0
 12 17  1  0  0  0  0
 12 13  2  0  0  0  0
 13 14  1  0  0  0  0
 13 35  1  0  0  0  0
 14 15  2  0  0  0  0
 14 36  1  0  0  0  0
 15 16  1  0  0  0  0
 15 37  1  0  0  0  0
 16 17  2  0  0  0  0
 16 38  1  0  0  0  0
 17 39  1  0  0  0  0
 18 19  1  0  0  0  0
 18 20  1  0  0  0  0
 18 40  1  0  0  0  0
 19 41  1  0  0  0  0
 20 21  1  0  0  0  0
 20 42  1  0  0  0  0
 21 43  1  0  0  0  0
 22 23  2  0  0  0  0
 22 24  1  0  0  0  0
 24 25  1  0  0  0  0
 25 26  2  0  0  0  0
M  CHG  1  24  -1
M  END
> <s_m_source_file>
AV-unprocessed.smi

> <i_m_source_file_index>
101

> <i_lp_mmshare_version>
43012

> <i_f3d_flags>
0

> <s_epik_input>
Tz1jMVtuSF1jKD1PKW4oW2NIXWMxW0NIM10pW0NAQEhdMk9bQ0BIXShbQ0BASF0oW09IXSlbQ0BIXTJbT0hdKVtDSDJdT0MoPU8pYzNbY0hdW2NIXVtjSF1bY0hdW2NIXTM=

> <s_epik_cmdline>
J2VwaWtfcHl0aG9uJywgJy1waCcsICc3LjAnLCAnLXRuJywgJzgnLCAnLW1hJywgJzIwMCcsICctbWV0YWxfYmluZGluZycsICctaW1hZScsICc8aW5maWxlLm1hZT4nLCAnLW9tYWUnLCAnPG91dGZpbGUubWFlPic=

> <r_lp_tautomer_probability>
0.999537

> <r_epik_Ionization_Penalty>
3.21006

> <r_epik_Ionization_Penalty_Charging>
5.75142e-08

> <r_epik_Ionization_Penalty_Neutral>
3.21006

> <r_epik_State_Penalty>
3.20925

> <r_epik_Charging_Adjusted_Penalty>
3.20925

> <i_epik_Tot_Q>
-1

> <i_epik_Tot_abs_Q>
1

> <r_epik_Metal_State_Penalty>
0.119957

> <b_epik_Metal_Only>
1

> <s_epik_Chemistry_Notes>
This compound has an ester and may undergo hydrolysis at high or low pH. This compound contains an acetal/aminal-like group ( X-CH(R)-Y where X, Y are N, S, or O) that may be acid/base labile, releasing an aldehyde.

> <s_lp_Force_Field>
OPLS_2005

> <r_lp_Energy>
38.3605

> <b_lp_Chiralities_Consistent>
1

> <s_lp_Variant>
AV-unprocessed.smi:101-26

> <Gold.Version>
5.8.1

> <Gold.Id.Protein>
6NUR|6NUR_protein|mol2

> <Gold.PLP.Fitness>
54.2573

> <Gold.PLP.PLP>
-41.5208

> <Gold.PLP.part.hbond>
-4.0413

> <Gold.PLP.part.metal>
0.0000

> <Gold.PLP.part.buried>
-4.1813

> <Gold.PLP.part.nonpolar>
-32.8448

> <Gold.PLP.part.repulsive>
0.0494

> <Gold.PLP.ligand.clash>
0.0000

> <Gold.PLP.ligand.torsion>
0.9291

> <Gold.PLP.Chemscore.Hbond>
3.8240

> <Gold.PLP.Chemscore.CHOScore>
1.0000

> <Gold.PLP.Chemscore.Metal>
0.0000

> <Gold.Chemscore.Hbonds>
donor molecule, donor type, donor heavy atom, donor atom, acceptor molecule, acceptor atom, score
      L1  H    19    41       P1  7957  1.00
      P1  H  6896  6907       L1    24  0.47
      P1  H  7997  8008       L1    11  1.00
      L1  C     3    30       P1  7948  1.00

> <Gold.PLP.Chemscore.Internal.Correction>
0.1227

> <Gold.Rescore>
     Score         DG    S(hbond)    S(metal)    S(lipo)     H(rot)  DE(clash)    DE(int)     intcor
     15.08     -17.43       2.63        0.00      98.56       3.27       0.08       2.27       ----

> <Gold.Chemscore.Fitness>
15.0792

> <Gold.Chemscore.DG>
-17.4347

> <Gold.Chemscore.ZeroCoef>
-5.4800

> <Gold.Chemscore.Hbond>
2.6297

> <Gold.Chemscore.Metal>
0.0000

> <Gold.Chemscore.Lipo>
98.5580

> <Gold.Chemscore.Internal_Hbond>
0.0000

> <Gold.Chemscore.DEClash>
0.0819

> <Gold.Chemscore.DEInternal>
2.2736

> <Gold.Chemscore.Rot>
3.2656

> <Gold.Chemscore.Internal.Correction>
   9.000000E+99

> <Gold.Chemscore.Hbonds>
donor molecule, donor type, donor heavy atom, donor atom, acceptor molecule, acceptor atom, score
      L1  H    19    41       P1  7957  0.48
      P1  H  6896  6907       L1    24  0.16
      P1  H  7997  8008       L1    11  0.91

> <Gold.Chemscore.Hbond.Weighted>
-8.7833

> <Gold.Chemscore.Metal.Weighted>
-0.0000

> <Gold.Chemscore.Lipo.Weighted>
-11.5313

> <Gold.Chemscore.Internal_Hbond.Weighted>
0.0000

> <Gold.Chemscore.DEClash.Weighted>
0.0819

> <Gold.Chemscore.DEInternal.Weighted>
2.2736

> <Gold.Chemscore.Rot.Weighted>
8.3598

> <Gold.Chemscore.Internal.Correction.Weighted>
   9.000000E+99

> <Gold.Protein.RotatedTorsions>
[ 6907 6896 6895 6894 ] final  -99.90 input  -60.11 | X-H torsion
[ 7974 7965 7964 7962 ] final   78.05 input  175.53 | X-H torsion
[ 8008 7997 7996 7995 ] final  -79.03 input   59.86 | X-H torsion
[ 10167 10162 10161 10158 ] final -160.12 input  -65.29 | X-H torsion
[ 10718 10713 10712 10709 ] final  -49.52 input   66.30 | X-H torsion
[ 10763 10752 10751 10750 ] final   47.04 input  -60.55 | X-H torsion
[ 11005 11000 10999 10996 ] final  -17.49 input  -57.11 | X-H torsion

> <Gold.Protein.ActiveResidues>
 VAL166  LYS551  ARG553  GLY616  TRP617  ASP618  TYR619  PRO620  LYS621  CYS622 
 ASP623  PHE694  ASN695  SER759  ASP760  ASP761  ALA762  ILE779  LEU786  VAL792 
 PHE793  MET794  SER795  GLU796  ALA797  LYS798  CYS799  TRP800  GLU811  SER814 

> <Gold.Protein.RotatedAtoms>
  150.7096  134.0970  159.3951 H   0  0  0  0  0  0  0  0  0  0  0  0  # atno 6907 bound_to 6896
  151.8956  135.0397  160.0511 H   0  0  0  0  0  0  0  0  0  0  0  0  # atno 6908 bound_to 6896
  152.2456  133.5136  159.5332 H   0  0  0  0  0  0  0  0  0  0  0  0  # atno 6909 bound_to 6896
  145.6821  139.2527  143.1808 H   0  0  0  0  0  0  0  0  0  0  0  0  # atno 7974 bound_to 7965
  154.5745  140.0685  156.9014 H   0  0  0  0  0  0  0  0  0  0  0  0  # atno 8008 bound_to 7997
  155.2573  140.3356  155.4258 H   0  0  0  0  0  0  0  0  0  0  0  0  # atno 8009 bound_to 7997
  156.2144  140.1772  156.7608 H   0  0  0  0  0  0  0  0  0  0  0  0  # atno 8010 bound_to 7997
  139.6563  143.9992  152.2196 H   0  0  0  0  0  0  0  0  0  0  0  0  # atno 10167 bound_to 10162
  156.1885  130.4152  149.9404 H   0  0  0  0  0  0  0  0  0  0  0  0  # atno 10718 bound_to 10713
  152.9804  135.5989  154.3697 H   0  0  0  0  0  0  0  0  0  0  0  0  # atno 10763 bound_to 10752
  154.3372  135.2768  155.2443 H   0  0  0  0  0  0  0  0  0  0  0  0  # atno 10764 bound_to 10752
  154.4541  135.5982  153.6266 H   0  0  0  0  0  0  0  0  0  0  0  0  # atno 10765 bound_to 10752
  140.8174  133.8094  155.9624 H   0  0  0  0  0  0  0  0  0  0  0  0  # atno 11005 bound_to 11000
  146.0955  140.7605  142.9574 LP  0  0  0  0  0  0  0  0  0  0  0  0  # atno 17320 bound_to 7965
  144.7023  140.3705  143.7146 LP  0  0  0  0  0  0  0  0  0  0  0  0  # atno 17321 bound_to 7965
  139.9720  144.6487  150.7980 LP  0  0  0  0  0  0  0  0  0  0  0  0  # atno 17342 bound_to 10162
  140.7561  143.3058  151.2965 LP  0  0  0  0  0  0  0  0  0  0  0  0  # atno 17343 bound_to 10162
  156.7152  130.8985  151.3613 LP  0  0  0  0  0  0  0  0  0  0  0  0  # atno 17370 bound_to 10713
  157.6914  130.9238  150.0525 LP  0  0  0  0  0  0  0  0  0  0  0  0  # atno 17371 bound_to 10713
  140.9135  134.2231  157.4971 LP  0  0  0  0  0  0  0  0  0  0  0  0  # atno 17394 bound_to 11000
  139.8710  134.9760  156.4907 LP  0  0  0  0  0  0  0  0  0  0  0  0  # atno 17395 bound_to 11000

$$$$
