AV-unprocessed.smi:236|AV-procd|sdf|1813|dock9
  -GOLD-   2262020403D 1   1.00000     0.00000
 Structure written by MMmdl.
 58 62  0  0  0  0  0  0  0  0  1 V2000
  146.7686  133.5043  162.3729 C   0  0  0  0  0  0  0  0  0  0  0  0
  146.3137  134.9383  162.6825 C   0  0  2  0  0  0  0  0  0  0  0  0
  144.8912  135.0276  162.6913 O   0  0  0  0  0  0  0  0  0  0  0  0
  144.4746  136.2956  162.1915 C   0  0  0  0  0  0  0  0  0  0  0  0
  145.7519  137.1124  162.0217 C   0  0  0  0  0  0  0  0  0  0  0  0
  146.7909  136.0400  161.7169 C   0  0  1  0  0  0  0  0  0  0  0  0
  148.0676  136.5131  162.1040 O   0  0  0  0  0  0  0  0  0  0  0  0
  146.8292  135.6048  160.2265 C   0  0  0  0  0  0  0  0  0  0  0  0
  147.3407  136.6289  159.3291 N   0  0  0  0  0  0  0  0  0  0  0  0
  148.6473  137.0438  159.2082 C   0  0  0  0  0  0  0  0  0  0  0  0
  148.8517  137.9882  158.3311 N   0  0  0  0  0  0  0  0  0  0  0  0
  147.5933  138.2346  157.7931 C   0  0  0  0  0  0  0  0  0  0  0  0
  147.0920  139.1308  156.8054 C   0  0  0  0  0  0  0  0  0  0  0  0
  147.8831  140.0025  156.1267 N   0  0  0  0  0  0  0  0  0  0  0  0
  147.6218  140.2054  154.7033 C   0  0  0  0  0  0  0  0  0  0  0  0
  148.4056  141.4234  154.1901 C   0  0  0  0  0  0  0  0  0  0  0  0
  149.7880  141.2577  154.4866 O   0  0  0  0  0  0  0  0  0  0  0  0
  150.0334  141.1797  155.8889 C   0  0  2  0  0  0  0  0  0  0  0  0
  151.5490  141.0994  156.1100 C   0  0  0  0  0  0  0  0  0  0  0  0
  151.8065  140.9524  157.4967 O   0  0  0  0  0  0  0  0  0  0  0  0
  151.5564  142.1403  158.2275 C   0  0  0  0  0  0  0  0  0  0  0  0
  152.1273  141.9923  159.6216 C   0  0  0  0  0  0  0  0  0  0  0  0
  152.6715  143.1959  160.3574 C   0  0  0  0  0  0  0  0  0  0  0  0
  153.6135  142.1267  159.8648 C   0  0  0  0  0  0  0  0  0  0  0  0
  149.3071  139.9383  156.4430 C   0  0  0  0  0  0  0  0  0  0  0  0
  145.7546  139.0966  156.5569 N   0  0  0  0  0  0  0  0  0  0  0  0
  144.9637  138.2440  157.2146 C   0  0  0  0  0  0  0  0  0  0  0  0
  145.2941  137.3536  158.1510 N   0  0  0  0  0  0  0  0  0  0  0  0
  146.6317  137.3868  158.4134 C   0  0  0  0  0  0  0  0  0  0  0  0
  147.8558  133.4389  162.3273 H   0  0  0  0  0  0  0  0  0  0  0  0
  146.3673  133.1485  161.4239 H   0  0  0  0  0  0  0  0  0  0  0  0
  146.4276  132.8174  163.1475 H   0  0  0  0  0  0  0  0  0  0  0  0
  146.6382  135.1936  163.6934 H   0  0  0  0  0  0  0  0  0  0  0  0
  143.9822  136.1479  161.2298 H   0  0  0  0  0  0  0  0  0  0  0  0
  143.7636  136.7747  162.8646 H   0  0  0  0  0  0  0  0  0  0  0  0
  145.6647  137.8948  161.2688 H   0  0  0  0  0  0  0  0  0  0  0  0
  145.9840  137.6030  162.9688 H   0  0  0  0  0  0  0  0  0  0  0  0
  148.1781  136.3544  163.0290 H   0  0  0  0  0  0  0  0  0  0  0  0
  147.4475  134.7146  160.1054 H   0  0  0  0  0  0  0  0  0  0  0  0
  145.8306  135.3264  159.8879 H   0  0  0  0  0  0  0  0  0  0  0  0
  149.4486  136.6264  159.8005 H   0  0  0  0  0  0  0  0  0  0  0  0
  147.9175  139.3135  154.1491 H   0  0  0  0  0  0  0  0  0  0  0  0
  146.5556  140.3590  154.5323 H   0  0  0  0  0  0  0  0  0  0  0  0
  148.2824  141.5237  153.1117 H   0  0  0  0  0  0  0  0  0  0  0  0
  148.0329  142.3445  154.6412 H   0  0  0  0  0  0  0  0  0  0  0  0
  149.6499  142.0747  156.3829 H   0  0  0  0  0  0  0  0  0  0  0  0
  151.9523  140.2359  155.5789 H   0  0  0  0  0  0  0  0  0  0  0  0
  152.0427  141.9887  155.7150 H   0  0  0  0  0  0  0  0  0  0  0  0
  152.0133  142.9970  157.7294 H   0  0  0  0  0  0  0  0  0  0  0  0
  150.4839  142.3258  158.3019 H   0  0  0  0  0  0  0  0  0  0  0  0
  151.6089  141.2554  160.2322 H   0  0  0  0  0  0  0  0  0  0  0  0
  152.6793  144.1503  159.8343 H   0  0  0  0  0  0  0  0  0  0  0  0
  152.4916  143.2528  161.4289 H   0  0  0  0  0  0  0  0  0  0  0  0
  154.0614  141.4694  160.6074 H   0  0  0  0  0  0  0  0  0  0  0  0
  154.2465  142.3669  159.0129 H   0  0  0  0  0  0  0  0  0  0  0  0
  149.4774  139.8704  157.5162 H   0  0  0  0  0  0  0  0  0  0  0  0
  149.7244  139.0325  156.0010 H   0  0  0  0  0  0  0  0  0  0  0  0
  143.9163  138.2813  156.9538 H   0  0  0  0  0  0  0  0  0  0  0  0
  1  2  1  0  0  0  0
  1 30  1  0  0  0  0
  1 31  1  0  0  0  0
  1 32  1  0  0  0  0
  2  6  1  0  0  0  0
  2  3  1  0  0  0  0
  2 33  1  0  0  0  0
  3  4  1  0  0  0  0
  4  5  1  0  0  0  0
  4 34  1  0  0  0  0
  4 35  1  0  0  0  0
  5  6  1  0  0  0  0
  5 36  1  0  0  0  0
  5 37  1  0  0  0  0
  6  7  1  0  0  0  0
  6  8  1  0  0  0  0
  7 38  1  0  0  0  0
  8  9  1  0  0  0  0
  8 39  1  0  0  0  0
  8 40  1  0  0  0  0
  9 29  1  0  0  0  0
  9 10  1  0  0  0  0
 10 11  2  0  0  0  0
 10 41  1  0  0  0  0
 11 12  1  0  0  0  0
 12 29  2  0  0  0  0
 12 13  1  0  0  0  0
 13 14  1  0  0  0  0
 13 26  2  0  0  0  0
 14 25  1  0  0  0  0
 14 15  1  0  0  0  0
 15 16  1  0  0  0  0
 15 42  1  0  0  0  0
 15 43  1  0  0  0  0
 16 17  1  0  0  0  0
 16 44  1  0  0  0  0
 16 45  1  0  0  0  0
 17 18  1  0  0  0  0
 18 19  1  0  0  0  0
 18 25  1  0  0  0  0
 18 46  1  0  0  0  0
 19 20  1  0  0  0  0
 19 47  1  0  0  0  0
 19 48  1  0  0  0  0
 20 21  1  0  0  0  0
 21 22  1  0  0  0  0
 21 49  1  0  0  0  0
 21 50  1  0  0  0  0
 22 24  1  0  0  0  0
 22 23  1  0  0  0  0
 22 51  1  0  0  0  0
 23 24  1  0  0  0  0
 23 52  1  0  0  0  0
 23 53  1  0  0  0  0
 24 54  1  0  0  0  0
 24 55  1  0  0  0  0
 25 56  1  0  0  0  0
 25 57  1  0  0  0  0
 26 27  1  0  0  0  0
 27 28  2  0  0  0  0
 27 58  1  0  0  0  0
 28 29  1  0  0  0  0
M  END
> <s_m_source_file>
AV-unprocessed.smi

> <i_m_source_file_index>
236

> <i_lp_mmshare_version>
43012

> <i_f3d_flags>
0

> <s_epik_input>
W0NIMl0xW0NIMl1PW0NAQEhdKFtDSDNdKVtDQEBdMShbT0hdKVtDSDJdbihbY0hdbjIpYyhjMjMpbltjSF1uYzNONFtDSDJdW0NIMl1PW0NASF0oW0NIMl00KVtDSDJdT1tDSDJdW0NIXTVbQ0gyXVtDSDJdNQ==

> <s_epik_cmdline>
J2VwaWtfcHl0aG9uJywgJy1waCcsICc3LjAnLCAnLXRuJywgJzgnLCAnLW1hJywgJzIwMCcsICctbWV0YWxfYmluZGluZycsICctaW1hZScsICc8aW5maWxlLm1hZT4nLCAnLW9tYWUnLCAnPG91dGZpbGUubWFlPic=

> <r_lp_tautomer_probability>
1

> <r_epik_Ionization_Penalty>
7.21838e-05

> <r_epik_Ionization_Penalty_Charging>
0

> <r_epik_Ionization_Penalty_Neutral>
7.21838e-05

> <r_epik_State_Penalty>
-0

> <r_epik_Charging_Adjusted_Penalty>
0

> <i_epik_Tot_Q>
0

> <i_epik_Tot_abs_Q>
0

> <r_epik_Metal_State_Penalty>
-0

> <b_epik_Metal_Only>
0

> <s_lp_Force_Field>
OPLS_2005

> <r_lp_Energy>
47.7421

> <b_lp_Chiralities_Consistent>
1

> <s_lp_Variant>
AV-unprocessed.smi:236-5

> <Gold.Version>
5.8.1

> <Gold.Id.Protein>
6NUR|6NUR_protein|mol2

> <Gold.PLP.Fitness>
45.9848

> <Gold.PLP.PLP>
-42.3262

> <Gold.PLP.part.hbond>
-2.6054

> <Gold.PLP.part.metal>
0.0000

> <Gold.PLP.part.buried>
-5.4988

> <Gold.PLP.part.nonpolar>
-33.8490

> <Gold.PLP.part.repulsive>
0.1935

> <Gold.PLP.ligand.clash>
0.0000

> <Gold.PLP.ligand.torsion>
0.8106

> <Gold.PLP.Chemscore.Hbond>
1.3931

> <Gold.PLP.Chemscore.CHOScore>
0.0000

> <Gold.PLP.Chemscore.Metal>
0.0000

> <Gold.Chemscore.Hbonds>
donor molecule, donor type, donor heavy atom, donor atom, acceptor molecule, acceptor atom, score
      P1  H  6931  6943       L1     7  1.00
      P1  H  7989  7998       L1    17  0.38

> <Gold.PLP.Chemscore.Internal.Correction>
1.1005

> <Gold.Rescore>
     Score         DG    S(hbond)    S(metal)    S(lipo)     H(rot)  DE(clash)    DE(int)     intcor
     12.57     -15.24       1.13        0.00     113.94       2.87       0.44       2.22       ----

> <Gold.Chemscore.Fitness>
12.5714

> <Gold.Chemscore.DG>
-15.2387

> <Gold.Chemscore.ZeroCoef>
-5.4800

> <Gold.Chemscore.Hbond>
1.1267

> <Gold.Chemscore.Metal>
0.0000

> <Gold.Chemscore.Lipo>
113.9418

> <Gold.Chemscore.Internal_Hbond>
0.0000

> <Gold.Chemscore.DEClash>
0.4449

> <Gold.Chemscore.DEInternal>
2.2223

> <Gold.Chemscore.Rot>
2.8655

> <Gold.Chemscore.Internal.Correction>
   9.000000E+99

> <Gold.Chemscore.Hbonds>
donor molecule, donor type, donor heavy atom, donor atom, acceptor molecule, acceptor atom, score
      P1  H  6931  6943       L1     7  0.25
      P1  H  7989  7998       L1    17  0.24

> <Gold.Chemscore.Hbond.Weighted>
-3.7632

> <Gold.Chemscore.Metal.Weighted>
-0.0000

> <Gold.Chemscore.Lipo.Weighted>
-13.3312

> <Gold.Chemscore.Internal_Hbond.Weighted>
0.0000

> <Gold.Chemscore.DEClash.Weighted>
0.4449

> <Gold.Chemscore.DEInternal.Weighted>
2.2223

> <Gold.Chemscore.Rot.Weighted>
7.3358

> <Gold.Chemscore.Internal.Correction.Weighted>
   9.000000E+99

> <Gold.Protein.RotatedTorsions>
[ 6907 6896 6895 6894 ] final  119.18 input  -60.11 | X-H torsion
[ 7974 7965 7964 7962 ] final -166.66 input  175.53 | X-H torsion
[ 8008 7997 7996 7995 ] final  -50.21 input   59.86 | X-H torsion
[ 10167 10162 10161 10158 ] final  -21.85 input  -65.29 | X-H torsion
[ 10718 10713 10712 10709 ] final  162.02 input   66.30 | X-H torsion
[ 10763 10752 10751 10750 ] final   88.57 input  -60.55 | X-H torsion
[ 11005 11000 10999 10996 ] final   55.87 input  -57.11 | X-H torsion

> <Gold.Protein.ActiveResidues>
 VAL166  LYS551  ARG553  GLY616  TRP617  ASP618  TYR619  PRO620  LYS621  CYS622 
 ASP623  PHE694  ASN695  SER759  ASP760  ASP761  ALA762  ILE779  LEU786  VAL792 
 PHE793  MET794  SER795  GLU796  ALA797  LYS798  CYS799  TRP800  GLU811  SER814 

> <Gold.Protein.RotatedAtoms>
  152.4490  133.7592  159.6737 H   0  0  0  0  0  0  0  0  0  0  0  0  # atno 6907 bound_to 6896
  150.8397  133.7945  159.3072 H   0  0  0  0  0  0  0  0  0  0  0  0  # atno 6908 bound_to 6896
  151.5574  135.1069  160.0016 H   0  0  0  0  0  0  0  0  0  0  0  0  # atno 6909 bound_to 6896
  144.7240  140.2633  143.6261 H   0  0  0  0  0  0  0  0  0  0  0  0  # atno 7974 bound_to 7965
  154.4058  140.1278  156.4628 H   0  0  0  0  0  0  0  0  0  0  0  0  # atno 8008 bound_to 7997
  155.7256  140.3492  155.5016 H   0  0  0  0  0  0  0  0  0  0  0  0  # atno 8009 bound_to 7997
  155.9175  140.1046  157.1223 H   0  0  0  0  0  0  0  0  0  0  0  0  # atno 8010 bound_to 7997
  140.7284  143.4590  151.0407 H   0  0  0  0  0  0  0  0  0  0  0  0  # atno 10167 bound_to 10162
  157.1283  131.0510  151.2383 H   0  0  0  0  0  0  0  0  0  0  0  0  # atno 10718 bound_to 10713
  153.1782  135.4502  154.9993 H   0  0  0  0  0  0  0  0  0  0  0  0  # atno 10763 bound_to 10752
  154.8012  135.3256  154.7547 H   0  0  0  0  0  0  0  0  0  0  0  0  # atno 10764 bound_to 10752
  153.8015  135.6962  153.4910 H   0  0  0  0  0  0  0  0  0  0  0  0  # atno 10765 bound_to 10752
  140.0573  134.5652  155.9192 H   0  0  0  0  0  0  0  0  0  0  0  0  # atno 11005 bound_to 11000
  145.8114  139.2005  143.1990 LP  0  0  0  0  0  0  0  0  0  0  0  0  # atno 17320 bound_to 7965
  146.0592  140.7988  142.9743 LP  0  0  0  0  0  0  0  0  0  0  0  0  # atno 17321 bound_to 7965
  139.8272  143.7739  152.3179 LP  0  0  0  0  0  0  0  0  0  0  0  0  # atno 17342 bound_to 10162
  139.7842  144.7433  151.0045 LP  0  0  0  0  0  0  0  0  0  0  0  0  # atno 17343 bound_to 10162
  157.4415  130.7547  149.7073 LP  0  0  0  0  0  0  0  0  0  0  0  0  # atno 17370 bound_to 10713
  155.9813  130.4020  150.3478 LP  0  0  0  0  0  0  0  0  0  0  0  0  # atno 17371 bound_to 10713
  141.1958  133.6588  156.5659 LP  0  0  0  0  0  0  0  0  0  0  0  0  # atno 17394 bound_to 11000
  140.3824  134.7512  157.4669 LP  0  0  0  0  0  0  0  0  0  0  0  0  # atno 17395 bound_to 11000

$$$$
