AV-unprocessed.smi:218|AV-procd|sdf|1667|dock4
  -GOLD-   2262020 73D 1   1.00000     0.00000
 Structure written by MMmdl.
 54 57  0  0  0  0  0  0  0  0  1 V2000
  149.9020  143.0522  158.4192 C   0  0  0  0  0  0  0  0  0  0  0  0
  151.3725  142.9121  158.0073 C   0  0  0  0  0  0  0  0  0  0  0  0
  152.2217  144.0606  158.5787 C   0  0  0  0  0  0  0  0  0  0  0  0
  151.4065  142.9313  156.5788 O   0  0  0  0  0  0  0  0  0  0  0  0
  150.8845  141.8747  155.8575 C   0  0  0  0  0  0  0  0  0  0  0  0
  149.6979  142.0876  155.1267 C   0  0  0  0  0  0  0  0  0  0  0  0
  149.1537  141.0207  154.3803 C   0  0  0  0  0  0  0  0  0  0  0  0
  147.8766  141.1919  153.5726 C   0  0  0  0  0  0  0  0  0  0  0  0
  147.5750  140.1097  152.6407 N   0  0  0  0  0  0  0  0  0  0  0  0
  146.8931  139.0172  153.0494 C   0  0  0  0  0  0  0  0  0  0  0  0
  146.6071  138.8166  154.3628 N   0  0  0  0  0  0  0  0  0  0  0  0
  145.9296  137.7283  154.7413 C   0  0  0  0  0  0  0  0  0  0  0  0
  145.4489  136.7388  153.9845 N   0  0  0  0  0  0  0  0  0  0  0  0
  145.7300  136.9409  152.6649 C   0  0  0  0  0  0  0  0  0  0  0  0
  146.4412  138.0451  152.1203 C   0  0  0  0  0  0  0  0  0  0  0  0
  146.5329  137.9105  150.7411 N   0  0  0  0  0  0  0  0  0  0  0  0
  145.9091  136.7903  150.4902 C   0  0  0  0  0  0  0  0  0  0  0  0
  145.4004  136.1386  151.5948 N   0  0  0  0  0  0  0  0  0  0  0  0
  144.6380  134.8502  151.6775 C   0  0  1  0  0  0  0  0  0  0  0  0
  144.0671  134.5964  150.4282 O   0  0  0  0  0  0  0  0  0  0  0  0
  144.8113  133.5881  149.7570 C   0  0  2  0  0  0  0  0  0  0  0  0
  143.9904  132.9573  148.6190 C   0  0  0  0  0  0  0  0  0  0  0  0
  143.5661  133.9539  147.7139 O   0  0  0  0  0  0  0  0  0  0  0  0
  145.2515  132.6622  150.8982 C   0  0  2  0  0  0  0  0  0  0  0  0
  144.2131  131.7736  151.2677 O   0  0  0  0  0  0  0  0  0  0  0  0
  145.5439  133.6422  152.0286 C   0  0  1  0  0  0  0  0  0  0  0  0
  146.9289  133.9451  152.0559 O   0  0  0  0  0  0  0  0  0  0  0  0
  149.8154  139.7771  154.4059 C   0  0  0  0  0  0  0  0  0  0  0  0
  150.9932  139.6590  155.1684 C   0  0  0  0  0  0  0  0  0  0  0  0
  151.5204  140.6768  155.8807 N   0  0  0  0  0  0  0  0  0  0  0  0
  143.8557  135.0396  152.4135 H   0  0  0  0  0  0  0  0  0  0  0  0
  145.6983  134.0612  149.3323 H   0  0  0  0  0  0  0  0  0  0  0  0
  146.1218  132.0638  150.6237 H   0  0  0  0  0  0  0  0  0  0  0  0
  145.2617  133.2432  153.0039 H   0  0  0  0  0  0  0  0  0  0  0  0
  149.7936  143.0285  159.5040 H   0  0  0  0  0  0  0  0  0  0  0  0
  149.3031  142.2388  158.0087 H   0  0  0  0  0  0  0  0  0  0  0  0
  149.4784  143.9911  158.0609 H   0  0  0  0  0  0  0  0  0  0  0  0
  151.7264  141.9560  158.3959 H   0  0  0  0  0  0  0  0  0  0  0  0
  152.1657  144.0830  159.6672 H   0  0  0  0  0  0  0  0  0  0  0  0
  151.8771  145.0261  158.2077 H   0  0  0  0  0  0  0  0  0  0  0  0
  153.2726  143.9604  158.3096 H   0  0  0  0  0  0  0  0  0  0  0  0
  149.2203  143.0563  155.1387 H   0  0  0  0  0  0  0  0  0  0  0  0
  147.0302  141.3295  154.2471 H   0  0  0  0  0  0  0  0  0  0  0  0
  147.9622  142.1149  152.9992 H   0  0  0  0  0  0  0  0  0  0  0  0
  148.0298  140.1663  151.7410 H   0  0  0  0  0  0  0  0  0  0  0  0
  145.7459  137.6381  155.8018 H   0  0  0  0  0  0  0  0  0  0  0  0
  145.8050  136.4140  149.4834 H   0  0  0  0  0  0  0  0  0  0  0  0
  144.5571  132.1927  148.0871 H   0  0  0  0  0  0  0  0  0  0  0  0
  143.1065  132.4678  149.0285 H   0  0  0  0  0  0  0  0  0  0  0  0
  144.3271  134.4186  147.4004 H   0  0  0  0  0  0  0  0  0  0  0  0
  144.5087  130.8888  151.1155 H   0  0  0  0  0  0  0  0  0  0  0  0
  147.2890  133.6273  152.8695 H   0  0  0  0  0  0  0  0  0  0  0  0
  149.4337  138.9318  153.8525 H   0  0  0  0  0  0  0  0  0  0  0  0
  151.5258  138.7202  155.2087 H   0  0  0  0  0  0  0  0  0  0  0  0
  1  2  1  0  0  0  0
  1 35  1  0  0  0  0
  1 36  1  0  0  0  0
  1 37  1  0  0  0  0
  2  3  1  0  0  0  0
  2  4  1  0  0  0  0
  2 38  1  0  0  0  0
  3 39  1  0  0  0  0
  3 40  1  0  0  0  0
  3 41  1  0  0  0  0
  4  5  1  0  0  0  0
  5 30  1  0  0  0  0
  5  6  2  0  0  0  0
  6  7  1  0  0  0  0
  6 42  1  0  0  0  0
  7  8  1  0  0  0  0
  7 28  2  0  0  0  0
  8  9  1  0  0  0  0
  8 43  1  0  0  0  0
  8 44  1  0  0  0  0
  9 10  1  0  0  0  0
  9 45  1  0  0  0  0
 10 15  1  0  0  0  0
 10 11  2  0  0  0  0
 11 12  1  0  0  0  0
 12 13  2  0  0  0  0
 12 46  1  0  0  0  0
 13 14  1  0  0  0  0
 14 18  1  0  0  0  0
 14 15  2  0  0  0  0
 15 16  1  0  0  0  0
 16 17  2  0  0  0  0
 17 18  1  0  0  0  0
 17 47  1  0  0  0  0
 18 19  1  0  0  0  0
 19 31  1  0  0  0  0
 19 26  1  0  0  0  0
 19 20  1  0  0  0  0
 20 21  1  0  0  0  0
 21 32  1  0  0  0  0
 21 22  1  0  0  0  0
 21 24  1  0  0  0  0
 22 23  1  0  0  0  0
 22 48  1  0  0  0  0
 22 49  1  0  0  0  0
 23 50  1  0  0  0  0
 24 33  1  0  0  0  0
 24 25  1  0  0  0  0
 24 26  1  0  0  0  0
 25 51  1  0  0  0  0
 26 34  1  0  0  0  0
 26 27  1  0  0  0  0
 27 52  1  0  0  0  0
 28 29  1  0  0  0  0
 28 53  1  0  0  0  0
 29 30  2  0  0  0  0
 29 54  1  0  0  0  0
M  END
> <s_m_source_file>
AV-unprocessed.smi

> <i_m_source_file_index>
218

> <i_lp_mmshare_version>
43012

> <i_f3d_flags>
0

> <s_epik_input>
W0NIM11bQ0hdKFtDSDNdKU9jMVtjSF1jKFtjSF1bY0hdbjEpW0NIMl1bTkhdYyhuW2NIXW4yKWMoYzIzKW5bY0hdbjNbQ0BASF00T1tDQEhdKFtDSDJdW09IXSlbQ0BASF0oW09IXSlbQ0BIXTRbT0hd

> <s_epik_cmdline>
J2VwaWtfcHl0aG9uJywgJy1waCcsICc3LjAnLCAnLXRuJywgJzgnLCAnLW1hJywgJzIwMCcsICctbWV0YWxfYmluZGluZycsICctaW1hZScsICc8aW5maWxlLm1hZT4nLCAnLW9tYWUnLCAnPG91dGZpbGUubWFlPic=

> <r_lp_tautomer_probability>
1

> <r_epik_Ionization_Penalty>
0.00457014

> <r_epik_Ionization_Penalty_Charging>
0

> <r_epik_Ionization_Penalty_Neutral>
0.00457014

> <r_epik_State_Penalty>
-0

> <r_epik_Charging_Adjusted_Penalty>
0

> <i_epik_Tot_Q>
0

> <i_epik_Tot_abs_Q>
0

> <r_epik_Metal_State_Penalty>
-0

> <b_epik_Metal_Only>
0

> <s_epik_Chemistry_Notes>
This compound contains an acetal/aminal-like group ( X-CH(R)-Y where X, Y are N, S, or O) that may be acid/base labile, releasing an aldehyde.

> <s_lp_Force_Field>
OPLS_2005

> <r_lp_Energy>
40.1019

> <b_lp_Chiralities_Consistent>
1

> <s_lp_Variant>
AV-unprocessed.smi:218-6

> <Gold.Version>
5.8.1

> <Gold.Id.Protein>
6NUR|6NUR_protein|mol2

> <Gold.PLP.Fitness>
60.6581

> <Gold.PLP.PLP>
-48.2150

> <Gold.PLP.part.hbond>
-6.5893

> <Gold.PLP.part.metal>
0.0000

> <Gold.PLP.part.buried>
0.5640

> <Gold.PLP.part.nonpolar>
-45.9392

> <Gold.PLP.part.repulsive>
2.6711

> <Gold.PLP.ligand.clash>
0.0000

> <Gold.PLP.ligand.torsion>
1.1144

> <Gold.PLP.Chemscore.Hbond>
3.8080

> <Gold.PLP.Chemscore.CHOScore>
1.0000

> <Gold.PLP.Chemscore.Metal>
0.0000

> <Gold.Chemscore.Hbonds>
donor molecule, donor type, donor heavy atom, donor atom, acceptor molecule, acceptor atom, score
      L1  H     9    45       P1  7957  0.77
      L1  H    23    50       P1  7921  0.98
      P1  H  7954  7966       L1    16  1.00
      P1  H 10192 10197       L1    23  0.98
      L1  C    17    47       P1  7921  1.00

> <Gold.PLP.Chemscore.Internal.Correction>
0.2479

> <Gold.Rescore>
     Score         DG    S(hbond)    S(metal)    S(lipo)     H(rot)  DE(clash)    DE(int)     intcor
     11.00     -16.25       3.32        0.00     104.67       4.90       4.10       1.16       ----

> <Gold.Chemscore.Fitness>
10.9966

> <Gold.Chemscore.DG>
-16.2538

> <Gold.Chemscore.ZeroCoef>
-5.4800

> <Gold.Chemscore.Hbond>
3.3172

> <Gold.Chemscore.Metal>
0.0000

> <Gold.Chemscore.Lipo>
104.6655

> <Gold.Chemscore.Internal_Hbond>
0.0000

> <Gold.Chemscore.DEClash>
4.0962

> <Gold.Chemscore.DEInternal>
1.1610

> <Gold.Chemscore.Rot>
4.9029

> <Gold.Chemscore.Internal.Correction>
   9.000000E+99

> <Gold.Chemscore.Hbonds>
donor molecule, donor type, donor heavy atom, donor atom, acceptor molecule, acceptor atom, score
      L1  H     9    45       P1  7957  0.76
      L1  H    23    50       P1  7921  0.93
      P1  H  7954  7966       L1    16  0.63
      P1  H 10192 10197       L1    23  0.36

> <Gold.Chemscore.Hbond.Weighted>
-11.0795

> <Gold.Chemscore.Metal.Weighted>
-0.0000

> <Gold.Chemscore.Lipo.Weighted>
-12.2459

> <Gold.Chemscore.Internal_Hbond.Weighted>
0.0000

> <Gold.Chemscore.DEClash.Weighted>
4.0962

> <Gold.Chemscore.DEInternal.Weighted>
1.1610

> <Gold.Chemscore.Rot.Weighted>
12.5515

> <Gold.Chemscore.Internal.Correction.Weighted>
   9.000000E+99

> <Gold.Protein.RotatedTorsions>
[ 6907 6896 6895 6894 ] final   53.32 input  -60.11 | X-H torsion
[ 7974 7965 7964 7962 ] final -125.78 input  175.53 | X-H torsion
[ 8008 7997 7996 7995 ] final   -8.93 input   59.86 | X-H torsion
[ 10167 10162 10161 10158 ] final    0.75 input  -65.29 | X-H torsion
[ 10718 10713 10712 10709 ] final   87.86 input   66.30 | X-H torsion
[ 10763 10752 10751 10750 ] final   -8.68 input  -60.55 | X-H torsion
[ 11005 11000 10999 10996 ] final   92.40 input  -57.11 | X-H torsion

> <Gold.Protein.ActiveResidues>
 VAL166  LYS551  ARG553  GLY616  TRP617  ASP618  TYR619  PRO620  LYS621  CYS622 
 ASP623  PHE694  ASN695  SER759  ASP760  ASP761  ALA762  ILE779  LEU786  VAL792 
 PHE793  MET794  SER795  GLU796  ALA797  LYS798  CYS799  TRP800  GLU811  SER814 

> <Gold.Protein.RotatedAtoms>
  152.3325  134.7241  160.0285 H   0  0  0  0  0  0  0  0  0  0  0  0  # atno 6907 bound_to 6896
  151.7653  133.3331  159.3437 H   0  0  0  0  0  0  0  0  0  0  0  0  # atno 6908 bound_to 6896
  150.7431  134.6000  159.6076 H   0  0  0  0  0  0  0  0  0  0  0  0  # atno 6909 bound_to 6896
  144.9940  140.7759  143.4536 H   0  0  0  0  0  0  0  0  0  0  0  0  # atno 7974 bound_to 7965
  154.5695  140.2368  155.8213 H   0  0  0  0  0  0  0  0  0  0  0  0  # atno 8008 bound_to 7997
  156.2095  140.3030  155.9659 H   0  0  0  0  0  0  0  0  0  0  0  0  # atno 8009 bound_to 7997
  155.2739  140.0419  157.3000 H   0  0  0  0  0  0  0  0  0  0  0  0  # atno 8010 bound_to 7997
  140.6714  143.7037  150.7932 H   0  0  0  0  0  0  0  0  0  0  0  0  # atno 10167 bound_to 10162
  157.6944  131.0272  150.3188 H   0  0  0  0  0  0  0  0  0  0  0  0  # atno 10718 bound_to 10713
  153.4440  135.7014  153.6151 H   0  0  0  0  0  0  0  0  0  0  0  0  # atno 10763 bound_to 10752
  153.4514  135.3757  155.2286 H   0  0  0  0  0  0  0  0  0  0  0  0  # atno 10764 bound_to 10752
  154.8728  135.3998  154.3842 H   0  0  0  0  0  0  0  0  0  0  0  0  # atno 10765 bound_to 10752
  139.8824  134.8730  156.3566 H   0  0  0  0  0  0  0  0  0  0  0  0  # atno 11005 bound_to 11000
  145.2245  139.2143  143.5075 LP  0  0  0  0  0  0  0  0  0  0  0  0  # atno 17320 bound_to 7965
  146.3438  140.2110  142.8590 LP  0  0  0  0  0  0  0  0  0  0  0  0  # atno 17321 bound_to 7965
  140.0723  143.5049  152.2573 LP  0  0  0  0  0  0  0  0  0  0  0  0  # atno 17342 bound_to 10162
  139.5985  144.7575  151.3228 LP  0  0  0  0  0  0  0  0  0  0  0  0  # atno 17343 bound_to 10162
  156.3678  130.3858  149.7199 LP  0  0  0  0  0  0  0  0  0  0  0  0  # atno 17370 bound_to 10713
  156.4624  130.7958  151.2978 LP  0  0  0  0  0  0  0  0  0  0  0  0  # atno 17371 bound_to 10713
  140.9558  133.7421  156.0333 LP  0  0  0  0  0  0  0  0  0  0  0  0  # atno 17394 bound_to 11000
  140.8051  134.3464  157.5428 LP  0  0  0  0  0  0  0  0  0  0  0  0  # atno 17395 bound_to 11000

$$$$
