AV-unprocessed.smi:3170|AV-procd|sdf|12107|dock2
  -GOLD-   2272017543D 1   1.00000     0.00000
 Structure written by MMmdl.
 36 37  0  0  0  0  0  0  0  0  2 V2000
  146.9798  127.2644  152.1431 O   0  0  0  0  0  0  0  0  0  0  0  0
  147.6982  128.1929  151.7717 C   0  0  0  0  0  0  0  0  0  0  0  0
  147.2964  129.4694  151.6949 N   0  0  0  0  0  0  0  0  0  0  0  0
  145.9538  129.9529  152.0047 C   0  0  0  0  0  0  0  0  0  0  0  0
  145.8702  131.4909  152.0161 C   0  0  0  0  0  0  0  0  0  0  0  0
  144.9992  132.0216  150.9628 N   0  0  0  0  0  0  0  0  0  0  0  0
  145.2545  132.0571  149.6159 C   0  0  0  0  0  0  0  0  0  0  0  0
  144.1583  132.6308  149.0254 C   0  0  0  0  0  0  0  0  0  0  0  0
  143.2831  132.9258  150.0362 N   0  3  0  0  0  0  0  0  0  0  0  0
  143.7977  132.5580  151.2141 C   0  0  0  0  0  0  0  0  0  0  0  0
  148.9779  128.0506  151.4012 N   0  0  0  0  0  0  0  0  0  0  0  0
  149.7046  126.7859  151.3701 C   0  0  0  0  0  0  0  0  0  0  0  0
  149.3870  125.9652  150.1053 C   0  0  2  0  0  0  0  0  0  0  0  0
  148.3046  124.9247  150.3034 C   0  0  0  0  0  0  0  0  0  0  0  0
  148.5357  124.0079  149.1068 C   0  0  0  0  0  0  0  0  0  0  0  0
  149.9420  124.0210  148.8815 O   0  0  0  0  0  0  0  0  0  0  0  0
  150.5419  125.1021  149.5905 C   0  0  0  0  0  0  0  0  0  0  0  0
  147.9632  130.1574  151.3758 H   0  0  0  0  0  0  0  0  0  0  0  0
  145.2878  129.5669  151.2328 H   0  0  0  0  0  0  0  0  0  0  0  0
  145.5954  129.5359  152.9476 H   0  0  0  0  0  0  0  0  0  0  0  0
  145.5223  131.8576  152.9833 H   0  0  0  0  0  0  0  0  0  0  0  0
  146.8615  131.9164  151.8555 H   0  0  0  0  0  0  0  0  0  0  0  0
  146.1704  131.6753  149.1885 H   0  0  0  0  0  0  0  0  0  0  0  0
  143.9411  132.8447  147.9891 H   0  0  0  0  0  0  0  0  0  0  0  0
  143.3296  132.6641  152.1764 H   0  0  0  0  0  0  0  0  0  0  0  0
  149.4863  128.8740  151.1124 H   0  0  0  0  0  0  0  0  0  0  0  0
  150.7709  127.0102  151.4133 H   0  0  0  0  0  0  0  0  0  0  0  0
  149.4764  126.2043  152.2648 H   0  0  0  0  0  0  0  0  0  0  0  0
  149.0696  126.6352  149.3042 H   0  0  0  0  0  0  0  0  0  0  0  0
  148.4659  124.3748  151.2319 H   0  0  0  0  0  0  0  0  0  0  0  0
  147.3001  125.3486  150.3260 H   0  0  0  0  0  0  0  0  0  0  0  0
  148.1668  122.9962  149.2764 H   0  0  0  0  0  0  0  0  0  0  0  0
  148.0378  124.4068  148.2220 H   0  0  0  0  0  0  0  0  0  0  0  0
  151.2259  125.6629  148.9530 H   0  0  0  0  0  0  0  0  0  0  0  0
  151.1177  124.6887  150.4197 H   0  0  0  0  0  0  0  0  0  0  0  0
  142.3761  133.3578  149.9120 H   0  0  0  0  0  0  0  0  0  0  0  0
  1  2  2  0  0  0  0
  2  3  1  0  0  0  0
  2 11  1  0  0  0  0
  3  4  1  0  0  0  0
  3 18  1  0  0  0  0
  4  5  1  0  0  0  0
  4 19  1  0  0  0  0
  4 20  1  0  0  0  0
  5  6  1  0  0  0  0
  5 21  1  0  0  0  0
  5 22  1  0  0  0  0
  6 10  1  0  0  0  0
  6  7  1  0  0  0  0
  7  8  2  0  0  0  0
  7 23  1  0  0  0  0
  8  9  1  0  0  0  0
  8 24  1  0  0  0  0
  9 10  2  0  0  0  0
  9 36  1  0  0  0  0
 10 25  1  0  0  0  0
 11 12  1  0  0  0  0
 11 26  1  0  0  0  0
 12 13  1  0  0  0  0
 12 27  1  0  0  0  0
 12 28  1  0  0  0  0
 13 17  1  0  0  0  0
 13 14  1  0  0  0  0
 13 29  1  0  0  0  0
 14 15  1  0  0  0  0
 14 30  1  0  0  0  0
 14 31  1  0  0  0  0
 15 16  1  0  0  0  0
 15 32  1  0  0  0  0
 15 33  1  0  0  0  0
 16 17  1  0  0  0  0
 17 34  1  0  0  0  0
 17 35  1  0  0  0  0
M  CHG  1   9   1
M  END
> <s_m_source_file>
AV-unprocessed.smi

> <i_m_source_file_index>
3170

> <i_lp_mmshare_version>
43012

> <i_f3d_flags>
0

> <s_epik_input>
W0NIMl0xT1tDSDJdW0NIMl1bQ0BIXTFbQ0gyXVtOSF1DKD1PKVtOSF1bQ0gyXVtDSDJdbjJbY0hdW2NIXW5bY0hdMg==

> <s_epik_cmdline>
J2VwaWtfcHl0aG9uJywgJy1waCcsICc3LjAnLCAnLXRuJywgJzgnLCAnLW1hJywgJzIwMCcsICctbWV0YWxfYmluZGluZycsICctaW1hZScsICc8aW5maWxlLm1hZT4nLCAnLW9tYWUnLCAnPG91dGZpbGUubWFlPic=

> <r_lp_tautomer_probability>
1

> <r_epik_Ionization_Penalty>
0.255699

> <r_epik_Ionization_Penalty_Charging>
0

> <r_epik_Ionization_Penalty_Neutral>
0.255699

> <r_epik_State_Penalty>
0.247169

> <r_epik_Charging_Adjusted_Penalty>
0.247169

> <i_epik_Tot_Q>
1

> <i_epik_Tot_abs_Q>
1

> <r_epik_Metal_State_Penalty>
0.536793

> <b_epik_Metal_Only>
0

> <s_lp_Force_Field>
OPLS_2005

> <r_lp_Energy>
19.7141

> <b_lp_Chiralities_Consistent>
1

> <s_lp_Variant>
AV-unprocessed.smi:3170-1

> <Gold.Version>
5.8.1

> <Gold.Id.Protein>
6NUR|6NUR_protein|mol2

> <Gold.PLP.Fitness>
44.6628

> <Gold.PLP.PLP>
-36.5512

> <Gold.PLP.part.hbond>
-4.0183

> <Gold.PLP.part.metal>
0.0000

> <Gold.PLP.part.buried>
-1.0903

> <Gold.PLP.part.nonpolar>
-30.7282

> <Gold.PLP.part.repulsive>
0.3530

> <Gold.PLP.ligand.clash>
0.0000

> <Gold.PLP.ligand.torsion>
1.1266

> <Gold.PLP.Chemscore.Hbond>
3.0000

> <Gold.PLP.Chemscore.CHOScore>
0.4416

> <Gold.PLP.Chemscore.Metal>
0.0000

> <Gold.Chemscore.Hbonds>
donor molecule, donor type, donor heavy atom, donor atom, acceptor molecule, acceptor atom, score
      L1  H     3    18       P1 10747  1.00
      L1  H     9    36       P1 10186  2.00
      L1  C    10    25       P1 10957  0.16

> <Gold.PLP.Chemscore.Internal.Correction>
0.0398

> <Gold.Rescore>
     Score         DG    S(hbond)    S(metal)    S(lipo)     H(rot)  DE(clash)    DE(int)     intcor
     12.48     -15.13       1.98        0.00      76.94       2.33       1.70       0.95       ----

> <Gold.Chemscore.Fitness>
12.4808

> <Gold.Chemscore.DG>
-15.1293

> <Gold.Chemscore.ZeroCoef>
-5.4800

> <Gold.Chemscore.Hbond>
1.9786

> <Gold.Chemscore.Metal>
0.0000

> <Gold.Chemscore.Lipo>
76.9430

> <Gold.Chemscore.Internal_Hbond>
0.0000

> <Gold.Chemscore.DEClash>
1.6995

> <Gold.Chemscore.DEInternal>
0.9490

> <Gold.Chemscore.Rot>
2.3288

> <Gold.Chemscore.Internal.Correction>
   9.000000E+99

> <Gold.Chemscore.Hbonds>
donor molecule, donor type, donor heavy atom, donor atom, acceptor molecule, acceptor atom, score
      L1  H     3    18       P1 10747  0.96
      L1  H     9    36       P1 10186  1.00

> <Gold.Chemscore.Hbond.Weighted>
-6.6087

> <Gold.Chemscore.Metal.Weighted>
-0.0000

> <Gold.Chemscore.Lipo.Weighted>
-9.0023

> <Gold.Chemscore.Internal_Hbond.Weighted>
0.0000

> <Gold.Chemscore.DEClash.Weighted>
1.6995

> <Gold.Chemscore.DEInternal.Weighted>
0.9490

> <Gold.Chemscore.Rot.Weighted>
5.9617

> <Gold.Chemscore.Internal.Correction.Weighted>
   9.000000E+99

> <Gold.Protein.RotatedTorsions>
[ 6907 6896 6895 6894 ] final  154.08 input  -60.11 | X-H torsion
[ 7974 7965 7964 7962 ] final  118.17 input  175.53 | X-H torsion
[ 8008 7997 7996 7995 ] final  105.37 input   59.86 | X-H torsion
[ 10167 10162 10161 10158 ] final  -98.75 input  -65.29 | X-H torsion
[ 10718 10713 10712 10709 ] final   99.01 input   66.30 | X-H torsion
[ 10763 10752 10751 10750 ] final   -4.10 input  -60.55 | X-H torsion
[ 11005 11000 10999 10996 ] final  -35.24 input  -57.11 | X-H torsion

> <Gold.Protein.ActiveResidues>
 VAL166  LYS551  ARG553  GLY616  TRP617  ASP618  TYR619  PRO620  LYS621  CYS622 
 ASP623  PHE694  ASN695  SER759  ASP760  ASP761  ALA762  ILE779  LEU786  VAL792 
 PHE793  MET794  SER795  GLU796  ALA797  LYS798  CYS799  TRP800  GLU811  SER814 

> <Gold.Protein.RotatedAtoms>
  152.0636  133.4073  159.4428 H   0  0  0  0  0  0  0  0  0  0  0  0  # atno 6907 bound_to 6896
  150.6865  134.3172  159.4780 H   0  0  0  0  0  0  0  0  0  0  0  0  # atno 6908 bound_to 6896
  152.0996  134.9350  160.0620 H   0  0  0  0  0  0  0  0  0  0  0  0  # atno 6909 bound_to 6896
  145.1584  139.3169  143.4530 H   0  0  0  0  0  0  0  0  0  0  0  0  # atno 7974 bound_to 7965
  156.1653  140.3131  155.8879 H   0  0  0  0  0  0  0  0  0  0  0  0  # atno 8008 bound_to 7997
  155.3698  140.0481  157.3062 H   0  0  0  0  0  0  0  0  0  0  0  0  # atno 8009 bound_to 7997
  154.5187  140.2190  155.9028 H   0  0  0  0  0  0  0  0  0  0  0  0  # atno 8010 bound_to 7997
  140.2697  143.3352  152.0547 H   0  0  0  0  0  0  0  0  0  0  0  0  # atno 10167 bound_to 10162
  157.6884  131.0657  150.4884 H   0  0  0  0  0  0  0  0  0  0  0  0  # atno 10718 bound_to 10713
  153.3802  135.6998  153.6571 H   0  0  0  0  0  0  0  0  0  0  0  0  # atno 10763 bound_to 10752
  153.5185  135.3617  155.2621 H   0  0  0  0  0  0  0  0  0  0  0  0  # atno 10764 bound_to 10752
  154.8692  135.4152  154.3099 H   0  0  0  0  0  0  0  0  0  0  0  0  # atno 10765 bound_to 10752
  140.9780  133.7072  156.1635 H   0  0  0  0  0  0  0  0  0  0  0  0  # atno 11005 bound_to 11000
  146.3485  140.1686  142.8590 LP  0  0  0  0  0  0  0  0  0  0  0  0  # atno 17320 bound_to 7965
  145.0356  140.8905  143.5083 LP  0  0  0  0  0  0  0  0  0  0  0  0  # atno 17321 bound_to 7965
  139.4992  144.6665  151.6345 LP  0  0  0  0  0  0  0  0  0  0  0  0  # atno 17342 bound_to 10162
  140.5900  143.9797  150.6319 LP  0  0  0  0  0  0  0  0  0  0  0  0  # atno 17343 bound_to 10162
  156.5212  130.4162  149.6250 LP  0  0  0  0  0  0  0  0  0  0  0  0  # atno 17370 bound_to 10713
  156.3153  130.7251  151.2152 LP  0  0  0  0  0  0  0  0  0  0  0  0  # atno 17371 bound_to 10713
  140.7230  134.4338  157.5573 LP  0  0  0  0  0  0  0  0  0  0  0  0  # atno 17394 bound_to 11000
  139.8938  134.8721  156.2205 LP  0  0  0  0  0  0  0  0  0  0  0  0  # atno 17395 bound_to 11000

$$$$
