AV-unprocessed.smi:99|AV-procd|sdf|873|dock1
  -GOLD-   2262017333D 1   1.00000     0.00000
 Structure written by MMmdl.
 53 56  0  0  0  0  0  0  0  0  1 V2000
  144.1862  134.5900  159.4706 O   0  0  0  0  0  0  0  0  0  0  0  0
  144.9069  135.5622  159.7049 C   0  0  0  0  0  0  0  0  0  0  0  0
  144.9110  136.6843  158.9616 O   0  0  0  0  0  0  0  0  0  0  0  0
  144.0629  136.7948  157.8301 C   0  0  0  0  0  0  0  0  0  0  0  0
  144.9225  137.0273  156.5794 C   0  0  2  0  0  0  0  0  0  0  0  0
  145.2759  138.3991  156.4562 O   0  0  0  0  0  0  0  0  0  0  0  0
  145.5917  138.6918  155.1264 C   0  0  1  0  0  0  0  0  0  0  0  0
  147.0930  138.8608  154.9745 N   0  0  0  0  0  0  0  0  0  0  0  0
  147.9856  138.6098  156.0099 C   0  0  0  0  0  0  0  0  0  0  0  0
  149.3263  138.7502  155.8799 C   0  0  0  0  0  0  0  0  0  0  0  0
  149.9075  139.1850  154.6142 C   0  0  0  0  0  0  0  0  0  0  0  0
  151.1083  139.3383  154.4011 O   0  0  0  0  0  0  0  0  0  0  0  0
  148.9754  139.4312  153.6027 N   0  0  0  0  0  0  0  0  0  0  0  0
  147.5925  139.2899  153.7245 C   0  0  0  0  0  0  0  0  0  0  0  0
  146.8612  139.5284  152.7640 O   0  0  0  0  0  0  0  0  0  0  0  0
  145.0112  137.5550  154.2469 C   0  0  1  0  0  0  0  0  0  0  0  0
  145.9766  136.7520  153.5909 O   0  0  0  0  0  0  0  0  0  0  0  0
  144.2437  136.7011  155.2474 C   0  0  2  0  0  0  0  0  0  0  0  0
  142.8703  137.0746  155.2815 O   0  0  0  0  0  0  0  0  0  0  0  0
  141.9288  136.3103  154.6900 C   0  0  0  0  0  0  0  0  0  0  0  0
  142.0270  135.0897  154.5511 O   0  0  0  0  0  0  0  0  0  0  0  0
  140.7563  137.1017  154.2203 C   0  0  0  0  0  0  0  0  0  0  0  0
  140.8994  138.4921  154.0058 C   0  0  0  0  0  0  0  0  0  0  0  0
  139.8091  139.2651  153.5614 C   0  0  0  0  0  0  0  0  0  0  0  0
  138.5630  138.6562  153.3243 C   0  0  0  0  0  0  0  0  0  0  0  0
  138.4086  137.2730  153.5312 C   0  0  0  0  0  0  0  0  0  0  0  0
  139.4975  136.4985  153.9766 C   0  0  0  0  0  0  0  0  0  0  0  0
  145.8663  135.6217  160.8445 C   0  0  0  0  0  0  0  0  0  0  0  0
  146.4222  134.4219  161.3464 C   0  0  0  0  0  0  0  0  0  0  0  0
  147.3327  134.4479  162.4207 C   0  0  0  0  0  0  0  0  0  0  0  0
  147.7006  135.6744  163.0040 C   0  0  0  0  0  0  0  0  0  0  0  0
  147.1570  136.8752  162.5118 C   0  0  0  0  0  0  0  0  0  0  0  0
  146.2446  136.8512  161.4388 C   0  0  0  0  0  0  0  0  0  0  0  0
  149.3326  139.7341  152.7083 H   0  0  0  0  0  0  0  0  0  0  0  0
  143.4719  135.8852  157.7117 H   0  0  0  0  0  0  0  0  0  0  0  0
  143.3647  137.6204  157.9711 H   0  0  0  0  0  0  0  0  0  0  0  0
  145.8351  136.4353  156.6538 H   0  0  0  0  0  0  0  0  0  0  0  0
  145.1619  139.6700  154.9025 H   0  0  0  0  0  0  0  0  0  0  0  0
  147.6226  138.2905  156.9739 H   0  0  0  0  0  0  0  0  0  0  0  0
  149.9737  138.5407  156.7191 H   0  0  0  0  0  0  0  0  0  0  0  0
  144.3563  137.9846  153.4878 H   0  0  0  0  0  0  0  0  0  0  0  0
  146.7801  137.2447  153.5223 H   0  0  0  0  0  0  0  0  0  0  0  0
  144.3352  135.6341  155.0365 H   0  0  0  0  0  0  0  0  0  0  0  0
  141.8467  138.9818  154.1809 H   0  0  0  0  0  0  0  0  0  0  0  0
  139.9297  140.3267  153.4029 H   0  0  0  0  0  0  0  0  0  0  0  0
  137.7272  139.2493  152.9835 H   0  0  0  0  0  0  0  0  0  0  0  0
  137.4532  136.8041  153.3482 H   0  0  0  0  0  0  0  0  0  0  0  0
  139.3448  135.4390  154.1233 H   0  0  0  0  0  0  0  0  0  0  0  0
  146.1544  133.4682  160.9148 H   0  0  0  0  0  0  0  0  0  0  0  0
  147.7494  133.5250  162.7968 H   0  0  0  0  0  0  0  0  0  0  0  0
  148.4000  135.6938  163.8269 H   0  0  0  0  0  0  0  0  0  0  0  0
  147.4408  137.8173  162.9570 H   0  0  0  0  0  0  0  0  0  0  0  0
  145.8489  137.7912  161.0827 H   0  0  0  0  0  0  0  0  0  0  0  0
  1  2  2  0  0  0  0
  2  3  1  0  0  0  0
  2 28  1  0  0  0  0
  3  4  1  0  0  0  0
  4  5  1  0  0  0  0
  4 35  1  0  0  0  0
  4 36  1  0  0  0  0
  5 18  1  0  0  0  0
  5  6  1  0  0  0  0
  5 37  1  0  0  0  0
  6  7  1  0  0  0  0
  7  8  1  0  0  0  0
  7 16  1  0  0  0  0
  7 38  1  0  0  0  0
  8 14  1  0  0  0  0
  8  9  1  0  0  0  0
  9 10  2  0  0  0  0
  9 39  1  0  0  0  0
 10 11  1  0  0  0  0
 10 40  1  0  0  0  0
 11 12  2  0  0  0  0
 11 13  1  0  0  0  0
 13 34  1  0  0  0  0
 13 14  1  0  0  0  0
 14 15  2  0  0  0  0
 16 17  1  0  0  0  0
 16 18  1  0  0  0  0
 16 41  1  0  0  0  0
 17 42  1  0  0  0  0
 18 19  1  0  0  0  0
 18 43  1  0  0  0  0
 19 20  1  0  0  0  0
 20 21  2  0  0  0  0
 20 22  1  0  0  0  0
 22 27  1  0  0  0  0
 22 23  2  0  0  0  0
 23 24  1  0  0  0  0
 23 44  1  0  0  0  0
 24 25  2  0  0  0  0
 24 45  1  0  0  0  0
 25 26  1  0  0  0  0
 25 46  1  0  0  0  0
 26 27  2  0  0  0  0
 26 47  1  0  0  0  0
 27 48  1  0  0  0  0
 28 33  1  0  0  0  0
 28 29  2  0  0  0  0
 29 30  1  0  0  0  0
 29 49  1  0  0  0  0
 30 31  2  0  0  0  0
 30 50  1  0  0  0  0
 31 32  1  0  0  0  0
 31 51  1  0  0  0  0
 32 33  2  0  0  0  0
 32 52  1  0  0  0  0
 33 53  1  0  0  0  0
M  END
> <s_m_source_file>
AV-unprocessed.smi

> <i_m_source_file_index>
99

> <i_lp_mmshare_version>
43012

> <i_f3d_flags>
0

> <s_epik_input>
W2NIXTFbY0hdW2NIXVtjSF1bY0hdYzFDKD1PKU9bQ0gyXVtDQEBIXTJPW0NAQEhdKG4zW2NIXVtjSF1jKD1PKVtuSF1jMz1PKVtDQEBIXShbT0hdKVtDQEhdMk9DKD1PKWM0W2NIXVtjSF1bY0hdW2NIXVtjSF00

> <s_epik_cmdline>
J2VwaWtfcHl0aG9uJywgJy1waCcsICc3LjAnLCAnLXRuJywgJzgnLCAnLW1hJywgJzIwMCcsICctbWV0YWxfYmluZGluZycsICctaW1hZScsICc8aW5maWxlLm1hZT4nLCAnLW9tYWUnLCAnPG91dGZpbGUubWFlPic=

> <r_lp_tautomer_probability>
1

> <r_epik_Ionization_Penalty>
0.00454555

> <r_epik_Ionization_Penalty_Charging>
0.0045191

> <r_epik_Ionization_Penalty_Neutral>
2.64449e-05

> <r_epik_State_Penalty>
-0

> <r_epik_Charging_Adjusted_Penalty>
0.0045191

> <i_epik_Tot_Q>
0

> <i_epik_Tot_abs_Q>
0

> <r_epik_Metal_State_Penalty>
1.27877

> <b_epik_Metal_Only>
0

> <s_epik_Chemistry_Notes>
This compound has an ester and may undergo hydrolysis at high or low pH. This compound contains an acetal/aminal-like group ( X-CH(R)-Y where X, Y are N, S, or O) that may be acid/base labile, releasing an aldehyde.

> <s_lp_Force_Field>
OPLS_2005

> <r_lp_Energy>
38.1357

> <b_lp_Chiralities_Consistent>
1

> <s_lp_Variant>
AV-unprocessed.smi:99-9

> <Gold.Version>
5.8.1

> <Gold.Id.Protein>
6NUR|6NUR_protein|mol2

> <Gold.PLP.Fitness>
44.0613

> <Gold.PLP.PLP>
-40.1712

> <Gold.PLP.part.hbond>
-3.0000

> <Gold.PLP.part.metal>
0.0000

> <Gold.PLP.part.buried>
-5.9442

> <Gold.PLP.part.nonpolar>
-32.3221

> <Gold.PLP.part.repulsive>
0.6537

> <Gold.PLP.ligand.clash>
0.0000

> <Gold.PLP.ligand.torsion>
2.1118

> <Gold.PLP.Chemscore.Hbond>
2.4797

> <Gold.PLP.Chemscore.CHOScore>
0.0000

> <Gold.PLP.Chemscore.Metal>
0.0000

> <Gold.Chemscore.Hbonds>
donor molecule, donor type, donor heavy atom, donor atom, acceptor molecule, acceptor atom, score
      L1  H    13    34       P1  7957  1.00
      P1  H  7989  7998       L1    12  1.00
      P1  H 11000 11005       L1    21  0.48

> <Gold.PLP.Chemscore.Internal.Correction>
0.6746

> <Gold.Rescore>
     Score         DG    S(hbond)    S(metal)    S(lipo)     H(rot)  DE(clash)    DE(int)     intcor
     14.48     -16.96       2.52        0.00      96.10       3.19       0.01       2.47       ----

> <Gold.Chemscore.Fitness>
14.4781

> <Gold.Chemscore.DG>
-16.9577

> <Gold.Chemscore.ZeroCoef>
-5.4800

> <Gold.Chemscore.Hbond>
2.5152

> <Gold.Chemscore.Metal>
0.0000

> <Gold.Chemscore.Lipo>
96.1015

> <Gold.Chemscore.Internal_Hbond>
0.0000

> <Gold.Chemscore.DEClash>
0.0077

> <Gold.Chemscore.DEInternal>
2.4718

> <Gold.Chemscore.Rot>
3.1903

> <Gold.Chemscore.Internal.Correction>
   9.000000E+99

> <Gold.Chemscore.Hbonds>
donor molecule, donor type, donor heavy atom, donor atom, acceptor molecule, acceptor atom, score
      L1  H    13    34       P1  7957  0.99
      P1  H  7989  7998       L1    12  0.96
      P1  H 11000 11005       L1    21  0.39

> <Gold.Chemscore.Hbond.Weighted>
-8.4009

> <Gold.Chemscore.Metal.Weighted>
-0.0000

> <Gold.Chemscore.Lipo.Weighted>
-11.2439

> <Gold.Chemscore.Internal_Hbond.Weighted>
0.0000

> <Gold.Chemscore.DEClash.Weighted>
0.0077

> <Gold.Chemscore.DEInternal.Weighted>
2.4718

> <Gold.Chemscore.Rot.Weighted>
8.1671

> <Gold.Chemscore.Internal.Correction.Weighted>
   9.000000E+99

> <Gold.Protein.RotatedTorsions>
[ 6907 6896 6895 6894 ] final -141.28 input  -60.11 | X-H torsion
[ 7974 7965 7964 7962 ] final   97.09 input  175.53 | X-H torsion
[ 8008 7997 7996 7995 ] final   76.97 input   59.86 | X-H torsion
[ 10167 10162 10161 10158 ] final   62.99 input  -65.29 | X-H torsion
[ 10718 10713 10712 10709 ] final  176.54 input   66.30 | X-H torsion
[ 10763 10752 10751 10750 ] final  175.06 input  -60.55 | X-H torsion
[ 11005 11000 10999 10996 ] final    2.99 input  -57.11 | X-H torsion

> <Gold.Protein.ActiveResidues>
 VAL166  LYS551  ARG553  GLY616  TRP617  ASP618  TYR619  PRO620  LYS621  CYS622 
 ASP623  PHE694  ASN695  SER759  ASP760  ASP761  ALA762  ILE779  LEU786  VAL792 
 PHE793  MET794  SER795  GLU796  ALA797  LYS798  CYS799  TRP800  GLU811  SER814 

> <Gold.Protein.RotatedAtoms>
  151.0717  133.5461  159.2626 H   0  0  0  0  0  0  0  0  0  0  0  0  # atno 6907 bound_to 6896
  151.2397  135.0584  159.9030 H   0  0  0  0  0  0  0  0  0  0  0  0  # atno 6908 bound_to 6896
  152.5412  134.0494  159.8157 H   0  0  0  0  0  0  0  0  0  0  0  0  # atno 6909 bound_to 6896
  145.4302  139.2311  143.3148 H   0  0  0  0  0  0  0  0  0  0  0  0  # atno 7974 bound_to 7965
  155.8349  140.3464  155.5595 H   0  0  0  0  0  0  0  0  0  0  0  0  # atno 8008 bound_to 7997
  155.8202  140.0912  157.1873 H   0  0  0  0  0  0  0  0  0  0  0  0  # atno 8009 bound_to 7997
  154.4004  140.1431  156.3478 H   0  0  0  0  0  0  0  0  0  0  0  0  # atno 8010 bound_to 7997
  140.1379  144.4581  150.6827 H   0  0  0  0  0  0  0  0  0  0  0  0  # atno 10167 bound_to 10162
  156.9185  130.9933  151.3008 H   0  0  0  0  0  0  0  0  0  0  0  0  # atno 10718 bound_to 10713
  154.4625  135.2768  155.1702 H   0  0  0  0  0  0  0  0  0  0  0  0  # atno 10763 bound_to 10752
  154.3484  135.6155  153.5634 H   0  0  0  0  0  0  0  0  0  0  0  0  # atno 10764 bound_to 10752
  152.9856  135.5805  154.4990 H   0  0  0  0  0  0  0  0  0  0  0  0  # atno 10765 bound_to 10752
  140.5981  133.9861  155.8119 H   0  0  0  0  0  0  0  0  0  0  0  0  # atno 11005 bound_to 11000
  146.2611  140.5038  142.8853 LP  0  0  0  0  0  0  0  0  0  0  0  0  # atno 17320 bound_to 7965
  144.8188  140.6514  143.6367 LP  0  0  0  0  0  0  0  0  0  0  0  0  # atno 17321 bound_to 7965
  140.6778  143.2313  151.5462 LP  0  0  0  0  0  0  0  0  0  0  0  0  # atno 17342 bound_to 10162
  139.5487  144.2453  152.1490 LP  0  0  0  0  0  0  0  0  0  0  0  0  # atno 17343 bound_to 10162
  157.5922  130.8452  149.8676 LP  0  0  0  0  0  0  0  0  0  0  0  0  # atno 17370 bound_to 10713
  156.0502  130.3719  150.1220 LP  0  0  0  0  0  0  0  0  0  0  0  0  # atno 17371 bound_to 10713
  141.0890  133.9946  157.3267 LP  0  0  0  0  0  0  0  0  0  0  0  0  # atno 17394 bound_to 11000
  139.9244  135.0201  156.8182 LP  0  0  0  0  0  0  0  0  0  0  0  0  # atno 17395 bound_to 11000

$$$$
