AV-unprocessed.smi:2568|AV-procd|sdf|10098|dock3
  -GOLD-   2272014113D 1   1.00000     0.00000
 Structure written by MMmdl.
 24 25  0  0  0  0  0  0  0  0  3 V2000
  153.3698  138.2071  154.3602 C   0  0  0  0  0  0  0  0  0  0  0  0
  152.5807  139.1279  155.2620 C   0  0  0  0  0  0  0  0  0  0  0  0
  152.8271  139.3610  156.5632 N   0  5  0  0  0  0  0  0  0  0  0  0
  151.9452  140.2165  157.0381 N   0  0  0  0  0  0  0  0  0  0  0  0
  151.1495  140.5202  156.0013 C   0  0  0  0  0  0  0  0  0  0  0  0
  149.9564  141.4493  156.0820 C   0  0  2  0  0  0  0  0  0  0  0  0
  149.7696  141.9890  157.5135 C   0  0  0  0  0  0  0  0  0  0  0  0
  148.5959  142.8815  157.5734 N   0  3  0  0  0  0  0  0  0  0  0  0
  147.3809  142.2145  157.0672 C   0  0  0  0  0  0  0  0  0  0  0  0
  147.6325  141.6632  155.6537 C   0  0  0  0  0  0  0  0  0  0  0  0
  148.7575  140.7920  155.6745 O   0  0  0  0  0  0  0  0  0  0  0  0
  151.5217  139.8463  154.9035 N   0  0  0  0  0  0  0  0  0  0  0  0
  154.1792  137.7279  154.9114 H   0  0  0  0  0  0  0  0  0  0  0  0
  153.8016  138.7692  153.5321 H   0  0  0  0  0  0  0  0  0  0  0  0
  152.7224  137.4305  153.9529 H   0  0  0  0  0  0  0  0  0  0  0  0
  150.1470  142.2798  155.3997 H   0  0  0  0  0  0  0  0  0  0  0  0
  149.6298  141.1653  158.2153 H   0  0  0  0  0  0  0  0  0  0  0  0
  150.6539  142.5392  157.8366 H   0  0  0  0  0  0  0  0  0  0  0  0
  148.4469  143.1754  158.5282 H   0  0  0  0  0  0  0  0  0  0  0  0
  147.1083  141.4042  157.7447 H   0  0  0  0  0  0  0  0  0  0  0  0
  146.5530  142.9237  157.0622 H   0  0  0  0  0  0  0  0  0  0  0  0
  146.7614  141.1073  155.3067 H   0  0  0  0  0  0  0  0  0  0  0  0
  147.7978  142.4733  154.9415 H   0  0  0  0  0  0  0  0  0  0  0  0
  148.7813  143.6937  157.0025 H   0  0  0  0  0  0  0  0  0  0  0  0
  1 13  1  0  0  0  0
  1 14  1  0  0  0  0
  1 15  1  0  0  0  0
  1  2  1  0  0  0  0
  2 12  2  0  0  0  0
  2  3  1  0  0  0  0
  3  4  1  0  0  0  0
  4  5  2  0  0  0  0
  5 12  1  0  0  0  0
  5  6  1  0  0  0  0
  6 11  1  0  0  0  0
  6  7  1  0  0  0  0
  6 16  1  0  0  0  0
  7  8  1  0  0  0  0
  7 17  1  0  0  0  0
  7 18  1  0  0  0  0
  8  9  1  0  0  0  0
  8 19  1  0  0  0  0
  8 24  1  0  0  0  0
  9 10  1  0  0  0  0
  9 20  1  0  0  0  0
  9 21  1  0  0  0  0
 10 11  1  0  0  0  0
 10 22  1  0  0  0  0
 10 23  1  0  0  0  0
M  CHG  1   3  -1
M  CHG  1   8   1
M  END
> <s_m_source_file>
AV-unprocessed.smi

> <i_m_source_file_index>
2568

> <i_lp_mmshare_version>
43012

> <i_f3d_flags>
0

> <s_epik_input>
W0NIM11jMW5bbkhdYyhuMSlbQ0BASF0yW0NIMl1bTkhdW0NIMl1bQ0gyXU8y

> <s_epik_cmdline>
J2VwaWtfcHl0aG9uJywgJy1waCcsICc3LjAnLCAnLXRuJywgJzgnLCAnLW1hJywgJzIwMCcsICctbWV0YWxfYmluZGluZycsICctaW1hZScsICc8aW5maWxlLm1hZT4nLCAnLW9tYWUnLCAnPG91dGZpbGUubWFlPic=

> <r_lp_tautomer_probability>
0.948284

> <r_epik_Ionization_Penalty>
5.18319

> <r_epik_Ionization_Penalty_Charging>
5.18319

> <r_epik_Ionization_Penalty_Neutral>
2.73247e-13

> <r_epik_State_Penalty>
2.89074

> <r_epik_Charging_Adjusted_Penalty>
8.07392

> <i_epik_Tot_Q>
0

> <i_epik_Tot_abs_Q>
2

> <r_epik_Metal_State_Penalty>
0.548499

> <b_epik_Metal_Only>
1

> <s_lp_Force_Field>
OPLS_2005

> <r_lp_Energy>
8.28058

> <b_lp_Chiralities_Consistent>
1

> <s_lp_Variant>
AV-unprocessed.smi:2568-11

> <Gold.Version>
5.8.1

> <Gold.Id.Protein>
6NUR|6NUR_protein|mol2

> <Gold.PLP.Fitness>
32.4432

> <Gold.PLP.PLP>
-17.4751

> <Gold.PLP.part.hbond>
-3.6697

> <Gold.PLP.part.metal>
0.0000

> <Gold.PLP.part.buried>
0.1016

> <Gold.PLP.part.nonpolar>
-13.6815

> <Gold.PLP.part.repulsive>
0.1691

> <Gold.PLP.ligand.clash>
0.0000

> <Gold.PLP.ligand.torsion>
0.0218

> <Gold.PLP.Chemscore.Hbond>
5.0000

> <Gold.PLP.Chemscore.CHOScore>
0.0000

> <Gold.PLP.Chemscore.Metal>
0.0000

> <Gold.Chemscore.Hbonds>
donor molecule, donor type, donor heavy atom, donor atom, acceptor molecule, acceptor atom, score
      L1  H     8    24       P1  8028  2.00
      P1  H  7989  7998       L1    12  1.00
      P1  H  7997  8009       L1     3  1.90

> <Gold.PLP.Chemscore.Internal.Correction>
0.0117

> <Gold.Rescore>
     Score         DG    S(hbond)    S(metal)    S(lipo)     H(rot)  DE(clash)    DE(int)     intcor
     10.92     -10.95       1.51        0.00      25.36       1.00       0.02       0.01       ----

> <Gold.Chemscore.Fitness>
10.9178

> <Gold.Chemscore.DG>
-10.9461

> <Gold.Chemscore.ZeroCoef>
-5.4800

> <Gold.Chemscore.Hbond>
1.5147

> <Gold.Chemscore.Metal>
0.0000

> <Gold.Chemscore.Lipo>
25.3598

> <Gold.Chemscore.Internal_Hbond>
0.0000

> <Gold.Chemscore.DEClash>
0.0184

> <Gold.Chemscore.DEInternal>
0.0099

> <Gold.Chemscore.Rot>
1.0000

> <Gold.Chemscore.Internal.Correction>
   9.000000E+99

> <Gold.Chemscore.Hbonds>
donor molecule, donor type, donor heavy atom, donor atom, acceptor molecule, acceptor atom, score
      L1  H     8    24       P1  8028  0.26
      P1  H  7989  7998       L1    12  0.81
      P1  H  7997  8009       L1     3  0.16

> <Gold.Chemscore.Hbond.Weighted>
-5.0590

> <Gold.Chemscore.Metal.Weighted>
-0.0000

> <Gold.Chemscore.Lipo.Weighted>
-2.9671

> <Gold.Chemscore.Internal_Hbond.Weighted>
0.0000

> <Gold.Chemscore.DEClash.Weighted>
0.0184

> <Gold.Chemscore.DEInternal.Weighted>
0.0099

> <Gold.Chemscore.Rot.Weighted>
2.5600

> <Gold.Chemscore.Internal.Correction.Weighted>
   9.000000E+99

> <Gold.Protein.RotatedTorsions>
[ 6907 6896 6895 6894 ] final    1.68 input  -60.11 | X-H torsion
[ 7974 7965 7964 7962 ] final  -13.54 input  175.53 | X-H torsion
[ 8008 7997 7996 7995 ] final -166.16 input   59.86 | X-H torsion
[ 10167 10162 10161 10158 ] final  177.37 input  -65.29 | X-H torsion
[ 10718 10713 10712 10709 ] final  122.82 input   66.30 | X-H torsion
[ 10763 10752 10751 10750 ] final  -11.78 input  -60.55 | X-H torsion
[ 11005 11000 10999 10996 ] final  132.13 input  -57.11 | X-H torsion

> <Gold.Protein.ActiveResidues>
 VAL166  LYS551  ARG553  GLY616  TRP617  ASP618  TYR619  PRO620  LYS621  CYS622 
 ASP623  PHE694  ASN695  SER759  ASP760  ASP761  ALA762  ILE779  LEU786  VAL792 
 PHE793  MET794  SER795  GLU796  ALA797  LYS798  CYS799  TRP800  GLU811  SER814 

> <Gold.Protein.RotatedAtoms>
  151.5966  135.1050  160.0050 H   0  0  0  0  0  0  0  0  0  0  0  0  # atno 6907 bound_to 6896
  152.4279  133.7223  159.6551 H   0  0  0  0  0  0  0  0  0  0  0  0  # atno 6908 bound_to 6896
  150.8169  133.8249  159.3178 H   0  0  0  0  0  0  0  0  0  0  0  0  # atno 6909 bound_to 6896
  146.2110  140.3218  142.8391 H   0  0  0  0  0  0  0  0  0  0  0  0  # atno 7974 bound_to 7965
  155.8599  140.0976  157.1620 H   0  0  0  0  0  0  0  0  0  0  0  0  # atno 8008 bound_to 7997
  154.3990  140.1367  156.4010 H   0  0  0  0  0  0  0  0  0  0  0  0  # atno 8009 bound_to 7997
  155.7868  140.3457  155.5330 H   0  0  0  0  0  0  0  0  0  0  0  0  # atno 8010 bound_to 7997
  139.5250  144.2806  152.0550 H   0  0  0  0  0  0  0  0  0  0  0  0  # atno 10167 bound_to 10162
  157.5713  131.1083  150.8362 H   0  0  0  0  0  0  0  0  0  0  0  0  # atno 10718 bound_to 10713
  153.4888  135.7017  153.5896 H   0  0  0  0  0  0  0  0  0  0  0  0  # atno 10763 bound_to 10752
  153.4077  135.3856  155.2030 H   0  0  0  0  0  0  0  0  0  0  0  0  # atno 10764 bound_to 10752
  154.8718  135.3897  154.4346 H   0  0  0  0  0  0  0  0  0  0  0  0  # atno 10765 bound_to 10752
  139.9771  134.9560  156.9537 H   0  0  0  0  0  0  0  0  0  0  0  0  # atno 11005 bound_to 11000
  144.8914  140.7529  143.5924 LP  0  0  0  0  0  0  0  0  0  0  0  0  # atno 17320 bound_to 7965
  145.3141  139.1809  143.4623 LP  0  0  0  0  0  0  0  0  0  0  0  0  # atno 17321 bound_to 7965
  140.2261  144.4416  150.6320 LP  0  0  0  0  0  0  0  0  0  0  0  0  # atno 17342 bound_to 10162
  140.6386  143.2199  151.6340 LP  0  0  0  0  0  0  0  0  0  0  0  0  # atno 17343 bound_to 10162
  156.8833  130.5187  149.5290 LP  0  0  0  0  0  0  0  0  0  0  0  0  # atno 17370 bound_to 10713
  156.0758  130.5780  150.9471 LP  0  0  0  0  0  0  0  0  0  0  0  0  # atno 17371 bound_to 10713
  140.5172  134.0944  155.7283 LP  0  0  0  0  0  0  0  0  0  0  0  0  # atno 17394 bound_to 11000
  141.1447  133.9076  157.2243 LP  0  0  0  0  0  0  0  0  0  0  0  0  # atno 17395 bound_to 11000

$$$$
