AV-unprocessed.smi:221|AV-procd|sdf|1696|dock10
  -GOLD-   2262020143D 1   1.00000     0.00000
 Structure written by MMmdl.
 50 53  0  0  0  0  0  0  0  0  1 V2000
  149.5810  142.1072  155.0800 N   0  0  0  0  0  0  0  0  0  0  0  0
  150.4241  141.3777  155.8183 C   0  0  0  0  0  0  0  0  0  0  0  0
  151.0261  140.4166  155.3450 O   0  0  0  0  0  0  0  0  0  0  0  0
  150.6440  141.7626  157.2948 C   0  0  2  0  0  0  0  0  0  0  0  0
  151.2936  143.1518  157.4100 C   0  0  0  0  0  0  0  0  0  0  0  0
  151.9930  143.1011  158.7622 C   0  0  2  0  0  0  0  0  0  0  0  0
  152.9727  143.9983  158.8684 F   0  0  0  0  0  0  0  0  0  0  0  0
  152.4998  141.6634  158.8368 C   0  0  0  0  0  0  0  0  0  0  0  0
  151.5623  140.8841  158.0350 N   0  0  0  0  0  0  0  0  0  0  0  0
  151.2009  139.6442  158.4640 C   0  0  0  0  0  0  0  0  0  0  0  0
  152.0997  138.8820  159.1420 N   0  0  0  0  0  0  0  0  0  0  0  0
  151.7686  137.6621  159.5739 C   0  0  0  0  0  0  0  0  0  0  0  0
  150.6076  137.0187  159.4436 N   0  0  0  0  0  0  0  0  0  0  0  0
  149.6949  137.7792  158.7751 C   0  0  0  0  0  0  0  0  0  0  0  0
  149.9040  139.0897  158.2574 C   0  0  0  0  0  0  0  0  0  0  0  0
  148.7361  139.5475  157.6566 N   0  0  0  0  0  0  0  0  0  0  0  0
  147.8915  138.5636  157.8014 C   0  0  0  0  0  0  0  0  0  0  0  0
  148.3833  137.4639  158.4656 N   0  0  0  0  0  0  0  0  0  0  0  0
  147.6604  136.2397  158.7633 C   0  0  0  0  0  0  0  0  0  0  0  0
  148.5976  135.0806  159.1893 C   0  0  2  0  0  0  0  0  0  0  0  0
  148.7711  134.0491  158.0502 C   0  0  0  0  0  0  0  0  0  0  0  0
  149.7289  133.0678  158.3883 O   0  0  0  0  0  0  0  0  0  0  0  0
  148.1697  134.4039  160.5209 C   0  0  1  0  0  0  0  0  0  0  0  0
  147.8869  135.3518  161.6875 C   0  0  0  0  0  0  0  0  0  0  0  0
  146.6004  134.8062  162.3123 C   0  0  0  0  0  0  0  0  0  0  0  0
  146.4970  133.4800  161.8178 O   0  0  0  0  0  0  0  0  0  0  0  0
  146.9210  133.5162  160.4658 C   0  0  0  0  0  0  0  0  0  0  0  0
  149.6784  141.7878  157.8032 H   0  0  0  0  0  0  0  0  0  0  0  0
  151.2770  143.2932  159.5627 H   0  0  0  0  0  0  0  0  0  0  0  0
  149.4270  141.8687  154.1111 H   0  0  0  0  0  0  0  0  0  0  0  0
  149.1029  142.8941  155.4944 H   0  0  0  0  0  0  0  0  0  0  0  0
  152.0341  143.3025  156.6217 H   0  0  0  0  0  0  0  0  0  0  0  0
  150.5675  143.9630  157.3460 H   0  0  0  0  0  0  0  0  0  0  0  0
  153.4909  141.5770  158.3898 H   0  0  0  0  0  0  0  0  0  0  0  0
  152.5622  141.3304  159.8739 H   0  0  0  0  0  0  0  0  0  0  0  0
  152.5449  137.1256  160.0992 H   0  0  0  0  0  0  0  0  0  0  0  0
  146.8780  138.6145  157.4304 H   0  0  0  0  0  0  0  0  0  0  0  0
  146.9368  136.4719  159.5435 H   0  0  0  0  0  0  0  0  0  0  0  0
  147.0808  135.9631  157.8827 H   0  0  0  0  0  0  0  0  0  0  0  0
  149.5802  135.5195  159.3706 H   0  0  0  0  0  0  0  0  0  0  0  0
  147.8228  133.5649  157.8159 H   0  0  0  0  0  0  0  0  0  0  0  0
  149.1168  134.5278  157.1345 H   0  0  0  0  0  0  0  0  0  0  0  0
  149.3007  132.2255  158.4129 H   0  0  0  0  0  0  0  0  0  0  0  0
  148.9877  133.7651  160.8569 H   0  0  0  0  0  0  0  0  0  0  0  0
  148.7090  135.3150  162.4038 H   0  0  0  0  0  0  0  0  0  0  0  0
  147.7671  136.3936  161.3918 H   0  0  0  0  0  0  0  0  0  0  0  0
  146.6198  134.8268  163.4022 H   0  0  0  0  0  0  0  0  0  0  0  0
  145.7364  135.3818  161.9755 H   0  0  0  0  0  0  0  0  0  0  0  0
  146.1240  133.9497  159.8621 H   0  0  0  0  0  0  0  0  0  0  0  0
  147.1327  132.5162  160.0863 H   0  0  0  0  0  0  0  0  0  0  0  0
  1  2  1  0  0  0  0
  1 30  1  0  0  0  0
  1 31  1  0  0  0  0
  2  3  2  0  0  0  0
  2  4  1  0  0  0  0
  4 28  1  0  0  0  0
  4  9  1  0  0  0  0
  4  5  1  0  0  0  0
  5  6  1  0  0  0  0
  5 32  1  0  0  0  0
  5 33  1  0  0  0  0
  6 29  1  0  0  0  0
  6  7  1  0  0  0  0
  6  8  1  0  0  0  0
  8  9  1  0  0  0  0
  8 34  1  0  0  0  0
  8 35  1  0  0  0  0
  9 10  1  0  0  0  0
 10 15  1  0  0  0  0
 10 11  2  0  0  0  0
 11 12  1  0  0  0  0
 12 13  2  0  0  0  0
 12 36  1  0  0  0  0
 13 14  1  0  0  0  0
 14 18  1  0  0  0  0
 14 15  2  0  0  0  0
 15 16  1  0  0  0  0
 16 17  2  0  0  0  0
 17 18  1  0  0  0  0
 17 37  1  0  0  0  0
 18 19  1  0  0  0  0
 19 20  1  0  0  0  0
 19 38  1  0  0  0  0
 19 39  1  0  0  0  0
 20 21  1  0  0  0  0
 20 23  1  0  0  0  0
 20 40  1  0  0  0  0
 21 22  1  0  0  0  0
 21 41  1  0  0  0  0
 21 42  1  0  0  0  0
 22 43  1  0  0  0  0
 23 27  1  0  0  0  0
 23 24  1  0  0  0  0
 23 44  1  0  0  0  0
 24 25  1  0  0  0  0
 24 45  1  0  0  0  0
 24 46  1  0  0  0  0
 25 26  1  0  0  0  0
 25 47  1  0  0  0  0
 25 48  1  0  0  0  0
 26 27  1  0  0  0  0
 27 49  1  0  0  0  0
 27 50  1  0  0  0  0
M  END
> <s_m_source_file>
AV-unprocessed.smi

> <i_m_source_file_index>
221

> <i_lp_mmshare_version>
43012

> <i_f3d_flags>
0

> <s_epik_input>
W05IMl1DKD1PKVtDQEBIXTFbQ0gyXVtDQEBIXShGKVtDSDJdTjFjKG5bY0hdbjIpYyhjMjMpbltjSF1uM1tDSDJdW0NASF0oW0NIMl1bT0hdKVtDQEBIXTRbQ0gyXVtDSDJdT1tDSDJdNA==

> <s_epik_cmdline>
J2VwaWtfcHl0aG9uJywgJy1waCcsICc3LjAnLCAnLXRuJywgJzgnLCAnLW1hJywgJzIwMCcsICctbWV0YWxfYmluZGluZycsICctaW1hZScsICc8aW5maWxlLm1hZT4nLCAnLW9tYWUnLCAnPG91dGZpbGUubWFlPic=

> <r_lp_tautomer_probability>
1

> <r_epik_Ionization_Penalty>
0.000818822

> <r_epik_Ionization_Penalty_Charging>
0

> <r_epik_Ionization_Penalty_Neutral>
0.000818822

> <r_epik_State_Penalty>
0.000440551

> <r_epik_Charging_Adjusted_Penalty>
0.000440551

> <i_epik_Tot_Q>
0

> <i_epik_Tot_abs_Q>
0

> <r_epik_Metal_State_Penalty>
-0

> <b_epik_Metal_Only>
0

> <s_lp_Force_Field>
OPLS_2005

> <r_lp_Energy>
49.7935

> <b_lp_Chiralities_Consistent>
1

> <s_lp_Variant>
AV-unprocessed.smi:221-11

> <Gold.Version>
5.8.1

> <Gold.Id.Protein>
6NUR|6NUR_protein|mol2

> <Gold.PLP.Fitness>
50.8153

> <Gold.PLP.PLP>
-41.9346

> <Gold.PLP.part.hbond>
-3.8844

> <Gold.PLP.part.metal>
0.0000

> <Gold.PLP.part.buried>
-7.5289

> <Gold.PLP.part.nonpolar>
-31.6864

> <Gold.PLP.part.repulsive>
0.2710

> <Gold.PLP.ligand.clash>
0.0000

> <Gold.PLP.ligand.torsion>
1.1933

> <Gold.PLP.Chemscore.Hbond>
3.6433

> <Gold.PLP.Chemscore.CHOScore>
0.0000

> <Gold.PLP.Chemscore.Metal>
0.0000

> <Gold.Chemscore.Hbonds>
donor molecule, donor type, donor heavy atom, donor atom, acceptor molecule, acceptor atom, score
      L1  H     1    31       P1  8028  0.99
      P1  H  6896  6907       L1    22  0.93
      P1  H  6896  6908       L1    13  0.98
      P1  H  7989  7998       L1     3  0.99

> <Gold.PLP.Chemscore.Internal.Correction>
0.3373

> <Gold.Rescore>
     Score         DG    S(hbond)    S(metal)    S(lipo)     H(rot)  DE(clash)    DE(int)     intcor
     11.71     -15.43       2.93        0.00      73.91       3.31       0.12       3.60       ----

> <Gold.Chemscore.Fitness>
11.7115

> <Gold.Chemscore.DG>
-15.4326

> <Gold.Chemscore.ZeroCoef>
-5.4800

> <Gold.Chemscore.Hbond>
2.9269

> <Gold.Chemscore.Metal>
0.0000

> <Gold.Chemscore.Lipo>
73.9114

> <Gold.Chemscore.Internal_Hbond>
0.0000

> <Gold.Chemscore.DEClash>
0.1237

> <Gold.Chemscore.DEInternal>
3.5974

> <Gold.Chemscore.Rot>
3.3089

> <Gold.Chemscore.Internal.Correction>
   9.000000E+99

> <Gold.Chemscore.Hbonds>
donor molecule, donor type, donor heavy atom, donor atom, acceptor molecule, acceptor atom, score
      L1  H     1    31       P1  8028  0.94
      P1  H  6896  6907       L1    22  0.88
      P1  H  6896  6908       L1    13  0.32
      P1  H  7989  7998       L1     3  0.64

> <Gold.Chemscore.Hbond.Weighted>
-9.7758

> <Gold.Chemscore.Metal.Weighted>
-0.0000

> <Gold.Chemscore.Lipo.Weighted>
-8.6476

> <Gold.Chemscore.Internal_Hbond.Weighted>
0.0000

> <Gold.Chemscore.DEClash.Weighted>
0.1237

> <Gold.Chemscore.DEInternal.Weighted>
3.5974

> <Gold.Chemscore.Rot.Weighted>
8.4709

> <Gold.Chemscore.Internal.Correction.Weighted>
   9.000000E+99

> <Gold.Protein.RotatedTorsions>
[ 6907 6896 6895 6894 ] final -146.22 input  -60.11 | X-H torsion
[ 7974 7965 7964 7962 ] final  155.40 input  175.53 | X-H torsion
[ 8008 7997 7996 7995 ] final  -78.13 input   59.86 | X-H torsion
[ 10167 10162 10161 10158 ] final -132.90 input  -65.29 | X-H torsion
[ 10718 10713 10712 10709 ] final -164.68 input   66.30 | X-H torsion
[ 10763 10752 10751 10750 ] final  126.62 input  -60.55 | X-H torsion
[ 11005 11000 10999 10996 ] final   40.86 input  -57.11 | X-H torsion

> <Gold.Protein.ActiveResidues>
 VAL166  LYS551  ARG553  GLY616  TRP617  ASP618  TYR619  PRO620  LYS621  CYS622 
 ASP623  PHE694  ASN695  SER759  ASP760  ASP761  ALA762  ILE779  LEU786  VAL792 
 PHE793  MET794  SER795  GLU796  ALA797  LYS798  CYS799  TRP800  GLU811  SER814 

> <Gold.Protein.RotatedAtoms>
  151.1386  133.4987  159.2597 H   0  0  0  0  0  0  0  0  0  0  0  0  # atno 6907 bound_to 6896
  151.1680  135.0304  159.8749 H   0  0  0  0  0  0  0  0  0  0  0  0  # atno 6908 bound_to 6896
  152.5462  134.1252  159.8469 H   0  0  0  0  0  0  0  0  0  0  0  0  # atno 6909 bound_to 6896
  144.8027  139.7063  143.6175 H   0  0  0  0  0  0  0  0  0  0  0  0  # atno 7974 bound_to 7965
  154.5661  140.0699  156.8893 H   0  0  0  0  0  0  0  0  0  0  0  0  # atno 8008 bound_to 7997
  155.2721  140.3366  155.4246 H   0  0  0  0  0  0  0  0  0  0  0  0  # atno 8009 bound_to 7997
  156.2081  140.1748  156.7741 H   0  0  0  0  0  0  0  0  0  0  0  0  # atno 8010 bound_to 7997
  139.9038  143.6576  152.2589 H   0  0  0  0  0  0  0  0  0  0  0  0  # atno 10167 bound_to 10162
  156.6426  130.8975  151.2999 H   0  0  0  0  0  0  0  0  0  0  0  0  # atno 10718 bound_to 10713
  153.6963  135.3290  155.3214 H   0  0  0  0  0  0  0  0  0  0  0  0  # atno 10763 bound_to 10752
  154.8425  135.4443  154.1456 H   0  0  0  0  0  0  0  0  0  0  0  0  # atno 10764 bound_to 10752
  153.2512  135.6981  153.7756 H   0  0  0  0  0  0  0  0  0  0  0  0  # atno 10765 bound_to 10752
  140.1889  134.4011  155.8157 H   0  0  0  0  0  0  0  0  0  0  0  0  # atno 11005 bound_to 11000
  146.2312  139.5818  142.9554 LP  0  0  0  0  0  0  0  0  0  0  0  0  # atno 17320 bound_to 7965
  145.5513  141.0413  143.2277 LP  0  0  0  0  0  0  0  0  0  0  0  0  # atno 17321 bound_to 7965
  139.7002  144.7636  151.1287 LP  0  0  0  0  0  0  0  0  0  0  0  0  # atno 17342 bound_to 10162
  140.7701  143.5468  150.9249 LP  0  0  0  0  0  0  0  0  0  0  0  0  # atno 17343 bound_to 10162
  157.7166  130.9505  150.1279 LP  0  0  0  0  0  0  0  0  0  0  0  0  # atno 17370 bound_to 10713
  156.2147  130.3669  149.8627 LP  0  0  0  0  0  0  0  0  0  0  0  0  # atno 17371 bound_to 10713
  141.2226  133.7037  156.8062 LP  0  0  0  0  0  0  0  0  0  0  0  0  # atno 17394 bound_to 11000
  140.2182  134.8777  157.3348 LP  0  0  0  0  0  0  0  0  0  0  0  0  # atno 17395 bound_to 11000

$$$$
