AV-unprocessed.smi:464|AV-procd|sdf|2637|dock10
  -GOLD-   2262023 43D 1   1.00000     0.00000
 Structure written by MMmdl.
 24 25  0  0  0  0  0  0  0  0  2 V2000
  151.7562  138.0348  154.1907 O   0  0  0  0  0  0  0  0  0  0  0  0
  151.6196  138.9649  154.9822 C   0  0  0  0  0  0  0  0  0  0  0  0
  150.7639  140.0100  154.7822 N   0  5  0  0  0  0  0  0  0  0  0  0
  150.7317  140.9542  155.7454 C   0  0  0  0  0  0  0  0  0  0  0  0
  151.4679  140.9815  156.9131 C   0  0  0  0  0  0  0  0  0  0  0  0
  151.3854  141.9889  157.8615 N   0  0  0  0  0  0  0  0  0  0  0  0
  151.2411  143.3961  157.5173 C   0  0  0  0  0  0  0  0  0  0  0  0
  152.4711  144.1868  157.9981 C   0  0  0  0  0  0  0  0  0  0  0  0
  152.6563  143.9803  159.3962 O   0  0  0  0  0  0  0  0  0  0  0  0
  152.8771  142.6077  159.7108 C   0  0  0  0  0  0  0  0  0  0  0  0
  151.6579  141.7749  159.2755 C   0  0  0  0  0  0  0  0  0  0  0  0
  152.3830  139.8539  157.1216 C   0  0  0  0  0  0  0  0  0  0  0  0
  153.1117  139.7148  158.1034 O   0  0  0  0  0  0  0  0  0  0  0  0
  152.3730  138.9346  156.1179 N   0  0  0  0  0  0  0  0  0  0  0  0
  152.9909  138.1439  156.2253 H   0  0  0  0  0  0  0  0  0  0  0  0
  150.0326  141.7988  155.5635 H   0  0  0  0  0  0  0  0  0  0  0  0
  151.1172  143.5117  156.4397 H   0  0  0  0  0  0  0  0  0  0  0  0
  150.3349  143.7844  157.9835 H   0  0  0  0  0  0  0  0  0  0  0  0
  153.3668  143.8829  157.4542 H   0  0  0  0  0  0  0  0  0  0  0  0
  152.3311  145.2512  157.8107 H   0  0  0  0  0  0  0  0  0  0  0  0
  153.7859  142.2544  159.2212 H   0  0  0  0  0  0  0  0  0  0  0  0
  153.0357  142.5098  160.7847 H   0  0  0  0  0  0  0  0  0  0  0  0
  150.7784  142.0601  159.8539 H   0  0  0  0  0  0  0  0  0  0  0  0
  151.8358  140.7166  159.4710 H   0  0  0  0  0  0  0  0  0  0  0  0
  1  2  2  0  0  0  0
  2 14  1  0  0  0  0
  2  3  1  0  0  0  0
  3  4  1  0  0  0  0
  4  5  2  0  0  0  0
  4 16  1  0  0  0  0
  5  6  1  0  0  0  0
  5 12  1  0  0  0  0
  6 11  1  0  0  0  0
  6  7  1  0  0  0  0
  7  8  1  0  0  0  0
  7 17  1  0  0  0  0
  7 18  1  0  0  0  0
  8  9  1  0  0  0  0
  8 19  1  0  0  0  0
  8 20  1  0  0  0  0
  9 10  1  0  0  0  0
 10 11  1  0  0  0  0
 10 21  1  0  0  0  0
 10 22  1  0  0  0  0
 11 23  1  0  0  0  0
 11 24  1  0  0  0  0
 12 13  2  0  0  0  0
 12 14  1  0  0  0  0
 14 15  1  0  0  0  0
M  CHG  1   3  -1
M  END
> <s_m_source_file>
AV-unprocessed.smi

> <i_m_source_file_index>
464

> <i_lp_mmshare_version>
43012

> <i_f3d_flags>
0

> <s_epik_input>
Tz1jMVtuSF1bY0hdYyhjKD1PKVtuSF0xKU4yW0NIMl1bQ0gyXU9bQ0gyXVtDSDJdMg==

> <s_epik_cmdline>
J2VwaWtfcHl0aG9uJywgJy1waCcsICc3LjAnLCAnLXRuJywgJzgnLCAnLW1hJywgJzIwMCcsICctbWV0YWxfYmluZGluZycsICctaW1hZScsICc8aW5maWxlLm1hZT4nLCAnLW9tYWUnLCAnPG91dGZpbGUubWFlPic=

> <r_lp_tautomer_probability>
0.999801

> <r_epik_Ionization_Penalty>
2.66523

> <r_epik_Ionization_Penalty_Charging>
1.22855e-06

> <r_epik_Ionization_Penalty_Neutral>
2.66523

> <r_epik_State_Penalty>
2.66349

> <r_epik_Charging_Adjusted_Penalty>
2.66349

> <i_epik_Tot_Q>
-1

> <i_epik_Tot_abs_Q>
1

> <r_epik_Metal_State_Penalty>
0.434838

> <b_epik_Metal_Only>
1

> <s_lp_Force_Field>
OPLS_2005

> <r_lp_Energy>
24.7156

> <b_lp_Chiralities_Consistent>
1

> <s_lp_Variant>
AV-unprocessed.smi:464-2

> <Gold.Version>
5.8.1

> <Gold.Id.Protein>
6NUR|6NUR_protein|mol2

> <Gold.PLP.Fitness>
32.3628

> <Gold.PLP.PLP>
-27.4825

> <Gold.PLP.part.hbond>
-2.0000

> <Gold.PLP.part.metal>
0.0000

> <Gold.PLP.part.buried>
-2.6842

> <Gold.PLP.part.nonpolar>
-22.6507

> <Gold.PLP.part.repulsive>
0.4020

> <Gold.PLP.ligand.clash>
0.0000

> <Gold.PLP.ligand.torsion>
0.4600

> <Gold.PLP.Chemscore.Hbond>
1.8208

> <Gold.PLP.Chemscore.CHOScore>
0.0000

> <Gold.PLP.Chemscore.Metal>
0.0000

> <Gold.Chemscore.Hbonds>
donor molecule, donor type, donor heavy atom, donor atom, acceptor molecule, acceptor atom, score
      P1  H  7989  7998       L1     3  1.00
      P1  H  7997  8010       L1    13  0.78

> <Gold.PLP.Chemscore.Internal.Correction>
0.3380

> <Gold.Rescore>
     Score         DG    S(hbond)    S(metal)    S(lipo)     H(rot)  DE(clash)    DE(int)     intcor
     13.60     -15.30       0.84        0.00      59.85       0.00       0.00       1.70       ----

> <Gold.Chemscore.Fitness>
13.6044

> <Gold.Chemscore.DG>
-15.3027

> <Gold.Chemscore.ZeroCoef>
-5.4800

> <Gold.Chemscore.Hbond>
0.8444

> <Gold.Chemscore.Metal>
0.0000

> <Gold.Chemscore.Lipo>
59.8486

> <Gold.Chemscore.Internal_Hbond>
0.0000

> <Gold.Chemscore.DEClash>
0.0004

> <Gold.Chemscore.DEInternal>
1.6979

> <Gold.Chemscore.Rot>
0.0000

> <Gold.Chemscore.Internal.Correction>
   9.000000E+99

> <Gold.Chemscore.Hbonds>
donor molecule, donor type, donor heavy atom, donor atom, acceptor molecule, acceptor atom, score
      P1  H  7989  7998       L1     3  0.08
      P1  H  7997  8010       L1    13  0.13

> <Gold.Chemscore.Hbond.Weighted>
-2.8204

> <Gold.Chemscore.Metal.Weighted>
-0.0000

> <Gold.Chemscore.Lipo.Weighted>
-7.0023

> <Gold.Chemscore.Internal_Hbond.Weighted>
0.0000

> <Gold.Chemscore.DEClash.Weighted>
0.0004

> <Gold.Chemscore.DEInternal.Weighted>
1.6979

> <Gold.Chemscore.Rot.Weighted>
0.0000

> <Gold.Chemscore.Internal.Correction.Weighted>
   9.000000E+99

> <Gold.Protein.RotatedTorsions>
[ 6907 6896 6895 6894 ] final  119.94 input  -60.11 | X-H torsion
[ 7974 7965 7964 7962 ] final   16.64 input  175.53 | X-H torsion
[ 8008 7997 7996 7995 ] final   16.83 input   59.86 | X-H torsion
[ 10167 10162 10161 10158 ] final    9.69 input  -65.29 | X-H torsion
[ 10718 10713 10712 10709 ] final -139.68 input   66.30 | X-H torsion
[ 10763 10752 10751 10750 ] final -166.93 input  -60.55 | X-H torsion
[ 11005 11000 10999 10996 ] final  110.10 input  -57.11 | X-H torsion

> <Gold.Protein.ActiveResidues>
 VAL166  LYS551  ARG553  GLY616  TRP617  ASP618  TYR619  PRO620  LYS621  CYS622 
 ASP623  PHE694  ASN695  SER759  ASP760  ASP761  ALA762  ILE779  LEU786  VAL792 
 PHE793  MET794  SER795  GLU796  ALA797  LYS798  CYS799  TRP800  GLU811  SER814 

> <Gold.Protein.RotatedAtoms>
  152.4435  133.7492  159.6684 H   0  0  0  0  0  0  0  0  0  0  0  0  # atno 6907 bound_to 6896
  150.8330  133.8049  159.3097 H   0  0  0  0  0  0  0  0  0  0  0  0  # atno 6908 bound_to 6896
  151.5697  135.1065  160.0044 H   0  0  0  0  0  0  0  0  0  0  0  0  # atno 6909 bound_to 6896
  146.2243  139.8719  142.8586 H   0  0  0  0  0  0  0  0  0  0  0  0  # atno 7974 bound_to 7965
  154.8826  140.2975  155.5417 H   0  0  0  0  0  0  0  0  0  0  0  0  # atno 8008 bound_to 7997
  156.3022  140.2439  156.3764 H   0  0  0  0  0  0  0  0  0  0  0  0  # atno 8009 bound_to 7997
  154.8702  140.0402  157.1708 H   0  0  0  0  0  0  0  0  0  0  0  0  # atno 8010 bound_to 7997
  140.6239  143.8143  150.7209 H   0  0  0  0  0  0  0  0  0  0  0  0  # atno 10167 bound_to 10162
  156.3136  130.7495  151.1577 H   0  0  0  0  0  0  0  0  0  0  0  0  # atno 10718 bound_to 10713
  154.6783  135.2950  154.9648 H   0  0  0  0  0  0  0  0  0  0  0  0  # atno 10763 bound_to 10752
  154.0652  135.6626  153.4821 H   0  0  0  0  0  0  0  0  0  0  0  0  # atno 10764 bound_to 10752
  153.0530  135.5162  154.7813 H   0  0  0  0  0  0  0  0  0  0  0  0  # atno 10765 bound_to 10752
  139.8875  134.9475  156.6227 H   0  0  0  0  0  0  0  0  0  0  0  0  # atno 11005 bound_to 11000
  145.2600  141.0073  143.3832 LP  0  0  0  0  0  0  0  0  0  0  0  0  # atno 17320 bound_to 7965
  144.9306  139.4303  143.6497 LP  0  0  0  0  0  0  0  0  0  0  0  0  # atno 17321 bound_to 7965
  140.1740  143.4171  152.1981 LP  0  0  0  0  0  0  0  0  0  0  0  0  # atno 17342 bound_to 10162
  139.5463  144.7301  151.4574 LP  0  0  0  0  0  0  0  0  0  0  0  0  # atno 17343 bound_to 10162
  157.7396  131.0527  150.5218 LP  0  0  0  0  0  0  0  0  0  0  0  0  # atno 17370 bound_to 10713
  156.5361  130.4196  149.6177 LP  0  0  0  0  0  0  0  0  0  0  0  0  # atno 17371 bound_to 10713
  140.7726  133.8725  155.8504 LP  0  0  0  0  0  0  0  0  0  0  0  0  # atno 17394 bound_to 11000
  140.9828  134.1382  157.4479 LP  0  0  0  0  0  0  0  0  0  0  0  0  # atno 17395 bound_to 11000

$$$$
