AV-unprocessed.smi:375|AV-procd|sdf|2454|dock4
  -GOLD-   2262022393D 1   1.00000     0.00000
 Structure written by MMmdl.
 36 38  0  0  0  0  0  0  0  0  1 V2000
  154.2522  140.9050  160.6845 C   0  0  0  0  0  0  0  0  0  0  0  0
  153.2014  141.1245  159.6981 N   0  0  0  0  0  0  0  0  0  0  0  0
  152.5640  140.1846  158.9611 C   0  0  0  0  0  0  0  0  0  0  0  0
  152.7693  138.9715  159.0002 O   0  0  0  0  0  0  0  0  0  0  0  0
  151.6614  140.8132  158.1713 N   0  0  0  0  0  0  0  0  0  0  0  0
  150.7656  140.1859  157.2017 C   0  0  0  0  0  0  0  0  0  0  0  0
  150.9248  140.7955  155.7949 C   0  0  1  0  0  0  0  0  0  0  0  0
  152.0041  140.1538  155.1434 O   0  0  0  0  0  0  0  0  0  0  0  0
  149.6317  140.6635  155.0001 C   0  0  0  0  0  0  0  0  0  0  0  0
  148.8643  141.8084  154.6873 C   0  0  0  0  0  0  0  0  0  0  0  0
  147.6750  141.6883  153.9429 C   0  0  0  0  0  0  0  0  0  0  0  0
  147.2458  140.4226  153.5014 C   0  0  0  0  0  0  0  0  0  0  0  0
  148.0090  139.2786  153.8015 C   0  0  0  0  0  0  0  0  0  0  0  0
  149.1992  139.3962  154.5459 C   0  0  0  0  0  0  0  0  0  0  0  0
  149.9247  138.2843  154.8162 F   0  0  0  0  0  0  0  0  0  0  0  0
  151.7296  142.1943  158.4046 C   0  0  0  0  0  0  0  0  0  0  0  0
  151.0178  143.2659  157.8379 C   0  0  0  0  0  0  0  0  0  0  0  0
  151.3322  144.5659  158.2992 C   0  0  0  0  0  0  0  0  0  0  0  0
  152.3260  144.7647  159.2927 C   0  0  0  0  0  0  0  0  0  0  0  0
  153.0287  143.6678  159.8448 C   0  0  0  0  0  0  0  0  0  0  0  0
  152.6972  142.3885  159.3674 C   0  0  0  0  0  0  0  0  0  0  0  0
  154.5477  139.8567  160.7434 H   0  0  0  0  0  0  0  0  0  0  0  0
  153.9112  141.2164  161.6720 H   0  0  0  0  0  0  0  0  0  0  0  0
  155.1373  141.4880  160.4284 H   0  0  0  0  0  0  0  0  0  0  0  0
  150.8962  139.1024  157.1792 H   0  0  0  0  0  0  0  0  0  0  0  0
  149.7475  140.3518  157.5562 H   0  0  0  0  0  0  0  0  0  0  0  0
  151.1804  141.8527  155.8747 H   0  0  0  0  0  0  0  0  0  0  0  0
  152.7312  140.1052  155.7452 H   0  0  0  0  0  0  0  0  0  0  0  0
  149.1871  142.7861  155.0142 H   0  0  0  0  0  0  0  0  0  0  0  0
  147.0930  142.5678  153.7092 H   0  0  0  0  0  0  0  0  0  0  0  0
  146.3342  140.3298  152.9297 H   0  0  0  0  0  0  0  0  0  0  0  0
  147.6824  138.3081  153.4580 H   0  0  0  0  0  0  0  0  0  0  0  0
  150.2633  143.1084  157.0816 H   0  0  0  0  0  0  0  0  0  0  0  0
  150.8091  145.4175  157.8896 H   0  0  0  0  0  0  0  0  0  0  0  0
  152.5501  145.7658  159.6309 H   0  0  0  0  0  0  0  0  0  0  0  0
  153.7876  143.8102  160.5998 H   0  0  0  0  0  0  0  0  0  0  0  0
  1  2  1  0  0  0  0
  1 22  1  0  0  0  0
  1 23  1  0  0  0  0
  1 24  1  0  0  0  0
  2 21  1  0  0  0  0
  2  3  1  0  0  0  0
  3  4  2  0  0  0  0
  3  5  1  0  0  0  0
  5  6  1  0  0  0  0
  5 16  1  0  0  0  0
  6  7  1  0  0  0  0
  6 25  1  0  0  0  0
  6 26  1  0  0  0  0
  7  8  1  0  0  0  0
  7  9  1  0  0  0  0
  7 27  1  0  0  0  0
  8 28  1  0  0  0  0
  9 14  1  0  0  0  0
  9 10  2  0  0  0  0
 10 11  1  0  0  0  0
 10 29  1  0  0  0  0
 11 12  2  0  0  0  0
 11 30  1  0  0  0  0
 12 13  1  0  0  0  0
 12 31  1  0  0  0  0
 13 14  2  0  0  0  0
 13 32  1  0  0  0  0
 14 15  1  0  0  0  0
 16 21  2  0  0  0  0
 16 17  1  0  0  0  0
 17 18  2  0  0  0  0
 17 33  1  0  0  0  0
 18 19  1  0  0  0  0
 18 34  1  0  0  0  0
 19 20  2  0  0  0  0
 19 35  1  0  0  0  0
 20 21  1  0  0  0  0
 20 36  1  0  0  0  0
M  END
> <s_m_source_file>
AV-unprocessed.smi

> <i_m_source_file_index>
375

> <i_lp_mmshare_version>
43012

> <i_f3d_flags>
0

> <s_epik_input>
W2NIXTFbY0hdW2NIXVtjSF1jKGMxMiluKFtDSDNdKWMoPU8pbjJbQ0gyXVtDQEhdKFtPSF0pYzNbY0hdW2NIXVtjSF1bY0hdYzNG

> <s_epik_cmdline>
J2VwaWtfcHl0aG9uJywgJy1waCcsICc3LjAnLCAnLXRuJywgJzgnLCAnLW1hJywgJzIwMCcsICctbWV0YWxfYmluZGluZycsICctaW1hZScsICc8aW5maWxlLm1hZT4nLCAnLW9tYWUnLCAnPG91dGZpbGUubWFlPic=

> <r_lp_tautomer_probability>
1

> <r_epik_Ionization_Penalty>
1.34619e-06

> <r_epik_Ionization_Penalty_Charging>
2.57375e-09

> <r_epik_Ionization_Penalty_Neutral>
1.34362e-06

> <r_epik_State_Penalty>
-0

> <r_epik_Charging_Adjusted_Penalty>
2.57375e-09

> <i_epik_Tot_Q>
0

> <i_epik_Tot_abs_Q>
0

> <r_epik_Metal_State_Penalty>
-0

> <b_epik_Metal_Only>
0

> <s_lp_Force_Field>
OPLS_2005

> <r_lp_Energy>
44.2188

> <b_lp_Chiralities_Consistent>
1

> <s_lp_Variant>
AV-unprocessed.smi:375-2

> <Gold.Version>
5.8.1

> <Gold.Id.Protein>
6NUR|6NUR_protein|mol2

> <Gold.PLP.Fitness>
51.8171

> <Gold.PLP.PLP>
-51.0122

> <Gold.PLP.part.hbond>
-1.0000

> <Gold.PLP.part.metal>
0.0000

> <Gold.PLP.part.buried>
-4.5441

> <Gold.PLP.part.nonpolar>
-46.5273

> <Gold.PLP.part.repulsive>
0.0000

> <Gold.PLP.ligand.clash>
0.0000

> <Gold.PLP.ligand.torsion>
0.4835

> <Gold.PLP.Chemscore.Hbond>
0.5880

> <Gold.PLP.Chemscore.CHOScore>
0.0000

> <Gold.PLP.Chemscore.Metal>
0.0000

> <Gold.Chemscore.Hbonds>
donor molecule, donor type, donor heavy atom, donor atom, acceptor molecule, acceptor atom, score
      P1  H  7989  7998       L1     8  0.63

> <Gold.PLP.Chemscore.Internal.Correction>
0.0080

> <Gold.Rescore>
     Score         DG    S(hbond)    S(metal)    S(lipo)     H(rot)  DE(clash)    DE(int)     intcor
     15.23     -17.26       0.74        0.00     120.02       1.85       0.12       1.92       ----

> <Gold.Chemscore.Fitness>
15.2272

> <Gold.Chemscore.DG>
-17.2607

> <Gold.Chemscore.ZeroCoef>
-5.4800

> <Gold.Chemscore.Hbond>
0.7381

> <Gold.Chemscore.Metal>
0.0000

> <Gold.Chemscore.Lipo>
120.0204

> <Gold.Chemscore.Internal_Hbond>
0.0000

> <Gold.Chemscore.DEClash>
0.1166

> <Gold.Chemscore.DEInternal>
1.9169

> <Gold.Chemscore.Rot>
1.8465

> <Gold.Chemscore.Internal.Correction>
   9.000000E+99

> <Gold.Chemscore.Hbonds>
donor molecule, donor type, donor heavy atom, donor atom, acceptor molecule, acceptor atom, score
      P1  H  7989  7998       L1     8  0.09

> <Gold.Chemscore.Hbond.Weighted>
-2.4654

> <Gold.Chemscore.Metal.Weighted>
-0.0000

> <Gold.Chemscore.Lipo.Weighted>
-14.0424

> <Gold.Chemscore.Internal_Hbond.Weighted>
0.0000

> <Gold.Chemscore.DEClash.Weighted>
0.1166

> <Gold.Chemscore.DEInternal.Weighted>
1.9169

> <Gold.Chemscore.Rot.Weighted>
4.7270

> <Gold.Chemscore.Internal.Correction.Weighted>
   9.000000E+99

> <Gold.Protein.RotatedTorsions>
[ 6907 6896 6895 6894 ] final   41.48 input  -60.11 | X-H torsion
[ 7974 7965 7964 7962 ] final   65.97 input  175.53 | X-H torsion
[ 8008 7997 7996 7995 ] final   43.45 input   59.86 | X-H torsion
[ 10167 10162 10161 10158 ] final -131.69 input  -65.29 | X-H torsion
[ 10718 10713 10712 10709 ] final   53.07 input   66.30 | X-H torsion
[ 10763 10752 10751 10750 ] final  -42.01 input  -60.55 | X-H torsion
[ 11005 11000 10999 10996 ] final    0.06 input  -57.11 | X-H torsion

> <Gold.Protein.ActiveResidues>
 VAL166  LYS551  ARG553  GLY616  TRP617  ASP618  TYR619  PRO620  LYS621  CYS622 
 ASP623  PHE694  ASN695  SER759  ASP760  ASP761  ALA762  ILE779  LEU786  VAL792 
 PHE793  MET794  SER795  GLU796  ALA797  LYS798  CYS799  TRP800  GLU811  SER814 

> <Gold.Protein.RotatedAtoms>
  152.1959  134.8631  160.0512 H   0  0  0  0  0  0  0  0  0  0  0  0  # atno 6907 bound_to 6896
  151.9503  133.3659  159.4005 H   0  0  0  0  0  0  0  0  0  0  0  0  # atno 6908 bound_to 6896
  150.6944  134.4271  159.5275 H   0  0  0  0  0  0  0  0  0  0  0  0  # atno 6909 bound_to 6896
  145.8322  139.3145  143.0981 H   0  0  0  0  0  0  0  0  0  0  0  0  # atno 7974 bound_to 7965
  155.3029  140.3386  155.4247 H   0  0  0  0  0  0  0  0  0  0  0  0  # atno 8008 bound_to 7997
  156.1993  140.1726  156.7972 H   0  0  0  0  0  0  0  0  0  0  0  0  # atno 8009 bound_to 7997
  154.5538  140.0700  156.8694 H   0  0  0  0  0  0  0  0  0  0  0  0  # atno 8010 bound_to 7997
  139.9163  143.6434  152.2564 H   0  0  0  0  0  0  0  0  0  0  0  0  # atno 10167 bound_to 10162
  157.5134  130.8516  149.8464 H   0  0  0  0  0  0  0  0  0  0  0  0  # atno 10718 bound_to 10713
  153.9720  135.6727  153.4747 H   0  0  0  0  0  0  0  0  0  0  0  0  # atno 10763 bound_to 10752
  153.0788  135.4934  154.8457 H   0  0  0  0  0  0  0  0  0  0  0  0  # atno 10764 bound_to 10752
  154.7214  135.3118  154.9003 H   0  0  0  0  0  0  0  0  0  0  0  0  # atno 10765 bound_to 10752
  140.6308  133.9577  155.8273 H   0  0  0  0  0  0  0  0  0  0  0  0  # atno 11005 bound_to 11000
  145.9558  140.8873  143.0236 LP  0  0  0  0  0  0  0  0  0  0  0  0  # atno 17320 bound_to 7965
  144.6739  140.1744  143.7411 LP  0  0  0  0  0  0  0  0  0  0  0  0  # atno 17321 bound_to 7965
  139.6899  144.7648  151.1457 LP  0  0  0  0  0  0  0  0  0  0  0  0  # atno 17342 bound_to 10162
  140.7673  143.5604  150.9106 LP  0  0  0  0  0  0  0  0  0  0  0  0  # atno 17343 bound_to 10162
  156.0304  130.3766  150.1704 LP  0  0  0  0  0  0  0  0  0  0  0  0  # atno 17370 bound_to 10713
  156.9894  130.9888  151.3418 LP  0  0  0  0  0  0  0  0  0  0  0  0  # atno 17371 bound_to 10713
  141.0677  134.0252  157.3571 LP  0  0  0  0  0  0  0  0  0  0  0  0  # atno 17394 bound_to 11000
  139.9117  135.0191  156.7718 LP  0  0  0  0  0  0  0  0  0  0  0  0  # atno 17395 bound_to 11000

$$$$
