AV-unprocessed.smi:2159|AV-procd|sdf|8796|dock4
  -GOLD-   2272011573D 1   1.00000     0.00000
 Structure written by MMmdl.
 48 50  0  0  0  0  0  0  0  0  2 V2000
  153.7213  136.9806  162.0810 O   0  0  0  0  0  0  0  0  0  0  0  0
  154.7151  137.3527  162.7061 C   0  0  0  0  0  0  0  0  0  0  0  0
  155.0988  138.8346  162.7496 C   0  0  0  0  0  0  0  0  0  0  0  0
  155.4048  139.4167  161.3551 C   0  0  0  0  0  0  0  0  0  0  0  0
  154.5049  140.5265  161.0316 N   0  0  0  0  0  0  0  0  0  0  0  0
  153.8071  140.6291  159.8843 C   0  0  0  0  0  0  0  0  0  0  0  0
  153.8804  139.8947  158.8996 O   0  0  0  0  0  0  0  0  0  0  0  0
  152.8060  141.7673  160.0173 C   0  0  2  0  0  0  0  0  0  0  0  0
  152.4174  142.6652  158.8418 C   0  0  0  0  0  0  0  0  0  0  0  0
  151.3728  143.6795  159.3793 C   0  0  0  0  0  0  0  0  0  0  0  0
  151.8141  144.4149  160.6795 C   0  0  0  0  0  0  0  0  0  0  0  0
  152.3824  143.4733  161.7744 C   0  0  0  0  0  0  0  0  0  0  0  0
  153.4497  142.6083  161.1024 C   0  0  1  0  0  0  0  0  0  0  0  0
  154.2492  141.5581  161.8587 C   0  0  0  0  0  0  0  0  0  0  0  0
  154.6333  141.6940  163.0198 O   0  0  0  0  0  0  0  0  0  0  0  0
  155.5212  136.5084  163.3684 N   0  0  0  0  0  0  0  0  0  0  0  0
  155.3350  135.0638  163.4402 C   0  0  0  0  0  0  0  0  0  0  0  0
  154.3130  134.6789  164.5236 C   0  0  0  0  0  0  0  0  0  0  0  0
  154.4592  133.2357  164.9645 C   0  0  0  0  0  0  0  0  0  0  0  0
  153.4283  132.2865  164.7926 C   0  0  0  0  0  0  0  0  0  0  0  0
  153.6352  130.9595  165.2244 C   0  0  0  0  0  0  0  0  0  0  0  0
  154.8664  130.6104  165.8177 C   0  0  0  0  0  0  0  0  0  0  0  0
  155.8617  131.5982  165.9634 C   0  0  0  0  0  0  0  0  0  0  0  0
  155.6258  132.8583  165.5365 N   0  3  0  0  0  0  0  0  0  0  0  0
  154.2923  139.4036  163.2151 H   0  0  0  0  0  0  0  0  0  0  0  0
  155.9699  138.9391  163.3975 H   0  0  0  0  0  0  0  0  0  0  0  0
  156.4389  139.7631  161.3045 H   0  0  0  0  0  0  0  0  0  0  0  0
  155.3179  138.6364  160.5966 H   0  0  0  0  0  0  0  0  0  0  0  0
  151.8947  141.2993  160.3971 H   0  0  0  0  0  0  0  0  0  0  0  0
  153.2904  143.1842  158.4435 H   0  0  0  0  0  0  0  0  0  0  0  0
  151.9936  142.0771  158.0271 H   0  0  0  0  0  0  0  0  0  0  0  0
  151.1335  144.4090  158.6050 H   0  0  0  0  0  0  0  0  0  0  0  0
  150.4434  143.1463  159.5842 H   0  0  0  0  0  0  0  0  0  0  0  0
  152.5793  145.1474  160.4192 H   0  0  0  0  0  0  0  0  0  0  0  0
  150.9780  144.9873  161.0823 H   0  0  0  0  0  0  0  0  0  0  0  0
  152.8107  144.0542  162.5918 H   0  0  0  0  0  0  0  0  0  0  0  0
  151.5916  142.8541  162.2002 H   0  0  0  0  0  0  0  0  0  0  0  0
  154.1973  143.2752  160.6664 H   0  0  0  0  0  0  0  0  0  0  0  0
  156.3163  136.8946  163.8569 H   0  0  0  0  0  0  0  0  0  0  0  0
  154.9928  134.7144  162.4656 H   0  0  0  0  0  0  0  0  0  0  0  0
  156.2942  134.5766  163.6243 H   0  0  0  0  0  0  0  0  0  0  0  0
  154.4267  135.3204  165.3987 H   0  0  0  0  0  0  0  0  0  0  0  0
  153.2994  134.8408  164.1544 H   0  0  0  0  0  0  0  0  0  0  0  0
  152.4906  132.5689  164.3362 H   0  0  0  0  0  0  0  0  0  0  0  0
  152.8590  130.2182  165.1026 H   0  0  0  0  0  0  0  0  0  0  0  0
  155.0440  129.5997  166.1556 H   0  0  0  0  0  0  0  0  0  0  0  0
  156.8313  131.4205  166.4056 H   0  0  0  0  0  0  0  0  0  0  0  0
  156.3598  133.5578  165.6525 H   0  0  0  0  0  0  0  0  0  0  0  0
  1  2  2  0  0  0  0
  2  3  1  0  0  0  0
  2 16  1  0  0  0  0
  3  4  1  0  0  0  0
  3 25  1  0  0  0  0
  3 26  1  0  0  0  0
  4  5  1  0  0  0  0
  4 27  1  0  0  0  0
  4 28  1  0  0  0  0
  5 14  1  0  0  0  0
  5  6  1  0  0  0  0
  6  7  2  0  0  0  0
  6  8  1  0  0  0  0
  8 13  1  0  0  0  0
  8  9  1  0  0  0  0
  8 29  1  0  0  0  0
  9 10  1  0  0  0  0
  9 30  1  0  0  0  0
  9 31  1  0  0  0  0
 10 11  1  0  0  0  0
 10 32  1  0  0  0  0
 10 33  1  0  0  0  0
 11 12  1  0  0  0  0
 11 34  1  0  0  0  0
 11 35  1  0  0  0  0
 12 13  1  0  0  0  0
 12 36  1  0  0  0  0
 12 37  1  0  0  0  0
 13 14  1  0  0  0  0
 13 38  1  0  0  0  0
 14 15  2  0  0  0  0
 16 17  1  0  0  0  0
 16 39  1  0  0  0  0
 17 18  1  0  0  0  0
 17 40  1  0  0  0  0
 17 41  1  0  0  0  0
 18 19  1  0  0  0  0
 18 42  1  0  0  0  0
 18 43  1  0  0  0  0
 19 24  1  0  0  0  0
 19 20  2  0  0  0  0
 20 21  1  0  0  0  0
 20 44  1  0  0  0  0
 21 22  2  0  0  0  0
 21 45  1  0  0  0  0
 22 23  1  0  0  0  0
 22 46  1  0  0  0  0
 23 24  2  0  0  0  0
 23 47  1  0  0  0  0
 24 48  1  0  0  0  0
M  CHG  1  24   1
M  END
> <s_m_source_file>
AV-unprocessed.smi

> <i_m_source_file_index>
2159

> <i_lp_mmshare_version>
43012

> <i_f3d_flags>
0

> <s_epik_input>
bjFbY0hdW2NIXVtjSF1bY0hdYzFbQ0gyXVtDSDJdW05IXUMoPU8pW0NIMl1bQ0gyXU4oQzI9TylDKD1PKVtDQEhdKFtDQEBIXTIzKVtDSDJdW0NIMl1bQ0gyXVtDSDJdMw==

> <s_epik_cmdline>
J2VwaWtfcHl0aG9uJywgJy1waCcsICc3LjAnLCAnLXRuJywgJzgnLCAnLW1hJywgJzIwMCcsICctbWV0YWxfYmluZGluZycsICctaW1hZScsICc8aW5maWxlLm1hZT4nLCAnLW9tYWUnLCAnPG91dGZpbGUubWFlPic=

> <r_lp_tautomer_probability>
1

> <r_epik_Ionization_Penalty>
1.85146

> <r_epik_Ionization_Penalty_Charging>
1.85146

> <r_epik_Ionization_Penalty_Neutral>
2.95922e-08

> <r_epik_State_Penalty>
1.96899

> <r_epik_Charging_Adjusted_Penalty>
3.82044

> <i_epik_Tot_Q>
1

> <i_epik_Tot_abs_Q>
1

> <r_epik_Metal_State_Penalty>
1.99467

> <b_epik_Metal_Only>
0

> <s_lp_Force_Field>
OPLS_2005

> <r_lp_Energy>
35.9889

> <b_lp_Chiralities_Consistent>
1

> <s_lp_Variant>
AV-unprocessed.smi:2159-6

> <Gold.Version>
5.8.1

> <Gold.Id.Protein>
6NUR|6NUR_protein|mol2

> <Gold.PLP.Fitness>
51.5853

> <Gold.PLP.PLP>
-49.9931

> <Gold.PLP.part.hbond>
-2.0000

> <Gold.PLP.part.metal>
0.0000

> <Gold.PLP.part.buried>
-3.8689

> <Gold.PLP.part.nonpolar>
-43.4802

> <Gold.PLP.part.repulsive>
0.0000

> <Gold.PLP.ligand.clash>
0.0000

> <Gold.PLP.ligand.torsion>
0.7407

> <Gold.PLP.Chemscore.Hbond>
1.0000

> <Gold.PLP.Chemscore.CHOScore>
0.0000

> <Gold.PLP.Chemscore.Metal>
0.0000

> <Gold.Chemscore.Hbonds>
donor molecule, donor type, donor heavy atom, donor atom, acceptor molecule, acceptor atom, score
      P1  H  7997  8010       L1     7  1.00

> <Gold.PLP.Chemscore.Internal.Correction>
0.0736

> <Gold.Rescore>
     Score         DG    S(hbond)    S(metal)    S(lipo)     H(rot)  DE(clash)    DE(int)     intcor
     16.39     -18.68       1.00        0.00     130.24       2.10       0.28       2.00       ----

> <Gold.Chemscore.Fitness>
16.3924

> <Gold.Chemscore.DG>
-18.6790

> <Gold.Chemscore.ZeroCoef>
-5.4800

> <Gold.Chemscore.Hbond>
0.9960

> <Gold.Chemscore.Metal>
0.0000

> <Gold.Chemscore.Lipo>
130.2388

> <Gold.Chemscore.Internal_Hbond>
0.0000

> <Gold.Chemscore.DEClash>
0.2830

> <Gold.Chemscore.DEInternal>
2.0035

> <Gold.Chemscore.Rot>
2.0959

> <Gold.Chemscore.Internal.Correction>
   9.000000E+99

> <Gold.Chemscore.Hbonds>
donor molecule, donor type, donor heavy atom, donor atom, acceptor molecule, acceptor atom, score
      P1  H  7997  8010       L1     7  0.97

> <Gold.Chemscore.Hbond.Weighted>
-3.3266

> <Gold.Chemscore.Metal.Weighted>
-0.0000

> <Gold.Chemscore.Lipo.Weighted>
-15.2379

> <Gold.Chemscore.Internal_Hbond.Weighted>
0.0000

> <Gold.Chemscore.DEClash.Weighted>
0.2830

> <Gold.Chemscore.DEInternal.Weighted>
2.0035

> <Gold.Chemscore.Rot.Weighted>
5.3655

> <Gold.Chemscore.Internal.Correction.Weighted>
   9.000000E+99

> <Gold.Protein.RotatedTorsions>
[ 6907 6896 6895 6894 ] final  -55.97 input  -60.11 | X-H torsion
[ 7974 7965 7964 7962 ] final  160.30 input  175.53 | X-H torsion
[ 8008 7997 7996 7995 ] final   12.66 input   59.86 | X-H torsion
[ 10167 10162 10161 10158 ] final  -59.11 input  -65.29 | X-H torsion
[ 10718 10713 10712 10709 ] final  153.29 input   66.30 | X-H torsion
[ 10763 10752 10751 10750 ] final -172.23 input  -60.55 | X-H torsion
[ 11005 11000 10999 10996 ] final -138.45 input  -57.11 | X-H torsion

> <Gold.Protein.ActiveResidues>
 VAL166  LYS551  ARG553  GLY616  TRP617  ASP618  TYR619  PRO620  LYS621  CYS622 
 ASP623  PHE694  ASN695  SER759  ASP760  ASP761  ALA762  ILE779  LEU786  VAL792 
 PHE793  MET794  SER795  GLU796  ALA797  LYS798  CYS799  TRP800  GLU811  SER814 

> <Gold.Protein.RotatedAtoms>
  150.8207  134.7413  159.6769 H   0  0  0  0  0  0  0  0  0  0  0  0  # atno 6907 bound_to 6896
  152.4322  134.5752  159.9942 H   0  0  0  0  0  0  0  0  0  0  0  0  # atno 6908 bound_to 6896
  151.5937  133.3326  159.3069 H   0  0  0  0  0  0  0  0  0  0  0  0  # atno 6909 bound_to 6896
  144.7744  139.7738  143.6284 H   0  0  0  0  0  0  0  0  0  0  0  0  # atno 7974 bound_to 7965
  154.8237  140.2888  155.5769 H   0  0  0  0  0  0  0  0  0  0  0  0  # atno 8008 bound_to 7997
  156.3000  140.2545  156.3080 H   0  0  0  0  0  0  0  0  0  0  0  0  # atno 8009 bound_to 7997
  154.9309  140.0383  157.2037 H   0  0  0  0  0  0  0  0  0  0  0  0  # atno 8010 bound_to 7997
  140.6155  143.2401  151.5607 H   0  0  0  0  0  0  0  0  0  0  0  0  # atno 10167 bound_to 10162
  157.2466  131.0770  151.1757 H   0  0  0  0  0  0  0  0  0  0  0  0  # atno 10718 bound_to 10713
  154.6216  135.2876  155.0320 H   0  0  0  0  0  0  0  0  0  0  0  0  # atno 10763 bound_to 10752
  154.1513  135.6503  153.4968 H   0  0  0  0  0  0  0  0  0  0  0  0  # atno 10764 bound_to 10752
  153.0238  135.5356  154.7008 H   0  0  0  0  0  0  0  0  0  0  0  0  # atno 10765 bound_to 10752
  140.8614  134.2164  157.4705 H   0  0  0  0  0  0  0  0  0  0  0  0  # atno 11005 bound_to 11000
  146.1913  139.5156  142.9803 LP  0  0  0  0  0  0  0  0  0  0  0  0  # atno 17320 bound_to 7965
  145.6229  141.0319  143.1905 LP  0  0  0  0  0  0  0  0  0  0  0  0  # atno 17321 bound_to 7965
  139.5395  144.2686  152.1322 LP  0  0  0  0  0  0  0  0  0  0  0  0  # atno 17342 bound_to 10162
  140.1895  144.4766  150.6486 LP  0  0  0  0  0  0  0  0  0  0  0  0  # atno 17343 bound_to 10162
  157.3322  130.6991  149.6331 LP  0  0  0  0  0  0  0  0  0  0  0  0  # atno 17370 bound_to 10713
  155.9668  130.4304  150.4875 LP  0  0  0  0  0  0  0  0  0  0  0  0  # atno 17371 bound_to 10713
  139.8707  134.9731  156.4798 LP  0  0  0  0  0  0  0  0  0  0  0  0  # atno 17394 bound_to 11000
  140.8678  133.8011  155.9332 LP  0  0  0  0  0  0  0  0  0  0  0  0  # atno 17395 bound_to 11000

$$$$
