AV-unprocessed.smi:2140|AV-procd|sdf|8714|dock5
  -GOLD-   2272011483D 1   1.00000     0.00000
 Structure written by MMmdl.
 39 40  0  0  0  0  0  0  0  0  1 V2000
  146.6509  140.5237  154.0546 C   0  0  0  0  0  0  0  0  0  0  0  0
  147.5573  139.2688  153.9750 C   0  0  2  0  0  0  0  0  0  0  0  0
  146.7324  138.0180  154.3920 C   0  0  0  0  0  0  0  0  0  0  0  0
  146.8063  136.9331  153.4154 N   0  0  0  0  0  0  0  0  0  0  0  0
  145.7909  136.1360  153.0525 C   0  0  0  0  0  0  0  0  0  0  0  0
  144.6510  136.2344  153.5057 O   0  0  0  0  0  0  0  0  0  0  0  0
  146.1918  135.2222  152.1522 N   0  0  0  0  0  0  0  0  0  0  0  0
  145.4195  134.2134  151.5162 C   0  0  0  0  0  0  0  0  0  0  0  0
  146.0622  133.3818  150.5764 C   0  0  0  0  0  0  0  0  0  0  0  0
  145.3166  132.3853  149.9184 C   0  0  0  0  0  0  0  0  0  0  0  0
  143.9464  132.2654  150.2203 C   0  0  0  0  0  0  0  0  0  0  0  0
  143.3114  133.0629  151.1046 N   0  0  0  0  0  0  0  0  0  0  0  0
  144.0333  134.0153  151.7343 C   0  0  0  0  0  0  0  0  0  0  0  0
  148.8153  139.4218  154.7448 N   0  0  0  0  0  0  0  0  0  0  0  0
  149.9167  138.6200  154.1983 C   0  0  0  0  0  0  0  0  0  0  0  0
  151.2339  138.8021  154.9720 C   0  0  0  0  0  0  0  0  0  0  0  0
  151.5928  140.1765  154.9912 O   0  0  0  0  0  0  0  0  0  0  0  0
  150.5864  140.9803  155.5903 C   0  0  0  0  0  0  0  0  0  0  0  0
  149.2653  140.8169  154.8187 C   0  0  0  0  0  0  0  0  0  0  0  0
  145.7125  140.3940  153.5177 H   0  0  0  0  0  0  0  0  0  0  0  0
  147.1134  141.3984  153.6000 H   0  0  0  0  0  0  0  0  0  0  0  0
  146.4057  140.7685  155.0885 H   0  0  0  0  0  0  0  0  0  0  0  0
  147.8224  139.1375  152.9246 H   0  0  0  0  0  0  0  0  0  0  0  0
  147.1163  137.5794  155.3106 H   0  0  0  0  0  0  0  0  0  0  0  0
  145.6995  138.3031  154.5984 H   0  0  0  0  0  0  0  0  0  0  0  0
  147.7068  136.7741  152.9879 H   0  0  0  0  0  0  0  0  0  0  0  0
  147.1785  135.2105  151.9399 H   0  0  0  0  0  0  0  0  0  0  0  0
  147.1149  133.5002  150.3641 H   0  0  0  0  0  0  0  0  0  0  0  0
  145.7836  131.7292  149.1989 H   0  0  0  0  0  0  0  0  0  0  0  0
  143.3436  131.5122  149.7349 H   0  0  0  0  0  0  0  0  0  0  0  0
  143.4663  134.6377  152.4088 H   0  0  0  0  0  0  0  0  0  0  0  0
  149.6770  137.5593  154.2340 H   0  0  0  0  0  0  0  0  0  0  0  0
  150.0755  138.8761  153.1497 H   0  0  0  0  0  0  0  0  0  0  0  0
  151.1386  138.4274  155.9923 H   0  0  0  0  0  0  0  0  0  0  0  0
  152.0327  138.2335  154.4961 H   0  0  0  0  0  0  0  0  0  0  0  0
  150.4604  140.7004  156.6374 H   0  0  0  0  0  0  0  0  0  0  0  0
  150.9071  142.0221  155.5742 H   0  0  0  0  0  0  0  0  0  0  0  0
  149.3818  141.2221  153.8124 H   0  0  0  0  0  0  0  0  0  0  0  0
  148.5248  141.4331  155.3253 H   0  0  0  0  0  0  0  0  0  0  0  0
  1  2  1  0  0  0  0
  1 20  1  0  0  0  0
  1 21  1  0  0  0  0
  1 22  1  0  0  0  0
  2  3  1  0  0  0  0
  2 14  1  0  0  0  0
  2 23  1  0  0  0  0
  3  4  1  0  0  0  0
  3 24  1  0  0  0  0
  3 25  1  0  0  0  0
  4  5  1  0  0  0  0
  4 26  1  0  0  0  0
  5  6  2  0  0  0  0
  5  7  1  0  0  0  0
  7  8  1  0  0  0  0
  7 27  1  0  0  0  0
  8 13  1  0  0  0  0
  8  9  2  0  0  0  0
  9 10  1  0  0  0  0
  9 28  1  0  0  0  0
 10 11  2  0  0  0  0
 10 29  1  0  0  0  0
 11 12  1  0  0  0  0
 11 30  1  0  0  0  0
 12 13  2  0  0  0  0
 13 31  1  0  0  0  0
 14 19  1  0  0  0  0
 14 15  1  0  0  0  0
 15 16  1  0  0  0  0
 15 32  1  0  0  0  0
 15 33  1  0  0  0  0
 16 17  1  0  0  0  0
 16 34  1  0  0  0  0
 16 35  1  0  0  0  0
 17 18  1  0  0  0  0
 18 19  1  0  0  0  0
 18 36  1  0  0  0  0
 18 37  1  0  0  0  0
 19 38  1  0  0  0  0
 19 39  1  0  0  0  0
M  END
> <s_m_source_file>
AV-unprocessed.smi

> <i_m_source_file_index>
2140

> <i_lp_mmshare_version>
43012

> <i_f3d_flags>
0

> <s_epik_input>
W0NIMl0xW0NIMl1PW0NIMl1bQ0gyXU4xW0NASF0oW0NIM10pW0NIMl1bTkhdQyg9TylbTkhdYzJbY0hdW2NIXVtjSF1uW2NIXTI=

> <s_epik_cmdline>
J2VwaWtfcHl0aG9uJywgJy1waCcsICc3LjAnLCAnLXRuJywgJzgnLCAnLW1hJywgJzIwMCcsICctbWV0YWxfYmluZGluZycsICctaW1hZScsICc8aW5maWxlLm1hZT4nLCAnLW9tYWUnLCAnPG91dGZpbGUubWFlPic=

> <r_epik_Ionization_Penalty>
0.270748

> <r_epik_Ionization_Penalty_Charging>
0

> <r_epik_Ionization_Penalty_Neutral>
0.270748

> <r_epik_State_Penalty>
0.268258

> <r_epik_Charging_Adjusted_Penalty>
0.268258

> <i_epik_Tot_Q>
0

> <i_epik_Tot_abs_Q>
0

> <r_epik_Metal_State_Penalty>
0.264828

> <b_epik_Metal_Only>
0

> <s_lp_Force_Field>
OPLS_2005

> <r_lp_Energy>
32.9676

> <b_lp_Chiralities_Consistent>
1

> <s_lp_Variant>
AV-unprocessed.smi:2140-1

> <Gold.Version>
5.8.1

> <Gold.Id.Protein>
6NUR|6NUR_protein|mol2

> <Gold.PLP.Fitness>
38.2556

> <Gold.PLP.PLP>
-31.4833

> <Gold.PLP.part.hbond>
-3.0000

> <Gold.PLP.part.metal>
0.0000

> <Gold.PLP.part.buried>
-5.7880

> <Gold.PLP.part.nonpolar>
-24.3799

> <Gold.PLP.part.repulsive>
0.5988

> <Gold.PLP.ligand.clash>
0.3800

> <Gold.PLP.ligand.torsion>
1.4633

> <Gold.PLP.Chemscore.Hbond>
2.9920

> <Gold.PLP.Chemscore.CHOScore>
0.3521

> <Gold.PLP.Chemscore.Metal>
0.0000

> <Gold.Chemscore.Hbonds>
donor molecule, donor type, donor heavy atom, donor atom, acceptor molecule, acceptor atom, score
      L1  H     4    26       P1  7948  1.00
      L1  H     7    27       P1  7948  0.99
      P1  H  7989  7998       L1    17  1.00
      L1  C    11    30       P1 10952  0.36

> <Gold.PLP.Chemscore.Internal.Correction>
0.0466

> <Gold.Rescore>
     Score         DG    S(hbond)    S(metal)    S(lipo)     H(rot)  DE(clash)    DE(int)     intcor
     16.49     -19.33       2.32        0.00      84.22       1.47       0.03       2.82       ----

> <Gold.Chemscore.Fitness>
16.4873

> <Gold.Chemscore.DG>
-19.3298

> <Gold.Chemscore.ZeroCoef>
-5.4800

> <Gold.Chemscore.Hbond>
2.3248

> <Gold.Chemscore.Metal>
0.0000

> <Gold.Chemscore.Lipo>
84.2153

> <Gold.Chemscore.Internal_Hbond>
0.0000

> <Gold.Chemscore.DEClash>
0.0263

> <Gold.Chemscore.DEInternal>
2.8162

> <Gold.Chemscore.Rot>
1.4719

> <Gold.Chemscore.Internal.Correction>
   9.000000E+99

> <Gold.Chemscore.Hbonds>
donor molecule, donor type, donor heavy atom, donor atom, acceptor molecule, acceptor atom, score
      L1  H     4    26       P1  7948  1.00
      L1  H     7    27       P1  7948  0.88
      P1  H  7989  7998       L1    17  0.21

> <Gold.Chemscore.Hbond.Weighted>
-7.7647

> <Gold.Chemscore.Metal.Weighted>
-0.0000

> <Gold.Chemscore.Lipo.Weighted>
-9.8532

> <Gold.Chemscore.Internal_Hbond.Weighted>
0.0000

> <Gold.Chemscore.DEClash.Weighted>
0.0263

> <Gold.Chemscore.DEInternal.Weighted>
2.8162

> <Gold.Chemscore.Rot.Weighted>
3.7681

> <Gold.Chemscore.Internal.Correction.Weighted>
   9.000000E+99

> <Gold.Protein.RotatedTorsions>
[ 6907 6896 6895 6894 ] final   81.15 input  -60.11 | X-H torsion
[ 7974 7965 7964 7962 ] final   71.58 input  175.53 | X-H torsion
[ 8008 7997 7996 7995 ] final -149.51 input   59.86 | X-H torsion
[ 10167 10162 10161 10158 ] final   51.53 input  -65.29 | X-H torsion
[ 10718 10713 10712 10709 ] final  -81.35 input   66.30 | X-H torsion
[ 10763 10752 10751 10750 ] final -156.24 input  -60.55 | X-H torsion
[ 11005 11000 10999 10996 ] final  156.27 input  -57.11 | X-H torsion

> <Gold.Protein.ActiveResidues>
 VAL166  LYS551  ARG553  GLY616  TRP617  ASP618  TYR619  PRO620  LYS621  CYS622 
 ASP623  PHE694  ASN695  SER759  ASP760  ASP761  ALA762  ILE779  LEU786  VAL792 
 PHE793  MET794  SER795  GLU796  ALA797  LYS798  CYS799  TRP800  GLU811  SER814 

> <Gold.Protein.RotatedAtoms>
  152.5259  134.3248  159.9161 H   0  0  0  0  0  0  0  0  0  0  0  0  # atno 6907 bound_to 6896
  151.3197  133.4039  159.2661 H   0  0  0  0  0  0  0  0  0  0  0  0  # atno 6908 bound_to 6896
  150.9969  134.9308  159.7989 H   0  0  0  0  0  0  0  0  0  0  0  0  # atno 6909 bound_to 6896
  145.7640  139.2813  143.1359 H   0  0  0  0  0  0  0  0  0  0  0  0  # atno 7974 bound_to 7965
  155.6088  140.0669  157.2712 H   0  0  0  0  0  0  0  0  0  0  0  0  # atno 8008 bound_to 7997
  154.4259  140.1805  156.1298 H   0  0  0  0  0  0  0  0  0  0  0  0  # atno 8009 bound_to 7997
  156.0101  140.3327  155.6936 H   0  0  0  0  0  0  0  0  0  0  0  0  # atno 8010 bound_to 7997
  140.2610  144.3373  150.6318 H   0  0  0  0  0  0  0  0  0  0  0  0  # atno 10167 bound_to 10162
  156.0052  130.4601  150.3939 H   0  0  0  0  0  0  0  0  0  0  0  0  # atno 10718 bound_to 10713
  154.7728  135.3150  154.8155 H   0  0  0  0  0  0  0  0  0  0  0  0  # atno 10763 bound_to 10752
  153.8886  135.6828  153.4766 H   0  0  0  0  0  0  0  0  0  0  0  0  # atno 10764 bound_to 10752
  153.1345  135.4766  154.9335 H   0  0  0  0  0  0  0  0  0  0  0  0  # atno 10765 bound_to 10752
  140.1659  134.8577  157.2632 H   0  0  0  0  0  0  0  0  0  0  0  0  # atno 11005 bound_to 11000
  146.0235  140.8325  142.9911 LP  0  0  0  0  0  0  0  0  0  0  0  0  # atno 17320 bound_to 7965
  144.6825  140.2664  143.7312 LP  0  0  0  0  0  0  0  0  0  0  0  0  # atno 17321 bound_to 7965
  140.5966  143.2167  151.7153 LP  0  0  0  0  0  0  0  0  0  0  0  0  # atno 17342 bound_to 10162
  139.5017  144.3858  152.0330 LP  0  0  0  0  0  0  0  0  0  0  0  0  # atno 17343 bound_to 10162
  157.2012  131.0438  151.2649 LP  0  0  0  0  0  0  0  0  0  0  0  0  # atno 17370 bound_to 10713
  157.3974  130.7315  149.6742 LP  0  0  0  0  0  0  0  0  0  0  0  0  # atno 17371 bound_to 10713
  140.2434  134.3768  155.7471 LP  0  0  0  0  0  0  0  0  0  0  0  0  # atno 17394 bound_to 11000
  141.2213  133.7277  156.8824 LP  0  0  0  0  0  0  0  0  0  0  0  0  # atno 17395 bound_to 11000

$$$$
