AV-unprocessed.smi:1560|AV-procd|sdf|6277|dock3
  -GOLD-   22720 6473D 1   1.00000     0.00000
 Structure written by MMmdl.
 48 49  0  0  0  0  0  0  0  0  2 V2000
  143.6547  135.5179  153.6762 C   0  0  0  0  0  0  0  0  0  0  0  0
  144.2170  136.5957  152.7321 C   0  0  0  0  0  0  0  0  0  0  0  0
  145.7685  136.6057  152.5650 C   0  0  1  0  0  0  0  0  0  0  0  0
  146.1220  137.8000  151.6392 C   0  0  0  0  0  0  0  0  0  0  0  0
  146.4532  136.8241  153.9514 C   0  0  0  0  0  0  0  0  0  0  0  0
  147.7740  137.4440  153.8573 N   0  0  0  0  0  0  0  0  0  0  0  0
  148.2316  138.4359  154.6364 C   0  0  0  0  0  0  0  0  0  0  0  0
  147.5877  138.9140  155.5710 O   0  0  0  0  0  0  0  0  0  0  0  0
  149.6322  138.9677  154.3063 C   0  0  0  0  0  0  0  0  0  0  0  0
  150.0611  140.0220  155.2362 N   0  0  0  0  0  0  0  0  0  0  0  0
  150.9400  139.7329  156.2706 C   0  0  0  0  0  0  0  0  0  0  0  0
  151.3680  140.6554  157.1646 C   0  0  0  0  0  0  0  0  0  0  0  0
  150.9087  142.0377  157.0777 C   0  0  0  0  0  0  0  0  0  0  0  0
  151.2399  142.9441  157.8388 O   0  0  0  0  0  0  0  0  0  0  0  0
  150.0240  142.2886  156.0255 N   0  0  0  0  0  0  0  0  0  0  0  0
  149.5782  141.3427  155.1010 C   0  0  0  0  0  0  0  0  0  0  0  0
  148.7925  141.6692  154.2115 O   0  0  0  0  0  0  0  0  0  0  0  0
  146.2253  135.3084  151.9447 N   0  3  0  0  0  0  0  0  0  0  0  0
  146.1756  134.1064  152.8247 C   0  0  0  0  0  0  0  0  0  0  0  0
  146.8487  132.9062  152.1370 C   0  0  0  0  0  0  0  0  0  0  0  0
  146.2203  132.6494  150.8890 O   0  0  0  0  0  0  0  0  0  0  0  0
  146.3355  133.7554  150.0051 C   0  0  0  0  0  0  0  0  0  0  0  0
  145.6318  134.9767  150.6181 C   0  0  0  0  0  0  0  0  0  0  0  0
  149.6779  143.2319  155.9270 H   0  0  0  0  0  0  0  0  0  0  0  0
  142.5677  135.5875  153.7253 H   0  0  0  0  0  0  0  0  0  0  0  0
  144.0313  135.6285  154.6930 H   0  0  0  0  0  0  0  0  0  0  0  0
  143.8972  134.5124  153.3338 H   0  0  0  0  0  0  0  0  0  0  0  0
  143.7449  136.4479  151.7609 H   0  0  0  0  0  0  0  0  0  0  0  0
  143.8616  137.5728  153.0584 H   0  0  0  0  0  0  0  0  0  0  0  0
  145.6077  138.7124  151.9434 H   0  0  0  0  0  0  0  0  0  0  0  0
  145.8445  137.6064  150.6029 H   0  0  0  0  0  0  0  0  0  0  0  0
  147.1875  138.0310  151.6570 H   0  0  0  0  0  0  0  0  0  0  0  0
  145.8217  137.4167  154.6138 H   0  0  0  0  0  0  0  0  0  0  0  0
  146.5992  135.8703  154.4573 H   0  0  0  0  0  0  0  0  0  0  0  0
  148.3788  137.1116  153.1197 H   0  0  0  0  0  0  0  0  0  0  0  0
  150.3272  138.1270  154.3290 H   0  0  0  0  0  0  0  0  0  0  0  0
  149.6665  139.3436  153.2813 H   0  0  0  0  0  0  0  0  0  0  0  0
  151.3043  138.7208  156.3771 H   0  0  0  0  0  0  0  0  0  0  0  0
  152.0530  140.3688  157.9492 H   0  0  0  0  0  0  0  0  0  0  0  0
  146.6923  134.2748  153.7677 H   0  0  0  0  0  0  0  0  0  0  0  0
  145.1416  133.8561  153.0631 H   0  0  0  0  0  0  0  0  0  0  0  0
  147.9145  133.0893  151.9904 H   0  0  0  0  0  0  0  0  0  0  0  0
  146.7625  132.0183  152.7635 H   0  0  0  0  0  0  0  0  0  0  0  0
  147.3856  133.9703  149.8005 H   0  0  0  0  0  0  0  0  0  0  0  0
  145.8727  133.4939  149.0534 H   0  0  0  0  0  0  0  0  0  0  0  0
  144.5690  134.7575  150.7214 H   0  0  0  0  0  0  0  0  0  0  0  0
  145.7221  135.8049  149.9182 H   0  0  0  0  0  0  0  0  0  0  0  0
  147.2081  135.4549  151.7626 H   0  0  0  0  0  0  0  0  0  0  0  0
  1  2  1  0  0  0  0
  1 25  1  0  0  0  0
  1 26  1  0  0  0  0
  1 27  1  0  0  0  0
  2  3  1  0  0  0  0
  2 28  1  0  0  0  0
  2 29  1  0  0  0  0
  3  4  1  0  0  0  0
  3  5  1  0  0  0  0
  3 18  1  0  0  0  0
  4 30  1  0  0  0  0
  4 31  1  0  0  0  0
  4 32  1  0  0  0  0
  5  6  1  0  0  0  0
  5 33  1  0  0  0  0
  5 34  1  0  0  0  0
  6  7  1  0  0  0  0
  6 35  1  0  0  0  0
  7  8  2  0  0  0  0
  7  9  1  0  0  0  0
  9 10  1  0  0  0  0
  9 36  1  0  0  0  0
  9 37  1  0  0  0  0
 10 16  1  0  0  0  0
 10 11  1  0  0  0  0
 11 12  2  0  0  0  0
 11 38  1  0  0  0  0
 12 13  1  0  0  0  0
 12 39  1  0  0  0  0
 13 14  2  0  0  0  0
 13 15  1  0  0  0  0
 15 24  1  0  0  0  0
 15 16  1  0  0  0  0
 16 17  2  0  0  0  0
 18 23  1  0  0  0  0
 18 19  1  0  0  0  0
 18 48  1  0  0  0  0
 19 20  1  0  0  0  0
 19 40  1  0  0  0  0
 19 41  1  0  0  0  0
 20 21  1  0  0  0  0
 20 42  1  0  0  0  0
 20 43  1  0  0  0  0
 21 22  1  0  0  0  0
 22 23  1  0  0  0  0
 22 44  1  0  0  0  0
 22 45  1  0  0  0  0
 23 46  1  0  0  0  0
 23 47  1  0  0  0  0
M  CHG  1  18   1
M  END
> <s_m_source_file>
AV-unprocessed.smi

> <i_m_source_file_index>
1560

> <i_lp_mmshare_version>
43012

> <i_f3d_flags>
0

> <s_epik_input>
W0NIMl0xW0NIMl1PW0NIMl1bQ0gyXU4xW0NAQF0oW0NIM10pKFtDSDJdW0NIM10pW0NIMl1bTkhdQyg9TylbQ0gyXW4yW2NIXVtjSF1jKD1PKVtuSF1jMj1P

> <s_epik_cmdline>
J2VwaWtfcHl0aG9uJywgJy1waCcsICc3LjAnLCAnLXRuJywgJzgnLCAnLW1hJywgJzIwMCcsICctbWV0YWxfYmluZGluZycsICctaW1hZScsICc8aW5maWxlLm1hZT4nLCAnLW9tYWUnLCAnPG91dGZpbGUubWFlPic=

> <r_lp_tautomer_probability>
0.999537

> <r_epik_Ionization_Penalty>
0.523885

> <r_epik_Ionization_Penalty_Charging>
0.523885

> <r_epik_Ionization_Penalty_Neutral>
8.70177e-08

> <r_epik_State_Penalty>
0.572334

> <r_epik_Charging_Adjusted_Penalty>
1.09622

> <i_epik_Tot_Q>
1

> <i_epik_Tot_abs_Q>
1

> <r_epik_Metal_State_Penalty>
0.938906

> <b_epik_Metal_Only>
0

> <s_lp_Force_Field>
OPLS_2005

> <r_lp_Energy>
27.5913

> <b_lp_Chiralities_Consistent>
1

> <s_lp_Variant>
AV-unprocessed.smi:1560-3

> <Gold.Version>
5.8.1

> <Gold.Id.Protein>
6NUR|6NUR_protein|mol2

> <Gold.PLP.Fitness>
45.2322

> <Gold.PLP.PLP>
-32.9148

> <Gold.PLP.part.hbond>
-4.4417

> <Gold.PLP.part.metal>
0.0000

> <Gold.PLP.part.buried>
-2.1984

> <Gold.PLP.part.nonpolar>
-26.5692

> <Gold.PLP.part.repulsive>
0.5935

> <Gold.PLP.ligand.clash>
0.0000

> <Gold.PLP.ligand.torsion>
0.8847

> <Gold.PLP.Chemscore.Hbond>
4.5920

> <Gold.PLP.Chemscore.CHOScore>
0.0000

> <Gold.PLP.Chemscore.Metal>
0.0000

> <Gold.Chemscore.Hbonds>
donor molecule, donor type, donor heavy atom, donor atom, acceptor molecule, acceptor atom, score
      L1  H     6    35       P1  7948  1.00
      L1  H    15    24       P1  8028  1.00
      L1  H    18    48       P1  7948  2.00
      P1  H  8011  8017       L1    17  0.25

> <Gold.PLP.Chemscore.Internal.Correction>
0.3108

> <Gold.Rescore>
     Score         DG    S(hbond)    S(metal)    S(lipo)     H(rot)  DE(clash)    DE(int)     intcor
     15.62     -17.26       3.53        0.00      56.11       2.56       0.26       1.39       ----

> <Gold.Chemscore.Fitness>
15.6189

> <Gold.Chemscore.DG>
-17.2622

> <Gold.Chemscore.ZeroCoef>
-5.4800

> <Gold.Chemscore.Hbond>
3.5270

> <Gold.Chemscore.Metal>
0.0000

> <Gold.Chemscore.Lipo>
56.1072

> <Gold.Chemscore.Internal_Hbond>
0.0000

> <Gold.Chemscore.DEClash>
0.2564

> <Gold.Chemscore.DEInternal>
1.3870

> <Gold.Chemscore.Rot>
2.5634

> <Gold.Chemscore.Internal.Correction>
   9.000000E+99

> <Gold.Chemscore.Hbonds>
donor molecule, donor type, donor heavy atom, donor atom, acceptor molecule, acceptor atom, score
      L1  H     6    35       P1  7948  0.99
      L1  H    15    24       P1  8028  1.00
      L1  H    18    48       P1  7948  0.99
      P1  H  8011  8017       L1    17  0.23

> <Gold.Chemscore.Hbond.Weighted>
-11.7801

> <Gold.Chemscore.Metal.Weighted>
-0.0000

> <Gold.Chemscore.Lipo.Weighted>
-6.5645

> <Gold.Chemscore.Internal_Hbond.Weighted>
0.0000

> <Gold.Chemscore.DEClash.Weighted>
0.2564

> <Gold.Chemscore.DEInternal.Weighted>
1.3870

> <Gold.Chemscore.Rot.Weighted>
6.5624

> <Gold.Chemscore.Internal.Correction.Weighted>
   9.000000E+99

> <Gold.Protein.RotatedTorsions>
[ 6907 6896 6895 6894 ] final   52.49 input  -60.11 | X-H torsion
[ 7974 7965 7964 7962 ] final   63.87 input  175.53 | X-H torsion
[ 8008 7997 7996 7995 ] final  133.66 input   59.86 | X-H torsion
[ 10167 10162 10161 10158 ] final -172.57 input  -65.29 | X-H torsion
[ 10718 10713 10712 10709 ] final -141.35 input   66.30 | X-H torsion
[ 10763 10752 10751 10750 ] final  176.75 input  -60.55 | X-H torsion
[ 11005 11000 10999 10996 ] final  -30.99 input  -57.11 | X-H torsion

> <Gold.Protein.ActiveResidues>
 VAL166  LYS551  ARG553  GLY616  TRP617  ASP618  TYR619  PRO620  LYS621  CYS622 
 ASP623  PHE694  ASN695  SER759  ASP760  ASP761  ALA762  ILE779  LEU786  VAL792 
 PHE793  MET794  SER795  GLU796  ALA797  LYS798  CYS799  TRP800  GLU811  SER814 

> <Gold.Protein.RotatedAtoms>
  152.3238  134.7347  160.0306 H   0  0  0  0  0  0  0  0  0  0  0  0  # atno 6907 bound_to 6896
  151.7786  133.3342  159.3473 H   0  0  0  0  0  0  0  0  0  0  0  0  # atno 6908 bound_to 6896
  150.7384  134.5883  159.6018 H   0  0  0  0  0  0  0  0  0  0  0  0  # atno 6909 bound_to 6896
  145.8568  139.3289  143.0843 H   0  0  0  0  0  0  0  0  0  0  0  0  # atno 7974 bound_to 7965
  156.2994  140.2516  156.3289 H   0  0  0  0  0  0  0  0  0  0  0  0  # atno 8008 bound_to 7997
  154.9163  140.0402  157.1993 H   0  0  0  0  0  0  0  0  0  0  0  0  # atno 8009 bound_to 7997
  154.8355  140.2882  155.5698 H   0  0  0  0  0  0  0  0  0  0  0  0  # atno 8010 bound_to 7997
  139.5737  144.1582  152.1420 H   0  0  0  0  0  0  0  0  0  0  0  0  # atno 10167 bound_to 10162
  156.3330  130.7596  151.1718 H   0  0  0  0  0  0  0  0  0  0  0  0  # atno 10718 bound_to 10713
  154.4853  135.2776  155.1539 H   0  0  0  0  0  0  0  0  0  0  0  0  # atno 10763 bound_to 10752
  154.3233  135.6205  153.5521 H   0  0  0  0  0  0  0  0  0  0  0  0  # atno 10764 bound_to 10752
  152.9880  135.5748  154.5262 H   0  0  0  0  0  0  0  0  0  0  0  0  # atno 10765 bound_to 10752
  140.9430  133.7267  156.1104 H   0  0  0  0  0  0  0  0  0  0  0  0  # atno 11005 bound_to 11000
  145.9294  140.9059  143.0364 LP  0  0  0  0  0  0  0  0  0  0  0  0  # atno 17320 bound_to 7965
  144.6727  140.1398  143.7438 LP  0  0  0  0  0  0  0  0  0  0  0  0  # atno 17321 bound_to 7965
  140.1120  144.5449  150.6919 LP  0  0  0  0  0  0  0  0  0  0  0  0  # atno 17342 bound_to 10162
  140.7021  143.2442  151.4835 LP  0  0  0  0  0  0  0  0  0  0  0  0  # atno 17343 bound_to 10162
  157.7434  131.0476  150.4951 LP  0  0  0  0  0  0  0  0  0  0  0  0  # atno 17370 bound_to 10713
  156.5120  130.4141  149.6296 LP  0  0  0  0  0  0  0  0  0  0  0  0  # atno 17371 bound_to 10713
  140.7708  134.3835  157.5508 LP  0  0  0  0  0  0  0  0  0  0  0  0  # atno 17394 bound_to 11000
  139.8825  134.9021  156.2824 LP  0  0  0  0  0  0  0  0  0  0  0  0  # atno 17395 bound_to 11000

$$$$
