AV-unprocessed.smi:657|AV-procd|sdf|3225|dock3
  -GOLD-   22720 0163D 1   1.00000     0.00000
 Structure written by MMmdl.
 46 47  0  0  0  0  0  0  0  0  1 V2000
  152.4459  145.2671  158.6045 C   0  0  0  0  0  0  0  0  0  0  0  0
  151.5683  144.0936  159.0787 C   0  0  0  0  0  0  0  0  0  0  0  0
  150.8870  144.4004  160.4282 C   0  0  0  0  0  0  0  0  0  0  0  0
  152.3195  142.8177  159.0722 N   0  0  0  0  0  0  0  0  0  0  0  0
  153.3848  142.7605  160.0882 C   0  0  0  0  0  0  0  0  0  0  0  0
  154.3136  141.5586  159.8478 C   0  0  0  0  0  0  0  0  0  0  0  0
  153.5301  140.2458  159.8851 C   0  0  0  0  0  0  0  0  0  0  0  0
  152.3800  140.3203  158.8786 C   0  0  0  0  0  0  0  0  0  0  0  0
  151.4961  141.5651  159.1276 C   0  0  2  0  0  0  0  0  0  0  0  0
  150.2971  141.5353  158.1598 C   0  0  0  0  0  0  0  0  0  0  0  0
  149.1725  141.8504  158.5510 O   0  0  0  0  0  0  0  0  0  0  0  0
  150.5507  141.1296  156.9057 N   0  0  0  0  0  0  0  0  0  0  0  0
  149.5585  141.0097  155.8449 C   0  0  0  0  0  0  0  0  0  0  0  0
  150.1867  140.4934  154.5411 C   0  0  0  0  0  0  0  0  0  0  0  0
  150.6053  139.0555  154.6660 C   0  0  0  0  0  0  0  0  0  0  0  0
  151.9287  138.5300  154.6907 C   0  0  0  0  0  0  0  0  0  0  0  0
  151.9568  137.2122  154.8066 N   0  0  0  0  0  0  0  0  0  0  0  0
  150.6581  136.8520  154.8604 N   0  0  0  0  0  0  0  0  0  0  0  0
  150.3104  135.4533  154.9900 C   0  0  0  0  0  0  0  0  0  0  0  0
  149.8200  137.9430  154.7779 C   0  0  0  0  0  0  0  0  0  0  0  0
  151.8304  146.1433  158.3986 H   0  0  0  0  0  0  0  0  0  0  0  0
  152.9754  145.0187  157.6841 H   0  0  0  0  0  0  0  0  0  0  0  0
  153.1814  145.5702  159.3489 H   0  0  0  0  0  0  0  0  0  0  0  0
  150.7845  144.0400  158.3250 H   0  0  0  0  0  0  0  0  0  0  0  0
  150.2740  145.2985  160.3494 H   0  0  0  0  0  0  0  0  0  0  0  0
  151.6123  144.5782  161.2221 H   0  0  0  0  0  0  0  0  0  0  0  0
  150.2294  143.5926  160.7476 H   0  0  0  0  0  0  0  0  0  0  0  0
  154.0002  143.6574  160.0679 H   0  0  0  0  0  0  0  0  0  0  0  0
  152.9553  142.6975  161.0889 H   0  0  0  0  0  0  0  0  0  0  0  0
  154.8133  141.6659  158.8839 H   0  0  0  0  0  0  0  0  0  0  0  0
  155.1001  141.5405  160.6028 H   0  0  0  0  0  0  0  0  0  0  0  0
  154.1845  139.4050  159.6537 H   0  0  0  0  0  0  0  0  0  0  0  0
  153.1373  140.0747  160.8881 H   0  0  0  0  0  0  0  0  0  0  0  0
  152.7921  140.3471  157.8683 H   0  0  0  0  0  0  0  0  0  0  0  0
  151.7836  139.4091  158.9448 H   0  0  0  0  0  0  0  0  0  0  0  0
  151.0908  141.4743  160.1374 H   0  0  0  0  0  0  0  0  0  0  0  0
  151.5005  140.8787  156.6726 H   0  0  0  0  0  0  0  0  0  0  0  0
  148.7860  140.3190  156.1844 H   0  0  0  0  0  0  0  0  0  0  0  0
  149.0655  141.9694  155.6802 H   0  0  0  0  0  0  0  0  0  0  0  0
  149.4756  140.6105  153.7225 H   0  0  0  0  0  0  0  0  0  0  0  0
  151.0422  141.1181  154.2817 H   0  0  0  0  0  0  0  0  0  0  0  0
  152.8647  139.0653  154.6268 H   0  0  0  0  0  0  0  0  0  0  0  0
  149.2266  135.3379  155.0156 H   0  0  0  0  0  0  0  0  0  0  0  0
  150.7315  135.0521  155.9124 H   0  0  0  0  0  0  0  0  0  0  0  0
  150.7064  134.8942  154.1416 H   0  0  0  0  0  0  0  0  0  0  0  0
  148.7451  137.8397  154.8037 H   0  0  0  0  0  0  0  0  0  0  0  0
  1  2  1  0  0  0  0
  1 21  1  0  0  0  0
  1 22  1  0  0  0  0
  1 23  1  0  0  0  0
  2  3  1  0  0  0  0
  2  4  1  0  0  0  0
  2 24  1  0  0  0  0
  3 25  1  0  0  0  0
  3 26  1  0  0  0  0
  3 27  1  0  0  0  0
  4  9  1  0  0  0  0
  4  5  1  0  0  0  0
  5  6  1  0  0  0  0
  5 28  1  0  0  0  0
  5 29  1  0  0  0  0
  6  7  1  0  0  0  0
  6 30  1  0  0  0  0
  6 31  1  0  0  0  0
  7  8  1  0  0  0  0
  7 32  1  0  0  0  0
  7 33  1  0  0  0  0
  8  9  1  0  0  0  0
  8 34  1  0  0  0  0
  8 35  1  0  0  0  0
  9 10  1  0  0  0  0
  9 36  1  0  0  0  0
 10 11  2  0  0  0  0
 10 12  1  0  0  0  0
 12 13  1  0  0  0  0
 12 37  1  0  0  0  0
 13 14  1  0  0  0  0
 13 38  1  0  0  0  0
 13 39  1  0  0  0  0
 14 15  1  0  0  0  0
 14 40  1  0  0  0  0
 14 41  1  0  0  0  0
 15 20  2  0  0  0  0
 15 16  1  0  0  0  0
 16 17  2  0  0  0  0
 16 42  1  0  0  0  0
 17 18  1  0  0  0  0
 18 19  1  0  0  0  0
 18 20  1  0  0  0  0
 19 43  1  0  0  0  0
 19 44  1  0  0  0  0
 19 45  1  0  0  0  0
 20 46  1  0  0  0  0
M  END
> <s_m_source_file>
AV-unprocessed.smi

> <i_m_source_file_index>
657

> <i_lp_mmshare_version>
43012

> <i_f3d_flags>
0

> <s_epik_input>
W0NIM11bQ0hdKFtDSDNdKU4xW0NIMl1bQ0gyXVtDSDJdW0NIMl1bQ0BIXTFDKD1PKVtOSF1bQ0gyXVtDSDJdYzJbY0hdbm4oW0NIM10pW2NIXTI=

> <s_epik_cmdline>
J2VwaWtfcHl0aG9uJywgJy1waCcsICc3LjAnLCAnLXRuJywgJzgnLCAnLW1hJywgJzIwMCcsICctbWV0YWxfYmluZGluZycsICctaW1hZScsICc8aW5maWxlLm1hZT4nLCAnLW9tYWUnLCAnPG91dGZpbGUubWFlPic=

> <r_lp_tautomer_probability>
1

> <r_epik_Ionization_Penalty>
1.91154

> <r_epik_Ionization_Penalty_Charging>
0

> <r_epik_Ionization_Penalty_Neutral>
1.91154

> <r_epik_State_Penalty>
2.0331

> <r_epik_Charging_Adjusted_Penalty>
2.0331

> <i_epik_Tot_Q>
0

> <i_epik_Tot_abs_Q>
0

> <r_epik_Metal_State_Penalty>
2.04973

> <b_epik_Metal_Only>
0

> <s_lp_Force_Field>
OPLS_2005

> <r_lp_Energy>
15.3254

> <b_lp_Chiralities_Consistent>
1

> <s_lp_Variant>
AV-unprocessed.smi:657-6

> <Gold.Version>
5.8.1

> <Gold.Id.Protein>
6NUR|6NUR_protein|mol2

> <Gold.PLP.Fitness>
42.7402

> <Gold.PLP.PLP>
-41.4256

> <Gold.PLP.part.hbond>
-1.4877

> <Gold.PLP.part.metal>
0.0000

> <Gold.PLP.part.buried>
-4.6469

> <Gold.PLP.part.nonpolar>
-35.1326

> <Gold.PLP.part.repulsive>
0.2248

> <Gold.PLP.ligand.clash>
0.0000

> <Gold.PLP.ligand.torsion>
0.8204

> <Gold.PLP.Chemscore.Hbond>
0.9440

> <Gold.PLP.Chemscore.CHOScore>
0.0000

> <Gold.PLP.Chemscore.Metal>
0.0000

> <Gold.Chemscore.Hbonds>
donor molecule, donor type, donor heavy atom, donor atom, acceptor molecule, acceptor atom, score
      P1  H 10752 10763       L1    17  0.93

> <Gold.PLP.Chemscore.Internal.Correction>
0.1234

> <Gold.Rescore>
     Score         DG    S(hbond)    S(metal)    S(lipo)     H(rot)  DE(clash)    DE(int)     intcor
     17.32     -18.13       0.99        0.00     114.38       1.57       0.10       0.71       ----

> <Gold.Chemscore.Fitness>
17.3222

> <Gold.Chemscore.DG>
-18.1336

> <Gold.Chemscore.ZeroCoef>
-5.4800

> <Gold.Chemscore.Hbond>
0.9880

> <Gold.Chemscore.Metal>
0.0000

> <Gold.Chemscore.Lipo>
114.3783

> <Gold.Chemscore.Internal_Hbond>
0.0000

> <Gold.Chemscore.DEClash>
0.1045

> <Gold.Chemscore.DEInternal>
0.7069

> <Gold.Chemscore.Rot>
1.5736

> <Gold.Chemscore.Internal.Correction>
   9.000000E+99

> <Gold.Chemscore.Hbonds>
donor molecule, donor type, donor heavy atom, donor atom, acceptor molecule, acceptor atom, score
      P1  H 10752 10763       L1    17  0.55

> <Gold.Chemscore.Hbond.Weighted>
-3.2998

> <Gold.Chemscore.Metal.Weighted>
-0.0000

> <Gold.Chemscore.Lipo.Weighted>
-13.3823

> <Gold.Chemscore.Internal_Hbond.Weighted>
0.0000

> <Gold.Chemscore.DEClash.Weighted>
0.1045

> <Gold.Chemscore.DEInternal.Weighted>
0.7069

> <Gold.Chemscore.Rot.Weighted>
4.0284

> <Gold.Chemscore.Internal.Correction.Weighted>
   9.000000E+99

> <Gold.Protein.RotatedTorsions>
[ 6907 6896 6895 6894 ] final -110.25 input  -60.11 | X-H torsion
[ 7974 7965 7964 7962 ] final  131.73 input  175.53 | X-H torsion
[ 8008 7997 7996 7995 ] final  124.16 input   59.86 | X-H torsion
[ 10167 10162 10161 10158 ] final  -57.51 input  -65.29 | X-H torsion
[ 10718 10713 10712 10709 ] final -137.85 input   66.30 | X-H torsion
[ 10763 10752 10751 10750 ] final   51.39 input  -60.55 | X-H torsion
[ 11005 11000 10999 10996 ] final -153.21 input  -57.11 | X-H torsion

> <Gold.Protein.ActiveResidues>
 VAL166  LYS551  ARG553  GLY616  TRP617  ASP618  TYR619  PRO620  LYS621  CYS622 
 ASP623  PHE694  ASN695  SER759  ASP760  ASP761  ALA762  ILE779  LEU786  VAL792 
 PHE793  MET794  SER795  GLU796  ALA797  LYS798  CYS799  TRP800  GLU811  SER814 

> <Gold.Protein.RotatedAtoms>
  150.7613  133.9410  159.3455 H   0  0  0  0  0  0  0  0  0  0  0  0  # atno 6907 bound_to 6896
  151.7318  135.0871  160.0311 H   0  0  0  0  0  0  0  0  0  0  0  0  # atno 6908 bound_to 6896
  152.3585  133.6229  159.6033 H   0  0  0  0  0  0  0  0  0  0  0  0  # atno 6909 bound_to 6896
  145.0043  139.4282  143.5277 H   0  0  0  0  0  0  0  0  0  0  0  0  # atno 7974 bound_to 7965
  156.2791  140.2746  156.1743 H   0  0  0  0  0  0  0  0  0  0  0  0  # atno 8008 bound_to 7997
  155.0622  140.0386  157.2598 H   0  0  0  0  0  0  0  0  0  0  0  0  # atno 8009 bound_to 7997
  154.7107  140.2668  155.6637 H   0  0  0  0  0  0  0  0  0  0  0  0  # atno 8010 bound_to 7997
  140.6253  143.2436  151.5378 H   0  0  0  0  0  0  0  0  0  0  0  0  # atno 10167 bound_to 10162
  156.2927  130.7384  151.1414 H   0  0  0  0  0  0  0  0  0  0  0  0  # atno 10718 bound_to 10713
  152.9785  135.5847  154.4407 H   0  0  0  0  0  0  0  0  0  0  0  0  # atno 10763 bound_to 10752
  154.4008  135.2769  155.2099 H   0  0  0  0  0  0  0  0  0  0  0  0  # atno 10764 bound_to 10752
  154.3931  135.6121  153.5908 H   0  0  0  0  0  0  0  0  0  0  0  0  # atno 10765 bound_to 10752
  140.7106  134.3837  157.5198 H   0  0  0  0  0  0  0  0  0  0  0  0  # atno 11005 bound_to 11000
  146.3458  139.9449  142.8736 LP  0  0  0  0  0  0  0  0  0  0  0  0  # atno 17320 bound_to 7965
  145.2111  140.9896  143.4100 LP  0  0  0  0  0  0  0  0  0  0  0  0  # atno 17321 bound_to 7965
  139.5475  144.2483  152.1469 LP  0  0  0  0  0  0  0  0  0  0  0  0  # atno 17342 bound_to 10162
  140.1713  144.4933  150.6578 LP  0  0  0  0  0  0  0  0  0  0  0  0  # atno 17343 bound_to 10162
  157.7347  131.0579  150.5510 LP  0  0  0  0  0  0  0  0  0  0  0  0  # atno 17370 bound_to 10713
  156.5629  130.4260  149.6055 LP  0  0  0  0  0  0  0  0  0  0  0  0  # atno 17371 bound_to 10713
  139.8873  134.8887  156.2538 LP  0  0  0  0  0  0  0  0  0  0  0  0  # atno 17394 bound_to 11000
  141.0088  133.7108  156.1077 LP  0  0  0  0  0  0  0  0  0  0  0  0  # atno 17395 bound_to 11000

$$$$
