AV-unprocessed.smi:3001|AV-procd|sdf|11431|dock8
  -GOLD-   2272016353D 1   1.00000     0.00000
 Structure written by MMmdl.
 41 42  0  0  0  0  0  0  0  0  1 V2000
  143.6516  147.0014  156.0171 C   0  0  0  0  0  0  0  0  0  0  0  0
  143.2042  146.0344  155.4206 C   0  0  0  0  0  0  0  0  0  0  0  0
  142.6615  144.8782  154.6917 C   0  0  0  0  0  0  0  0  0  0  0  0
  143.7165  144.0878  154.0776 N   0  0  0  0  0  0  0  0  0  0  0  0
  144.8319  143.6784  154.7038 C   0  0  0  0  0  0  0  0  0  0  0  0
  145.0613  143.9337  155.8854 O   0  0  0  0  0  0  0  0  0  0  0  0
  145.8562  142.8571  153.9030 C   0  0  0  0  0  0  0  0  0  0  0  0
  147.1947  142.8161  154.4926 N   0  0  0  0  0  0  0  0  0  0  0  0
  148.0407  141.7786  154.4173 C   0  0  0  0  0  0  0  0  0  0  0  0
  147.8089  140.7523  153.7781 O   0  0  0  0  0  0  0  0  0  0  0  0
  149.1409  141.9949  155.1555 N   0  0  0  0  0  0  0  0  0  0  0  0
  150.1676  141.0583  155.4521 C   0  0  0  0  0  0  0  0  0  0  0  0
  150.2569  139.8309  154.7529 C   0  0  0  0  0  0  0  0  0  0  0  0
  151.3276  138.9613  155.0236 C   0  0  0  0  0  0  0  0  0  0  0  0
  152.2819  139.3592  155.9749 C   0  0  0  0  0  0  0  0  0  0  0  0
  152.2158  140.5301  156.6405 N   0  0  0  0  0  0  0  0  0  0  0  0
  151.1803  141.3728  156.4023 C   0  0  0  0  0  0  0  0  0  0  0  0
  151.1467  142.5738  157.1482 N   0  0  0  0  0  0  0  0  0  0  0  0
  152.3280  143.0264  157.8756 C   0  0  0  0  0  0  0  0  0  0  0  0
  151.8142  144.0878  158.8440 C   0  0  0  0  0  0  0  0  0  0  0  0
  150.4414  143.5429  159.2250 C   0  0  0  0  0  0  0  0  0  0  0  0
  149.9553  142.8559  157.9446 C   0  0  0  0  0  0  0  0  0  0  0  0
  144.0423  147.8497  156.5332 H   0  0  0  0  0  0  0  0  0  0  0  0
  142.0938  144.2667  155.3942 H   0  0  0  0  0  0  0  0  0  0  0  0
  141.9717  145.2450  153.9307 H   0  0  0  0  0  0  0  0  0  0  0  0
  143.6002  143.8438  153.1050 H   0  0  0  0  0  0  0  0  0  0  0  0
  145.4731  141.8448  153.7639 H   0  0  0  0  0  0  0  0  0  0  0  0
  145.9407  143.2934  152.9076 H   0  0  0  0  0  0  0  0  0  0  0  0
  147.4743  143.6192  155.0364 H   0  0  0  0  0  0  0  0  0  0  0  0
  149.1557  142.8452  155.6997 H   0  0  0  0  0  0  0  0  0  0  0  0
  149.5309  139.5577  154.0015 H   0  0  0  0  0  0  0  0  0  0  0  0
  151.4211  138.0184  154.5054 H   0  0  0  0  0  0  0  0  0  0  0  0
  153.1237  138.7231  156.2052 H   0  0  0  0  0  0  0  0  0  0  0  0
  152.7729  142.2062  158.4403 H   0  0  0  0  0  0  0  0  0  0  0  0
  153.0828  143.4266  157.1983 H   0  0  0  0  0  0  0  0  0  0  0  0
  152.4702  144.2339  159.7025 H   0  0  0  0  0  0  0  0  0  0  0  0
  151.7065  145.0439  158.3298 H   0  0  0  0  0  0  0  0  0  0  0  0
  150.5488  142.8033  160.0198 H   0  0  0  0  0  0  0  0  0  0  0  0
  149.7574  144.3160  159.5762 H   0  0  0  0  0  0  0  0  0  0  0  0
  149.3098  143.5325  157.3841 H   0  0  0  0  0  0  0  0  0  0  0  0
  149.3855  141.9531  158.1692 H   0  0  0  0  0  0  0  0  0  0  0  0
  1  2  3  0  0  0  0
  1 23  1  0  0  0  0
  2  3  1  0  0  0  0
  3  4  1  0  0  0  0
  3 24  1  0  0  0  0
  3 25  1  0  0  0  0
  4  5  1  0  0  0  0
  4 26  1  0  0  0  0
  5  6  2  0  0  0  0
  5  7  1  0  0  0  0
  7  8  1  0  0  0  0
  7 27  1  0  0  0  0
  7 28  1  0  0  0  0
  8  9  1  0  0  0  0
  8 29  1  0  0  0  0
  9 10  2  0  0  0  0
  9 11  1  0  0  0  0
 11 12  1  0  0  0  0
 11 30  1  0  0  0  0
 12 17  1  0  0  0  0
 12 13  2  0  0  0  0
 13 14  1  0  0  0  0
 13 31  1  0  0  0  0
 14 15  2  0  0  0  0
 14 32  1  0  0  0  0
 15 16  1  0  0  0  0
 15 33  1  0  0  0  0
 16 17  2  0  0  0  0
 17 18  1  0  0  0  0
 18 22  1  0  0  0  0
 18 19  1  0  0  0  0
 19 20  1  0  0  0  0
 19 34  1  0  0  0  0
 19 35  1  0  0  0  0
 20 21  1  0  0  0  0
 20 36  1  0  0  0  0
 20 37  1  0  0  0  0
 21 22  1  0  0  0  0
 21 38  1  0  0  0  0
 21 39  1  0  0  0  0
 22 40  1  0  0  0  0
 22 41  1  0  0  0  0
M  END
> <s_m_source_file>
AV-unprocessed.smi

> <i_m_source_file_index>
3001

> <i_lp_mmshare_version>
43012

> <i_f3d_flags>
0

> <s_epik_input>
W0NIXSNDW0NIMl1bTkhdQyg9TylbQ0gyXVtOSF1DKD1PKVtOSF1jMVtjSF1bY0hdW2NIXW5jMU4yW0NIMl1bQ0gyXVtDSDJdW0NIMl0y

> <s_epik_cmdline>
J2VwaWtfcHl0aG9uJywgJy1waCcsICc3LjAnLCAnLXRuJywgJzgnLCAnLW1hJywgJzIwMCcsICctbWV0YWxfYmluZGluZycsICctaW1hZScsICc8aW5maWxlLm1hZT4nLCAnLW9tYWUnLCAnPG91dGZpbGUubWFlPic=

> <r_lp_tautomer_probability>
1

> <r_epik_Ionization_Penalty>
0.243831

> <r_epik_Ionization_Penalty_Charging>
0

> <r_epik_Ionization_Penalty_Neutral>
0.243831

> <r_epik_State_Penalty>
0.234327

> <r_epik_Charging_Adjusted_Penalty>
0.234327

> <i_epik_Tot_Q>
0

> <i_epik_Tot_abs_Q>
0

> <r_epik_Metal_State_Penalty>
0.165313

> <b_epik_Metal_Only>
0

> <s_lp_Force_Field>
OPLS_2005

> <r_lp_Energy>
26.7815

> <b_lp_Chiralities_Consistent>
1

> <s_lp_Variant>
AV-unprocessed.smi:3001-1

> <Gold.Version>
5.8.1

> <Gold.Id.Protein>
6NUR|6NUR_protein|mol2

> <Gold.PLP.Fitness>
45.3963

> <Gold.PLP.PLP>
-39.7986

> <Gold.PLP.part.hbond>
-3.6050

> <Gold.PLP.part.metal>
0.0000

> <Gold.PLP.part.buried>
-2.4777

> <Gold.PLP.part.nonpolar>
-33.9833

> <Gold.PLP.part.repulsive>
0.8294

> <Gold.PLP.ligand.clash>
0.0000

> <Gold.PLP.ligand.torsion>
0.7220

> <Gold.PLP.Chemscore.Hbond>
2.2288

> <Gold.PLP.Chemscore.CHOScore>
0.0000

> <Gold.PLP.Chemscore.Metal>
0.0000

> <Gold.Chemscore.Hbonds>
donor molecule, donor type, donor heavy atom, donor atom, acceptor molecule, acceptor atom, score
      L1  H     4    26       P1 10174  0.74
      L1  H     8    29       P1  8028  0.63
      L1  H    11    30       P1  8028  0.90

> <Gold.PLP.Chemscore.Internal.Correction>
0.3552

> <Gold.Rescore>
     Score         DG    S(hbond)    S(metal)    S(lipo)     H(rot)  DE(clash)    DE(int)     intcor
     12.14     -17.82       1.84        0.00      92.81       1.82       1.65       4.04       ----

> <Gold.Chemscore.Fitness>
12.1371

> <Gold.Chemscore.DG>
-17.8199

> <Gold.Chemscore.ZeroCoef>
-5.4800

> <Gold.Chemscore.Hbond>
1.8412

> <Gold.Chemscore.Metal>
0.0000

> <Gold.Chemscore.Lipo>
92.8091

> <Gold.Chemscore.Internal_Hbond>
0.0000

> <Gold.Chemscore.DEClash>
1.6478

> <Gold.Chemscore.DEInternal>
4.0350

> <Gold.Chemscore.Rot>
1.8236

> <Gold.Chemscore.Internal.Correction>
   9.000000E+99

> <Gold.Chemscore.Hbonds>
donor molecule, donor type, donor heavy atom, donor atom, acceptor molecule, acceptor atom, score
      L1  H     4    26       P1 10174  0.68
      L1  H     8    29       P1  8028  0.05
      L1  H    11    30       P1  8028  0.88

> <Gold.Chemscore.Hbond.Weighted>
-6.1497

> <Gold.Chemscore.Metal.Weighted>
-0.0000

> <Gold.Chemscore.Lipo.Weighted>
-10.8587

> <Gold.Chemscore.Internal_Hbond.Weighted>
0.0000

> <Gold.Chemscore.DEClash.Weighted>
1.6478

> <Gold.Chemscore.DEInternal.Weighted>
4.0350

> <Gold.Chemscore.Rot.Weighted>
4.6685

> <Gold.Chemscore.Internal.Correction.Weighted>
   9.000000E+99

> <Gold.Protein.RotatedTorsions>
[ 6907 6896 6895 6894 ] final  155.04 input  -60.11 | X-H torsion
[ 7974 7965 7964 7962 ] final -149.78 input  175.53 | X-H torsion
[ 8008 7997 7996 7995 ] final  -37.99 input   59.86 | X-H torsion
[ 10167 10162 10161 10158 ] final   10.28 input  -65.29 | X-H torsion
[ 10718 10713 10712 10709 ] final  -38.99 input   66.30 | X-H torsion
[ 10763 10752 10751 10750 ] final -117.24 input  -60.55 | X-H torsion
[ 11005 11000 10999 10996 ] final   88.55 input  -57.11 | X-H torsion

> <Gold.Protein.ActiveResidues>
 VAL166  LYS551  ARG553  GLY616  TRP617  ASP618  TYR619  PRO620  LYS621  CYS622 
 ASP623  PHE694  ASN695  SER759  ASP760  ASP761  ALA762  ILE779  LEU786  VAL792 
 PHE793  MET794  SER795  GLU796  ALA797  LYS798  CYS799  TRP800  GLU811  SER814 

> <Gold.Protein.RotatedAtoms>
  152.0498  133.4014  159.4372 H   0  0  0  0  0  0  0  0  0  0  0  0  # atno 6907 bound_to 6896
  150.6871  134.3320  159.4840 H   0  0  0  0  0  0  0  0  0  0  0  0  # atno 6908 bound_to 6896
  152.1129  134.9261  160.0616 H   0  0  0  0  0  0  0  0  0  0  0  0  # atno 6909 bound_to 6896
  144.7947  140.5020  143.5748 H   0  0  0  0  0  0  0  0  0  0  0  0  # atno 7974 bound_to 7965
  154.4044  140.1590  156.2626 H   0  0  0  0  0  0  0  0  0  0  0  0  # atno 8008 bound_to 7997
  155.9023  140.3432  155.6013 H   0  0  0  0  0  0  0  0  0  0  0  0  # atno 8009 bound_to 7997
  155.7433  140.0795  157.2226 H   0  0  0  0  0  0  0  0  0  0  0  0  # atno 8010 bound_to 7997
  140.6204  143.8217  150.7168 H   0  0  0  0  0  0  0  0  0  0  0  0  # atno 10167 bound_to 10162
  156.2975  130.4236  149.8176 H   0  0  0  0  0  0  0  0  0  0  0  0  # atno 10718 bound_to 10713
  154.8548  135.4317  154.1947 H   0  0  0  0  0  0  0  0  0  0  0  0  # atno 10763 bound_to 10752
  153.3008  135.6968  153.7211 H   0  0  0  0  0  0  0  0  0  0  0  0  # atno 10764 bound_to 10752
  153.6342  135.3479  155.3025 H   0  0  0  0  0  0  0  0  0  0  0  0  # atno 10765 bound_to 10752
  139.8894  134.8495  156.3016 H   0  0  0  0  0  0  0  0  0  0  0  0  # atno 11005 bound_to 11000
  145.5704  139.1483  143.3291 LP  0  0  0  0  0  0  0  0  0  0  0  0  # atno 17320 bound_to 7965
  146.2211  140.5837  142.9017 LP  0  0  0  0  0  0  0  0  0  0  0  0  # atno 17321 bound_to 7965
  140.1806  143.4118  152.1935 LP  0  0  0  0  0  0  0  0  0  0  0  0  # atno 17342 bound_to 10162
  139.5433  144.7276  151.4662 LP  0  0  0  0  0  0  0  0  0  0  0  0  # atno 17343 bound_to 10162
  156.5566  130.8365  151.3316 LP  0  0  0  0  0  0  0  0  0  0  0  0  # atno 17370 bound_to 10713
  157.7359  130.9770  150.2108 LP  0  0  0  0  0  0  0  0  0  0  0  0  # atno 17371 bound_to 10713
  140.9909  133.7209  156.0813 LP  0  0  0  0  0  0  0  0  0  0  0  0  # atno 17394 bound_to 11000
  140.7626  134.3922  157.5523 LP  0  0  0  0  0  0  0  0  0  0  0  0  # atno 17395 bound_to 11000

$$$$
