AV-unprocessed.smi:2913|AV-procd|sdf|11185|dock3
  -GOLD-   2272016 73D 1   1.00000     0.00000
 Structure written by MMmdl.
 41 42  0  0  0  0  0  0  0  0  1 V2000
  145.7208  135.7616  151.0832 C   0  0  0  0  0  0  0  0  0  0  0  0
  145.6276  134.2531  151.2430 C   0  0  0  0  0  0  0  0  0  0  0  0
  144.6902  133.5623  150.5567 C   0  0  0  0  0  0  0  0  0  0  0  0
  144.5445  132.1092  150.6574 C   0  0  0  0  0  0  0  0  0  0  0  0
  143.6842  131.4896  150.0311 O   0  0  0  0  0  0  0  0  0  0  0  0
  145.4259  131.4877  151.4880 N   0  0  0  0  0  0  0  0  0  0  0  0
  145.3724  130.0319  151.6471 C   0  0  0  0  0  0  0  0  0  0  0  0
  146.4043  132.1936  152.2084 C   0  0  0  0  0  0  0  0  0  0  0  0
  146.5371  133.5364  152.1284 C   0  0  0  0  0  0  0  0  0  0  0  0
  147.5059  134.2820  152.8218 N   0  0  0  0  0  0  0  0  0  0  0  0
  148.0278  134.0861  154.0471 C   0  0  0  0  0  0  0  0  0  0  0  0
  147.7090  133.1956  154.8342 O   0  0  0  0  0  0  0  0  0  0  0  0
  148.9498  135.0202  154.3213 N   0  0  0  0  0  0  0  0  0  0  0  0
  149.6991  135.1500  155.5696 C   0  0  1  0  0  0  0  0  0  0  0  0
  150.7940  134.0742  155.6113 C   0  0  0  0  0  0  0  0  0  0  0  0
  150.2816  136.5720  155.6846 C   0  0  1  0  0  0  0  0  0  0  0  0
  150.9956  136.8691  157.0065 C   0  0  0  0  0  0  0  0  0  0  0  0
  152.0215  137.9316  156.6392 C   0  0  0  0  0  0  0  0  0  0  0  0
  152.0041  137.9569  155.1091 C   0  0  0  0  0  0  0  0  0  0  0  0
  151.3154  136.7736  154.7338 O   0  0  0  0  0  0  0  0  0  0  0  0
  144.9646  136.1431  150.3961 H   0  0  0  0  0  0  0  0  0  0  0  0
  146.6996  136.0410  150.6928 H   0  0  0  0  0  0  0  0  0  0  0  0
  145.5787  136.2548  152.0451 H   0  0  0  0  0  0  0  0  0  0  0  0
  144.0157  134.0936  149.9010 H   0  0  0  0  0  0  0  0  0  0  0  0
  146.1176  129.6538  152.3473 H   0  0  0  0  0  0  0  0  0  0  0  0
  145.5455  129.5371  150.6905 H   0  0  0  0  0  0  0  0  0  0  0  0
  144.3942  129.7224  152.0178 H   0  0  0  0  0  0  0  0  0  0  0  0
  147.0314  131.5572  152.8113 H   0  0  0  0  0  0  0  0  0  0  0  0
  147.8450  135.0909  152.3224 H   0  0  0  0  0  0  0  0  0  0  0  0
  149.1419  135.7119  153.6117 H   0  0  0  0  0  0  0  0  0  0  0  0
  149.0405  134.9856  156.4242 H   0  0  0  0  0  0  0  0  0  0  0  0
  151.3601  134.1254  156.5419 H   0  0  0  0  0  0  0  0  0  0  0  0
  151.4981  134.1903  154.7866 H   0  0  0  0  0  0  0  0  0  0  0  0
  150.3634  133.0744  155.5447 H   0  0  0  0  0  0  0  0  0  0  0  0
  149.5005  137.3160  155.5151 H   0  0  0  0  0  0  0  0  0  0  0  0
  150.3087  137.1975  157.7870 H   0  0  0  0  0  0  0  0  0  0  0  0
  151.5097  135.9776  157.3683 H   0  0  0  0  0  0  0  0  0  0  0  0
  151.7607  138.9081  157.0482 H   0  0  0  0  0  0  0  0  0  0  0  0
  153.0062  137.6594  157.0203 H   0  0  0  0  0  0  0  0  0  0  0  0
  151.4501  138.8240  154.7462 H   0  0  0  0  0  0  0  0  0  0  0  0
  153.0046  137.9871  154.6773 H   0  0  0  0  0  0  0  0  0  0  0  0
  1  2  1  0  0  0  0
  1 21  1  0  0  0  0
  1 22  1  0  0  0  0
  1 23  1  0  0  0  0
  2  9  1  0  0  0  0
  2  3  2  0  0  0  0
  3  4  1  0  0  0  0
  3 24  1  0  0  0  0
  4  5  2  0  0  0  0
  4  6  1  0  0  0  0
  6  7  1  0  0  0  0
  6  8  1  0  0  0  0
  7 25  1  0  0  0  0
  7 26  1  0  0  0  0
  7 27  1  0  0  0  0
  8  9  2  0  0  0  0
  8 28  1  0  0  0  0
  9 10  1  0  0  0  0
 10 11  1  0  0  0  0
 10 29  1  0  0  0  0
 11 12  2  0  0  0  0
 11 13  1  0  0  0  0
 13 14  1  0  0  0  0
 13 30  1  0  0  0  0
 14 15  1  0  0  0  0
 14 16  1  0  0  0  0
 14 31  1  0  0  0  0
 15 32  1  0  0  0  0
 15 33  1  0  0  0  0
 15 34  1  0  0  0  0
 16 20  1  0  0  0  0
 16 17  1  0  0  0  0
 16 35  1  0  0  0  0
 17 18  1  0  0  0  0
 17 36  1  0  0  0  0
 17 37  1  0  0  0  0
 18 19  1  0  0  0  0
 18 38  1  0  0  0  0
 18 39  1  0  0  0  0
 19 20  1  0  0  0  0
 19 40  1  0  0  0  0
 19 41  1  0  0  0  0
M  END
> <s_m_source_file>
AV-unprocessed.smi

> <i_m_source_file_index>
2913

> <i_lp_mmshare_version>
43012

> <i_f3d_flags>
0

> <s_epik_input>
W0NIM11jMVtjSF1jKD1PKW4oW0NIM10pW2NIXWMxW05IXUMoPU8pW05IXVtDQEhdKFtDSDNdKVtDQEBIXTJbQ0gyXVtDSDJdW0NIMl1PMg==

> <s_epik_cmdline>
J2VwaWtfcHl0aG9uJywgJy1waCcsICc3LjAnLCAnLXRuJywgJzgnLCAnLW1hJywgJzIwMCcsICctbWV0YWxfYmluZGluZycsICctaW1hZScsICc8aW5maWxlLm1hZT4nLCAnLW9tYWUnLCAnPG91dGZpbGUubWFlPic=

> <r_lp_tautomer_probability>
1

> <r_epik_Ionization_Penalty>
2.72039e-05

> <r_epik_Ionization_Penalty_Charging>
8.03976e-06

> <r_epik_Ionization_Penalty_Neutral>
1.91642e-05

> <r_epik_State_Penalty>
-0

> <r_epik_Charging_Adjusted_Penalty>
8.03976e-06

> <i_epik_Tot_Q>
0

> <i_epik_Tot_abs_Q>
0

> <r_epik_Metal_State_Penalty>
-0

> <b_epik_Metal_Only>
0

> <s_lp_Force_Field>
OPLS_2005

> <r_lp_Energy>
32.2594

> <b_lp_Chiralities_Consistent>
1

> <s_lp_Variant>
AV-unprocessed.smi:2913-4

> <Gold.Version>
5.8.1

> <Gold.Id.Protein>
6NUR|6NUR_protein|mol2

> <Gold.PLP.Fitness>
42.0585

> <Gold.PLP.PLP>
-31.9491

> <Gold.PLP.part.hbond>
-4.0000

> <Gold.PLP.part.metal>
0.0000

> <Gold.PLP.part.buried>
-6.2399

> <Gold.PLP.part.nonpolar>
-23.3974

> <Gold.PLP.part.repulsive>
0.4077

> <Gold.PLP.ligand.clash>
0.0000

> <Gold.PLP.ligand.torsion>
0.5192

> <Gold.PLP.Chemscore.Hbond>
3.7080

> <Gold.PLP.Chemscore.CHOScore>
0.0000

> <Gold.PLP.Chemscore.Metal>
0.0000

> <Gold.Chemscore.Hbonds>
donor molecule, donor type, donor heavy atom, donor atom, acceptor molecule, acceptor atom, score
      L1  H    10    29       P1  7948  1.00
      L1  H    13    30       P1  7948  0.94
      P1  H 10752 10763       L1    20  0.85
      P1  H 10785 10796       L1     5  0.85

> <Gold.PLP.Chemscore.Internal.Correction>
0.0238

> <Gold.Rescore>
     Score         DG    S(hbond)    S(metal)    S(lipo)     H(rot)  DE(clash)    DE(int)     intcor
     19.30     -20.10       2.92        0.00      68.13       1.21       0.07       0.73       ----

> <Gold.Chemscore.Fitness>
19.2954

> <Gold.Chemscore.DG>
-20.0956

> <Gold.Chemscore.ZeroCoef>
-5.4800

> <Gold.Chemscore.Hbond>
2.9170

> <Gold.Chemscore.Metal>
0.0000

> <Gold.Chemscore.Lipo>
68.1253

> <Gold.Chemscore.Internal_Hbond>
0.0000

> <Gold.Chemscore.DEClash>
0.0688

> <Gold.Chemscore.DEInternal>
0.7313

> <Gold.Chemscore.Rot>
1.2101

> <Gold.Chemscore.Internal.Correction>
   9.000000E+99

> <Gold.Chemscore.Hbonds>
donor molecule, donor type, donor heavy atom, donor atom, acceptor molecule, acceptor atom, score
      L1  H    10    29       P1  7948  0.91
      L1  H    13    30       P1  7948  0.69
      P1  H 10752 10763       L1    20  0.14
      P1  H 10785 10796       L1     5  0.83

> <Gold.Chemscore.Hbond.Weighted>
-9.7428

> <Gold.Chemscore.Metal.Weighted>
-0.0000

> <Gold.Chemscore.Lipo.Weighted>
-7.9707

> <Gold.Chemscore.Internal_Hbond.Weighted>
0.0000

> <Gold.Chemscore.DEClash.Weighted>
0.0688

> <Gold.Chemscore.DEInternal.Weighted>
0.7313

> <Gold.Chemscore.Rot.Weighted>
3.0979

> <Gold.Chemscore.Internal.Correction.Weighted>
   9.000000E+99

> <Gold.Protein.RotatedTorsions>
[ 6907 6896 6895 6894 ] final   80.52 input  -60.11 | X-H torsion
[ 7974 7965 7964 7962 ] final   70.49 input  175.53 | X-H torsion
[ 8008 7997 7996 7995 ] final   80.68 input   59.86 | X-H torsion
[ 10167 10162 10161 10158 ] final  -62.07 input  -65.29 | X-H torsion
[ 10718 10713 10712 10709 ] final  133.25 input   66.30 | X-H torsion
[ 10763 10752 10751 10750 ] final   45.31 input  -60.55 | X-H torsion
[ 11005 11000 10999 10996 ] final -108.38 input  -57.11 | X-H torsion

> <Gold.Protein.ActiveResidues>
 VAL166  LYS551  ARG553  GLY616  TRP617  ASP618  TYR619  PRO620  LYS621  CYS622 
 ASP623  PHE694  ASN695  SER759  ASP760  ASP761  ALA762  ILE779  LEU786  VAL792 
 PHE793  MET794  SER795  GLU796  ALA797  LYS798  CYS799  TRP800  GLU811  SER814 

> <Gold.Protein.RotatedAtoms>
  152.5237  134.3345  159.9194 H   0  0  0  0  0  0  0  0  0  0  0  0  # atno 6907 bound_to 6896
  151.3295  133.4000  159.2669 H   0  0  0  0  0  0  0  0  0  0  0  0  # atno 6908 bound_to 6896
  150.9893  134.9249  159.7947 H   0  0  0  0  0  0  0  0  0  0  0  0  # atno 6909 bound_to 6896
  145.7775  139.2872  143.1285 H   0  0  0  0  0  0  0  0  0  0  0  0  # atno 7974 bound_to 7965
  155.8868  140.3441  155.5927 H   0  0  0  0  0  0  0  0  0  0  0  0  # atno 8008 bound_to 7997
  155.7657  140.0838  157.2152 H   0  0  0  0  0  0  0  0  0  0  0  0  # atno 8009 bound_to 7997
  154.4029  140.1527  156.2871 H   0  0  0  0  0  0  0  0  0  0  0  0  # atno 8010 bound_to 7997
  140.5964  143.2352  151.6027 H   0  0  0  0  0  0  0  0  0  0  0  0  # atno 10167 bound_to 10162
  157.4791  131.1085  150.9705 H   0  0  0  0  0  0  0  0  0  0  0  0  # atno 10718 bound_to 10713
  152.9826  135.6043  154.3415 H   0  0  0  0  0  0  0  0  0  0  0  0  # atno 10763 bound_to 10752
  154.3111  135.2771  155.2567 H   0  0  0  0  0  0  0  0  0  0  0  0  # atno 10764 bound_to 10752
  154.4776  135.5925  153.6422 H   0  0  0  0  0  0  0  0  0  0  0  0  # atno 10765 bound_to 10752
  141.0905  133.9064  157.2087 H   0  0  0  0  0  0  0  0  0  0  0  0  # atno 11005 bound_to 11000
  146.0107  140.8437  142.9972 LP  0  0  0  0  0  0  0  0  0  0  0  0  # atno 17320 bound_to 7965
  144.6802  140.2486  143.7334 LP  0  0  0  0  0  0  0  0  0  0  0  0  # atno 17321 bound_to 7965
  139.5261  144.3055  152.1037 LP  0  0  0  0  0  0  0  0  0  0  0  0  # atno 17342 bound_to 10162
  140.2228  144.4448  150.6334 LP  0  0  0  0  0  0  0  0  0  0  0  0  # atno 17343 bound_to 10162
  157.0444  130.5762  149.5361 LP  0  0  0  0  0  0  0  0  0  0  0  0  # atno 17370 bound_to 10713
  156.0112  130.5204  150.7994 LP  0  0  0  0  0  0  0  0  0  0  0  0  # atno 17371 bound_to 10713
  139.9730  135.0122  156.9560 LP  0  0  0  0  0  0  0  0  0  0  0  0  # atno 17394 bound_to 11000
  140.5264  134.0857  155.7304 LP  0  0  0  0  0  0  0  0  0  0  0  0  # atno 17395 bound_to 11000

$$$$
