AV-unprocessed.smi:65|AV-procd|sdf|616|dock1
  -GOLD-   2262016513D 1   1.00000     0.00000
 Structure written by MMmdl.
 26 27  0  0  0  0  0  0  0  0  2 V2000
  147.1815  137.9409  152.9887 N   0  0  0  0  0  0  0  0  0  0  0  0
  146.0247  137.2624  152.6918 C   0  0  0  0  0  0  0  0  0  0  0  0
  144.8634  137.7730  153.1109 N   0  0  0  0  0  0  0  0  0  0  0  0
  143.7250  137.1142  152.8218 C   0  0  0  0  0  0  0  0  0  0  0  0
  143.7358  135.9108  152.0973 C   0  0  0  0  0  0  0  0  0  0  0  0
  144.9936  135.4163  151.6843 C   0  0  0  0  0  0  0  0  0  0  0  0
  145.1327  134.2250  150.9475 N   0  0  0  0  0  0  0  0  0  0  0  0
  143.9718  133.5256  150.4116 C   0  0  0  0  0  0  0  0  0  0  0  0
  144.3747  132.0470  150.3448 C   0  0  0  0  0  0  0  0  0  0  0  0
  145.9036  132.0887  150.3261 C   0  0  2  0  0  0  0  0  0  0  0  0
  146.4858  130.9024  150.8218 O   0  0  0  0  0  0  0  0  0  0  0  0
  146.2218  133.2964  151.2061 C   0  0  0  0  0  0  0  0  0  0  0  0
  146.1151  136.1207  151.9955 N   0  3  0  0  0  0  0  0  0  0  0  0
  148.0758  137.5820  152.6861 H   0  0  0  0  0  0  0  0  0  0  0  0
  147.1527  138.8107  153.5010 H   0  0  0  0  0  0  0  0  0  0  0  0
  142.8005  137.5513  153.1690 H   0  0  0  0  0  0  0  0  0  0  0  0
  142.8106  135.4025  151.8689 H   0  0  0  0  0  0  0  0  0  0  0  0
  143.0842  133.6585  151.0311 H   0  0  0  0  0  0  0  0  0  0  0  0
  143.7565  133.9135  149.4156 H   0  0  0  0  0  0  0  0  0  0  0  0
  144.0260  131.5397  151.2459 H   0  0  0  0  0  0  0  0  0  0  0  0
  143.9503  131.5292  149.4840 H   0  0  0  0  0  0  0  0  0  0  0  0
  146.2541  132.2704  149.3091 H   0  0  0  0  0  0  0  0  0  0  0  0
  147.3632  130.8287  150.4777 H   0  0  0  0  0  0  0  0  0  0  0  0
  147.1930  133.7291  150.9634 H   0  0  0  0  0  0  0  0  0  0  0  0
  146.2175  133.0229  152.2624 H   0  0  0  0  0  0  0  0  0  0  0  0
  147.0251  135.7707  151.6966 H   0  0  0  0  0  0  0  0  0  0  0  0
  1  2  1  0  0  0  0
  1 14  1  0  0  0  0
  1 15  1  0  0  0  0
  2 13  1  0  0  0  0
  2  3  2  0  0  0  0
  3  4  1  0  0  0  0
  4  5  2  0  0  0  0
  4 16  1  0  0  0  0
  5  6  1  0  0  0  0
  5 17  1  0  0  0  0
  6  7  1  0  0  0  0
  6 13  2  0  0  0  0
  7 12  1  0  0  0  0
  7  8  1  0  0  0  0
  8  9  1  0  0  0  0
  8 18  1  0  0  0  0
  8 19  1  0  0  0  0
  9 10  1  0  0  0  0
  9 20  1  0  0  0  0
  9 21  1  0  0  0  0
 10 11  1  0  0  0  0
 10 12  1  0  0  0  0
 10 22  1  0  0  0  0
 11 23  1  0  0  0  0
 12 24  1  0  0  0  0
 12 25  1  0  0  0  0
 13 26  1  0  0  0  0
M  CHG  1  13   1
M  END
> <s_m_source_file>
AV-unprocessed.smi

> <i_m_source_file_index>
65

> <i_lp_mmshare_version>
43012

> <i_f3d_flags>
0

> <s_epik_input>
W05IMl1jMW5bY0hdW2NIXWMobjEpTjJbQ0gyXVtDSDJdW0NAQEhdKFtPSF0pW0NIMl0y

> <s_epik_cmdline>
J2VwaWtfcHl0aG9uJywgJy1waCcsICc3LjAnLCAnLXRuJywgJzgnLCAnLW1hJywgJzIwMCcsICctbWV0YWxfYmluZGluZycsICctaW1hZScsICc8aW5maWxlLm1hZT4nLCAnLW9tYWUnLCAnPG91dGZpbGUubWFlPic=

> <r_lp_tautomer_probability>
0.424989

> <r_epik_Ionization_Penalty>
0.57487

> <r_epik_Ionization_Penalty_Charging>
0.574865

> <r_epik_Ionization_Penalty_Neutral>
4.40886e-06

> <r_epik_State_Penalty>
0.845539

> <r_epik_Charging_Adjusted_Penalty>
1.4204

> <i_epik_Tot_Q>
1

> <i_epik_Tot_abs_Q>
1

> <r_epik_Metal_State_Penalty>
1.14248

> <b_epik_Metal_Only>
0

> <s_lp_Force_Field>
OPLS_2005

> <r_lp_Energy>
20.8145

> <b_lp_Chiralities_Consistent>
1

> <s_lp_Variant>
AV-unprocessed.smi:65-6

> <Gold.Version>
5.8.1

> <Gold.Id.Protein>
6NUR|6NUR_protein|mol2

> <Gold.PLP.Fitness>
37.2871

> <Gold.PLP.PLP>
-24.0636

> <Gold.PLP.part.hbond>
-3.0000

> <Gold.PLP.part.metal>
0.0000

> <Gold.PLP.part.buried>
-4.3516

> <Gold.PLP.part.nonpolar>
-18.6285

> <Gold.PLP.part.repulsive>
1.1908

> <Gold.PLP.ligand.clash>
0.0000

> <Gold.PLP.ligand.torsion>
0.3218

> <Gold.PLP.Chemscore.Hbond>
4.5520

> <Gold.PLP.Chemscore.CHOScore>
0.0000

> <Gold.PLP.Chemscore.Metal>
0.0000

> <Gold.Chemscore.Hbonds>
donor molecule, donor type, donor heavy atom, donor atom, acceptor molecule, acceptor atom, score
      L1  H     1    14       P1  7948  1.89
      L1  H    11    23       P1 10747  1.00
      L1  H    13    26       P1  7948  1.63

> <Gold.PLP.Chemscore.Internal.Correction>
0.2111

> <Gold.Rescore>
     Score         DG    S(hbond)    S(metal)    S(lipo)     H(rot)  DE(clash)    DE(int)     intcor
     16.57     -16.90       2.75        0.00      40.92       1.00       0.00       0.33       ----

> <Gold.Chemscore.Fitness>
16.5669

> <Gold.Chemscore.DG>
-16.8976

> <Gold.Chemscore.ZeroCoef>
-5.4800

> <Gold.Chemscore.Hbond>
2.7514

> <Gold.Chemscore.Metal>
0.0000

> <Gold.Chemscore.Lipo>
40.9235

> <Gold.Chemscore.Internal_Hbond>
0.0000

> <Gold.Chemscore.DEClash>
0.0021

> <Gold.Chemscore.DEInternal>
0.3286

> <Gold.Chemscore.Rot>
1.0000

> <Gold.Chemscore.Internal.Correction>
   9.000000E+99

> <Gold.Chemscore.Hbonds>
donor molecule, donor type, donor heavy atom, donor atom, acceptor molecule, acceptor atom, score
      L1  H     1    14       P1  7948  0.91
      L1  H    11    23       P1 10747  0.99
      L1  H    13    26       P1  7948  0.81

> <Gold.Chemscore.Hbond.Weighted>
-9.1896

> <Gold.Chemscore.Metal.Weighted>
-0.0000

> <Gold.Chemscore.Lipo.Weighted>
-4.7881

> <Gold.Chemscore.Internal_Hbond.Weighted>
0.0000

> <Gold.Chemscore.DEClash.Weighted>
0.0021

> <Gold.Chemscore.DEInternal.Weighted>
0.3286

> <Gold.Chemscore.Rot.Weighted>
2.5600

> <Gold.Chemscore.Internal.Correction.Weighted>
   9.000000E+99

> <Gold.Protein.RotatedTorsions>
[ 6907 6896 6895 6894 ] final  -15.19 input  -60.11 | X-H torsion
[ 7974 7965 7964 7962 ] final  140.01 input  175.53 | X-H torsion
[ 8008 7997 7996 7995 ] final -178.97 input   59.86 | X-H torsion
[ 10167 10162 10161 10158 ] final   92.37 input  -65.29 | X-H torsion
[ 10718 10713 10712 10709 ] final -154.14 input   66.30 | X-H torsion
[ 10763 10752 10751 10750 ] final   56.62 input  -60.55 | X-H torsion
[ 11005 11000 10999 10996 ] final   93.68 input  -57.11 | X-H torsion

> <Gold.Protein.ActiveResidues>
 VAL166  LYS551  ARG553  GLY616  TRP617  ASP618  TYR619  PRO620  LYS621  CYS622 
 ASP623  PHE694  ASN695  SER759  ASP760  ASP761  ALA762  ILE779  LEU786  VAL792 
 PHE793  MET794  SER795  GLU796  ALA797  LYS798  CYS799  TRP800  GLU811  SER814 

> <Gold.Protein.RotatedAtoms>
  151.3278  135.0834  159.9327 H   0  0  0  0  0  0  0  0  0  0  0  0  # atno 6907 bound_to 6896
  152.5242  133.9574  159.7711 H   0  0  0  0  0  0  0  0  0  0  0  0  # atno 6908 bound_to 6896
  150.9907  133.6100  159.2739 H   0  0  0  0  0  0  0  0  0  0  0  0  # atno 6909 bound_to 6896
  144.9226  139.5148  143.5656 H   0  0  0  0  0  0  0  0  0  0  0  0  # atno 7974 bound_to 7965
  156.0251  140.1269  157.0317 H   0  0  0  0  0  0  0  0  0  0  0  0  # atno 8008 bound_to 7997
  154.4327  140.1061  156.6089 H   0  0  0  0  0  0  0  0  0  0  0  0  # atno 8009 bound_to 7997
  155.5888  140.3469  155.4563 H   0  0  0  0  0  0  0  0  0  0  0  0  # atno 8010 bound_to 7997
  139.8283  144.6699  150.9432 H   0  0  0  0  0  0  0  0  0  0  0  0  # atno 10167 bound_to 10162
  156.4953  130.8366  151.2587 H   0  0  0  0  0  0  0  0  0  0  0  0  # atno 10718 bound_to 10713
  152.9835  135.5670  154.5259 H   0  0  0  0  0  0  0  0  0  0  0  0  # atno 10763 bound_to 10752
  154.4739  135.2786  155.1624 H   0  0  0  0  0  0  0  0  0  0  0  0  # atno 10764 bound_to 10752
  154.3161  135.6278  153.5540 H   0  0  0  0  0  0  0  0  0  0  0  0  # atno 10765 bound_to 10752
  139.8807  134.8803  156.3754 H   0  0  0  0  0  0  0  0  0  0  0  0  # atno 11005 bound_to 11000
  146.3211  139.8117  142.8944 LP  0  0  0  0  0  0  0  0  0  0  0  0  # atno 17320 bound_to 7965
  145.3271  141.0258  143.3467 LP  0  0  0  0  0  0  0  0  0  0  0  0  # atno 17321 bound_to 7965
  140.7808  143.4025  151.1125 LP  0  0  0  0  0  0  0  0  0  0  0  0  # atno 17342 bound_to 10162
  139.7681  143.8535  152.3115 LP  0  0  0  0  0  0  0  0  0  0  0  0  # atno 17343 bound_to 10162
  157.7469  131.0000  150.2909 LP  0  0  0  0  0  0  0  0  0  0  0  0  # atno 17370 bound_to 10713
  156.3386  130.3812  149.7428 LP  0  0  0  0  0  0  0  0  0  0  0  0  # atno 17371 bound_to 10713
  140.9436  133.7498  156.0178 LP  0  0  0  0  0  0  0  0  0  0  0  0  # atno 17394 bound_to 11000
  140.8190  134.3311  157.5387 LP  0  0  0  0  0  0  0  0  0  0  0  0  # atno 17395 bound_to 11000

$$$$
