AV-unprocessed.smi:526|AV-procd|sdf|2811|dock6
  -GOLD-   2262023293D 1   1.00000     0.00000
 Structure written by MMmdl.
 30 30  0  0  0  0  0  0  0  0  2 V2000
  153.6122  142.2088  159.9590 C   0  0  0  0  0  0  0  0  0  0  0  0
  152.7463  143.2357  159.9755 C   0  0  0  0  0  0  0  0  0  0  0  0
  152.1302  143.7467  161.2642 C   0  0  0  0  0  0  0  0  0  0  0  0
  152.3262  143.9547  158.7070 C   0  0  0  0  0  0  0  0  0  0  0  0
  150.6072  143.5997  158.2427 S   0  0  0  0  0  0  0  0  0  0  0  0
  150.8161  142.1165  157.2159 C   0  0  0  0  0  0  0  0  0  0  0  0
  151.5129  141.0509  157.4493 N   0  0  0  0  0  0  0  0  0  0  0  0
  151.5341  140.0080  156.5148 C   0  0  0  0  0  0  0  0  0  0  0  0
  152.3779  138.8031  156.8927 C   0  0  0  0  0  0  0  0  0  0  0  0
  150.8353  140.0851  155.3472 C   0  0  0  0  0  0  0  0  0  0  0  0
  150.8296  138.9656  154.3044 C   0  0  0  0  0  0  0  0  0  0  0  0
  150.4217  137.5888  154.8424 C   0  0  0  0  0  0  0  0  0  0  0  0
  151.2651  136.6734  154.7255 O   0  0  0  0  0  0  0  0  0  0  0  0
  149.2870  137.4623  155.3547 O   0  5  0  0  0  0  0  0  0  0  0  0
  150.0443  141.2956  155.0679 C   0  0  0  0  0  0  0  0  0  0  0  0
  149.3791  141.4784  154.0494 O   0  0  0  0  0  0  0  0  0  0  0  0
  150.0865  142.2408  156.0330 N   0  0  0  0  0  0  0  0  0  0  0  0
  149.5544  143.0851  155.8817 H   0  0  0  0  0  0  0  0  0  0  0  0
  153.9031  141.7057  160.8695 H   0  0  0  0  0  0  0  0  0  0  0  0
  154.0448  141.8552  159.0345 H   0  0  0  0  0  0  0  0  0  0  0  0
  151.0433  143.6757  161.2177 H   0  0  0  0  0  0  0  0  0  0  0  0
  152.3994  144.7895  161.4324 H   0  0  0  0  0  0  0  0  0  0  0  0
  152.4705  143.1682  162.1240 H   0  0  0  0  0  0  0  0  0  0  0  0
  152.4340  145.0321  158.8390 H   0  0  0  0  0  0  0  0  0  0  0  0
  152.9913  143.6652  157.8928 H   0  0  0  0  0  0  0  0  0  0  0  0
  153.1990  138.6753  156.1871 H   0  0  0  0  0  0  0  0  0  0  0  0
  151.7736  137.8957  156.8911 H   0  0  0  0  0  0  0  0  0  0  0  0
  152.8068  138.9159  157.8890 H   0  0  0  0  0  0  0  0  0  0  0  0
  150.1755  139.2190  153.4695 H   0  0  0  0  0  0  0  0  0  0  0  0
  151.8251  138.8802  153.8689 H   0  0  0  0  0  0  0  0  0  0  0  0
  1  2  2  0  0  0  0
  1 19  1  0  0  0  0
  1 20  1  0  0  0  0
  2  3  1  0  0  0  0
  2  4  1  0  0  0  0
  3 21  1  0  0  0  0
  3 22  1  0  0  0  0
  3 23  1  0  0  0  0
  4  5  1  0  0  0  0
  4 24  1  0  0  0  0
  4 25  1  0  0  0  0
  5  6  1  0  0  0  0
  6 17  1  0  0  0  0
  6  7  2  0  0  0  0
  7  8  1  0  0  0  0
  8  9  1  0  0  0  0
  8 10  2  0  0  0  0
  9 26  1  0  0  0  0
  9 27  1  0  0  0  0
  9 28  1  0  0  0  0
 10 11  1  0  0  0  0
 10 15  1  0  0  0  0
 11 12  1  0  0  0  0
 11 29  1  0  0  0  0
 11 30  1  0  0  0  0
 12 13  2  0  0  0  0
 12 14  1  0  0  0  0
 15 16  2  0  0  0  0
 15 17  1  0  0  0  0
 17 18  1  0  0  0  0
M  CHG  1  14  -1
M  END
> <s_m_source_file>
AV-unprocessed.smi

> <i_m_source_file_index>
526

> <i_lp_mmshare_version>
43012

> <i_f3d_flags>
0

> <s_epik_input>
W0NIMl09QyhbQ0gzXSlbQ0gyXVNjMW5jKFtDSDNdKWMoYyg9TylbbkhdMSlbQ0gyXUMoPU8pW09IXQ==

> <s_epik_cmdline>
J2VwaWtfcHl0aG9uJywgJy1waCcsICc3LjAnLCAnLXRuJywgJzgnLCAnLW1hJywgJzIwMCcsICctbWV0YWxfYmluZGluZycsICctaW1hZScsICc8aW5maWxlLm1hZT4nLCAnLW9tYWUnLCAnPG91dGZpbGUubWFlPic=

> <r_lp_tautomer_probability>
0.660323

> <r_epik_Ionization_Penalty>
0.000759783

> <r_epik_Ionization_Penalty_Charging>
0.000714454

> <r_epik_Ionization_Penalty_Neutral>
4.53284e-05

> <r_epik_State_Penalty>
0.230805

> <r_epik_Charging_Adjusted_Penalty>
0.231519

> <i_epik_Tot_Q>
-1

> <i_epik_Tot_abs_Q>
1

> <r_epik_Metal_State_Penalty>
0.34438

> <b_epik_Metal_Only>
0

> <s_lp_Force_Field>
OPLS_2005

> <r_lp_Energy>
1.72321

> <b_lp_Chiralities_Consistent>
1

> <s_lp_Variant>
AV-unprocessed.smi:526-1

> <Gold.Version>
5.8.1

> <Gold.Id.Protein>
6NUR|6NUR_protein|mol2

> <Gold.PLP.Fitness>
47.9324

> <Gold.PLP.PLP>
-37.8885

> <Gold.PLP.part.hbond>
-4.0000

> <Gold.PLP.part.metal>
0.0000

> <Gold.PLP.part.buried>
-1.1637

> <Gold.PLP.part.nonpolar>
-31.1863

> <Gold.PLP.part.repulsive>
0.5360

> <Gold.PLP.ligand.clash>
0.0000

> <Gold.PLP.ligand.torsion>
0.4629

> <Gold.PLP.Chemscore.Hbond>
3.6484

> <Gold.PLP.Chemscore.CHOScore>
0.0000

> <Gold.PLP.Chemscore.Metal>
0.0000

> <Gold.Chemscore.Hbonds>
donor molecule, donor type, donor heavy atom, donor atom, acceptor molecule, acceptor atom, score
      L1  H    17    18       P1  8028  1.00
      P1  H  8011  8017       L1    16  0.67
      P1  H 10752 10763       L1    13  2.00

> <Gold.PLP.Chemscore.Internal.Correction>
0.0243

> <Gold.Rescore>
     Score         DG    S(hbond)    S(metal)    S(lipo)     H(rot)  DE(clash)    DE(int)     intcor
     17.68     -18.37       2.62        0.00      86.60       2.34       0.29       0.40       ----

> <Gold.Chemscore.Fitness>
17.6763

> <Gold.Chemscore.DG>
-18.3656

> <Gold.Chemscore.ZeroCoef>
-5.4800

> <Gold.Chemscore.Hbond>
2.6195

> <Gold.Chemscore.Metal>
0.0000

> <Gold.Chemscore.Lipo>
86.5982

> <Gold.Chemscore.Internal_Hbond>
0.0000

> <Gold.Chemscore.DEClash>
0.2867

> <Gold.Chemscore.DEInternal>
0.4027

> <Gold.Chemscore.Rot>
2.3420

> <Gold.Chemscore.Internal.Correction>
   9.000000E+99

> <Gold.Chemscore.Hbonds>
donor molecule, donor type, donor heavy atom, donor atom, acceptor molecule, acceptor atom, score
      L1  H    17    18       P1  8028  1.00
      P1  H  8011  8017       L1    16  0.66
      P1  H 10752 10763       L1    13  0.97

> <Gold.Chemscore.Hbond.Weighted>
-8.7491

> <Gold.Chemscore.Metal.Weighted>
-0.0000

> <Gold.Chemscore.Lipo.Weighted>
-10.1320

> <Gold.Chemscore.Internal_Hbond.Weighted>
0.0000

> <Gold.Chemscore.DEClash.Weighted>
0.2867

> <Gold.Chemscore.DEInternal.Weighted>
0.4027

> <Gold.Chemscore.Rot.Weighted>
5.9955

> <Gold.Chemscore.Internal.Correction.Weighted>
   9.000000E+99

> <Gold.Protein.RotatedTorsions>
[ 6907 6896 6895 6894 ] final  -51.07 input  -60.11 | X-H torsion
[ 7974 7965 7964 7962 ] final  -31.03 input  175.53 | X-H torsion
[ 8008 7997 7996 7995 ] final -175.92 input   59.86 | X-H torsion
[ 10167 10162 10161 10158 ] final -170.17 input  -65.29 | X-H torsion
[ 10718 10713 10712 10709 ] final -133.91 input   66.30 | X-H torsion
[ 10763 10752 10751 10750 ] final   58.05 input  -60.55 | X-H torsion
[ 11005 11000 10999 10996 ] final  116.69 input  -57.11 | X-H torsion

> <Gold.Protein.ActiveResidues>
 VAL166  LYS551  ARG553  GLY616  TRP617  ASP618  TYR619  PRO620  LYS621  CYS622 
 ASP623  PHE694  ASN695  SER759  ASP760  ASP761  ALA762  ILE779  LEU786  VAL792 
 PHE793  MET794  SER795  GLU796  ALA797  LYS798  CYS799  TRP800  GLU811  SER814 

> <Gold.Protein.RotatedAtoms>
  150.8647  134.8007  159.7108 H   0  0  0  0  0  0  0  0  0  0  0  0  # atno 6907 bound_to 6896
  152.4672  134.5044  159.9744 H   0  0  0  0  0  0  0  0  0  0  0  0  # atno 6908 bound_to 6896
  151.5142  133.3440  159.2925 H   0  0  0  0  0  0  0  0  0  0  0  0  # atno 6909 bound_to 6896
  146.1098  140.5616  142.8783 H   0  0  0  0  0  0  0  0  0  0  0  0  # atno 7974 bound_to 7965
  155.9885  140.1196  157.0661 H   0  0  0  0  0  0  0  0  0  0  0  0  # atno 8008 bound_to 7997
  154.4204  140.1130  156.5600 H   0  0  0  0  0  0  0  0  0  0  0  0  # atno 8009 bound_to 7997
  155.6375  140.3473  155.4706 H   0  0  0  0  0  0  0  0  0  0  0  0  # atno 8010 bound_to 7997
  139.5878  144.1280  152.1597 H   0  0  0  0  0  0  0  0  0  0  0  0  # atno 10167 bound_to 10162
  156.2499  130.7147  151.1042 H   0  0  0  0  0  0  0  0  0  0  0  0  # atno 10718 bound_to 10713
  152.9862  135.5620  154.5490 H   0  0  0  0  0  0  0  0  0  0  0  0  # atno 10763 bound_to 10752
  154.4930  135.2793  155.1483 H   0  0  0  0  0  0  0  0  0  0  0  0  # atno 10764 bound_to 10752
  154.2945  135.6320  153.5452 H   0  0  0  0  0  0  0  0  0  0  0  0  # atno 10765 bound_to 10752
  139.9049  134.9601  156.7236 H   0  0  0  0  0  0  0  0  0  0  0  0  # atno 11005 bound_to 11000
  144.7502  140.5171  143.6807 LP  0  0  0  0  0  0  0  0  0  0  0  0  # atno 17320 bound_to 7965
  145.5687  139.1482  143.3301 LP  0  0  0  0  0  0  0  0  0  0  0  0  # atno 17321 bound_to 7965
  140.0847  144.5671  150.7097 LP  0  0  0  0  0  0  0  0  0  0  0  0  # atno 17342 bound_to 10162
  140.7147  143.2534  151.4473 LP  0  0  0  0  0  0  0  0  0  0  0  0  # atno 17343 bound_to 10162
  157.7210  131.0681  150.6135 LP  0  0  0  0  0  0  0  0  0  0  0  0  # atno 17370 bound_to 10713
  156.6214  130.4407  149.5821 LP  0  0  0  0  0  0  0  0  0  0  0  0  # atno 17371 bound_to 10713
  140.6981  133.9330  155.8007 LP  0  0  0  0  0  0  0  0  0  0  0  0  # atno 17394 bound_to 11000
  141.0392  134.0646  157.3922 LP  0  0  0  0  0  0  0  0  0  0  0  0  # atno 17395 bound_to 11000

$$$$
