AV-unprocessed.smi:3132|AV-procd|sdf|11929|dock6
  -GOLD-   2272017313D 1   1.00000     0.00000
 Structure written by MMmdl.
 34 35  0  0  0  0  0  0  0  0  2 V2000
  151.5177  140.2844  155.8868 C   0  0  0  0  0  0  0  0  0  0  0  0
  150.1830  141.0389  155.8240 C   0  0  2  0  0  0  0  0  0  0  0  0
  149.6566  141.1282  154.3750 C   0  0  0  0  0  0  0  0  0  0  0  0
  148.2012  141.2964  154.3033 N   0  0  0  0  0  0  0  0  0  0  0  0
  147.4202  142.1244  155.0689 C   0  0  0  0  0  0  0  0  0  0  0  0
  146.1262  141.9289  154.6601 C   0  0  0  0  0  0  0  0  0  0  0  0
  146.1729  140.9961  153.6587 N   0  3  0  0  0  0  0  0  0  0  0  0
  147.4357  140.6148  153.4413 C   0  0  0  0  0  0  0  0  0  0  0  0
  150.3640  142.3727  156.3952 N   0  0  0  0  0  0  0  0  0  0  0  0
  150.8899  142.6444  157.6003 C   0  0  0  0  0  0  0  0  0  0  0  0
  151.3110  141.7764  158.3658 O   0  0  0  0  0  0  0  0  0  0  0  0
  150.8980  144.1181  158.0185 C   0  0  2  0  0  0  0  0  0  0  0  0
  152.2854  144.6491  158.4235 C   0  0  0  0  0  0  0  0  0  0  0  0
  152.1823  144.8079  159.9275 C   0  0  0  0  0  0  0  0  0  0  0  0
  150.7033  145.1190  160.1041 C   0  0  0  0  0  0  0  0  0  0  0  0
  150.0755  144.2460  159.1776 O   0  0  0  0  0  0  0  0  0  0  0  0
  151.4155  139.2734  155.4912 H   0  0  0  0  0  0  0  0  0  0  0  0
  151.8740  140.1996  156.9142 H   0  0  0  0  0  0  0  0  0  0  0  0
  152.2899  140.7915  155.3070 H   0  0  0  0  0  0  0  0  0  0  0  0
  149.4675  140.4743  156.4247 H   0  0  0  0  0  0  0  0  0  0  0  0
  150.1204  141.9610  153.8444 H   0  0  0  0  0  0  0  0  0  0  0  0
  149.9082  140.2222  153.8215 H   0  0  0  0  0  0  0  0  0  0  0  0
  147.8310  142.7658  155.8352 H   0  0  0  0  0  0  0  0  0  0  0  0
  145.2003  142.3704  154.9989 H   0  0  0  0  0  0  0  0  0  0  0  0
  147.7697  139.8908  152.7194 H   0  0  0  0  0  0  0  0  0  0  0  0
  150.0417  143.1516  155.8388 H   0  0  0  0  0  0  0  0  0  0  0  0
  150.4866  144.7370  157.2192 H   0  0  0  0  0  0  0  0  0  0  0  0
  153.1154  144.0028  158.1342 H   0  0  0  0  0  0  0  0  0  0  0  0
  152.4545  145.6212  157.9585 H   0  0  0  0  0  0  0  0  0  0  0  0
  152.4292  143.8679  160.4230 H   0  0  0  0  0  0  0  0  0  0  0  0
  152.8342  145.5874  160.3228 H   0  0  0  0  0  0  0  0  0  0  0  0
  150.3531  144.9454  161.1216 H   0  0  0  0  0  0  0  0  0  0  0  0
  150.4883  146.1542  159.8341 H   0  0  0  0  0  0  0  0  0  0  0  0
  145.3686  140.6416  153.1566 H   0  0  0  0  0  0  0  0  0  0  0  0
  1  2  1  0  0  0  0
  1 17  1  0  0  0  0
  1 18  1  0  0  0  0
  1 19  1  0  0  0  0
  2  3  1  0  0  0  0
  2  9  1  0  0  0  0
  2 20  1  0  0  0  0
  3  4  1  0  0  0  0
  3 21  1  0  0  0  0
  3 22  1  0  0  0  0
  4  8  1  0  0  0  0
  4  5  1  0  0  0  0
  5  6  2  0  0  0  0
  5 23  1  0  0  0  0
  6  7  1  0  0  0  0
  6 24  1  0  0  0  0
  7  8  2  0  0  0  0
  7 34  1  0  0  0  0
  8 25  1  0  0  0  0
  9 10  1  0  0  0  0
  9 26  1  0  0  0  0
 10 11  2  0  0  0  0
 10 12  1  0  0  0  0
 12 16  1  0  0  0  0
 12 13  1  0  0  0  0
 12 27  1  0  0  0  0
 13 14  1  0  0  0  0
 13 28  1  0  0  0  0
 13 29  1  0  0  0  0
 14 15  1  0  0  0  0
 14 30  1  0  0  0  0
 14 31  1  0  0  0  0
 15 16  1  0  0  0  0
 15 32  1  0  0  0  0
 15 33  1  0  0  0  0
M  CHG  1   7   1
M  END
> <s_m_source_file>
AV-unprocessed.smi

> <i_m_source_file_index>
3132

> <i_lp_mmshare_version>
43012

> <i_f3d_flags>
0

> <s_epik_input>
W2NIXTFuW2NIXVtjSF1uMVtDSDJdW0NAQEhdKFtDSDNdKVtOSF1DKD1PKVtDQEBIXTJbQ0gyXVtDSDJdW0NIMl1PMg==

> <s_epik_cmdline>
J2VwaWtfcHl0aG9uJywgJy1waCcsICc3LjAnLCAnLXRuJywgJzgnLCAnLW1hJywgJzIwMCcsICctbWV0YWxfYmluZGluZycsICctaW1hZScsICc8aW5maWxlLm1hZT4nLCAnLW9tYWUnLCAnPG91dGZpbGUubWFlPic=

> <r_lp_tautomer_probability>
1

> <r_epik_Ionization_Penalty>
0.250802

> <r_epik_Ionization_Penalty_Charging>
0

> <r_epik_Ionization_Penalty_Neutral>
0.250802

> <r_epik_State_Penalty>
0.242139

> <r_epik_Charging_Adjusted_Penalty>
0.242139

> <i_epik_Tot_Q>
1

> <i_epik_Tot_abs_Q>
1

> <r_epik_Metal_State_Penalty>
0.533361

> <b_epik_Metal_Only>
0

> <s_lp_Force_Field>
OPLS_2005

> <r_lp_Energy>
20.2127

> <b_lp_Chiralities_Consistent>
1

> <s_lp_Variant>
AV-unprocessed.smi:3132-1

> <Gold.Version>
5.8.1

> <Gold.Id.Protein>
6NUR|6NUR_protein|mol2

> <Gold.PLP.Fitness>
49.8855

> <Gold.PLP.PLP>
-36.0890

> <Gold.PLP.part.hbond>
-2.0000

> <Gold.PLP.part.metal>
0.0000

> <Gold.PLP.part.buried>
-0.4375

> <Gold.PLP.part.nonpolar>
-34.0023

> <Gold.PLP.part.repulsive>
0.2681

> <Gold.PLP.ligand.clash>
0.0000

> <Gold.PLP.ligand.torsion>
0.5422

> <Gold.PLP.Chemscore.Hbond>
2.9920

> <Gold.PLP.Chemscore.CHOScore>
1.9602

> <Gold.PLP.Chemscore.Metal>
0.0000

> <Gold.Chemscore.Hbonds>
donor molecule, donor type, donor heavy atom, donor atom, acceptor molecule, acceptor atom, score
      L1  H     7    34       P1 10175  2.00
      L1  H     9    26       P1  8028  0.99
      L1  C     5    23       P1  8028  0.99
      L1  C     8    25       P1  7957  0.99

> <Gold.PLP.Chemscore.Internal.Correction>
0.0244

> <Gold.Rescore>
     Score         DG    S(hbond)    S(metal)    S(lipo)     H(rot)  DE(clash)    DE(int)     intcor
     14.23     -16.17       1.96        0.00      77.71       1.93       0.15       1.79       ----

> <Gold.Chemscore.Fitness>
14.2284

> <Gold.Chemscore.DG>
-16.1727

> <Gold.Chemscore.ZeroCoef>
-5.4800

> <Gold.Chemscore.Hbond>
1.9590

> <Gold.Chemscore.Metal>
0.0000

> <Gold.Chemscore.Lipo>
77.7137

> <Gold.Chemscore.Internal_Hbond>
0.0000

> <Gold.Chemscore.DEClash>
0.1543

> <Gold.Chemscore.DEInternal>
1.7900

> <Gold.Chemscore.Rot>
1.9308

> <Gold.Chemscore.Internal.Correction>
   9.000000E+99

> <Gold.Chemscore.Hbonds>
donor molecule, donor type, donor heavy atom, donor atom, acceptor molecule, acceptor atom, score
      L1  H     7    34       P1 10175  0.82
      L1  H     9    26       P1  8028  0.92

> <Gold.Chemscore.Hbond.Weighted>
-6.5431

> <Gold.Chemscore.Metal.Weighted>
-0.0000

> <Gold.Chemscore.Lipo.Weighted>
-9.0925

> <Gold.Chemscore.Internal_Hbond.Weighted>
0.0000

> <Gold.Chemscore.DEClash.Weighted>
0.1543

> <Gold.Chemscore.DEInternal.Weighted>
1.7900

> <Gold.Chemscore.Rot.Weighted>
4.9429

> <Gold.Chemscore.Internal.Correction.Weighted>
   9.000000E+99

> <Gold.Protein.RotatedTorsions>
[ 6907 6896 6895 6894 ] final  -42.63 input  -60.11 | X-H torsion
[ 7974 7965 7964 7962 ] final   75.35 input  175.53 | X-H torsion
[ 8008 7997 7996 7995 ] final  116.79 input   59.86 | X-H torsion
[ 10167 10162 10161 10158 ] final  -62.92 input  -65.29 | X-H torsion
[ 10718 10713 10712 10709 ] final    2.10 input   66.30 | X-H torsion
[ 10763 10752 10751 10750 ] final  177.67 input  -60.55 | X-H torsion
[ 11005 11000 10999 10996 ] final  -47.03 input  -57.11 | X-H torsion

> <Gold.Protein.ActiveResidues>
 VAL166  LYS551  ARG553  GLY616  TRP617  ASP618  TYR619  PRO620  LYS621  CYS622 
 ASP623  PHE694  ASN695  SER759  ASP760  ASP761  ALA762  ILE779  LEU786  VAL792 
 PHE793  MET794  SER795  GLU796  ALA797  LYS798  CYS799  TRP800  GLU811  SER814 

> <Gold.Protein.RotatedAtoms>
  150.9530  134.8928  159.7683 H   0  0  0  0  0  0  0  0  0  0  0  0  # atno 6907 bound_to 6896
  152.5127  134.3779  159.9351 H   0  0  0  0  0  0  0  0  0  0  0  0  # atno 6908 bound_to 6896
  151.3794  133.3786  159.2743 H   0  0  0  0  0  0  0  0  0  0  0  0  # atno 6909 bound_to 6896
  145.7167  139.2634  143.1619 H   0  0  0  0  0  0  0  0  0  0  0  0  # atno 7974 bound_to 7965
  156.2459  140.2910  156.0578 H   0  0  0  0  0  0  0  0  0  0  0  0  # atno 8008 bound_to 7997
  155.1809  140.0404  157.2899 H   0  0  0  0  0  0  0  0  0  0  0  0  # atno 8009 bound_to 7997
  154.6260  140.2487  155.7498 H   0  0  0  0  0  0  0  0  0  0  0  0  # atno 8010 bound_to 7997
  140.5906  143.2341  151.6147 H   0  0  0  0  0  0  0  0  0  0  0  0  # atno 10167 bound_to 10162
  156.8580  130.5576  149.5665 H   0  0  0  0  0  0  0  0  0  0  0  0  # atno 10718 bound_to 10713
  154.4976  135.2782  155.1447 H   0  0  0  0  0  0  0  0  0  0  0  0  # atno 10763 bound_to 10752
  154.3093  135.6232  153.5462 H   0  0  0  0  0  0  0  0  0  0  0  0  # atno 10764 bound_to 10752
  152.9897  135.5716  154.5411 H   0  0  0  0  0  0  0  0  0  0  0  0  # atno 10765 bound_to 10752
  141.0616  133.6707  156.3240 H   0  0  0  0  0  0  0  0  0  0  0  0  # atno 11005 bound_to 11000
  146.0663  140.7917  142.9710 LP  0  0  0  0  0  0  0  0  0  0  0  0  # atno 17320 bound_to 7965
  144.6927  140.3273  143.7222 LP  0  0  0  0  0  0  0  0  0  0  0  0  # atno 17321 bound_to 7965
  139.5225  144.3161  152.0951 LP  0  0  0  0  0  0  0  0  0  0  0  0  # atno 17342 bound_to 10162
  140.2324  144.4354  150.6294 LP  0  0  0  0  0  0  0  0  0  0  0  0  # atno 17343 bound_to 10162
  156.0792  130.5807  150.9531 LP  0  0  0  0  0  0  0  0  0  0  0  0  # atno 17370 bound_to 10713
  157.6266  131.0925  150.8521 LP  0  0  0  0  0  0  0  0  0  0  0  0  # atno 17371 bound_to 10713
  140.5857  134.5700  157.5489 LP  0  0  0  0  0  0  0  0  0  0  0  0  # atno 17394 bound_to 11000
  139.9438  134.7739  156.0613 LP  0  0  0  0  0  0  0  0  0  0  0  0  # atno 17395 bound_to 11000

$$$$
