AV-unprocessed.smi:1815|AV-procd|sdf|7359|dock10
  -GOLD-   22720 9 23D 1   1.00000     0.00000
 Structure written by MMmdl.
 38 39  0  0  0  0  0  0  0  0  2 V2000
  152.2490  138.5993  155.3663 C   0  0  0  0  0  0  0  0  0  0  0  0
  151.1042  138.4916  154.3443 C   0  0  1  0  0  0  0  0  0  0  0  0
  150.0468  137.4419  154.7324 C   0  0  0  0  0  0  0  0  0  0  0  0
  149.2120  137.8766  155.8519 N   0  0  0  0  0  0  0  0  0  0  0  0
  148.2362  136.8596  156.2515 C   0  0  0  0  0  0  0  0  0  0  0  0
  148.6300  136.0165  157.4826 C   0  0  0  0  0  0  0  0  0  0  0  0
  148.0250  136.4807  158.7278 N   0  0  0  0  0  0  0  0  0  0  0  0
  148.6796  136.7530  159.8671 C   0  0  0  0  0  0  0  0  0  0  0  0
  149.9073  136.6443  159.9161 O   0  0  0  0  0  0  0  0  0  0  0  0
  147.8683  137.1079  160.8894 N   0  5  0  0  0  0  0  0  0  0  0  0
  147.1170  136.1763  161.4984 C   0  0  0  0  0  0  0  0  0  0  0  0
  147.5482  134.9303  161.7270 N   0  0  0  0  0  0  0  0  0  0  0  0
  146.6078  134.1274  162.3747 C   0  0  0  0  0  0  0  0  0  0  0  0
  145.4301  134.7749  162.6382 C   0  0  0  0  0  0  0  0  0  0  0  0
  145.4669  136.4221  162.0762 S   0  0  0  0  0  0  0  0  0  0  0  0
  148.5749  139.1315  155.4765 C   0  0  0  0  0  0  0  0  0  0  0  0
  149.6170  140.2162  155.1432 C   0  0  2  0  0  0  0  0  0  0  0  0
  148.9640  141.5211  154.6761 C   0  0  0  0  0  0  0  0  0  0  0  0
  150.4773  139.7534  154.1029 O   0  0  0  0  0  0  0  0  0  0  0  0
  152.7712  137.6466  155.4626 H   0  0  0  0  0  0  0  0  0  0  0  0
  151.8891  138.8708  156.3586 H   0  0  0  0  0  0  0  0  0  0  0  0
  152.9788  139.3474  155.0572 H   0  0  0  0  0  0  0  0  0  0  0  0
  151.5500  138.1842  153.3981 H   0  0  0  0  0  0  0  0  0  0  0  0
  149.4138  137.2453  153.8660 H   0  0  0  0  0  0  0  0  0  0  0  0
  150.5473  136.5030  154.9496 H   0  0  0  0  0  0  0  0  0  0  0  0
  147.3019  137.3555  156.5178 H   0  0  0  0  0  0  0  0  0  0  0  0
  147.9880  136.2154  155.4066 H   0  0  0  0  0  0  0  0  0  0  0  0
  148.4167  134.9624  157.2991 H   0  0  0  0  0  0  0  0  0  0  0  0
  149.7100  136.0781  157.6164 H   0  0  0  0  0  0  0  0  0  0  0  0
  147.0207  136.5803  158.7369 H   0  0  0  0  0  0  0  0  0  0  0  0
  146.8624  133.1048  162.6098 H   0  0  0  0  0  0  0  0  0  0  0  0
  144.5481  134.3869  163.1246 H   0  0  0  0  0  0  0  0  0  0  0  0
  147.9166  138.9721  154.6209 H   0  0  0  0  0  0  0  0  0  0  0  0
  147.9452  139.4846  156.2940 H   0  0  0  0  0  0  0  0  0  0  0  0
  150.2129  140.4302  156.0311 H   0  0  0  0  0  0  0  0  0  0  0  0
  148.3057  141.9274  155.4443 H   0  0  0  0  0  0  0  0  0  0  0  0
  148.3713  141.3653  153.7742 H   0  0  0  0  0  0  0  0  0  0  0  0
  149.7189  142.2753  154.4533 H   0  0  0  0  0  0  0  0  0  0  0  0
  1  2  1  0  0  0  0
  1 20  1  0  0  0  0
  1 21  1  0  0  0  0
  1 22  1  0  0  0  0
  2 19  1  0  0  0  0
  2  3  1  0  0  0  0
  2 23  1  0  0  0  0
  3  4  1  0  0  0  0
  3 24  1  0  0  0  0
  3 25  1  0  0  0  0
  4  5  1  0  0  0  0
  4 16  1  0  0  0  0
  5  6  1  0  0  0  0
  5 26  1  0  0  0  0
  5 27  1  0  0  0  0
  6  7  1  0  0  0  0
  6 28  1  0  0  0  0
  6 29  1  0  0  0  0
  7  8  1  0  0  0  0
  7 30  1  0  0  0  0
  8  9  2  0  0  0  0
  8 10  1  0  0  0  0
 10 11  1  0  0  0  0
 11 15  1  0  0  0  0
 11 12  2  0  0  0  0
 12 13  1  0  0  0  0
 13 14  2  0  0  0  0
 13 31  1  0  0  0  0
 14 15  1  0  0  0  0
 14 32  1  0  0  0  0
 16 17  1  0  0  0  0
 16 33  1  0  0  0  0
 16 34  1  0  0  0  0
 17 18  1  0  0  0  0
 17 19  1  0  0  0  0
 17 35  1  0  0  0  0
 18 36  1  0  0  0  0
 18 37  1  0  0  0  0
 18 38  1  0  0  0  0
M  CHG  1  10  -1
M  END
> <s_m_source_file>
AV-unprocessed.smi

> <i_m_source_file_index>
1815

> <i_lp_mmshare_version>
43012

> <i_f3d_flags>
0

> <s_epik_input>
W0NIM11bQ0BASF0xW0NIMl1OKFtDSDJdW0NASF0oTzEpW0NIM10pW0NIMl1bQ0gyXVtOSF1DKD1PKVtOSF1jMm5bY0hdW2NIXXMy

> <s_epik_cmdline>
J2VwaWtfcHl0aG9uJywgJy1waCcsICc3LjAnLCAnLXRuJywgJzgnLCAnLW1hJywgJzIwMCcsICctbWV0YWxfYmluZGluZycsICctaW1hZScsICc8aW5maWxlLm1hZT4nLCAnLW9tYWUnLCAnPG91dGZpbGUubWFlPic=

> <r_lp_tautomer_probability>
0.999

> <r_epik_Ionization_Penalty>
7.22374

> <r_epik_Ionization_Penalty_Charging>
5.82415

> <r_epik_Ionization_Penalty_Neutral>
1.39959

> <r_epik_State_Penalty>
6.03347

> <r_epik_Charging_Adjusted_Penalty>
11.8576

> <i_epik_Tot_Q>
-1

> <i_epik_Tot_abs_Q>
1

> <r_epik_Metal_State_Penalty>
2.01024

> <b_epik_Metal_Only>
1

> <s_lp_Force_Field>
OPLS_2005

> <r_lp_Energy>
24.221

> <b_lp_Chiralities_Consistent>
1

> <s_lp_Variant>
AV-unprocessed.smi:1815-10

> <Gold.Version>
5.8.1

> <Gold.Id.Protein>
6NUR|6NUR_protein|mol2

> <Gold.PLP.Fitness>
43.3026

> <Gold.PLP.PLP>
-30.6480

> <Gold.PLP.part.hbond>
-4.4276

> <Gold.PLP.part.metal>
0.0000

> <Gold.PLP.part.buried>
-3.7658

> <Gold.PLP.part.nonpolar>
-23.9215

> <Gold.PLP.part.repulsive>
0.5933

> <Gold.PLP.ligand.clash>
0.0000

> <Gold.PLP.ligand.torsion>
1.8384

> <Gold.PLP.Chemscore.Hbond>
5.4240

> <Gold.PLP.Chemscore.CHOScore>
0.0000

> <Gold.PLP.Chemscore.Metal>
0.0000

> <Gold.Chemscore.Hbonds>
donor molecule, donor type, donor heavy atom, donor atom, acceptor molecule, acceptor atom, score
      P1  H  6896  6908       L1     9  1.00
      P1  H  6931  6943       L1    10  1.86
      P1  H  6934  6947       L1    10  1.66
      P1  H  7989  7998       L1    19  1.00

> <Gold.PLP.Chemscore.Internal.Correction>
0.0595

> <Gold.Rescore>
     Score         DG    S(hbond)    S(metal)    S(lipo)     H(rot)  DE(clash)    DE(int)     intcor
     16.99     -19.02       2.96        0.00      65.45       1.57       0.19       1.84       ----

> <Gold.Chemscore.Fitness>
16.9943

> <Gold.Chemscore.DG>
-19.0242

> <Gold.Chemscore.ZeroCoef>
-5.4800

> <Gold.Chemscore.Hbond>
2.9641

> <Gold.Chemscore.Metal>
0.0000

> <Gold.Chemscore.Lipo>
65.4465

> <Gold.Chemscore.Internal_Hbond>
0.0000

> <Gold.Chemscore.DEClash>
0.1859

> <Gold.Chemscore.DEInternal>
1.8440

> <Gold.Chemscore.Rot>
1.5676

> <Gold.Chemscore.Internal.Correction>
   9.000000E+99

> <Gold.Chemscore.Hbonds>
donor molecule, donor type, donor heavy atom, donor atom, acceptor molecule, acceptor atom, score
      P1  H  6896  6908       L1     9  0.98
      P1  H  6931  6943       L1    10  0.26
      P1  H  6934  6947       L1    10  0.69
      P1  H  7989  7998       L1    19  0.70

> <Gold.Chemscore.Hbond.Weighted>
-9.9000

> <Gold.Chemscore.Metal.Weighted>
-0.0000

> <Gold.Chemscore.Lipo.Weighted>
-7.6572

> <Gold.Chemscore.Internal_Hbond.Weighted>
0.0000

> <Gold.Chemscore.DEClash.Weighted>
0.1859

> <Gold.Chemscore.DEInternal.Weighted>
1.8440

> <Gold.Chemscore.Rot.Weighted>
4.0130

> <Gold.Chemscore.Internal.Correction.Weighted>
   9.000000E+99

> <Gold.Protein.RotatedTorsions>
[ 6907 6896 6895 6894 ] final -161.50 input  -60.11 | X-H torsion
[ 7974 7965 7964 7962 ] final  102.14 input  175.53 | X-H torsion
[ 8008 7997 7996 7995 ] final  -74.06 input   59.86 | X-H torsion
[ 10167 10162 10161 10158 ] final  -53.73 input  -65.29 | X-H torsion
[ 10718 10713 10712 10709 ] final  176.10 input   66.30 | X-H torsion
[ 10763 10752 10751 10750 ] final   62.42 input  -60.55 | X-H torsion
[ 11005 11000 10999 10996 ] final  162.86 input  -57.11 | X-H torsion

> <Gold.Protein.ActiveResidues>
 VAL166  LYS551  ARG553  GLY616  TRP617  ASP618  TYR619  PRO620  LYS621  CYS622 
 ASP623  PHE694  ASN695  SER759  ASP760  ASP761  ALA762  ILE779  LEU786  VAL792 
 PHE793  MET794  SER795  GLU796  ALA797  LYS798  CYS799  TRP800  GLU811  SER814 

> <Gold.Protein.RotatedAtoms>
  151.3657  133.3873  159.2694 H   0  0  0  0  0  0  0  0  0  0  0  0  # atno 6907 bound_to 6896
  150.9691  134.9067  159.7787 H   0  0  0  0  0  0  0  0  0  0  0  0  # atno 6908 bound_to 6896
  152.5178  134.3618  159.9340 H   0  0  0  0  0  0  0  0  0  0  0  0  # atno 6909 bound_to 6896
  145.3631  139.2414  143.3496 H   0  0  0  0  0  0  0  0  0  0  0  0  # atno 7974 bound_to 7965
  154.5299  140.0768  156.8325 H   0  0  0  0  0  0  0  0  0  0  0  0  # atno 8008 bound_to 7997
  155.3397  140.3406  155.4221 H   0  0  0  0  0  0  0  0  0  0  0  0  # atno 8009 bound_to 7997
  156.1770  140.1639  156.8331 H   0  0  0  0  0  0  0  0  0  0  0  0  # atno 8010 bound_to 7997
  140.6469  143.2541  151.4834 H   0  0  0  0  0  0  0  0  0  0  0  0  # atno 10167 bound_to 10162
  156.9250  130.9953  151.2997 H   0  0  0  0  0  0  0  0  0  0  0  0  # atno 10718 bound_to 10713
  152.9982  135.5465  154.6191 H   0  0  0  0  0  0  0  0  0  0  0  0  # atno 10763 bound_to 10752
  154.5494  135.2825  155.1024 H   0  0  0  0  0  0  0  0  0  0  0  0  # atno 10764 bound_to 10752
  154.2270  135.6440  153.5215 H   0  0  0  0  0  0  0  0  0  0  0  0  # atno 10765 bound_to 10752
  140.2300  134.8131  157.3307 H   0  0  0  0  0  0  0  0  0  0  0  0  # atno 11005 bound_to 11000
  146.2919  140.4268  142.8736 LP  0  0  0  0  0  0  0  0  0  0  0  0  # atno 17320 bound_to 7965
  144.8632  140.7169  143.6094 LP  0  0  0  0  0  0  0  0  0  0  0  0  # atno 17321 bound_to 7965
  139.5680  144.1995  152.1794 LP  0  0  0  0  0  0  0  0  0  0  0  0  # atno 17342 bound_to 10162
  140.1283  144.5311  150.6818 LP  0  0  0  0  0  0  0  0  0  0  0  0  # atno 17343 bound_to 10162
  157.5883  130.8425  149.8622 LP  0  0  0  0  0  0  0  0  0  0  0  0  # atno 17370 bound_to 10713
  156.0473  130.3725  150.1286 LP  0  0  0  0  0  0  0  0  0  0  0  0  # atno 17371 bound_to 10713
  140.1761  134.4548  155.7801 LP  0  0  0  0  0  0  0  0  0  0  0  0  # atno 17394 bound_to 11000
  141.2218  133.6963  156.7789 LP  0  0  0  0  0  0  0  0  0  0  0  0  # atno 17395 bound_to 11000

$$$$
