AV-unprocessed.smi:1423|AV-procd|sdf|5798|dock9
  -GOLD-   22720 5453D 1   1.00000     0.00000
 Structure written by MMmdl.
 43 44  0  0  0  0  0  0  0  0  3 V2000
  154.1150  140.7620  161.0819 C   0  0  0  0  0  0  0  0  0  0  0  0
  154.0870  140.3854  159.7096 O   0  0  0  0  0  0  0  0  0  0  0  0
  153.0588  140.8585  158.9203 C   0  0  0  0  0  0  0  0  0  0  0  0
  152.4584  142.0864  159.2615 C   0  0  0  0  0  0  0  0  0  0  0  0
  151.4084  142.5776  158.4625 C   0  0  0  0  0  0  0  0  0  0  0  0
  150.9950  141.8254  157.3367 C   0  0  0  0  0  0  0  0  0  0  0  0
  149.9377  142.2000  156.4625 N   0  0  0  0  0  0  0  0  0  0  0  0
  149.2437  141.4319  155.6046 C   0  0  0  0  0  0  0  0  0  0  0  0
  149.3844  140.2181  155.4594 O   0  0  0  0  0  0  0  0  0  0  0  0
  148.3474  142.1567  154.9192 N   0  0  0  0  0  0  0  0  0  0  0  0
  147.4293  141.6274  153.9104 C   0  0  2  0  0  0  0  0  0  0  0  0
  146.2921  142.6195  153.5958 C   0  0  0  0  0  0  0  0  0  0  0  0
  145.2924  142.7398  154.7593 C   0  0  0  0  0  0  0  0  0  0  0  0
  144.7413  141.4095  155.1327 N   0  3  2  0  0  0  0  0  0  0  0  0
  143.6729  141.4875  156.1601 C   0  0  0  0  0  0  0  0  0  0  0  0
  142.4184  142.1425  155.5721 C   0  0  0  0  0  0  0  0  0  0  0  0
  141.8223  141.3705  154.6440 N   0  5  0  0  0  0  0  0  0  0  0  0
  142.0640  143.2479  155.9768 O   0  0  0  0  0  0  0  0  0  0  0  0
  145.8174  140.4586  155.5101 C   0  0  0  0  0  0  0  0  0  0  0  0
  146.8357  140.2841  154.3686 C   0  0  0  0  0  0  0  0  0  0  0  0
  151.6538  140.6029  157.0890 C   0  0  0  0  0  0  0  0  0  0  0  0
  152.6605  140.1260  157.8511 N   0  0  0  0  0  0  0  0  0  0  0  0
  154.9773  140.3020  161.5638 H   0  0  0  0  0  0  0  0  0  0  0  0
  153.2218  140.4215  161.6077 H   0  0  0  0  0  0  0  0  0  0  0  0
  154.2090  141.8427  161.1973 H   0  0  0  0  0  0  0  0  0  0  0  0
  152.7947  142.6412  160.1250 H   0  0  0  0  0  0  0  0  0  0  0  0
  150.9391  143.5083  158.7396 H   0  0  0  0  0  0  0  0  0  0  0  0
  149.6510  143.1658  156.5248 H   0  0  0  0  0  0  0  0  0  0  0  0
  148.2936  143.1464  155.1106 H   0  0  0  0  0  0  0  0  0  0  0  0
  148.0008  141.4476  152.9978 H   0  0  0  0  0  0  0  0  0  0  0  0
  146.6951  143.6016  153.3465 H   0  0  0  0  0  0  0  0  0  0  0  0
  145.7591  142.2805  152.7063 H   0  0  0  0  0  0  0  0  0  0  0  0
  145.7742  143.1929  155.6273 H   0  0  0  0  0  0  0  0  0  0  0  0
  144.4866  143.4122  154.4639 H   0  0  0  0  0  0  0  0  0  0  0  0
  143.3845  140.4839  156.4752 H   0  0  0  0  0  0  0  0  0  0  0  0
  144.0398  141.9987  157.0529 H   0  0  0  0  0  0  0  0  0  0  0  0
  142.4097  140.8873  153.9536 H   0  0  0  0  0  0  0  0  0  0  0  0
  146.3148  140.8111  156.4150 H   0  0  0  0  0  0  0  0  0  0  0  0
  145.3817  139.4875  155.7476 H   0  0  0  0  0  0  0  0  0  0  0  0
  146.3389  139.8070  153.5224 H   0  0  0  0  0  0  0  0  0  0  0  0
  147.6303  139.6028  154.6753 H   0  0  0  0  0  0  0  0  0  0  0  0
  151.3661  139.9861  156.2501 H   0  0  0  0  0  0  0  0  0  0  0  0
  144.3000  141.0304  154.3068 H   0  0  0  0  0  0  0  0  0  0  0  0
  1  2  1  0  0  0  0
  1 23  1  0  0  0  0
  1 24  1  0  0  0  0
  1 25  1  0  0  0  0
  2  3  1  0  0  0  0
  3 22  1  0  0  0  0
  3  4  2  0  0  0  0
  4  5  1  0  0  0  0
  4 26  1  0  0  0  0
  5  6  2  0  0  0  0
  5 27  1  0  0  0  0
  6  7  1  0  0  0  0
  6 21  1  0  0  0  0
  7  8  1  0  0  0  0
  7 28  1  0  0  0  0
  8  9  2  0  0  0  0
  8 10  1  0  0  0  0
 10 11  1  0  0  0  0
 10 29  1  0  0  0  0
 11 20  1  0  0  0  0
 11 12  1  0  0  0  0
 11 30  1  0  0  0  0
 12 13  1  0  0  0  0
 12 31  1  0  0  0  0
 12 32  1  0  0  0  0
 13 14  1  0  0  0  0
 13 33  1  0  0  0  0
 13 34  1  0  0  0  0
 14 15  1  0  0  0  0
 14 19  1  0  0  0  0
 14 43  1  0  0  0  0
 15 16  1  0  0  0  0
 15 35  1  0  0  0  0
 15 36  1  0  0  0  0
 16 17  1  0  0  0  0
 16 18  2  0  0  0  0
 17 37  1  0  0  0  0
 19 20  1  0  0  0  0
 19 38  1  0  0  0  0
 19 39  1  0  0  0  0
 20 40  1  0  0  0  0
 20 41  1  0  0  0  0
 21 22  2  0  0  0  0
 21 42  1  0  0  0  0
M  CHG  1  14   1
M  CHG  1  17  -1
M  END
> <s_m_source_file>
AV-unprocessed.smi

> <i_m_source_file_index>
1423

> <i_lp_mmshare_version>
43012

> <i_f3d_flags>
0

> <s_epik_input>
W0NIM11PYzFbY0hdW2NIXWMoW2NIXW4xKVtOSF1DKD1PKVtOSF1bQ0hdMltDSDJdW0NIMl1OKFtDSDJdW0NIMl0yKVtDSDJdQyg9TylbTkgyXQ==

> <s_epik_cmdline>
J2VwaWtfcHl0aG9uJywgJy1waCcsICc3LjAnLCAnLXRuJywgJzgnLCAnLW1hJywgJzIwMCcsICctbWV0YWxfYmluZGluZycsICctaW1hZScsICc8aW5maWxlLm1hZT4nLCAnLW9tYWUnLCAnPG91dGZpbGUubWFlPic=

> <r_lp_tautomer_probability>
1

> <r_epik_Ionization_Penalty>
5.72888

> <r_epik_Ionization_Penalty_Charging>
5.7288

> <r_epik_Ionization_Penalty_Neutral>
7.8452e-05

> <r_epik_State_Penalty>
6.54882

> <r_epik_Charging_Adjusted_Penalty>
12.2776

> <i_epik_Tot_Q>
0

> <i_epik_Tot_abs_Q>
2

> <r_epik_Metal_State_Penalty>
2.51301

> <b_epik_Metal_Only>
1

> <s_lp_Force_Field>
OPLS_2005

> <r_lp_Energy>
11.3515

> <b_lp_Chiralities_Consistent>
1

> <s_lp_Variant>
AV-unprocessed.smi:1423-5

> <Gold.Version>
5.8.1

> <Gold.Id.Protein>
6NUR|6NUR_protein|mol2

> <Gold.PLP.Fitness>
50.1869

> <Gold.PLP.PLP>
-33.8629

> <Gold.PLP.part.hbond>
-6.0000

> <Gold.PLP.part.metal>
0.0000

> <Gold.PLP.part.buried>
-5.6348

> <Gold.PLP.part.nonpolar>
-22.4531

> <Gold.PLP.part.repulsive>
0.3710

> <Gold.PLP.ligand.clash>
0.0000

> <Gold.PLP.ligand.torsion>
0.8093

> <Gold.PLP.Chemscore.Hbond>
5.9680

> <Gold.PLP.Chemscore.CHOScore>
0.0000

> <Gold.PLP.Chemscore.Metal>
0.0000

> <Gold.Chemscore.Hbonds>
donor molecule, donor type, donor heavy atom, donor atom, acceptor molecule, acceptor atom, score
      L1  H     7    28       P1  8028  0.98
      L1  H    10    29       P1  8028  1.00
      L1  H    14    43       P1 10175  2.00
      L1  H    17    37       P1 10175  0.90
      P1  H  7997  8009       L1    22  0.88

> <Gold.PLP.Chemscore.Internal.Correction>
0.0387

> <Gold.Rescore>
     Score         DG    S(hbond)    S(metal)    S(lipo)     H(rot)  DE(clash)    DE(int)     intcor
     18.01     -22.03       4.38        0.00      66.49       2.29       0.35       3.67       ----

> <Gold.Chemscore.Fitness>
18.0129

> <Gold.Chemscore.DG>
-22.0320

> <Gold.Chemscore.ZeroCoef>
-5.4800

> <Gold.Chemscore.Hbond>
4.3812

> <Gold.Chemscore.Metal>
0.0000

> <Gold.Chemscore.Lipo>
66.4932

> <Gold.Chemscore.Internal_Hbond>
0.0000

> <Gold.Chemscore.DEClash>
0.3515

> <Gold.Chemscore.DEInternal>
3.6676

> <Gold.Chemscore.Rot>
2.2894

> <Gold.Chemscore.Internal.Correction>
   9.000000E+99

> <Gold.Chemscore.Hbonds>
donor molecule, donor type, donor heavy atom, donor atom, acceptor molecule, acceptor atom, score
      L1  H     7    28       P1  8028  0.93
      L1  H    10    29       P1  8028  0.98
      L1  H    14    43       P1 10175  0.86
      L1  H    17    37       P1 10175  0.18
      P1  H  7997  8009       L1    22  0.14

> <Gold.Chemscore.Hbond.Weighted>
-14.6331

> <Gold.Chemscore.Metal.Weighted>
-0.0000

> <Gold.Chemscore.Lipo.Weighted>
-7.7797

> <Gold.Chemscore.Internal_Hbond.Weighted>
0.0000

> <Gold.Chemscore.DEClash.Weighted>
0.3515

> <Gold.Chemscore.DEInternal.Weighted>
3.6676

> <Gold.Chemscore.Rot.Weighted>
5.8608

> <Gold.Chemscore.Internal.Correction.Weighted>
   9.000000E+99

> <Gold.Protein.RotatedTorsions>
[ 6907 6896 6895 6894 ] final   39.81 input  -60.11 | X-H torsion
[ 7974 7965 7964 7962 ] final  -36.15 input  175.53 | X-H torsion
[ 8008 7997 7996 7995 ] final  170.32 input   59.86 | X-H torsion
[ 10167 10162 10161 10158 ] final -178.50 input  -65.29 | X-H torsion
[ 10718 10713 10712 10709 ] final  108.70 input   66.30 | X-H torsion
[ 10763 10752 10751 10750 ] final   16.97 input  -60.55 | X-H torsion
[ 11005 11000 10999 10996 ] final -166.44 input  -57.11 | X-H torsion

> <Gold.Protein.ActiveResidues>
 VAL166  LYS551  ARG553  GLY616  TRP617  ASP618  TYR619  PRO620  LYS621  CYS622 
 ASP623  PHE694  ASN695  SER759  ASP760  ASP761  ALA762  ILE779  LEU786  VAL792 
 PHE793  MET794  SER795  GLU796  ALA797  LYS798  CYS799  TRP800  GLU811  SER814 

> <Gold.Protein.RotatedAtoms>
  152.1744  134.8807  160.0531 H   0  0  0  0  0  0  0  0  0  0  0  0  # atno 6907 bound_to 6896
  151.9754  133.3735  159.4095 H   0  0  0  0  0  0  0  0  0  0  0  0  # atno 6908 bound_to 6896
  150.6907  134.4018  159.5166 H   0  0  0  0  0  0  0  0  0  0  0  0  # atno 6909 bound_to 6896
  146.0686  140.6245  142.8963 H   0  0  0  0  0  0  0  0  0  0  0  0  # atno 7974 bound_to 7965
  156.1377  140.1541  156.8969 H   0  0  0  0  0  0  0  0  0  0  0  0  # atno 8008 bound_to 7997
  154.4961  140.0838  156.7737 H   0  0  0  0  0  0  0  0  0  0  0  0  # atno 8009 bound_to 7997
  155.4138  140.3420  155.4268 H   0  0  0  0  0  0  0  0  0  0  0  0  # atno 8010 bound_to 7997
  139.5429  144.2313  152.0932 H   0  0  0  0  0  0  0  0  0  0  0  0  # atno 10167 bound_to 10162
  157.6574  131.0899  150.6344 H   0  0  0  0  0  0  0  0  0  0  0  0  # atno 10718 bound_to 10713
  153.1381  135.6754  153.9070 H   0  0  0  0  0  0  0  0  0  0  0  0  # atno 10763 bound_to 10752
  153.8535  135.3090  155.3435 H   0  0  0  0  0  0  0  0  0  0  0  0  # atno 10764 bound_to 10752
  154.7765  135.4912  153.9837 H   0  0  0  0  0  0  0  0  0  0  0  0  # atno 10765 bound_to 10752
  140.5644  134.5300  157.5150 H   0  0  0  0  0  0  0  0  0  0  0  0  # atno 11005 bound_to 11000
  144.7217  140.4396  143.7003 LP  0  0  0  0  0  0  0  0  0  0  0  0  # atno 17320 bound_to 7965
  145.6433  139.1553  143.2903 LP  0  0  0  0  0  0  0  0  0  0  0  0  # atno 17321 bound_to 7965
  140.1795  144.4858  150.6536 LP  0  0  0  0  0  0  0  0  0  0  0  0  # atno 17342 bound_to 10162
  140.6667  143.2270  151.5726 LP  0  0  0  0  0  0  0  0  0  0  0  0  # atno 17343 bound_to 10162
  156.6650  130.4523  149.5675 LP  0  0  0  0  0  0  0  0  0  0  0  0  # atno 17370 bound_to 10713
  156.2039  130.6637  151.1197 LP  0  0  0  0  0  0  0  0  0  0  0  0  # atno 17371 bound_to 10713
  139.9392  134.7819  156.0723 LP  0  0  0  0  0  0  0  0  0  0  0  0  # atno 17394 bound_to 11000
  141.1094  133.6648  156.2943 LP  0  0  0  0  0  0  0  0  0  0  0  0  # atno 17395 bound_to 11000

$$$$
