AV-unprocessed.smi:629|AV-procd|sdf|3116|dock10
  -GOLD-   22720 0 43D 1   1.00000     0.00000
 Structure written by MMmdl.
 31 32  0  0  0  0  0  0  0  0  1 V2000
  149.1118  136.2554  155.0704 C   0  0  0  0  0  0  0  0  0  0  0  0
  150.0425  137.3418  154.8080 N   0  0  0  0  0  0  0  0  0  0  0  0
  151.3581  137.2887  155.0661 C   0  0  0  0  0  0  0  0  0  0  0  0
  151.9124  136.2999  155.5463 O   0  0  0  0  0  0  0  0  0  0  0  0
  152.1783  138.5342  154.7221 C   0  0  0  0  0  0  0  0  0  0  0  0
  151.8420  139.6661  155.6403 C   0  0  0  0  0  0  0  0  0  0  0  0
  151.0049  140.6289  155.2702 N   0  0  0  0  0  0  0  0  0  0  0  0
  150.9556  141.4657  156.3941 O   0  0  0  0  0  0  0  0  0  0  0  0
  151.7943  140.9134  157.3032 C   0  0  0  0  0  0  0  0  0  0  0  0
  151.9239  141.5504  158.6471 C   0  0  0  0  0  0  0  0  0  0  0  0
  152.4952  142.9787  158.5786 C   0  0  1  0  0  0  0  0  0  0  0  0
  151.5997  143.9304  157.8259 C   0  0  0  0  0  0  0  0  0  0  0  0
  151.3096  145.0276  158.5212 C   0  0  0  0  0  0  0  0  0  0  0  0
  151.9492  145.0313  159.8812 C   0  0  0  0  0  0  0  0  0  0  0  0
  152.6302  143.6477  159.9716 C   0  0  0  0  0  0  0  0  0  0  0  0
  152.3652  139.7841  156.8923 N   0  0  0  0  0  0  0  0  0  0  0  0
  148.0979  136.5669  154.8204 H   0  0  0  0  0  0  0  0  0  0  0  0
  149.1311  135.9712  156.1234 H   0  0  0  0  0  0  0  0  0  0  0  0
  149.3584  135.3803  154.4682 H   0  0  0  0  0  0  0  0  0  0  0  0
  149.6633  138.1906  154.4132 H   0  0  0  0  0  0  0  0  0  0  0  0
  153.2432  138.3093  154.7991 H   0  0  0  0  0  0  0  0  0  0  0  0
  151.9900  138.8234  153.6872 H   0  0  0  0  0  0  0  0  0  0  0  0
  150.9561  141.5399  159.1508 H   0  0  0  0  0  0  0  0  0  0  0  0
  152.5860  140.9194  159.2413 H   0  0  0  0  0  0  0  0  0  0  0  0
  153.4743  142.9678  158.0971 H   0  0  0  0  0  0  0  0  0  0  0  0
  151.2579  143.7244  156.8220 H   0  0  0  0  0  0  0  0  0  0  0  0
  150.6974  145.8450  158.1694 H   0  0  0  0  0  0  0  0  0  0  0  0
  152.6738  145.8433  159.9472 H   0  0  0  0  0  0  0  0  0  0  0  0
  151.1993  145.1669  160.6608 H   0  0  0  0  0  0  0  0  0  0  0  0
  152.1343  143.0513  160.7384 H   0  0  0  0  0  0  0  0  0  0  0  0
  153.6759  143.7391  160.2679 H   0  0  0  0  0  0  0  0  0  0  0  0
  1  2  1  0  0  0  0
  1 17  1  0  0  0  0
  1 18  1  0  0  0  0
  1 19  1  0  0  0  0
  2  3  1  0  0  0  0
  2 20  1  0  0  0  0
  3  4  2  0  0  0  0
  3  5  1  0  0  0  0
  5  6  1  0  0  0  0
  5 21  1  0  0  0  0
  5 22  1  0  0  0  0
  6 16  1  0  0  0  0
  6  7  2  0  0  0  0
  7  8  1  0  0  0  0
  8  9  1  0  0  0  0
  9 10  1  0  0  0  0
  9 16  2  0  0  0  0
 10 11  1  0  0  0  0
 10 23  1  0  0  0  0
 10 24  1  0  0  0  0
 11 15  1  0  0  0  0
 11 12  1  0  0  0  0
 11 25  1  0  0  0  0
 12 13  2  0  0  0  0
 12 26  1  0  0  0  0
 13 14  1  0  0  0  0
 13 27  1  0  0  0  0
 14 15  1  0  0  0  0
 14 28  1  0  0  0  0
 14 29  1  0  0  0  0
 15 30  1  0  0  0  0
 15 31  1  0  0  0  0
M  END
> <s_m_source_file>
AV-unprocessed.smi

> <i_m_source_file_index>
629

> <i_lp_mmshare_version>
43012

> <i_f3d_flags>
0

> <s_epik_input>
W0NIM11bTkhdQyg9TylbQ0gyXWMxbm9jKG4xKVtDSDJdW0NAQEhdMltDSF09W0NIXVtDSDJdW0NIMl0y

> <s_epik_cmdline>
J2VwaWtfcHl0aG9uJywgJy1waCcsICc3LjAnLCAnLXRuJywgJzgnLCAnLW1hJywgJzIwMCcsICctbWV0YWxfYmluZGluZycsICctaW1hZScsICc8aW5maWxlLm1hZT4nLCAnLW9tYWUnLCAnPG91dGZpbGUubWFlPic=

> <r_lp_tautomer_probability>
1

> <r_epik_Ionization_Penalty>
1.02915e-07

> <r_epik_Ionization_Penalty_Charging>
0

> <r_epik_Ionization_Penalty_Neutral>
1.02915e-07

> <r_epik_State_Penalty>
-0

> <r_epik_Charging_Adjusted_Penalty>
0

> <i_epik_Tot_Q>
0

> <i_epik_Tot_abs_Q>
0

> <r_epik_Metal_State_Penalty>
-0

> <b_epik_Metal_Only>
0

> <s_lp_Force_Field>
OPLS_2005

> <r_lp_Energy>
15.6904

> <b_lp_Chiralities_Consistent>
1

> <s_lp_Variant>
AV-unprocessed.smi:629-2

> <Gold.Version>
5.8.1

> <Gold.Id.Protein>
6NUR|6NUR_protein|mol2

> <Gold.PLP.Fitness>
44.1425

> <Gold.PLP.PLP>
-36.2289

> <Gold.PLP.part.hbond>
-2.8873

> <Gold.PLP.part.metal>
0.0000

> <Gold.PLP.part.buried>
-4.3420

> <Gold.PLP.part.nonpolar>
-29.2618

> <Gold.PLP.part.repulsive>
0.1878

> <Gold.PLP.ligand.clash>
0.0000

> <Gold.PLP.ligand.torsion>
0.3841

> <Gold.PLP.Chemscore.Hbond>
2.8873

> <Gold.PLP.Chemscore.CHOScore>
0.0000

> <Gold.PLP.Chemscore.Metal>
0.0000

> <Gold.Chemscore.Hbonds>
donor molecule, donor type, donor heavy atom, donor atom, acceptor molecule, acceptor atom, score
      P1  H  7989  7998       L1     7  0.85
      P1  H  7997  8010       L1    16  0.94
      P1  H 10752 10764       L1     4  1.00

> <Gold.PLP.Chemscore.Internal.Correction>
0.0200

> <Gold.Rescore>
     Score         DG    S(hbond)    S(metal)    S(lipo)     H(rot)  DE(clash)    DE(int)     intcor
     14.20     -15.53       1.55        0.00      82.98       1.89       0.05       1.28       ----

> <Gold.Chemscore.Fitness>
14.2002

> <Gold.Chemscore.DG>
-15.5262

> <Gold.Chemscore.ZeroCoef>
-5.4800

> <Gold.Chemscore.Hbond>
1.5478

> <Gold.Chemscore.Metal>
0.0000

> <Gold.Chemscore.Lipo>
82.9829

> <Gold.Chemscore.Internal_Hbond>
0.0000

> <Gold.Chemscore.DEClash>
0.0462

> <Gold.Chemscore.DEInternal>
1.2797

> <Gold.Chemscore.Rot>
1.8877

> <Gold.Chemscore.Internal.Correction>
   9.000000E+99

> <Gold.Chemscore.Hbonds>
donor molecule, donor type, donor heavy atom, donor atom, acceptor molecule, acceptor atom, score
      P1  H  7989  7998       L1     7  0.19
      P1  H  7997  8010       L1    16  0.38
      P1  H 10752 10764       L1     4  0.87

> <Gold.Chemscore.Hbond.Weighted>
-5.1697

> <Gold.Chemscore.Metal.Weighted>
-0.0000

> <Gold.Chemscore.Lipo.Weighted>
-9.7090

> <Gold.Chemscore.Internal_Hbond.Weighted>
0.0000

> <Gold.Chemscore.DEClash.Weighted>
0.0462

> <Gold.Chemscore.DEInternal.Weighted>
1.2797

> <Gold.Chemscore.Rot.Weighted>
4.8325

> <Gold.Chemscore.Internal.Correction.Weighted>
   9.000000E+99

> <Gold.Protein.RotatedTorsions>
[ 6907 6896 6895 6894 ] final  -22.27 input  -60.11 | X-H torsion
[ 7974 7965 7964 7962 ] final -168.26 input  175.53 | X-H torsion
[ 8008 7997 7996 7995 ] final   57.73 input   59.86 | X-H torsion
[ 10167 10162 10161 10158 ] final    8.31 input  -65.29 | X-H torsion
[ 10718 10713 10712 10709 ] final  -88.55 input   66.30 | X-H torsion
[ 10763 10752 10751 10750 ] final  -58.00 input  -60.55 | X-H torsion
[ 11005 11000 10999 10996 ] final   82.49 input  -57.11 | X-H torsion

> <Gold.Protein.ActiveResidues>
 VAL166  LYS551  ARG553  GLY616  TRP617  ASP618  TYR619  PRO620  LYS621  CYS622 
 ASP623  PHE694  ASN695  SER759  ASP760  ASP761  ALA762  ILE779  LEU786  VAL792 
 PHE793  MET794  SER795  GLU796  ALA797  LYS798  CYS799  TRP800  GLU811  SER814 

> <Gold.Protein.RotatedAtoms>
  151.2211  135.0519  159.8949 H   0  0  0  0  0  0  0  0  0  0  0  0  # atno 6907 bound_to 6896
  152.5415  134.0640  159.8174 H   0  0  0  0  0  0  0  0  0  0  0  0  # atno 6908 bound_to 6896
  151.0806  133.5345  159.2652 H   0  0  0  0  0  0  0  0  0  0  0  0  # atno 6909 bound_to 6896
  144.7206  140.2396  143.6293 H   0  0  0  0  0  0  0  0  0  0  0  0  # atno 7974 bound_to 7965
  155.5385  140.3484  155.4441 H   0  0  0  0  0  0  0  0  0  0  0  0  # atno 8008 bound_to 7997
  156.0668  140.1353  156.9903 H   0  0  0  0  0  0  0  0  0  0  0  0  # atno 8009 bound_to 7997
  154.4507  140.0974  156.6584 H   0  0  0  0  0  0  0  0  0  0  0  0  # atno 8010 bound_to 7997
  140.6322  143.7968  150.7310 H   0  0  0  0  0  0  0  0  0  0  0  0  # atno 10167 bound_to 10162
  155.9983  130.4840  150.5037 H   0  0  0  0  0  0  0  0  0  0  0  0  # atno 10718 bound_to 10713
  154.2313  135.6360  153.5176 H   0  0  0  0  0  0  0  0  0  0  0  0  # atno 10763 bound_to 10752
  152.9948  135.5520  154.6009 H   0  0  0  0  0  0  0  0  0  0  0  0  # atno 10764 bound_to 10752
  154.5493  135.2900  155.0998 H   0  0  0  0  0  0  0  0  0  0  0  0  # atno 10765 bound_to 10752
  139.9062  134.8075  156.2181 H   0  0  0  0  0  0  0  0  0  0  0  0  # atno 11005 bound_to 11000
  145.8332  139.2095  143.1870 LP  0  0  0  0  0  0  0  0  0  0  0  0  # atno 17320 bound_to 7965
  146.0412  140.8163  142.9828 LP  0  0  0  0  0  0  0  0  0  0  0  0  # atno 17321 bound_to 7965
  140.1582  143.4298  152.2085 LP  0  0  0  0  0  0  0  0  0  0  0  0  # atno 17342 bound_to 10162
  139.5535  144.7355  151.4364 LP  0  0  0  0  0  0  0  0  0  0  0  0  # atno 17343 bound_to 10162
  157.3018  131.0646  151.2063 LP  0  0  0  0  0  0  0  0  0  0  0  0  # atno 17370 bound_to 10713
  157.3039  130.6856  149.6179 LP  0  0  0  0  0  0  0  0  0  0  0  0  # atno 17371 bound_to 10713
  141.0423  133.6931  156.1619 LP  0  0  0  0  0  0  0  0  0  0  0  0  # atno 17394 bound_to 11000
  140.6937  134.4638  157.5588 LP  0  0  0  0  0  0  0  0  0  0  0  0  # atno 17395 bound_to 11000

$$$$
