AV-unprocessed.smi:1645|AV-procd|sdf|6613|dock3
  -GOLD-   22720 7313D 1   1.00000     0.00000
 Structure written by MMmdl.
 56 59  0  0  0  0  0  0  0  0  3 V2000
  149.4748  134.9015  156.1022 O   0  0  0  0  0  0  0  0  0  0  0  0
  149.3588  135.4070  154.9861 C   0  0  0  0  0  0  0  0  0  0  0  0
  149.7970  136.6290  154.6375 N   0  0  0  0  0  0  0  0  0  0  0  0
  150.3914  137.6249  155.4598 C   0  0  0  0  0  0  0  0  0  0  0  0
  150.7648  138.8424  154.8542 C   0  0  0  0  0  0  0  0  0  0  0  0
  151.3356  139.8696  155.6333 C   0  0  0  0  0  0  0  0  0  0  0  0
  151.5225  139.6800  157.0259 C   0  0  0  0  0  0  0  0  0  0  0  0
  152.0840  140.6507  157.8871 N   0  0  0  0  0  0  0  0  0  0  0  0
  152.6852  140.1471  159.1270 C   0  0  0  0  0  0  0  0  0  0  0  0
  153.6110  141.1926  159.7716 C   0  0  0  0  0  0  0  0  0  0  0  0
  152.8854  142.5308  159.9633 C   0  0  0  0  0  0  0  0  0  0  0  0
  152.3212  143.0117  158.6200 C   0  0  0  0  0  0  0  0  0  0  0  0
  151.4095  141.9470  157.9864 C   0  0  0  0  0  0  0  0  0  0  0  0
  151.1406  138.4949  157.5614 N   0  3  0  0  0  0  0  0  0  0  0  0
  150.5931  137.4840  156.8530 C   0  0  0  0  0  0  0  0  0  0  0  0
  148.7886  134.7800  153.9473 N   0  0  0  0  0  0  0  0  0  0  0  0
  148.2152  133.4374  153.9868 C   0  0  1  0  0  0  0  0  0  0  0  0
  147.2225  133.1739  152.8605 C   0  0  0  0  0  0  0  0  0  0  0  0
  147.1717  131.6456  152.8288 C   0  0  0  0  0  0  0  0  0  0  0  0
  148.5352  131.1878  153.1810 N   0  3  2  0  0  0  0  0  0  0  0  0
  148.5840  129.9203  153.9498 C   0  0  0  0  0  0  0  0  0  0  0  0
  150.0414  129.5291  154.2566 C   0  0  0  0  0  0  0  0  0  0  0  0
  150.8528  130.6749  154.8969 C   0  0  0  0  0  0  0  0  0  0  0  0
  150.0204  131.9536  155.0816 C   0  0  0  0  0  0  0  0  0  0  0  0
  149.2700  132.3357  153.7855 C   0  0  2  0  0  0  0  0  0  0  0  0
  149.7104  136.8701  153.6610 H   0  0  0  0  0  0  0  0  0  0  0  0
  150.6167  138.9943  153.7949 H   0  0  0  0  0  0  0  0  0  0  0  0
  151.6067  140.7929  155.1441 H   0  0  0  0  0  0  0  0  0  0  0  0
  151.8839  139.8839  159.8185 H   0  0  0  0  0  0  0  0  0  0  0  0
  153.2629  139.2390  158.9561 H   0  0  0  0  0  0  0  0  0  0  0  0
  153.9773  140.8245  160.7303 H   0  0  0  0  0  0  0  0  0  0  0  0
  154.4890  141.3407  159.1416 H   0  0  0  0  0  0  0  0  0  0  0  0
  152.0760  142.4140  160.6852 H   0  0  0  0  0  0  0  0  0  0  0  0
  153.5686  143.2746  160.3745 H   0  0  0  0  0  0  0  0  0  0  0  0
  151.7682  143.9412  158.7567 H   0  0  0  0  0  0  0  0  0  0  0  0
  153.1437  143.2377  157.9399 H   0  0  0  0  0  0  0  0  0  0  0  0
  151.1139  142.2975  156.9973 H   0  0  0  0  0  0  0  0  0  0  0  0
  150.5001  141.8319  158.5779 H   0  0  0  0  0  0  0  0  0  0  0  0
  150.3289  136.6159  157.4376 H   0  0  0  0  0  0  0  0  0  0  0  0
  148.7399  135.2697  153.0655 H   0  0  0  0  0  0  0  0  0  0  0  0
  147.6906  133.2774  154.9315 H   0  0  0  0  0  0  0  0  0  0  0  0
  146.2458  133.6253  153.0384 H   0  0  0  0  0  0  0  0  0  0  0  0
  147.6065  133.5550  151.9128 H   0  0  0  0  0  0  0  0  0  0  0  0
  146.4577  131.2952  153.5760 H   0  0  0  0  0  0  0  0  0  0  0  0
  146.8571  131.2570  151.8599 H   0  0  0  0  0  0  0  0  0  0  0  0
  148.0202  130.0280  154.8780 H   0  0  0  0  0  0  0  0  0  0  0  0
  148.0978  129.1298  153.3769 H   0  0  0  0  0  0  0  0  0  0  0  0
  150.0551  128.6545  154.9078 H   0  0  0  0  0  0  0  0  0  0  0  0
  150.5311  129.2208  153.3318 H   0  0  0  0  0  0  0  0  0  0  0  0
  151.2566  130.3572  155.8587 H   0  0  0  0  0  0  0  0  0  0  0  0
  151.7152  130.8971  154.2672 H   0  0  0  0  0  0  0  0  0  0  0  0
  149.3086  131.8031  155.8945 H   0  0  0  0  0  0  0  0  0  0  0  0
  150.6674  132.7723  155.3974 H   0  0  0  0  0  0  0  0  0  0  0  0
  149.9947  132.6575  153.0356 H   0  0  0  0  0  0  0  0  0  0  0  0
  149.0067  131.0017  152.3073 H   0  0  0  0  0  0  0  0  0  0  0  0
  151.2723  138.3573  158.5635 H   0  0  0  0  0  0  0  0  0  0  0  0
  1  2  2  0  0  0  0
  2  3  1  0  0  0  0
  2 16  1  0  0  0  0
  3  4  1  0  0  0  0
  3 26  1  0  0  0  0
  4 15  1  0  0  0  0
  4  5  2  0  0  0  0
  5  6  1  0  0  0  0
  5 27  1  0  0  0  0
  6  7  2  0  0  0  0
  6 28  1  0  0  0  0
  7  8  1  0  0  0  0
  7 14  1  0  0  0  0
  8 13  1  0  0  0  0
  8  9  1  0  0  0  0
  9 10  1  0  0  0  0
  9 29  1  0  0  0  0
  9 30  1  0  0  0  0
 10 11  1  0  0  0  0
 10 31  1  0  0  0  0
 10 32  1  0  0  0  0
 11 12  1  0  0  0  0
 11 33  1  0  0  0  0
 11 34  1  0  0  0  0
 12 13  1  0  0  0  0
 12 35  1  0  0  0  0
 12 36  1  0  0  0  0
 13 37  1  0  0  0  0
 13 38  1  0  0  0  0
 14 15  2  0  0  0  0
 14 56  1  0  0  0  0
 15 39  1  0  0  0  0
 16 17  1  0  0  0  0
 16 40  1  0  0  0  0
 17 25  1  0  0  0  0
 17 18  1  0  0  0  0
 17 41  1  0  0  0  0
 18 19  1  0  0  0  0
 18 42  1  0  0  0  0
 18 43  1  0  0  0  0
 19 20  1  0  0  0  0
 19 44  1  0  0  0  0
 19 45  1  0  0  0  0
 20 25  1  0  0  0  0
 20 21  1  0  0  0  0
 20 55  1  0  0  0  0
 21 22  1  0  0  0  0
 21 46  1  0  0  0  0
 21 47  1  0  0  0  0
 22 23  1  0  0  0  0
 22 48  1  0  0  0  0
 22 49  1  0  0  0  0
 23 24  1  0  0  0  0
 23 50  1  0  0  0  0
 23 51  1  0  0  0  0
 24 25  1  0  0  0  0
 24 52  1  0  0  0  0
 24 53  1  0  0  0  0
 25 54  1  0  0  0  0
M  CHG  1  14   1
M  CHG  1  20   1
M  END
> <s_m_source_file>
AV-unprocessed.smi

> <i_m_source_file_index>
1645

> <i_lp_mmshare_version>
43012

> <i_f3d_flags>
0

> <s_epik_input>
W0NIMl0xW0NIMl1bQ0gyXVtDSDJdW0NASF0oTjEyKVtDQEBIXShbQ0gyXVtDSDJdMilbTkhdQyg9TylbTkhdYzNbY0hdW2NIXWMobltjSF0zKU40W0NIMl1bQ0gyXVtDSDJdW0NIMl1bQ0gyXTQ=

> <s_epik_cmdline>
J2VwaWtfcHl0aG9uJywgJy1waCcsICc3LjAnLCAnLXRuJywgJzgnLCAnLW1hJywgJzIwMCcsICctbWV0YWxfYmluZGluZycsICctaW1hZScsICc8aW5maWxlLm1hZT4nLCAnLW9tYWUnLCAnPG91dGZpbGUubWFlPic=

> <r_lp_tautomer_probability>
0.999994

> <r_epik_Ionization_Penalty>
1.26838

> <r_epik_Ionization_Penalty_Charging>
1.26836

> <r_epik_Ionization_Penalty_Neutral>
1.95562e-05

> <r_epik_State_Penalty>
1.33841

> <r_epik_Charging_Adjusted_Penalty>
2.60677

> <i_epik_Tot_Q>
2

> <i_epik_Tot_abs_Q>
2

> <r_epik_Metal_State_Penalty>
1.40601

> <b_epik_Metal_Only>
0

> <s_lp_Force_Field>
OPLS_2005

> <r_lp_Energy>
63.6988

> <b_lp_Chiralities_Consistent>
1

> <s_lp_Variant>
AV-unprocessed.smi:1645-14

> <Gold.Version>
5.8.1

> <Gold.Id.Protein>
6NUR|6NUR_protein|mol2

> <Gold.PLP.Fitness>
51.7051

> <Gold.PLP.PLP>
-43.7896

> <Gold.PLP.part.hbond>
-2.9864

> <Gold.PLP.part.metal>
0.0000

> <Gold.PLP.part.buried>
-4.3008

> <Gold.PLP.part.nonpolar>
-36.1485

> <Gold.PLP.part.repulsive>
0.0914

> <Gold.PLP.ligand.clash>
0.0000

> <Gold.PLP.ligand.torsion>
0.6470

> <Gold.PLP.Chemscore.Hbond>
2.8960

> <Gold.PLP.Chemscore.CHOScore>
0.0000

> <Gold.PLP.Chemscore.Metal>
0.0000

> <Gold.Chemscore.Hbonds>
donor molecule, donor type, donor heavy atom, donor atom, acceptor molecule, acceptor atom, score
      L1  H     3    26       P1  7948  0.88
      L1  H    16    40       P1  7948  0.99
      L1  H    20    55       P1 10747  1.00

> <Gold.PLP.Chemscore.Internal.Correction>
0.5214

> <Gold.Rescore>
     Score         DG    S(hbond)    S(metal)    S(lipo)     H(rot)  DE(clash)    DE(int)     intcor
     22.20     -24.11       2.71        0.00     107.63       1.18       0.01       1.91       ----

> <Gold.Chemscore.Fitness>
22.1956

> <Gold.Chemscore.DG>
-24.1105

> <Gold.Chemscore.ZeroCoef>
-5.4800

> <Gold.Chemscore.Hbond>
2.7148

> <Gold.Chemscore.Metal>
0.0000

> <Gold.Chemscore.Lipo>
107.6284

> <Gold.Chemscore.Internal_Hbond>
0.0000

> <Gold.Chemscore.DEClash>
0.0060

> <Gold.Chemscore.DEInternal>
1.9089

> <Gold.Chemscore.Rot>
1.1833

> <Gold.Chemscore.Internal.Correction>
   9.000000E+99

> <Gold.Chemscore.Hbonds>
donor molecule, donor type, donor heavy atom, donor atom, acceptor molecule, acceptor atom, score
      L1  H     3    26       P1  7948  0.53
      L1  H    16    40       P1  7948  0.60
      L1  H    20    55       P1 10747  0.41

> <Gold.Chemscore.Hbond.Weighted>
-9.0673

> <Gold.Chemscore.Metal.Weighted>
-0.0000

> <Gold.Chemscore.Lipo.Weighted>
-12.5925

> <Gold.Chemscore.Internal_Hbond.Weighted>
0.0000

> <Gold.Chemscore.DEClash.Weighted>
0.0060

> <Gold.Chemscore.DEInternal.Weighted>
1.9089

> <Gold.Chemscore.Rot.Weighted>
3.0293

> <Gold.Chemscore.Internal.Correction.Weighted>
   9.000000E+99

> <Gold.Protein.RotatedTorsions>
[ 6907 6896 6895 6894 ] final  -34.20 input  -60.11 | X-H torsion
[ 7974 7965 7964 7962 ] final   27.01 input  175.53 | X-H torsion
[ 8008 7997 7996 7995 ] final   60.15 input   59.86 | X-H torsion
[ 10167 10162 10161 10158 ] final  106.49 input  -65.29 | X-H torsion
[ 10718 10713 10712 10709 ] final   24.02 input   66.30 | X-H torsion
[ 10763 10752 10751 10750 ] final   14.18 input  -60.55 | X-H torsion
[ 11005 11000 10999 10996 ] final  -16.14 input  -57.11 | X-H torsion

> <Gold.Protein.ActiveResidues>
 VAL166  LYS551  ARG553  GLY616  TRP617  ASP618  TYR619  PRO620  LYS621  CYS622 
 ASP623  PHE694  ASN695  SER759  ASP760  ASP761  ALA762  ILE779  LEU786  VAL792 
 PHE793  MET794  SER795  GLU796  ALA797  LYS798  CYS799  TRP800  GLU811  SER814 

> <Gold.Protein.RotatedAtoms>
  151.0557  134.9703  159.8234 H   0  0  0  0  0  0  0  0  0  0  0  0  # atno 6907 bound_to 6896
  152.5388  134.2480  159.8898 H   0  0  0  0  0  0  0  0  0  0  0  0  # atno 6908 bound_to 6896
  151.2498  133.4313  159.2644 H   0  0  0  0  0  0  0  0  0  0  0  0  # atno 6909 bound_to 6896
  146.1807  139.7250  142.8902 H   0  0  0  0  0  0  0  0  0  0  0  0  # atno 7974 bound_to 7965
  155.5777  140.3491  155.4532 H   0  0  0  0  0  0  0  0  0  0  0  0  # atno 8008 bound_to 7997
  156.0397  140.1293  157.0195 H   0  0  0  0  0  0  0  0  0  0  0  0  # atno 8009 bound_to 7997
  154.4386  140.1026  156.6204 H   0  0  0  0  0  0  0  0  0  0  0  0  # atno 8010 bound_to 7997
  139.7004  144.7095  151.1194 H   0  0  0  0  0  0  0  0  0  0  0  0  # atno 10167 bound_to 10162
  157.1740  130.6772  149.6088 H   0  0  0  0  0  0  0  0  0  0  0  0  # atno 10718 bound_to 10713
  153.1648  135.6802  153.8691 H   0  0  0  0  0  0  0  0  0  0  0  0  # atno 10763 bound_to 10752
  153.8075  135.3147  155.3398 H   0  0  0  0  0  0  0  0  0  0  0  0  # atno 10764 bound_to 10752
  154.7957  135.4808  154.0246 H   0  0  0  0  0  0  0  0  0  0  0  0  # atno 10765 bound_to 10752
  140.8038  133.8193  155.9495 H   0  0  0  0  0  0  0  0  0  0  0  0  # atno 11005 bound_to 11000
  145.4083  141.0393  143.3031 LP  0  0  0  0  0  0  0  0  0  0  0  0  # atno 17320 bound_to 7965
  144.8311  139.5627  143.6943 LP  0  0  0  0  0  0  0  0  0  0  0  0  # atno 17321 bound_to 7965
  140.7708  143.5431  150.9289 LP  0  0  0  0  0  0  0  0  0  0  0  0  # atno 17342 bound_to 10162
  139.9113  143.6717  152.3114 LP  0  0  0  0  0  0  0  0  0  0  0  0  # atno 17343 bound_to 10162
  155.9734  130.4669  150.6306 LP  0  0  0  0  0  0  0  0  0  0  0  0  # atno 17370 bound_to 10713
  157.4016  131.0810  151.1303 LP  0  0  0  0  0  0  0  0  0  0  0  0  # atno 17371 bound_to 10713
  140.9268  134.2072  157.4890 LP  0  0  0  0  0  0  0  0  0  0  0  0  # atno 17394 bound_to 11000
  139.8719  134.9816  156.5122 LP  0  0  0  0  0  0  0  0  0  0  0  0  # atno 17395 bound_to 11000

$$$$
