AV-unprocessed.smi:3132|AV-procd|sdf|11933|dock4
  -GOLD-   2272017323D 1   1.00000     0.00000
 Structure written by MMmdl.
 33 34  0  0  0  0  0  0  0  0  1 V2000
  151.0235  139.7245  156.3364 C   0  0  0  0  0  0  0  0  0  0  0  0
  150.3185  141.0510  156.6498 C   0  0  2  0  0  0  0  0  0  0  0  0
  149.9791  141.8272  155.3599 C   0  0  0  0  0  0  0  0  0  0  0  0
  148.8315  141.2765  154.6616 N   0  0  0  0  0  0  0  0  0  0  0  0
  147.6834  141.9531  154.2693 C   0  0  0  0  0  0  0  0  0  0  0  0
  146.8711  141.0256  153.6573 C   0  0  0  0  0  0  0  0  0  0  0  0
  147.4979  139.7818  153.6555 N   0  0  0  0  0  0  0  0  0  0  0  0
  148.6535  140.0087  154.2663 C   0  0  0  0  0  0  0  0  0  0  0  0
  151.1770  141.8522  157.5209 N   0  0  0  0  0  0  0  0  0  0  0  0
  150.7851  142.4982  158.6305 C   0  0  0  0  0  0  0  0  0  0  0  0
  149.6372  142.4493  159.0739 O   0  0  0  0  0  0  0  0  0  0  0  0
  151.8496  143.3612  159.3166 C   0  0  2  0  0  0  0  0  0  0  0  0
  153.1162  142.5928  159.7367 C   0  0  0  0  0  0  0  0  0  0  0  0
  152.9884  142.4948  161.2434 C   0  0  0  0  0  0  0  0  0  0  0  0
  152.2334  143.7748  161.5714 C   0  0  0  0  0  0  0  0  0  0  0  0
  151.2832  143.8746  160.5218 O   0  0  0  0  0  0  0  0  0  0  0  0
  150.4018  139.0903  155.7038 H   0  0  0  0  0  0  0  0  0  0  0  0
  151.2367  139.1679  157.2498 H   0  0  0  0  0  0  0  0  0  0  0  0
  151.9681  139.8883  155.8169 H   0  0  0  0  0  0  0  0  0  0  0  0
  149.3878  140.8061  157.1654 H   0  0  0  0  0  0  0  0  0  0  0  0
  149.7838  142.8771  155.5828 H   0  0  0  0  0  0  0  0  0  0  0  0
  150.8279  141.8067  154.6753 H   0  0  0  0  0  0  0  0  0  0  0  0
  147.5393  143.0060  154.4612 H   0  0  0  0  0  0  0  0  0  0  0  0
  145.8914  141.1569  153.2223 H   0  0  0  0  0  0  0  0  0  0  0  0
  149.3859  139.2330  154.4359 H   0  0  0  0  0  0  0  0  0  0  0  0
  152.1387  141.9599  157.2327 H   0  0  0  0  0  0  0  0  0  0  0  0
  152.1256  144.1943  158.6678 H   0  0  0  0  0  0  0  0  0  0  0  0
  153.2248  141.6141  159.2671 H   0  0  0  0  0  0  0  0  0  0  0  0
  154.0004  143.1763  159.4771 H   0  0  0  0  0  0  0  0  0  0  0  0
  152.3884  141.6252  161.5153 H   0  0  0  0  0  0  0  0  0  0  0  0
  153.9501  142.4232  161.7518 H   0  0  0  0  0  0  0  0  0  0  0  0
  151.7510  143.7431  162.5483 H   0  0  0  0  0  0  0  0  0  0  0  0
  152.9000  144.6378  161.5414 H   0  0  0  0  0  0  0  0  0  0  0  0
  1  2  1  0  0  0  0
  1 17  1  0  0  0  0
  1 18  1  0  0  0  0
  1 19  1  0  0  0  0
  2  3  1  0  0  0  0
  2  9  1  0  0  0  0
  2 20  1  0  0  0  0
  3  4  1  0  0  0  0
  3 21  1  0  0  0  0
  3 22  1  0  0  0  0
  4  8  1  0  0  0  0
  4  5  1  0  0  0  0
  5  6  2  0  0  0  0
  5 23  1  0  0  0  0
  6  7  1  0  0  0  0
  6 24  1  0  0  0  0
  7  8  2  0  0  0  0
  8 25  1  0  0  0  0
  9 10  1  0  0  0  0
  9 26  1  0  0  0  0
 10 11  2  0  0  0  0
 10 12  1  0  0  0  0
 12 16  1  0  0  0  0
 12 13  1  0  0  0  0
 12 27  1  0  0  0  0
 13 14  1  0  0  0  0
 13 28  1  0  0  0  0
 13 29  1  0  0  0  0
 14 15  1  0  0  0  0
 14 30  1  0  0  0  0
 14 31  1  0  0  0  0
 15 16  1  0  0  0  0
 15 32  1  0  0  0  0
 15 33  1  0  0  0  0
M  END
> <s_m_source_file>
AV-unprocessed.smi

> <i_m_source_file_index>
3132

> <i_lp_mmshare_version>
43012

> <i_f3d_flags>
0

> <s_epik_input>
W2NIXTFuW2NIXVtjSF1uMVtDSDJdW0NAQEhdKFtDSDNdKVtOSF1DKD1PKVtDQEBIXTJbQ0gyXVtDSDJdW0NIMl1PMg==

> <s_epik_cmdline>
J2VwaWtfcHl0aG9uJywgJy1waCcsICc3LjAnLCAnLXRuJywgJzgnLCAnLW1hJywgJzIwMCcsICctbWV0YWxfYmluZGluZycsICctaW1hZScsICc8aW5maWxlLm1hZT4nLCAnLW9tYWUnLCAnPG91dGZpbGUubWFlPic=

> <r_lp_tautomer_probability>
1

> <r_epik_Ionization_Penalty>
0.630322

> <r_epik_Ionization_Penalty_Charging>
0.630322

> <r_epik_Ionization_Penalty_Neutral>
3.82652e-08

> <r_epik_State_Penalty>
0.647117

> <r_epik_Charging_Adjusted_Penalty>
1.27744

> <i_epik_Tot_Q>
0

> <i_epik_Tot_abs_Q>
0

> <r_epik_Metal_State_Penalty>
0.309095

> <b_epik_Metal_Only>
0

> <s_lp_Force_Field>
OPLS_2005

> <r_lp_Energy>
19.5701

> <b_lp_Chiralities_Consistent>
1

> <s_lp_Variant>
AV-unprocessed.smi:3132-5

> <Gold.Version>
5.8.1

> <Gold.Id.Protein>
6NUR|6NUR_protein|mol2

> <Gold.PLP.Fitness>
40.5990

> <Gold.PLP.PLP>
-35.3567

> <Gold.PLP.part.hbond>
-1.0000

> <Gold.PLP.part.metal>
0.0000

> <Gold.PLP.part.buried>
-3.1847

> <Gold.PLP.part.nonpolar>
-31.3630

> <Gold.PLP.part.repulsive>
0.7186

> <Gold.PLP.ligand.clash>
0.0000

> <Gold.PLP.ligand.torsion>
0.3983

> <Gold.PLP.Chemscore.Hbond>
0.0000

> <Gold.PLP.Chemscore.CHOScore>
2.0000

> <Gold.PLP.Chemscore.Metal>
0.0000

> <Gold.Chemscore.Hbonds>
donor molecule, donor type, donor heavy atom, donor atom, acceptor molecule, acceptor atom, score
      L1  C     5    23       P1  8028  1.00
      L1  C     6    24       P1 10175  1.00

> <Gold.PLP.Chemscore.Internal.Correction>
0.0389

> <Gold.Rescore>
     Score         DG    S(hbond)    S(metal)    S(lipo)     H(rot)  DE(clash)    DE(int)     intcor
      9.75     -10.17       0.00        0.00      80.90       1.86       0.00       0.42       ----

> <Gold.Chemscore.Fitness>
9.7520

> <Gold.Chemscore.DG>
-10.1749

> <Gold.Chemscore.ZeroCoef>
-5.4800

> <Gold.Chemscore.Hbond>
0.0000

> <Gold.Chemscore.Metal>
0.0000

> <Gold.Chemscore.Lipo>
80.9038

> <Gold.Chemscore.Internal_Hbond>
0.0000

> <Gold.Chemscore.DEClash>
0.0000

> <Gold.Chemscore.DEInternal>
0.4229

> <Gold.Chemscore.Rot>
1.8636

> <Gold.Chemscore.Internal.Correction>
   9.000000E+99

> <Gold.Chemscore.Hbond.Weighted>
-0.0000

> <Gold.Chemscore.Metal.Weighted>
-0.0000

> <Gold.Chemscore.Lipo.Weighted>
-9.4657

> <Gold.Chemscore.Internal_Hbond.Weighted>
0.0000

> <Gold.Chemscore.DEClash.Weighted>
0.0000

> <Gold.Chemscore.DEInternal.Weighted>
0.4229

> <Gold.Chemscore.Rot.Weighted>
4.7709

> <Gold.Chemscore.Internal.Correction.Weighted>
   9.000000E+99

> <Gold.Protein.RotatedTorsions>
[ 6907 6896 6895 6894 ] final -119.79 input  -60.11 | X-H torsion
[ 7974 7965 7964 7962 ] final -149.82 input  175.53 | X-H torsion
[ 8008 7997 7996 7995 ] final   88.92 input   59.86 | X-H torsion
[ 10167 10162 10161 10158 ] final  109.09 input  -65.29 | X-H torsion
[ 10718 10713 10712 10709 ] final  -75.10 input   66.30 | X-H torsion
[ 10763 10752 10751 10750 ] final  -84.22 input  -60.55 | X-H torsion
[ 11005 11000 10999 10996 ] final  -14.56 input  -57.11 | X-H torsion

> <Gold.Protein.ActiveResidues>
 VAL166  LYS551  ARG553  GLY616  TRP617  ASP618  TYR619  PRO620  LYS621  CYS622 
 ASP623  PHE694  ASN695  SER759  ASP760  ASP761  ALA762  ILE779  LEU786  VAL792 
 PHE793  MET794  SER795  GLU796  ALA797  LYS798  CYS799  TRP800  GLU811  SER814 

> <Gold.Protein.RotatedAtoms>
  150.8336  133.8051  159.3088 H   0  0  0  0  0  0  0  0  0  0  0  0  # atno 6907 bound_to 6896
  151.5774  135.1058  160.0019 H   0  0  0  0  0  0  0  0  0  0  0  0  # atno 6908 bound_to 6896
  152.4411  133.7409  159.6696 H   0  0  0  0  0  0  0  0  0  0  0  0  # atno 6909 bound_to 6896
  144.7944  140.5013  143.5750 H   0  0  0  0  0  0  0  0  0  0  0  0  # atno 7974 bound_to 7965
  155.9937  140.3366  155.6777 H   0  0  0  0  0  0  0  0  0  0  0  0  # atno 8008 bound_to 7997
  155.6386  140.0693  157.2644 H   0  0  0  0  0  0  0  0  0  0  0  0  # atno 8009 bound_to 7997
  154.4227  140.1747  156.1536 H   0  0  0  0  0  0  0  0  0  0  0  0  # atno 8010 bound_to 7997
  139.6794  144.7119  151.1543 H   0  0  0  0  0  0  0  0  0  0  0  0  # atno 10167 bound_to 10162
  156.0219  130.4433  150.2992 H   0  0  0  0  0  0  0  0  0  0  0  0  # atno 10718 bound_to 10713
  154.5970  135.5528  153.7335 H   0  0  0  0  0  0  0  0  0  0  0  0  # atno 10763 bound_to 10752
  153.0139  135.6357  154.1768 H   0  0  0  0  0  0  0  0  0  0  0  0  # atno 10764 bound_to 10752
  154.1709  135.2892  155.3061 H   0  0  0  0  0  0  0  0  0  0  0  0  # atno 10765 bound_to 10752
  140.7877  133.8312  155.9350 H   0  0  0  0  0  0  0  0  0  0  0  0  # atno 11005 bound_to 11000
  145.5711  139.1483  143.3288 LP  0  0  0  0  0  0  0  0  0  0  0  0  # atno 17320 bound_to 7965
  146.2207  140.5844  142.9018 LP  0  0  0  0  0  0  0  0  0  0  0  0  # atno 17321 bound_to 7965
  140.7647  143.5723  150.8983 LP  0  0  0  0  0  0  0  0  0  0  0  0  # atno 17342 bound_to 10162
  139.9393  143.6400  152.3057 LP  0  0  0  0  0  0  0  0  0  0  0  0  # atno 17343 bound_to 10162
  157.1095  131.0217  151.3053 LP  0  0  0  0  0  0  0  0  0  0  0  0  # atno 17370 bound_to 10713
  157.4716  130.7712  149.7328 LP  0  0  0  0  0  0  0  0  0  0  0  0  # atno 17371 bound_to 10713
  140.9420  134.1888  157.4790 LP  0  0  0  0  0  0  0  0  0  0  0  0  # atno 17394 bound_to 11000
  139.8735  134.9876  156.5373 LP  0  0  0  0  0  0  0  0  0  0  0  0  # atno 17395 bound_to 11000

$$$$
