AV-unprocessed.smi:21|AV-procd|sdf|152|dock2
  -GOLD-   2262015373D 1   1.00000     0.00000
 Structure written by MMmdl.
 62 65  0  0  0  0  0  0  0  0  2 V2000
  144.6607  132.9497  149.7860 C   0  0  0  0  0  0  0  0  0  0  0  0
  144.8592  134.3336  150.0258 O   0  0  0  0  0  0  0  0  0  0  0  0
  144.9862  134.6560  151.4026 C   0  0  2  0  0  0  0  0  0  0  0  0
  145.0956  136.1626  151.5902 C   0  0  0  0  0  0  0  0  0  0  0  0
  145.7697  136.2924  152.9595 C   0  0  2  0  0  0  0  0  0  0  0  0
  146.4950  137.6354  153.1767 C   0  0  0  0  0  0  0  0  0  0  0  0
  145.7942  138.5052  154.1247 N   0  0  0  0  0  0  0  0  0  0  0  0
  144.3707  138.7363  153.9114 C   0  0  0  0  0  0  0  0  0  0  0  0
  146.4933  139.2939  154.9921 C   0  0  0  0  0  0  0  0  0  0  0  0
  145.9099  139.6185  156.1772 N   0  0  0  0  0  0  0  0  0  0  0  0
  146.5410  140.3875  157.0678 C   0  0  0  0  0  0  0  0  0  0  0  0
  147.7515  140.9371  156.9820 N   0  0  0  0  0  0  0  0  0  0  0  0
  148.3520  140.6213  155.8005 C   0  0  0  0  0  0  0  0  0  0  0  0
  147.8049  139.8148  154.7590 C   0  0  0  0  0  0  0  0  0  0  0  0
  148.7301  139.7172  153.7231 N   0  0  0  0  0  0  0  0  0  0  0  0
  149.7501  140.4249  154.1227 C   0  0  0  0  0  0  0  0  0  0  0  0
  149.6034  141.0104  155.3578 N   0  0  0  0  0  0  0  0  0  0  0  0
  150.5706  141.8491  156.0446 C   0  0  0  0  0  0  0  0  0  0  0  0
  150.7016  141.5318  157.5556 C   0  0  1  0  0  0  0  0  0  0  0  0
  150.8897  140.0115  157.7707 C   0  0  0  0  0  0  0  0  0  0  0  0
  152.1878  139.6102  157.3850 O   0  0  0  0  0  0  0  0  0  0  0  0
  151.7881  142.3958  158.2558 C   0  0  1  0  0  0  0  0  0  0  0  0
  151.8104  143.8772  157.8760 C   0  0  0  0  0  0  0  0  0  0  0  0
  151.9330  144.6065  159.2154 C   0  0  0  0  0  0  0  0  0  0  0  0
  152.4134  143.6196  160.1145 O   0  0  0  0  0  0  0  0  0  0  0  0
  151.7447  142.4135  159.7877 C   0  0  0  0  0  0  0  0  0  0  0  0
  146.7111  135.1496  153.0288 N   0  3  1  0  0  0  0  0  0  0  0  0
  146.8959  134.5990  154.3893 C   0  0  0  0  0  0  0  0  0  0  0  0
  146.2888  134.1405  152.0280 C   0  0  0  0  0  0  0  0  0  0  0  0
  144.1266  134.2935  151.9696 H   0  0  0  0  0  0  0  0  0  0  0  0
  145.0059  136.1547  153.7275 H   0  0  0  0  0  0  0  0  0  0  0  0
  144.5609  132.7764  148.7145 H   0  0  0  0  0  0  0  0  0  0  0  0
  143.7503  132.5932  150.2694 H   0  0  0  0  0  0  0  0  0  0  0  0
  145.5026  132.3555  150.1427 H   0  0  0  0  0  0  0  0  0  0  0  0
  145.7349  136.5843  150.8129 H   0  0  0  0  0  0  0  0  0  0  0  0
  144.1295  136.6664  151.5408 H   0  0  0  0  0  0  0  0  0  0  0  0
  147.4877  137.4436  153.5849 H   0  0  0  0  0  0  0  0  0  0  0  0
  146.6774  138.1283  152.2217 H   0  0  0  0  0  0  0  0  0  0  0  0
  144.2074  139.6716  153.3754 H   0  0  0  0  0  0  0  0  0  0  0  0
  143.8368  138.7739  154.8614 H   0  0  0  0  0  0  0  0  0  0  0  0
  143.9300  137.9333  153.3200 H   0  0  0  0  0  0  0  0  0  0  0  0
  145.9979  140.5924  157.9787 H   0  0  0  0  0  0  0  0  0  0  0  0
  150.6389  140.5450  153.5201 H   0  0  0  0  0  0  0  0  0  0  0  0
  151.5311  141.7246  155.5434 H   0  0  0  0  0  0  0  0  0  0  0  0
  150.2839  142.8921  155.9036 H   0  0  0  0  0  0  0  0  0  0  0  0
  149.7556  141.8061  158.0254 H   0  0  0  0  0  0  0  0  0  0  0  0
  150.7372  139.7391  158.8152 H   0  0  0  0  0  0  0  0  0  0  0  0
  150.1798  139.4296  157.1852 H   0  0  0  0  0  0  0  0  0  0  0  0
  152.1883  139.4469  156.4541 H   0  0  0  0  0  0  0  0  0  0  0  0
  152.7710  142.0176  157.9733 H   0  0  0  0  0  0  0  0  0  0  0  0
  152.6772  144.0851  157.2473 H   0  0  0  0  0  0  0  0  0  0  0  0
  150.9311  144.2084  157.3250 H   0  0  0  0  0  0  0  0  0  0  0  0
  152.6030  145.4652  159.1675 H   0  0  0  0  0  0  0  0  0  0  0  0
  150.9556  144.9541  159.5538 H   0  0  0  0  0  0  0  0  0  0  0  0
  150.7269  142.4603  160.1747 H   0  0  0  0  0  0  0  0  0  0  0  0
  152.2391  141.5492  160.2314 H   0  0  0  0  0  0  0  0  0  0  0  0
  145.9632  134.1869  154.7768 H   0  0  0  0  0  0  0  0  0  0  0  0
  147.2394  135.3734  155.0754 H   0  0  0  0  0  0  0  0  0  0  0  0
  147.6433  133.8051  154.3801 H   0  0  0  0  0  0  0  0  0  0  0  0
  146.1622  133.1438  152.4534 H   0  0  0  0  0  0  0  0  0  0  0  0
  147.0734  134.0772  151.2729 H   0  0  0  0  0  0  0  0  0  0  0  0
  147.6093  135.4929  152.7190 H   0  0  0  0  0  0  0  0  0  0  0  0
  1  2  1  0  0  0  0
  1 32  1  0  0  0  0
  1 33  1  0  0  0  0
  1 34  1  0  0  0  0
  2  3  1  0  0  0  0
  3 30  1  0  0  0  0
  3 29  1  0  0  0  0
  3  4  1  0  0  0  0
  4  5  1  0  0  0  0
  4 35  1  0  0  0  0
  4 36  1  0  0  0  0
  5 31  1  0  0  0  0
  5  6  1  0  0  0  0
  5 27  1  0  0  0  0
  6  7  1  0  0  0  0
  6 37  1  0  0  0  0
  6 38  1  0  0  0  0
  7  8  1  0  0  0  0
  7  9  1  0  0  0  0
  8 39  1  0  0  0  0
  8 40  1  0  0  0  0
  8 41  1  0  0  0  0
  9 14  1  0  0  0  0
  9 10  2  0  0  0  0
 10 11  1  0  0  0  0
 11 12  2  0  0  0  0
 11 42  1  0  0  0  0
 12 13  1  0  0  0  0
 13 17  1  0  0  0  0
 13 14  2  0  0  0  0
 14 15  1  0  0  0  0
 15 16  2  0  0  0  0
 16 17  1  0  0  0  0
 16 43  1  0  0  0  0
 17 18  1  0  0  0  0
 18 19  1  0  0  0  0
 18 44  1  0  0  0  0
 18 45  1  0  0  0  0
 19 20  1  0  0  0  0
 19 22  1  0  0  0  0
 19 46  1  0  0  0  0
 20 21  1  0  0  0  0
 20 47  1  0  0  0  0
 20 48  1  0  0  0  0
 21 49  1  0  0  0  0
 22 26  1  0  0  0  0
 22 23  1  0  0  0  0
 22 50  1  0  0  0  0
 23 24  1  0  0  0  0
 23 51  1  0  0  0  0
 23 52  1  0  0  0  0
 24 25  1  0  0  0  0
 24 53  1  0  0  0  0
 24 54  1  0  0  0  0
 25 26  1  0  0  0  0
 26 55  1  0  0  0  0
 26 56  1  0  0  0  0
 27 28  1  0  0  0  0
 27 29  1  0  0  0  0
 27 62  1  0  0  0  0
 28 57  1  0  0  0  0
 28 58  1  0  0  0  0
 28 59  1  0  0  0  0
 29 60  1  0  0  0  0
 29 61  1  0  0  0  0
M  CHG  1  27   1
M  END
> <s_m_source_file>
AV-unprocessed.smi

> <i_m_source_file_index>
21

> <i_lp_mmshare_version>
43012

> <i_f3d_flags>
0

> <s_epik_input>
W0NIM11PW0NASF0xW0NIMl1bQ0BIXShOKFtDSDNdKVtDSDJdMSlbQ0gyXU4oW0NIM10pYyhuW2NIXW4yKWMoYzIzKW5bY0hdbjNbQ0gyXVtDQEhdKFtDSDJdW09IXSlbQ0BASF00W0NIMl1bQ0gyXU9bQ0gyXTQ=

> <s_epik_cmdline>
J2VwaWtfcHl0aG9uJywgJy1waCcsICc3LjAnLCAnLXRuJywgJzgnLCAnLW1hJywgJzIwMCcsICctbWV0YWxfYmluZGluZycsICctaW1hZScsICc8aW5maWxlLm1hZT4nLCAnLW9tYWUnLCAnPG91dGZpbGUubWFlPic=

> <r_lp_tautomer_probability>
1

> <r_epik_Ionization_Penalty>
0.0157465

> <r_epik_Ionization_Penalty_Charging>
0.015354

> <r_epik_Ionization_Penalty_Neutral>
0.000392529

> <r_epik_State_Penalty>
0.0120612

> <r_epik_Charging_Adjusted_Penalty>
0.0274152

> <i_epik_Tot_Q>
1

> <i_epik_Tot_abs_Q>
1

> <r_epik_Metal_State_Penalty>
0.0121253

> <b_epik_Metal_Only>
0

> <s_lp_Force_Field>
OPLS_2005

> <r_lp_Energy>
58.5761

> <b_lp_Chiralities_Consistent>
1

> <s_lp_Variant>
AV-unprocessed.smi:21-32

> <Gold.Version>
5.8.1

> <Gold.Id.Protein>
6NUR|6NUR_protein|mol2

> <Gold.PLP.Fitness>
46.6089

> <Gold.PLP.PLP>
-38.7191

> <Gold.PLP.part.hbond>
-2.0000

> <Gold.PLP.part.metal>
0.0000

> <Gold.PLP.part.buried>
-5.2642

> <Gold.PLP.part.nonpolar>
-31.9837

> <Gold.PLP.part.repulsive>
0.9057

> <Gold.PLP.ligand.clash>
0.0000

> <Gold.PLP.ligand.torsion>
1.9051

> <Gold.PLP.Chemscore.Hbond>
3.0000

> <Gold.PLP.Chemscore.CHOScore>
0.7233

> <Gold.PLP.Chemscore.Metal>
0.0000

> <Gold.Chemscore.Hbonds>
donor molecule, donor type, donor heavy atom, donor atom, acceptor molecule, acceptor atom, score
      L1  H    27    62       P1  7948  2.00
      L1  C    16    43       P1  7957  0.32

> <Gold.PLP.Chemscore.Internal.Correction>
0.5301

> <Gold.Rescore>
     Score         DG    S(hbond)    S(metal)    S(lipo)     H(rot)  DE(clash)    DE(int)     intcor
     12.63     -15.84       1.94        0.00     100.60       3.08       1.45       1.76       ----

> <Gold.Chemscore.Fitness>
12.6313

> <Gold.Chemscore.DG>
-15.8414

> <Gold.Chemscore.ZeroCoef>
-5.4800

> <Gold.Chemscore.Hbond>
1.9357

> <Gold.Chemscore.Metal>
0.0000

> <Gold.Chemscore.Lipo>
100.6011

> <Gold.Chemscore.Internal_Hbond>
0.0000

> <Gold.Chemscore.DEClash>
1.4454

> <Gold.Chemscore.DEInternal>
1.7647

> <Gold.Chemscore.Rot>
3.0758

> <Gold.Chemscore.Internal.Correction>
   9.000000E+99

> <Gold.Chemscore.Hbonds>
donor molecule, donor type, donor heavy atom, donor atom, acceptor molecule, acceptor atom, score
      L1  H    27    62       P1  7948  1.00

> <Gold.Chemscore.Hbond.Weighted>
-6.4652

> <Gold.Chemscore.Metal.Weighted>
-0.0000

> <Gold.Chemscore.Lipo.Weighted>
-11.7703

> <Gold.Chemscore.Internal_Hbond.Weighted>
0.0000

> <Gold.Chemscore.DEClash.Weighted>
1.4454

> <Gold.Chemscore.DEInternal.Weighted>
1.7647

> <Gold.Chemscore.Rot.Weighted>
7.8741

> <Gold.Chemscore.Internal.Correction.Weighted>
   9.000000E+99

> <Gold.Protein.RotatedTorsions>
[ 6907 6896 6895 6894 ] final  -84.59 input  -60.11 | X-H torsion
[ 7974 7965 7964 7962 ] final   43.65 input  175.53 | X-H torsion
[ 8008 7997 7996 7995 ] final  -59.73 input   59.86 | X-H torsion
[ 10167 10162 10161 10158 ] final  -67.61 input  -65.29 | X-H torsion
[ 10718 10713 10712 10709 ] final  156.44 input   66.30 | X-H torsion
[ 10763 10752 10751 10750 ] final   24.70 input  -60.55 | X-H torsion
[ 11005 11000 10999 10996 ] final   13.76 input  -57.11 | X-H torsion

> <Gold.Protein.ActiveResidues>
 VAL166  LYS551  ARG553  GLY616  TRP617  ASP618  TYR619  PRO620  LYS621  CYS622 
 ASP623  PHE694  ASN695  SER759  ASP760  ASP761  ALA762  ILE779  LEU786  VAL792 
 PHE793  MET794  SER795  GLU796  ALA797  LYS798  CYS799  TRP800  GLU811  SER814 

> <Gold.Protein.RotatedAtoms>
  150.6875  134.3335  159.4836 H   0  0  0  0  0  0  0  0  0  0  0  0  # atno 6907 bound_to 6896
  152.1196  134.9212  160.0573 H   0  0  0  0  0  0  0  0  0  0  0  0  # atno 6908 bound_to 6896
  152.0423  133.3948  159.4379 H   0  0  0  0  0  0  0  0  0  0  0  0  # atno 6909 bound_to 6896
  146.0637  139.5163  142.9642 H   0  0  0  0  0  0  0  0  0  0  0  0  # atno 7974 bound_to 7965
  154.4366  140.1055  156.6162 H   0  0  0  0  0  0  0  0  0  0  0  0  # atno 8008 bound_to 7997
  155.5756  140.3490  155.4508 H   0  0  0  0  0  0  0  0  0  0  0  0  # atno 8009 bound_to 7997
  156.0357  140.1270  157.0200 H   0  0  0  0  0  0  0  0  0  0  0  0  # atno 8010 bound_to 7997
  140.5570  143.2312  151.6802 H   0  0  0  0  0  0  0  0  0  0  0  0  # atno 10167 bound_to 10162
  157.2049  131.0684  151.2004 H   0  0  0  0  0  0  0  0  0  0  0  0  # atno 10718 bound_to 10713
  153.0744  135.6599  154.0177 H   0  0  0  0  0  0  0  0  0  0  0  0  # atno 10763 bound_to 10752
  153.9814  135.2955  155.3421 H   0  0  0  0  0  0  0  0  0  0  0  0  # atno 10764 bound_to 10752
  154.7128  135.5198  153.8763 H   0  0  0  0  0  0  0  0  0  0  0  0  # atno 10765 bound_to 10752
  140.4771  134.0973  155.7743 H   0  0  0  0  0  0  0  0  0  0  0  0  # atno 11005 bound_to 11000
  145.6515  141.0262  143.1758 LP  0  0  0  0  0  0  0  0  0  0  0  0  # atno 17320 bound_to 7965
  144.7190  139.8097  143.7389 LP  0  0  0  0  0  0  0  0  0  0  0  0  # atno 17321 bound_to 7965
  139.5052  144.3725  152.0456 LP  0  0  0  0  0  0  0  0  0  0  0  0  # atno 17342 bound_to 10162
  140.2848  144.3820  150.6107 LP  0  0  0  0  0  0  0  0  0  0  0  0  # atno 17343 bound_to 10162
  157.3730  130.7191  149.6578 LP  0  0  0  0  0  0  0  0  0  0  0  0  # atno 17370 bound_to 10713
  155.9696  130.4193  150.4370 LP  0  0  0  0  0  0  0  0  0  0  0  0  # atno 17371 bound_to 10713
  141.1549  133.8901  157.2003 LP  0  0  0  0  0  0  0  0  0  0  0  0  # atno 17394 bound_to 11000
  139.9849  135.0085  156.9839 LP  0  0  0  0  0  0  0  0  0  0  0  0  # atno 17395 bound_to 11000

$$$$
