AV-unprocessed.smi:2544|AV-procd|sdf|9994|dock6
  -GOLD-   2272014 43D 1   1.00000     0.00000
 Structure written by MMmdl.
 40 41  0  0  0  0  0  0  0  0  1 V2000
  147.0441  142.6191  154.1710 C   0  0  0  0  0  0  0  0  0  0  0  0
  147.2992  141.2590  153.5117 C   0  0  0  0  0  0  0  0  0  0  0  0
  148.4305  140.5699  154.1158 N   0  0  0  0  0  0  0  0  0  0  0  0
  149.3774  141.2587  154.8666 C   0  0  0  0  0  0  0  0  0  0  0  0
  150.4706  140.6887  155.4089 C   0  0  0  0  0  0  0  0  0  0  0  0
  150.7100  139.2452  155.2066 C   0  0  0  0  0  0  0  0  0  0  0  0
  151.6947  138.6907  155.6945 O   0  0  0  0  0  0  0  0  0  0  0  0
  149.7061  138.5110  154.3911 C   0  0  0  0  0  0  0  0  0  0  0  0
  149.9412  137.1382  154.2055 N   0  0  0  0  0  0  0  0  0  0  0  0
  149.5183  136.0923  154.9393 C   0  0  0  0  0  0  0  0  0  0  0  0
  148.7928  136.1529  155.9315 O   0  0  0  0  0  0  0  0  0  0  0  0
  149.9890  134.9385  154.4436 N   0  0  0  0  0  0  0  0  0  0  0  0
  149.7392  133.6141  155.0062 C   0  0  0  0  0  0  0  0  0  0  0  0
  150.9539  133.1686  155.8421 C   0  0  0  0  0  0  0  0  0  0  0  0
  150.7525  131.7564  156.4153 C   0  0  0  0  0  0  0  0  0  0  0  0
  150.4504  130.7403  155.3027 C   0  0  0  0  0  0  0  0  0  0  0  0
  149.2404  131.1796  154.4630 C   0  0  0  0  0  0  0  0  0  0  0  0
  149.4398  132.5922  153.8898 C   0  0  0  0  0  0  0  0  0  0  0  0
  148.6462  139.2089  153.9076 C   0  0  0  0  0  0  0  0  0  0  0  0
  146.1895  143.1171  153.7134 H   0  0  0  0  0  0  0  0  0  0  0  0
  147.9080  143.2760  154.0659 H   0  0  0  0  0  0  0  0  0  0  0  0
  146.8346  142.5075  155.2352 H   0  0  0  0  0  0  0  0  0  0  0  0
  146.4076  140.6361  153.5928 H   0  0  0  0  0  0  0  0  0  0  0  0
  147.4824  141.3927  152.4450 H   0  0  0  0  0  0  0  0  0  0  0  0
  149.1655  142.3107  154.9934 H   0  0  0  0  0  0  0  0  0  0  0  0
  151.1775  141.2637  155.9891 H   0  0  0  0  0  0  0  0  0  0  0  0
  150.5021  136.9182  153.3952 H   0  0  0  0  0  0  0  0  0  0  0  0
  150.5744  134.9784  153.6220 H   0  0  0  0  0  0  0  0  0  0  0  0
  148.8757  133.6690  155.6723 H   0  0  0  0  0  0  0  0  0  0  0  0
  151.8538  133.1835  155.2255 H   0  0  0  0  0  0  0  0  0  0  0  0
  151.1256  133.8728  156.6570 H   0  0  0  0  0  0  0  0  0  0  0  0
  151.6406  131.4492  156.9682 H   0  0  0  0  0  0  0  0  0  0  0  0
  149.9310  131.7678  157.1327 H   0  0  0  0  0  0  0  0  0  0  0  0
  151.3234  130.6330  154.6578 H   0  0  0  0  0  0  0  0  0  0  0  0
  150.2640  129.7577  155.7376 H   0  0  0  0  0  0  0  0  0  0  0  0
  149.0726  130.4693  153.6529 H   0  0  0  0  0  0  0  0  0  0  0  0
  148.3416  131.1611  155.0808 H   0  0  0  0  0  0  0  0  0  0  0  0
  148.5488  132.8885  153.3351 H   0  0  0  0  0  0  0  0  0  0  0  0
  150.2604  132.5784  153.1708 H   0  0  0  0  0  0  0  0  0  0  0  0
  147.8607  138.7560  153.3241 H   0  0  0  0  0  0  0  0  0  0  0  0
  1  2  1  0  0  0  0
  1 20  1  0  0  0  0
  1 21  1  0  0  0  0
  1 22  1  0  0  0  0
  2  3  1  0  0  0  0
  2 23  1  0  0  0  0
  2 24  1  0  0  0  0
  3 19  1  0  0  0  0
  3  4  1  0  0  0  0
  4  5  2  0  0  0  0
  4 25  1  0  0  0  0
  5  6  1  0  0  0  0
  5 26  1  0  0  0  0
  6  7  2  0  0  0  0
  6  8  1  0  0  0  0
  8  9  1  0  0  0  0
  8 19  2  0  0  0  0
  9 10  1  0  0  0  0
  9 27  1  0  0  0  0
 10 11  2  0  0  0  0
 10 12  1  0  0  0  0
 12 13  1  0  0  0  0
 12 28  1  0  0  0  0
 13 18  1  0  0  0  0
 13 14  1  0  0  0  0
 13 29  1  0  0  0  0
 14 15  1  0  0  0  0
 14 30  1  0  0  0  0
 14 31  1  0  0  0  0
 15 16  1  0  0  0  0
 15 32  1  0  0  0  0
 15 33  1  0  0  0  0
 16 17  1  0  0  0  0
 16 34  1  0  0  0  0
 16 35  1  0  0  0  0
 17 18  1  0  0  0  0
 17 36  1  0  0  0  0
 17 37  1  0  0  0  0
 18 38  1  0  0  0  0
 18 39  1  0  0  0  0
 19 40  1  0  0  0  0
M  END
> <s_m_source_file>
AV-unprocessed.smi

> <i_m_source_file_index>
2544

> <i_lp_mmshare_version>
43012

> <i_f3d_flags>
0

> <s_epik_input>
W0NIM11bQ0gyXW4xW2NIXVtjSF1jKD1PKWMoW2NIXTEpW05IXUMoPU8pW05IXVtDSF0yW0NIMl1bQ0gyXVtDSDJdW0NIMl1bQ0gyXTI=

> <s_epik_cmdline>
J2VwaWtfcHl0aG9uJywgJy1waCcsICc3LjAnLCAnLXRuJywgJzgnLCAnLW1hJywgJzIwMCcsICctbWV0YWxfYmluZGluZycsICctaW1hZScsICc8aW5maWxlLm1hZT4nLCAnLW9tYWUnLCAnPG91dGZpbGUubWFlPic=

> <r_lp_tautomer_probability>
1

> <r_epik_Ionization_Penalty>
0.00144746

> <r_epik_Ionization_Penalty_Charging>
0.00142605

> <r_epik_Ionization_Penalty_Neutral>
2.14089e-05

> <r_epik_State_Penalty>
0.000952116

> <r_epik_Charging_Adjusted_Penalty>
0.00237816

> <i_epik_Tot_Q>
0

> <i_epik_Tot_abs_Q>
0

> <r_epik_Metal_State_Penalty>
-0

> <b_epik_Metal_Only>
0

> <s_lp_Force_Field>
OPLS_2005

> <r_lp_Energy>
3.66557

> <b_lp_Chiralities_Consistent>
1

> <s_lp_Variant>
AV-unprocessed.smi:2544-1

> <Gold.Version>
5.8.1

> <Gold.Id.Protein>
6NUR|6NUR_protein|mol2

> <Gold.PLP.Fitness>
36.4266

> <Gold.PLP.PLP>
-35.1590

> <Gold.PLP.part.hbond>
-2.3580

> <Gold.PLP.part.metal>
0.0000

> <Gold.PLP.part.buried>
-0.2860

> <Gold.PLP.part.nonpolar>
-31.7441

> <Gold.PLP.part.repulsive>
0.1428

> <Gold.PLP.ligand.clash>
0.0000

> <Gold.PLP.ligand.torsion>
1.2407

> <Gold.PLP.Chemscore.Hbond>
0.2462

> <Gold.PLP.Chemscore.CHOScore>
1.0000

> <Gold.PLP.Chemscore.Metal>
0.0000

> <Gold.Chemscore.Hbonds>
donor molecule, donor type, donor heavy atom, donor atom, acceptor molecule, acceptor atom, score
      L1  H     9    27       P1  7949  0.21
      L1  H    12    28       P1  7949  0.01
      L1  C     4    25       P1  8028  1.00

> <Gold.PLP.Chemscore.Internal.Correction>
0.0104

> <Gold.Rescore>
     Score         DG    S(hbond)    S(metal)    S(lipo)     H(rot)  DE(clash)    DE(int)     intcor
     11.80     -12.72       0.74        0.00      66.15       1.17       0.08       0.84       ----

> <Gold.Chemscore.Fitness>
11.7997

> <Gold.Chemscore.DG>
-12.7206

> <Gold.Chemscore.ZeroCoef>
-5.4800

> <Gold.Chemscore.Hbond>
0.7444

> <Gold.Chemscore.Metal>
0.0000

> <Gold.Chemscore.Lipo>
66.1467

> <Gold.Chemscore.Internal_Hbond>
0.0000

> <Gold.Chemscore.DEClash>
0.0811

> <Gold.Chemscore.DEInternal>
0.8399

> <Gold.Chemscore.Rot>
1.1660

> <Gold.Chemscore.Internal.Correction>
   9.000000E+99

> <Gold.Chemscore.Hbonds>
donor molecule, donor type, donor heavy atom, donor atom, acceptor molecule, acceptor atom, score
      L1  H     9    27       P1  7949  0.01

> <Gold.Chemscore.Hbond.Weighted>
-2.4865

> <Gold.Chemscore.Metal.Weighted>
-0.0000

> <Gold.Chemscore.Lipo.Weighted>
-7.7392

> <Gold.Chemscore.Internal_Hbond.Weighted>
0.0000

> <Gold.Chemscore.DEClash.Weighted>
0.0811

> <Gold.Chemscore.DEInternal.Weighted>
0.8399

> <Gold.Chemscore.Rot.Weighted>
2.9850

> <Gold.Chemscore.Internal.Correction.Weighted>
   9.000000E+99

> <Gold.Protein.RotatedTorsions>
[ 6907 6896 6895 6894 ] final  132.16 input  -60.11 | X-H torsion
[ 7974 7965 7964 7962 ] final  -16.68 input  175.53 | X-H torsion
[ 8008 7997 7996 7995 ] final   75.07 input   59.86 | X-H torsion
[ 10167 10162 10161 10158 ] final  -63.22 input  -65.29 | X-H torsion
[ 10718 10713 10712 10709 ] final  168.72 input   66.30 | X-H torsion
[ 10763 10752 10751 10750 ] final  139.72 input  -60.55 | X-H torsion
[ 11005 11000 10999 10996 ] final -118.33 input  -57.11 | X-H torsion

> <Gold.Protein.ActiveResidues>
 VAL166  LYS551  ARG553  GLY616  TRP617  ASP618  TYR619  PRO620  LYS621  CYS622 
 ASP623  PHE694  ASN695  SER759  ASP760  ASP761  ALA762  ILE779  LEU786  VAL792 
 PHE793  MET794  SER795  GLU796  ALA797  LYS798  CYS799  TRP800  GLU811  SER814 

> <Gold.Protein.RotatedAtoms>
  152.3352  133.6003  159.5837 H   0  0  0  0  0  0  0  0  0  0  0  0  # atno 6907 bound_to 6896
  150.7446  133.9807  159.3584 H   0  0  0  0  0  0  0  0  0  0  0  0  # atno 6908 bound_to 6896
  151.7677  135.0795  160.0406 H   0  0  0  0  0  0  0  0  0  0  0  0  # atno 6909 bound_to 6896
  146.1976  140.3671  142.8435 H   0  0  0  0  0  0  0  0  0  0  0  0  # atno 7974 bound_to 7965
  155.8076  140.3474  155.5439 H   0  0  0  0  0  0  0  0  0  0  0  0  # atno 8008 bound_to 7997
  155.8474  140.0951  157.1716 H   0  0  0  0  0  0  0  0  0  0  0  0  # atno 8009 bound_to 7997
  154.4006  140.1383  156.3790 H   0  0  0  0  0  0  0  0  0  0  0  0  # atno 8010 bound_to 7997
  140.5886  143.2338  151.6189 H   0  0  0  0  0  0  0  0  0  0  0  0  # atno 10167 bound_to 10162
  157.0331  131.0265  151.2738 H   0  0  0  0  0  0  0  0  0  0  0  0  # atno 10718 bound_to 10713
  153.9108  135.3011  155.3448 H   0  0  0  0  0  0  0  0  0  0  0  0  # atno 10763 bound_to 10752
  154.7624  135.4927  153.9493 H   0  0  0  0  0  0  0  0  0  0  0  0  # atno 10764 bound_to 10752
  153.1194  135.6778  153.9463 H   0  0  0  0  0  0  0  0  0  0  0  0  # atno 10765 bound_to 10752
  141.0293  134.0005  157.3167 H   0  0  0  0  0  0  0  0  0  0  0  0  # atno 11005 bound_to 11000
  144.8614  140.7145  143.6105 LP  0  0  0  0  0  0  0  0  0  0  0  0  # atno 17320 bound_to 7965
  145.3591  139.1686  143.4393 LP  0  0  0  0  0  0  0  0  0  0  0  0  # atno 17321 bound_to 7965
  139.5213  144.3197  152.0921 LP  0  0  0  0  0  0  0  0  0  0  0  0  # atno 17342 bound_to 10162
  140.2358  144.4321  150.6281 LP  0  0  0  0  0  0  0  0  0  0  0  0  # atno 17343 bound_to 10162
  157.5162  130.7969  149.7759 LP  0  0  0  0  0  0  0  0  0  0  0  0  # atno 17370 bound_to 10713
  156.0063  130.3854  150.2420 LP  0  0  0  0  0  0  0  0  0  0  0  0  # atno 17371 bound_to 10713
  139.9197  135.0199  156.8017 LP  0  0  0  0  0  0  0  0  0  0  0  0  # atno 17394 bound_to 11000
  140.6435  133.9797  155.7719 LP  0  0  0  0  0  0  0  0  0  0  0  0  # atno 17395 bound_to 11000

$$$$
