AV-unprocessed.smi:1671|AV-procd|sdf|6700|dock9
  -GOLD-   22720 7433D 1   1.00000     0.00000
 Structure written by MMmdl.
 44 45  0  0  0  0  0  0  0  0  1 V2000
  151.1747  132.0609  155.6563 C   0  0  0  0  0  0  0  0  0  0  0  0
  150.1216  133.2405  156.5445 S   0  0  0  0  0  0  0  0  0  0  0  0
  149.7331  134.4240  155.2204 C   0  0  1  0  0  0  0  0  0  0  0  0
  148.3068  134.9684  155.3965 C   0  0  0  0  0  0  0  0  0  0  0  0
  150.7557  135.5648  155.1533 C   0  0  0  0  0  0  0  0  0  0  0  0
  151.6668  135.6346  155.9790 O   0  0  0  0  0  0  0  0  0  0  0  0
  150.5972  136.4525  154.1589 N   0  0  0  0  0  0  0  0  0  0  0  0
  151.4619  137.6037  153.9214 C   0  0  0  0  0  0  0  0  0  0  0  0
  151.4620  138.6336  155.0424 C   0  0  0  0  0  0  0  0  0  0  0  0
  150.2787  139.2591  155.4883 C   0  0  0  0  0  0  0  0  0  0  0  0
  150.3556  140.2062  156.5269 C   0  0  0  0  0  0  0  0  0  0  0  0
  151.6159  140.5083  157.0957 C   0  0  0  0  0  0  0  0  0  0  0  0
  151.7170  141.4517  158.1415 N   0  0  0  0  0  0  0  0  0  0  0  0
  151.6327  142.8696  157.7967 C   0  0  0  0  0  0  0  0  0  0  0  0
  151.4644  143.7200  159.0661 C   0  0  0  0  0  0  0  0  0  0  0  0
  152.5201  143.4342  159.9776 O   0  0  0  0  0  0  0  0  0  0  0  0
  152.5177  142.0705  160.3909 C   0  0  2  0  0  0  0  0  0  0  0  0
  153.6238  141.8824  161.4343 C   0  0  0  0  0  0  0  0  0  0  0  0
  152.7228  141.1645  159.1611 C   0  0  0  0  0  0  0  0  0  0  0  0
  152.7523  139.9154  156.6532 N   0  0  0  0  0  0  0  0  0  0  0  0
  152.6728  139.0073  155.6583 C   0  0  0  0  0  0  0  0  0  0  0  0
  151.4442  131.2340  156.3130 H   0  0  0  0  0  0  0  0  0  0  0  0
  152.0925  132.5408  155.3169 H   0  0  0  0  0  0  0  0  0  0  0  0
  150.6501  131.6568  154.7906 H   0  0  0  0  0  0  0  0  0  0  0  0
  149.7601  133.8747  154.2779 H   0  0  0  0  0  0  0  0  0  0  0  0
  148.0564  135.6878  154.6159 H   0  0  0  0  0  0  0  0  0  0  0  0
  148.1822  135.4641  156.3601 H   0  0  0  0  0  0  0  0  0  0  0  0
  147.5745  134.1623  155.3447 H   0  0  0  0  0  0  0  0  0  0  0  0
  149.8251  136.3207  153.5217 H   0  0  0  0  0  0  0  0  0  0  0  0
  152.4814  137.2626  153.7329 H   0  0  0  0  0  0  0  0  0  0  0  0
  151.1282  138.0953  153.0073 H   0  0  0  0  0  0  0  0  0  0  0  0
  149.3225  139.0253  155.0440 H   0  0  0  0  0  0  0  0  0  0  0  0
  149.4542  140.6973  156.8616 H   0  0  0  0  0  0  0  0  0  0  0  0
  152.5384  143.1669  157.2662 H   0  0  0  0  0  0  0  0  0  0  0  0
  150.7888  143.0479  157.1291 H   0  0  0  0  0  0  0  0  0  0  0  0
  151.4906  144.7800  158.8137 H   0  0  0  0  0  0  0  0  0  0  0  0
  150.4991  143.5290  159.5378 H   0  0  0  0  0  0  0  0  0  0  0  0
  151.5584  141.8408  160.8585 H   0  0  0  0  0  0  0  0  0  0  0  0
  153.6554  140.8525  161.7909 H   0  0  0  0  0  0  0  0  0  0  0  0
  153.4588  142.5278  162.2974 H   0  0  0  0  0  0  0  0  0  0  0  0
  154.6029  142.1241  161.0196 H   0  0  0  0  0  0  0  0  0  0  0  0
  152.6876  140.1236  159.4789 H   0  0  0  0  0  0  0  0  0  0  0  0
  153.7121  141.3305  158.7322 H   0  0  0  0  0  0  0  0  0  0  0  0
  153.6072  138.5646  155.3462 H   0  0  0  0  0  0  0  0  0  0  0  0
  1  2  1  0  0  0  0
  1 22  1  0  0  0  0
  1 23  1  0  0  0  0
  1 24  1  0  0  0  0
  2  3  1  0  0  0  0
  3  4  1  0  0  0  0
  3  5  1  0  0  0  0
  3 25  1  0  0  0  0
  4 26  1  0  0  0  0
  4 27  1  0  0  0  0
  4 28  1  0  0  0  0
  5  6  2  0  0  0  0
  5  7  1  0  0  0  0
  7  8  1  0  0  0  0
  7 29  1  0  0  0  0
  8  9  1  0  0  0  0
  8 30  1  0  0  0  0
  8 31  1  0  0  0  0
  9 21  1  0  0  0  0
  9 10  2  0  0  0  0
 10 11  1  0  0  0  0
 10 32  1  0  0  0  0
 11 12  2  0  0  0  0
 11 33  1  0  0  0  0
 12 13  1  0  0  0  0
 12 20  1  0  0  0  0
 13 19  1  0  0  0  0
 13 14  1  0  0  0  0
 14 15  1  0  0  0  0
 14 34  1  0  0  0  0
 14 35  1  0  0  0  0
 15 16  1  0  0  0  0
 15 36  1  0  0  0  0
 15 37  1  0  0  0  0
 16 17  1  0  0  0  0
 17 18  1  0  0  0  0
 17 19  1  0  0  0  0
 17 38  1  0  0  0  0
 18 39  1  0  0  0  0
 18 40  1  0  0  0  0
 18 41  1  0  0  0  0
 19 42  1  0  0  0  0
 19 43  1  0  0  0  0
 20 21  2  0  0  0  0
 21 44  1  0  0  0  0
M  END
> <s_m_source_file>
AV-unprocessed.smi

> <i_m_source_file_index>
1671

> <i_lp_mmshare_version>
43012

> <i_f3d_flags>
0

> <s_epik_input>
W0NIM11TW0NASF0oW0NIM10pQyg9TylbTkhdW0NIMl1jMVtjSF1bY0hdYyhuW2NIXTEpTjJbQ0gyXVtDSDJdT1tDQEBIXShbQ0gzXSlbQ0gyXTI=

> <s_epik_cmdline>
J2VwaWtfcHl0aG9uJywgJy1waCcsICc3LjAnLCAnLXRuJywgJzgnLCAnLW1hJywgJzIwMCcsICctbWV0YWxfYmluZGluZycsICctaW1hZScsICc8aW5maWxlLm1hZT4nLCAnLW9tYWUnLCAnPG91dGZpbGUubWFlPic=

> <r_lp_tautomer_probability>
1

> <r_epik_Ionization_Penalty>
0.00480033

> <r_epik_Ionization_Penalty_Charging>
0

> <r_epik_Ionization_Penalty_Neutral>
0.00480033

> <r_epik_State_Penalty>
0.00347981

> <r_epik_Charging_Adjusted_Penalty>
0.00347981

> <i_epik_Tot_Q>
0

> <i_epik_Tot_abs_Q>
0

> <r_epik_Metal_State_Penalty>
-0

> <b_epik_Metal_Only>
0

> <s_lp_Force_Field>
OPLS_2005

> <r_lp_Energy>
15.0592

> <b_lp_Chiralities_Consistent>
1

> <s_lp_Variant>
AV-unprocessed.smi:1671-4

> <Gold.Version>
5.8.1

> <Gold.Id.Protein>
6NUR|6NUR_protein|mol2

> <Gold.PLP.Fitness>
43.5912

> <Gold.PLP.PLP>
-36.3150

> <Gold.PLP.part.hbond>
-4.0000

> <Gold.PLP.part.metal>
0.0000

> <Gold.PLP.part.buried>
-0.6138

> <Gold.PLP.part.nonpolar>
-31.5328

> <Gold.PLP.part.repulsive>
0.0967

> <Gold.PLP.ligand.clash>
0.0000

> <Gold.PLP.ligand.torsion>
1.0163

> <Gold.PLP.Chemscore.Hbond>
2.9760

> <Gold.PLP.Chemscore.CHOScore>
0.0000

> <Gold.PLP.Chemscore.Metal>
0.0000

> <Gold.Chemscore.Hbonds>
donor molecule, donor type, donor heavy atom, donor atom, acceptor molecule, acceptor atom, score
      L1  H     7    29       P1  7948  0.95
      P1  H  7997  8009       L1    20  0.95
      P1  H 10752 10763       L1     6  1.00

> <Gold.PLP.Chemscore.Internal.Correction>
0.3807

> <Gold.Rescore>
     Score         DG    S(hbond)    S(metal)    S(lipo)     H(rot)  DE(clash)    DE(int)     intcor
     19.41     -20.75       2.36        0.00      98.82       1.63       0.23       1.11       ----

> <Gold.Chemscore.Fitness>
19.4140

> <Gold.Chemscore.DG>
-20.7474

> <Gold.Chemscore.ZeroCoef>
-5.4800

> <Gold.Chemscore.Hbond>
2.3567

> <Gold.Chemscore.Metal>
0.0000

> <Gold.Chemscore.Lipo>
98.8197

> <Gold.Chemscore.Internal_Hbond>
0.0000

> <Gold.Chemscore.DEClash>
0.2251

> <Gold.Chemscore.DEInternal>
1.1083

> <Gold.Chemscore.Rot>
1.6272

> <Gold.Chemscore.Internal.Correction>
   9.000000E+99

> <Gold.Chemscore.Hbonds>
donor molecule, donor type, donor heavy atom, donor atom, acceptor molecule, acceptor atom, score
      L1  H     7    29       P1  7948  0.21
      P1  H  7997  8009       L1    20  0.20
      P1  H 10752 10763       L1     6  0.55

> <Gold.Chemscore.Hbond.Weighted>
-7.8713

> <Gold.Chemscore.Metal.Weighted>
-0.0000

> <Gold.Chemscore.Lipo.Weighted>
-11.5619

> <Gold.Chemscore.Internal_Hbond.Weighted>
0.0000

> <Gold.Chemscore.DEClash.Weighted>
0.2251

> <Gold.Chemscore.DEInternal.Weighted>
1.1083

> <Gold.Chemscore.Rot.Weighted>
4.1657

> <Gold.Chemscore.Internal.Correction.Weighted>
   9.000000E+99

> <Gold.Protein.RotatedTorsions>
[ 6907 6896 6895 6894 ] final  118.06 input  -60.11 | X-H torsion
[ 7974 7965 7964 7962 ] final   17.79 input  175.53 | X-H torsion
[ 8008 7997 7996 7995 ] final  173.13 input   59.86 | X-H torsion
[ 10167 10162 10161 10158 ] final   29.71 input  -65.29 | X-H torsion
[ 10718 10713 10712 10709 ] final   55.80 input   66.30 | X-H torsion
[ 10763 10752 10751 10750 ] final   91.23 input  -60.55 | X-H torsion
[ 11005 11000 10999 10996 ] final  120.10 input  -57.11 | X-H torsion

> <Gold.Protein.ActiveResidues>
 VAL166  LYS551  ARG553  GLY616  TRP617  ASP618  TYR619  PRO620  LYS621  CYS622 
 ASP623  PHE694  ASN695  SER759  ASP760  ASP761  ALA762  ILE779  LEU786  VAL792 
 PHE793  MET794  SER795  GLU796  ALA797  LYS798  CYS799  TRP800  GLU811  SER814 

> <Gold.Protein.RotatedAtoms>
  152.4569  133.7742  159.6815 H   0  0  0  0  0  0  0  0  0  0  0  0  # atno 6907 bound_to 6896
  150.8499  133.7793  159.3035 H   0  0  0  0  0  0  0  0  0  0  0  0  # atno 6908 bound_to 6896
  151.5392  135.1071  159.9974 H   0  0  0  0  0  0  0  0  0  0  0  0  # atno 6909 bound_to 6896
  146.2207  139.8551  142.8615 H   0  0  0  0  0  0  0  0  0  0  0  0  # atno 7974 bound_to 7965
  156.1106  140.1468  156.9344 H   0  0  0  0  0  0  0  0  0  0  0  0  # atno 8008 bound_to 7997
  154.4764  140.0893  156.7316 H   0  0  0  0  0  0  0  0  0  0  0  0  # atno 8009 bound_to 7997
  155.4603  140.3438  155.4314 H   0  0  0  0  0  0  0  0  0  0  0  0  # atno 8010 bound_to 7997
  140.4742  144.0716  150.6246 H   0  0  0  0  0  0  0  0  0  0  0  0  # atno 10167 bound_to 10162
  157.5376  130.8674  149.8776 H   0  0  0  0  0  0  0  0  0  0  0  0  # atno 10718 bound_to 10713
  153.2060  135.4405  155.0323 H   0  0  0  0  0  0  0  0  0  0  0  0  # atno 10763 bound_to 10752
  154.8174  135.3321  154.7140 H   0  0  0  0  0  0  0  0  0  0  0  0  # atno 10764 bound_to 10752
  153.7581  135.6993  153.4987 H   0  0  0  0  0  0  0  0  0  0  0  0  # atno 10765 bound_to 10752
  139.9172  134.9632  156.7755 H   0  0  0  0  0  0  0  0  0  0  0  0  # atno 11005 bound_to 11000
  145.2762  141.0124  143.3743 LP  0  0  0  0  0  0  0  0  0  0  0  0  # atno 17320 bound_to 7965
  144.9185  139.4440  143.6552 LP  0  0  0  0  0  0  0  0  0  0  0  0  # atno 17321 bound_to 7965
  140.3939  143.2738  152.0027 LP  0  0  0  0  0  0  0  0  0  0  0  0  # atno 17342 bound_to 10162
  139.4823  144.6054  151.7530 LP  0  0  0  0  0  0  0  0  0  0  0  0  # atno 17343 bound_to 10162
  156.0471  130.3725  150.1291 LP  0  0  0  0  0  0  0  0  0  0  0  0  # atno 17370 bound_to 10713
  156.9472  130.9763  151.3505 LP  0  0  0  0  0  0  0  0  0  0  0  0  # atno 17371 bound_to 10713
  140.6586  133.9666  155.7793 LP  0  0  0  0  0  0  0  0  0  0  0  0  # atno 17394 bound_to 11000
  141.0659  134.0278  157.3595 LP  0  0  0  0  0  0  0  0  0  0  0  0  # atno 17395 bound_to 11000

$$$$
