AV-unprocessed.smi:1100|AV-procd|sdf|4761|dock10
  -GOLD-   22720 3303D 1   1.00000     0.00000
 Structure written by MMmdl.
 44 45  0  0  0  0  0  0  0  0  2 V2000
  146.3562  139.9784  154.7669 C   0  0  0  0  0  0  0  0  0  0  0  0
  147.5343  139.1194  154.2466 C   0  0  2  0  0  0  0  0  0  0  0  0
  148.6425  140.0325  153.6577 C   0  0  0  0  0  0  0  0  0  0  0  0
  149.0764  141.0766  154.5815 N   0  0  0  0  0  0  0  0  0  0  0  0
  149.8668  140.8783  155.6460 C   0  0  0  0  0  0  0  0  0  0  0  0
  150.3140  139.7734  155.9512 O   0  0  0  0  0  0  0  0  0  0  0  0
  150.0746  142.0289  156.3115 N   0  0  0  0  0  0  0  0  0  0  0  0
  150.8520  142.2610  157.4549 C   0  0  0  0  0  0  0  0  0  0  0  0
  151.3844  141.2320  158.3370 C   0  0  0  0  0  0  0  0  0  0  0  0
  152.1195  141.5616  159.4175 C   0  0  0  0  0  0  0  0  0  0  0  0
  152.4164  142.9566  159.7517 C   0  0  0  0  0  0  0  0  0  0  0  0
  153.0755  143.2694  160.7435 O   0  0  0  0  0  0  0  0  0  0  0  0
  151.9159  143.8878  158.8893 N   0  0  0  0  0  0  0  0  0  0  0  0
  152.1616  145.3118  159.1295 C   0  0  0  0  0  0  0  0  0  0  0  0
  151.1461  143.5369  157.7646 C   0  0  0  0  0  0  0  0  0  0  0  0
  147.1257  138.0886  153.2373 N   0  3  0  0  0  0  0  0  0  0  0  0
  146.2329  137.0477  153.8164 C   0  0  0  0  0  0  0  0  0  0  0  0
  145.9127  135.9556  152.7834 C   0  0  0  0  0  0  0  0  0  0  0  0
  145.3086  136.5460  151.6421 O   0  0  0  0  0  0  0  0  0  0  0  0
  146.1813  137.4711  151.0108 C   0  0  0  0  0  0  0  0  0  0  0  0
  146.5234  138.6148  151.9811 C   0  0  0  0  0  0  0  0  0  0  0  0
  146.6901  140.7305  155.4816 H   0  0  0  0  0  0  0  0  0  0  0  0
  145.6158  139.3792  155.2969 H   0  0  0  0  0  0  0  0  0  0  0  0
  145.8542  140.5029  153.9532 H   0  0  0  0  0  0  0  0  0  0  0  0
  147.9366  138.5876  155.1105 H   0  0  0  0  0  0  0  0  0  0  0  0
  149.5214  139.4651  153.3535 H   0  0  0  0  0  0  0  0  0  0  0  0
  148.2737  140.5197  152.7545 H   0  0  0  0  0  0  0  0  0  0  0  0
  148.7495  142.0142  154.3981 H   0  0  0  0  0  0  0  0  0  0  0  0
  149.6069  142.8464  155.9484 H   0  0  0  0  0  0  0  0  0  0  0  0
  151.2209  140.1836  158.1493 H   0  0  0  0  0  0  0  0  0  0  0  0
  152.5062  140.7773  160.0517 H   0  0  0  0  0  0  0  0  0  0  0  0
  151.8099  145.9430  158.3127 H   0  0  0  0  0  0  0  0  0  0  0  0
  153.2282  145.5076  159.2489 H   0  0  0  0  0  0  0  0  0  0  0  0
  151.6528  145.6359  160.0382 H   0  0  0  0  0  0  0  0  0  0  0  0
  150.8027  144.3737  157.1734 H   0  0  0  0  0  0  0  0  0  0  0  0
  146.6876  136.5777  154.6865 H   0  0  0  0  0  0  0  0  0  0  0  0
  145.3065  137.5114  154.1592 H   0  0  0  0  0  0  0  0  0  0  0  0
  146.8137  135.4106  152.4975 H   0  0  0  0  0  0  0  0  0  0  0  0
  145.2223  135.2274  153.2093 H   0  0  0  0  0  0  0  0  0  0  0  0
  147.0864  136.9635  150.6723 H   0  0  0  0  0  0  0  0  0  0  0  0
  145.6901  137.8682  150.1221 H   0  0  0  0  0  0  0  0  0  0  0  0
  145.6254  139.1886  152.2163 H   0  0  0  0  0  0  0  0  0  0  0  0
  147.2146  139.2819  151.4669 H   0  0  0  0  0  0  0  0  0  0  0  0
  147.9756  137.6214  152.9554 H   0  0  0  0  0  0  0  0  0  0  0  0
  1  2  1  0  0  0  0
  1 22  1  0  0  0  0
  1 23  1  0  0  0  0
  1 24  1  0  0  0  0
  2  3  1  0  0  0  0
  2 16  1  0  0  0  0
  2 25  1  0  0  0  0
  3  4  1  0  0  0  0
  3 26  1  0  0  0  0
  3 27  1  0  0  0  0
  4  5  1  0  0  0  0
  4 28  1  0  0  0  0
  5  6  2  0  0  0  0
  5  7  1  0  0  0  0
  7  8  1  0  0  0  0
  7 29  1  0  0  0  0
  8 15  2  0  0  0  0
  8  9  1  0  0  0  0
  9 10  2  0  0  0  0
  9 30  1  0  0  0  0
 10 11  1  0  0  0  0
 10 31  1  0  0  0  0
 11 12  2  0  0  0  0
 11 13  1  0  0  0  0
 13 14  1  0  0  0  0
 13 15  1  0  0  0  0
 14 32  1  0  0  0  0
 14 33  1  0  0  0  0
 14 34  1  0  0  0  0
 15 35  1  0  0  0  0
 16 21  1  0  0  0  0
 16 17  1  0  0  0  0
 16 44  1  0  0  0  0
 17 18  1  0  0  0  0
 17 36  1  0  0  0  0
 17 37  1  0  0  0  0
 18 19  1  0  0  0  0
 18 38  1  0  0  0  0
 18 39  1  0  0  0  0
 19 20  1  0  0  0  0
 20 21  1  0  0  0  0
 20 40  1  0  0  0  0
 20 41  1  0  0  0  0
 21 42  1  0  0  0  0
 21 43  1  0  0  0  0
M  CHG  1  16   1
M  END
> <s_m_source_file>
AV-unprocessed.smi

> <i_m_source_file_index>
1100

> <i_lp_mmshare_version>
43012

> <i_f3d_flags>
0

> <s_epik_input>
W0NIMl0xW0NIMl1PW0NIMl1bQ0gyXU4xW0NASF0oW0NIM10pW0NIMl1bTkhdQyg9TylbTkhdYzJbY0hdW2NIXWMoPU8pbihbQ0gzXSlbY0hdMg==

> <s_epik_cmdline>
J2VwaWtfcHl0aG9uJywgJy1waCcsICc3LjAnLCAnLXRuJywgJzgnLCAnLW1hJywgJzIwMCcsICctbWV0YWxfYmluZGluZycsICctaW1hZScsICc8aW5maWxlLm1hZT4nLCAnLW9tYWUnLCAnPG91dGZpbGUubWFlPic=

> <r_lp_tautomer_probability>
1

> <r_epik_Ionization_Penalty>
0.602556

> <r_epik_Ionization_Penalty_Charging>
0.602536

> <r_epik_Ionization_Penalty_Neutral>
1.99507e-05

> <r_epik_State_Penalty>
0.617039

> <r_epik_Charging_Adjusted_Penalty>
1.21958

> <i_epik_Tot_Q>
1

> <i_epik_Tot_abs_Q>
1

> <r_epik_Metal_State_Penalty>
0.619464

> <b_epik_Metal_Only>
0

> <s_lp_Force_Field>
OPLS_2005

> <r_lp_Energy>
33.1854

> <b_lp_Chiralities_Consistent>
1

> <s_lp_Variant>
AV-unprocessed.smi:1100-3

> <Gold.Version>
5.8.1

> <Gold.Id.Protein>
6NUR|6NUR_protein|mol2

> <Gold.PLP.Fitness>
46.5527

> <Gold.PLP.PLP>
-34.8673

> <Gold.PLP.part.hbond>
-2.0000

> <Gold.PLP.part.metal>
0.0000

> <Gold.PLP.part.buried>
2.6809

> <Gold.PLP.part.nonpolar>
-37.0158

> <Gold.PLP.part.repulsive>
1.0222

> <Gold.PLP.ligand.clash>
0.0000

> <Gold.PLP.ligand.torsion>
0.1868

> <Gold.PLP.Chemscore.Hbond>
3.0000

> <Gold.PLP.Chemscore.CHOScore>
1.0000

> <Gold.PLP.Chemscore.Metal>
0.0000

> <Gold.Chemscore.Hbonds>
donor molecule, donor type, donor heavy atom, donor atom, acceptor molecule, acceptor atom, score
      L1  H     7    29       P1  8028  1.00
      L1  H    16    44       P1  7948  2.00
      L1  C    15    35       P1  8028  1.00

> <Gold.PLP.Chemscore.Internal.Correction>
0.0589

> <Gold.Rescore>
     Score         DG    S(hbond)    S(metal)    S(lipo)     H(rot)  DE(clash)    DE(int)     intcor
     13.80     -18.06       1.89        0.00      87.15       1.54       2.99       1.27       ----

> <Gold.Chemscore.Fitness>
13.7992

> <Gold.Chemscore.DG>
-18.0636

> <Gold.Chemscore.ZeroCoef>
-5.4800

> <Gold.Chemscore.Hbond>
1.8949

> <Gold.Chemscore.Metal>
0.0000

> <Gold.Chemscore.Lipo>
87.1495

> <Gold.Chemscore.Internal_Hbond>
0.0000

> <Gold.Chemscore.DEClash>
2.9906

> <Gold.Chemscore.DEInternal>
1.2738

> <Gold.Chemscore.Rot>
1.5398

> <Gold.Chemscore.Internal.Correction>
   9.000000E+99

> <Gold.Chemscore.Hbonds>
donor molecule, donor type, donor heavy atom, donor atom, acceptor molecule, acceptor atom, score
      L1  H     7    29       P1  8028  0.93
      L1  H    16    44       P1  7948  0.91

> <Gold.Chemscore.Hbond.Weighted>
-6.3291

> <Gold.Chemscore.Metal.Weighted>
-0.0000

> <Gold.Chemscore.Lipo.Weighted>
-10.1965

> <Gold.Chemscore.Internal_Hbond.Weighted>
0.0000

> <Gold.Chemscore.DEClash.Weighted>
2.9906

> <Gold.Chemscore.DEInternal.Weighted>
1.2738

> <Gold.Chemscore.Rot.Weighted>
3.9420

> <Gold.Chemscore.Internal.Correction.Weighted>
   9.000000E+99

> <Gold.Protein.RotatedTorsions>
[ 6907 6896 6895 6894 ] final  102.00 input  -60.11 | X-H torsion
[ 7974 7965 7964 7962 ] final   72.44 input  175.53 | X-H torsion
[ 8008 7997 7996 7995 ] final -135.13 input   59.86 | X-H torsion
[ 10167 10162 10161 10158 ] final -136.00 input  -65.29 | X-H torsion
[ 10718 10713 10712 10709 ] final -165.82 input   66.30 | X-H torsion
[ 10763 10752 10751 10750 ] final  -28.12 input  -60.55 | X-H torsion
[ 11005 11000 10999 10996 ] final  -30.89 input  -57.11 | X-H torsion

> <Gold.Protein.ActiveResidues>
 VAL166  LYS551  ARG553  GLY616  TRP617  ASP618  TYR619  PRO620  LYS621  CYS622 
 ASP623  PHE694  ASN695  SER759  ASP760  ASP761  ALA762  ILE779  LEU786  VAL792 
 PHE793  MET794  SER795  GLU796  ALA797  LYS798  CYS799  TRP800  GLU811  SER814 

> <Gold.Protein.RotatedAtoms>
  152.5335  134.0041  159.7908 H   0  0  0  0  0  0  0  0  0  0  0  0  # atno 6907 bound_to 6896
  151.0255  133.5830  159.2673 H   0  0  0  0  0  0  0  0  0  0  0  0  # atno 6908 bound_to 6896
  151.2853  135.0733  159.9238 H   0  0  0  0  0  0  0  0  0  0  0  0  # atno 6909 bound_to 6896
  145.7533  139.2769  143.1418 H   0  0  0  0  0  0  0  0  0  0  0  0  # atno 7974 bound_to 7965
  155.3736  140.0490  157.3045 H   0  0  0  0  0  0  0  0  0  0  0  0  # atno 8008 bound_to 7997
  154.5117  140.2194  155.9105 H   0  0  0  0  0  0  0  0  0  0  0  0  # atno 8009 bound_to 7997
  156.1591  140.3120  155.8781 H   0  0  0  0  0  0  0  0  0  0  0  0  # atno 8010 bound_to 7997
  139.8722  143.6943  152.2638 H   0  0  0  0  0  0  0  0  0  0  0  0  # atno 10167 bound_to 10162
  156.6590  130.9038  151.3026 H   0  0  0  0  0  0  0  0  0  0  0  0  # atno 10718 bound_to 10713
  153.7432  135.6931  153.4962 H   0  0  0  0  0  0  0  0  0  0  0  0  # atno 10763 bound_to 10752
  153.2054  135.4421  155.0316 H   0  0  0  0  0  0  0  0  0  0  0  0  # atno 10764 bound_to 10752
  154.8213  135.3423  154.6956 H   0  0  0  0  0  0  0  0  0  0  0  0  # atno 10765 bound_to 10752
  140.9421  133.7272  156.1092 H   0  0  0  0  0  0  0  0  0  0  0  0  # atno 11005 bound_to 11000
  146.0335  140.8235  142.9864 LP  0  0  0  0  0  0  0  0  0  0  0  0  # atno 17320 bound_to 7965
  144.6845  140.2804  143.7293 LP  0  0  0  0  0  0  0  0  0  0  0  0  # atno 17321 bound_to 7965
  139.7273  144.7590  151.0858 LP  0  0  0  0  0  0  0  0  0  0  0  0  # atno 17342 bound_to 10162
  140.7759  143.5132  150.9627 LP  0  0  0  0  0  0  0  0  0  0  0  0  # atno 17343 bound_to 10162
  157.7116  130.9447  150.1109 LP  0  0  0  0  0  0  0  0  0  0  0  0  # atno 17370 bound_to 10713
  156.2026  130.3661  149.8769 LP  0  0  0  0  0  0  0  0  0  0  0  0  # atno 17371 bound_to 10713
  140.7719  134.3823  157.5506 LP  0  0  0  0  0  0  0  0  0  0  0  0  # atno 17394 bound_to 11000
  139.8823  134.9027  156.2839 LP  0  0  0  0  0  0  0  0  0  0  0  0  # atno 17395 bound_to 11000

$$$$
