AV-unprocessed.smi:1677|AV-procd|sdf|6726|dock3
  -GOLD-   22720 7473D 1   1.00000     0.00000
 Structure written by MMmdl.
 36 37  0  0  0  0  0  0  0  0  1 V2000
  153.4103  137.8808  160.6845 C   0  0  0  0  0  0  0  0  0  0  0  0
  154.5858  138.7813  161.0868 C   0  0  2  0  0  0  0  0  0  0  0  0
  155.1078  138.4287  162.4958 C   0  0  0  0  0  0  0  0  0  0  0  0
  154.7246  137.0933  162.9166 N   0  0  0  0  0  0  0  0  0  0  0  0
  153.9678  136.7502  164.0289 C   0  0  0  0  0  0  0  0  0  0  0  0
  153.8499  135.3788  164.0160 C   0  0  0  0  0  0  0  0  0  0  0  0
  154.5273  134.8598  162.9151 N   0  0  0  0  0  0  0  0  0  0  0  0
  155.0218  135.9337  162.3137 C   0  0  0  0  0  0  0  0  0  0  0  0
  154.1561  140.1778  161.0280 N   0  0  0  0  0  0  0  0  0  0  0  0
  153.6301  140.7921  159.9559 C   0  0  0  0  0  0  0  0  0  0  0  0
  153.4125  140.2214  158.8868 O   0  0  0  0  0  0  0  0  0  0  0  0
  153.3189  142.2858  160.1104 C   0  0  1  0  0  0  0  0  0  0  0  0
  152.5934  142.8292  158.8582 C   0  0  0  0  0  0  0  0  0  0  0  0
  152.0461  144.2288  159.0761 C   0  0  0  0  0  0  0  0  0  0  0  0
  151.9030  144.7857  160.2909 C   0  0  0  0  0  0  0  0  0  0  0  0
  152.2682  144.0775  161.5836 C   0  0  0  0  0  0  0  0  0  0  0  0
  152.4891  142.5666  161.3794 C   0  0  0  0  0  0  0  0  0  0  0  0
  153.7034  136.8305  160.6855 H   0  0  0  0  0  0  0  0  0  0  0  0
  153.0562  138.1214  159.6814 H   0  0  0  0  0  0  0  0  0  0  0  0
  152.5704  137.9923  161.3711 H   0  0  0  0  0  0  0  0  0  0  0  0
  155.3853  138.6069  160.3644 H   0  0  0  0  0  0  0  0  0  0  0  0
  156.1948  138.5130  162.5358 H   0  0  0  0  0  0  0  0  0  0  0  0
  154.7135  139.1337  163.2286 H   0  0  0  0  0  0  0  0  0  0  0  0
  153.5807  137.4903  164.7138 H   0  0  0  0  0  0  0  0  0  0  0  0
  153.3340  134.7306  164.7090 H   0  0  0  0  0  0  0  0  0  0  0  0
  155.6058  135.8762  161.4068 H   0  0  0  0  0  0  0  0  0  0  0  0
  154.2956  140.7295  161.8622 H   0  0  0  0  0  0  0  0  0  0  0  0
  154.2647  142.8216  160.2124 H   0  0  0  0  0  0  0  0  0  0  0  0
  153.2832  142.8526  158.0137 H   0  0  0  0  0  0  0  0  0  0  0  0
  151.7621  142.1844  158.5690 H   0  0  0  0  0  0  0  0  0  0  0  0
  151.7524  144.7798  158.1947 H   0  0  0  0  0  0  0  0  0  0  0  0
  151.5197  145.7918  160.3787 H   0  0  0  0  0  0  0  0  0  0  0  0
  153.1730  144.5407  161.9779 H   0  0  0  0  0  0  0  0  0  0  0  0
  151.4806  144.2412  162.3193 H   0  0  0  0  0  0  0  0  0  0  0  0
  151.5189  142.0738  161.2968 H   0  0  0  0  0  0  0  0  0  0  0  0
  152.9738  142.1446  162.2609 H   0  0  0  0  0  0  0  0  0  0  0  0
  1  2  1  0  0  0  0
  1 18  1  0  0  0  0
  1 19  1  0  0  0  0
  1 20  1  0  0  0  0
  2  3  1  0  0  0  0
  2  9  1  0  0  0  0
  2 21  1  0  0  0  0
  3  4  1  0  0  0  0
  3 22  1  0  0  0  0
  3 23  1  0  0  0  0
  4  8  1  0  0  0  0
  4  5  1  0  0  0  0
  5  6  2  0  0  0  0
  5 24  1  0  0  0  0
  6  7  1  0  0  0  0
  6 25  1  0  0  0  0
  7  8  2  0  0  0  0
  8 26  1  0  0  0  0
  9 10  1  0  0  0  0
  9 27  1  0  0  0  0
 10 11  2  0  0  0  0
 10 12  1  0  0  0  0
 12 17  1  0  0  0  0
 12 13  1  0  0  0  0
 12 28  1  0  0  0  0
 13 14  1  0  0  0  0
 13 29  1  0  0  0  0
 13 30  1  0  0  0  0
 14 15  2  0  0  0  0
 14 31  1  0  0  0  0
 15 16  1  0  0  0  0
 15 32  1  0  0  0  0
 16 17  1  0  0  0  0
 16 33  1  0  0  0  0
 16 34  1  0  0  0  0
 17 35  1  0  0  0  0
 17 36  1  0  0  0  0
M  END
> <s_m_source_file>
AV-unprocessed.smi

> <i_m_source_file_index>
1677

> <i_lp_mmshare_version>
43012

> <i_f3d_flags>
0

> <s_epik_input>
W2NIXTFuW2NIXVtjSF1uMVtDSDJdW0NAQEhdKFtDSDNdKVtOSF1DKD1PKVtDQEBIXTJbQ0gyXVtDSF09W0NIXVtDSDJdW0NIMl0y

> <s_epik_cmdline>
J2VwaWtfcHl0aG9uJywgJy1waCcsICc3LjAnLCAnLXRuJywgJzgnLCAnLW1hJywgJzIwMCcsICctbWV0YWxfYmluZGluZycsICctaW1hZScsICc8aW5maWxlLm1hZT4nLCAnLW9tYWUnLCAnPG91dGZpbGUubWFlPic=

> <r_lp_tautomer_probability>
1

> <r_epik_Ionization_Penalty>
0.640435

> <r_epik_Ionization_Penalty_Charging>
0.640435

> <r_epik_Ionization_Penalty_Neutral>
2.11108e-08

> <r_epik_State_Penalty>
0.658069

> <r_epik_Charging_Adjusted_Penalty>
1.2985

> <i_epik_Tot_Q>
0

> <i_epik_Tot_abs_Q>
0

> <r_epik_Metal_State_Penalty>
0.311689

> <b_epik_Metal_Only>
0

> <s_lp_Force_Field>
OPLS_2005

> <r_lp_Energy>
9.94345

> <b_lp_Chiralities_Consistent>
1

> <s_lp_Variant>
AV-unprocessed.smi:1677-7

> <Gold.Version>
5.8.1

> <Gold.Id.Protein>
6NUR|6NUR_protein|mol2

> <Gold.PLP.Fitness>
46.4738

> <Gold.PLP.PLP>
-45.7680

> <Gold.PLP.part.hbond>
-1.0000

> <Gold.PLP.part.metal>
0.0000

> <Gold.PLP.part.buried>
-4.7202

> <Gold.PLP.part.nonpolar>
-39.1830

> <Gold.PLP.part.repulsive>
0.0271

> <Gold.PLP.ligand.clash>
0.0000

> <Gold.PLP.ligand.torsion>
0.6829

> <Gold.PLP.Chemscore.Hbond>
0.6817

> <Gold.PLP.Chemscore.CHOScore>
0.0000

> <Gold.PLP.Chemscore.Metal>
0.0000

> <Gold.Chemscore.Hbonds>
donor molecule, donor type, donor heavy atom, donor atom, acceptor molecule, acceptor atom, score
      P1  H  7997  8010       L1    11  0.55

> <Gold.PLP.Chemscore.Internal.Correction>
0.0263

> <Gold.Rescore>
     Score         DG    S(hbond)    S(metal)    S(lipo)     H(rot)  DE(clash)    DE(int)     intcor
     16.08     -16.89       0.90        0.00     109.94       1.75       0.10       0.71       ----

> <Gold.Chemscore.Fitness>
16.0805

> <Gold.Chemscore.DG>
-16.8879

> <Gold.Chemscore.ZeroCoef>
-5.4800

> <Gold.Chemscore.Hbond>
0.9036

> <Gold.Chemscore.Metal>
0.0000

> <Gold.Chemscore.Lipo>
109.9440

> <Gold.Chemscore.Internal_Hbond>
0.0000

> <Gold.Chemscore.DEClash>
0.0963

> <Gold.Chemscore.DEInternal>
0.7111

> <Gold.Chemscore.Rot>
1.7475

> <Gold.Chemscore.Internal.Correction>
   9.000000E+99

> <Gold.Chemscore.Hbonds>
donor molecule, donor type, donor heavy atom, donor atom, acceptor molecule, acceptor atom, score
      P1  H  7997  8010       L1    11  0.54

> <Gold.Chemscore.Hbond.Weighted>
-3.0180

> <Gold.Chemscore.Metal.Weighted>
-0.0000

> <Gold.Chemscore.Lipo.Weighted>
-12.8635

> <Gold.Chemscore.Internal_Hbond.Weighted>
0.0000

> <Gold.Chemscore.DEClash.Weighted>
0.0963

> <Gold.Chemscore.DEInternal.Weighted>
0.7111

> <Gold.Chemscore.Rot.Weighted>
4.4735

> <Gold.Chemscore.Internal.Correction.Weighted>
   9.000000E+99

> <Gold.Protein.RotatedTorsions>
[ 6907 6896 6895 6894 ] final   -0.47 input  -60.11 | X-H torsion
[ 7974 7965 7964 7962 ] final  163.48 input  175.53 | X-H torsion
[ 8008 7997 7996 7995 ] final   17.62 input   59.86 | X-H torsion
[ 10167 10162 10161 10158 ] final -147.33 input  -65.29 | X-H torsion
[ 10718 10713 10712 10709 ] final  169.90 input   66.30 | X-H torsion
[ 10763 10752 10751 10750 ] final   90.05 input  -60.55 | X-H torsion
[ 11005 11000 10999 10996 ] final   67.40 input  -57.11 | X-H torsion

> <Gold.Protein.ActiveResidues>
 VAL166  LYS551  ARG553  GLY616  TRP617  ASP618  TYR619  PRO620  LYS621  CYS622 
 ASP623  PHE694  ASN695  SER759  ASP760  ASP761  ALA762  ILE779  LEU786  VAL792 
 PHE793  MET794  SER795  GLU796  ALA797  LYS798  CYS799  TRP800  GLU811  SER814 

> <Gold.Protein.RotatedAtoms>
  151.5617  135.1065  159.9973 H   0  0  0  0  0  0  0  0  0  0  0  0  # atno 6907 bound_to 6896
  152.4443  133.7503  159.6701 H   0  0  0  0  0  0  0  0  0  0  0  0  # atno 6908 bound_to 6896
  150.8355  133.7952  159.3105 H   0  0  0  0  0  0  0  0  0  0  0  0  # atno 6909 bound_to 6896
  144.7588  139.8188  143.6340 H   0  0  0  0  0  0  0  0  0  0  0  0  # atno 7974 bound_to 7965
  154.8941  140.2991  155.5354 H   0  0  0  0  0  0  0  0  0  0  0  0  # atno 8008 bound_to 7997
  156.3020  140.2419  156.3895 H   0  0  0  0  0  0  0  0  0  0  0  0  # atno 8009 bound_to 7997
  154.8588  140.0406  157.1641 H   0  0  0  0  0  0  0  0  0  0  0  0  # atno 8010 bound_to 7997
  139.7632  143.8346  152.2611 H   0  0  0  0  0  0  0  0  0  0  0  0  # atno 10167 bound_to 10162
  157.0160  131.0218  151.2789 H   0  0  0  0  0  0  0  0  0  0  0  0  # atno 10718 bound_to 10713
  153.1935  135.4448  155.0179 H   0  0  0  0  0  0  0  0  0  0  0  0  # atno 10763 bound_to 10752
  154.8105  135.3292  154.7321 H   0  0  0  0  0  0  0  0  0  0  0  0  # atno 10764 bound_to 10752
  153.7773  135.6980  153.4950 H   0  0  0  0  0  0  0  0  0  0  0  0  # atno 10765 bound_to 10752
  139.9773  134.6801  156.0329 H   0  0  0  0  0  0  0  0  0  0  0  0  # atno 11005 bound_to 11000
  146.1628  139.4749  142.9977 LP  0  0  0  0  0  0  0  0  0  0  0  0  # atno 17320 bound_to 7965
  145.6689  141.0221  143.1668 LP  0  0  0  0  0  0  0  0  0  0  0  0  # atno 17321 bound_to 7965
  139.8359  144.7232  150.9392 LP  0  0  0  0  0  0  0  0  0  0  0  0  # atno 17342 bound_to 10162
  140.7809  143.4027  151.1121 LP  0  0  0  0  0  0  0  0  0  0  0  0  # atno 17343 bound_to 10162
  157.5285  130.8043  149.7890 LP  0  0  0  0  0  0  0  0  0  0  0  0  # atno 17370 bound_to 10713
  156.0119  130.3829  150.2236 LP  0  0  0  0  0  0  0  0  0  0  0  0  # atno 17371 bound_to 10713
  141.1449  133.6558  156.3838 LP  0  0  0  0  0  0  0  0  0  0  0  0  # atno 17394 bound_to 11000
  140.5168  134.6343  157.5304 LP  0  0  0  0  0  0  0  0  0  0  0  0  # atno 17395 bound_to 11000

$$$$
