AV-unprocessed.smi:1381|AV-procd|sdf|5616|dock4
  -GOLD-   22720 5223D 1   1.00000     0.00000
 Structure written by MMmdl.
 42 43  0  0  0  0  0  0  0  0  3 V2000
  151.9718  139.9822  158.2739 C   0  0  0  0  0  0  0  0  0  0  0  0
  151.4648  139.7623  156.8898 C   0  0  0  0  0  0  0  0  0  0  0  0
  150.2088  139.6107  156.3736 C   0  0  0  0  0  0  0  0  0  0  0  0
  150.4510  139.4340  154.9853 C   0  0  0  0  0  0  0  0  0  0  0  0
  149.3734  139.2370  154.0816 N   0  0  0  0  0  0  0  0  0  0  0  0
  148.0998  138.8958  154.3502 C   0  0  0  0  0  0  0  0  0  0  0  0
  147.7386  138.6962  155.5161 O   0  0  0  0  0  0  0  0  0  0  0  0
  147.3409  138.8065  153.2227 N   0  5  0  0  0  0  0  0  0  0  0  0
  146.3551  137.7587  152.9609 C   0  0  0  0  0  0  0  0  0  0  0  0
  146.5603  136.5786  153.9289 C   0  0  0  0  0  0  0  0  0  0  0  0
  146.9788  135.3566  153.1954 N   0  3  1  0  0  0  0  0  0  0  0  0
  147.6176  134.3348  154.0589 C   0  0  0  0  0  0  0  0  0  0  0  0
  148.1112  133.1502  153.2078 C   0  0  1  0  0  0  0  0  0  0  0  0
  148.7132  132.0322  154.0659 C   0  0  0  0  0  0  0  0  0  0  0  0
  147.0123  132.6108  152.4801 O   0  0  0  0  0  0  0  0  0  0  0  0
  146.4335  133.5517  151.5812 C   0  0  1  0  0  0  0  0  0  0  0  0
  145.3282  132.8416  150.7921 C   0  0  0  0  0  0  0  0  0  0  0  0
  145.8951  134.7498  152.3851 C   0  0  0  0  0  0  0  0  0  0  0  0
  151.7402  139.4754  154.6825 N   0  0  0  0  0  0  0  0  0  0  0  0
  152.3962  139.6850  155.9012 O   0  0  0  0  0  0  0  0  0  0  0  0
  151.2124  140.4579  158.8945 H   0  0  0  0  0  0  0  0  0  0  0  0
  152.8533  140.6237  158.2691 H   0  0  0  0  0  0  0  0  0  0  0  0
  152.2442  139.0347  158.7386 H   0  0  0  0  0  0  0  0  0  0  0  0
  149.2691  139.6233  156.9053 H   0  0  0  0  0  0  0  0  0  0  0  0
  149.5926  139.3763  153.1065 H   0  0  0  0  0  0  0  0  0  0  0  0
  145.3305  138.1225  153.0506 H   0  0  0  0  0  0  0  0  0  0  0  0
  146.4408  137.3895  151.9386 H   0  0  0  0  0  0  0  0  0  0  0  0
  147.3092  136.8479  154.6758 H   0  0  0  0  0  0  0  0  0  0  0  0
  145.6417  136.3871  154.4863 H   0  0  0  0  0  0  0  0  0  0  0  0
  148.4570  134.7818  154.5934 H   0  0  0  0  0  0  0  0  0  0  0  0
  146.9028  133.9924  154.8092 H   0  0  0  0  0  0  0  0  0  0  0  0
  148.8720  133.4944  152.5049 H   0  0  0  0  0  0  0  0  0  0  0  0
  149.5714  132.3922  154.6340 H   0  0  0  0  0  0  0  0  0  0  0  0
  149.0517  131.2035  153.4437 H   0  0  0  0  0  0  0  0  0  0  0  0
  147.9829  131.6404  154.7744 H   0  0  0  0  0  0  0  0  0  0  0  0
  147.1961  133.8929  150.8788 H   0  0  0  0  0  0  0  0  0  0  0  0
  144.8593  133.5187  150.0777 H   0  0  0  0  0  0  0  0  0  0  0  0
  144.5499  132.4630  151.4555 H   0  0  0  0  0  0  0  0  0  0  0  0
  145.7298  131.9958  150.2334 H   0  0  0  0  0  0  0  0  0  0  0  0
  145.0843  134.4310  153.0423 H   0  0  0  0  0  0  0  0  0  0  0  0
  145.4839  135.4984  151.7059 H   0  0  0  0  0  0  0  0  0  0  0  0
  147.6884  135.6612  152.5442 H   0  0  0  0  0  0  0  0  0  0  0  0
  1  2  1  0  0  0  0
  1 21  1  0  0  0  0
  1 22  1  0  0  0  0
  1 23  1  0  0  0  0
  2 20  1  0  0  0  0
  2  3  2  0  0  0  0
  3  4  1  0  0  0  0
  3 24  1  0  0  0  0
  4  5  1  0  0  0  0
  4 19  2  0  0  0  0
  5  6  1  0  0  0  0
  5 25  1  0  0  0  0
  6  7  2  0  0  0  0
  6  8  1  0  0  0  0
  8  9  1  0  0  0  0
  9 10  1  0  0  0  0
  9 26  1  0  0  0  0
  9 27  1  0  0  0  0
 10 11  1  0  0  0  0
 10 28  1  0  0  0  0
 10 29  1  0  0  0  0
 11 18  1  0  0  0  0
 11 12  1  0  0  0  0
 11 42  1  0  0  0  0
 12 13  1  0  0  0  0
 12 30  1  0  0  0  0
 12 31  1  0  0  0  0
 13 14  1  0  0  0  0
 13 15  1  0  0  0  0
 13 32  1  0  0  0  0
 14 33  1  0  0  0  0
 14 34  1  0  0  0  0
 14 35  1  0  0  0  0
 15 16  1  0  0  0  0
 16 17  1  0  0  0  0
 16 18  1  0  0  0  0
 16 36  1  0  0  0  0
 17 37  1  0  0  0  0
 17 38  1  0  0  0  0
 17 39  1  0  0  0  0
 18 40  1  0  0  0  0
 18 41  1  0  0  0  0
 19 20  1  0  0  0  0
M  CHG  1   8  -1
M  CHG  1  11   1
M  END
> <s_m_source_file>
AV-unprocessed.smi

> <i_m_source_file_index>
1381

> <i_lp_mmshare_version>
43012

> <i_f3d_flags>
0

> <s_epik_input>
W0NIM11jMVtjSF1jKG5vMSlbTkhdQyg9TylbTkhdW0NIMl1bQ0gyXU4yW0NIMl1bQ0BASF0oW0NIM10pT1tDQEBIXShbQ0gzXSlbQ0gyXTI=

> <s_epik_cmdline>
J2VwaWtfcHl0aG9uJywgJy1waCcsICc3LjAnLCAnLXRuJywgJzgnLCAnLW1hJywgJzIwMCcsICctbWV0YWxfYmluZGluZycsICctaW1hZScsICc8aW5maWxlLm1hZT4nLCAnLW9tYWUnLCAnPG91dGZpbGUubWFlPic=

> <r_epik_Ionization_Penalty>
6.8073

> <r_epik_Ionization_Penalty_Charging>
6.80729

> <r_epik_Ionization_Penalty_Neutral>
5.65391e-06

> <r_epik_State_Penalty>
7.47323

> <r_epik_Charging_Adjusted_Penalty>
14.2805

> <i_epik_Tot_Q>
0

> <i_epik_Tot_abs_Q>
2

> <r_epik_Metal_State_Penalty>
3.40035

> <b_epik_Metal_Only>
1

> <s_lp_Force_Field>
OPLS_2005

> <r_lp_Energy>
11.4992

> <b_lp_Chiralities_Consistent>
1

> <s_lp_Variant>
AV-unprocessed.smi:1381-15

> <Gold.Version>
5.8.1

> <Gold.Id.Protein>
6NUR|6NUR_protein|mol2

> <Gold.PLP.Fitness>
38.5927

> <Gold.PLP.PLP>
-25.4359

> <Gold.PLP.part.hbond>
-3.9847

> <Gold.PLP.part.metal>
0.0000

> <Gold.PLP.part.buried>
-2.3146

> <Gold.PLP.part.nonpolar>
-19.8948

> <Gold.PLP.part.repulsive>
0.5681

> <Gold.PLP.ligand.clash>
0.0000

> <Gold.PLP.ligand.torsion>
0.9709

> <Gold.PLP.Chemscore.Hbond>
5.0000

> <Gold.PLP.Chemscore.CHOScore>
0.0000

> <Gold.PLP.Chemscore.Metal>
0.0000

> <Gold.Chemscore.Hbonds>
donor molecule, donor type, donor heavy atom, donor atom, acceptor molecule, acceptor atom, score
      L1  H     5    25       P1  7957  0.94
      L1  H    11    42       P1  7948  1.98
      P1  H  7989  7998       L1    19  0.90
      P1  H  7997  8008       L1    20  1.00

> <Gold.PLP.Chemscore.Internal.Correction>
0.0985

> <Gold.Rescore>
     Score         DG    S(hbond)    S(metal)    S(lipo)     H(rot)  DE(clash)    DE(int)     intcor
     15.23     -18.80       3.42        0.00      50.75       1.58       0.01       3.56       ----

> <Gold.Chemscore.Fitness>
15.2290

> <Gold.Chemscore.DG>
-18.7967

> <Gold.Chemscore.ZeroCoef>
-5.4800

> <Gold.Chemscore.Hbond>
3.4198

> <Gold.Chemscore.Metal>
0.0000

> <Gold.Chemscore.Lipo>
50.7476

> <Gold.Chemscore.Internal_Hbond>
0.0000

> <Gold.Chemscore.DEClash>
0.0081

> <Gold.Chemscore.DEInternal>
3.5596

> <Gold.Chemscore.Rot>
1.5792

> <Gold.Chemscore.Internal.Correction>
   9.000000E+99

> <Gold.Chemscore.Hbonds>
donor molecule, donor type, donor heavy atom, donor atom, acceptor molecule, acceptor atom, score
      L1  H     5    25       P1  7957  0.90
      L1  H    11    42       P1  7948  0.93
      P1  H  7989  7998       L1    19  0.17
      P1  H  7997  8008       L1    20  0.93

> <Gold.Chemscore.Hbond.Weighted>
-11.4221

> <Gold.Chemscore.Metal.Weighted>
-0.0000

> <Gold.Chemscore.Lipo.Weighted>
-5.9375

> <Gold.Chemscore.Internal_Hbond.Weighted>
0.0000

> <Gold.Chemscore.DEClash.Weighted>
0.0081

> <Gold.Chemscore.DEInternal.Weighted>
3.5596

> <Gold.Chemscore.Rot.Weighted>
4.0428

> <Gold.Chemscore.Internal.Correction.Weighted>
   9.000000E+99

> <Gold.Protein.RotatedTorsions>
[ 6907 6896 6895 6894 ] final -172.41 input  -60.11 | X-H torsion
[ 7974 7965 7964 7962 ] final    4.50 input  175.53 | X-H torsion
[ 8008 7997 7996 7995 ] final  -31.21 input   59.86 | X-H torsion
[ 10167 10162 10161 10158 ] final  -67.15 input  -65.29 | X-H torsion
[ 10718 10713 10712 10709 ] final -131.61 input   66.30 | X-H torsion
[ 10763 10752 10751 10750 ] final -137.17 input  -60.55 | X-H torsion
[ 11005 11000 10999 10996 ] final  -88.15 input  -57.11 | X-H torsion

> <Gold.Protein.ActiveResidues>
 VAL166  LYS551  ARG553  GLY616  TRP617  ASP618  TYR619  PRO620  LYS621  CYS622 
 ASP623  PHE694  ASN695  SER759  ASP760  ASP761  ALA762  ILE779  LEU786  VAL792 
 PHE793  MET794  SER795  GLU796  ALA797  LYS798  CYS799  TRP800  GLU811  SER814 

> <Gold.Protein.RotatedAtoms>
  151.5395  133.3435  159.2932 H   0  0  0  0  0  0  0  0  0  0  0  0  # atno 6907 bound_to 6896
  150.8544  134.7881  159.7045 H   0  0  0  0  0  0  0  0  0  0  0  0  # atno 6908 bound_to 6896
  152.4582  134.5253  159.9846 H   0  0  0  0  0  0  0  0  0  0  0  0  # atno 6909 bound_to 6896
  146.2444  140.0525  142.8374 H   0  0  0  0  0  0  0  0  0  0  0  0  # atno 7974 bound_to 7965
  154.4222  140.1770  156.1531 H   0  0  0  0  0  0  0  0  0  0  0  0  # atno 8008 bound_to 7997
  155.9899  140.3370  155.6718 H   0  0  0  0  0  0  0  0  0  0  0  0  # atno 8009 bound_to 7997
  155.6387  140.0677  157.2616 H   0  0  0  0  0  0  0  0  0  0  0  0  # atno 8010 bound_to 7997
  140.5604  143.2312  151.6739 H   0  0  0  0  0  0  0  0  0  0  0  0  # atno 10167 bound_to 10162
  156.2262  130.7009  151.0809 H   0  0  0  0  0  0  0  0  0  0  0  0  # atno 10718 bound_to 10713
  154.8668  135.3650  154.5179 H   0  0  0  0  0  0  0  0  0  0  0  0  # atno 10763 bound_to 10752
  153.5811  135.7018  153.5468 H   0  0  0  0  0  0  0  0  0  0  0  0  # atno 10764 bound_to 10752
  153.3456  135.4086  155.1569 H   0  0  0  0  0  0  0  0  0  0  0  0  # atno 10765 bound_to 10752
  141.1606  133.7553  156.9410 H   0  0  0  0  0  0  0  0  0  0  0  0  # atno 11005 bound_to 11000
  145.0972  140.9322  143.4734 LP  0  0  0  0  0  0  0  0  0  0  0  0  # atno 17320 bound_to 7965
  145.0710  139.3031  143.5832 LP  0  0  0  0  0  0  0  0  0  0  0  0  # atno 17321 bound_to 7965
  139.5067  144.3671  152.0506 LP  0  0  0  0  0  0  0  0  0  0  0  0  # atno 17342 bound_to 10162
  140.2797  144.3873  150.6123 LP  0  0  0  0  0  0  0  0  0  0  0  0  # atno 17343 bound_to 10162
  157.7111  131.0733  150.6496 LP  0  0  0  0  0  0  0  0  0  0  0  0  # atno 17370 bound_to 10713
  156.6561  130.4499  149.5703 LP  0  0  0  0  0  0  0  0  0  0  0  0  # atno 17371 bound_to 10713
  140.1322  134.9348  157.2352 LP  0  0  0  0  0  0  0  0  0  0  0  0  # atno 17394 bound_to 11000
  140.2939  134.3208  155.7307 LP  0  0  0  0  0  0  0  0  0  0  0  0  # atno 17395 bound_to 11000

$$$$
