AV-unprocessed.smi:1605|AV-procd|sdf|6455|dock3
  -GOLD-   22720 7103D 1   1.00000     0.00000
 Structure written by MMmdl.
 52 54  0  0  0  0  0  0  0  0  3 V2000
  146.5326  133.1402  152.4822 C   0  0  0  0  0  0  0  0  0  0  0  0
  146.5817  132.8596  153.8728 O   0  0  0  0  0  0  0  0  0  0  0  0
  147.5536  133.6107  154.5883 C   0  0  2  0  0  0  0  0  0  0  0  0
  147.0952  135.0763  154.6005 C   0  0  0  0  0  0  0  0  0  0  0  0
  148.1402  135.9808  155.2741 C   0  0  0  0  0  0  0  0  0  0  0  0
  149.4608  135.8634  154.6007 N   0  3  1  0  0  0  0  0  0  0  0  0
  150.4792  136.8092  155.1267 C   0  0  0  0  0  0  0  0  0  0  0  0
  150.0255  138.2812  155.0528 C   0  0  2  0  0  0  0  0  0  0  0  0
  149.4083  138.4997  153.7993 O   0  0  0  0  0  0  0  0  0  0  0  0
  151.2157  139.2469  155.2214 C   0  0  0  0  0  0  0  0  0  0  0  0
  150.8356  140.5368  155.8170 N   0  0  0  0  0  0  0  0  0  0  0  0
  149.8848  141.4284  155.4243 C   0  0  0  0  0  0  0  0  0  0  0  0
  149.9027  142.4646  156.3075 N   0  3  0  0  0  0  0  0  0  0  0  0
  150.8776  142.2322  157.2798 C   0  0  0  0  0  0  0  0  0  0  0  0
  151.2679  142.9913  158.3767 C   0  0  0  0  0  0  0  0  0  0  0  0
  152.3067  142.4736  159.1827 C   0  0  0  0  0  0  0  0  0  0  0  0
  152.7586  143.2789  160.3891 C   0  0  0  0  0  0  0  0  0  0  0  0
  152.9167  141.2295  158.8767 C   0  0  0  0  0  0  0  0  0  0  0  0
  154.0352  140.6832  159.7477 C   0  0  0  0  0  0  0  0  0  0  0  0
  152.5035  140.4714  157.7580 C   0  0  0  0  0  0  0  0  0  0  0  0
  151.4798  140.9965  156.9726 C   0  0  0  0  0  0  0  0  0  0  0  0
  149.9464  134.4591  154.5994 C   0  0  0  0  0  0  0  0  0  0  0  0
  148.9373  133.5189  153.9188 C   0  0  0  0  0  0  0  0  0  0  0  0
  145.7923  132.4954  152.0088 H   0  0  0  0  0  0  0  0  0  0  0  0
  147.4948  132.9487  152.0057 H   0  0  0  0  0  0  0  0  0  0  0  0
  146.2434  134.1722  152.2852 H   0  0  0  0  0  0  0  0  0  0  0  0
  147.6128  133.2571  155.6196 H   0  0  0  0  0  0  0  0  0  0  0  0
  146.9227  135.4181  153.5787 H   0  0  0  0  0  0  0  0  0  0  0  0
  146.1405  135.1627  155.1206 H   0  0  0  0  0  0  0  0  0  0  0  0
  147.7860  137.0103  155.2426 H   0  0  0  0  0  0  0  0  0  0  0  0
  148.2415  135.7148  156.3276 H   0  0  0  0  0  0  0  0  0  0  0  0
  150.7278  136.5347  156.1532 H   0  0  0  0  0  0  0  0  0  0  0  0
  151.4034  136.7080  154.5552 H   0  0  0  0  0  0  0  0  0  0  0  0
  149.2949  138.4969  155.8317 H   0  0  0  0  0  0  0  0  0  0  0  0
  149.3587  137.6747  153.3402 H   0  0  0  0  0  0  0  0  0  0  0  0
  151.9603  138.8004  155.8819 H   0  0  0  0  0  0  0  0  0  0  0  0
  151.7218  139.4250  154.2721 H   0  0  0  0  0  0  0  0  0  0  0  0
  149.2307  141.3308  154.5698 H   0  0  0  0  0  0  0  0  0  0  0  0
  150.7981  143.9370  158.6045 H   0  0  0  0  0  0  0  0  0  0  0  0
  152.5656  142.7274  161.3093 H   0  0  0  0  0  0  0  0  0  0  0  0
  152.2308  144.2308  160.4539 H   0  0  0  0  0  0  0  0  0  0  0  0
  153.8258  143.4944  160.3303 H   0  0  0  0  0  0  0  0  0  0  0  0
  154.3603  139.6991  159.4087 H   0  0  0  0  0  0  0  0  0  0  0  0
  153.7054  140.5849  160.7822 H   0  0  0  0  0  0  0  0  0  0  0  0
  154.8990  141.3478  159.7198 H   0  0  0  0  0  0  0  0  0  0  0  0
  152.9721  139.5266  157.5258 H   0  0  0  0  0  0  0  0  0  0  0  0
  150.8988  134.3984  154.0715 H   0  0  0  0  0  0  0  0  0  0  0  0
  150.1308  134.1351  155.6250 H   0  0  0  0  0  0  0  0  0  0  0  0
  149.3175  132.4984  153.9578 H   0  0  0  0  0  0  0  0  0  0  0  0
  148.8528  133.7777  152.8622 H   0  0  0  0  0  0  0  0  0  0  0  0
  149.3225  136.1124  153.6312 H   0  0  0  0  0  0  0  0  0  0  0  0
  149.2910  143.2689  156.2507 H   0  0  0  0  0  0  0  0  0  0  0  0
  1  2  1  0  0  0  0
  1 24  1  0  0  0  0
  1 25  1  0  0  0  0
  1 26  1  0  0  0  0
  2  3  1  0  0  0  0
  3 23  1  0  0  0  0
  3  4  1  0  0  0  0
  3 27  1  0  0  0  0
  4  5  1  0  0  0  0
  4 28  1  0  0  0  0
  4 29  1  0  0  0  0
  5  6  1  0  0  0  0
  5 30  1  0  0  0  0
  5 31  1  0  0  0  0
  6  7  1  0  0  0  0
  6 22  1  0  0  0  0
  6 51  1  0  0  0  0
  7  8  1  0  0  0  0
  7 32  1  0  0  0  0
  7 33  1  0  0  0  0
  8  9  1  0  0  0  0
  8 10  1  0  0  0  0
  8 34  1  0  0  0  0
  9 35  1  0  0  0  0
 10 11  1  0  0  0  0
 10 36  1  0  0  0  0
 10 37  1  0  0  0  0
 11 21  1  0  0  0  0
 11 12  1  0  0  0  0
 12 13  2  0  0  0  0
 12 38  1  0  0  0  0
 13 14  1  0  0  0  0
 13 52  1  0  0  0  0
 14 21  2  0  0  0  0
 14 15  1  0  0  0  0
 15 16  2  0  0  0  0
 15 39  1  0  0  0  0
 16 17  1  0  0  0  0
 16 18  1  0  0  0  0
 17 40  1  0  0  0  0
 17 41  1  0  0  0  0
 17 42  1  0  0  0  0
 18 19  1  0  0  0  0
 18 20  2  0  0  0  0
 19 43  1  0  0  0  0
 19 44  1  0  0  0  0
 19 45  1  0  0  0  0
 20 21  1  0  0  0  0
 20 46  1  0  0  0  0
 22 23  1  0  0  0  0
 22 47  1  0  0  0  0
 22 48  1  0  0  0  0
 23 49  1  0  0  0  0
 23 50  1  0  0  0  0
M  CHG  1   6   1
M  CHG  1  13   1
M  END
> <s_m_source_file>
AV-unprocessed.smi

> <i_m_source_file_index>
1605

> <i_lp_mmshare_version>
43012

> <i_f3d_flags>
0

> <s_epik_input>
W0NIM11PW0NIXTFbQ0gyXVtDSDJdTihbQ0gyXVtDSDJdMSlbQ0gyXVtDQEhdKFtPSF0pW0NIMl1uKFtjSF1uMiljKGMyMylbY0hdYyhbQ0gzXSljKFtjSF0zKVtDSDNd

> <s_epik_cmdline>
J2VwaWtfcHl0aG9uJywgJy1waCcsICc3LjAnLCAnLXRuJywgJzgnLCAnLW1hJywgJzIwMCcsICctbWV0YWxfYmluZGluZycsICctaW1hZScsICc8aW5maWxlLm1hZT4nLCAnLW9tYWUnLCAnPG91dGZpbGUubWFlPic=

> <r_epik_Ionization_Penalty>
1.19848

> <r_epik_Ionization_Penalty_Charging>
1.19848

> <r_epik_Ionization_Penalty_Neutral>
1.67134e-06

> <r_epik_State_Penalty>
1.2782

> <r_epik_Charging_Adjusted_Penalty>
2.47668

> <i_epik_Tot_Q>
2

> <i_epik_Tot_abs_Q>
2

> <r_epik_Metal_State_Penalty>
5.29544

> <b_epik_Metal_Only>
0

> <s_lp_Force_Field>
OPLS_2005

> <r_lp_Energy>
31.9631

> <b_lp_Chiralities_Consistent>
1

> <s_lp_Variant>
AV-unprocessed.smi:1605-5

> <Gold.Version>
5.8.1

> <Gold.Id.Protein>
6NUR|6NUR_protein|mol2

> <Gold.PLP.Fitness>
58.4420

> <Gold.PLP.PLP>
-44.4087

> <Gold.PLP.part.hbond>
-4.0000

> <Gold.PLP.part.metal>
0.0000

> <Gold.PLP.part.buried>
-4.3137

> <Gold.PLP.part.nonpolar>
-36.4104

> <Gold.PLP.part.repulsive>
0.2393

> <Gold.PLP.ligand.clash>
0.0000

> <Gold.PLP.ligand.torsion>
0.5519

> <Gold.PLP.Chemscore.Hbond>
5.0000

> <Gold.PLP.Chemscore.CHOScore>
0.0000

> <Gold.PLP.Chemscore.Metal>
0.0000

> <Gold.Chemscore.Hbonds>
donor molecule, donor type, donor heavy atom, donor atom, acceptor molecule, acceptor atom, score
      L1  H     6    51       P1  7948  2.00
      L1  H     9    35       P1  7948  0.89
      L1  H    13    52       P1  8028  2.00

> <Gold.PLP.Chemscore.Internal.Correction>
0.1372

> <Gold.Rescore>
     Score         DG    S(hbond)    S(metal)    S(lipo)     H(rot)  DE(clash)    DE(int)     intcor
     21.53     -21.96       2.86        0.00     109.07       2.28       0.04       0.40       ----

> <Gold.Chemscore.Fitness>
21.5261

> <Gold.Chemscore.DG>
-21.9630

> <Gold.Chemscore.ZeroCoef>
-5.4800

> <Gold.Chemscore.Hbond>
2.8647

> <Gold.Chemscore.Metal>
0.0000

> <Gold.Chemscore.Lipo>
109.0742

> <Gold.Chemscore.Internal_Hbond>
0.0000

> <Gold.Chemscore.DEClash>
0.0372

> <Gold.Chemscore.DEInternal>
0.3997

> <Gold.Chemscore.Rot>
2.2839

> <Gold.Chemscore.Internal.Correction>
   9.000000E+99

> <Gold.Chemscore.Hbonds>
donor molecule, donor type, donor heavy atom, donor atom, acceptor molecule, acceptor atom, score
      L1  H     6    51       P1  7948  0.78
      L1  H     9    35       P1  7948  0.83
      L1  H    13    52       P1  8028  0.95

> <Gold.Chemscore.Hbond.Weighted>
-9.5682

> <Gold.Chemscore.Metal.Weighted>
-0.0000

> <Gold.Chemscore.Lipo.Weighted>
-12.7617

> <Gold.Chemscore.Internal_Hbond.Weighted>
0.0000

> <Gold.Chemscore.DEClash.Weighted>
0.0372

> <Gold.Chemscore.DEInternal.Weighted>
0.3997

> <Gold.Chemscore.Rot.Weighted>
5.8469

> <Gold.Chemscore.Internal.Correction.Weighted>
   9.000000E+99

> <Gold.Protein.RotatedTorsions>
[ 6907 6896 6895 6894 ] final  -50.18 input  -60.11 | X-H torsion
[ 7974 7965 7964 7962 ] final  117.15 input  175.53 | X-H torsion
[ 8008 7997 7996 7995 ] final  120.62 input   59.86 | X-H torsion
[ 10167 10162 10161 10158 ] final  135.69 input  -65.29 | X-H torsion
[ 10718 10713 10712 10709 ] final  130.11 input   66.30 | X-H torsion
[ 10763 10752 10751 10750 ] final  106.30 input  -60.55 | X-H torsion
[ 11005 11000 10999 10996 ] final -150.61 input  -57.11 | X-H torsion

> <Gold.Protein.ActiveResidues>
 VAL166  LYS551  ARG553  GLY616  TRP617  ASP618  TYR619  PRO620  LYS621  CYS622 
 ASP623  PHE694  ASN695  SER759  ASP760  ASP761  ALA762  ILE779  LEU786  VAL792 
 PHE793  MET794  SER795  GLU796  ALA797  LYS798  CYS799  TRP800  GLU811  SER814 

> <Gold.Protein.RotatedAtoms>
  150.8732  134.8110  159.7169 H   0  0  0  0  0  0  0  0  0  0  0  0  # atno 6907 bound_to 6896
  152.4729  134.4914  159.9706 H   0  0  0  0  0  0  0  0  0  0  0  0  # atno 6908 bound_to 6896
  151.4999  133.3468  159.2903 H   0  0  0  0  0  0  0  0  0  0  0  0  # atno 6909 bound_to 6896
  145.1709  139.3102  143.4468 H   0  0  0  0  0  0  0  0  0  0  0  0  # atno 7974 bound_to 7965
  156.2651  140.2826  156.1179 H   0  0  0  0  0  0  0  0  0  0  0  0  # atno 8008 bound_to 7997
  155.1187  140.0392  157.2761 H   0  0  0  0  0  0  0  0  0  0  0  0  # atno 8009 bound_to 7997
  154.6687  140.2583  155.7037 H   0  0  0  0  0  0  0  0  0  0  0  0  # atno 8010 bound_to 7997
  139.5208  144.6504  151.5319 H   0  0  0  0  0  0  0  0  0  0  0  0  # atno 10167 bound_to 10162
  157.5092  131.1096  150.9316 H   0  0  0  0  0  0  0  0  0  0  0  0  # atno 10718 bound_to 10713
  153.3910  135.3881  155.1923 H   0  0  0  0  0  0  0  0  0  0  0  0  # atno 10763 bound_to 10752
  154.8719  135.3748  154.4737 H   0  0  0  0  0  0  0  0  0  0  0  0  # atno 10764 bound_to 10752
  153.5224  135.7086  153.5786 H   0  0  0  0  0  0  0  0  0  0  0  0  # atno 10765 bound_to 10752
  140.7383  134.3543  157.5153 H   0  0  0  0  0  0  0  0  0  0  0  0  # atno 11005 bound_to 11000
  146.3469  140.1854  142.8589 LP  0  0  0  0  0  0  0  0  0  0  0  0  # atno 17320 bound_to 7965
  145.0234  140.8812  143.5153 LP  0  0  0  0  0  0  0  0  0  0  0  0  # atno 17321 bound_to 7965
  140.6306  143.9083  150.6602 LP  0  0  0  0  0  0  0  0  0  0  0  0  # atno 17342 bound_to 10162
  140.2386  143.3681  152.1506 LP  0  0  0  0  0  0  0  0  0  0  0  0  # atno 17343 bound_to 10162
  156.9962  130.5582  149.5307 LP  0  0  0  0  0  0  0  0  0  0  0  0  # atno 17370 bound_to 10713
  156.0278  130.5371  150.8454 LP  0  0  0  0  0  0  0  0  0  0  0  0  # atno 17371 bound_to 10713
  139.8811  134.9064  156.2921 LP  0  0  0  0  0  0  0  0  0  0  0  0  # atno 17394 bound_to 11000
  140.9859  133.7238  156.0741 LP  0  0  0  0  0  0  0  0  0  0  0  0  # atno 17395 bound_to 11000

$$$$
