AV-unprocessed.smi:3327|AV-procd|sdf|12789|dock8
  -GOLD-   2272019143D 1   1.00000     0.00000
 Structure written by MMmdl.
 40 41  0  0  0  0  0  0  0  0  1 V2000
  147.1757  138.2061  153.1819 C   0  0  0  0  0  0  0  0  0  0  0  0
  147.5242  139.4443  154.0197 C   0  0  2  0  0  0  0  0  0  0  0  0
  147.1140  140.7478  153.3015 C   0  0  0  0  0  0  0  0  0  0  0  0
  147.5685  141.9992  154.0758 C   0  0  0  0  0  0  0  0  0  0  0  0
  149.0622  141.9136  154.4355 C   0  0  0  0  0  0  0  0  0  0  0  0
  149.2929  140.6774  155.1959 N   0  0  0  0  0  0  0  0  0  0  0  0
  149.5814  140.6050  156.5189 C   0  0  0  0  0  0  0  0  0  0  0  0
  149.6411  139.5277  157.1151 O   0  0  0  0  0  0  0  0  0  0  0  0
  149.8130  141.9103  157.3079 C   0  0  0  0  0  0  0  0  0  0  0  0
  151.2040  142.1584  157.7230 N   0  0  0  0  0  0  0  0  0  0  0  0
  151.4560  143.5453  158.1035 C   0  0  0  0  0  0  0  0  0  0  0  0
  152.8691  143.6893  158.6937 C   0  0  0  0  0  0  0  0  0  0  0  0
  152.9663  143.1649  160.0445 N   0  0  0  0  0  0  0  0  0  0  0  0
  152.3291  143.6085  161.1842 C   0  0  0  0  0  0  0  0  0  0  0  0
  152.7286  142.8038  162.2124 C   0  0  0  0  0  0  0  0  0  0  0  0
  153.6222  141.8849  161.5946 C   0  0  0  0  0  0  0  0  0  0  0  0
  153.7604  142.1017  160.2965 N   0  0  0  0  0  0  0  0  0  0  0  0
  149.0248  139.4856  154.3789 C   0  0  0  0  0  0  0  0  0  0  0  0
  147.7196  138.2001  152.2367 H   0  0  0  0  0  0  0  0  0  0  0  0
  146.1100  138.1740  152.9533 H   0  0  0  0  0  0  0  0  0  0  0  0
  147.4255  137.2888  153.7156 H   0  0  0  0  0  0  0  0  0  0  0  0
  146.9585  139.3808  154.9507 H   0  0  0  0  0  0  0  0  0  0  0  0
  147.5609  140.7674  152.3065 H   0  0  0  0  0  0  0  0  0  0  0  0
  146.0340  140.7745  153.1539 H   0  0  0  0  0  0  0  0  0  0  0  0
  147.3748  142.8941  153.4838 H   0  0  0  0  0  0  0  0  0  0  0  0
  146.9799  142.0984  154.9890 H   0  0  0  0  0  0  0  0  0  0  0  0
  149.6644  141.8926  153.5260 H   0  0  0  0  0  0  0  0  0  0  0  0
  149.3592  142.8200  154.9592 H   0  0  0  0  0  0  0  0  0  0  0  0
  149.4723  142.7644  156.7218 H   0  0  0  0  0  0  0  0  0  0  0  0
  149.1943  141.8727  158.2049 H   0  0  0  0  0  0  0  0  0  0  0  0
  151.8618  141.8631  157.0155 H   0  0  0  0  0  0  0  0  0  0  0  0
  151.3692  144.1994  157.2365 H   0  0  0  0  0  0  0  0  0  0  0  0
  150.7102  143.8772  158.8272 H   0  0  0  0  0  0  0  0  0  0  0  0
  153.6031  143.1846  158.0639 H   0  0  0  0  0  0  0  0  0  0  0  0
  153.1533  144.7422  158.7174 H   0  0  0  0  0  0  0  0  0  0  0  0
  151.6535  144.4508  161.1687 H   0  0  0  0  0  0  0  0  0  0  0  0
  152.4288  142.8625  163.2480 H   0  0  0  0  0  0  0  0  0  0  0  0
  154.1690  141.0711  162.0475 H   0  0  0  0  0  0  0  0  0  0  0  0
  149.3157  138.5607  154.8790 H   0  0  0  0  0  0  0  0  0  0  0  0
  149.6293  139.5295  153.4715 H   0  0  0  0  0  0  0  0  0  0  0  0
  1  2  1  0  0  0  0
  1 19  1  0  0  0  0
  1 20  1  0  0  0  0
  1 21  1  0  0  0  0
  2 18  1  0  0  0  0
  2  3  1  0  0  0  0
  2 22  1  0  0  0  0
  3  4  1  0  0  0  0
  3 23  1  0  0  0  0
  3 24  1  0  0  0  0
  4  5  1  0  0  0  0
  4 25  1  0  0  0  0
  4 26  1  0  0  0  0
  5  6  1  0  0  0  0
  5 27  1  0  0  0  0
  5 28  1  0  0  0  0
  6  7  1  0  0  0  0
  6 18  1  0  0  0  0
  7  8  2  0  0  0  0
  7  9  1  0  0  0  0
  9 10  1  0  0  0  0
  9 29  1  0  0  0  0
  9 30  1  0  0  0  0
 10 11  1  0  0  0  0
 10 31  1  0  0  0  0
 11 12  1  0  0  0  0
 11 32  1  0  0  0  0
 11 33  1  0  0  0  0
 12 13  1  0  0  0  0
 12 34  1  0  0  0  0
 12 35  1  0  0  0  0
 13 17  1  0  0  0  0
 13 14  1  0  0  0  0
 14 15  2  0  0  0  0
 14 36  1  0  0  0  0
 15 16  1  0  0  0  0
 15 37  1  0  0  0  0
 16 17  2  0  0  0  0
 16 38  1  0  0  0  0
 18 39  1  0  0  0  0
 18 40  1  0  0  0  0
M  END
> <s_m_source_file>
AV-unprocessed.smi

> <i_m_source_file_index>
3327

> <i_lp_mmshare_version>
43012

> <i_f3d_flags>
0

> <s_epik_input>
W0NIM11bQ0BASF0xW0NIMl1bQ0gyXVtDSDJdTihbQ0gyXTEpQyg9TylbQ0gyXVtOSF1bQ0gyXVtDSDJdbjJbY0hdW2NIXVtjSF1uMg==

> <s_epik_cmdline>
J2VwaWtfcHl0aG9uJywgJy1waCcsICc3LjAnLCAnLXRuJywgJzgnLCAnLW1hJywgJzIwMCcsICctbWV0YWxfYmluZGluZycsICctaW1hZScsICc8aW5maWxlLm1hZT4nLCAnLW9tYWUnLCAnPG91dGZpbGUubWFlPic=

> <r_lp_tautomer_probability>
1

> <r_epik_Ionization_Penalty>
0.752964

> <r_epik_Ionization_Penalty_Charging>
0

> <r_epik_Ionization_Penalty_Neutral>
0.752964

> <r_epik_State_Penalty>
0.778238

> <r_epik_Charging_Adjusted_Penalty>
0.778238

> <i_epik_Tot_Q>
0

> <i_epik_Tot_abs_Q>
0

> <r_epik_Metal_State_Penalty>
0.776974

> <b_epik_Metal_Only>
0

> <s_lp_Force_Field>
OPLS_2005

> <r_lp_Energy>
27.1089

> <b_lp_Chiralities_Consistent>
1

> <s_lp_Variant>
AV-unprocessed.smi:3327-3

> <Gold.Version>
5.8.1

> <Gold.Id.Protein>
6NUR|6NUR_protein|mol2

> <Gold.PLP.Fitness>
38.4734

> <Gold.PLP.PLP>
-39.0181

> <Gold.PLP.part.hbond>
0.0000

> <Gold.PLP.part.metal>
0.0000

> <Gold.PLP.part.buried>
-0.7174

> <Gold.PLP.part.nonpolar>
-38.2228

> <Gold.PLP.part.repulsive>
0.0000

> <Gold.PLP.ligand.clash>
0.0000

> <Gold.PLP.ligand.torsion>
0.2867

> <Gold.PLP.Chemscore.Hbond>
0.0000

> <Gold.PLP.Chemscore.CHOScore>
0.0000

> <Gold.PLP.Chemscore.Metal>
0.0000

> <Gold.PLP.Chemscore.Internal.Correction>
0.0288

> <Gold.Rescore>
     Score         DG    S(hbond)    S(metal)    S(lipo)     H(rot)  DE(clash)    DE(int)     intcor
     12.25     -12.92       0.00        0.00     101.47       1.73       0.42       0.25       ----

> <Gold.Chemscore.Fitness>
12.2465

> <Gold.Chemscore.DG>
-12.9240

> <Gold.Chemscore.ZeroCoef>
-5.4800

> <Gold.Chemscore.Hbond>
0.0000

> <Gold.Chemscore.Metal>
0.0000

> <Gold.Chemscore.Lipo>
101.4681

> <Gold.Chemscore.Internal_Hbond>
0.0000

> <Gold.Chemscore.DEClash>
0.4229

> <Gold.Chemscore.DEInternal>
0.2545

> <Gold.Chemscore.Rot>
1.7296

> <Gold.Chemscore.Internal.Correction>
   9.000000E+99

> <Gold.Chemscore.Hbond.Weighted>
-0.0000

> <Gold.Chemscore.Metal.Weighted>
-0.0000

> <Gold.Chemscore.Lipo.Weighted>
-11.8718

> <Gold.Chemscore.Internal_Hbond.Weighted>
0.0000

> <Gold.Chemscore.DEClash.Weighted>
0.4229

> <Gold.Chemscore.DEInternal.Weighted>
0.2545

> <Gold.Chemscore.Rot.Weighted>
4.4278

> <Gold.Chemscore.Internal.Correction.Weighted>
   9.000000E+99

> <Gold.Protein.RotatedTorsions>
[ 6907 6896 6895 6894 ] final  -83.19 input  -60.11 | X-H torsion
[ 7974 7965 7964 7962 ] final   54.83 input  175.53 | X-H torsion
[ 8008 7997 7996 7995 ] final   63.66 input   59.86 | X-H torsion
[ 10167 10162 10161 10158 ] final   19.44 input  -65.29 | X-H torsion
[ 10718 10713 10712 10709 ] final -106.49 input   66.30 | X-H torsion
[ 10763 10752 10751 10750 ] final  169.99 input  -60.55 | X-H torsion
[ 11005 11000 10999 10996 ] final  -52.37 input  -57.11 | X-H torsion

> <Gold.Protein.ActiveResidues>
 VAL166  LYS551  ARG553  GLY616  TRP617  ASP618  TYR619  PRO620  LYS621  CYS622 
 ASP623  PHE694  ASN695  SER759  ASP760  ASP761  ALA762  ILE779  LEU786  VAL792 
 PHE793  MET794  SER795  GLU796  ALA797  LYS798  CYS799  TRP800  GLU811  SER814 

> <Gold.Protein.RotatedAtoms>
  150.6888  134.3549  159.4924 H   0  0  0  0  0  0  0  0  0  0  0  0  # atno 6907 bound_to 6896
  152.1385  134.9078  160.0564 H   0  0  0  0  0  0  0  0  0  0  0  0  # atno 6908 bound_to 6896
  152.0220  133.3868  159.4299 H   0  0  0  0  0  0  0  0  0  0  0  0  # atno 6909 bound_to 6896
  145.9568  139.4022  143.0272 H   0  0  0  0  0  0  0  0  0  0  0  0  # atno 7974 bound_to 7965
  155.6338  140.3496  155.4691 H   0  0  0  0  0  0  0  0  0  0  0  0  # atno 8008 bound_to 7997
  155.9982  140.1207  157.0597 H   0  0  0  0  0  0  0  0  0  0  0  0  # atno 8009 bound_to 7997
  154.4240  140.1106  156.5646 H   0  0  0  0  0  0  0  0  0  0  0  0  # atno 8010 bound_to 7997
  140.5579  143.9391  150.6622 H   0  0  0  0  0  0  0  0  0  0  0  0  # atno 10167 bound_to 10162
  156.0392  130.5615  150.7688 H   0  0  0  0  0  0  0  0  0  0  0  0  # atno 10718 bound_to 10713
  154.3912  135.2754  155.2154 H   0  0  0  0  0  0  0  0  0  0  0  0  # atno 10763 bound_to 10752
  154.4219  135.5998  153.6019 H   0  0  0  0  0  0  0  0  0  0  0  0  # atno 10764 bound_to 10752
  152.9832  135.5974  154.4167 H   0  0  0  0  0  0  0  0  0  0  0  0  # atno 10765 bound_to 10752
  141.0920  133.6631  156.4014 H   0  0  0  0  0  0  0  0  0  0  0  0  # atno 11005 bound_to 11000
  145.8095  140.9732  143.0956 LP  0  0  0  0  0  0  0  0  0  0  0  0  # atno 17320 bound_to 7965
  144.6807  139.9903  143.7484 LP  0  0  0  0  0  0  0  0  0  0  0  0  # atno 17321 bound_to 7965
  140.2834  143.3374  152.1130 LP  0  0  0  0  0  0  0  0  0  0  0  0  # atno 17342 bound_to 10162
  139.5056  144.6798  151.6036 LP  0  0  0  0  0  0  0  0  0  0  0  0  # atno 17343 bound_to 10162
  157.5188  131.0930  151.0105 LP  0  0  0  0  0  0  0  0  0  0  0  0  # atno 17370 bound_to 10713
  157.0441  130.5761  149.5360 LP  0  0  0  0  0  0  0  0  0  0  0  0  # atno 17371 bound_to 10713
  140.5228  134.6287  157.5324 LP  0  0  0  0  0  0  0  0  0  0  0  0  # atno 17394 bound_to 11000
  139.9749  134.7232  155.9970 LP  0  0  0  0  0  0  0  0  0  0  0  0  # atno 17395 bound_to 11000

$$$$
