AV-unprocessed.smi:2171|AV-procd|sdf|8830|dock9
  -GOLD-   2272012 23D 1   1.00000     0.00000
 Structure written by MMmdl.
 39 41  0  0  0  0  0  0  0  0  2 V2000
  148.2357  144.0911  161.6042 O   0  0  0  0  0  0  0  0  0  0  0  0
  147.9016  144.7117  160.5957 C   0  0  0  0  0  0  0  0  0  0  0  0
  146.6187  145.5479  160.6029 C   0  0  0  0  0  0  0  0  0  0  0  0
  145.4569  144.7576  160.9744 N   0  0  0  0  0  0  0  0  0  0  0  0
  145.2944  143.9350  162.0701 C   0  0  0  0  0  0  0  0  0  0  0  0
  144.0408  143.3992  161.9942 C   0  0  0  0  0  0  0  0  0  0  0  0
  143.5034  143.9629  160.8034 C   0  0  0  0  0  0  0  0  0  0  0  0
  144.3525  144.7757  160.1957 N   0  0  0  0  0  0  0  0  0  0  0  0
  148.6034  144.6877  159.4507 N   0  0  0  0  0  0  0  0  0  0  0  0
  149.8737  143.9932  159.2510 C   0  0  2  0  0  0  0  0  0  0  0  0
  150.9738  144.9122  158.6859 C   0  0  0  0  0  0  0  0  0  0  0  0
  151.7061  144.0511  157.6517 C   0  0  0  0  0  0  0  0  0  0  0  0
  150.6390  143.1938  157.1227 N   0  3  1  0  0  0  0  0  0  0  0  0
  151.0122  142.0490  156.2678 C   0  0  0  0  0  0  0  0  0  0  0  0
  149.7208  141.4267  155.6947 C   0  0  0  0  0  0  0  0  0  0  0  0
  148.6915  141.0918  156.7984 C   0  0  0  0  0  0  0  0  0  0  0  0
  148.4440  142.2919  157.7384 C   0  0  0  0  0  0  0  0  0  0  0  0
  149.7973  142.8017  158.2666 C   0  0  2  0  0  0  0  0  0  0  0  0
  146.7269  146.3734  161.3074 H   0  0  0  0  0  0  0  0  0  0  0  0
  146.4487  145.9862  159.6180 H   0  0  0  0  0  0  0  0  0  0  0  0
  146.0757  143.7999  162.8036 H   0  0  0  0  0  0  0  0  0  0  0  0
  143.5770  142.7108  162.6852 H   0  0  0  0  0  0  0  0  0  0  0  0
  142.5284  143.8069  160.3657 H   0  0  0  0  0  0  0  0  0  0  0  0
  148.2490  145.2246  158.6723 H   0  0  0  0  0  0  0  0  0  0  0  0
  150.2215  143.6166  160.2152 H   0  0  0  0  0  0  0  0  0  0  0  0
  150.5279  145.7734  158.1851 H   0  0  0  0  0  0  0  0  0  0  0  0
  151.6424  145.2927  159.4590 H   0  0  0  0  0  0  0  0  0  0  0  0
  152.1808  144.6441  156.8694 H   0  0  0  0  0  0  0  0  0  0  0  0
  152.4687  143.4372  158.1337 H   0  0  0  0  0  0  0  0  0  0  0  0
  151.6579  142.3889  155.4574 H   0  0  0  0  0  0  0  0  0  0  0  0
  151.5761  141.3156  156.8460 H   0  0  0  0  0  0  0  0  0  0  0  0
  149.2700  142.1271  154.9901 H   0  0  0  0  0  0  0  0  0  0  0  0
  149.9605  140.5298  155.1228 H   0  0  0  0  0  0  0  0  0  0  0  0
  147.7523  140.7684  156.3490 H   0  0  0  0  0  0  0  0  0  0  0  0
  149.0576  140.2470  157.3835 H   0  0  0  0  0  0  0  0  0  0  0  0
  147.9198  143.0849  157.2034 H   0  0  0  0  0  0  0  0  0  0  0  0
  147.8014  141.9845  158.5639 H   0  0  0  0  0  0  0  0  0  0  0  0
  150.2936  141.9659  158.7648 H   0  0  0  0  0  0  0  0  0  0  0  0
  150.0670  143.8003  156.5526 H   0  0  0  0  0  0  0  0  0  0  0  0
  1  2  2  0  0  0  0
  2  3  1  0  0  0  0
  2  9  1  0  0  0  0
  3  4  1  0  0  0  0
  3 19  1  0  0  0  0
  3 20  1  0  0  0  0
  4  8  1  0  0  0  0
  4  5  1  0  0  0  0
  5  6  2  0  0  0  0
  5 21  1  0  0  0  0
  6  7  1  0  0  0  0
  6 22  1  0  0  0  0
  7  8  2  0  0  0  0
  7 23  1  0  0  0  0
  9 10  1  0  0  0  0
  9 24  1  0  0  0  0
 10 18  1  0  0  0  0
 10 11  1  0  0  0  0
 10 25  1  0  0  0  0
 11 12  1  0  0  0  0
 11 26  1  0  0  0  0
 11 27  1  0  0  0  0
 12 13  1  0  0  0  0
 12 28  1  0  0  0  0
 12 29  1  0  0  0  0
 13 18  1  0  0  0  0
 13 14  1  0  0  0  0
 13 39  1  0  0  0  0
 14 15  1  0  0  0  0
 14 30  1  0  0  0  0
 14 31  1  0  0  0  0
 15 16  1  0  0  0  0
 15 32  1  0  0  0  0
 15 33  1  0  0  0  0
 16 17  1  0  0  0  0
 16 34  1  0  0  0  0
 16 35  1  0  0  0  0
 17 18  1  0  0  0  0
 17 36  1  0  0  0  0
 17 37  1  0  0  0  0
 18 38  1  0  0  0  0
M  CHG  1  13   1
M  END
> <s_m_source_file>
AV-unprocessed.smi

> <i_m_source_file_index>
2171

> <i_lp_mmshare_version>
43012

> <i_f3d_flags>
0

> <s_epik_input>
bjFbY0hdW2NIXVtjSF1uMVtDSDJdQyg9TylbTkhdW0NASF0oW0NIMl1bQ0gyXTIpW0NAQEhdKE4yMylbQ0gyXVtDSDJdW0NIMl1bQ0gyXTM=

> <s_epik_cmdline>
J2VwaWtfcHl0aG9uJywgJy1waCcsICc3LjAnLCAnLXRuJywgJzgnLCAnLW1hJywgJzIwMCcsICctbWV0YWxfYmluZGluZycsICctaW1hZScsICc8aW5maWxlLm1hZT4nLCAnLW9tYWUnLCAnPG91dGZpbGUubWFlPic=

> <r_lp_tautomer_probability>
1

> <r_epik_Ionization_Penalty>
0.00204179

> <r_epik_Ionization_Penalty_Charging>
0.00203239

> <r_epik_Ionization_Penalty_Neutral>
9.40205e-06

> <r_epik_State_Penalty>
0.00138983

> <r_epik_Charging_Adjusted_Penalty>
0.00342221

> <i_epik_Tot_Q>
1

> <i_epik_Tot_abs_Q>
1

> <r_epik_Metal_State_Penalty>
-0

> <b_epik_Metal_Only>
0

> <s_lp_Force_Field>
OPLS_2005

> <r_lp_Energy>
41.8247

> <b_lp_Chiralities_Consistent>
1

> <s_lp_Variant>
AV-unprocessed.smi:2171-5

> <Gold.Version>
5.8.1

> <Gold.Id.Protein>
6NUR|6NUR_protein|mol2

> <Gold.PLP.Fitness>
48.3749

> <Gold.PLP.PLP>
-36.9552

> <Gold.PLP.part.hbond>
-3.0000

> <Gold.PLP.part.metal>
0.0000

> <Gold.PLP.part.buried>
-7.2774

> <Gold.PLP.part.nonpolar>
-27.2093

> <Gold.PLP.part.repulsive>
0.4377

> <Gold.PLP.ligand.clash>
0.0000

> <Gold.PLP.ligand.torsion>
0.1349

> <Gold.PLP.Chemscore.Hbond>
3.8960

> <Gold.PLP.Chemscore.CHOScore>
0.0000

> <Gold.PLP.Chemscore.Metal>
0.0000

> <Gold.Chemscore.Hbonds>
donor molecule, donor type, donor heavy atom, donor atom, acceptor molecule, acceptor atom, score
      L1  H     9    24       P1  8029  1.00
      L1  H    13    39       P1  8028  2.00
      P1  H  6933  6944       L1     1  0.91

> <Gold.PLP.Chemscore.Internal.Correction>
0.0016

> <Gold.Rescore>
     Score         DG    S(hbond)    S(metal)    S(lipo)     H(rot)  DE(clash)    DE(int)     intcor
     21.04     -21.32       2.91        0.00      83.96       1.44       0.06       0.23       ----

> <Gold.Chemscore.Fitness>
21.0369

> <Gold.Chemscore.DG>
-21.3233

> <Gold.Chemscore.ZeroCoef>
-5.4800

> <Gold.Chemscore.Hbond>
2.9068

> <Gold.Chemscore.Metal>
0.0000

> <Gold.Chemscore.Lipo>
83.9632

> <Gold.Chemscore.Internal_Hbond>
0.0000

> <Gold.Chemscore.DEClash>
0.0578

> <Gold.Chemscore.DEInternal>
0.2286

> <Gold.Chemscore.Rot>
1.4410

> <Gold.Chemscore.Internal.Correction>
   9.000000E+99

> <Gold.Chemscore.Hbonds>
donor molecule, donor type, donor heavy atom, donor atom, acceptor molecule, acceptor atom, score
      L1  H     9    24       P1  8029  0.99
      L1  H    13    39       P1  8028  1.00
      P1  H  6933  6944       L1     1  0.85

> <Gold.Chemscore.Hbond.Weighted>
-9.7086

> <Gold.Chemscore.Metal.Weighted>
-0.0000

> <Gold.Chemscore.Lipo.Weighted>
-9.8237

> <Gold.Chemscore.Internal_Hbond.Weighted>
0.0000

> <Gold.Chemscore.DEClash.Weighted>
0.0578

> <Gold.Chemscore.DEInternal.Weighted>
0.2286

> <Gold.Chemscore.Rot.Weighted>
3.6889

> <Gold.Chemscore.Internal.Correction.Weighted>
   9.000000E+99

> <Gold.Protein.RotatedTorsions>
[ 6907 6896 6895 6894 ] final  121.69 input  -60.11 | X-H torsion
[ 7974 7965 7964 7962 ] final -147.98 input  175.53 | X-H torsion
[ 8008 7997 7996 7995 ] final -139.46 input   59.86 | X-H torsion
[ 10167 10162 10161 10158 ] final -145.57 input  -65.29 | X-H torsion
[ 10718 10713 10712 10709 ] final   43.33 input   66.30 | X-H torsion
[ 10763 10752 10751 10750 ] final   85.46 input  -60.55 | X-H torsion
[ 11005 11000 10999 10996 ] final  -17.38 input  -57.11 | X-H torsion

> <Gold.Protein.ActiveResidues>
 VAL166  LYS551  ARG553  GLY616  TRP617  ASP618  TYR619  PRO620  LYS621  CYS622 
 ASP623  PHE694  ASN695  SER759  ASP760  ASP761  ALA762  ILE779  LEU786  VAL792 
 PHE793  MET794  SER795  GLU796  ALA797  LYS798  CYS799  TRP800  GLU811  SER814 

> <Gold.Protein.RotatedAtoms>
  152.4302  133.7264  159.6562 H   0  0  0  0  0  0  0  0  0  0  0  0  # atno 6907 bound_to 6896
  150.8181  133.8291  159.3157 H   0  0  0  0  0  0  0  0  0  0  0  0  # atno 6908 bound_to 6896
  151.5981  135.1051  160.0106 H   0  0  0  0  0  0  0  0  0  0  0  0  # atno 6909 bound_to 6896
  144.8059  140.5257  143.5675 H   0  0  0  0  0  0  0  0  0  0  0  0  # atno 7974 bound_to 7965
  155.4451  140.0534  157.3006 H   0  0  0  0  0  0  0  0  0  0  0  0  # atno 8008 bound_to 7997
  154.4801  140.2078  155.9741 H   0  0  0  0  0  0  0  0  0  0  0  0  # atno 8009 bound_to 7997
  156.1192  140.3191  155.8189 H   0  0  0  0  0  0  0  0  0  0  0  0  # atno 8010 bound_to 7997
  139.7793  143.8124  152.2636 H   0  0  0  0  0  0  0  0  0  0  0  0  # atno 10167 bound_to 10162
  157.4147  130.7934  149.7461 H   0  0  0  0  0  0  0  0  0  0  0  0  # atno 10718 bound_to 10713
  153.1477  135.4616  154.9590 H   0  0  0  0  0  0  0  0  0  0  0  0  # atno 10763 bound_to 10752
  154.7799  135.3185  154.8014 H   0  0  0  0  0  0  0  0  0  0  0  0  # atno 10764 bound_to 10752
  153.8525  135.6920  153.4845 H   0  0  0  0  0  0  0  0  0  0  0  0  # atno 10765 bound_to 10752
  140.8163  133.8102  155.9614 H   0  0  0  0  0  0  0  0  0  0  0  0  # atno 11005 bound_to 11000
  145.5440  139.1475  143.3431 LP  0  0  0  0  0  0  0  0  0  0  0  0  # atno 17320 bound_to 7965
  146.2350  140.5579  142.8959 LP  0  0  0  0  0  0  0  0  0  0  0  0  # atno 17321 bound_to 7965
  139.8182  144.7307  150.9608 LP  0  0  0  0  0  0  0  0  0  0  0  0  # atno 17342 bound_to 10162
  140.7818  143.4185  151.0879 LP  0  0  0  0  0  0  0  0  0  0  0  0  # atno 17343 bound_to 10162
  155.9861  130.3977  150.3227 LP  0  0  0  0  0  0  0  0  0  0  0  0  # atno 17370 bound_to 10713
  157.1369  131.0286  151.2945 LP  0  0  0  0  0  0  0  0  0  0  0  0  # atno 17371 bound_to 10713
  140.9146  134.2218  157.4965 LP  0  0  0  0  0  0  0  0  0  0  0  0  # atno 17394 bound_to 11000
  139.8711  134.9765  156.4924 LP  0  0  0  0  0  0  0  0  0  0  0  0  # atno 17395 bound_to 11000

$$$$
