AV-unprocessed.smi:3353|AV-procd|sdf|12954|dock4
  -GOLD-   2272019393D 1   1.00000     0.00000
 Structure written by MMmdl.
 43 44  0  0  0  0  0  0  0  0  2 V2000
  151.2582  141.3280  157.4247 C   0  0  0  0  0  0  0  0  0  0  0  0
  152.0926  140.1346  156.9441 C   0  0  0  0  0  0  0  0  0  0  0  0
  151.3888  139.3543  155.9451 N   0  0  0  0  0  0  0  0  0  0  0  0
  151.0405  138.0191  155.9951 C   0  0  0  0  0  0  0  0  0  0  0  0
  150.3932  137.7620  154.8196 C   0  0  0  0  0  0  0  0  0  0  0  0
  149.8259  136.5504  154.3504 N   0  0  0  0  0  0  0  0  0  0  0  0
  149.7574  135.3770  155.0000 C   0  0  0  0  0  0  0  0  0  0  0  0
  150.1849  135.1705  156.1357 O   0  0  0  0  0  0  0  0  0  0  0  0
  149.1576  134.4417  154.2510 N   0  0  0  0  0  0  0  0  0  0  0  0
  148.9251  133.0582  154.6563 C   0  0  0  0  0  0  0  0  0  0  0  0
  149.3778  132.0525  153.5701 C   0  0  1  0  0  0  0  0  0  0  0  0
  149.8347  130.7206  154.2079 C   0  0  0  0  0  0  0  0  0  0  0  0
  148.2941  131.8220  152.5696 N   0  3  0  0  0  0  0  0  0  0  0  0
  147.2010  130.9316  153.0172 C   0  0  0  0  0  0  0  0  0  0  0  0
  146.0195  131.2047  152.0836 C   0  0  0  0  0  0  0  0  0  0  0  0
  146.2921  132.5801  151.4698 C   0  0  0  0  0  0  0  0  0  0  0  0
  147.6207  133.0421  152.0732 C   0  0  0  0  0  0  0  0  0  0  0  0
  150.3853  138.9886  154.1059 C   0  0  0  0  0  0  0  0  0  0  0  0
  150.9895  139.9465  154.7923 N   0  0  0  0  0  0  0  0  0  0  0  0
  151.7967  141.8977  158.1821 H   0  0  0  0  0  0  0  0  0  0  0  0
  150.3163  140.9973  157.8632 H   0  0  0  0  0  0  0  0  0  0  0  0
  151.0266  142.0052  156.6021 H   0  0  0  0  0  0  0  0  0  0  0  0
  153.0381  140.4770  156.5213 H   0  0  0  0  0  0  0  0  0  0  0  0
  152.3380  139.4844  157.7847 H   0  0  0  0  0  0  0  0  0  0  0  0
  151.2809  137.3956  156.8435 H   0  0  0  0  0  0  0  0  0  0  0  0
  149.4312  136.5829  153.4218 H   0  0  0  0  0  0  0  0  0  0  0  0
  148.8366  134.7070  153.3313 H   0  0  0  0  0  0  0  0  0  0  0  0
  149.4365  132.8321  155.5938 H   0  0  0  0  0  0  0  0  0  0  0  0
  147.8571  132.9691  154.8537 H   0  0  0  0  0  0  0  0  0  0  0  0
  150.2321  132.4819  153.0437 H   0  0  0  0  0  0  0  0  0  0  0  0
  150.6193  130.8731  154.9489 H   0  0  0  0  0  0  0  0  0  0  0  0
  150.2484  130.0345  153.4694 H   0  0  0  0  0  0  0  0  0  0  0  0
  149.0059  130.2168  154.7063 H   0  0  0  0  0  0  0  0  0  0  0  0
  147.4930  129.8814  152.9967 H   0  0  0  0  0  0  0  0  0  0  0  0
  146.9212  131.1853  154.0413 H   0  0  0  0  0  0  0  0  0  0  0  0
  145.9770  130.4504  151.2969 H   0  0  0  0  0  0  0  0  0  0  0  0
  145.0705  131.1734  152.6199 H   0  0  0  0  0  0  0  0  0  0  0  0
  146.3785  132.4904  150.3861 H   0  0  0  0  0  0  0  0  0  0  0  0
  145.4904  133.2897  151.6776 H   0  0  0  0  0  0  0  0  0  0  0  0
  147.4260  133.7156  152.9097 H   0  0  0  0  0  0  0  0  0  0  0  0
  148.2294  133.5765  151.3434 H   0  0  0  0  0  0  0  0  0  0  0  0
  149.9705  139.2115  153.1338 H   0  0  0  0  0  0  0  0  0  0  0  0
  148.7125  131.3795  151.7636 H   0  0  0  0  0  0  0  0  0  0  0  0
  1  2  1  0  0  0  0
  1 20  1  0  0  0  0
  1 21  1  0  0  0  0
  1 22  1  0  0  0  0
  2  3  1  0  0  0  0
  2 23  1  0  0  0  0
  2 24  1  0  0  0  0
  3 19  1  0  0  0  0
  3  4  1  0  0  0  0
  4  5  2  0  0  0  0
  4 25  1  0  0  0  0
  5  6  1  0  0  0  0
  5 18  1  0  0  0  0
  6  7  1  0  0  0  0
  6 26  1  0  0  0  0
  7  8  2  0  0  0  0
  7  9  1  0  0  0  0
  9 10  1  0  0  0  0
  9 27  1  0  0  0  0
 10 11  1  0  0  0  0
 10 28  1  0  0  0  0
 10 29  1  0  0  0  0
 11 12  1  0  0  0  0
 11 13  1  0  0  0  0
 11 30  1  0  0  0  0
 12 31  1  0  0  0  0
 12 32  1  0  0  0  0
 12 33  1  0  0  0  0
 13 17  1  0  0  0  0
 13 14  1  0  0  0  0
 13 43  1  0  0  0  0
 14 15  1  0  0  0  0
 14 34  1  0  0  0  0
 14 35  1  0  0  0  0
 15 16  1  0  0  0  0
 15 36  1  0  0  0  0
 15 37  1  0  0  0  0
 16 17  1  0  0  0  0
 16 38  1  0  0  0  0
 16 39  1  0  0  0  0
 17 40  1  0  0  0  0
 17 41  1  0  0  0  0
 18 19  2  0  0  0  0
 18 42  1  0  0  0  0
M  CHG  1  13   1
M  END
> <s_m_source_file>
AV-unprocessed.smi

> <i_m_source_file_index>
3353

> <i_lp_mmshare_version>
43012

> <i_f3d_flags>
0

> <s_epik_input>
W0NIM11bQ0gyXW4xW2NIXWMoW2NIXW4xKVtOSF1DKD1PKVtOSF1bQ0gyXVtDQEhdKFtDSDNdKU4yW0NIMl1bQ0gyXVtDSDJdW0NIMl0y

> <s_epik_cmdline>
J2VwaWtfcHl0aG9uJywgJy1waCcsICc3LjAnLCAnLXRuJywgJzgnLCAnLW1hJywgJzIwMCcsICctbWV0YWxfYmluZGluZycsICctaW1hZScsICc8aW5maWxlLm1hZT4nLCAnLW9tYWUnLCAnPG91dGZpbGUubWFlPic=

> <r_lp_tautomer_probability>
1

> <r_epik_Ionization_Penalty>
0.000914091

> <r_epik_Ionization_Penalty_Charging>
0.000761583

> <r_epik_Ionization_Penalty_Neutral>
0.000152508

> <r_epik_State_Penalty>
0.000487427

> <r_epik_Charging_Adjusted_Penalty>
0.00124901

> <i_epik_Tot_Q>
1

> <i_epik_Tot_abs_Q>
1

> <r_epik_Metal_State_Penalty>
-0

> <b_epik_Metal_Only>
0

> <s_lp_Force_Field>
OPLS_2005

> <r_lp_Energy>
35.4291

> <b_lp_Chiralities_Consistent>
1

> <s_lp_Variant>
AV-unprocessed.smi:3353-2

> <Gold.Version>
5.8.1

> <Gold.Id.Protein>
6NUR|6NUR_protein|mol2

> <Gold.PLP.Fitness>
46.6945

> <Gold.PLP.PLP>
-33.3834

> <Gold.PLP.part.hbond>
-4.3595

> <Gold.PLP.part.metal>
0.0000

> <Gold.PLP.part.buried>
-3.5887

> <Gold.PLP.part.nonpolar>
-25.0857

> <Gold.PLP.part.repulsive>
0.1370

> <Gold.PLP.ligand.clash>
0.0000

> <Gold.PLP.ligand.torsion>
0.5878

> <Gold.PLP.Chemscore.Hbond>
3.8140

> <Gold.PLP.Chemscore.CHOScore>
1.0000

> <Gold.PLP.Chemscore.Metal>
0.0000

> <Gold.Chemscore.Hbonds>
donor molecule, donor type, donor heavy atom, donor atom, acceptor molecule, acceptor atom, score
      L1  H     6    26       P1  7948  1.00
      L1  H     9    27       P1  7948  0.77
      L1  H    13    43       P1 10747  1.00
      P1  H  7989  7998       L1    19  1.00
      L1  C    18    42       P1  7957  1.00

> <Gold.PLP.Chemscore.Internal.Correction>
0.0447

> <Gold.Rescore>
     Score         DG    S(hbond)    S(metal)    S(lipo)     H(rot)  DE(clash)    DE(int)     intcor
     17.34     -19.09       2.72        0.00      73.80       1.61       0.22       1.52       ----

> <Gold.Chemscore.Fitness>
17.3443

> <Gold.Chemscore.DG>
-19.0870

> <Gold.Chemscore.ZeroCoef>
-5.4800

> <Gold.Chemscore.Hbond>
2.7239

> <Gold.Chemscore.Metal>
0.0000

> <Gold.Chemscore.Lipo>
73.8047

> <Gold.Chemscore.Internal_Hbond>
0.0000

> <Gold.Chemscore.DEClash>
0.2210

> <Gold.Chemscore.DEInternal>
1.5217

> <Gold.Chemscore.Rot>
1.6117

> <Gold.Chemscore.Internal.Correction>
   9.000000E+99

> <Gold.Chemscore.Hbonds>
donor molecule, donor type, donor heavy atom, donor atom, acceptor molecule, acceptor atom, score
      L1  H     6    26       P1  7948  0.82
      L1  H     9    27       P1  7948  0.19
      L1  H    13    43       P1 10747  0.95
      P1  H  7989  7998       L1    19  0.26

> <Gold.Chemscore.Hbond.Weighted>
-9.0979

> <Gold.Chemscore.Metal.Weighted>
-0.0000

> <Gold.Chemscore.Lipo.Weighted>
-8.6352

> <Gold.Chemscore.Internal_Hbond.Weighted>
0.0000

> <Gold.Chemscore.DEClash.Weighted>
0.2210

> <Gold.Chemscore.DEInternal.Weighted>
1.5217

> <Gold.Chemscore.Rot.Weighted>
4.1260

> <Gold.Chemscore.Internal.Correction.Weighted>
   9.000000E+99

> <Gold.Protein.RotatedTorsions>
[ 6907 6896 6895 6894 ] final  170.48 input  -60.11 | X-H torsion
[ 7974 7965 7964 7962 ] final -106.30 input  175.53 | X-H torsion
[ 8008 7997 7996 7995 ] final   39.46 input   59.86 | X-H torsion
[ 10167 10162 10161 10158 ] final -179.87 input  -65.29 | X-H torsion
[ 10718 10713 10712 10709 ] final  155.99 input   66.30 | X-H torsion
[ 10763 10752 10751 10750 ] final    4.08 input  -60.55 | X-H torsion
[ 11005 11000 10999 10996 ] final   39.27 input  -57.11 | X-H torsion

> <Gold.Protein.ActiveResidues>
 VAL166  LYS551  ARG553  GLY616  TRP617  ASP618  TYR619  PRO620  LYS621  CYS622 
 ASP623  PHE694  ASN695  SER759  ASP760  ASP761  ALA762  ILE779  LEU786  VAL792 
 PHE793  MET794  SER795  GLU796  ALA797  LYS798  CYS799  TRP800  GLU811  SER814 

> <Gold.Protein.RotatedAtoms>
  151.8154  133.3387  159.3567 H   0  0  0  0  0  0  0  0  0  0  0  0  # atno 6907 bound_to 6896
  150.7312  134.5624  159.5858 H   0  0  0  0  0  0  0  0  0  0  0  0  # atno 6908 bound_to 6896
  152.3044  134.7573  160.0402 H   0  0  0  0  0  0  0  0  0  0  0  0  # atno 6909 bound_to 6896
  145.2196  140.9129  143.3267 H   0  0  0  0  0  0  0  0  0  0  0  0  # atno 7974 bound_to 7965
  155.2370  140.3342  155.4296 H   0  0  0  0  0  0  0  0  0  0  0  0  # atno 8008 bound_to 7997
  156.2271  140.1834  156.7380 H   0  0  0  0  0  0  0  0  0  0  0  0  # atno 8009 bound_to 7997
  154.5917  140.0637  156.9233 H   0  0  0  0  0  0  0  0  0  0  0  0  # atno 8010 bound_to 7997
  139.5367  144.2478  152.0809 H   0  0  0  0  0  0  0  0  0  0  0  0  # atno 10167 bound_to 10162
  157.2109  131.0697  151.1970 H   0  0  0  0  0  0  0  0  0  0  0  0  # atno 10718 bound_to 10713
  153.2756  135.6936  153.7437 H   0  0  0  0  0  0  0  0  0  0  0  0  # atno 10763 bound_to 10752
  153.6444  135.3388  155.3082 H   0  0  0  0  0  0  0  0  0  0  0  0  # atno 10764 bound_to 10752
  154.8478  135.4439  154.1792 H   0  0  0  0  0  0  0  0  0  0  0  0  # atno 10765 bound_to 10752
  140.2045  134.3830  155.8079 H   0  0  0  0  0  0  0  0  0  0  0  0  # atno 11005 bound_to 11000
  144.9778  139.3814  143.6277 LP  0  0  0  0  0  0  0  0  0  0  0  0  # atno 17320 bound_to 7965
  146.3379  139.8905  142.8810 LP  0  0  0  0  0  0  0  0  0  0  0  0  # atno 17321 bound_to 7965
  140.1949  144.4715  150.6460 LP  0  0  0  0  0  0  0  0  0  0  0  0  # atno 17342 bound_to 10162
  140.6577  143.2242  151.5930 LP  0  0  0  0  0  0  0  0  0  0  0  0  # atno 17343 bound_to 10162
  157.3673  130.7162  149.6541 LP  0  0  0  0  0  0  0  0  0  0  0  0  # atno 17370 bound_to 10713
  155.9691  130.4209  150.4442 LP  0  0  0  0  0  0  0  0  0  0  0  0  # atno 17371 bound_to 10713
  141.2227  133.7111  156.8313 LP  0  0  0  0  0  0  0  0  0  0  0  0  # atno 17394 bound_to 11000
  140.2018  134.8891  157.3178 LP  0  0  0  0  0  0  0  0  0  0  0  0  # atno 17395 bound_to 11000

$$$$
