AV-unprocessed.smi:3164|AV-procd|sdf|12082|dock9
  -GOLD-   2272017513D 1   1.00000     0.00000
 Structure written by MMmdl.
 40 41  0  0  0  0  0  0  0  0  3 V2000
  143.3893  132.6918  148.9276 C   0  0  0  0  0  0  0  0  0  0  0  0
  144.6318  133.2583  149.4947 N   0  3  2  0  0  0  0  0  0  0  0  0
  145.3219  132.3186  150.4070 C   0  0  0  0  0  0  0  0  0  0  0  0
  146.6212  132.9473  150.9356 C   0  0  0  0  0  0  0  0  0  0  0  0
  146.3234  134.1831  151.5748 O   0  0  0  0  0  0  0  0  0  0  0  0
  145.7483  135.1347  150.6835 C   0  0  2  0  0  0  0  0  0  0  0  0
  145.5487  136.4465  151.4577 C   0  0  0  0  0  0  0  0  0  0  0  0
  146.5806  137.4374  151.0937 N   0  3  0  0  0  0  0  0  0  0  0  0
  146.4412  138.7445  151.7671 C   0  0  0  0  0  0  0  0  0  0  0  0
  146.5855  138.6128  153.2926 C   0  0  0  0  0  0  0  0  0  0  0  0
  147.5946  139.5867  153.8785 C   0  0  0  0  0  0  0  0  0  0  0  0
  148.8663  139.1395  154.2957 C   0  0  0  0  0  0  0  0  0  0  0  0
  149.7741  140.0844  154.8126 C   0  0  0  0  0  0  0  0  0  0  0  0
  149.3782  141.4334  154.8896 C   0  0  0  0  0  0  0  0  0  0  0  0
  148.0864  141.7796  154.4474 C   0  0  0  0  0  0  0  0  0  0  0  0
  147.2091  140.8818  153.9480 N   0  0  0  0  0  0  0  0  0  0  0  0
  144.4156  134.5682  150.1522 C   0  0  0  0  0  0  0  0  0  0  0  0
  142.6587  132.4859  149.7110 H   0  0  0  0  0  0  0  0  0  0  0  0
  143.5975  131.7600  148.4005 H   0  0  0  0  0  0  0  0  0  0  0  0
  142.9412  133.3846  148.2146 H   0  0  0  0  0  0  0  0  0  0  0  0
  144.6640  132.0667  151.2406 H   0  0  0  0  0  0  0  0  0  0  0  0
  145.5450  131.3891  149.8817 H   0  0  0  0  0  0  0  0  0  0  0  0
  147.0948  132.2813  151.6571 H   0  0  0  0  0  0  0  0  0  0  0  0
  147.3381  133.1037  150.1278 H   0  0  0  0  0  0  0  0  0  0  0  0
  146.4282  135.3118  149.8477 H   0  0  0  0  0  0  0  0  0  0  0  0
  144.5670  136.8682  151.2378 H   0  0  0  0  0  0  0  0  0  0  0  0
  145.5852  136.2557  152.5311 H   0  0  0  0  0  0  0  0  0  0  0  0
  147.4835  137.0580  151.3441 H   0  0  0  0  0  0  0  0  0  0  0  0
  147.2002  139.4246  151.3787 H   0  0  0  0  0  0  0  0  0  0  0  0
  145.4693  139.1789  151.5282 H   0  0  0  0  0  0  0  0  0  0  0  0
  145.6188  138.7625  153.7758 H   0  0  0  0  0  0  0  0  0  0  0  0
  146.8912  137.5960  153.5422 H   0  0  0  0  0  0  0  0  0  0  0  0
  149.1438  138.0980  154.2207 H   0  0  0  0  0  0  0  0  0  0  0  0
  150.7566  139.7802  155.1421 H   0  0  0  0  0  0  0  0  0  0  0  0
  150.0485  142.1852  155.2796 H   0  0  0  0  0  0  0  0  0  0  0  0
  147.7498  142.8047  154.4906 H   0  0  0  0  0  0  0  0  0  0  0  0
  143.9716  135.2645  149.4393 H   0  0  0  0  0  0  0  0  0  0  0  0
  143.7031  134.4499  150.9706 H   0  0  0  0  0  0  0  0  0  0  0  0
  146.5626  137.5840  150.0942 H   0  0  0  0  0  0  0  0  0  0  0  0
  145.2567  133.4201  148.7174 H   0  0  0  0  0  0  0  0  0  0  0  0
  1  2  1  0  0  0  0
  1 18  1  0  0  0  0
  1 19  1  0  0  0  0
  1 20  1  0  0  0  0
  2 17  1  0  0  0  0
  2  3  1  0  0  0  0
  2 40  1  0  0  0  0
  3  4  1  0  0  0  0
  3 21  1  0  0  0  0
  3 22  1  0  0  0  0
  4  5  1  0  0  0  0
  4 23  1  0  0  0  0
  4 24  1  0  0  0  0
  5  6  1  0  0  0  0
  6  7  1  0  0  0  0
  6 17  1  0  0  0  0
  6 25  1  0  0  0  0
  7  8  1  0  0  0  0
  7 26  1  0  0  0  0
  7 27  1  0  0  0  0
  8  9  1  0  0  0  0
  8 28  1  0  0  0  0
  8 39  1  0  0  0  0
  9 10  1  0  0  0  0
  9 29  1  0  0  0  0
  9 30  1  0  0  0  0
 10 11  1  0  0  0  0
 10 31  1  0  0  0  0
 10 32  1  0  0  0  0
 11 16  1  0  0  0  0
 11 12  2  0  0  0  0
 12 13  1  0  0  0  0
 12 33  1  0  0  0  0
 13 14  2  0  0  0  0
 13 34  1  0  0  0  0
 14 15  1  0  0  0  0
 14 35  1  0  0  0  0
 15 16  2  0  0  0  0
 15 36  1  0  0  0  0
 17 37  1  0  0  0  0
 17 38  1  0  0  0  0
M  CHG  1   2   1
M  CHG  1   8   1
M  END
> <s_m_source_file>
AV-unprocessed.smi

> <i_m_source_file_index>
3164

> <i_lp_mmshare_version>
43012

> <i_f3d_flags>
0

> <s_epik_input>
W0NIM11OMVtDSDJdW0NIMl1PW0NASF0oW0NIMl0xKVtDSDJdW05IXVtDSDJdW0NIMl1jMltjSF1bY0hdW2NIXVtjSF1uMg==

> <s_epik_cmdline>
J2VwaWtfcHl0aG9uJywgJy1waCcsICc3LjAnLCAnLXRuJywgJzgnLCAnLW1hJywgJzIwMCcsICctbWV0YWxfYmluZGluZycsICctaW1hZScsICc8aW5maWxlLm1hZT4nLCAnLW9tYWUnLCAnPG91dGZpbGUubWFlPic=

> <r_epik_Ionization_Penalty>
0.294944

> <r_epik_Ionization_Penalty_Charging>
0.29381

> <r_epik_Ionization_Penalty_Neutral>
0.00113372

> <r_epik_State_Penalty>
0.271365

> <r_epik_Charging_Adjusted_Penalty>
0.565175

> <i_epik_Tot_Q>
2

> <i_epik_Tot_abs_Q>
2

> <r_epik_Metal_State_Penalty>
0.271365

> <b_epik_Metal_Only>
0

> <s_lp_Force_Field>
OPLS_2005

> <r_lp_Energy>
22.5841

> <b_lp_Chiralities_Consistent>
1

> <s_lp_Variant>
AV-unprocessed.smi:3164-4

> <Gold.Version>
5.8.1

> <Gold.Id.Protein>
6NUR|6NUR_protein|mol2

> <Gold.PLP.Fitness>
44.3472

> <Gold.PLP.PLP>
-34.8215

> <Gold.PLP.part.hbond>
-2.2902

> <Gold.PLP.part.metal>
0.0000

> <Gold.PLP.part.buried>
0.6842

> <Gold.PLP.part.nonpolar>
-33.9829

> <Gold.PLP.part.repulsive>
1.4270

> <Gold.PLP.ligand.clash>
0.0000

> <Gold.PLP.ligand.torsion>
1.1487

> <Gold.PLP.Chemscore.Hbond>
2.9280

> <Gold.PLP.Chemscore.CHOScore>
1.0000

> <Gold.PLP.Chemscore.Metal>
0.0000

> <Gold.Chemscore.Hbonds>
donor molecule, donor type, donor heavy atom, donor atom, acceptor molecule, acceptor atom, score
      L1  H     2    40       P1  7921  0.91
      L1  H     8    28       P1  7948  2.00
      L1  C    15    36       P1  8028  0.97

> <Gold.PLP.Chemscore.Internal.Correction>
0.0390

> <Gold.Rescore>
     Score         DG    S(hbond)    S(metal)    S(lipo)     H(rot)  DE(clash)    DE(int)     intcor
     15.67     -18.82       1.84        0.00      97.54       1.65       1.95       1.19       ----

> <Gold.Chemscore.Fitness>
15.6744

> <Gold.Chemscore.DG>
-18.8212

> <Gold.Chemscore.ZeroCoef>
-5.4800

> <Gold.Chemscore.Hbond>
1.8387

> <Gold.Chemscore.Metal>
0.0000

> <Gold.Chemscore.Lipo>
97.5406

> <Gold.Chemscore.Internal_Hbond>
0.0000

> <Gold.Chemscore.DEClash>
1.9547

> <Gold.Chemscore.DEInternal>
1.1921

> <Gold.Chemscore.Rot>
1.6454

> <Gold.Chemscore.Internal.Correction>
   9.000000E+99

> <Gold.Chemscore.Hbonds>
donor molecule, donor type, donor heavy atom, donor atom, acceptor molecule, acceptor atom, score
      L1  H     2    40       P1  7921  0.39
      L1  H     8    28       P1  7948  1.00

> <Gold.Chemscore.Hbond.Weighted>
-6.1412

> <Gold.Chemscore.Metal.Weighted>
-0.0000

> <Gold.Chemscore.Lipo.Weighted>
-11.4122

> <Gold.Chemscore.Internal_Hbond.Weighted>
0.0000

> <Gold.Chemscore.DEClash.Weighted>
1.9547

> <Gold.Chemscore.DEInternal.Weighted>
1.1921

> <Gold.Chemscore.Rot.Weighted>
4.2122

> <Gold.Chemscore.Internal.Correction.Weighted>
   9.000000E+99

> <Gold.Protein.RotatedTorsions>
[ 6907 6896 6895 6894 ] final   62.59 input  -60.11 | X-H torsion
[ 7974 7965 7964 7962 ] final   48.18 input  175.53 | X-H torsion
[ 8008 7997 7996 7995 ] final   59.73 input   59.86 | X-H torsion
[ 10167 10162 10161 10158 ] final  -25.39 input  -65.29 | X-H torsion
[ 10718 10713 10712 10709 ] final  -44.66 input   66.30 | X-H torsion
[ 10763 10752 10751 10750 ] final  -11.96 input  -60.55 | X-H torsion
[ 11005 11000 10999 10996 ] final -128.15 input  -57.11 | X-H torsion

> <Gold.Protein.ActiveResidues>
 VAL166  LYS551  ARG553  GLY616  TRP617  ASP618  TYR619  PRO620  LYS621  CYS622 
 ASP623  PHE694  ASN695  SER759  ASP760  ASP761  ALA762  ILE779  LEU786  VAL792 
 PHE793  MET794  SER795  GLU796  ALA797  LYS798  CYS799  TRP800  GLU811  SER814 

> <Gold.Protein.RotatedAtoms>
  152.4185  134.5999  159.9996 H   0  0  0  0  0  0  0  0  0  0  0  0  # atno 6907 bound_to 6896
  151.6155  133.3338  159.3084 H   0  0  0  0  0  0  0  0  0  0  0  0  # atno 6908 bound_to 6896
  150.8073  134.7244  159.6721 H   0  0  0  0  0  0  0  0  0  0  0  0  # atno 6909 bound_to 6896
  146.0228  139.4671  142.9886 H   0  0  0  0  0  0  0  0  0  0  0  0  # atno 7974 bound_to 7965
  155.5709  140.3490  155.4515 H   0  0  0  0  0  0  0  0  0  0  0  0  # atno 8008 bound_to 7997
  156.0445  140.1303  157.0144 H   0  0  0  0  0  0  0  0  0  0  0  0  # atno 8009 bound_to 7997
  154.4406  140.1017  156.6271 H   0  0  0  0  0  0  0  0  0  0  0  0  # atno 8010 bound_to 7997
  140.7286  143.4269  151.0862 H   0  0  0  0  0  0  0  0  0  0  0  0  # atno 10167 bound_to 10162
  156.2363  130.4176  149.8814 H   0  0  0  0  0  0  0  0  0  0  0  0  # atno 10718 bound_to 10713
  153.4915  135.7017  153.5882 H   0  0  0  0  0  0  0  0  0  0  0  0  # atno 10763 bound_to 10752
  153.4052  135.3862  155.2014 H   0  0  0  0  0  0  0  0  0  0  0  0  # atno 10764 bound_to 10752
  154.8716  135.3891  154.4375 H   0  0  0  0  0  0  0  0  0  0  0  0  # atno 10765 bound_to 10752
  140.9540  134.1026  157.4034 H   0  0  0  0  0  0  0  0  0  0  0  0  # atno 11005 bound_to 11000
  145.7166  141.0089  143.1425 LP  0  0  0  0  0  0  0  0  0  0  0  0  # atno 17320 bound_to 7965
  144.6997  139.8820  143.7448 LP  0  0  0  0  0  0  0  0  0  0  0  0  # atno 17321 bound_to 7965
  139.7922  143.8202  152.3153 LP  0  0  0  0  0  0  0  0  0  0  0  0  # atno 17342 bound_to 10162
  139.8190  144.7304  150.9597 LP  0  0  0  0  0  0  0  0  0  0  0  0  # atno 17343 bound_to 10162
  156.6411  130.8705  151.3514 LP  0  0  0  0  0  0  0  0  0  0  0  0  # atno 17370 bound_to 10713
  157.7156  130.9493  150.1242 LP  0  0  0  0  0  0  0  0  0  0  0  0  # atno 17371 bound_to 10713
  139.8856  135.0074  156.6447 LP  0  0  0  0  0  0  0  0  0  0  0  0  # atno 17394 bound_to 11000
  140.7562  133.8856  155.8383 LP  0  0  0  0  0  0  0  0  0  0  0  0  # atno 17395 bound_to 11000

$$$$
