AV-unprocessed.smi:2478|AV-procd|sdf|9766|dock8
  -GOLD-   2272013413D 1   1.00000     0.00000
 Structure written by MMmdl.
 42 43  0  0  0  0  0  0  0  0  1 V2000
  148.9989  137.5662  155.0666 C   0  0  0  0  0  0  0  0  0  0  0  0
  148.7228  138.9151  154.3824 C   0  0  1  0  0  0  0  0  0  0  0  0
  147.5729  138.7809  153.3632 C   0  0  0  0  0  0  0  0  0  0  0  0
  147.2606  140.1175  152.6732 C   0  0  0  0  0  0  0  0  0  0  0  0
  146.9440  141.2095  153.7041 C   0  0  0  0  0  0  0  0  0  0  0  0
  148.0927  141.3611  154.7111 C   0  0  0  0  0  0  0  0  0  0  0  0
  148.4120  140.0243  155.4127 C   0  0  2  0  0  0  0  0  0  0  0  0
  149.5574  140.2002  156.2362 O   0  0  0  0  0  0  0  0  0  0  0  0
  150.7472  140.5003  155.5203 C   0  0  0  0  0  0  0  0  0  0  0  0
  151.9401  140.2973  156.4501 C   0  0  0  0  0  0  0  0  0  0  0  0
  152.8417  139.5254  156.1241 O   0  0  0  0  0  0  0  0  0  0  0  0
  151.8985  140.9936  157.6007 N   0  0  0  0  0  0  0  0  0  0  0  0
  152.8431  141.0128  158.6623 C   0  0  0  0  0  0  0  0  0  0  0  0
  153.7813  140.0485  158.8362 N   0  0  0  0  0  0  0  0  0  0  0  0
  154.6441  140.1437  159.8679 C   0  0  0  0  0  0  0  0  0  0  0  0
  154.6265  141.2065  160.7870 C   0  0  0  0  0  0  0  0  0  0  0  0
  153.6589  142.2121  160.6193 C   0  0  0  0  0  0  0  0  0  0  0  0
  152.7412  142.1167  159.5460 C   0  0  0  0  0  0  0  0  0  0  0  0
  151.7778  143.0751  159.3154 O   0  0  0  0  0  0  0  0  0  0  0  0
  152.1455  144.3828  159.2609 C   0  0  0  0  0  0  0  0  0  0  0  0
  152.7392  144.6584  158.0738 F   0  0  0  0  0  0  0  0  0  0  0  0
  151.0484  145.1710  159.3644 F   0  0  0  0  0  0  0  0  0  0  0  0
  148.1365  137.2317  155.6440 H   0  0  0  0  0  0  0  0  0  0  0  0
  149.8487  137.6316  155.7467 H   0  0  0  0  0  0  0  0  0  0  0  0
  149.2273  136.7931  154.3325 H   0  0  0  0  0  0  0  0  0  0  0  0
  149.6231  139.2009  153.8361 H   0  0  0  0  0  0  0  0  0  0  0  0
  147.8276  138.0346  152.6100 H   0  0  0  0  0  0  0  0  0  0  0  0
  146.6760  138.4163  153.8660 H   0  0  0  0  0  0  0  0  0  0  0  0
  148.1128  140.4237  152.0649 H   0  0  0  0  0  0  0  0  0  0  0  0
  146.4200  139.9961  151.9895 H   0  0  0  0  0  0  0  0  0  0  0  0
  146.7651  142.1586  153.1980 H   0  0  0  0  0  0  0  0  0  0  0  0
  146.0230  140.9608  154.2326 H   0  0  0  0  0  0  0  0  0  0  0  0
  148.9823  141.7224  154.1929 H   0  0  0  0  0  0  0  0  0  0  0  0
  147.8326  142.1258  155.4426 H   0  0  0  0  0  0  0  0  0  0  0  0
  147.5558  139.7083  156.0125 H   0  0  0  0  0  0  0  0  0  0  0  0
  150.8639  139.8508  154.6525 H   0  0  0  0  0  0  0  0  0  0  0  0
  150.7212  141.5313  155.1638 H   0  0  0  0  0  0  0  0  0  0  0  0
  151.0903  141.5846  157.7318 H   0  0  0  0  0  0  0  0  0  0  0  0
  155.3714  139.3506  159.9608 H   0  0  0  0  0  0  0  0  0  0  0  0
  155.3389  141.2507  161.5975 H   0  0  0  0  0  0  0  0  0  0  0  0
  153.6326  143.0441  161.3072 H   0  0  0  0  0  0  0  0  0  0  0  0
  152.8229  144.6461  160.0738 H   0  0  0  0  0  0  0  0  0  0  0  0
  1  2  1  0  0  0  0
  1 23  1  0  0  0  0
  1 24  1  0  0  0  0
  1 25  1  0  0  0  0
  2  7  1  0  0  0  0
  2  3  1  0  0  0  0
  2 26  1  0  0  0  0
  3  4  1  0  0  0  0
  3 27  1  0  0  0  0
  3 28  1  0  0  0  0
  4  5  1  0  0  0  0
  4 29  1  0  0  0  0
  4 30  1  0  0  0  0
  5  6  1  0  0  0  0
  5 31  1  0  0  0  0
  5 32  1  0  0  0  0
  6  7  1  0  0  0  0
  6 33  1  0  0  0  0
  6 34  1  0  0  0  0
  7  8  1  0  0  0  0
  7 35  1  0  0  0  0
  8  9  1  0  0  0  0
  9 10  1  0  0  0  0
  9 36  1  0  0  0  0
  9 37  1  0  0  0  0
 10 11  2  0  0  0  0
 10 12  1  0  0  0  0
 12 13  1  0  0  0  0
 12 38  1  0  0  0  0
 13 18  1  0  0  0  0
 13 14  2  0  0  0  0
 14 15  1  0  0  0  0
 15 16  2  0  0  0  0
 15 39  1  0  0  0  0
 16 17  1  0  0  0  0
 16 40  1  0  0  0  0
 17 18  2  0  0  0  0
 17 41  1  0  0  0  0
 18 19  1  0  0  0  0
 19 20  1  0  0  0  0
 20 21  1  0  0  0  0
 20 22  1  0  0  0  0
 20 42  1  0  0  0  0
M  END
> <s_m_source_file>
AV-unprocessed.smi

> <i_m_source_file_index>
2478

> <i_lp_mmshare_version>
43012

> <i_f3d_flags>
0

> <s_epik_input>
W0NIM11bQ0BASF0xW0NIMl1bQ0gyXVtDSDJdW0NIMl1bQ0BIXTFPW0NIMl1DKD1PKVtOSF1jMm5bY0hdW2NIXVtjSF1jMk9bQ0hdKEYpRg==

> <s_epik_cmdline>
J2VwaWtfcHl0aG9uJywgJy1waCcsICc3LjAnLCAnLXRuJywgJzgnLCAnLW1hJywgJzIwMCcsICctbWV0YWxfYmluZGluZycsICctaW1hZScsICc8aW5maWxlLm1hZT4nLCAnLW9tYWUnLCAnPG91dGZpbGUubWFlPic=

> <r_lp_tautomer_probability>
1

> <r_epik_Ionization_Penalty>
6.06012e-05

> <r_epik_Ionization_Penalty_Charging>
0

> <r_epik_Ionization_Penalty_Neutral>
6.06012e-05

> <r_epik_State_Penalty>
-0

> <r_epik_Charging_Adjusted_Penalty>
0

> <i_epik_Tot_Q>
0

> <i_epik_Tot_abs_Q>
0

> <r_epik_Metal_State_Penalty>
-0

> <b_epik_Metal_Only>
0

> <s_lp_Force_Field>
OPLS_2005

> <r_lp_Energy>
13.1013

> <b_lp_Chiralities_Consistent>
1

> <s_lp_Variant>
AV-unprocessed.smi:2478-4

> <Gold.Version>
5.8.1

> <Gold.Id.Protein>
6NUR|6NUR_protein|mol2

> <Gold.PLP.Fitness>
49.8281

> <Gold.PLP.PLP>
-47.3827

> <Gold.PLP.part.hbond>
-2.0000

> <Gold.PLP.part.metal>
0.0000

> <Gold.PLP.part.buried>
-3.3876

> <Gold.PLP.part.nonpolar>
-40.5687

> <Gold.PLP.part.repulsive>
0.1091

> <Gold.PLP.ligand.clash>
0.0000

> <Gold.PLP.ligand.torsion>
0.3485

> <Gold.PLP.Chemscore.Hbond>
1.0218

> <Gold.PLP.Chemscore.CHOScore>
0.0000

> <Gold.PLP.Chemscore.Metal>
0.0000

> <Gold.Chemscore.Hbonds>
donor molecule, donor type, donor heavy atom, donor atom, acceptor molecule, acceptor atom, score
      P1  H  7997  8009       L1    14  0.18
      P1  H  7997  8010       L1    11  0.94

> <Gold.PLP.Chemscore.Internal.Correction>
0.0772

> <Gold.Rescore>
     Score         DG    S(hbond)    S(metal)    S(lipo)     H(rot)  DE(clash)    DE(int)     intcor
     13.33     -15.62       0.98        0.00      99.22       1.85       0.27       2.02       ----

> <Gold.Chemscore.Fitness>
13.3326

> <Gold.Chemscore.DG>
-15.6246

> <Gold.Chemscore.ZeroCoef>
-5.4800

> <Gold.Chemscore.Hbond>
0.9781

> <Gold.Chemscore.Metal>
0.0000

> <Gold.Chemscore.Lipo>
99.2204

> <Gold.Chemscore.Internal_Hbond>
0.0000

> <Gold.Chemscore.DEClash>
0.2749

> <Gold.Chemscore.DEInternal>
2.0171

> <Gold.Chemscore.Rot>
1.8481

> <Gold.Chemscore.Internal.Correction>
   9.000000E+99

> <Gold.Chemscore.Hbonds>
donor molecule, donor type, donor heavy atom, donor atom, acceptor molecule, acceptor atom, score
      P1  H  7997  8009       L1    14  0.01
      P1  H  7997  8010       L1    11  0.86

> <Gold.Chemscore.Hbond.Weighted>
-3.2669

> <Gold.Chemscore.Metal.Weighted>
-0.0000

> <Gold.Chemscore.Lipo.Weighted>
-11.6088

> <Gold.Chemscore.Internal_Hbond.Weighted>
0.0000

> <Gold.Chemscore.DEClash.Weighted>
0.2749

> <Gold.Chemscore.DEInternal.Weighted>
2.0171

> <Gold.Chemscore.Rot.Weighted>
4.7311

> <Gold.Chemscore.Internal.Correction.Weighted>
   9.000000E+99

> <Gold.Protein.RotatedTorsions>
[ 6907 6896 6895 6894 ] final -166.82 input  -60.11 | X-H torsion
[ 7974 7965 7964 7962 ] final  -88.31 input  175.53 | X-H torsion
[ 8008 7997 7996 7995 ] final  102.04 input   59.86 | X-H torsion
[ 10167 10162 10161 10158 ] final -136.39 input  -65.29 | X-H torsion
[ 10718 10713 10712 10709 ] final   -8.34 input   66.30 | X-H torsion
[ 10763 10752 10751 10750 ] final    3.00 input  -60.55 | X-H torsion
[ 11005 11000 10999 10996 ] final -167.71 input  -57.11 | X-H torsion

> <Gold.Protein.ActiveResidues>
 VAL166  LYS551  ARG553  GLY616  TRP617  ASP618  TYR619  PRO620  LYS621  CYS622 
 ASP623  PHE694  ASN695  SER759  ASP760  ASP761  ALA762  ILE779  LEU786  VAL792 
 PHE793  MET794  SER795  GLU796  ALA797  LYS798  CYS799  TRP800  GLU811  SER814 

> <Gold.Protein.RotatedAtoms>
  151.4497  133.3621  159.2793 H   0  0  0  0  0  0  0  0  0  0  0  0  # atno 6907 bound_to 6896
  150.9100  134.8518  159.7429 H   0  0  0  0  0  0  0  0  0  0  0  0  # atno 6908 bound_to 6896
  152.4927  134.4425  159.9600 H   0  0  0  0  0  0  0  0  0  0  0  0  # atno 6909 bound_to 6896
  145.4548  140.9561  143.2002 H   0  0  0  0  0  0  0  0  0  0  0  0  # atno 7974 bound_to 7965
  156.1356  140.3188  155.8415 H   0  0  0  0  0  0  0  0  0  0  0  0  # atno 8008 bound_to 7997
  155.4251  140.0515  157.3040 H   0  0  0  0  0  0  0  0  0  0  0  0  # atno 8009 bound_to 7997
  154.4934  140.2101  155.9512 H   0  0  0  0  0  0  0  0  0  0  0  0  # atno 8010 bound_to 7997
  139.8682  143.6990  152.2643 H   0  0  0  0  0  0  0  0  0  0  0  0  # atno 10167 bound_to 10162
  156.7040  130.5102  149.5909 H   0  0  0  0  0  0  0  0  0  0  0  0  # atno 10718 bound_to 10713
  153.2886  135.6946  153.7314 H   0  0  0  0  0  0  0  0  0  0  0  0  # atno 10763 bound_to 10752
  153.6274  135.3416  155.3031 H   0  0  0  0  0  0  0  0  0  0  0  0  # atno 10764 bound_to 10752
  154.8517  135.4401  154.1962 H   0  0  0  0  0  0  0  0  0  0  0  0  # atno 10765 bound_to 10752
  140.5502  134.5436  157.5120 H   0  0  0  0  0  0  0  0  0  0  0  0  # atno 11005 bound_to 11000
  144.8039  139.6089  143.7059 LP  0  0  0  0  0  0  0  0  0  0  0  0  # atno 17320 bound_to 7965
  146.2484  139.6147  142.9444 LP  0  0  0  0  0  0  0  0  0  0  0  0  # atno 17321 bound_to 7965
  139.7308  144.7582  151.0804 LP  0  0  0  0  0  0  0  0  0  0  0  0  # atno 17342 bound_to 10162
  140.7765  143.5090  150.9676 LP  0  0  0  0  0  0  0  0  0  0  0  0  # atno 17343 bound_to 10162
  156.1708  130.6436  151.0835 LP  0  0  0  0  0  0  0  0  0  0  0  0  # atno 17370 bound_to 10713
  157.6962  131.0793  150.6962 LP  0  0  0  0  0  0  0  0  0  0  0  0  # atno 17371 bound_to 10713
  139.9459  134.7703  156.0563 LP  0  0  0  0  0  0  0  0  0  0  0  0  # atno 17394 bound_to 11000
  141.1176  133.6623  156.3133 LP  0  0  0  0  0  0  0  0  0  0  0  0  # atno 17395 bound_to 11000

$$$$
