AV-unprocessed.smi:1191|AV-procd|sdf|4985|dock9
  -GOLD-   22720 3583D 1   1.00000     0.00000
 Structure written by MMmdl.
 47 48  0  0  0  0  0  0  0  0  2 V2000
  152.7922  143.7918  160.5554 C   0  0  0  0  0  0  0  0  0  0  0  0
  152.9245  142.3163  160.3166 C   0  0  0  0  0  0  0  0  0  0  0  0
  153.9718  141.4461  160.7299 C   0  0  0  0  0  0  0  0  0  0  0  0
  153.6010  140.2201  160.2534 C   0  0  0  0  0  0  0  0  0  0  0  0
  154.2850  138.8967  160.3610 C   0  0  0  0  0  0  0  0  0  0  0  0
  152.3942  140.3929  159.5985 N   0  0  0  0  0  0  0  0  0  0  0  0
  151.5685  139.4058  158.9186 C   0  0  0  0  0  0  0  0  0  0  0  0
  151.3836  139.7513  157.4397 C   0  0  0  0  0  0  0  0  0  0  0  0
  152.3230  140.2135  156.7926 O   0  0  0  0  0  0  0  0  0  0  0  0
  150.1683  139.5264  156.9160 N   0  0  0  0  0  0  0  0  0  0  0  0
  149.7916  139.7845  155.5322 C   0  0  0  0  0  0  0  0  0  0  0  0
  149.7184  141.2956  155.2380 C   0  0  0  0  0  0  0  0  0  0  0  0
  148.3648  141.8526  155.4834 N   0  3  2  0  0  0  0  0  0  0  0  0
  147.9369  141.6911  156.8969 C   0  0  0  0  0  0  0  0  0  0  0  0
  146.6090  142.4192  157.1602 C   0  0  0  0  0  0  0  0  0  0  0  0
  145.5155  141.9413  156.1941 C   0  0  0  0  0  0  0  0  0  0  0  0
  145.9794  142.0445  154.7292 C   0  0  1  0  0  0  0  0  0  0  0  0
  146.0064  143.4937  154.2122 C   0  0  0  0  0  0  0  0  0  0  0  0
  147.3359  141.3343  154.5405 C   0  0  0  0  0  0  0  0  0  0  0  0
  151.9813  141.6788  159.6429 N   0  0  0  0  0  0  0  0  0  0  0  0
  153.6889  144.1969  161.0249 H   0  0  0  0  0  0  0  0  0  0  0  0
  151.9479  144.0093  161.2098 H   0  0  0  0  0  0  0  0  0  0  0  0
  152.6374  144.3300  159.6199 H   0  0  0  0  0  0  0  0  0  0  0  0
  154.8629  141.6866  161.2906 H   0  0  0  0  0  0  0  0  0  0  0  0
  155.2107  138.9822  160.9303 H   0  0  0  0  0  0  0  0  0  0  0  0
  154.5342  138.5063  159.3743 H   0  0  0  0  0  0  0  0  0  0  0  0
  153.6488  138.1684  160.8643 H   0  0  0  0  0  0  0  0  0  0  0  0
  152.0281  138.4204  159.0103 H   0  0  0  0  0  0  0  0  0  0  0  0
  150.5997  139.3503  159.4164 H   0  0  0  0  0  0  0  0  0  0  0  0
  149.4567  139.1440  157.5230 H   0  0  0  0  0  0  0  0  0  0  0  0
  150.5359  139.3170  154.8871 H   0  0  0  0  0  0  0  0  0  0  0  0
  148.8446  139.2864  155.3247 H   0  0  0  0  0  0  0  0  0  0  0  0
  150.4523  141.8500  155.8248 H   0  0  0  0  0  0  0  0  0  0  0  0
  149.9864  141.4459  154.1909 H   0  0  0  0  0  0  0  0  0  0  0  0
  147.8394  140.6294  157.1298 H   0  0  0  0  0  0  0  0  0  0  0  0
  148.7001  142.0937  157.5641 H   0  0  0  0  0  0  0  0  0  0  0  0
  146.2917  142.2511  158.1898 H   0  0  0  0  0  0  0  0  0  0  0  0
  146.7526  143.4952  157.0576 H   0  0  0  0  0  0  0  0  0  0  0  0
  145.2708  140.9025  156.4203 H   0  0  0  0  0  0  0  0  0  0  0  0
  144.5982  142.5107  156.3475 H   0  0  0  0  0  0  0  0  0  0  0  0
  145.2453  141.5156  154.1198 H   0  0  0  0  0  0  0  0  0  0  0  0
  146.7391  144.1026  154.7420 H   0  0  0  0  0  0  0  0  0  0  0  0
  145.0327  143.9703  154.3292 H   0  0  0  0  0  0  0  0  0  0  0  0
  146.2592  143.5249  153.1521 H   0  0  0  0  0  0  0  0  0  0  0  0
  147.6615  141.4543  153.5081 H   0  0  0  0  0  0  0  0  0  0  0  0
  147.2157  140.2616  154.7012 H   0  0  0  0  0  0  0  0  0  0  0  0
  148.4345  142.8477  155.3249 H   0  0  0  0  0  0  0  0  0  0  0  0
  1  2  1  0  0  0  0
  1 21  1  0  0  0  0
  1 22  1  0  0  0  0
  1 23  1  0  0  0  0
  2 20  2  0  0  0  0
  2  3  1  0  0  0  0
  3  4  2  0  0  0  0
  3 24  1  0  0  0  0
  4  5  1  0  0  0  0
  4  6  1  0  0  0  0
  5 25  1  0  0  0  0
  5 26  1  0  0  0  0
  5 27  1  0  0  0  0
  6  7  1  0  0  0  0
  6 20  1  0  0  0  0
  7  8  1  0  0  0  0
  7 28  1  0  0  0  0
  7 29  1  0  0  0  0
  8  9  2  0  0  0  0
  8 10  1  0  0  0  0
 10 11  1  0  0  0  0
 10 30  1  0  0  0  0
 11 12  1  0  0  0  0
 11 31  1  0  0  0  0
 11 32  1  0  0  0  0
 12 13  1  0  0  0  0
 12 33  1  0  0  0  0
 12 34  1  0  0  0  0
 13 19  1  0  0  0  0
 13 14  1  0  0  0  0
 13 47  1  0  0  0  0
 14 15  1  0  0  0  0
 14 35  1  0  0  0  0
 14 36  1  0  0  0  0
 15 16  1  0  0  0  0
 15 37  1  0  0  0  0
 15 38  1  0  0  0  0
 16 17  1  0  0  0  0
 16 39  1  0  0  0  0
 16 40  1  0  0  0  0
 17 18  1  0  0  0  0
 17 19  1  0  0  0  0
 17 41  1  0  0  0  0
 18 42  1  0  0  0  0
 18 43  1  0  0  0  0
 18 44  1  0  0  0  0
 19 45  1  0  0  0  0
 19 46  1  0  0  0  0
M  CHG  1  13   1
M  END
> <s_m_source_file>
AV-unprocessed.smi

> <i_m_source_file_index>
1191

> <i_lp_mmshare_version>
43012

> <i_f3d_flags>
0

> <s_epik_input>
W0NIM11jMVtjSF1jKFtDSDNdKW4objEpW0NIMl1DKD1PKVtOSF1bQ0gyXVtDSDJdTjJbQ0gyXVtDSDJdW0NIMl1bQ0BASF0oW0NIM10pW0NIMl0y

> <s_epik_cmdline>
J2VwaWtfcHl0aG9uJywgJy1waCcsICc3LjAnLCAnLXRuJywgJzgnLCAnLW1hJywgJzIwMCcsICctbWV0YWxfYmluZGluZycsICctaW1hZScsICc8aW5maWxlLm1hZT4nLCAnLW9tYWUnLCAnPG91dGZpbGUubWFlPic=

> <r_lp_tautomer_probability>
1

> <r_epik_Ionization_Penalty>
0.00249932

> <r_epik_Ionization_Penalty_Charging>
0.00230623

> <r_epik_Ionization_Penalty_Neutral>
0.000193092

> <r_epik_State_Penalty>
-0

> <r_epik_Charging_Adjusted_Penalty>
0.00230623

> <i_epik_Tot_Q>
1

> <i_epik_Tot_abs_Q>
1

> <r_epik_Metal_State_Penalty>
-0

> <b_epik_Metal_Only>
0

> <s_lp_Force_Field>
OPLS_2005

> <r_lp_Energy>
16.5378

> <b_lp_Chiralities_Consistent>
1

> <s_lp_Variant>
AV-unprocessed.smi:1191-2

> <Gold.Version>
5.8.1

> <Gold.Id.Protein>
6NUR|6NUR_protein|mol2

> <Gold.PLP.Fitness>
45.2877

> <Gold.PLP.PLP>
-37.3855

> <Gold.PLP.part.hbond>
-2.0000

> <Gold.PLP.part.metal>
0.0000

> <Gold.PLP.part.buried>
-2.7419

> <Gold.PLP.part.nonpolar>
-32.0360

> <Gold.PLP.part.repulsive>
0.1523

> <Gold.PLP.ligand.clash>
0.0000

> <Gold.PLP.ligand.torsion>
0.5480

> <Gold.PLP.Chemscore.Hbond>
2.9913

> <Gold.PLP.Chemscore.CHOScore>
0.0000

> <Gold.PLP.Chemscore.Metal>
0.0000

> <Gold.Chemscore.Hbonds>
donor molecule, donor type, donor heavy atom, donor atom, acceptor molecule, acceptor atom, score
      L1  H    13    47       P1  8028  2.00
      P1  H  7997  8010       L1     9  0.96

> <Gold.PLP.Chemscore.Internal.Correction>
0.0244

> <Gold.Rescore>
     Score         DG    S(hbond)    S(metal)    S(lipo)     H(rot)  DE(clash)    DE(int)     intcor
     17.05     -17.70       1.77        0.00      90.30       1.67       0.05       0.60       ----

> <Gold.Chemscore.Fitness>
17.0483

> <Gold.Chemscore.DG>
-17.6954

> <Gold.Chemscore.ZeroCoef>
-5.4800

> <Gold.Chemscore.Hbond>
1.7709

> <Gold.Chemscore.Metal>
0.0000

> <Gold.Chemscore.Lipo>
90.2966

> <Gold.Chemscore.Internal_Hbond>
0.0000

> <Gold.Chemscore.DEClash>
0.0450

> <Gold.Chemscore.DEInternal>
0.6021

> <Gold.Chemscore.Rot>
1.6657

> <Gold.Chemscore.Internal.Correction>
   9.000000E+99

> <Gold.Chemscore.Hbonds>
donor molecule, donor type, donor heavy atom, donor atom, acceptor molecule, acceptor atom, score
      L1  H    13    47       P1  8028  0.99
      P1  H  7997  8010       L1     9  0.88

> <Gold.Chemscore.Hbond.Weighted>
-5.9148

> <Gold.Chemscore.Metal.Weighted>
-0.0000

> <Gold.Chemscore.Lipo.Weighted>
-10.5647

> <Gold.Chemscore.Internal_Hbond.Weighted>
0.0000

> <Gold.Chemscore.DEClash.Weighted>
0.0450

> <Gold.Chemscore.DEInternal.Weighted>
0.6021

> <Gold.Chemscore.Rot.Weighted>
4.2641

> <Gold.Chemscore.Internal.Correction.Weighted>
   9.000000E+99

> <Gold.Protein.RotatedTorsions>
[ 6907 6896 6895 6894 ] final   27.03 input  -60.11 | X-H torsion
[ 7974 7965 7964 7962 ] final    7.08 input  175.53 | X-H torsion
[ 8008 7997 7996 7995 ] final   72.47 input   59.86 | X-H torsion
[ 10167 10162 10161 10158 ] final -105.57 input  -65.29 | X-H torsion
[ 10718 10713 10712 10709 ] final  -58.82 input   66.30 | X-H torsion
[ 10763 10752 10751 10750 ] final -111.80 input  -60.55 | X-H torsion
[ 11005 11000 10999 10996 ] final -161.39 input  -57.11 | X-H torsion

> <Gold.Protein.ActiveResidues>
 VAL166  LYS551  ARG553  GLY616  TRP617  ASP618  TYR619  PRO620  LYS621  CYS622 
 ASP623  PHE694  ASN695  SER759  ASP760  ASP761  ALA762  ILE779  LEU786  VAL792 
 PHE793  MET794  SER795  GLU796  ALA797  LYS798  CYS799  TRP800  GLU811  SER814 

> <Gold.Protein.RotatedAtoms>
  151.9962  134.9953  160.0563 H   0  0  0  0  0  0  0  0  0  0  0  0  # atno 6907 bound_to 6896
  152.1562  133.4548  159.4846 H   0  0  0  0  0  0  0  0  0  0  0  0  # atno 6908 bound_to 6896
  150.6882  134.2045  159.4378 H   0  0  0  0  0  0  0  0  0  0  0  0  # atno 6909 bound_to 6896
  146.2430  140.0137  142.8404 H   0  0  0  0  0  0  0  0  0  0  0  0  # atno 7974 bound_to 7965
  155.7693  140.3484  155.5238 H   0  0  0  0  0  0  0  0  0  0  0  0  # atno 8008 bound_to 7997
  155.8837  140.1006  157.1488 H   0  0  0  0  0  0  0  0  0  0  0  0  # atno 8009 bound_to 7997
  154.4027  140.1317  156.4216 H   0  0  0  0  0  0  0  0  0  0  0  0  # atno 8010 bound_to 7997
  140.1971  143.3847  152.1159 H   0  0  0  0  0  0  0  0  0  0  0  0  # atno 10167 bound_to 10162
  156.1107  130.4175  150.0630 H   0  0  0  0  0  0  0  0  0  0  0  0  # atno 10718 bound_to 10713
  154.8318  135.4514  154.1096 H   0  0  0  0  0  0  0  0  0  0  0  0  # atno 10763 bound_to 10752
  153.2362  135.6911  153.7841 H   0  0  0  0  0  0  0  0  0  0  0  0  # atno 10764 bound_to 10752
  153.7205  135.3342  155.3242 H   0  0  0  0  0  0  0  0  0  0  0  0  # atno 10765 bound_to 10752
  140.6209  134.4751  157.5223 H   0  0  0  0  0  0  0  0  0  0  0  0  # atno 11005 bound_to 11000
  145.1305  140.9515  143.4547 LP  0  0  0  0  0  0  0  0  0  0  0  0  # atno 17320 bound_to 7965
  145.0393  139.3274  143.5985 LP  0  0  0  0  0  0  0  0  0  0  0  0  # atno 17321 bound_to 7965
  139.5232  144.7068  151.5328 LP  0  0  0  0  0  0  0  0  0  0  0  0  # atno 17342 bound_to 10162
  140.6416  143.8878  150.6697 LP  0  0  0  0  0  0  0  0  0  0  0  0  # atno 17343 bound_to 10162
  156.8594  130.9486  151.3619 LP  0  0  0  0  0  0  0  0  0  0  0  0  # atno 17370 bound_to 10713
  157.6288  130.8712  149.9236 LP  0  0  0  0  0  0  0  0  0  0  0  0  # atno 17371 bound_to 10713
  139.9154  134.8258  156.1386 LP  0  0  0  0  0  0  0  0  0  0  0  0  # atno 17394 bound_to 11000
  141.0743  133.6783  156.2203 LP  0  0  0  0  0  0  0  0  0  0  0  0  # atno 17395 bound_to 11000

$$$$
