AV-unprocessed.smi:1802|AV-procd|sdf|7272|dock10
  -GOLD-   22720 8533D 1   1.00000     0.00000
 Structure written by MMmdl.
 41 42  0  0  0  0  0  0  0  0  2 V2000
  145.8773  130.6417  151.1951 C   0  0  0  0  0  0  0  0  0  0  0  0
  145.9310  131.7435  150.1222 C   0  0  1  0  0  0  0  0  0  0  0  0
  144.5932  131.9220  149.3799 C   0  0  0  0  0  0  0  0  0  0  0  0
  143.5556  132.6309  150.2624 C   0  0  0  0  0  0  0  0  0  0  0  0
  144.1130  133.9499  150.8207 C   0  0  0  0  0  0  0  0  0  0  0  0
  145.3806  133.7230  151.5615 N   0  3  2  0  0  0  0  0  0  0  0  0
  145.8638  134.9471  152.2483 C   0  0  0  0  0  0  0  0  0  0  0  0
  145.6207  136.2140  151.4112 C   0  0  0  0  0  0  0  0  0  0  0  0
  145.7234  137.4982  152.2511 C   0  0  0  0  0  0  0  0  0  0  0  0
  144.4072  138.0379  152.5737 N   0  0  0  0  0  0  0  0  0  0  0  0
  143.3967  137.3275  153.0966 C   0  0  0  0  0  0  0  0  0  0  0  0
  143.4834  136.1297  153.3694 O   0  0  0  0  0  0  0  0  0  0  0  0
  142.3049  138.0909  153.2804 N   0  0  0  0  0  0  0  0  0  0  0  0
  141.0446  137.7086  153.8122 C   0  0  0  0  0  0  0  0  0  0  0  0
  140.8974  136.8494  154.8330 N   0  0  0  0  0  0  0  0  0  0  0  0
  139.5614  136.6505  155.1564 N   0  0  0  0  0  0  0  0  0  0  0  0
  138.7547  137.3664  154.3680 C   0  0  0  0  0  0  0  0  0  0  0  0
  139.5478  138.3516  153.1512 S   0  0  0  0  0  0  0  0  0  0  0  0
  146.4140  133.0906  150.6974 C   0  0  0  0  0  0  0  0  0  0  0  0
  145.1786  130.8849  151.9955 H   0  0  0  0  0  0  0  0  0  0  0  0
  146.8571  130.4922  151.6494 H   0  0  0  0  0  0  0  0  0  0  0  0
  145.5685  129.6891  150.7639 H   0  0  0  0  0  0  0  0  0  0  0  0
  146.6683  131.4190  149.3866 H   0  0  0  0  0  0  0  0  0  0  0  0
  144.7589  132.5161  148.4802 H   0  0  0  0  0  0  0  0  0  0  0  0
  144.2098  130.9584  149.0423 H   0  0  0  0  0  0  0  0  0  0  0  0
  142.6506  132.8251  149.6858 H   0  0  0  0  0  0  0  0  0  0  0  0
  143.2583  131.9793  151.0849 H   0  0  0  0  0  0  0  0  0  0  0  0
  144.2838  134.6624  150.0120 H   0  0  0  0  0  0  0  0  0  0  0  0
  143.3704  134.3944  151.4846 H   0  0  0  0  0  0  0  0  0  0  0  0
  145.4016  135.0329  153.2330 H   0  0  0  0  0  0  0  0  0  0  0  0
  146.9379  134.8623  152.4195 H   0  0  0  0  0  0  0  0  0  0  0  0
  146.3502  136.2472  150.6009 H   0  0  0  0  0  0  0  0  0  0  0  0
  144.6387  136.1778  150.9399 H   0  0  0  0  0  0  0  0  0  0  0  0
  146.2443  137.2901  153.1861 H   0  0  0  0  0  0  0  0  0  0  0  0
  146.3145  138.2524  151.7286 H   0  0  0  0  0  0  0  0  0  0  0  0
  144.2530  139.0162  152.3772 H   0  0  0  0  0  0  0  0  0  0  0  0
  142.3844  139.0607  153.0125 H   0  0  0  0  0  0  0  0  0  0  0  0
  137.6848  137.3133  154.5038 H   0  0  0  0  0  0  0  0  0  0  0  0
  147.3374  132.9342  151.2548 H   0  0  0  0  0  0  0  0  0  0  0  0
  146.6591  133.7724  149.8814 H   0  0  0  0  0  0  0  0  0  0  0  0
  145.1604  133.0589  152.2903 H   0  0  0  0  0  0  0  0  0  0  0  0
  1  2  1  0  0  0  0
  1 20  1  0  0  0  0
  1 21  1  0  0  0  0
  1 22  1  0  0  0  0
  2 19  1  0  0  0  0
  2  3  1  0  0  0  0
  2 23  1  0  0  0  0
  3  4  1  0  0  0  0
  3 24  1  0  0  0  0
  3 25  1  0  0  0  0
  4  5  1  0  0  0  0
  4 26  1  0  0  0  0
  4 27  1  0  0  0  0
  5  6  1  0  0  0  0
  5 28  1  0  0  0  0
  5 29  1  0  0  0  0
  6  7  1  0  0  0  0
  6 19  1  0  0  0  0
  6 41  1  0  0  0  0
  7  8  1  0  0  0  0
  7 30  1  0  0  0  0
  7 31  1  0  0  0  0
  8  9  1  0  0  0  0
  8 32  1  0  0  0  0
  8 33  1  0  0  0  0
  9 10  1  0  0  0  0
  9 34  1  0  0  0  0
  9 35  1  0  0  0  0
 10 11  1  0  0  0  0
 10 36  1  0  0  0  0
 11 12  2  0  0  0  0
 11 13  1  0  0  0  0
 13 14  1  0  0  0  0
 13 37  1  0  0  0  0
 14 18  1  0  0  0  0
 14 15  2  0  0  0  0
 15 16  1  0  0  0  0
 16 17  2  0  0  0  0
 17 18  1  0  0  0  0
 17 38  1  0  0  0  0
 19 39  1  0  0  0  0
 19 40  1  0  0  0  0
M  CHG  1   6   1
M  END
> <s_m_source_file>
AV-unprocessed.smi

> <i_m_source_file_index>
1802

> <i_lp_mmshare_version>
43012

> <i_f3d_flags>
0

> <s_epik_input>
W0NIM11bQ0BASF0xW0NIMl1bQ0gyXVtDSDJdTihbQ0gyXTEpW0NIMl1bQ0gyXVtDSDJdW05IXUMoPU8pW05IXWMybm5bY0hdczI=

> <s_epik_cmdline>
J2VwaWtfcHl0aG9uJywgJy1waCcsICc3LjAnLCAnLXRuJywgJzgnLCAnLW1hJywgJzIwMCcsICctbWV0YWxfYmluZGluZycsICctaW1hZScsICc8aW5maWxlLm1hZT4nLCAnLW9tYWUnLCAnPG91dGZpbGUubWFlPic=

> <r_lp_tautomer_probability>
1

> <r_epik_Ionization_Penalty>
0.00272894

> <r_epik_Ionization_Penalty_Charging>
0.000288442

> <r_epik_Ionization_Penalty_Neutral>
0.0024405

> <r_epik_State_Penalty>
-0

> <r_epik_Charging_Adjusted_Penalty>
0.000288442

> <i_epik_Tot_Q>
1

> <i_epik_Tot_abs_Q>
1

> <r_epik_Metal_State_Penalty>
0.350525

> <b_epik_Metal_Only>
0

> <s_lp_Force_Field>
OPLS_2005

> <r_lp_Energy>
17.5372

> <b_lp_Chiralities_Consistent>
1

> <s_lp_Variant>
AV-unprocessed.smi:1802-2

> <Gold.Version>
5.8.1

> <Gold.Id.Protein>
6NUR|6NUR_protein|mol2

> <Gold.PLP.Fitness>
42.7319

> <Gold.PLP.PLP>
-36.6143

> <Gold.PLP.part.hbond>
-4.3474

> <Gold.PLP.part.metal>
0.0000

> <Gold.PLP.part.buried>
-2.3056

> <Gold.PLP.part.nonpolar>
-30.7848

> <Gold.PLP.part.repulsive>
0.2097

> <Gold.PLP.ligand.clash>
0.0000

> <Gold.PLP.ligand.torsion>
1.0039

> <Gold.PLP.Chemscore.Hbond>
2.6960

> <Gold.PLP.Chemscore.CHOScore>
0.0000

> <Gold.PLP.Chemscore.Metal>
0.0000

> <Gold.Chemscore.Hbonds>
donor molecule, donor type, donor heavy atom, donor atom, acceptor molecule, acceptor atom, score
      L1  H    10    36       P1 10175  1.00
      L1  H    13    37       P1 10175  0.91
      P1  H 11000 11005       L1    16  0.66

> <Gold.PLP.Chemscore.Internal.Correction>
0.0375

> <Gold.Rescore>
     Score         DG    S(hbond)    S(metal)    S(lipo)     H(rot)  DE(clash)    DE(int)     intcor
     15.50     -19.45       2.60        0.00      88.52       1.98       0.60       3.35       ----

> <Gold.Chemscore.Fitness>
15.4996

> <Gold.Chemscore.DG>
-19.4539

> <Gold.Chemscore.ZeroCoef>
-5.4800

> <Gold.Chemscore.Hbond>
2.6002

> <Gold.Chemscore.Metal>
0.0000

> <Gold.Chemscore.Lipo>
88.5153

> <Gold.Chemscore.Internal_Hbond>
0.0000

> <Gold.Chemscore.DEClash>
0.6033

> <Gold.Chemscore.DEInternal>
3.3509

> <Gold.Chemscore.Rot>
1.9793

> <Gold.Chemscore.Internal.Correction>
   9.000000E+99

> <Gold.Chemscore.Hbonds>
donor molecule, donor type, donor heavy atom, donor atom, acceptor molecule, acceptor atom, score
      L1  H    10    36       P1 10175  0.94
      L1  H    13    37       P1 10175  0.88
      P1  H 11000 11005       L1    16  0.10

> <Gold.Chemscore.Hbond.Weighted>
-8.6846

> <Gold.Chemscore.Metal.Weighted>
-0.0000

> <Gold.Chemscore.Lipo.Weighted>
-10.3563

> <Gold.Chemscore.Internal_Hbond.Weighted>
0.0000

> <Gold.Chemscore.DEClash.Weighted>
0.6033

> <Gold.Chemscore.DEInternal.Weighted>
3.3509

> <Gold.Chemscore.Rot.Weighted>
5.0670

> <Gold.Chemscore.Internal.Correction.Weighted>
   9.000000E+99

> <Gold.Protein.RotatedTorsions>
[ 6907 6896 6895 6894 ] final -118.97 input  -60.11 | X-H torsion
[ 7974 7965 7964 7962 ] final  -54.33 input  175.53 | X-H torsion
[ 8008 7997 7996 7995 ] final   74.86 input   59.86 | X-H torsion
[ 10167 10162 10161 10158 ] final -116.71 input  -65.29 | X-H torsion
[ 10718 10713 10712 10709 ] final -158.47 input   66.30 | X-H torsion
[ 10763 10752 10751 10750 ] final   99.72 input  -60.55 | X-H torsion
[ 11005 11000 10999 10996 ] final   92.40 input  -57.11 | X-H torsion

> <Gold.Protein.ActiveResidues>
 VAL166  LYS551  ARG553  GLY616  TRP617  ASP618  TYR619  PRO620  LYS621  CYS622 
 ASP623  PHE694  ASN695  SER759  ASP760  ASP761  ALA762  ILE779  LEU786  VAL792 
 PHE793  MET794  SER795  GLU796  ALA797  LYS798  CYS799  TRP800  GLU811  SER814 

> <Gold.Protein.RotatedAtoms>
  150.8265  133.8163  159.3116 H   0  0  0  0  0  0  0  0  0  0  0  0  # atno 6907 bound_to 6896
  151.5906  135.1052  160.0047 H   0  0  0  0  0  0  0  0  0  0  0  0  # atno 6908 bound_to 6896
  152.4349  133.7302  159.6639 H   0  0  0  0  0  0  0  0  0  0  0  0  # atno 6909 bound_to 6896
  145.8868  140.8102  142.9811 H   0  0  0  0  0  0  0  0  0  0  0  0  # atno 7974 bound_to 7965
  155.8045  140.3475  155.5421 H   0  0  0  0  0  0  0  0  0  0  0  0  # atno 8008 bound_to 7997
  155.8504  140.0955  157.1698 H   0  0  0  0  0  0  0  0  0  0  0  0  # atno 8009 bound_to 7997
  154.4007  140.1377  156.3825 H   0  0  0  0  0  0  0  0  0  0  0  0  # atno 8010 bound_to 7997
  140.0763  143.4830  152.1951 H   0  0  0  0  0  0  0  0  0  0  0  0  # atno 10167 bound_to 10162
  156.5546  130.8620  151.2791 H   0  0  0  0  0  0  0  0  0  0  0  0  # atno 10718 bound_to 10713
  153.3049  135.4104  155.1285 H   0  0  0  0  0  0  0  0  0  0  0  0  # atno 10763 bound_to 10752
  154.8560  135.3550  154.5801 H   0  0  0  0  0  0  0  0  0  0  0  0  # atno 10764 bound_to 10752
  153.6228  135.7064  153.5362 H   0  0  0  0  0  0  0  0  0  0  0  0  # atno 10765 bound_to 10752
  139.8824  134.8730  156.3567 H   0  0  0  0  0  0  0  0  0  0  0  0  # atno 11005 bound_to 11000
  144.6729  140.1468  143.7433 LP  0  0  0  0  0  0  0  0  0  0  0  0  # atno 17320 bound_to 7965
  145.8957  139.2401  143.1523 LP  0  0  0  0  0  0  0  0  0  0  0  0  # atno 17321 bound_to 7965
  139.5806  144.7508  151.3650 LP  0  0  0  0  0  0  0  0  0  0  0  0  # atno 17342 bound_to 10162
  140.7100  143.7414  150.7550 LP  0  0  0  0  0  0  0  0  0  0  0  0  # atno 17343 bound_to 10162
  157.7381  130.9807  150.2230 LP  0  0  0  0  0  0  0  0  0  0  0  0  # atno 17370 bound_to 10713
  156.2854  130.3738  149.7894 LP  0  0  0  0  0  0  0  0  0  0  0  0  # atno 17371 bound_to 10713
  140.9557  133.7421  156.0332 LP  0  0  0  0  0  0  0  0  0  0  0  0  # atno 17394 bound_to 11000
  140.8051  134.3464  157.5428 LP  0  0  0  0  0  0  0  0  0  0  0  0  # atno 17395 bound_to 11000

$$$$
