AV-unprocessed.smi:1055|AV-procd|sdf|4626|dock8
  -GOLD-   22720 3133D 1   1.00000     0.00000
 Structure written by MMmdl.
 51 52  0  0  0  0  0  0  0  0  2 V2000
  146.7795  134.0902  152.6213 C   0  0  0  0  0  0  0  0  0  0  0  0
  145.6820  134.3295  151.8844 C   0  0  0  0  0  0  0  0  0  0  0  0
  144.8155  133.2068  151.3458 C   0  0  0  0  0  0  0  0  0  0  0  0
  145.2366  135.7407  151.5341 C   0  0  0  0  0  0  0  0  0  0  0  0
  146.1921  136.7626  152.0302 N   0  3  2  0  0  0  0  0  0  0  0  0
  146.1473  136.8980  153.5087 C   0  0  0  0  0  0  0  0  0  0  0  0
  147.2354  137.8591  154.0150 C   0  0  0  0  0  0  0  0  0  0  0  0
  147.1132  139.2384  153.3419 C   0  0  1  0  0  0  0  0  0  0  0  0
  148.1969  140.1247  153.7569 N   0  0  0  0  0  0  0  0  0  0  0  0
  148.5640  140.3512  155.0266 C   0  0  0  0  0  0  0  0  0  0  0  0
  148.0249  139.8132  155.9932 O   0  0  0  0  0  0  0  0  0  0  0  0
  149.5668  141.2438  155.0915 N   0  0  0  0  0  0  0  0  0  0  0  0
  150.2308  141.7410  156.2453 C   0  0  0  0  0  0  0  0  0  0  0  0
  150.4791  140.8481  157.3049 C   0  0  0  0  0  0  0  0  0  0  0  0
  151.1195  141.3170  158.4675 C   0  0  0  0  0  0  0  0  0  0  0  0
  151.4918  142.6819  158.5500 C   0  0  0  0  0  0  0  0  0  0  0  0
  152.1395  143.2027  159.6936 N   0  0  0  0  0  0  0  0  0  0  0  0
  152.8821  142.3186  160.5833 C   0  0  0  0  0  0  0  0  0  0  0  0
  152.0401  144.6265  159.9993 C   0  0  0  0  0  0  0  0  0  0  0  0
  151.2364  143.5419  157.5338 N   0  0  0  0  0  0  0  0  0  0  0  0
  150.6242  143.0883  156.4200 C   0  0  0  0  0  0  0  0  0  0  0  0
  147.1341  139.0647  151.8151 C   0  0  0  0  0  0  0  0  0  0  0  0
  146.0477  138.0791  151.3529 C   0  0  0  0  0  0  0  0  0  0  0  0
  147.0858  133.0821  152.8603 H   0  0  0  0  0  0  0  0  0  0  0  0
  147.3899  134.8982  152.9979 H   0  0  0  0  0  0  0  0  0  0  0  0
  144.7638  133.2579  150.2579 H   0  0  0  0  0  0  0  0  0  0  0  0
  143.8024  133.2784  151.7420 H   0  0  0  0  0  0  0  0  0  0  0  0
  145.2158  132.2301  151.6194 H   0  0  0  0  0  0  0  0  0  0  0  0
  145.1090  135.8488  150.4555 H   0  0  0  0  0  0  0  0  0  0  0  0
  144.2547  135.8981  151.9828 H   0  0  0  0  0  0  0  0  0  0  0  0
  145.1613  137.2520  153.8132 H   0  0  0  0  0  0  0  0  0  0  0  0
  146.2899  135.9208  153.9715 H   0  0  0  0  0  0  0  0  0  0  0  0
  147.1577  137.9583  155.0984 H   0  0  0  0  0  0  0  0  0  0  0  0
  148.2192  137.4327  153.8138 H   0  0  0  0  0  0  0  0  0  0  0  0
  146.1590  139.6895  153.6223 H   0  0  0  0  0  0  0  0  0  0  0  0
  148.6931  140.6135  153.0260 H   0  0  0  0  0  0  0  0  0  0  0  0
  149.8481  141.6624  154.2171 H   0  0  0  0  0  0  0  0  0  0  0  0
  150.1880  139.8105  157.2297 H   0  0  0  0  0  0  0  0  0  0  0  0
  151.3113  140.6213  159.2701 H   0  0  0  0  0  0  0  0  0  0  0  0
  152.2259  141.5527  160.9980 H   0  0  0  0  0  0  0  0  0  0  0  0
  153.3183  142.8690  161.4173 H   0  0  0  0  0  0  0  0  0  0  0  0
  153.6961  141.8308  160.0463 H   0  0  0  0  0  0  0  0  0  0  0  0
  150.9992  144.9133  160.1534 H   0  0  0  0  0  0  0  0  0  0  0  0
  152.4466  145.2231  159.1819 H   0  0  0  0  0  0  0  0  0  0  0  0
  152.5935  144.8802  160.9035 H   0  0  0  0  0  0  0  0  0  0  0  0
  150.4346  143.8416  155.6714 H   0  0  0  0  0  0  0  0  0  0  0  0
  146.9869  140.0288  151.3266 H   0  0  0  0  0  0  0  0  0  0  0  0
  148.1118  138.7019  151.4946 H   0  0  0  0  0  0  0  0  0  0  0  0
  146.1194  137.9578  150.2719 H   0  0  0  0  0  0  0  0  0  0  0  0
  145.0575  138.4887  151.5592 H   0  0  0  0  0  0  0  0  0  0  0  0
  147.1148  136.4184  151.8060 H   0  0  0  0  0  0  0  0  0  0  0  0
  1  2  2  0  0  0  0
  1 24  1  0  0  0  0
  1 25  1  0  0  0  0
  2  3  1  0  0  0  0
  2  4  1  0  0  0  0
  3 26  1  0  0  0  0
  3 27  1  0  0  0  0
  3 28  1  0  0  0  0
  4  5  1  0  0  0  0
  4 29  1  0  0  0  0
  4 30  1  0  0  0  0
  5 23  1  0  0  0  0
  5  6  1  0  0  0  0
  5 51  1  0  0  0  0
  6  7  1  0  0  0  0
  6 31  1  0  0  0  0
  6 32  1  0  0  0  0
  7  8  1  0  0  0  0
  7 33  1  0  0  0  0
  7 34  1  0  0  0  0
  8  9  1  0  0  0  0
  8 22  1  0  0  0  0
  8 35  1  0  0  0  0
  9 10  1  0  0  0  0
  9 36  1  0  0  0  0
 10 11  2  0  0  0  0
 10 12  1  0  0  0  0
 12 13  1  0  0  0  0
 12 37  1  0  0  0  0
 13 21  1  0  0  0  0
 13 14  2  0  0  0  0
 14 15  1  0  0  0  0
 14 38  1  0  0  0  0
 15 16  2  0  0  0  0
 15 39  1  0  0  0  0
 16 17  1  0  0  0  0
 16 20  1  0  0  0  0
 17 18  1  0  0  0  0
 17 19  1  0  0  0  0
 18 40  1  0  0  0  0
 18 41  1  0  0  0  0
 18 42  1  0  0  0  0
 19 43  1  0  0  0  0
 19 44  1  0  0  0  0
 19 45  1  0  0  0  0
 20 21  2  0  0  0  0
 21 46  1  0  0  0  0
 22 23  1  0  0  0  0
 22 47  1  0  0  0  0
 22 48  1  0  0  0  0
 23 49  1  0  0  0  0
 23 50  1  0  0  0  0
M  CHG  1   5   1
M  END
> <s_m_source_file>
AV-unprocessed.smi

> <i_m_source_file_index>
1055

> <i_lp_mmshare_version>
43012

> <i_f3d_flags>
0

> <s_epik_input>
W0NIMl09QyhbQ0gzXSlbQ0gyXU4xW0NIMl1bQ0gyXVtDSF0oW0NIMl1bQ0gyXTEpW05IXUMoPU8pW05IXWMyW2NIXVtjSF1jKE4oW0NIM10pW0NIM10pbltjSF0y

> <s_epik_cmdline>
J2VwaWtfcHl0aG9uJywgJy1waCcsICc3LjAnLCAnLXRuJywgJzgnLCAnLW1hJywgJzIwMCcsICctbWV0YWxfYmluZGluZycsICctaW1hZScsICc8aW5maWxlLm1hZT4nLCAnLW9tYWUnLCAnPG91dGZpbGUubWFlPic=

> <r_lp_tautomer_probability>
1

> <r_epik_Ionization_Penalty>
0.534133

> <r_epik_Ionization_Penalty_Charging>
0.0193505

> <r_epik_Ionization_Penalty_Neutral>
0.514782

> <r_epik_State_Penalty>
0.557749

> <r_epik_Charging_Adjusted_Penalty>
0.5771

> <i_epik_Tot_Q>
1

> <i_epik_Tot_abs_Q>
1

> <r_epik_Metal_State_Penalty>
0.306227

> <b_epik_Metal_Only>
0

> <s_lp_Force_Field>
OPLS_2005

> <r_lp_Energy>
20.3338

> <b_lp_Chiralities_Consistent>
1

> <s_lp_Variant>
AV-unprocessed.smi:1055-3

> <Gold.Version>
5.8.1

> <Gold.Id.Protein>
6NUR|6NUR_protein|mol2

> <Gold.PLP.Fitness>
46.8266

> <Gold.PLP.PLP>
-37.1794

> <Gold.PLP.part.hbond>
-2.0000

> <Gold.PLP.part.metal>
0.0000

> <Gold.PLP.part.buried>
5.2314

> <Gold.PLP.part.nonpolar>
-41.2549

> <Gold.PLP.part.repulsive>
0.3834

> <Gold.PLP.ligand.clash>
0.0000

> <Gold.PLP.ligand.torsion>
0.7455

> <Gold.PLP.Chemscore.Hbond>
2.7613

> <Gold.PLP.Chemscore.CHOScore>
0.9426

> <Gold.PLP.Chemscore.Metal>
0.0000

> <Gold.Chemscore.Hbonds>
donor molecule, donor type, donor heavy atom, donor atom, acceptor molecule, acceptor atom, score
      L1  H     5    51       P1  7948  2.00
      L1  H     9    36       P1  7957  0.49
      L1  C    21    46       P1  8028  0.27

> <Gold.PLP.Chemscore.Internal.Correction>
0.0263

> <Gold.Rescore>
     Score         DG    S(hbond)    S(metal)    S(lipo)     H(rot)  DE(clash)    DE(int)     intcor
     12.76     -20.21       1.83        0.00     102.54       1.33       4.38       3.06       ----

> <Gold.Chemscore.Fitness>
12.7632

> <Gold.Chemscore.DG>
-20.2058

> <Gold.Chemscore.ZeroCoef>
-5.4800

> <Gold.Chemscore.Hbond>
1.8337

> <Gold.Chemscore.Metal>
0.0000

> <Gold.Chemscore.Lipo>
102.5411

> <Gold.Chemscore.Internal_Hbond>
0.0000

> <Gold.Chemscore.DEClash>
4.3784

> <Gold.Chemscore.DEInternal>
3.0641

> <Gold.Chemscore.Rot>
1.3266

> <Gold.Chemscore.Internal.Correction>
   9.000000E+99

> <Gold.Chemscore.Hbonds>
donor molecule, donor type, donor heavy atom, donor atom, acceptor molecule, acceptor atom, score
      L1  H     5    51       P1  7948  1.00
      L1  H     9    36       P1  7957  0.48

> <Gold.Chemscore.Hbond.Weighted>
-6.1247

> <Gold.Chemscore.Metal.Weighted>
-0.0000

> <Gold.Chemscore.Lipo.Weighted>
-11.9973

> <Gold.Chemscore.Internal_Hbond.Weighted>
0.0000

> <Gold.Chemscore.DEClash.Weighted>
4.3784

> <Gold.Chemscore.DEInternal.Weighted>
3.0641

> <Gold.Chemscore.Rot.Weighted>
3.3962

> <Gold.Chemscore.Internal.Correction.Weighted>
   9.000000E+99

> <Gold.Protein.RotatedTorsions>
[ 6907 6896 6895 6894 ] final  137.47 input  -60.11 | X-H torsion
[ 7974 7965 7964 7962 ] final -124.61 input  175.53 | X-H torsion
[ 8008 7997 7996 7995 ] final -164.39 input   59.86 | X-H torsion
[ 10167 10162 10161 10158 ] final -131.91 input  -65.29 | X-H torsion
[ 10718 10713 10712 10709 ] final  148.43 input   66.30 | X-H torsion
[ 10763 10752 10751 10750 ] final  124.49 input  -60.55 | X-H torsion
[ 11005 11000 10999 10996 ] final -128.03 input  -57.11 | X-H torsion

> <Gold.Protein.ActiveResidues>
 VAL166  LYS551  ARG553  GLY616  TRP617  ASP618  TYR619  PRO620  LYS621  CYS622 
 ASP623  PHE694  ASN695  SER759  ASP760  ASP761  ALA762  ILE779  LEU786  VAL792 
 PHE793  MET794  SER795  GLU796  ALA797  LYS798  CYS799  TRP800  GLU811  SER814 

> <Gold.Protein.RotatedAtoms>
  152.2777  133.5441  159.5477 H   0  0  0  0  0  0  0  0  0  0  0  0  # atno 6907 bound_to 6896
  150.7183  134.0608  159.3839 H   0  0  0  0  0  0  0  0  0  0  0  0  # atno 6908 bound_to 6896
  151.8520  135.0554  160.0511 H   0  0  0  0  0  0  0  0  0  0  0  0  # atno 6909 bound_to 6896
  145.0063  140.7865  143.4466 H   0  0  0  0  0  0  0  0  0  0  0  0  # atno 7974 bound_to 7965
  155.8349  140.0939  157.1770 H   0  0  0  0  0  0  0  0  0  0  0  0  # atno 8008 bound_to 7997
  154.3980  140.1412  156.3719 H   0  0  0  0  0  0  0  0  0  0  0  0  # atno 8009 bound_to 7997
  155.8126  140.3449  155.5469 H   0  0  0  0  0  0  0  0  0  0  0  0  # atno 8010 bound_to 7997
  139.9140  143.6460  152.2569 H   0  0  0  0  0  0  0  0  0  0  0  0  # atno 10167 bound_to 10162
  157.3087  131.0884  151.1333 H   0  0  0  0  0  0  0  0  0  0  0  0  # atno 10718 bound_to 10713
  153.6622  135.3344  155.3130 H   0  0  0  0  0  0  0  0  0  0  0  0  # atno 10763 bound_to 10752
  154.8512  135.4366  154.1793 H   0  0  0  0  0  0  0  0  0  0  0  0  # atno 10764 bound_to 10752
  153.2762  135.7005  153.7506 H   0  0  0  0  0  0  0  0  0  0  0  0  # atno 10765 bound_to 10752
  140.9550  134.1014  157.4025 H   0  0  0  0  0  0  0  0  0  0  0  0  # atno 11005 bound_to 11000
  145.2084  139.2217  143.5156 LP  0  0  0  0  0  0  0  0  0  0  0  0  # atno 17320 bound_to 7965
  146.3461  140.1917  142.8589 LP  0  0  0  0  0  0  0  0  0  0  0  0  # atno 17321 bound_to 7965
  139.6918  144.7646  151.1426 LP  0  0  0  0  0  0  0  0  0  0  0  0  # atno 17342 bound_to 10162
  140.7678  143.5579  150.9132 LP  0  0  0  0  0  0  0  0  0  0  0  0  # atno 17343 bound_to 10162
  157.2664  130.6683  149.5998 LP  0  0  0  0  0  0  0  0  0  0  0  0  # atno 17370 bound_to 10713
  155.9676  130.4493  150.5651 LP  0  0  0  0  0  0  0  0  0  0  0  0  # atno 17371 bound_to 10713
  139.8859  135.0077  156.6466 LP  0  0  0  0  0  0  0  0  0  0  0  0  # atno 17394 bound_to 11000
  140.7549  133.8866  155.8374 LP  0  0  0  0  0  0  0  0  0  0  0  0  # atno 17395 bound_to 11000

$$$$
