AV-unprocessed.smi:990|AV-procd|sdf|4326|dock7
  -GOLD-   22720 2233D 1   1.00000     0.00000
 Structure written by MMmdl.
 44 45  0  0  0  0  0  0  0  0  1 V2000
  147.0868  132.9429  152.7184 C   0  0  0  0  0  0  0  0  0  0  0  0
  147.9757  132.2079  153.4034 C   0  0  0  0  0  0  0  0  0  0  0  0
  149.2675  132.7470  153.9861 C   0  0  0  0  0  0  0  0  0  0  0  0
  149.3424  134.1982  153.8666 N   0  0  0  0  0  0  0  0  0  0  0  0
  149.8878  135.0219  154.7734 C   0  0  0  0  0  0  0  0  0  0  0  0
  150.3814  134.6331  155.8314 O   0  0  0  0  0  0  0  0  0  0  0  0
  149.8070  136.3028  154.3729 N   0  0  0  0  0  0  0  0  0  0  0  0
  150.2765  137.4769  155.0236 C   0  0  0  0  0  0  0  0  0  0  0  0
  150.4934  137.4135  156.4140 C   0  0  0  0  0  0  0  0  0  0  0  0
  150.9429  138.5600  157.0956 C   0  0  0  0  0  0  0  0  0  0  0  0
  151.1607  139.7525  156.3680 C   0  0  0  0  0  0  0  0  0  0  0  0
  151.6097  140.9126  157.0336 N   0  0  0  0  0  0  0  0  0  0  0  0
  152.0868  140.6964  158.3974 C   0  0  0  0  0  0  0  0  0  0  0  0
  152.8816  141.9135  158.9063 C   0  0  0  0  0  0  0  0  0  0  0  0
  152.1155  143.1642  158.7438 N   0  0  0  0  0  0  0  0  0  0  0  0
  151.2703  143.8511  160.0999 S   0  0  0  0  0  0  0  0  0  0  0  0
  151.5264  145.6640  159.9217 C   0  0  0  0  0  0  0  0  0  0  0  0
  149.8373  143.5705  159.9236 O   0  0  0  0  0  0  0  0  0  0  0  0
  151.9548  143.4095  161.3246 O   0  0  0  0  0  0  0  0  0  0  0  0
  151.6019  143.3642  157.3751 C   0  0  0  0  0  0  0  0  0  0  0  0
  150.8178  142.1328  156.8851 C   0  0  0  0  0  0  0  0  0  0  0  0
  150.9467  139.8170  155.0312 N   0  0  0  0  0  0  0  0  0  0  0  0
  150.5144  138.7156  154.3810 C   0  0  0  0  0  0  0  0  0  0  0  0
  147.2500  133.9948  152.5347 H   0  0  0  0  0  0  0  0  0  0  0  0
  146.1812  132.4990  152.3313 H   0  0  0  0  0  0  0  0  0  0  0  0
  147.7740  131.1594  153.5700 H   0  0  0  0  0  0  0  0  0  0  0  0
  149.3426  132.4784  155.0404 H   0  0  0  0  0  0  0  0  0  0  0  0
  150.1133  132.2783  153.4804 H   0  0  0  0  0  0  0  0  0  0  0  0
  148.9559  134.6042  153.0270 H   0  0  0  0  0  0  0  0  0  0  0  0
  149.3165  136.4611  153.5050 H   0  0  0  0  0  0  0  0  0  0  0  0
  150.3230  136.4950  156.9563 H   0  0  0  0  0  0  0  0  0  0  0  0
  151.1269  138.5106  158.1587 H   0  0  0  0  0  0  0  0  0  0  0  0
  151.2295  140.5026  159.0409 H   0  0  0  0  0  0  0  0  0  0  0  0
  152.7223  139.8138  158.4597 H   0  0  0  0  0  0  0  0  0  0  0  0
  153.1664  141.7740  159.9488 H   0  0  0  0  0  0  0  0  0  0  0  0
  153.8106  142.0029  158.3421 H   0  0  0  0  0  0  0  0  0  0  0  0
  151.0223  146.1758  160.7412 H   0  0  0  0  0  0  0  0  0  0  0  0
  151.1052  146.0081  158.9788 H   0  0  0  0  0  0  0  0  0  0  0  0
  152.5893  145.8950  159.9627 H   0  0  0  0  0  0  0  0  0  0  0  0
  150.9787  144.2567  157.3278 H   0  0  0  0  0  0  0  0  0  0  0  0
  152.4495  143.5434  156.7125 H   0  0  0  0  0  0  0  0  0  0  0  0
  150.5528  142.2778  155.8369 H   0  0  0  0  0  0  0  0  0  0  0  0
  149.8840  142.0272  157.4363 H   0  0  0  0  0  0  0  0  0  0  0  0
  150.3461  138.8610  153.3261 H   0  0  0  0  0  0  0  0  0  0  0  0
  1  2  2  0  0  0  0
  1 24  1  0  0  0  0
  1 25  1  0  0  0  0
  2  3  1  0  0  0  0
  2 26  1  0  0  0  0
  3  4  1  0  0  0  0
  3 27  1  0  0  0  0
  3 28  1  0  0  0  0
  4  5  1  0  0  0  0
  4 29  1  0  0  0  0
  5  6  2  0  0  0  0
  5  7  1  0  0  0  0
  7  8  1  0  0  0  0
  7 30  1  0  0  0  0
  8 23  1  0  0  0  0
  8  9  2  0  0  0  0
  9 10  1  0  0  0  0
  9 31  1  0  0  0  0
 10 11  2  0  0  0  0
 10 32  1  0  0  0  0
 11 12  1  0  0  0  0
 11 22  1  0  0  0  0
 12 21  1  0  0  0  0
 12 13  1  0  0  0  0
 13 14  1  0  0  0  0
 13 33  1  0  0  0  0
 13 34  1  0  0  0  0
 14 15  1  0  0  0  0
 14 35  1  0  0  0  0
 14 36  1  0  0  0  0
 15 16  1  0  0  0  0
 15 20  1  0  0  0  0
 16 17  1  0  0  0  0
 16 18  2  0  0  0  0
 16 19  2  0  0  0  0
 17 37  1  0  0  0  0
 17 38  1  0  0  0  0
 17 39  1  0  0  0  0
 20 21  1  0  0  0  0
 20 40  1  0  0  0  0
 20 41  1  0  0  0  0
 21 42  1  0  0  0  0
 21 43  1  0  0  0  0
 22 23  2  0  0  0  0
 23 44  1  0  0  0  0
M  END
> <s_m_source_file>
AV-unprocessed.smi

> <i_m_source_file_index>
990

> <i_lp_mmshare_version>
43012

> <i_f3d_flags>
0

> <s_epik_input>
W0NIMl09W0NIXVtDSDJdW05IXUMoPU8pW05IXWMxW2NIXVtjSF1jKG5bY0hdMSlOMltDSDJdW0NIMl1OKFMoPU8pKD1PKVtDSDNdKVtDSDJdW0NIMl0y

> <s_epik_cmdline>
J2VwaWtfcHl0aG9uJywgJy1waCcsICc3LjAnLCAnLXRuJywgJzgnLCAnLW1hJywgJzIwMCcsICctbWV0YWxfYmluZGluZycsICctaW1hZScsICc8aW5maWxlLm1hZT4nLCAnLW9tYWUnLCAnPG91dGZpbGUubWFlPic=

> <r_lp_tautomer_probability>
1

> <r_epik_Ionization_Penalty>
0.151655

> <r_epik_Ionization_Penalty_Charging>
0

> <r_epik_Ionization_Penalty_Neutral>
0.151655

> <r_epik_State_Penalty>
0.140906

> <r_epik_Charging_Adjusted_Penalty>
0.140906

> <i_epik_Tot_Q>
0

> <i_epik_Tot_abs_Q>
0

> <r_epik_Metal_State_Penalty>
0.111889

> <b_epik_Metal_Only>
0

> <s_lp_Force_Field>
OPLS_2005

> <r_lp_Energy>
17.3553

> <b_lp_Chiralities_Consistent>
1

> <s_lp_Variant>
AV-unprocessed.smi:990-1

> <Gold.Version>
5.8.1

> <Gold.Id.Protein>
6NUR|6NUR_protein|mol2

> <Gold.PLP.Fitness>
50.8846

> <Gold.PLP.PLP>
-41.0100

> <Gold.PLP.part.hbond>
-4.5299

> <Gold.PLP.part.metal>
0.0000

> <Gold.PLP.part.buried>
-5.3399

> <Gold.PLP.part.nonpolar>
-31.7329

> <Gold.PLP.part.repulsive>
0.4067

> <Gold.PLP.ligand.clash>
0.0000

> <Gold.PLP.ligand.torsion>
1.5501

> <Gold.PLP.Chemscore.Hbond>
2.5831

> <Gold.PLP.Chemscore.CHOScore>
0.9514

> <Gold.PLP.Chemscore.Metal>
0.0000

> <Gold.Chemscore.Hbonds>
donor molecule, donor type, donor heavy atom, donor atom, acceptor molecule, acceptor atom, score
      L1  H     4    29       P1  7948  0.54
      L1  H     7    30       P1  7948  1.00
      P1  H  6933  6944       L1    18  0.04
      P1  H  7989  7998       L1    22  1.00
      L1  C    23    44       P1  7957  0.93

> <Gold.PLP.Chemscore.Internal.Correction>
2.3714

> <Gold.Rescore>
     Score         DG    S(hbond)    S(metal)    S(lipo)     H(rot)  DE(clash)    DE(int)     intcor
     13.71     -16.64       1.60        0.00      80.90       1.43       0.05       2.89       ----

> <Gold.Chemscore.Fitness>
13.7086

> <Gold.Chemscore.DG>
-16.6430

> <Gold.Chemscore.ZeroCoef>
-5.4800

> <Gold.Chemscore.Hbond>
1.6017

> <Gold.Chemscore.Metal>
0.0000

> <Gold.Chemscore.Lipo>
80.9048

> <Gold.Chemscore.Internal_Hbond>
0.0000

> <Gold.Chemscore.DEClash>
0.0463

> <Gold.Chemscore.DEInternal>
2.8880

> <Gold.Chemscore.Rot>
1.4268

> <Gold.Chemscore.Internal.Correction>
   9.000000E+99

> <Gold.Chemscore.Hbonds>
donor molecule, donor type, donor heavy atom, donor atom, acceptor molecule, acceptor atom, score
      L1  H     4    29       P1  7948  0.04
      L1  H     7    30       P1  7948  0.86
      P1  H  6933  6944       L1    18  0.05
      P1  H  7989  7998       L1    22  0.25

> <Gold.Chemscore.Hbond.Weighted>
-5.3497

> <Gold.Chemscore.Metal.Weighted>
-0.0000

> <Gold.Chemscore.Lipo.Weighted>
-9.4659

> <Gold.Chemscore.Internal_Hbond.Weighted>
0.0000

> <Gold.Chemscore.DEClash.Weighted>
0.0463

> <Gold.Chemscore.DEInternal.Weighted>
2.8880

> <Gold.Chemscore.Rot.Weighted>
3.6526

> <Gold.Chemscore.Internal.Correction.Weighted>
   9.000000E+99

> <Gold.Protein.RotatedTorsions>
[ 6907 6896 6895 6894 ] final  -57.96 input  -60.11 | X-H torsion
[ 7974 7965 7964 7962 ] final   -8.53 input  175.53 | X-H torsion
[ 8008 7997 7996 7995 ] final  -85.38 input   59.86 | X-H torsion
[ 10167 10162 10161 10158 ] final -145.30 input  -65.29 | X-H torsion
[ 10718 10713 10712 10709 ] final   73.45 input   66.30 | X-H torsion
[ 10763 10752 10751 10750 ] final -155.13 input  -60.55 | X-H torsion
[ 11005 11000 10999 10996 ] final  -81.62 input  -57.11 | X-H torsion

> <Gold.Protein.ActiveResidues>
 VAL166  LYS551  ARG553  GLY616  TRP617  ASP618  TYR619  PRO620  LYS621  CYS622 
 ASP623  PHE694  ASN695  SER759  ASP760  ASP761  ALA762  ILE779  LEU786  VAL792 
 PHE793  MET794  SER795  GLU796  ALA797  LYS798  CYS799  TRP800  GLU811  SER814 

> <Gold.Protein.RotatedAtoms>
  150.8044  134.7160  159.6630 H   0  0  0  0  0  0  0  0  0  0  0  0  # atno 6907 bound_to 6896
  152.4163  134.6032  160.0015 H   0  0  0  0  0  0  0  0  0  0  0  0  # atno 6908 bound_to 6896
  151.6260  133.3298  159.3134 H   0  0  0  0  0  0  0  0  0  0  0  0  # atno 6909 bound_to 6896
  146.2278  140.2482  142.8346 H   0  0  0  0  0  0  0  0  0  0  0  0  # atno 7974 bound_to 7965
  154.6401  140.0592  156.9835 H   0  0  0  0  0  0  0  0  0  0  0  0  # atno 8008 bound_to 7997
  155.1530  140.3276  155.4408 H   0  0  0  0  0  0  0  0  0  0  0  0  # atno 8009 bound_to 7997
  156.2526  140.1944  156.6641 H   0  0  0  0  0  0  0  0  0  0  0  0  # atno 8010 bound_to 7997
  139.7819  143.8089  152.2640 H   0  0  0  0  0  0  0  0  0  0  0  0  # atno 10167 bound_to 10162
  157.6548  130.9629  150.1071 H   0  0  0  0  0  0  0  0  0  0  0  0  # atno 10718 bound_to 10713
  154.7809  135.3174  154.7991 H   0  0  0  0  0  0  0  0  0  0  0  0  # atno 10763 bound_to 10752
  153.8703  135.6845  153.4779 H   0  0  0  0  0  0  0  0  0  0  0  0  # atno 10764 bound_to 10752
  153.1445  135.4725  154.9483 H   0  0  0  0  0  0  0  0  0  0  0  0  # atno 10765 bound_to 10752
  141.1666  133.7205  156.8449 H   0  0  0  0  0  0  0  0  0  0  0  0  # atno 11005 bound_to 11000
  144.9432  140.8100  143.5617 LP  0  0  0  0  0  0  0  0  0  0  0  0  # atno 17320 bound_to 7965
  145.2436  139.2062  143.4980 LP  0  0  0  0  0  0  0  0  0  0  0  0  # atno 17321 bound_to 7965
  139.8154  144.7318  150.9642 LP  0  0  0  0  0  0  0  0  0  0  0  0  # atno 17342 bound_to 10162
  140.7818  143.4210  151.0842 LP  0  0  0  0  0  0  0  0  0  0  0  0  # atno 17343 bound_to 10162
  156.1977  130.3658  149.8827 LP  0  0  0  0  0  0  0  0  0  0  0  0  # atno 17370 bound_to 10713
  156.6739  130.8831  151.3566 LP  0  0  0  0  0  0  0  0  0  0  0  0  # atno 17371 bound_to 10713
  140.1957  134.8934  157.3111 LP  0  0  0  0  0  0  0  0  0  0  0  0  # atno 17394 bound_to 11000
  140.2242  134.3987  155.7551 LP  0  0  0  0  0  0  0  0  0  0  0  0  # atno 17395 bound_to 11000

$$$$
