AV-unprocessed.smi:3341|AV-procd|sdf|12884|dock2
  -GOLD-   2272019293D 1   1.00000     0.00000
 Structure written by MMmdl.
 46 47  0  0  0  0  0  0  0  0  2 V2000
  151.6215  142.0998  158.5702 C   0  0  0  0  0  0  0  0  0  0  0  0
  151.5511  142.6368  157.1359 C   0  0  0  0  0  0  0  0  0  0  0  0
  151.1834  141.5995  156.1922 N   0  0  0  0  0  0  0  0  0  0  0  0
  150.1892  141.6302  155.2345 C   0  0  0  0  0  0  0  0  0  0  0  0
  150.2475  140.4202  154.6026 C   0  0  0  0  0  0  0  0  0  0  0  0
  149.4535  139.9207  153.5393 N   0  0  0  0  0  0  0  0  0  0  0  0
  148.2051  139.4316  153.6147 C   0  0  0  0  0  0  0  0  0  0  0  0
  147.5412  139.3374  154.6472 O   0  0  0  0  0  0  0  0  0  0  0  0
  147.7562  139.0476  152.4111 N   0  0  0  0  0  0  0  0  0  0  0  0
  146.4340  138.4883  152.1541 C   0  0  0  0  0  0  0  0  0  0  0  0
  146.0699  137.3981  153.1808 C   0  0  0  0  0  0  0  0  0  0  0  0
  146.1530  136.0317  152.6063 N   0  3  2  0  0  0  0  0  0  0  0  0
  145.1894  135.8300  151.4937 C   0  0  0  0  0  0  0  0  0  0  0  0
  145.4043  134.4687  150.8140 C   0  0  0  0  0  0  0  0  0  0  0  0
  145.3152  133.3240  151.8326 C   0  0  0  0  0  0  0  0  0  0  0  0
  146.2680  133.5577  153.0194 C   0  0  1  0  0  0  0  0  0  0  0  0
  147.7438  133.3156  152.6572 C   0  0  0  0  0  0  0  0  0  0  0  0
  146.0394  134.9563  153.6294 C   0  0  0  0  0  0  0  0  0  0  0  0
  151.3011  139.7063  155.2304 C   0  0  0  0  0  0  0  0  0  0  0  0
  151.8627  140.4260  156.1898 N   0  0  0  0  0  0  0  0  0  0  0  0
  151.9057  142.8892  159.2661 H   0  0  0  0  0  0  0  0  0  0  0  0
  152.3579  141.3000  158.6550 H   0  0  0  0  0  0  0  0  0  0  0  0
  150.6575  141.7046  158.8918 H   0  0  0  0  0  0  0  0  0  0  0  0
  150.8248  143.4480  157.0691 H   0  0  0  0  0  0  0  0  0  0  0  0
  152.5162  143.0504  156.8411 H   0  0  0  0  0  0  0  0  0  0  0  0
  149.5518  142.4910  155.0978 H   0  0  0  0  0  0  0  0  0  0  0  0
  149.8810  139.9433  152.6249 H   0  0  0  0  0  0  0  0  0  0  0  0
  148.3680  139.1614  151.6158 H   0  0  0  0  0  0  0  0  0  0  0  0
  145.6865  139.2837  152.1602 H   0  0  0  0  0  0  0  0  0  0  0  0
  146.4467  138.0832  151.1431 H   0  0  0  0  0  0  0  0  0  0  0  0
  146.7046  137.4685  154.0657 H   0  0  0  0  0  0  0  0  0  0  0  0
  145.0487  137.5763  153.5213 H   0  0  0  0  0  0  0  0  0  0  0  0
  144.1697  135.9058  151.8747 H   0  0  0  0  0  0  0  0  0  0  0  0
  145.3101  136.6191  150.7505 H   0  0  0  0  0  0  0  0  0  0  0  0
  144.6607  134.3244  150.0296 H   0  0  0  0  0  0  0  0  0  0  0  0
  146.3756  134.4535  150.3187 H   0  0  0  0  0  0  0  0  0  0  0  0
  144.2913  133.2568  152.2026 H   0  0  0  0  0  0  0  0  0  0  0  0
  145.5283  132.3689  151.3512 H   0  0  0  0  0  0  0  0  0  0  0  0
  146.0167  132.8225  153.7850 H   0  0  0  0  0  0  0  0  0  0  0  0
  148.1046  134.0291  151.9165 H   0  0  0  0  0  0  0  0  0  0  0  0
  147.8882  132.3141  152.2509 H   0  0  0  0  0  0  0  0  0  0  0  0
  148.3813  133.4055  153.5371 H   0  0  0  0  0  0  0  0  0  0  0  0
  146.7532  135.1152  154.4368 H   0  0  0  0  0  0  0  0  0  0  0  0
  145.0476  135.0021  154.0821 H   0  0  0  0  0  0  0  0  0  0  0  0
  151.6704  138.7123  155.0267 H   0  0  0  0  0  0  0  0  0  0  0  0
  147.0725  135.9520  152.1959 H   0  0  0  0  0  0  0  0  0  0  0  0
  1  2  1  0  0  0  0
  1 21  1  0  0  0  0
  1 22  1  0  0  0  0
  1 23  1  0  0  0  0
  2  3  1  0  0  0  0
  2 24  1  0  0  0  0
  2 25  1  0  0  0  0
  3 20  1  0  0  0  0
  3  4  1  0  0  0  0
  4  5  2  0  0  0  0
  4 26  1  0  0  0  0
  5  6  1  0  0  0  0
  5 19  1  0  0  0  0
  6  7  1  0  0  0  0
  6 27  1  0  0  0  0
  7  8  2  0  0  0  0
  7  9  1  0  0  0  0
  9 10  1  0  0  0  0
  9 28  1  0  0  0  0
 10 11  1  0  0  0  0
 10 29  1  0  0  0  0
 10 30  1  0  0  0  0
 11 12  1  0  0  0  0
 11 31  1  0  0  0  0
 11 32  1  0  0  0  0
 12 18  1  0  0  0  0
 12 13  1  0  0  0  0
 12 46  1  0  0  0  0
 13 14  1  0  0  0  0
 13 33  1  0  0  0  0
 13 34  1  0  0  0  0
 14 15  1  0  0  0  0
 14 35  1  0  0  0  0
 14 36  1  0  0  0  0
 15 16  1  0  0  0  0
 15 37  1  0  0  0  0
 15 38  1  0  0  0  0
 16 17  1  0  0  0  0
 16 18  1  0  0  0  0
 16 39  1  0  0  0  0
 17 40  1  0  0  0  0
 17 41  1  0  0  0  0
 17 42  1  0  0  0  0
 18 43  1  0  0  0  0
 18 44  1  0  0  0  0
 19 20  2  0  0  0  0
 19 45  1  0  0  0  0
M  CHG  1  12   1
M  END
> <s_m_source_file>
AV-unprocessed.smi

> <i_m_source_file_index>
3341

> <i_lp_mmshare_version>
43012

> <i_f3d_flags>
0

> <s_epik_input>
W0NIM11bQ0gyXW4xW2NIXWMoW2NIXW4xKVtOSF1DKD1PKVtOSF1bQ0gyXVtDSDJdTjJbQ0gyXVtDSDJdW0NIMl1bQ0BASF0oW0NIM10pW0NIMl0y

> <s_epik_cmdline>
J2VwaWtfcHl0aG9uJywgJy1waCcsICc3LjAnLCAnLXRuJywgJzgnLCAnLW1hJywgJzIwMCcsICctbWV0YWxfYmluZGluZycsICctaW1hZScsICc8aW5maWxlLm1hZT4nLCAnLW9tYWUnLCAnPG91dGZpbGUubWFlPic=

> <r_lp_tautomer_probability>
1

> <r_epik_Ionization_Penalty>
0.00203389

> <r_epik_Ionization_Penalty_Charging>
0.00188267

> <r_epik_Ionization_Penalty_Neutral>
0.000151224

> <r_epik_State_Penalty>
0.0012808

> <r_epik_Charging_Adjusted_Penalty>
0.00316346

> <i_epik_Tot_Q>
1

> <i_epik_Tot_abs_Q>
1

> <r_epik_Metal_State_Penalty>
-0

> <b_epik_Metal_Only>
0

> <s_lp_Force_Field>
OPLS_2005

> <r_lp_Energy>
23.1402

> <b_lp_Chiralities_Consistent>
1

> <s_lp_Variant>
AV-unprocessed.smi:3341-2

> <Gold.Version>
5.8.1

> <Gold.Id.Protein>
6NUR|6NUR_protein|mol2

> <Gold.PLP.Fitness>
49.1980

> <Gold.PLP.PLP>
-36.8441

> <Gold.PLP.part.hbond>
-3.7668

> <Gold.PLP.part.metal>
0.0000

> <Gold.PLP.part.buried>
-1.4754

> <Gold.PLP.part.nonpolar>
-30.9628

> <Gold.PLP.part.repulsive>
0.3110

> <Gold.PLP.ligand.clash>
0.0000

> <Gold.PLP.ligand.torsion>
1.2274

> <Gold.PLP.Chemscore.Hbond>
3.9280

> <Gold.PLP.Chemscore.CHOScore>
1.0000

> <Gold.PLP.Chemscore.Metal>
0.0000

> <Gold.Chemscore.Hbonds>
donor molecule, donor type, donor heavy atom, donor atom, acceptor molecule, acceptor atom, score
      L1  H     6    27       P1  7957  0.82
      L1  H     9    28       P1  7957  0.83
      L1  H    12    46       P1  7948  2.00
      L1  C     4    26       P1  8028  1.00

> <Gold.PLP.Chemscore.Internal.Correction>
0.0248

> <Gold.Rescore>
     Score         DG    S(hbond)    S(metal)    S(lipo)     H(rot)  DE(clash)    DE(int)     intcor
     17.26     -20.07       2.82        0.00      78.99       1.59       0.02       2.78       ----

> <Gold.Chemscore.Fitness>
17.2599

> <Gold.Chemscore.DG>
-20.0664

> <Gold.Chemscore.ZeroCoef>
-5.4800

> <Gold.Chemscore.Hbond>
2.8196

> <Gold.Chemscore.Metal>
0.0000

> <Gold.Chemscore.Lipo>
78.9901

> <Gold.Chemscore.Internal_Hbond>
0.0000

> <Gold.Chemscore.DEClash>
0.0243

> <Gold.Chemscore.DEInternal>
2.7823

> <Gold.Chemscore.Rot>
1.5909

> <Gold.Chemscore.Internal.Correction>
   9.000000E+99

> <Gold.Chemscore.Hbonds>
donor molecule, donor type, donor heavy atom, donor atom, acceptor molecule, acceptor atom, score
      L1  H     6    27       P1  7957  0.77
      L1  H     9    28       P1  7957  0.72
      L1  H    12    46       P1  7948  1.00

> <Gold.Chemscore.Hbond.Weighted>
-9.4173

> <Gold.Chemscore.Metal.Weighted>
-0.0000

> <Gold.Chemscore.Lipo.Weighted>
-9.2418

> <Gold.Chemscore.Internal_Hbond.Weighted>
0.0000

> <Gold.Chemscore.DEClash.Weighted>
0.0243

> <Gold.Chemscore.DEInternal.Weighted>
2.7823

> <Gold.Chemscore.Rot.Weighted>
4.0728

> <Gold.Chemscore.Internal.Correction.Weighted>
   9.000000E+99

> <Gold.Protein.RotatedTorsions>
[ 6907 6896 6895 6894 ] final  155.51 input  -60.11 | X-H torsion
[ 7974 7965 7964 7962 ] final  -94.63 input  175.53 | X-H torsion
[ 8008 7997 7996 7995 ] final  122.33 input   59.86 | X-H torsion
[ 10167 10162 10161 10158 ] final  -23.61 input  -65.29 | X-H torsion
[ 10718 10713 10712 10709 ] final  -83.51 input   66.30 | X-H torsion
[ 10763 10752 10751 10750 ] final  -79.51 input  -60.55 | X-H torsion
[ 11005 11000 10999 10996 ] final  -52.39 input  -57.11 | X-H torsion

> <Gold.Protein.ActiveResidues>
 VAL166  LYS551  ARG553  GLY616  TRP617  ASP618  TYR619  PRO620  LYS621  CYS622 
 ASP623  PHE694  ASN695  SER759  ASP760  ASP761  ALA762  ILE779  LEU786  VAL792 
 PHE793  MET794  SER795  GLU796  ALA797  LYS798  CYS799  TRP800  GLU811  SER814 

> <Gold.Protein.RotatedAtoms>
  152.0432  133.3986  159.4345 H   0  0  0  0  0  0  0  0  0  0  0  0  # atno 6907 bound_to 6896
  150.6874  134.3392  159.4869 H   0  0  0  0  0  0  0  0  0  0  0  0  # atno 6908 bound_to 6896
  152.1192  134.9217  160.0614 H   0  0  0  0  0  0  0  0  0  0  0  0  # atno 6909 bound_to 6896
  145.3708  140.9505  143.2448 H   0  0  0  0  0  0  0  0  0  0  0  0  # atno 7974 bound_to 7965
  156.2723  140.2788  156.1450 H   0  0  0  0  0  0  0  0  0  0  0  0  # atno 8008 bound_to 7997
  155.0913  140.0388  157.2687 H   0  0  0  0  0  0  0  0  0  0  0  0  # atno 8009 bound_to 7997
  154.6887  140.2624  155.6840 H   0  0  0  0  0  0  0  0  0  0  0  0  # atno 8010 bound_to 7997
  140.7288  143.4427  151.0633 H   0  0  0  0  0  0  0  0  0  0  0  0  # atno 10167 bound_to 10162
  156.0017  130.4668  150.4269 H   0  0  0  0  0  0  0  0  0  0  0  0  # atno 10718 bound_to 10713
  154.5396  135.5693  153.6828 H   0  0  0  0  0  0  0  0  0  0  0  0  # atno 10763 bound_to 10752
  152.9960  135.6224  154.2520 H   0  0  0  0  0  0  0  0  0  0  0  0  # atno 10764 bound_to 10752
  154.2450  135.2861  155.2818 H   0  0  0  0  0  0  0  0  0  0  0  0  # atno 10765 bound_to 10752
  141.0922  133.6631  156.4017 H   0  0  0  0  0  0  0  0  0  0  0  0  # atno 11005 bound_to 11000
  144.8578  139.5223  143.6826 LP  0  0  0  0  0  0  0  0  0  0  0  0  # atno 17320 bound_to 7965
  146.2886  139.7075  142.9177 LP  0  0  0  0  0  0  0  0  0  0  0  0  # atno 17321 bound_to 7965
  139.8096  143.7970  152.3170 LP  0  0  0  0  0  0  0  0  0  0  0  0  # atno 17342 bound_to 10162
  139.8015  144.7372  150.9819 LP  0  0  0  0  0  0  0  0  0  0  0  0  # atno 17343 bound_to 10162
  157.2320  131.0506  151.2486 LP  0  0  0  0  0  0  0  0  0  0  0  0  # atno 17370 bound_to 10713
  157.3702  130.7177  149.6559 LP  0  0  0  0  0  0  0  0  0  0  0  0  # atno 17371 bound_to 10713
  140.5226  134.6290  157.5323 LP  0  0  0  0  0  0  0  0  0  0  0  0  # atno 17394 bound_to 11000
  139.9750  134.7230  155.9967 LP  0  0  0  0  0  0  0  0  0  0  0  0  # atno 17395 bound_to 11000

$$$$
