AV-unprocessed.smi:1151|AV-procd|sdf|4896|dock7
  -GOLD-   22720 3473D 1   1.00000     0.00000
 Structure written by MMmdl.
 35 36  0  0  0  0  0  0  0  0  1 V2000
  152.7721  143.5880  162.0193 C   0  0  0  0  0  0  0  0  0  0  0  0
  152.1994  143.8132  160.6620 C   0  0  0  0  0  0  0  0  0  0  0  0
  151.6891  142.8382  159.9053 N   0  0  0  0  0  0  0  0  0  0  0  0
  151.2152  143.3043  158.6751 C   0  0  0  0  0  0  0  0  0  0  0  0
  150.6178  142.3445  157.6867 C   0  0  0  0  0  0  0  0  0  0  0  0
  149.1279  142.0409  157.9465 C   0  0  0  0  0  0  0  0  0  0  0  0
  148.4926  141.3275  156.8423 N   0  0  0  0  0  0  0  0  0  0  0  0
  149.0182  140.2751  156.1973 C   0  0  0  0  0  0  0  0  0  0  0  0
  150.1366  139.8228  156.4440 O   0  0  0  0  0  0  0  0  0  0  0  0
  148.1372  139.6257  155.1221 C   0  0  1  0  0  0  0  0  0  0  0  0
  147.8209  140.6117  153.9851 C   0  0  0  0  0  0  0  0  0  0  0  0
  146.8960  139.9689  152.9390 C   0  0  0  0  0  0  0  0  0  0  0  0
  147.3282  138.5531  152.5290 C   0  0  0  0  0  0  0  0  0  0  0  0
  146.8825  138.0610  151.4950 O   0  0  0  0  0  0  0  0  0  0  0  0
  148.1595  137.8660  153.3320 N   0  0  0  0  0  0  0  0  0  0  0  0
  148.8188  138.3714  154.5363 C   0  0  0  0  0  0  0  0  0  0  0  0
  151.3764  144.6577  158.5105 C   0  0  0  0  0  0  0  0  0  0  0  0
  152.1364  145.3947  159.8932 S   0  0  0  0  0  0  0  0  0  0  0  0
  152.3846  142.6639  162.4494 H   0  0  0  0  0  0  0  0  0  0  0  0
  152.5096  144.4153  162.6788 H   0  0  0  0  0  0  0  0  0  0  0  0
  153.8582  143.5187  161.9582 H   0  0  0  0  0  0  0  0  0  0  0  0
  150.7310  142.7330  156.6742 H   0  0  0  0  0  0  0  0  0  0  0  0
  151.1800  141.4101  157.7016 H   0  0  0  0  0  0  0  0  0  0  0  0
  149.0376  141.4100  158.8313 H   0  0  0  0  0  0  0  0  0  0  0  0
  148.5829  142.9602  158.1661 H   0  0  0  0  0  0  0  0  0  0  0  0
  147.5685  141.6344  156.5751 H   0  0  0  0  0  0  0  0  0  0  0  0
  147.1934  139.3237  155.5805 H   0  0  0  0  0  0  0  0  0  0  0  0
  147.3488  141.5109  154.3834 H   0  0  0  0  0  0  0  0  0  0  0  0
  148.7424  140.9372  153.4989 H   0  0  0  0  0  0  0  0  0  0  0  0
  145.8845  139.9009  153.3406 H   0  0  0  0  0  0  0  0  0  0  0  0
  146.8375  140.6025  152.0533 H   0  0  0  0  0  0  0  0  0  0  0  0
  148.3979  136.9254  153.0526 H   0  0  0  0  0  0  0  0  0  0  0  0
  149.8572  138.5819  154.2756 H   0  0  0  0  0  0  0  0  0  0  0  0
  148.8404  137.5746  155.2806 H   0  0  0  0  0  0  0  0  0  0  0  0
  151.1022  145.2611  157.6578 H   0  0  0  0  0  0  0  0  0  0  0  0
  1  2  1  0  0  0  0
  1 19  1  0  0  0  0
  1 20  1  0  0  0  0
  1 21  1  0  0  0  0
  2 18  1  0  0  0  0
  2  3  2  0  0  0  0
  3  4  1  0  0  0  0
  4  5  1  0  0  0  0
  4 17  2  0  0  0  0
  5  6  1  0  0  0  0
  5 22  1  0  0  0  0
  5 23  1  0  0  0  0
  6  7  1  0  0  0  0
  6 24  1  0  0  0  0
  6 25  1  0  0  0  0
  7  8  1  0  0  0  0
  7 26  1  0  0  0  0
  8  9  2  0  0  0  0
  8 10  1  0  0  0  0
 10 16  1  0  0  0  0
 10 11  1  0  0  0  0
 10 27  1  0  0  0  0
 11 12  1  0  0  0  0
 11 28  1  0  0  0  0
 11 29  1  0  0  0  0
 12 13  1  0  0  0  0
 12 30  1  0  0  0  0
 12 31  1  0  0  0  0
 13 14  2  0  0  0  0
 13 15  1  0  0  0  0
 15 16  1  0  0  0  0
 15 32  1  0  0  0  0
 16 33  1  0  0  0  0
 16 34  1  0  0  0  0
 17 18  1  0  0  0  0
 17 35  1  0  0  0  0
M  END
> <s_m_source_file>
AV-unprocessed.smi

> <i_m_source_file_index>
1151

> <i_lp_mmshare_version>
43012

> <i_f3d_flags>
0

> <s_epik_input>
W0NIM11jMW5jKFtjSF1zMSlbQ0gyXVtDSDJdW05IXUMoPU8pW0NAQEhdMltDSDJdW0NIMl1DKD1PKVtOSF1bQ0gyXTI=

> <s_epik_cmdline>
J2VwaWtfcHl0aG9uJywgJy1waCcsICc3LjAnLCAnLXRuJywgJzgnLCAnLW1hJywgJzIwMCcsICctbWV0YWxfYmluZGluZycsICctaW1hZScsICc8aW5maWxlLm1hZT4nLCAnLW9tYWUnLCAnPG91dGZpbGUubWFlPic=

> <r_epik_Ionization_Penalty>
0.00105008

> <r_epik_Ionization_Penalty_Charging>
0

> <r_epik_Ionization_Penalty_Neutral>
0.00105008

> <r_epik_State_Penalty>
0.000686749

> <r_epik_Charging_Adjusted_Penalty>
0.000686749

> <i_epik_Tot_Q>
0

> <i_epik_Tot_abs_Q>
0

> <r_epik_Metal_State_Penalty>
-0

> <b_epik_Metal_Only>
0

> <s_lp_Force_Field>
OPLS_2005

> <r_lp_Energy>
7.51238

> <b_lp_Chiralities_Consistent>
1

> <s_lp_Variant>
AV-unprocessed.smi:1151-2

> <Gold.Version>
5.8.1

> <Gold.Id.Protein>
6NUR|6NUR_protein|mol2

> <Gold.PLP.Fitness>
39.9503

> <Gold.PLP.PLP>
-35.1016

> <Gold.PLP.part.hbond>
-3.1142

> <Gold.PLP.part.metal>
0.0000

> <Gold.PLP.part.buried>
-2.4179

> <Gold.PLP.part.nonpolar>
-29.4928

> <Gold.PLP.part.repulsive>
1.1681

> <Gold.PLP.ligand.clash>
0.0000

> <Gold.PLP.ligand.torsion>
0.4717

> <Gold.PLP.Chemscore.Hbond>
1.9280

> <Gold.PLP.Chemscore.CHOScore>
0.0000

> <Gold.PLP.Chemscore.Metal>
0.0000

> <Gold.Chemscore.Hbonds>
donor molecule, donor type, donor heavy atom, donor atom, acceptor molecule, acceptor atom, score
      L1  H    15    32       P1  7948  0.66
      P1  H  7954  7966       L1    14  0.93

> <Gold.PLP.Chemscore.Internal.Correction>
0.0081

> <Gold.Rescore>
     Score         DG    S(hbond)    S(metal)    S(lipo)     H(rot)  DE(clash)    DE(int)     intcor
     15.51     -18.66       1.84        0.00      97.32       1.70       1.48       1.67       ----

> <Gold.Chemscore.Fitness>
15.5107

> <Gold.Chemscore.DG>
-18.6563

> <Gold.Chemscore.ZeroCoef>
-5.4800

> <Gold.Chemscore.Hbond>
1.8373

> <Gold.Chemscore.Metal>
0.0000

> <Gold.Chemscore.Lipo>
97.3158

> <Gold.Chemscore.Internal_Hbond>
0.0000

> <Gold.Chemscore.DEClash>
1.4770

> <Gold.Chemscore.DEInternal>
1.6687

> <Gold.Chemscore.Rot>
1.6978

> <Gold.Chemscore.Internal.Correction>
   9.000000E+99

> <Gold.Chemscore.Hbonds>
donor molecule, donor type, donor heavy atom, donor atom, acceptor molecule, acceptor atom, score
      L1  H    15    32       P1  7948  0.65
      P1  H  7954  7966       L1    14  0.85

> <Gold.Chemscore.Hbond.Weighted>
-6.1367

> <Gold.Chemscore.Metal.Weighted>
-0.0000

> <Gold.Chemscore.Lipo.Weighted>
-11.3859

> <Gold.Chemscore.Internal_Hbond.Weighted>
0.0000

> <Gold.Chemscore.DEClash.Weighted>
1.4770

> <Gold.Chemscore.DEInternal.Weighted>
1.6687

> <Gold.Chemscore.Rot.Weighted>
4.3463

> <Gold.Chemscore.Internal.Correction.Weighted>
   9.000000E+99

> <Gold.Protein.RotatedTorsions>
[ 6907 6896 6895 6894 ] final -128.49 input  -60.11 | X-H torsion
[ 7974 7965 7964 7962 ] final -161.34 input  175.53 | X-H torsion
[ 8008 7997 7996 7995 ] final -174.65 input   59.86 | X-H torsion
[ 10167 10162 10161 10158 ] final  104.91 input  -65.29 | X-H torsion
[ 10718 10713 10712 10709 ] final  -47.02 input   66.30 | X-H torsion
[ 10763 10752 10751 10750 ] final   90.67 input  -60.55 | X-H torsion
[ 11005 11000 10999 10996 ] final -111.83 input  -57.11 | X-H torsion

> <Gold.Protein.ActiveResidues>
 VAL166  LYS551  ARG553  GLY616  TRP617  ASP618  TYR619  PRO620  LYS621  CYS622 
 ASP623  PHE694  ASN695  SER759  ASP760  ASP761  ALA762  ILE779  LEU786  VAL792 
 PHE793  MET794  SER795  GLU796  ALA797  LYS798  CYS799  TRP800  GLU811  SER814 

> <Gold.Protein.RotatedAtoms>
  150.9185  133.6910  159.2837 H   0  0  0  0  0  0  0  0  0  0  0  0  # atno 6907 bound_to 6896
  151.4373  135.1015  159.9669 H   0  0  0  0  0  0  0  0  0  0  0  0  # atno 6908 bound_to 6896
  152.4967  133.8601  159.7301 H   0  0  0  0  0  0  0  0  0  0  0  0  # atno 6909 bound_to 6896
  144.7394  140.3411  143.6134 H   0  0  0  0  0  0  0  0  0  0  0  0  # atno 7974 bound_to 7965
  155.9727  140.1166  157.0798 H   0  0  0  0  0  0  0  0  0  0  0  0  # atno 8008 bound_to 7997
  154.4161  140.1160  156.5396 H   0  0  0  0  0  0  0  0  0  0  0  0  # atno 8009 bound_to 7997
  155.6575  140.3473  155.4773 H   0  0  0  0  0  0  0  0  0  0  0  0  # atno 8010 bound_to 7997
  139.7137  144.7072  151.0985 H   0  0  0  0  0  0  0  0  0  0  0  0  # atno 10167 bound_to 10162
  156.2125  130.4161  149.9096 H   0  0  0  0  0  0  0  0  0  0  0  0  # atno 10718 bound_to 10713
  153.2000  135.4425  155.0255 H   0  0  0  0  0  0  0  0  0  0  0  0  # atno 10763 bound_to 10752
  154.8141  135.3307  154.7226 H   0  0  0  0  0  0  0  0  0  0  0  0  # atno 10764 bound_to 10752
  153.7672  135.6987  153.4969 H   0  0  0  0  0  0  0  0  0  0  0  0  # atno 10765 bound_to 10752
  141.0711  133.9378  157.2483 H   0  0  0  0  0  0  0  0  0  0  0  0  # atno 11005 bound_to 11000
  145.7373  139.1754  143.2396 LP  0  0  0  0  0  0  0  0  0  0  0  0  # atno 17320 bound_to 7965
  146.1161  140.7368  142.9480 LP  0  0  0  0  0  0  0  0  0  0  0  0  # atno 17321 bound_to 7965
  140.7739  143.5259  150.9481 LP  0  0  0  0  0  0  0  0  0  0  0  0  # atno 17342 bound_to 10162
  139.8944  143.6913  152.3140 LP  0  0  0  0  0  0  0  0  0  0  0  0  # atno 17343 bound_to 10162
  156.6769  130.8842  151.3570 LP  0  0  0  0  0  0  0  0  0  0  0  0  # atno 17370 bound_to 10713
  157.7046  130.9371  150.0891 LP  0  0  0  0  0  0  0  0  0  0  0  0  # atno 17371 bound_to 10713
  139.9524  135.0172  156.9032 LP  0  0  0  0  0  0  0  0  0  0  0  0  # atno 17394 bound_to 11000
  140.5672  134.0478  155.7418 LP  0  0  0  0  0  0  0  0  0  0  0  0  # atno 17395 bound_to 11000

$$$$
