AV-unprocessed.smi:2822|AV-procd|sdf|10872|dock10
  -GOLD-   2272015313D 1   1.00000     0.00000
 Structure written by MMmdl.
 40 42  0  0  0  0  0  0  0  0  2 V2000
  147.8326  132.9401  152.5828 Cl  0  0  0  0  0  0  0  0  0  0  0  0
  146.3345  133.0042  151.7210 C   0  0  0  0  0  0  0  0  0  0  0  0
  145.6273  131.8129  151.4582 C   0  0  0  0  0  0  0  0  0  0  0  0
  144.4544  131.7753  150.7919 N   0  0  0  0  0  0  0  0  0  0  0  0
  143.9403  132.9453  150.3594 C   0  0  0  0  0  0  0  0  0  0  0  0
  144.5642  134.1914  150.5679 C   0  0  0  0  0  0  0  0  0  0  0  0
  145.7948  134.2293  151.2655 C   0  0  0  0  0  0  0  0  0  0  0  0
  146.4835  135.4262  151.5168 N   0  0  0  0  0  0  0  0  0  0  0  0
  146.0095  136.6834  150.9586 C   0  0  0  0  0  0  0  0  0  0  0  0
  145.6109  137.6780  152.0579 C   0  0  2  0  0  0  0  0  0  0  0  0
  146.6539  138.8002  152.2110 C   0  0  0  0  0  0  0  0  0  0  0  0
  146.2938  139.6998  153.3351 N   0  3  2  0  0  0  0  0  0  0  0  0
  147.2243  140.8454  153.5112 C   0  0  0  0  0  0  0  0  0  0  0  0
  148.5582  140.4199  154.1540 C   0  0  0  0  0  0  0  0  0  0  0  0
  148.3219  139.6744  155.4745 C   0  0  0  0  0  0  0  0  0  0  0  0
  147.3649  138.4933  155.2588 C   0  0  0  0  0  0  0  0  0  0  0  0
  146.0460  138.9573  154.6019 C   0  0  2  0  0  0  0  0  0  0  0  0
  145.0640  137.7950  154.3541 C   0  0  0  0  0  0  0  0  0  0  0  0
  145.5306  136.9724  153.2919 O   0  0  0  0  0  0  0  0  0  0  0  0
  146.0147  130.8616  151.7924 H   0  0  0  0  0  0  0  0  0  0  0  0
  143.0003  132.8880  149.8307 H   0  0  0  0  0  0  0  0  0  0  0  0
  144.0902  135.0868  150.1948 H   0  0  0  0  0  0  0  0  0  0  0  0
  147.4385  135.3746  151.8423 H   0  0  0  0  0  0  0  0  0  0  0  0
  146.7783  137.1186  150.3187 H   0  0  0  0  0  0  0  0  0  0  0  0
  145.1433  136.4733  150.3301 H   0  0  0  0  0  0  0  0  0  0  0  0
  144.6395  138.1130  151.8138 H   0  0  0  0  0  0  0  0  0  0  0  0
  147.6416  138.3671  152.3713 H   0  0  0  0  0  0  0  0  0  0  0  0
  146.7100  139.3808  151.2893 H   0  0  0  0  0  0  0  0  0  0  0  0
  147.4006  141.3340  152.5522 H   0  0  0  0  0  0  0  0  0  0  0  0
  146.7376  141.5856  154.1473 H   0  0  0  0  0  0  0  0  0  0  0  0
  149.1210  139.7856  153.4687 H   0  0  0  0  0  0  0  0  0  0  0  0
  149.1794  141.2981  154.3317 H   0  0  0  0  0  0  0  0  0  0  0  0
  149.2698  139.3216  155.8821 H   0  0  0  0  0  0  0  0  0  0  0  0
  147.9009  140.3592  156.2119 H   0  0  0  0  0  0  0  0  0  0  0  0
  147.8511  137.7353  154.6436 H   0  0  0  0  0  0  0  0  0  0  0  0
  147.1549  138.0165  156.2169 H   0  0  0  0  0  0  0  0  0  0  0  0
  145.5640  139.6517  155.2919 H   0  0  0  0  0  0  0  0  0  0  0  0
  144.9552  137.1885  155.2538 H   0  0  0  0  0  0  0  0  0  0  0  0
  144.0699  138.1759  154.1138 H   0  0  0  0  0  0  0  0  0  0  0  0
  145.4058  140.1043  153.0742 H   0  0  0  0  0  0  0  0  0  0  0  0
  1  2  1  0  0  0  0
  2  7  1  0  0  0  0
  2  3  2  0  0  0  0
  3  4  1  0  0  0  0
  3 20  1  0  0  0  0
  4  5  2  0  0  0  0
  5  6  1  0  0  0  0
  5 21  1  0  0  0  0
  6  7  2  0  0  0  0
  6 22  1  0  0  0  0
  7  8  1  0  0  0  0
  8  9  1  0  0  0  0
  8 23  1  0  0  0  0
  9 10  1  0  0  0  0
  9 24  1  0  0  0  0
  9 25  1  0  0  0  0
 10 19  1  0  0  0  0
 10 11  1  0  0  0  0
 10 26  1  0  0  0  0
 11 12  1  0  0  0  0
 11 27  1  0  0  0  0
 11 28  1  0  0  0  0
 12 17  1  0  0  0  0
 12 13  1  0  0  0  0
 12 40  1  0  0  0  0
 13 14  1  0  0  0  0
 13 29  1  0  0  0  0
 13 30  1  0  0  0  0
 14 15  1  0  0  0  0
 14 31  1  0  0  0  0
 14 32  1  0  0  0  0
 15 16  1  0  0  0  0
 15 33  1  0  0  0  0
 15 34  1  0  0  0  0
 16 17  1  0  0  0  0
 16 35  1  0  0  0  0
 16 36  1  0  0  0  0
 17 18  1  0  0  0  0
 17 37  1  0  0  0  0
 18 19  1  0  0  0  0
 18 38  1  0  0  0  0
 18 39  1  0  0  0  0
M  CHG  1  12   1
M  END
> <s_m_source_file>
AV-unprocessed.smi

> <i_m_source_file_index>
2822

> <i_lp_mmshare_version>
43012

> <i_f3d_flags>
0

> <s_epik_input>
Q2xjMVtjSF1uW2NIXVtjSF1jMVtOSF1bQ0gyXVtDQEhdKFtDSDJdMilPW0NIMl1bQ0BASF0oTjIzKVtDSDJdW0NIMl1bQ0gyXVtDSDJdMw==

> <s_epik_cmdline>
J2VwaWtfcHl0aG9uJywgJy1waCcsICc3LjAnLCAnLXRuJywgJzgnLCAnLW1hJywgJzIwMCcsICctbWV0YWxfYmluZGluZycsICctaW1hZScsICc8aW5maWxlLm1hZT4nLCAnLW9tYWUnLCAnPG91dGZpbGUubWFlPic=

> <r_lp_tautomer_probability>
0.999999

> <r_epik_Ionization_Penalty>
0.88937

> <r_epik_Ionization_Penalty_Charging>
0.0803403

> <r_epik_Ionization_Penalty_Neutral>
0.80903

> <r_epik_State_Penalty>
0.931884

> <r_epik_Charging_Adjusted_Penalty>
1.01222

> <i_epik_Tot_Q>
1

> <i_epik_Tot_abs_Q>
1

> <r_epik_Metal_State_Penalty>
0.0782275

> <b_epik_Metal_Only>
0

> <s_lp_Force_Field>
OPLS_2005

> <r_lp_Energy>
31.6827

> <b_lp_Chiralities_Consistent>
1

> <s_lp_Variant>
AV-unprocessed.smi:2822-13

> <Gold.Version>
5.8.1

> <Gold.Id.Protein>
6NUR|6NUR_protein|mol2

> <Gold.PLP.Fitness>
39.8028

> <Gold.PLP.PLP>
-29.5108

> <Gold.PLP.part.hbond>
-2.0000

> <Gold.PLP.part.metal>
0.0000

> <Gold.PLP.part.buried>
-0.2231

> <Gold.PLP.part.nonpolar>
-28.6784

> <Gold.PLP.part.repulsive>
0.3909

> <Gold.PLP.ligand.clash>
0.0000

> <Gold.PLP.ligand.torsion>
0.6683

> <Gold.PLP.Chemscore.Hbond>
2.8800

> <Gold.PLP.Chemscore.CHOScore>
0.9957

> <Gold.PLP.Chemscore.Metal>
0.0000

> <Gold.Chemscore.Hbonds>
donor molecule, donor type, donor heavy atom, donor atom, acceptor molecule, acceptor atom, score
      L1  H     8    23       P1  7948  0.86
      L1  H    12    40       P1 10175  2.00
      L1  C     5    21       P1 10186  1.00

> <Gold.PLP.Chemscore.Internal.Correction>
0.0015

> <Gold.Rescore>
     Score         DG    S(hbond)    S(metal)    S(lipo)     H(rot)  DE(clash)    DE(int)     intcor
     17.65     -18.89       1.94        0.00      84.86       1.17       0.62       0.62       ----

> <Gold.Chemscore.Fitness>
17.6500

> <Gold.Chemscore.DG>
-18.8873

> <Gold.Chemscore.ZeroCoef>
-5.4800

> <Gold.Chemscore.Hbond>
1.9377

> <Gold.Chemscore.Metal>
0.0000

> <Gold.Chemscore.Lipo>
84.8620

> <Gold.Chemscore.Internal_Hbond>
0.0000

> <Gold.Chemscore.DEClash>
0.6197

> <Gold.Chemscore.DEInternal>
0.6177

> <Gold.Chemscore.Rot>
1.1693

> <Gold.Chemscore.Internal.Correction>
   9.000000E+99

> <Gold.Chemscore.Hbonds>
donor molecule, donor type, donor heavy atom, donor atom, acceptor molecule, acceptor atom, score
      L1  H     8    23       P1  7948  0.83
      L1  H    12    40       P1 10175  1.00

> <Gold.Chemscore.Hbond.Weighted>
-6.4718

> <Gold.Chemscore.Metal.Weighted>
-0.0000

> <Gold.Chemscore.Lipo.Weighted>
-9.9289

> <Gold.Chemscore.Internal_Hbond.Weighted>
0.0000

> <Gold.Chemscore.DEClash.Weighted>
0.6197

> <Gold.Chemscore.DEInternal.Weighted>
0.6177

> <Gold.Chemscore.Rot.Weighted>
2.9934

> <Gold.Chemscore.Internal.Correction.Weighted>
   9.000000E+99

> <Gold.Protein.RotatedTorsions>
[ 6907 6896 6895 6894 ] final   97.48 input  -60.11 | X-H torsion
[ 7974 7965 7964 7962 ] final  -84.57 input  175.53 | X-H torsion
[ 8008 7997 7996 7995 ] final   35.44 input   59.86 | X-H torsion
[ 10167 10162 10161 10158 ] final   46.82 input  -65.29 | X-H torsion
[ 10718 10713 10712 10709 ] final   60.84 input   66.30 | X-H torsion
[ 10763 10752 10751 10750 ] final   29.79 input  -60.55 | X-H torsion
[ 11005 11000 10999 10996 ] final  135.23 input  -57.11 | X-H torsion

> <Gold.Protein.ActiveResidues>
 VAL166  LYS551  ARG553  GLY616  TRP617  ASP618  TYR619  PRO620  LYS621  CYS622 
 ASP623  PHE694  ASN695  SER759  ASP760  ASP761  ALA762  ILE779  LEU786  VAL792 
 PHE793  MET794  SER795  GLU796  ALA797  LYS798  CYS799  TRP800  GLU811  SER814 

> <Gold.Protein.RotatedAtoms>
  152.5423  134.0726  159.8200 H   0  0  0  0  0  0  0  0  0  0  0  0  # atno 6907 bound_to 6896
  151.0839  133.5361  159.2626 H   0  0  0  0  0  0  0  0  0  0  0  0  # atno 6908 bound_to 6896
  151.2178  135.0515  159.8991 H   0  0  0  0  0  0  0  0  0  0  0  0  # atno 6909 bound_to 6896
  145.5049  140.9544  143.1739 H   0  0  0  0  0  0  0  0  0  0  0  0  # atno 7974 bound_to 7965
  155.1711  140.3292  155.4392 H   0  0  0  0  0  0  0  0  0  0  0  0  # atno 8008 bound_to 7997
  156.2510  140.1943  156.6764 H   0  0  0  0  0  0  0  0  0  0  0  0  # atno 8009 bound_to 7997
  154.6337  140.0579  156.9749 H   0  0  0  0  0  0  0  0  0  0  0  0  # atno 8010 bound_to 7997
  140.3100  144.2832  150.6201 H   0  0  0  0  0  0  0  0  0  0  0  0  # atno 10167 bound_to 10162
  157.5783  130.8961  149.9386 H   0  0  0  0  0  0  0  0  0  0  0  0  # atno 10718 bound_to 10713
  153.0409  135.6480  154.0945 H   0  0  0  0  0  0  0  0  0  0  0  0  # atno 10763 bound_to 10752
  154.0651  135.2885  155.3319 H   0  0  0  0  0  0  0  0  0  0  0  0  # atno 10764 bound_to 10752
  154.6631  135.5384  153.8108 H   0  0  0  0  0  0  0  0  0  0  0  0  # atno 10765 bound_to 10752
  139.9966  134.9495  156.9978 H   0  0  0  0  0  0  0  0  0  0  0  0  # atno 11005 bound_to 11000
  144.7759  139.6630  143.7175 LP  0  0  0  0  0  0  0  0  0  0  0  0  # atno 17320 bound_to 7965
  146.2203  139.5624  142.9623 LP  0  0  0  0  0  0  0  0  0  0  0  0  # atno 17321 bound_to 7965
  140.5576  143.2196  151.7820 LP  0  0  0  0  0  0  0  0  0  0  0  0  # atno 17342 bound_to 10162
  139.4896  144.4392  151.9784 LP  0  0  0  0  0  0  0  0  0  0  0  0  # atno 17343 bound_to 10162
  156.0828  130.3671  150.0546 LP  0  0  0  0  0  0  0  0  0  0  0  0  # atno 17370 bound_to 10713
  156.8690  130.9517  151.3611 LP  0  0  0  0  0  0  0  0  0  0  0  0  # atno 17371 bound_to 10713
  140.4807  134.1293  155.7216 LP  0  0  0  0  0  0  0  0  0  0  0  0  # atno 17394 bound_to 11000
  141.1609  133.8795  157.1850 LP  0  0  0  0  0  0  0  0  0  0  0  0  # atno 17395 bound_to 11000

$$$$
