AV-unprocessed.smi:2173|AV-procd|sdf|8839|dock4
  -GOLD-   2272012 33D 1   1.00000     0.00000
 Structure written by MMmdl.
 35 36  0  0  0  0  0  0  0  0  1 V2000
  151.3033  140.2518  155.2211 O   0  0  0  0  0  0  0  0  0  0  0  0
  150.5908  140.7789  156.0762 C   0  0  0  0  0  0  0  0  0  0  0  0
  150.9211  140.8358  157.3752 N   0  0  0  0  0  0  0  0  0  0  0  0
  152.1808  140.3656  157.9424 C   0  0  0  0  0  0  0  0  0  0  0  0
  152.5062  141.0074  159.3077 C   0  0  0  0  0  0  0  0  0  0  0  0
  152.1169  142.4740  159.4065 C   0  0  0  0  0  0  0  0  0  0  0  0
  152.2258  143.1630  160.6331 C   0  0  0  0  0  0  0  0  0  0  0  0
  151.8306  144.5142  160.6812 C   0  0  0  0  0  0  0  0  0  0  0  0
  151.3427  145.1212  159.5079 C   0  0  0  0  0  0  0  0  0  0  0  0
  151.2738  144.3476  158.3324 C   0  0  0  0  0  0  0  0  0  0  0  0
  151.6507  143.0525  158.2758 N   0  0  0  0  0  0  0  0  0  0  0  0
  149.2607  141.4340  155.6826 C   0  0  1  0  0  0  0  0  0  0  0  0
  148.9571  141.2017  154.1848 C   0  0  0  0  0  0  0  0  0  0  0  0
  147.5439  141.6163  153.8160 C   0  0  0  0  0  0  0  0  0  0  0  0
  146.5752  141.8275  154.7234 C   0  0  0  0  0  0  0  0  0  0  0  0
  146.7822  141.6699  156.2197 C   0  0  0  0  0  0  0  0  0  0  0  0
  148.0926  140.9311  156.5544 C   0  0  0  0  0  0  0  0  0  0  0  0
  150.2760  141.2858  158.0083 H   0  0  0  0  0  0  0  0  0  0  0  0
  152.0989  139.2851  158.0627 H   0  0  0  0  0  0  0  0  0  0  0  0
  152.9979  140.5348  157.2393 H   0  0  0  0  0  0  0  0  0  0  0  0
  152.0019  140.4531  160.0997 H   0  0  0  0  0  0  0  0  0  0  0  0
  153.5736  140.9125  159.5129 H   0  0  0  0  0  0  0  0  0  0  0  0
  152.5990  142.6675  161.5173 H   0  0  0  0  0  0  0  0  0  0  0  0
  151.8986  145.0744  161.6019 H   0  0  0  0  0  0  0  0  0  0  0  0
  151.0293  146.1547  159.5082 H   0  0  0  0  0  0  0  0  0  0  0  0
  150.9045  144.7794  157.4138 H   0  0  0  0  0  0  0  0  0  0  0  0
  149.3512  142.5097  155.8463 H   0  0  0  0  0  0  0  0  0  0  0  0
  149.6572  141.7732  153.5745 H   0  0  0  0  0  0  0  0  0  0  0  0
  149.0830  140.1529  153.9121 H   0  0  0  0  0  0  0  0  0  0  0  0
  147.3293  141.7298  152.7635 H   0  0  0  0  0  0  0  0  0  0  0  0
  145.5924  142.1355  154.3976 H   0  0  0  0  0  0  0  0  0  0  0  0
  146.7851  142.6647  156.6660 H   0  0  0  0  0  0  0  0  0  0  0  0
  145.9343  141.1333  156.6460 H   0  0  0  0  0  0  0  0  0  0  0  0
  147.9496  139.8617  156.3897 H   0  0  0  0  0  0  0  0  0  0  0  0
  148.3214  141.0505  157.6143 H   0  0  0  0  0  0  0  0  0  0  0  0
  1  2  2  0  0  0  0
  2  3  1  0  0  0  0
  2 12  1  0  0  0  0
  3  4  1  0  0  0  0
  3 18  1  0  0  0  0
  4  5  1  0  0  0  0
  4 19  1  0  0  0  0
  4 20  1  0  0  0  0
  5  6  1  0  0  0  0
  5 21  1  0  0  0  0
  5 22  1  0  0  0  0
  6 11  1  0  0  0  0
  6  7  2  0  0  0  0
  7  8  1  0  0  0  0
  7 23  1  0  0  0  0
  8  9  2  0  0  0  0
  8 24  1  0  0  0  0
  9 10  1  0  0  0  0
  9 25  1  0  0  0  0
 10 11  2  0  0  0  0
 10 26  1  0  0  0  0
 12 17  1  0  0  0  0
 12 13  1  0  0  0  0
 12 27  1  0  0  0  0
 13 14  1  0  0  0  0
 13 28  1  0  0  0  0
 13 29  1  0  0  0  0
 14 15  2  0  0  0  0
 14 30  1  0  0  0  0
 15 16  1  0  0  0  0
 15 31  1  0  0  0  0
 16 17  1  0  0  0  0
 16 32  1  0  0  0  0
 16 33  1  0  0  0  0
 17 34  1  0  0  0  0
 17 35  1  0  0  0  0
M  END
> <s_m_source_file>
AV-unprocessed.smi

> <i_m_source_file_index>
2173

> <i_lp_mmshare_version>
43012

> <i_f3d_flags>
0

> <s_epik_input>
W0NIMl0xW0NIMl1bQ0hdPVtDSF1bQ0gyXVtDQEhdMUMoPU8pW05IXVtDSDJdW0NIMl1jMltjSF1bY0hdW2NIXVtjSF1uMg==

> <s_epik_cmdline>
J2VwaWtfcHl0aG9uJywgJy1waCcsICc3LjAnLCAnLXRuJywgJzgnLCAnLW1hJywgJzIwMCcsICctbWV0YWxfYmluZGluZycsICctaW1hZScsICc8aW5maWxlLm1hZT4nLCAnLW9tYWUnLCAnPG91dGZpbGUubWFlPic=

> <r_epik_Ionization_Penalty>
0.0268825

> <r_epik_Ionization_Penalty_Charging>
0

> <r_epik_Ionization_Penalty_Neutral>
0.0268825

> <r_epik_State_Penalty>
0.0219706

> <r_epik_Charging_Adjusted_Penalty>
0.0219706

> <i_epik_Tot_Q>
0

> <i_epik_Tot_abs_Q>
0

> <r_epik_Metal_State_Penalty>
0.0210138

> <b_epik_Metal_Only>
0

> <s_lp_Force_Field>
OPLS_2005

> <r_lp_Energy>
8.2635

> <b_lp_Chiralities_Consistent>
1

> <s_lp_Variant>
AV-unprocessed.smi:2173-2

> <Gold.Version>
5.8.1

> <Gold.Id.Protein>
6NUR|6NUR_protein|mol2

> <Gold.PLP.Fitness>
45.2198

> <Gold.PLP.PLP>
-39.9599

> <Gold.PLP.part.hbond>
-1.0000

> <Gold.PLP.part.metal>
0.0000

> <Gold.PLP.part.buried>
-5.5594

> <Gold.PLP.part.nonpolar>
-34.1711

> <Gold.PLP.part.repulsive>
0.1419

> <Gold.PLP.ligand.clash>
0.0000

> <Gold.PLP.ligand.torsion>
0.3898

> <Gold.PLP.Chemscore.Hbond>
1.0000

> <Gold.PLP.Chemscore.CHOScore>
1.0000

> <Gold.PLP.Chemscore.Metal>
0.0000

> <Gold.Chemscore.Hbonds>
donor molecule, donor type, donor heavy atom, donor atom, acceptor molecule, acceptor atom, score
      P1  H  7989  7998       L1     1  1.00
      L1  C    10    26       P1  8028  0.74

> <Gold.PLP.Chemscore.Internal.Correction>
0.0395

> <Gold.Rescore>
     Score         DG    S(hbond)    S(metal)    S(lipo)     H(rot)  DE(clash)    DE(int)     intcor
     15.98     -17.96       0.97        0.00     109.50       1.39       0.13       1.85       ----

> <Gold.Chemscore.Fitness>
15.9823

> <Gold.Chemscore.DG>
-17.9600

> <Gold.Chemscore.ZeroCoef>
-5.4800

> <Gold.Chemscore.Hbond>
0.9666

> <Gold.Chemscore.Metal>
0.0000

> <Gold.Chemscore.Lipo>
109.5016

> <Gold.Chemscore.Internal_Hbond>
0.0000

> <Gold.Chemscore.DEClash>
0.1279

> <Gold.Chemscore.DEInternal>
1.8498

> <Gold.Chemscore.Rot>
1.3907

> <Gold.Chemscore.Internal.Correction>
   9.000000E+99

> <Gold.Chemscore.Hbonds>
donor molecule, donor type, donor heavy atom, donor atom, acceptor molecule, acceptor atom, score
      P1  H  7989  7998       L1     1  0.96

> <Gold.Chemscore.Hbond.Weighted>
-3.2284

> <Gold.Chemscore.Metal.Weighted>
-0.0000

> <Gold.Chemscore.Lipo.Weighted>
-12.8117

> <Gold.Chemscore.Internal_Hbond.Weighted>
0.0000

> <Gold.Chemscore.DEClash.Weighted>
0.1279

> <Gold.Chemscore.DEInternal.Weighted>
1.8498

> <Gold.Chemscore.Rot.Weighted>
3.5601

> <Gold.Chemscore.Internal.Correction.Weighted>
   9.000000E+99

> <Gold.Protein.RotatedTorsions>
[ 6907 6896 6895 6894 ] final  -98.67 input  -60.11 | X-H torsion
[ 7974 7965 7964 7962 ] final    7.84 input  175.53 | X-H torsion
[ 8008 7997 7996 7995 ] final   76.87 input   59.86 | X-H torsion
[ 10167 10162 10161 10158 ] final  -37.33 input  -65.29 | X-H torsion
[ 10718 10713 10712 10709 ] final -151.30 input   66.30 | X-H torsion
[ 10763 10752 10751 10750 ] final -111.52 input  -60.55 | X-H torsion
[ 11005 11000 10999 10996 ] final  136.71 input  -57.11 | X-H torsion

> <Gold.Protein.ActiveResidues>
 VAL166  LYS551  ARG553  GLY616  TRP617  ASP618  TYR619  PRO620  LYS621  CYS622 
 ASP623  PHE694  ASN695  SER759  ASP760  ASP761  ALA762  ILE779  LEU786  VAL792 
 PHE793  MET794  SER795  GLU796  ALA797  LYS798  CYS799  TRP800  GLU811  SER814 

> <Gold.Protein.RotatedAtoms>
  150.7054  134.1159  159.4016 H   0  0  0  0  0  0  0  0  0  0  0  0  # atno 6907 bound_to 6896
  151.9146  135.0322  160.0526 H   0  0  0  0  0  0  0  0  0  0  0  0  # atno 6908 bound_to 6896
  152.2307  133.5021  159.5251 H   0  0  0  0  0  0  0  0  0  0  0  0  # atno 6909 bound_to 6896
  146.2422  140.0022  142.8415 H   0  0  0  0  0  0  0  0  0  0  0  0  # atno 7974 bound_to 7965
  155.8336  140.3465  155.5587 H   0  0  0  0  0  0  0  0  0  0  0  0  # atno 8008 bound_to 7997
  155.8216  140.0913  157.1865 H   0  0  0  0  0  0  0  0  0  0  0  0  # atno 8009 bound_to 7997
  154.4004  140.1429  156.3494 H   0  0  0  0  0  0  0  0  0  0  0  0  # atno 8010 bound_to 7997
  140.7121  143.3349  151.2485 H   0  0  0  0  0  0  0  0  0  0  0  0  # atno 10167 bound_to 10162
  156.4574  130.8197  151.2428 H   0  0  0  0  0  0  0  0  0  0  0  0  # atno 10718 bound_to 10713
  154.8304  135.4524  154.1051 H   0  0  0  0  0  0  0  0  0  0  0  0  # atno 10763 bound_to 10752
  153.2329  135.6907  153.7876 H   0  0  0  0  0  0  0  0  0  0  0  0  # atno 10764 bound_to 10752
  153.7252  135.3335  155.3251 H   0  0  0  0  0  0  0  0  0  0  0  0  # atno 10765 bound_to 10752
  140.0064  134.9457  157.0184 H   0  0  0  0  0  0  0  0  0  0  0  0  # atno 11005 bound_to 11000
  145.1404  140.9568  143.4492 LP  0  0  0  0  0  0  0  0  0  0  0  0  # atno 17320 bound_to 7965
  145.0301  139.3348  143.6029 LP  0  0  0  0  0  0  0  0  0  0  0  0  # atno 17321 bound_to 7965
  139.6842  143.9803  152.2825 LP  0  0  0  0  0  0  0  0  0  0  0  0  # atno 17342 bound_to 10162
  139.9443  144.6662  150.8235 LP  0  0  0  0  0  0  0  0  0  0  0  0  # atno 17343 bound_to 10162
  157.7500  131.0118  150.3360 LP  0  0  0  0  0  0  0  0  0  0  0  0  # atno 17370 bound_to 10713
  156.3752  130.3870  149.7144 LP  0  0  0  0  0  0  0  0  0  0  0  0  # atno 17371 bound_to 10713
  140.4633  134.1461  155.7194 LP  0  0  0  0  0  0  0  0  0  0  0  0  # atno 17394 bound_to 11000
  141.1680  133.8665  157.1657 LP  0  0  0  0  0  0  0  0  0  0  0  0  # atno 17395 bound_to 11000

$$$$
