AV-unprocessed.smi:2739|AV-procd|sdf|10553|dock7
  -GOLD-   2272015 03D 1   1.00000     0.00000
 Structure written by MMmdl.
 35 35  0  0  0  0  0  0  0  0  1 V2000
  150.9441  145.0906  159.3778 C   0  0  0  0  0  0  0  0  0  0  0  0
  152.3786  144.5442  159.3402 C   0  0  0  0  0  0  0  0  0  0  0  0
  152.5831  143.2831  160.2004 C   0  0  1  0  0  0  0  0  0  0  0  0
  152.2251  143.5393  161.6730 C   0  0  0  0  0  0  0  0  0  0  0  0
  151.7782  142.1815  159.6790 N   0  0  0  0  0  0  0  0  0  0  0  0
  152.2506  140.9900  159.2787 C   0  0  0  0  0  0  0  0  0  0  0  0
  153.4455  140.6959  159.2844 O   0  0  0  0  0  0  0  0  0  0  0  0
  151.2145  139.9719  158.7989 C   0  0  0  0  0  0  0  0  0  0  0  0
  150.8512  140.2042  157.4120 N   0  0  0  0  0  0  0  0  0  0  0  0
  150.2373  141.3076  156.8593 C   0  0  0  0  0  0  0  0  0  0  0  0
  150.0841  141.0606  155.5255 C   0  0  0  0  0  0  0  0  0  0  0  0
  150.6437  139.7617  155.3470 C   0  0  0  0  0  0  0  0  0  0  0  0
  150.7485  138.9474  154.0839 C   0  0  1  0  0  0  0  0  0  0  0  0
  151.4661  137.6141  154.3348 C   0  0  0  0  0  0  0  0  0  0  0  0
  149.4823  138.6697  153.5221 O   0  0  0  0  0  0  0  0  0  0  0  0
  151.1036  139.2572  156.4830 N   0  0  0  0  0  0  0  0  0  0  0  0
  150.8427  145.9545  158.7207 H   0  0  0  0  0  0  0  0  0  0  0  0
  150.6598  145.4066  160.3817 H   0  0  0  0  0  0  0  0  0  0  0  0
  150.2283  144.3371  159.0480 H   0  0  0  0  0  0  0  0  0  0  0  0
  152.6354  144.3164  158.3050 H   0  0  0  0  0  0  0  0  0  0  0  0
  153.0704  145.3254  159.6585 H   0  0  0  0  0  0  0  0  0  0  0  0
  153.6393  143.0121  160.1488 H   0  0  0  0  0  0  0  0  0  0  0  0
  152.8260  144.3493  162.0872 H   0  0  0  0  0  0  0  0  0  0  0  0
  152.4049  142.6539  162.2838 H   0  0  0  0  0  0  0  0  0  0  0  0
  151.1752  143.8127  161.7848 H   0  0  0  0  0  0  0  0  0  0  0  0
  150.7809  142.3315  159.6348 H   0  0  0  0  0  0  0  0  0  0  0  0
  151.6149  138.9620  158.8972 H   0  0  0  0  0  0  0  0  0  0  0  0
  150.3178  140.0243  159.4186 H   0  0  0  0  0  0  0  0  0  0  0  0
  149.9584  142.1642  157.4553 H   0  0  0  0  0  0  0  0  0  0  0  0
  149.6346  141.7083  154.7874 H   0  0  0  0  0  0  0  0  0  0  0  0
  151.3099  139.5089  153.3360 H   0  0  0  0  0  0  0  0  0  0  0  0
  152.4740  137.7774  154.7181 H   0  0  0  0  0  0  0  0  0  0  0  0
  151.5546  137.0348  153.4153 H   0  0  0  0  0  0  0  0  0  0  0  0
  150.9290  137.0052  155.0631 H   0  0  0  0  0  0  0  0  0  0  0  0
  149.4838  137.7777  153.2101 H   0  0  0  0  0  0  0  0  0  0  0  0
  1  2  1  0  0  0  0
  1 17  1  0  0  0  0
  1 18  1  0  0  0  0
  1 19  1  0  0  0  0
  2  3  1  0  0  0  0
  2 20  1  0  0  0  0
  2 21  1  0  0  0  0
  3  4  1  0  0  0  0
  3  5  1  0  0  0  0
  3 22  1  0  0  0  0
  4 23  1  0  0  0  0
  4 24  1  0  0  0  0
  4 25  1  0  0  0  0
  5  6  1  0  0  0  0
  5 26  1  0  0  0  0
  6  7  2  0  0  0  0
  6  8  1  0  0  0  0
  8  9  1  0  0  0  0
  8 27  1  0  0  0  0
  8 28  1  0  0  0  0
  9 16  1  0  0  0  0
  9 10  1  0  0  0  0
 10 11  2  0  0  0  0
 10 29  1  0  0  0  0
 11 12  1  0  0  0  0
 11 30  1  0  0  0  0
 12 13  1  0  0  0  0
 12 16  2  0  0  0  0
 13 14  1  0  0  0  0
 13 15  1  0  0  0  0
 13 31  1  0  0  0  0
 14 32  1  0  0  0  0
 14 33  1  0  0  0  0
 14 34  1  0  0  0  0
 15 35  1  0  0  0  0
M  END
> <s_m_source_file>
AV-unprocessed.smi

> <i_m_source_file_index>
2739

> <i_lp_mmshare_version>
43012

> <i_f3d_flags>
0

> <s_epik_input>
W0NIM11bQ0gyXVtDQEhdKFtDSDNdKVtOSF1DKD1PKVtDSDJdbjFbY0hdW2NIXWMobjEpW0NASF0oW0NIM10pW09IXQ==

> <s_epik_cmdline>
J2VwaWtfcHl0aG9uJywgJy1waCcsICc3LjAnLCAnLXRuJywgJzgnLCAnLW1hJywgJzIwMCcsICctbWV0YWxfYmluZGluZycsICctaW1hZScsICc8aW5maWxlLm1hZT4nLCAnLW9tYWUnLCAnPG91dGZpbGUubWFlPic=

> <r_lp_tautomer_probability>
1

> <r_epik_Ionization_Penalty>
5.22246e-06

> <r_epik_Ionization_Penalty_Charging>
0

> <r_epik_Ionization_Penalty_Neutral>
5.22246e-06

> <r_epik_State_Penalty>
-0

> <r_epik_Charging_Adjusted_Penalty>
0

> <i_epik_Tot_Q>
0

> <i_epik_Tot_abs_Q>
0

> <r_epik_Metal_State_Penalty>
-0

> <b_epik_Metal_Only>
0

> <s_lp_Force_Field>
OPLS_2005

> <r_lp_Energy>
1.19937

> <b_lp_Chiralities_Consistent>
1

> <s_lp_Variant>
AV-unprocessed.smi:2739-4

> <Gold.Version>
5.8.1

> <Gold.Id.Protein>
6NUR|6NUR_protein|mol2

> <Gold.PLP.Fitness>
40.1729

> <Gold.PLP.PLP>
-37.8751

> <Gold.PLP.part.hbond>
-2.0000

> <Gold.PLP.part.metal>
0.0000

> <Gold.PLP.part.buried>
-4.4552

> <Gold.PLP.part.nonpolar>
-30.6032

> <Gold.PLP.part.repulsive>
0.1003

> <Gold.PLP.ligand.clash>
0.0000

> <Gold.PLP.ligand.torsion>
0.3573

> <Gold.PLP.Chemscore.Hbond>
0.9913

> <Gold.PLP.Chemscore.CHOScore>
0.0000

> <Gold.PLP.Chemscore.Metal>
0.0000

> <Gold.Chemscore.Hbonds>
donor molecule, donor type, donor heavy atom, donor atom, acceptor molecule, acceptor atom, score
      L1  H    15    35       P1  7948  0.86

> <Gold.PLP.Chemscore.Internal.Correction>
0.0387

> <Gold.Rescore>
     Score         DG    S(hbond)    S(metal)    S(lipo)     H(rot)  DE(clash)    DE(int)     intcor
     13.38     -13.74       1.00        0.00      93.46       2.34       0.03       0.32       ----

> <Gold.Chemscore.Fitness>
13.3802

> <Gold.Chemscore.DG>
-13.7392

> <Gold.Chemscore.ZeroCoef>
-5.4800

> <Gold.Chemscore.Hbond>
0.9962

> <Gold.Chemscore.Metal>
0.0000

> <Gold.Chemscore.Lipo>
93.4592

> <Gold.Chemscore.Internal_Hbond>
0.0000

> <Gold.Chemscore.DEClash>
0.0341

> <Gold.Chemscore.DEInternal>
0.3250

> <Gold.Chemscore.Rot>
2.3448

> <Gold.Chemscore.Internal.Correction>
   9.000000E+99

> <Gold.Chemscore.Hbonds>
donor molecule, donor type, donor heavy atom, donor atom, acceptor molecule, acceptor atom, score
      L1  H    15    35       P1  7948  0.74

> <Gold.Chemscore.Hbond.Weighted>
-3.3272

> <Gold.Chemscore.Metal.Weighted>
-0.0000

> <Gold.Chemscore.Lipo.Weighted>
-10.9347

> <Gold.Chemscore.Internal_Hbond.Weighted>
0.0000

> <Gold.Chemscore.DEClash.Weighted>
0.0341

> <Gold.Chemscore.DEInternal.Weighted>
0.3250

> <Gold.Chemscore.Rot.Weighted>
6.0027

> <Gold.Chemscore.Internal.Correction.Weighted>
   9.000000E+99

> <Gold.Protein.RotatedTorsions>
[ 6907 6896 6895 6894 ] final  169.53 input  -60.11 | X-H torsion
[ 7974 7965 7964 7962 ] final  -30.01 input  175.53 | X-H torsion
[ 8008 7997 7996 7995 ] final -176.35 input   59.86 | X-H torsion
[ 10167 10162 10161 10158 ] final -101.42 input  -65.29 | X-H torsion
[ 10718 10713 10712 10709 ] final  -74.03 input   66.30 | X-H torsion
[ 10763 10752 10751 10750 ] final  -59.76 input  -60.55 | X-H torsion
[ 11005 11000 10999 10996 ] final   85.04 input  -57.11 | X-H torsion

> <Gold.Protein.ActiveResidues>
 VAL166  LYS551  ARG553  GLY616  TRP617  ASP618  TYR619  PRO620  LYS621  CYS622 
 ASP623  PHE694  ASN695  SER759  ASP760  ASP761  ALA762  ILE779  LEU786  VAL792 
 PHE793  MET794  SER795  GLU796  ALA797  LYS798  CYS799  TRP800  GLU811  SER814 

> <Gold.Protein.RotatedAtoms>
  151.8305  133.3408  159.3611 H   0  0  0  0  0  0  0  0  0  0  0  0  # atno 6907 bound_to 6896
  150.7266  134.5488  159.5793 H   0  0  0  0  0  0  0  0  0  0  0  0  # atno 6908 bound_to 6896
  152.2939  134.7690  160.0423 H   0  0  0  0  0  0  0  0  0  0  0  0  # atno 6909 bound_to 6896
  146.1174  140.5486  142.8750 H   0  0  0  0  0  0  0  0  0  0  0  0  # atno 7974 bound_to 7965
  155.9937  140.1206  157.0613 H   0  0  0  0  0  0  0  0  0  0  0  0  # atno 8008 bound_to 7997
  154.4220  140.1120  156.5670 H   0  0  0  0  0  0  0  0  0  0  0  0  # atno 8009 bound_to 7997
  155.6307  140.3473  155.4684 H   0  0  0  0  0  0  0  0  0  0  0  0  # atno 8010 bound_to 7997
  140.2415  143.3536  152.0798 H   0  0  0  0  0  0  0  0  0  0  0  0  # atno 10167 bound_to 10162
  156.0257  130.4407  150.2832 H   0  0  0  0  0  0  0  0  0  0  0  0  # atno 10718 bound_to 10713
  154.2587  135.6312  153.5266 H   0  0  0  0  0  0  0  0  0  0  0  0  # atno 10763 bound_to 10752
  152.9899  135.5582  154.5728 H   0  0  0  0  0  0  0  0  0  0  0  0  # atno 10764 bound_to 10752
  154.5272  135.2886  155.1187 H   0  0  0  0  0  0  0  0  0  0  0  0  # atno 10765 bound_to 10752
  139.8983  134.8259  156.2528 H   0  0  0  0  0  0  0  0  0  0  0  0  # atno 11005 bound_to 11000
  144.7566  140.5322  143.6765 LP  0  0  0  0  0  0  0  0  0  0  0  0  # atno 17320 bound_to 7965
  145.5537  139.1477  143.3380 LP  0  0  0  0  0  0  0  0  0  0  0  0  # atno 17321 bound_to 7965
  139.5076  144.6834  151.5949 LP  0  0  0  0  0  0  0  0  0  0  0  0  # atno 17342 bound_to 10162
  140.6110  143.9436  150.6453 LP  0  0  0  0  0  0  0  0  0  0  0  0  # atno 17343 bound_to 10162
  157.0935  131.0176  151.3113 LP  0  0  0  0  0  0  0  0  0  0  0  0  # atno 17370 bound_to 10713
  157.4835  130.7779  149.7438 LP  0  0  0  0  0  0  0  0  0  0  0  0  # atno 17371 bound_to 10713
  141.0213  133.7040  156.1273 LP  0  0  0  0  0  0  0  0  0  0  0  0  # atno 17394 bound_to 11000
  140.7229  134.4338  157.5573 LP  0  0  0  0  0  0  0  0  0  0  0  0  # atno 17395 bound_to 11000

$$$$
