AV-unprocessed.smi:153|AV-procd|sdf|1264|dock4
  -GOLD-   2262018513D 1   1.00000     0.00000
 Structure written by MMmdl.
 59 62  0  0  0  0  0  0  0  0  1 V2000
  152.8911  142.3925  160.8153 C   0  0  0  0  0  0  0  0  0  0  0  0
  152.8759  142.6191  159.2909 C   0  0  2  0  0  0  0  0  0  0  0  0
  152.8782  144.0256  159.0682 O   0  0  0  0  0  0  0  0  0  0  0  0
  151.5467  144.5077  158.9070 C   0  0  0  0  0  0  0  0  0  0  0  0
  150.6477  143.2747  158.7819 C   0  0  0  0  0  0  0  0  0  0  0  0
  151.6157  142.1166  158.5546 C   0  0  2  0  0  0  0  0  0  0  0  0
  151.0943  140.9415  159.1474 O   0  0  0  0  0  0  0  0  0  0  0  0
  151.8583  141.7753  157.0577 C   0  0  0  0  0  0  0  0  0  0  0  0
  150.6981  141.2444  156.3595 N   0  0  0  0  0  0  0  0  0  0  0  0
  149.4346  141.7875  156.3299 C   0  0  0  0  0  0  0  0  0  0  0  0
  148.5523  141.1007  155.6596 N   0  0  0  0  0  0  0  0  0  0  0  0
  149.2589  140.0041  155.1776 C   0  0  0  0  0  0  0  0  0  0  0  0
  148.9168  138.8563  154.4018 C   0  0  0  0  0  0  0  0  0  0  0  0
  147.6496  138.5645  153.9977 N   0  0  0  0  0  0  0  0  0  0  0  0
  146.5973  139.5390  154.2738 C   0  0  0  0  0  0  0  0  0  0  0  0
  147.5020  137.7322  152.8021 C   0  0  0  0  0  0  0  0  0  0  0  0
  146.1817  137.9753  152.0339 C   0  0  1  0  0  0  0  0  0  0  0  0
  146.4193  138.2990  150.6777 O   0  0  0  0  0  0  0  0  0  0  0  0
  145.2161  136.7698  152.0883 C   0  0  0  0  0  0  0  0  0  0  0  0
  145.5785  135.5963  151.2853 N   0  0  0  0  0  0  0  0  0  0  0  0
  144.4202  134.8972  150.7298 C   0  0  0  0  0  0  0  0  0  0  0  0
  144.8299  133.6551  149.9199 C   0  0  0  0  0  0  0  0  0  0  0  0
  145.6082  132.7844  150.7339 O   0  0  0  0  0  0  0  0  0  0  0  0
  146.7738  133.4161  151.2522 C   0  0  0  0  0  0  0  0  0  0  0  0
  146.3665  134.6527  152.0717 C   0  0  0  0  0  0  0  0  0  0  0  0
  149.9266  138.0006  154.0867 N   0  0  0  0  0  0  0  0  0  0  0  0
  151.1696  138.2250  154.5200 C   0  0  0  0  0  0  0  0  0  0  0  0
  151.6209  139.2273  155.2746 N   0  0  0  0  0  0  0  0  0  0  0  0
  150.6215  140.1021  155.5814 C   0  0  0  0  0  0  0  0  0  0  0  0
  152.9290  141.3307  161.0589 H   0  0  0  0  0  0  0  0  0  0  0  0
  152.0106  142.8156  161.2988 H   0  0  0  0  0  0  0  0  0  0  0  0
  153.7683  142.8588  161.2642 H   0  0  0  0  0  0  0  0  0  0  0  0
  153.7798  142.1765  158.8720 H   0  0  0  0  0  0  0  0  0  0  0  0
  151.2587  145.1224  159.7602 H   0  0  0  0  0  0  0  0  0  0  0  0
  151.4972  145.1319  158.0150 H   0  0  0  0  0  0  0  0  0  0  0  0
  150.1099  143.1410  159.7220 H   0  0  0  0  0  0  0  0  0  0  0  0
  149.8965  143.3721  157.9985 H   0  0  0  0  0  0  0  0  0  0  0  0
  150.6700  141.1777  159.9581 H   0  0  0  0  0  0  0  0  0  0  0  0
  152.1920  142.6657  156.5229 H   0  0  0  0  0  0  0  0  0  0  0  0
  152.6676  141.0496  156.9664 H   0  0  0  0  0  0  0  0  0  0  0  0
  149.1799  142.7052  156.8395 H   0  0  0  0  0  0  0  0  0  0  0  0
  146.6120  139.8403  155.3220 H   0  0  0  0  0  0  0  0  0  0  0  0
  145.6155  139.1127  154.0671 H   0  0  0  0  0  0  0  0  0  0  0  0
  146.7169  140.4290  153.6549 H   0  0  0  0  0  0  0  0  0  0  0  0
  148.3600  137.8152  152.1398 H   0  0  0  0  0  0  0  0  0  0  0  0
  147.5147  136.6951  153.1387 H   0  0  0  0  0  0  0  0  0  0  0  0
  145.6626  138.8292  152.4703 H   0  0  0  0  0  0  0  0  0  0  0  0
  145.5877  138.4641  150.2607 H   0  0  0  0  0  0  0  0  0  0  0  0
  145.1783  136.4569  153.1326 H   0  0  0  0  0  0  0  0  0  0  0  0
  144.2015  137.0921  151.8487 H   0  0  0  0  0  0  0  0  0  0  0  0
  143.7449  134.6003  151.5337 H   0  0  0  0  0  0  0  0  0  0  0  0
  143.8566  135.5572  150.0720 H   0  0  0  0  0  0  0  0  0  0  0  0
  143.9453  133.1221  149.5711 H   0  0  0  0  0  0  0  0  0  0  0  0
  145.3998  133.9434  149.0351 H   0  0  0  0  0  0  0  0  0  0  0  0
  147.3147  132.7069  151.8787 H   0  0  0  0  0  0  0  0  0  0  0  0
  147.4401  133.6959  150.4348 H   0  0  0  0  0  0  0  0  0  0  0  0
  147.2647  135.1436  152.4478 H   0  0  0  0  0  0  0  0  0  0  0  0
  145.7972  134.3329  152.9458 H   0  0  0  0  0  0  0  0  0  0  0  0
  151.9057  137.4903  154.2292 H   0  0  0  0  0  0  0  0  0  0  0  0
  1  2  1  0  0  0  0
  1 30  1  0  0  0  0
  1 31  1  0  0  0  0
  1 32  1  0  0  0  0
  2  6  1  0  0  0  0
  2  3  1  0  0  0  0
  2 33  1  0  0  0  0
  3  4  1  0  0  0  0
  4  5  1  0  0  0  0
  4 34  1  0  0  0  0
  4 35  1  0  0  0  0
  5  6  1  0  0  0  0
  5 36  1  0  0  0  0
  5 37  1  0  0  0  0
  6  7  1  0  0  0  0
  6  8  1  0  0  0  0
  7 38  1  0  0  0  0
  8  9  1  0  0  0  0
  8 39  1  0  0  0  0
  8 40  1  0  0  0  0
  9 29  1  0  0  0  0
  9 10  1  0  0  0  0
 10 11  2  0  0  0  0
 10 41  1  0  0  0  0
 11 12  1  0  0  0  0
 12 29  2  0  0  0  0
 12 13  1  0  0  0  0
 13 14  1  0  0  0  0
 13 26  2  0  0  0  0
 14 15  1  0  0  0  0
 14 16  1  0  0  0  0
 15 42  1  0  0  0  0
 15 43  1  0  0  0  0
 15 44  1  0  0  0  0
 16 17  1  0  0  0  0
 16 45  1  0  0  0  0
 16 46  1  0  0  0  0
 17 18  1  0  0  0  0
 17 19  1  0  0  0  0
 17 47  1  0  0  0  0
 18 48  1  0  0  0  0
 19 20  1  0  0  0  0
 19 49  1  0  0  0  0
 19 50  1  0  0  0  0
 20 25  1  0  0  0  0
 20 21  1  0  0  0  0
 21 22  1  0  0  0  0
 21 51  1  0  0  0  0
 21 52  1  0  0  0  0
 22 23  1  0  0  0  0
 22 53  1  0  0  0  0
 22 54  1  0  0  0  0
 23 24  1  0  0  0  0
 24 25  1  0  0  0  0
 24 55  1  0  0  0  0
 24 56  1  0  0  0  0
 25 57  1  0  0  0  0
 25 58  1  0  0  0  0
 26 27  1  0  0  0  0
 27 28  2  0  0  0  0
 27 59  1  0  0  0  0
 28 29  1  0  0  0  0
M  END
> <s_m_source_file>
AV-unprocessed.smi

> <i_m_source_file_index>
153

> <i_lp_mmshare_version>
43012

> <i_f3d_flags>
0

> <s_epik_input>
W0NIMl0xW0NIMl1PW0NAQEhdKFtDSDNdKVtDQEBdMShbT0hdKVtDSDJdbihbY0hdbjIpYyhjMjMpbltjSF1uYzNOKFtDSDNdKVtDSDJdW0NASF0oW09IXSlbQ0gyXU40W0NIMl1bQ0gyXU9bQ0gyXVtDSDJdNA==

> <s_epik_cmdline>
J2VwaWtfcHl0aG9uJywgJy1waCcsICc3LjAnLCAnLXRuJywgJzgnLCAnLW1hJywgJzIwMCcsICctbWV0YWxfYmluZGluZycsICctaW1hZScsICc8aW5maWxlLm1hZT4nLCAnLW9tYWUnLCAnPG91dGZpbGUubWFlPic=

> <r_lp_tautomer_probability>
1

> <r_epik_Ionization_Penalty>
0.424123

> <r_epik_Ionization_Penalty_Charging>
0

> <r_epik_Ionization_Penalty_Neutral>
0.424123

> <r_epik_State_Penalty>
0.421495

> <r_epik_Charging_Adjusted_Penalty>
0.421495

> <i_epik_Tot_Q>
0

> <i_epik_Tot_abs_Q>
0

> <r_epik_Metal_State_Penalty>
0.421223

> <b_epik_Metal_Only>
0

> <s_lp_Force_Field>
OPLS_2005

> <r_lp_Energy>
59.2103

> <b_lp_Chiralities_Consistent>
1

> <s_lp_Variant>
AV-unprocessed.smi:153-15

> <Gold.Version>
5.8.1

> <Gold.Id.Protein>
6NUR|6NUR_protein|mol2

> <Gold.PLP.Fitness>
49.2131

> <Gold.PLP.PLP>
-42.8195

> <Gold.PLP.part.hbond>
-2.5969

> <Gold.PLP.part.metal>
0.0000

> <Gold.PLP.part.buried>
-0.5115

> <Gold.PLP.part.nonpolar>
-40.7978

> <Gold.PLP.part.repulsive>
1.1188

> <Gold.PLP.ligand.clash>
0.0000

> <Gold.PLP.ligand.torsion>
1.6604

> <Gold.PLP.Chemscore.Hbond>
1.9920

> <Gold.PLP.Chemscore.CHOScore>
1.0000

> <Gold.PLP.Chemscore.Metal>
0.0000

> <Gold.Chemscore.Hbonds>
donor molecule, donor type, donor heavy atom, donor atom, acceptor molecule, acceptor atom, score
      L1  H    18    48       P1 10171  1.00
      P1  H  7954  7966       L1    18  0.93
      L1  C    10    41       P1  8028  0.84

> <Gold.PLP.Chemscore.Internal.Correction>
0.7385

> <Gold.Rescore>
     Score         DG    S(hbond)    S(metal)    S(lipo)     H(rot)  DE(clash)    DE(int)     intcor
      9.23     -15.66       1.95        0.00     108.35       3.52       3.48       2.94       ----

> <Gold.Chemscore.Fitness>
9.2292

> <Gold.Chemscore.DG>
-15.6560

> <Gold.Chemscore.ZeroCoef>
-5.4800

> <Gold.Chemscore.Hbond>
1.9469

> <Gold.Chemscore.Metal>
0.0000

> <Gold.Chemscore.Lipo>
108.3511

> <Gold.Chemscore.Internal_Hbond>
0.0000

> <Gold.Chemscore.DEClash>
3.4833

> <Gold.Chemscore.DEInternal>
2.9435

> <Gold.Chemscore.Rot>
3.5170

> <Gold.Chemscore.Internal.Correction>
   9.000000E+99

> <Gold.Chemscore.Hbonds>
donor molecule, donor type, donor heavy atom, donor atom, acceptor molecule, acceptor atom, score
      L1  H    18    48       P1 10171  1.00
      P1  H  7954  7966       L1    18  0.88

> <Gold.Chemscore.Hbond.Weighted>
-6.5025

> <Gold.Chemscore.Metal.Weighted>
-0.0000

> <Gold.Chemscore.Lipo.Weighted>
-12.6771

> <Gold.Chemscore.Internal_Hbond.Weighted>
0.0000

> <Gold.Chemscore.DEClash.Weighted>
3.4833

> <Gold.Chemscore.DEInternal.Weighted>
2.9435

> <Gold.Chemscore.Rot.Weighted>
9.0036

> <Gold.Chemscore.Internal.Correction.Weighted>
   9.000000E+99

> <Gold.Protein.RotatedTorsions>
[ 6907 6896 6895 6894 ] final   59.42 input  -60.11 | X-H torsion
[ 7974 7965 7964 7962 ] final   97.03 input  175.53 | X-H torsion
[ 8008 7997 7996 7995 ] final -146.22 input   59.86 | X-H torsion
[ 10167 10162 10161 10158 ] final -171.77 input  -65.29 | X-H torsion
[ 10718 10713 10712 10709 ] final -171.23 input   66.30 | X-H torsion
[ 10763 10752 10751 10750 ] final   68.05 input  -60.55 | X-H torsion
[ 11005 11000 10999 10996 ] final -175.99 input  -57.11 | X-H torsion

> <Gold.Protein.ActiveResidues>
 VAL166  LYS551  ARG553  GLY616  TRP617  ASP618  TYR619  PRO620  LYS621  CYS622 
 ASP623  PHE694  ASN695  SER759  ASP760  ASP761  ALA762  ILE779  LEU786  VAL792 
 PHE793  MET794  SER795  GLU796  ALA797  LYS798  CYS799  TRP800  GLU811  SER814 

> <Gold.Protein.RotatedAtoms>
  152.3913  134.6436  160.0106 H   0  0  0  0  0  0  0  0  0  0  0  0  # atno 6907 bound_to 6896
  151.6669  133.3309  159.3195 H   0  0  0  0  0  0  0  0  0  0  0  0  # atno 6908 bound_to 6896
  150.7829  134.6832  159.6500 H   0  0  0  0  0  0  0  0  0  0  0  0  # atno 6909 bound_to 6896
  145.4309  139.2311  143.3145 H   0  0  0  0  0  0  0  0  0  0  0  0  # atno 7974 bound_to 7965
  155.5559  140.0621  157.2839 H   0  0  0  0  0  0  0  0  0  0  0  0  # atno 8008 bound_to 7997
  154.4406  140.1894  156.0778 H   0  0  0  0  0  0  0  0  0  0  0  0  # atno 8009 bound_to 7997
  156.0482  140.3287  155.7324 H   0  0  0  0  0  0  0  0  0  0  0  0  # atno 8010 bound_to 7997
  139.5783  144.1482  152.1480 H   0  0  0  0  0  0  0  0  0  0  0  0  # atno 10167 bound_to 10162
  156.7378  130.9331  151.3108 H   0  0  0  0  0  0  0  0  0  0  0  0  # atno 10718 bound_to 10713
  153.0216  135.5261  154.7074 H   0  0  0  0  0  0  0  0  0  0  0  0  # atno 10763 bound_to 10752
  154.6166  135.2884  155.0375 H   0  0  0  0  0  0  0  0  0  0  0  0  # atno 10764 bound_to 10752
  154.1377  135.6583  153.4988 H   0  0  0  0  0  0  0  0  0  0  0  0  # atno 10765 bound_to 10752
  140.4571  134.6289  157.4826 H   0  0  0  0  0  0  0  0  0  0  0  0  # atno 11005 bound_to 11000
  146.2607  140.5045  142.8854 LP  0  0  0  0  0  0  0  0  0  0  0  0  # atno 17320 bound_to 7965
  144.8183  140.6507  143.6369 LP  0  0  0  0  0  0  0  0  0  0  0  0  # atno 17321 bound_to 7965
  140.1029  144.5523  150.6976 LP  0  0  0  0  0  0  0  0  0  0  0  0  # atno 17342 bound_to 10162
  140.7064  143.2471  151.4715 LP  0  0  0  0  0  0  0  0  0  0  0  0  # atno 17343 bound_to 10162
  157.6831  130.9159  150.0318 LP  0  0  0  0  0  0  0  0  0  0  0  0  # atno 17370 bound_to 10713
  156.1485  130.3642  149.9474 LP  0  0  0  0  0  0  0  0  0  0  0  0  # atno 17371 bound_to 10713
  139.9969  134.6897  155.9594 LP  0  0  0  0  0  0  0  0  0  0  0  0  # atno 17394 bound_to 11000
  141.1638  133.6537  156.4409 LP  0  0  0  0  0  0  0  0  0  0  0  0  # atno 17395 bound_to 11000

$$$$
