AV-unprocessed.smi:1849|AV-procd|sdf|7521|dock3
  -GOLD-   22720 9233D 1   1.00000     0.00000
 Structure written by MMmdl.
 40 41  0  0  0  0  0  0  0  0  1 V2000
  149.4466  138.1898  154.4886 C   0  0  0  0  0  0  0  0  0  0  0  0
  149.2964  139.6321  154.5186 N   0  0  0  0  0  0  0  0  0  0  0  0
  150.0611  140.5174  155.2667 C   0  0  0  0  0  0  0  0  0  0  0  0
  149.5760  141.7758  155.0046 C   0  0  0  0  0  0  0  0  0  0  0  0
  148.5202  141.6852  154.1037 N   0  0  0  0  0  0  0  0  0  0  0  0
  148.4065  140.3860  153.8446 C   0  0  0  0  0  0  0  0  0  0  0  0
  147.3730  139.8081  152.9293 C   0  0  0  0  0  0  0  0  0  0  0  0
  146.5480  138.7001  153.6037 C   0  0  0  0  0  0  0  0  0  0  0  0
  146.8007  137.3986  152.9975 N   0  0  0  0  0  0  0  0  0  0  0  0
  145.9030  136.4066  152.9150 C   0  0  0  0  0  0  0  0  0  0  0  0
  144.7514  136.4816  153.3447 O   0  0  0  0  0  0  0  0  0  0  0  0
  146.4129  135.3233  152.3126 N   0  0  0  0  0  0  0  0  0  0  0  0
  145.6934  134.0762  152.0714 C   0  0  0  0  0  0  0  0  0  0  0  0
  146.6541  132.9830  151.5579 C   0  0  0  0  0  0  0  0  0  0  0  0
  145.9016  131.6861  151.2188 C   0  0  0  0  0  0  0  0  0  0  0  0
  144.7701  131.9436  150.2115 C   0  0  0  0  0  0  0  0  0  0  0  0
  143.8070  133.0250  150.7259 C   0  0  0  0  0  0  0  0  0  0  0  0
  144.5572  134.3242  151.0608 C   0  0  0  0  0  0  0  0  0  0  0  0
  150.1663  137.8706  155.2429 H   0  0  0  0  0  0  0  0  0  0  0  0
  149.8014  137.8769  153.5065 H   0  0  0  0  0  0  0  0  0  0  0  0
  148.4884  137.7113  154.6931 H   0  0  0  0  0  0  0  0  0  0  0  0
  150.8639  140.1872  155.9092 H   0  0  0  0  0  0  0  0  0  0  0  0
  149.9006  142.7302  155.3920 H   0  0  0  0  0  0  0  0  0  0  0  0
  146.7126  140.6129  152.6039 H   0  0  0  0  0  0  0  0  0  0  0  0
  147.8586  139.4330  152.0280 H   0  0  0  0  0  0  0  0  0  0  0  0
  146.7623  138.6589  154.6730 H   0  0  0  0  0  0  0  0  0  0  0  0
  145.4842  138.9197  153.5095 H   0  0  0  0  0  0  0  0  0  0  0  0
  147.7228  137.2431  152.6172 H   0  0  0  0  0  0  0  0  0  0  0  0
  147.3708  135.3627  151.9964 H   0  0  0  0  0  0  0  0  0  0  0  0
  145.2450  133.7391  153.0081 H   0  0  0  0  0  0  0  0  0  0  0  0
  147.1784  133.3392  150.6699 H   0  0  0  0  0  0  0  0  0  0  0  0
  147.4208  132.7729  152.3044 H   0  0  0  0  0  0  0  0  0  0  0  0
  146.5960  130.9474  150.8173 H   0  0  0  0  0  0  0  0  0  0  0  0
  145.4868  131.2563  152.1314 H   0  0  0  0  0  0  0  0  0  0  0  0
  145.1945  132.2559  149.2563 H   0  0  0  0  0  0  0  0  0  0  0  0
  144.2248  131.0189  150.0206 H   0  0  0  0  0  0  0  0  0  0  0  0
  143.0366  133.2227  149.9799 H   0  0  0  0  0  0  0  0  0  0  0  0
  143.2902  132.6615  151.6151 H   0  0  0  0  0  0  0  0  0  0  0  0
  143.8567  135.0597  151.4583 H   0  0  0  0  0  0  0  0  0  0  0  0
  144.9648  134.7503  150.1428 H   0  0  0  0  0  0  0  0  0  0  0  0
  1  2  1  0  0  0  0
  1 19  1  0  0  0  0
  1 20  1  0  0  0  0
  1 21  1  0  0  0  0
  2  6  1  0  0  0  0
  2  3  1  0  0  0  0
  3  4  2  0  0  0  0
  3 22  1  0  0  0  0
  4  5  1  0  0  0  0
  4 23  1  0  0  0  0
  5  6  2  0  0  0  0
  6  7  1  0  0  0  0
  7  8  1  0  0  0  0
  7 24  1  0  0  0  0
  7 25  1  0  0  0  0
  8  9  1  0  0  0  0
  8 26  1  0  0  0  0
  8 27  1  0  0  0  0
  9 10  1  0  0  0  0
  9 28  1  0  0  0  0
 10 11  2  0  0  0  0
 10 12  1  0  0  0  0
 12 13  1  0  0  0  0
 12 29  1  0  0  0  0
 13 18  1  0  0  0  0
 13 14  1  0  0  0  0
 13 30  1  0  0  0  0
 14 15  1  0  0  0  0
 14 31  1  0  0  0  0
 14 32  1  0  0  0  0
 15 16  1  0  0  0  0
 15 33  1  0  0  0  0
 15 34  1  0  0  0  0
 16 17  1  0  0  0  0
 16 35  1  0  0  0  0
 16 36  1  0  0  0  0
 17 18  1  0  0  0  0
 17 37  1  0  0  0  0
 17 38  1  0  0  0  0
 18 39  1  0  0  0  0
 18 40  1  0  0  0  0
M  END
> <s_m_source_file>
AV-unprocessed.smi

> <i_m_source_file_index>
1849

> <i_lp_mmshare_version>
43012

> <i_f3d_flags>
0

> <s_epik_input>
W0NIM11uMVtjSF1bY0hdbmMxW0NIMl1bQ0gyXVtOSF1DKD1PKVtOSF1bQ0hdMltDSDJdW0NIMl1bQ0gyXVtDSDJdW0NIMl0y

> <s_epik_cmdline>
J2VwaWtfcHl0aG9uJywgJy1waCcsICc3LjAnLCAnLXRuJywgJzgnLCAnLW1hJywgJzIwMCcsICctbWV0YWxfYmluZGluZycsICctaW1hZScsICc8aW5maWxlLm1hZT4nLCAnLW9tYWUnLCAnPG91dGZpbGUubWFlPic=

> <r_lp_tautomer_probability>
1

> <r_epik_Ionization_Penalty>
1.48237

> <r_epik_Ionization_Penalty_Charging>
1.48231

> <r_epik_Ionization_Penalty_Neutral>
5.84917e-05

> <r_epik_State_Penalty>
1.57104

> <r_epik_Charging_Adjusted_Penalty>
3.05335

> <i_epik_Tot_Q>
0

> <i_epik_Tot_abs_Q>
0

> <r_epik_Metal_State_Penalty>
0.437242

> <b_epik_Metal_Only>
0

> <s_lp_Force_Field>
OPLS_2005

> <r_lp_Energy>
3.77176

> <b_lp_Chiralities_Consistent>
1

> <s_lp_Variant>
AV-unprocessed.smi:1849-2

> <Gold.Version>
5.8.1

> <Gold.Id.Protein>
6NUR|6NUR_protein|mol2

> <Gold.PLP.Fitness>
39.1889

> <Gold.PLP.PLP>
-31.0792

> <Gold.PLP.part.hbond>
-3.0000

> <Gold.PLP.part.metal>
0.0000

> <Gold.PLP.part.buried>
1.0086

> <Gold.PLP.part.nonpolar>
-29.5861

> <Gold.PLP.part.repulsive>
0.3183

> <Gold.PLP.ligand.clash>
0.0000

> <Gold.PLP.ligand.torsion>
0.6556

> <Gold.PLP.Chemscore.Hbond>
2.1361

> <Gold.PLP.Chemscore.CHOScore>
1.0000

> <Gold.PLP.Chemscore.Metal>
0.0000

> <Gold.Chemscore.Hbonds>
donor molecule, donor type, donor heavy atom, donor atom, acceptor molecule, acceptor atom, score
      L1  H     9    28       P1  7948  1.00
      L1  H    12    29       P1  7948  1.00
      P1  H  8011  8017       L1     5  0.12
      L1  C     4    23       P1  8028  1.00

> <Gold.PLP.Chemscore.Internal.Correction>
0.0127

> <Gold.Rescore>
     Score         DG    S(hbond)    S(metal)    S(lipo)     H(rot)  DE(clash)    DE(int)     intcor
     15.78     -16.44       1.95        0.00      74.40       1.66       0.04       0.62       ----

> <Gold.Chemscore.Fitness>
15.7768

> <Gold.Chemscore.DG>
-16.4417

> <Gold.Chemscore.ZeroCoef>
-5.4800

> <Gold.Chemscore.Hbond>
1.9463

> <Gold.Chemscore.Metal>
0.0000

> <Gold.Chemscore.Lipo>
74.3953

> <Gold.Chemscore.Internal_Hbond>
0.0000

> <Gold.Chemscore.DEClash>
0.0402

> <Gold.Chemscore.DEInternal>
0.6246

> <Gold.Chemscore.Rot>
1.6575

> <Gold.Chemscore.Internal.Correction>
   9.000000E+99

> <Gold.Chemscore.Hbonds>
donor molecule, donor type, donor heavy atom, donor atom, acceptor molecule, acceptor atom, score
      L1  H     9    28       P1  7948  0.97
      L1  H    12    29       P1  7948  0.96

> <Gold.Chemscore.Hbond.Weighted>
-6.5006

> <Gold.Chemscore.Metal.Weighted>
-0.0000

> <Gold.Chemscore.Lipo.Weighted>
-8.7042

> <Gold.Chemscore.Internal_Hbond.Weighted>
0.0000

> <Gold.Chemscore.DEClash.Weighted>
0.0402

> <Gold.Chemscore.DEInternal.Weighted>
0.6246

> <Gold.Chemscore.Rot.Weighted>
4.2432

> <Gold.Chemscore.Internal.Correction.Weighted>
   9.000000E+99

> <Gold.Protein.RotatedTorsions>
[ 6907 6896 6895 6894 ] final  126.11 input  -60.11 | X-H torsion
[ 7974 7965 7964 7962 ] final   43.32 input  175.53 | X-H torsion
[ 8008 7997 7996 7995 ] final -104.83 input   59.86 | X-H torsion
[ 10167 10162 10161 10158 ] final  -80.63 input  -65.29 | X-H torsion
[ 10718 10713 10712 10709 ] final   -6.16 input   66.30 | X-H torsion
[ 10763 10752 10751 10750 ] final  -30.47 input  -60.55 | X-H torsion
[ 11005 11000 10999 10996 ] final  -78.14 input  -57.11 | X-H torsion

> <Gold.Protein.ActiveResidues>
 VAL166  LYS551  ARG553  GLY616  TRP617  ASP618  TYR619  PRO620  LYS621  CYS622 
 ASP623  PHE694  ASN695  SER759  ASP760  ASP761  ALA762  ILE779  LEU786  VAL792 
 PHE793  MET794  SER795  GLU796  ALA797  LYS798  CYS799  TRP800  GLU811  SER814 

> <Gold.Protein.RotatedAtoms>
  152.3932  133.6709  159.6254 H   0  0  0  0  0  0  0  0  0  0  0  0  # atno 6907 bound_to 6896
  150.7836  133.8918  159.3324 H   0  0  0  0  0  0  0  0  0  0  0  0  # atno 6908 bound_to 6896
  151.6700  135.0979  160.0247 H   0  0  0  0  0  0  0  0  0  0  0  0  # atno 6909 bound_to 6896
  146.0665  139.5199  142.9625 H   0  0  0  0  0  0  0  0  0  0  0  0  # atno 7974 bound_to 7965
  154.8910  140.0416  157.1838 H   0  0  0  0  0  0  0  0  0  0  0  0  # atno 8008 bound_to 7997
  154.8540  140.2934  155.5559 H   0  0  0  0  0  0  0  0  0  0  0  0  # atno 8009 bound_to 7997
  156.2997  140.2459  156.3504 H   0  0  0  0  0  0  0  0  0  0  0  0  # atno 8010 bound_to 7997
  140.4486  143.2490  151.8522 H   0  0  0  0  0  0  0  0  0  0  0  0  # atno 10167 bound_to 10162
  156.7360  130.5195  149.5835 H   0  0  0  0  0  0  0  0  0  0  0  0  # atno 10718 bound_to 10713
  153.7816  135.6905  153.4887 H   0  0  0  0  0  0  0  0  0  0  0  0  # atno 10763 bound_to 10752
  153.1808  135.4507  155.0024 H   0  0  0  0  0  0  0  0  0  0  0  0  # atno 10764 bound_to 10752
  154.8079  135.3365  154.7318 H   0  0  0  0  0  0  0  0  0  0  0  0  # atno 10765 bound_to 10752
  141.1663  133.7051  156.7927 H   0  0  0  0  0  0  0  0  0  0  0  0  # atno 11005 bound_to 11000
  145.6468  141.0272  143.1782 LP  0  0  0  0  0  0  0  0  0  0  0  0  # atno 17320 bound_to 7965
  144.7205  139.8045  143.7383 LP  0  0  0  0  0  0  0  0  0  0  0  0  # atno 17321 bound_to 7965
  139.4795  144.5146  151.8885 LP  0  0  0  0  0  0  0  0  0  0  0  0  # atno 17342 bound_to 10162
  140.4234  144.2213  150.5887 LP  0  0  0  0  0  0  0  0  0  0  0  0  # atno 17343 bound_to 10162
  156.1496  130.6301  151.0578 LP  0  0  0  0  0  0  0  0  0  0  0  0  # atno 17370 bound_to 10713
  157.6839  131.0830  150.7297 LP  0  0  0  0  0  0  0  0  0  0  0  0  # atno 17371 bound_to 10713
  140.2313  134.8683  157.3480 LP  0  0  0  0  0  0  0  0  0  0  0  0  # atno 17394 bound_to 11000
  140.1888  134.4398  155.7728 LP  0  0  0  0  0  0  0  0  0  0  0  0  # atno 17395 bound_to 11000

$$$$
