AV-unprocessed.smi:193|AV-procd|sdf|1510|dock4
  -GOLD-   2262019343D 1   1.00000     0.00000
 Structure written by MMmdl.
 62 66  0  0  0  0  0  0  0  0  2 V2000
  151.9229  139.6269  155.3883 C   0  0  0  0  0  0  0  0  0  0  0  0
  150.7370  140.2429  156.1471 C   0  0  2  0  0  0  0  0  0  0  0  0
  149.4319  139.5612  155.6853 C   0  0  0  0  0  0  0  0  0  0  0  0
  148.2688  139.8830  156.5073 N   0  0  0  0  0  0  0  0  0  0  0  0
  147.2015  139.1193  156.1924 C   0  0  0  0  0  0  0  0  0  0  0  0
  146.4412  138.6540  157.2131 N   0  0  0  0  0  0  0  0  0  0  0  0
  145.3739  137.8917  156.9534 C   0  0  0  0  0  0  0  0  0  0  0  0
  144.9038  137.4868  155.7709 N   0  0  0  0  0  0  0  0  0  0  0  0
  145.6708  137.9544  154.7440 C   0  0  0  0  0  0  0  0  0  0  0  0
  146.8290  138.7713  154.8646 C   0  0  0  0  0  0  0  0  0  0  0  0
  147.3504  139.0494  153.6068 N   0  0  0  0  0  0  0  0  0  0  0  0
  146.5438  138.4309  152.7876 C   0  0  0  0  0  0  0  0  0  0  0  0
  145.5032  137.7553  153.3848 N   0  0  0  0  0  0  0  0  0  0  0  0
  144.4615  136.9930  152.7138 C   0  0  0  0  0  0  0  0  0  0  0  0
  145.0025  135.8789  151.7842 C   0  0  0  0  0  0  0  0  0  0  0  0
  145.6223  136.5086  150.6755 O   0  0  0  0  0  0  0  0  0  0  0  0
  146.0619  135.0322  152.5173 C   0  0  0  0  0  0  0  0  0  0  0  0
  146.5062  133.8145  151.6874 C   0  0  0  0  0  0  0  0  0  0  0  0
  145.3752  133.0299  151.3291 O   0  0  0  0  0  0  0  0  0  0  0  0
  144.4552  133.7339  150.5036 C   0  0  0  0  0  0  0  0  0  0  0  0
  143.8873  134.9487  151.2584 C   0  0  0  0  0  0  0  0  0  0  0  0
  147.9232  141.2854  156.7189 C   0  0  0  0  0  0  0  0  0  0  0  0
  148.9079  141.9620  157.6845 C   0  0  0  0  0  0  0  0  0  0  0  0
  150.0940  142.5610  157.0201 N   0  3  1  0  0  0  0  0  0  0  0  0
  151.1103  142.9886  158.0084 C   0  0  1  0  0  0  0  0  0  0  0  0
  151.8969  144.2049  157.5776 C   0  0  0  0  0  0  0  0  0  0  0  0
  150.8287  144.3335  158.6422 C   0  0  2  0  0  0  0  0  0  0  0  0
  151.2158  144.6028  160.0796 C   0  0  0  0  0  0  0  0  0  0  0  0
  150.6922  141.7708  155.9092 C   0  0  0  0  0  0  0  0  0  0  0  0
  151.8387  139.7965  154.3142 H   0  0  0  0  0  0  0  0  0  0  0  0
  151.9795  138.5503  155.5514 H   0  0  0  0  0  0  0  0  0  0  0  0
  152.8696  140.0546  155.7203 H   0  0  0  0  0  0  0  0  0  0  0  0
  150.9031  140.0354  157.2051 H   0  0  0  0  0  0  0  0  0  0  0  0
  149.2282  139.8159  154.6442 H   0  0  0  0  0  0  0  0  0  0  0  0
  149.5717  138.4791  155.7130 H   0  0  0  0  0  0  0  0  0  0  0  0
  144.8165  137.5576  157.8163 H   0  0  0  0  0  0  0  0  0  0  0  0
  146.6814  138.4553  151.7160 H   0  0  0  0  0  0  0  0  0  0  0  0
  143.8061  136.5676  153.4753 H   0  0  0  0  0  0  0  0  0  0  0  0
  143.8472  137.6898  152.1423 H   0  0  0  0  0  0  0  0  0  0  0  0
  144.9586  136.9628  150.1791 H   0  0  0  0  0  0  0  0  0  0  0  0
  146.9270  135.6429  152.7796 H   0  0  0  0  0  0  0  0  0  0  0  0
  145.6466  134.6722  153.4596 H   0  0  0  0  0  0  0  0  0  0  0  0
  147.0478  134.1236  150.7921 H   0  0  0  0  0  0  0  0  0  0  0  0
  147.1898  133.1969  152.2701 H   0  0  0  0  0  0  0  0  0  0  0  0
  144.9422  134.0402  149.5766 H   0  0  0  0  0  0  0  0  0  0  0  0
  143.6464  133.0580  150.2254 H   0  0  0  0  0  0  0  0  0  0  0  0
  143.2957  134.5873  152.1006 H   0  0  0  0  0  0  0  0  0  0  0  0
  143.1978  135.4917  150.6110 H   0  0  0  0  0  0  0  0  0  0  0  0
  147.8629  141.8218  155.7712 H   0  0  0  0  0  0  0  0  0  0  0  0
  146.9266  141.3335  157.1620 H   0  0  0  0  0  0  0  0  0  0  0  0
  148.3892  142.7703  158.2008 H   0  0  0  0  0  0  0  0  0  0  0  0
  149.2142  141.2604  158.4626 H   0  0  0  0  0  0  0  0  0  0  0  0
  151.5937  142.1951  158.5763 H   0  0  0  0  0  0  0  0  0  0  0  0
  152.9357  144.2670  157.8958 H   0  0  0  0  0  0  0  0  0  0  0  0
  151.6852  144.6370  156.6012 H   0  0  0  0  0  0  0  0  0  0  0  0
  149.9155  144.8417  158.3362 H   0  0  0  0  0  0  0  0  0  0  0  0
  152.1324  144.0720  160.3394 H   0  0  0  0  0  0  0  0  0  0  0  0
  150.4210  144.2720  160.7486 H   0  0  0  0  0  0  0  0  0  0  0  0
  151.3776  145.6701  160.2310 H   0  0  0  0  0  0  0  0  0  0  0  0
  151.6962  142.1531  155.7189 H   0  0  0  0  0  0  0  0  0  0  0  0
  150.1372  141.9842  154.9948 H   0  0  0  0  0  0  0  0  0  0  0  0
  149.7658  143.4118  156.5859 H   0  0  0  0  0  0  0  0  0  0  0  0
  1  2  1  0  0  0  0
  1 30  1  0  0  0  0
  1 31  1  0  0  0  0
  1 32  1  0  0  0  0
  2 29  1  0  0  0  0
  2  3  1  0  0  0  0
  2 33  1  0  0  0  0
  3  4  1  0  0  0  0
  3 34  1  0  0  0  0
  3 35  1  0  0  0  0
  4  5  1  0  0  0  0
  4 22  1  0  0  0  0
  5 10  1  0  0  0  0
  5  6  2  0  0  0  0
  6  7  1  0  0  0  0
  7  8  2  0  0  0  0
  7 36  1  0  0  0  0
  8  9  1  0  0  0  0
  9 13  1  0  0  0  0
  9 10  2  0  0  0  0
 10 11  1  0  0  0  0
 11 12  2  0  0  0  0
 12 13  1  0  0  0  0
 12 37  1  0  0  0  0
 13 14  1  0  0  0  0
 14 15  1  0  0  0  0
 14 38  1  0  0  0  0
 14 39  1  0  0  0  0
 15 21  1  0  0  0  0
 15 16  1  0  0  0  0
 15 17  1  0  0  0  0
 16 40  1  0  0  0  0
 17 18  1  0  0  0  0
 17 41  1  0  0  0  0
 17 42  1  0  0  0  0
 18 19  1  0  0  0  0
 18 43  1  0  0  0  0
 18 44  1  0  0  0  0
 19 20  1  0  0  0  0
 20 21  1  0  0  0  0
 20 45  1  0  0  0  0
 20 46  1  0  0  0  0
 21 47  1  0  0  0  0
 21 48  1  0  0  0  0
 22 23  1  0  0  0  0
 22 49  1  0  0  0  0
 22 50  1  0  0  0  0
 23 24  1  0  0  0  0
 23 51  1  0  0  0  0
 23 52  1  0  0  0  0
 24 25  1  0  0  0  0
 24 29  1  0  0  0  0
 24 62  1  0  0  0  0
 25 27  1  0  0  0  0
 25 26  1  0  0  0  0
 25 53  1  0  0  0  0
 26 27  1  0  0  0  0
 26 54  1  0  0  0  0
 26 55  1  0  0  0  0
 27 28  1  0  0  0  0
 27 56  1  0  0  0  0
 28 57  1  0  0  0  0
 28 58  1  0  0  0  0
 28 59  1  0  0  0  0
 29 60  1  0  0  0  0
 29 61  1  0  0  0  0
M  CHG  1  24   1
M  END
> <s_m_source_file>
AV-unprocessed.smi

> <i_m_source_file_index>
193

> <i_lp_mmshare_version>
43012

> <i_f3d_flags>
0

> <s_epik_input>
W0NIM11bQ0BASF0xW0NIMl1bQ0BIXTFOKFtDSDJdMilbQ0gyXVtDSDJdTihbQ0gyXVtDQEhdMltDSDNdKWMobltjSF1uMyljKGMzNCluW2NIXW40W0NIMl1DNShbT0hdKVtDSDJdW0NIMl1PW0NIMl1bQ0gyXTU=

> <s_epik_cmdline>
J2VwaWtfcHl0aG9uJywgJy1waCcsICc3LjAnLCAnLXRuJywgJzgnLCAnLW1hJywgJzIwMCcsICctbWV0YWxfYmluZGluZycsICctaW1hZScsICc8aW5maWxlLm1hZT4nLCAnLW9tYWUnLCAnPG91dGZpbGUubWFlPic=

> <r_lp_tautomer_probability>
1

> <r_epik_Ionization_Penalty>
0.0540825

> <r_epik_Ionization_Penalty_Charging>
0.0538476

> <r_epik_Ionization_Penalty_Neutral>
0.000234891

> <r_epik_State_Penalty>
0.0200719

> <r_epik_Charging_Adjusted_Penalty>
0.0739194

> <i_epik_Tot_Q>
1

> <i_epik_Tot_abs_Q>
1

> <r_epik_Metal_State_Penalty>
0.0199414

> <b_epik_Metal_Only>
0

> <s_lp_Force_Field>
OPLS_2005

> <r_lp_Energy>
55.8923

> <b_lp_Chiralities_Consistent>
1

> <s_lp_Variant>
AV-unprocessed.smi:193-15

> <Gold.Version>
5.8.1

> <Gold.Id.Protein>
6NUR|6NUR_protein|mol2

> <Gold.PLP.Fitness>
49.6076

> <Gold.PLP.PLP>
-41.6840

> <Gold.PLP.part.hbond>
-2.0000

> <Gold.PLP.part.metal>
0.0000

> <Gold.PLP.part.buried>
-6.8158

> <Gold.PLP.part.nonpolar>
-34.7111

> <Gold.PLP.part.repulsive>
0.3558

> <Gold.PLP.ligand.clash>
0.0000

> <Gold.PLP.ligand.torsion>
1.3251

> <Gold.PLP.Chemscore.Hbond>
3.0000

> <Gold.PLP.Chemscore.CHOScore>
0.0000

> <Gold.PLP.Chemscore.Metal>
0.0000

> <Gold.Chemscore.Hbonds>
donor molecule, donor type, donor heavy atom, donor atom, acceptor molecule, acceptor atom, score
      L1  H    16    40       P1 10171  1.00
      L1  H    24    62       P1  8028  2.00

> <Gold.PLP.Chemscore.Internal.Correction>
1.5738

> <Gold.Rescore>
     Score         DG    S(hbond)    S(metal)    S(lipo)     H(rot)  DE(clash)    DE(int)     intcor
     16.03     -19.14       1.97        0.00     108.61       2.20       0.07       3.04       ----

> <Gold.Chemscore.Fitness>
16.0266

> <Gold.Chemscore.DG>
-19.1376

> <Gold.Chemscore.ZeroCoef>
-5.4800

> <Gold.Chemscore.Hbond>
1.9720

> <Gold.Chemscore.Metal>
0.0000

> <Gold.Chemscore.Lipo>
108.6127

> <Gold.Chemscore.Internal_Hbond>
0.0000

> <Gold.Chemscore.DEClash>
0.0746

> <Gold.Chemscore.DEInternal>
3.0364

> <Gold.Chemscore.Rot>
2.2018

> <Gold.Chemscore.Internal.Correction>
   9.000000E+99

> <Gold.Chemscore.Hbonds>
donor molecule, donor type, donor heavy atom, donor atom, acceptor molecule, acceptor atom, score
      L1  H    16    40       P1 10171  0.94
      L1  H    24    62       P1  8028  1.00

> <Gold.Chemscore.Hbond.Weighted>
-6.5865

> <Gold.Chemscore.Metal.Weighted>
-0.0000

> <Gold.Chemscore.Lipo.Weighted>
-12.7077

> <Gold.Chemscore.Internal_Hbond.Weighted>
0.0000

> <Gold.Chemscore.DEClash.Weighted>
0.0746

> <Gold.Chemscore.DEInternal.Weighted>
3.0364

> <Gold.Chemscore.Rot.Weighted>
5.6366

> <Gold.Chemscore.Internal.Correction.Weighted>
   9.000000E+99

> <Gold.Protein.RotatedTorsions>
[ 6907 6896 6895 6894 ] final   -1.55 input  -60.11 | X-H torsion
[ 7974 7965 7964 7962 ] final   36.14 input  175.53 | X-H torsion
[ 8008 7997 7996 7995 ] final  128.64 input   59.86 | X-H torsion
[ 10167 10162 10161 10158 ] final  139.22 input  -65.29 | X-H torsion
[ 10718 10713 10712 10709 ] final -138.21 input   66.30 | X-H torsion
[ 10763 10752 10751 10750 ] final   44.26 input  -60.55 | X-H torsion
[ 11005 11000 10999 10996 ] final  -35.65 input  -57.11 | X-H torsion

> <Gold.Protein.ActiveResidues>
 VAL166  LYS551  ARG553  GLY616  TRP617  ASP618  TYR619  PRO620  LYS621  CYS622 
 ASP623  PHE694  ASN695  SER759  ASP760  ASP761  ALA762  ILE779  LEU786  VAL792 
 PHE793  MET794  SER795  GLU796  ALA797  LYS798  CYS799  TRP800  GLU811  SER814 

> <Gold.Protein.RotatedAtoms>
  151.5443  135.1068  159.9933 H   0  0  0  0  0  0  0  0  0  0  0  0  # atno 6907 bound_to 6896
  152.4521  133.7646  159.6776 H   0  0  0  0  0  0  0  0  0  0  0  0  # atno 6908 bound_to 6896
  150.8453  133.7805  159.3070 H   0  0  0  0  0  0  0  0  0  0  0  0  # atno 6909 bound_to 6896
  146.1233  139.6054  142.9275 H   0  0  0  0  0  0  0  0  0  0  0  0  # atno 7974 bound_to 7965
  156.2919  140.2640  156.2468 H   0  0  0  0  0  0  0  0  0  0  0  0  # atno 8008 bound_to 7997
  154.9922  140.0388  157.2343 H   0  0  0  0  0  0  0  0  0  0  0  0  # atno 8009 bound_to 7997
  154.7676  140.2772  155.6169 H   0  0  0  0  0  0  0  0  0  0  0  0  # atno 8010 bound_to 7997
  139.5086  144.6308  151.5823 H   0  0  0  0  0  0  0  0  0  0  0  0  # atno 10167 bound_to 10162
  156.2968  130.7406  151.1447 H   0  0  0  0  0  0  0  0  0  0  0  0  # atno 10718 bound_to 10713
  152.9844  135.6076  154.3245 H   0  0  0  0  0  0  0  0  0  0  0  0  # atno 10763 bound_to 10752
  154.2953  135.2774  155.2638 H   0  0  0  0  0  0  0  0  0  0  0  0  # atno 10764 bound_to 10752
  154.4915  135.5891  153.6519 H   0  0  0  0  0  0  0  0  0  0  0  0  # atno 10765 bound_to 10752
  140.9813  133.7055  156.1689 H   0  0  0  0  0  0  0  0  0  0  0  0  # atno 11005 bound_to 11000
  145.5420  141.0420  143.2325 LP  0  0  0  0  0  0  0  0  0  0  0  0  # atno 17320 bound_to 7965
  144.7617  139.6940  143.7231 LP  0  0  0  0  0  0  0  0  0  0  0  0  # atno 17321 bound_to 7965
  140.6040  143.9559  150.6405 LP  0  0  0  0  0  0  0  0  0  0  0  0  # atno 17342 bound_to 10162
  140.2780  143.3409  152.1178 LP  0  0  0  0  0  0  0  0  0  0  0  0  # atno 17343 bound_to 10162
  157.7357  131.0569  150.5453 LP  0  0  0  0  0  0  0  0  0  0  0  0  # atno 17370 bound_to 10713
  156.5576  130.4247  149.6078 LP  0  0  0  0  0  0  0  0  0  0  0  0  # atno 17371 bound_to 10713
  140.7182  134.4388  157.5577 LP  0  0  0  0  0  0  0  0  0  0  0  0  # atno 17394 bound_to 11000
  139.8951  134.8690  156.2145 LP  0  0  0  0  0  0  0  0  0  0  0  0  # atno 17395 bound_to 11000

$$$$
