AV-unprocessed.smi:915|AV-procd|sdf|4157|dock4
  -GOLD-   22720 2 63D 1   1.00000     0.00000
 Structure written by MMmdl.
 33 34  0  0  0  0  0  0  0  0  2 V2000
  143.0378  135.9358  162.9334 C   0  0  0  0  0  0  0  0  0  0  0  0
  144.0461  136.9018  162.3013 C   0  0  0  0  0  0  0  0  0  0  0  0
  145.4030  136.2856  162.1447 C   0  0  0  0  0  0  0  0  0  0  0  0
  145.8188  135.0703  162.6188 C   0  0  0  0  0  0  0  0  0  0  0  0
  147.4803  134.7585  162.2084 S   0  0  0  0  0  0  0  0  0  0  0  0
  147.5755  136.3183  161.3873 C   0  0  0  0  0  0  0  0  0  0  0  0
  148.7102  136.7465  160.7903 N   0  5  0  0  0  0  0  0  0  0  0  0
  149.1777  136.3155  159.5909 C   0  0  0  0  0  0  0  0  0  0  0  0
  149.0004  135.2135  159.0674 O   0  0  0  0  0  0  0  0  0  0  0  0
  149.9078  137.2365  158.9483 N   0  0  0  0  0  0  0  0  0  0  0  0
  150.5274  137.0558  157.6412 C   0  0  0  0  0  0  0  0  0  0  0  0
  151.3546  138.2889  157.2439 C   0  0  1  0  0  0  0  0  0  0  0  0
  150.4942  139.5471  157.0649 C   0  0  0  0  0  0  0  0  0  0  0  0
  151.4233  140.7509  157.2251 C   0  0  0  0  0  0  0  0  0  0  0  0
  152.2811  140.4695  158.4586 C   0  0  0  0  0  0  0  0  0  0  0  0
  152.6315  138.6935  158.4738 S   0  0  0  0  0  0  0  0  0  0  0  0
  146.4040  136.9712  161.4538 N   0  0  0  0  0  0  0  0  0  0  0  0
  142.0605  136.4073  163.0373 H   0  0  0  0  0  0  0  0  0  0  0  0
  143.3633  135.6221  163.9259 H   0  0  0  0  0  0  0  0  0  0  0  0
  142.9139  135.0415  162.3223 H   0  0  0  0  0  0  0  0  0  0  0  0
  143.6692  137.2280  161.3315 H   0  0  0  0  0  0  0  0  0  0  0  0
  144.1148  137.8015  162.9136 H   0  0  0  0  0  0  0  0  0  0  0  0
  145.2545  134.3429  163.1822 H   0  0  0  0  0  0  0  0  0  0  0  0
  150.0327  138.1321  159.3968 H   0  0  0  0  0  0  0  0  0  0  0  0
  151.1706  136.1751  157.6759 H   0  0  0  0  0  0  0  0  0  0  0  0
  149.7559  136.8611  156.8944 H   0  0  0  0  0  0  0  0  0  0  0  0
  151.8712  138.0930  156.3031 H   0  0  0  0  0  0  0  0  0  0  0  0
  149.9862  139.5531  156.0999 H   0  0  0  0  0  0  0  0  0  0  0  0
  149.7232  139.5856  157.8356 H   0  0  0  0  0  0  0  0  0  0  0  0
  152.0621  140.8397  156.3455 H   0  0  0  0  0  0  0  0  0  0  0  0
  150.8691  141.6848  157.3218 H   0  0  0  0  0  0  0  0  0  0  0  0
  153.2022  141.0526  158.4640 H   0  0  0  0  0  0  0  0  0  0  0  0
  151.7251  140.7140  159.3643 H   0  0  0  0  0  0  0  0  0  0  0  0
  1  2  1  0  0  0  0
  1 18  1  0  0  0  0
  1 19  1  0  0  0  0
  1 20  1  0  0  0  0
  2  3  1  0  0  0  0
  2 21  1  0  0  0  0
  2 22  1  0  0  0  0
  3 17  1  0  0  0  0
  3  4  2  0  0  0  0
  4  5  1  0  0  0  0
  4 23  1  0  0  0  0
  5  6  1  0  0  0  0
  6  7  1  0  0  0  0
  6 17  2  0  0  0  0
  7  8  1  0  0  0  0
  8  9  2  0  0  0  0
  8 10  1  0  0  0  0
 10 11  1  0  0  0  0
 10 24  1  0  0  0  0
 11 12  1  0  0  0  0
 11 25  1  0  0  0  0
 11 26  1  0  0  0  0
 12 16  1  0  0  0  0
 12 13  1  0  0  0  0
 12 27  1  0  0  0  0
 13 14  1  0  0  0  0
 13 28  1  0  0  0  0
 13 29  1  0  0  0  0
 14 15  1  0  0  0  0
 14 30  1  0  0  0  0
 14 31  1  0  0  0  0
 15 16  1  0  0  0  0
 15 32  1  0  0  0  0
 15 33  1  0  0  0  0
M  CHG  1   7  -1
M  END
> <s_m_source_file>
AV-unprocessed.smi

> <i_m_source_file_index>
915

> <i_lp_mmshare_version>
43012

> <i_f3d_flags>
0

> <s_epik_input>
W0NIM11bQ0gyXWMxW2NIXXNjKG4xKVtOSF1DKD1PKVtOSF1bQ0gyXVtDQEBIXTJbQ0gyXVtDSDJdW0NIMl1TMg==

> <s_epik_cmdline>
J2VwaWtfcHl0aG9uJywgJy1waCcsICc3LjAnLCAnLXRuJywgJzgnLCAnLW1hJywgJzIwMCcsICctbWV0YWxfYmluZGluZycsICctaW1hZScsICc8aW5maWxlLm1hZT4nLCAnLW9tYWUnLCAnPG91dGZpbGUubWFlPic=

> <r_lp_tautomer_probability>
0.999

> <r_epik_Ionization_Penalty>
8.73043

> <r_epik_Ionization_Penalty_Charging>
6.79141

> <r_epik_Ionization_Penalty_Neutral>
1.93902

> <r_epik_State_Penalty>
6.79158

> <r_epik_Charging_Adjusted_Penalty>
13.583

> <i_epik_Tot_Q>
-1

> <i_epik_Tot_abs_Q>
1

> <r_epik_Metal_State_Penalty>
2.71141

> <b_epik_Metal_Only>
1

> <s_lp_Force_Field>
OPLS_2005

> <r_lp_Energy>
9.1846

> <b_lp_Chiralities_Consistent>
1

> <s_lp_Variant>
AV-unprocessed.smi:915-4

> <Gold.Version>
5.8.1

> <Gold.Id.Protein>
6NUR|6NUR_protein|mol2

> <Gold.PLP.Fitness>
38.7253

> <Gold.PLP.PLP>
-29.2513

> <Gold.PLP.part.hbond>
-3.1858

> <Gold.PLP.part.metal>
0.0000

> <Gold.PLP.part.buried>
-5.4301

> <Gold.PLP.part.nonpolar>
-21.9525

> <Gold.PLP.part.repulsive>
0.2286

> <Gold.PLP.ligand.clash>
0.0000

> <Gold.PLP.ligand.torsion>
0.9401

> <Gold.PLP.Chemscore.Hbond>
3.7751

> <Gold.PLP.Chemscore.CHOScore>
0.0000

> <Gold.PLP.Chemscore.Metal>
0.0000

> <Gold.Chemscore.Hbonds>
donor molecule, donor type, donor heavy atom, donor atom, acceptor molecule, acceptor atom, score
      P1  H  6896  6907       L1     9  1.00
      P1  H  6931  6943       L1     7  1.85
      P1  H  6934  6947       L1    17  0.41

> <Gold.PLP.Chemscore.Internal.Correction>
0.0288

> <Gold.Rescore>
     Score         DG    S(hbond)    S(metal)    S(lipo)     H(rot)  DE(clash)    DE(int)     intcor
     14.44     -15.53       1.80        0.00      63.73       1.33       0.07       1.02       ----

> <Gold.Chemscore.Fitness>
14.4444

> <Gold.Chemscore.DG>
-15.5314

> <Gold.Chemscore.ZeroCoef>
-5.4800

> <Gold.Chemscore.Hbond>
1.7966

> <Gold.Chemscore.Metal>
0.0000

> <Gold.Chemscore.Lipo>
63.7331

> <Gold.Chemscore.Internal_Hbond>
0.0000

> <Gold.Chemscore.DEClash>
0.0718

> <Gold.Chemscore.DEInternal>
1.0152

> <Gold.Chemscore.Rot>
1.3305

> <Gold.Chemscore.Internal.Correction>
   9.000000E+99

> <Gold.Chemscore.Hbonds>
donor molecule, donor type, donor heavy atom, donor atom, acceptor molecule, acceptor atom, score
      P1  H  6896  6907       L1     9  0.26
      P1  H  6931  6943       L1     7  0.20
      P1  H  6934  6947       L1    17  0.08

> <Gold.Chemscore.Hbond.Weighted>
-6.0007

> <Gold.Chemscore.Metal.Weighted>
-0.0000

> <Gold.Chemscore.Lipo.Weighted>
-7.4568

> <Gold.Chemscore.Internal_Hbond.Weighted>
0.0000

> <Gold.Chemscore.DEClash.Weighted>
0.0718

> <Gold.Chemscore.DEInternal.Weighted>
1.0152

> <Gold.Chemscore.Rot.Weighted>
3.4060

> <Gold.Chemscore.Internal.Correction.Weighted>
   9.000000E+99

> <Gold.Protein.RotatedTorsions>
[ 6907 6896 6895 6894 ] final  -82.25 input  -60.11 | X-H torsion
[ 7974 7965 7964 7962 ] final  -92.97 input  175.53 | X-H torsion
[ 8008 7997 7996 7995 ] final  -90.64 input   59.86 | X-H torsion
[ 10167 10162 10161 10158 ] final  154.73 input  -65.29 | X-H torsion
[ 10718 10713 10712 10709 ] final  -24.43 input   66.30 | X-H torsion
[ 10763 10752 10751 10750 ] final  104.82 input  -60.55 | X-H torsion
[ 11005 11000 10999 10996 ] final -158.86 input  -57.11 | X-H torsion

> <Gold.Protein.ActiveResidues>
 VAL166  LYS551  ARG553  GLY616  TRP617  ASP618  TYR619  PRO620  LYS621  CYS622 
 ASP623  PHE694  ASN695  SER759  ASP760  ASP761  ALA762  ILE779  LEU786  VAL792 
 PHE793  MET794  SER795  GLU796  ALA797  LYS798  CYS799  TRP800  GLU811  SER814 

> <Gold.Protein.RotatedAtoms>
  150.6900  134.3693  159.4984 H   0  0  0  0  0  0  0  0  0  0  0  0  # atno 6907 bound_to 6896
  152.1511  134.8985  160.0557 H   0  0  0  0  0  0  0  0  0  0  0  0  # atno 6908 bound_to 6896
  152.0082  133.3816  159.4246 H   0  0  0  0  0  0  0  0  0  0  0  0  # atno 6909 bound_to 6896
  145.3928  140.9530  143.2331 H   0  0  0  0  0  0  0  0  0  0  0  0  # atno 7974 bound_to 7965
  154.7010  140.0528  157.0458 H   0  0  0  0  0  0  0  0  0  0  0  0  # atno 8008 bound_to 7997
  155.0685  140.3197  155.4619 H   0  0  0  0  0  0  0  0  0  0  0  0  # atno 8009 bound_to 7997
  156.2760  140.2086  156.5812 H   0  0  0  0  0  0  0  0  0  0  0  0  # atno 8010 bound_to 7997
  139.4822  144.5161  151.7949 H   0  0  0  0  0  0  0  0  0  0  0  0  # atno 10167 bound_to 10162
  156.4778  130.4538  149.6830 H   0  0  0  0  0  0  0  0  0  0  0  0  # atno 10718 bound_to 10713
  153.3711  135.3930  155.1789 H   0  0  0  0  0  0  0  0  0  0  0  0  # atno 10763 bound_to 10752
  154.8694  135.3702  154.4977 H   0  0  0  0  0  0  0  0  0  0  0  0  # atno 10764 bound_to 10752
  153.5445  135.7084  153.5681 H   0  0  0  0  0  0  0  0  0  0  0  0  # atno 10765 bound_to 10752
  140.6490  134.4471  157.5235 H   0  0  0  0  0  0  0  0  0  0  0  0  # atno 11005 bound_to 11000
  144.8428  139.5444  143.6892 LP  0  0  0  0  0  0  0  0  0  0  0  0  # atno 17320 bound_to 7965
  146.2789  139.6826  142.9243 LP  0  0  0  0  0  0  0  0  0  0  0  0  # atno 17321 bound_to 7965
  140.4670  144.1641  150.5913 LP  0  0  0  0  0  0  0  0  0  0  0  0  # atno 17342 bound_to 10162
  140.4423  143.2521  151.9456 LP  0  0  0  0  0  0  0  0  0  0  0  0  # atno 17343 bound_to 10162
  156.3552  130.7453  151.2418 LP  0  0  0  0  0  0  0  0  0  0  0  0  # atno 17370 bound_to 10713
  157.7486  131.0366  150.4415 LP  0  0  0  0  0  0  0  0  0  0  0  0  # atno 17371 bound_to 10713
  139.9053  134.8464  156.1732 LP  0  0  0  0  0  0  0  0  0  0  0  0  # atno 17394 bound_to 11000
  141.0551  133.6869  156.1845 LP  0  0  0  0  0  0  0  0  0  0  0  0  # atno 17395 bound_to 11000

$$$$
