AV-unprocessed.smi:2202|AV-procd|sdf|8934|dock4
  -GOLD-   2272012153D 1   1.00000     0.00000
 Structure written by MMmdl.
 43 45  0  0  0  0  0  0  0  0  2 V2000
  150.4584  135.8259  156.5087 O   0  0  0  0  0  0  0  0  0  0  0  0
  150.3184  136.1953  155.3415 C   0  0  0  0  0  0  0  0  0  0  0  0
  151.1307  137.3699  154.7777 C   0  0  0  0  0  0  0  0  0  0  0  0
  151.1886  138.5268  155.6802 N   0  0  0  0  0  0  0  0  0  0  0  0
  151.5982  138.4696  156.9628 C   0  0  0  0  0  0  0  0  0  0  0  0
  152.0545  137.4926  157.5556 O   0  0  0  0  0  0  0  0  0  0  0  0
  151.3404  139.8154  157.6236 C   0  0  1  0  0  0  0  0  0  0  0  0
  152.2709  140.4090  158.6883 C   0  0  0  0  0  0  0  0  0  0  0  0
  151.8512  141.8633  158.9278 C   0  0  0  0  0  0  0  0  0  0  0  0
  151.0452  142.5617  158.0907 C   0  0  0  0  0  0  0  0  0  0  0  0
  150.4870  141.9976  156.7798 C   0  0  0  0  0  0  0  0  0  0  0  0
  151.2901  140.7407  156.4240 C   0  0  2  0  0  0  0  0  0  0  0  0
  150.8758  139.7859  155.3148 C   0  0  0  0  0  0  0  0  0  0  0  0
  150.4005  140.1516  154.2402 O   0  0  0  0  0  0  0  0  0  0  0  0
  149.4595  135.6156  154.4894 N   0  0  0  0  0  0  0  0  0  0  0  0
  148.5960  134.4868  154.8153 C   0  0  0  0  0  0  0  0  0  0  0  0
  148.8073  133.3138  153.8431 C   0  0  0  0  0  0  0  0  0  0  0  0
  147.5836  133.0519  152.9875 C   0  0  0  0  0  0  0  0  0  0  0  0
  146.8968  131.8188  153.0128 C   0  0  0  0  0  0  0  0  0  0  0  0
  145.7685  131.6421  152.1846 C   0  0  0  0  0  0  0  0  0  0  0  0
  145.3526  132.6998  151.3493 C   0  0  0  0  0  0  0  0  0  0  0  0
  146.0769  133.9092  151.3626 C   0  0  0  0  0  0  0  0  0  0  0  0
  147.1522  134.0400  152.1701 N   0  3  0  0  0  0  0  0  0  0  0  0
  152.1435  137.0283  154.5556 H   0  0  0  0  0  0  0  0  0  0  0  0
  150.6983  137.6615  153.8188 H   0  0  0  0  0  0  0  0  0  0  0  0
  150.3430  139.7356  158.0629 H   0  0  0  0  0  0  0  0  0  0  0  0
  152.1841  139.8490  159.6198 H   0  0  0  0  0  0  0  0  0  0  0  0
  153.3155  140.3737  158.3772 H   0  0  0  0  0  0  0  0  0  0  0  0
  152.2287  142.3350  159.8232 H   0  0  0  0  0  0  0  0  0  0  0  0
  150.7705  143.5769  158.3363 H   0  0  0  0  0  0  0  0  0  0  0  0
  149.4249  141.7793  156.8958 H   0  0  0  0  0  0  0  0  0  0  0  0
  150.5872  142.7447  155.9920 H   0  0  0  0  0  0  0  0  0  0  0  0
  152.3038  141.0581  156.1673 H   0  0  0  0  0  0  0  0  0  0  0  0
  149.4015  135.9824  153.5501 H   0  0  0  0  0  0  0  0  0  0  0  0
  148.7730  134.1706  155.8451 H   0  0  0  0  0  0  0  0  0  0  0  0
  147.5606  134.8256  154.7685 H   0  0  0  0  0  0  0  0  0  0  0  0
  149.6618  133.5152  153.1951 H   0  0  0  0  0  0  0  0  0  0  0  0
  149.0474  132.4023  154.3927 H   0  0  0  0  0  0  0  0  0  0  0  0
  147.2290  131.0174  153.6569 H   0  0  0  0  0  0  0  0  0  0  0  0
  145.2287  130.7063  152.1895 H   0  0  0  0  0  0  0  0  0  0  0  0
  144.4913  132.5846  150.7074 H   0  0  0  0  0  0  0  0  0  0  0  0
  145.8311  134.7691  150.7568 H   0  0  0  0  0  0  0  0  0  0  0  0
  147.6619  134.9240  152.1641 H   0  0  0  0  0  0  0  0  0  0  0  0
  1  2  2  0  0  0  0
  2  3  1  0  0  0  0
  2 15  1  0  0  0  0
  3  4  1  0  0  0  0
  3 24  1  0  0  0  0
  3 25  1  0  0  0  0
  4 13  1  0  0  0  0
  4  5  1  0  0  0  0
  5  6  2  0  0  0  0
  5  7  1  0  0  0  0
  7 12  1  0  0  0  0
  7  8  1  0  0  0  0
  7 26  1  0  0  0  0
  8  9  1  0  0  0  0
  8 27  1  0  0  0  0
  8 28  1  0  0  0  0
  9 10  2  0  0  0  0
  9 29  1  0  0  0  0
 10 11  1  0  0  0  0
 10 30  1  0  0  0  0
 11 12  1  0  0  0  0
 11 31  1  0  0  0  0
 11 32  1  0  0  0  0
 12 13  1  0  0  0  0
 12 33  1  0  0  0  0
 13 14  2  0  0  0  0
 15 16  1  0  0  0  0
 15 34  1  0  0  0  0
 16 17  1  0  0  0  0
 16 35  1  0  0  0  0
 16 36  1  0  0  0  0
 17 18  1  0  0  0  0
 17 37  1  0  0  0  0
 17 38  1  0  0  0  0
 18 23  1  0  0  0  0
 18 19  2  0  0  0  0
 19 20  1  0  0  0  0
 19 39  1  0  0  0  0
 20 21  2  0  0  0  0
 20 40  1  0  0  0  0
 21 22  1  0  0  0  0
 21 41  1  0  0  0  0
 22 23  2  0  0  0  0
 22 42  1  0  0  0  0
 23 43  1  0  0  0  0
M  CHG  1  23   1
M  END
> <s_m_source_file>
AV-unprocessed.smi

> <i_m_source_file_index>
2202

> <i_lp_mmshare_version>
43012

> <i_f3d_flags>
0

> <s_epik_input>
W0NIMl0xW0NIXT1bQ0hdW0NIMl1bQ0BIXShbQ0BIXTEyKUMoPU8pTihDMj1PKVtDSDJdQyg9TylbTkhdW0NIMl1bQ0gyXWMzW2NIXVtjSF1bY0hdW2NIXW4z

> <s_epik_cmdline>
J2VwaWtfcHl0aG9uJywgJy1waCcsICc3LjAnLCAnLXRuJywgJzgnLCAnLW1hJywgJzIwMCcsICctbWV0YWxfYmluZGluZycsICctaW1hZScsICc8aW5maWxlLm1hZT4nLCAnLW9tYWUnLCAnPG91dGZpbGUubWFlPic=

> <r_lp_tautomer_probability>
1

> <r_epik_Ionization_Penalty>
1.90039

> <r_epik_Ionization_Penalty_Charging>
1.90039

> <r_epik_Ionization_Penalty_Neutral>
1.50224e-07

> <r_epik_State_Penalty>
2.02162

> <r_epik_Charging_Adjusted_Penalty>
3.922

> <i_epik_Tot_Q>
1

> <i_epik_Tot_abs_Q>
1

> <r_epik_Metal_State_Penalty>
2.04542

> <b_epik_Metal_Only>
0

> <s_lp_Force_Field>
OPLS_2005

> <r_lp_Energy>
26.7025

> <b_lp_Chiralities_Consistent>
1

> <s_lp_Variant>
AV-unprocessed.smi:2202-6

> <Gold.Version>
5.8.1

> <Gold.Id.Protein>
6NUR|6NUR_protein|mol2

> <Gold.PLP.Fitness>
51.8398

> <Gold.PLP.PLP>
-41.0148

> <Gold.PLP.part.hbond>
-3.1156

> <Gold.PLP.part.metal>
0.0000

> <Gold.PLP.part.buried>
-4.1166

> <Gold.PLP.part.nonpolar>
-33.9474

> <Gold.PLP.part.repulsive>
0.2109

> <Gold.PLP.ligand.clash>
0.0000

> <Gold.PLP.ligand.torsion>
0.6138

> <Gold.PLP.Chemscore.Hbond>
4.0000

> <Gold.PLP.Chemscore.CHOScore>
0.0000

> <Gold.PLP.Chemscore.Metal>
0.0000

> <Gold.Chemscore.Hbonds>
donor molecule, donor type, donor heavy atom, donor atom, acceptor molecule, acceptor atom, score
      L1  H    15    34       P1  7948  1.00
      L1  H    23    43       P1  7948  2.00
      P1  H  7989  7998       L1    14  1.00

> <Gold.PLP.Chemscore.Internal.Correction>
0.0525

> <Gold.Rescore>
     Score         DG    S(hbond)    S(metal)    S(lipo)     H(rot)  DE(clash)    DE(int)     intcor
     16.19     -19.51       2.80        0.00      82.83       1.96       0.00       3.32       ----

> <Gold.Chemscore.Fitness>
16.1885

> <Gold.Chemscore.DG>
-19.5057

> <Gold.Chemscore.ZeroCoef>
-5.4800

> <Gold.Chemscore.Hbond>
2.8019

> <Gold.Chemscore.Metal>
0.0000

> <Gold.Chemscore.Lipo>
82.8314

> <Gold.Chemscore.Internal_Hbond>
0.0000

> <Gold.Chemscore.DEClash>
0.0000

> <Gold.Chemscore.DEInternal>
3.3172

> <Gold.Chemscore.Rot>
1.9625

> <Gold.Chemscore.Internal.Correction>
   9.000000E+99

> <Gold.Chemscore.Hbonds>
donor molecule, donor type, donor heavy atom, donor atom, acceptor molecule, acceptor atom, score
      L1  H    15    34       P1  7948  0.55
      L1  H    23    43       P1  7948  0.85
      P1  H  7989  7998       L1    14  0.48

> <Gold.Chemscore.Hbond.Weighted>
-9.3584

> <Gold.Chemscore.Metal.Weighted>
-0.0000

> <Gold.Chemscore.Lipo.Weighted>
-9.6913

> <Gold.Chemscore.Internal_Hbond.Weighted>
0.0000

> <Gold.Chemscore.DEClash.Weighted>
0.0000

> <Gold.Chemscore.DEInternal.Weighted>
3.3172

> <Gold.Chemscore.Rot.Weighted>
5.0240

> <Gold.Chemscore.Internal.Correction.Weighted>
   9.000000E+99

> <Gold.Protein.RotatedTorsions>
[ 6907 6896 6895 6894 ] final  -50.30 input  -60.11 | X-H torsion
[ 7974 7965 7964 7962 ] final  151.40 input  175.53 | X-H torsion
[ 8008 7997 7996 7995 ] final   30.62 input   59.86 | X-H torsion
[ 10167 10162 10161 10158 ] final -120.64 input  -65.29 | X-H torsion
[ 10718 10713 10712 10709 ] final  104.28 input   66.30 | X-H torsion
[ 10763 10752 10751 10750 ] final  -46.67 input  -60.55 | X-H torsion
[ 11005 11000 10999 10996 ] final   57.96 input  -57.11 | X-H torsion

> <Gold.Protein.ActiveResidues>
 VAL166  LYS551  ARG553  GLY616  TRP617  ASP618  TYR619  PRO620  LYS621  CYS622 
 ASP623  PHE694  ASN695  SER759  ASP760  ASP761  ALA762  ILE779  LEU786  VAL792 
 PHE793  MET794  SER795  GLU796  ALA797  LYS798  CYS799  TRP800  GLU811  SER814 

> <Gold.Protein.RotatedAtoms>
  150.8720  134.8096  159.7161 H   0  0  0  0  0  0  0  0  0  0  0  0  # atno 6907 bound_to 6896
  152.4721  134.4931  159.9711 H   0  0  0  0  0  0  0  0  0  0  0  0  # atno 6908 bound_to 6896
  151.5018  133.3464  159.2906 H   0  0  0  0  0  0  0  0  0  0  0  0  # atno 6909 bound_to 6896
  144.8295  139.6533  143.6065 H   0  0  0  0  0  0  0  0  0  0  0  0  # atno 7974 bound_to 7965
  155.0933  140.3222  155.4567 H   0  0  0  0  0  0  0  0  0  0  0  0  # atno 8008 bound_to 7997
  156.2737  140.2074  156.6006 H   0  0  0  0  0  0  0  0  0  0  0  0  # atno 8009 bound_to 7997
  154.6886  140.0519  157.0327 H   0  0  0  0  0  0  0  0  0  0  0  0  # atno 8010 bound_to 7997
  140.0337  143.5222  152.2164 H   0  0  0  0  0  0  0  0  0  0  0  0  # atno 10167 bound_to 10162
  157.6745  131.0800  150.5683 H   0  0  0  0  0  0  0  0  0  0  0  0  # atno 10718 bound_to 10713
  154.0488  135.6634  153.4798 H   0  0  0  0  0  0  0  0  0  0  0  0  # atno 10763 bound_to 10752
  153.0472  135.5107  154.7771 H   0  0  0  0  0  0  0  0  0  0  0  0  # atno 10764 bound_to 10752
  154.6771  135.3039  154.9630 H   0  0  0  0  0  0  0  0  0  0  0  0  # atno 10765 bound_to 10752
  140.0413  134.5869  155.9378 H   0  0  0  0  0  0  0  0  0  0  0  0  # atno 11005 bound_to 11000
  146.2599  139.6386  142.9369 LP  0  0  0  0  0  0  0  0  0  0  0  0  # atno 17320 bound_to 7965
  145.4927  141.0438  143.2584 LP  0  0  0  0  0  0  0  0  0  0  0  0  # atno 17321 bound_to 7965
  139.6059  144.7596  151.3063 LP  0  0  0  0  0  0  0  0  0  0  0  0  # atno 17342 bound_to 10162
  140.7291  143.6918  150.7916 LP  0  0  0  0  0  0  0  0  0  0  0  0  # atno 17343 bound_to 10162
  156.5985  130.4348  149.5907 LP  0  0  0  0  0  0  0  0  0  0  0  0  # atno 17370 bound_to 10713
  156.2526  130.6916  151.1658 LP  0  0  0  0  0  0  0  0  0  0  0  0  # atno 17371 bound_to 10713
  141.1884  133.6562  156.5324 LP  0  0  0  0  0  0  0  0  0  0  0  0  # atno 17394 bound_to 11000
  140.4065  134.7311  157.4810 LP  0  0  0  0  0  0  0  0  0  0  0  0  # atno 17395 bound_to 11000

$$$$
