AV-unprocessed.smi:243|AV-procd|sdf|1859|dock2
  -GOLD-   2262020493D 1   1.00000     0.00000
 Structure written by MMmdl.
 58 61  0  0  0  0  0  0  0  0  2 V2000
  145.5804  133.6504  151.8484 C   0  0  0  0  0  0  0  0  0  0  0  0
  145.8068  132.5077  152.8487 C   0  0  0  0  0  0  0  0  0  0  0  0
  146.9145  132.7930  153.7950 N   0  3  1  0  0  0  0  0  0  0  0  0
  148.2250  132.9080  153.1056 C   0  0  0  0  0  0  0  0  0  0  0  0
  149.3730  133.0510  154.1163 C   0  0  0  0  0  0  0  0  0  0  0  0
  149.1317  134.2510  155.0523 C   0  0  2  0  0  0  0  0  0  0  0  0
  150.2563  134.5207  155.9631 N   0  0  0  0  0  0  0  0  0  0  0  0
  150.8194  133.4618  156.8045 C   0  0  0  0  0  0  0  0  0  0  0  0
  150.3525  135.7918  156.4398 C   0  0  0  0  0  0  0  0  0  0  0  0
  149.9476  136.0545  157.7120 N   0  0  0  0  0  0  0  0  0  0  0  0
  150.0106  137.2953  158.2026 C   0  0  0  0  0  0  0  0  0  0  0  0
  150.4393  138.4070  157.6040 N   0  0  0  0  0  0  0  0  0  0  0  0
  150.8551  138.1538  156.3305 C   0  0  0  0  0  0  0  0  0  0  0  0
  150.8438  136.8895  155.6740 C   0  0  0  0  0  0  0  0  0  0  0  0
  151.3486  137.0281  154.3857 N   0  0  0  0  0  0  0  0  0  0  0  0
  151.6292  138.2980  154.2834 C   0  0  0  0  0  0  0  0  0  0  0  0
  151.3738  139.0466  155.4091 N   0  0  0  0  0  0  0  0  0  0  0  0
  151.6021  140.4734  155.5789 C   0  0  0  0  0  0  0  0  0  0  0  0
  150.3034  141.3122  155.5299 C   0  0  1  0  0  0  0  0  0  0  0  0
  150.6356  142.6853  155.6423 O   0  0  0  0  0  0  0  0  0  0  0  0
  149.4802  141.1156  154.2592 C   0  0  0  0  0  0  0  0  0  0  0  0
  148.0504  141.3006  154.7476 C   0  0  0  0  0  0  0  0  0  0  0  0
  148.0716  140.6514  156.0071 O   0  0  0  0  0  0  0  0  0  0  0  0
  149.3050  140.9575  156.6501 C   0  0  0  0  0  0  0  0  0  0  0  0
  147.7445  134.1458  155.7416 C   0  0  2  0  0  0  0  0  0  0  0  0
  147.6298  133.0651  156.8336 C   0  0  0  0  0  0  0  0  0  0  0  0
  146.6507  133.9697  154.6671 C   0  0  0  0  0  0  0  0  0  0  0  0
  144.7046  133.4495  151.2308 H   0  0  0  0  0  0  0  0  0  0  0  0
  146.4261  133.7818  151.1743 H   0  0  0  0  0  0  0  0  0  0  0  0
  145.4096  134.5963  152.3637 H   0  0  0  0  0  0  0  0  0  0  0  0
  144.8807  132.3730  153.4089 H   0  0  0  0  0  0  0  0  0  0  0  0
  145.9905  131.5671  152.3272 H   0  0  0  0  0  0  0  0  0  0  0  0
  148.4006  132.0227  152.4930 H   0  0  0  0  0  0  0  0  0  0  0  0
  148.2086  133.7636  152.4286 H   0  0  0  0  0  0  0  0  0  0  0  0
  149.4620  132.1259  154.6863 H   0  0  0  0  0  0  0  0  0  0  0  0
  150.3145  133.1786  153.5807 H   0  0  0  0  0  0  0  0  0  0  0  0
  149.0688  135.1037  154.3798 H   0  0  0  0  0  0  0  0  0  0  0  0
  151.7444  133.7938  157.2780 H   0  0  0  0  0  0  0  0  0  0  0  0
  151.0748  132.5841  156.2121 H   0  0  0  0  0  0  0  0  0  0  0  0
  150.1317  133.1540  157.5900 H   0  0  0  0  0  0  0  0  0  0  0  0
  149.6679  137.4143  159.2201 H   0  0  0  0  0  0  0  0  0  0  0  0
  152.0405  138.7242  153.3801 H   0  0  0  0  0  0  0  0  0  0  0  0
  152.1120  140.6238  156.5312 H   0  0  0  0  0  0  0  0  0  0  0  0
  152.2957  140.8073  154.8059 H   0  0  0  0  0  0  0  0  0  0  0  0
  149.8397  143.1921  155.5904 H   0  0  0  0  0  0  0  0  0  0  0  0
  149.7502  141.7931  153.4476 H   0  0  0  0  0  0  0  0  0  0  0  0
  149.5915  140.0950  153.8910 H   0  0  0  0  0  0  0  0  0  0  0  0
  147.8115  142.3572  154.8788 H   0  0  0  0  0  0  0  0  0  0  0  0
  147.3131  140.8576  154.0777 H   0  0  0  0  0  0  0  0  0  0  0  0
  149.6257  140.0953  157.2360 H   0  0  0  0  0  0  0  0  0  0  0  0
  149.1567  141.7858  157.3450 H   0  0  0  0  0  0  0  0  0  0  0  0
  147.5427  135.0989  156.2327 H   0  0  0  0  0  0  0  0  0  0  0  0
  147.9175  132.0792  156.4696 H   0  0  0  0  0  0  0  0  0  0  0  0
  146.6064  132.9922  157.2025 H   0  0  0  0  0  0  0  0  0  0  0  0
  148.2509  133.3063  157.6949 H   0  0  0  0  0  0  0  0  0  0  0  0
  146.5969  134.8664  154.0472 H   0  0  0  0  0  0  0  0  0  0  0  0
  145.6802  133.8769  155.1534 H   0  0  0  0  0  0  0  0  0  0  0  0
  146.9859  131.9879  154.4006 H   0  0  0  0  0  0  0  0  0  0  0  0
  1  2  1  0  0  0  0
  1 28  1  0  0  0  0
  1 29  1  0  0  0  0
  1 30  1  0  0  0  0
  2  3  1  0  0  0  0
  2 31  1  0  0  0  0
  2 32  1  0  0  0  0
  3 27  1  0  0  0  0
  3  4  1  0  0  0  0
  3 58  1  0  0  0  0
  4  5  1  0  0  0  0
  4 33  1  0  0  0  0
  4 34  1  0  0  0  0
  5  6  1  0  0  0  0
  5 35  1  0  0  0  0
  5 36  1  0  0  0  0
  6  7  1  0  0  0  0
  6 25  1  0  0  0  0
  6 37  1  0  0  0  0
  7  8  1  0  0  0  0
  7  9  1  0  0  0  0
  8 38  1  0  0  0  0
  8 39  1  0  0  0  0
  8 40  1  0  0  0  0
  9 14  1  0  0  0  0
  9 10  2  0  0  0  0
 10 11  1  0  0  0  0
 11 12  2  0  0  0  0
 11 41  1  0  0  0  0
 12 13  1  0  0  0  0
 13 17  1  0  0  0  0
 13 14  2  0  0  0  0
 14 15  1  0  0  0  0
 15 16  2  0  0  0  0
 16 17  1  0  0  0  0
 16 42  1  0  0  0  0
 17 18  1  0  0  0  0
 18 19  1  0  0  0  0
 18 43  1  0  0  0  0
 18 44  1  0  0  0  0
 19 24  1  0  0  0  0
 19 20  1  0  0  0  0
 19 21  1  0  0  0  0
 20 45  1  0  0  0  0
 21 22  1  0  0  0  0
 21 46  1  0  0  0  0
 21 47  1  0  0  0  0
 22 23  1  0  0  0  0
 22 48  1  0  0  0  0
 22 49  1  0  0  0  0
 23 24  1  0  0  0  0
 24 50  1  0  0  0  0
 24 51  1  0  0  0  0
 25 26  1  0  0  0  0
 25 27  1  0  0  0  0
 25 52  1  0  0  0  0
 26 53  1  0  0  0  0
 26 54  1  0  0  0  0
 26 55  1  0  0  0  0
 27 56  1  0  0  0  0
 27 57  1  0  0  0  0
M  CHG  1   3   1
M  END
> <s_m_source_file>
AV-unprocessed.smi

> <i_m_source_file_index>
243

> <i_lp_mmshare_version>
43012

> <i_f3d_flags>
0

> <s_epik_input>
W0NIM11bQ0gyXU4xW0NIMl1bQ0gyXVtDQEhdKFtDQEBIXShbQ0gzXSlbQ0gyXTEpTihbQ0gzXSljKG5bY0hdbjIpYyhjMjMpbltjSF1uM1tDSDJdW0NAQF00KFtPSF0pW0NIMl1bQ0gyXU9bQ0gyXTQ=

> <s_epik_cmdline>
J2VwaWtfcHl0aG9uJywgJy1waCcsICc3LjAnLCAnLXRuJywgJzgnLCAnLW1hJywgJzIwMCcsICctbWV0YWxfYmluZGluZycsICctaW1hZScsICc8aW5maWxlLm1hZT4nLCAnLW9tYWUnLCAnPG91dGZpbGUubWFlPic=

> <r_lp_tautomer_probability>
1

> <r_epik_Ionization_Penalty>
0.00253099

> <r_epik_Ionization_Penalty_Charging>
0.00137877

> <r_epik_Ionization_Penalty_Neutral>
0.00115221

> <r_epik_State_Penalty>
-0

> <r_epik_Charging_Adjusted_Penalty>
0.00137877

> <i_epik_Tot_Q>
1

> <i_epik_Tot_abs_Q>
1

> <r_epik_Metal_State_Penalty>
-0

> <b_epik_Metal_Only>
0

> <s_lp_Force_Field>
OPLS_2005

> <r_lp_Energy>
49.5807

> <b_lp_Chiralities_Consistent>
1

> <s_lp_Variant>
AV-unprocessed.smi:243-12

> <Gold.Version>
5.8.1

> <Gold.Id.Protein>
6NUR|6NUR_protein|mol2

> <Gold.PLP.Fitness>
43.7072

> <Gold.PLP.PLP>
-40.2787

> <Gold.PLP.part.hbond>
-2.7358

> <Gold.PLP.part.metal>
0.0000

> <Gold.PLP.part.buried>
-6.3886

> <Gold.PLP.part.nonpolar>
-31.6444

> <Gold.PLP.part.repulsive>
0.3703

> <Gold.PLP.ligand.clash>
0.0000

> <Gold.PLP.ligand.torsion>
1.7515

> <Gold.PLP.Chemscore.Hbond>
1.9592

> <Gold.PLP.Chemscore.CHOScore>
0.0000

> <Gold.PLP.Chemscore.Metal>
0.0000

> <Gold.Chemscore.Hbonds>
donor molecule, donor type, donor heavy atom, donor atom, acceptor molecule, acceptor atom, score
      L1  H    20    45       P1  8028  1.00
      P1  H 10752 10764       L1    15  0.83

> <Gold.PLP.Chemscore.Internal.Correction>
1.0539

> <Gold.Rescore>
     Score         DG    S(hbond)    S(metal)    S(lipo)     H(rot)  DE(clash)    DE(int)     intcor
     12.25     -15.11       1.84        0.00      78.84       2.24       0.72       2.14       ----

> <Gold.Chemscore.Fitness>
12.2541

> <Gold.Chemscore.DG>
-15.1136

> <Gold.Chemscore.ZeroCoef>
-5.4800

> <Gold.Chemscore.Hbond>
1.8379

> <Gold.Chemscore.Metal>
0.0000

> <Gold.Chemscore.Lipo>
78.8382

> <Gold.Chemscore.Internal_Hbond>
0.0000

> <Gold.Chemscore.DEClash>
0.7204

> <Gold.Chemscore.DEInternal>
2.1391

> <Gold.Chemscore.Rot>
2.2379

> <Gold.Chemscore.Internal.Correction>
   9.000000E+99

> <Gold.Chemscore.Hbonds>
donor molecule, donor type, donor heavy atom, donor atom, acceptor molecule, acceptor atom, score
      L1  H    20    45       P1  8028  0.98
      P1  H 10752 10764       L1    15  0.39

> <Gold.Chemscore.Hbond.Weighted>
-6.1386

> <Gold.Chemscore.Metal.Weighted>
-0.0000

> <Gold.Chemscore.Lipo.Weighted>
-9.2241

> <Gold.Chemscore.Internal_Hbond.Weighted>
0.0000

> <Gold.Chemscore.DEClash.Weighted>
0.7204

> <Gold.Chemscore.DEInternal.Weighted>
2.1391

> <Gold.Chemscore.Rot.Weighted>
5.7291

> <Gold.Chemscore.Internal.Correction.Weighted>
   9.000000E+99

> <Gold.Protein.RotatedTorsions>
[ 6907 6896 6895 6894 ] final -158.35 input  -60.11 | X-H torsion
[ 7974 7965 7964 7962 ] final -101.39 input  175.53 | X-H torsion
[ 8008 7997 7996 7995 ] final  -28.09 input   59.86 | X-H torsion
[ 10167 10162 10161 10158 ] final  -77.38 input  -65.29 | X-H torsion
[ 10718 10713 10712 10709 ] final  131.19 input   66.30 | X-H torsion
[ 10763 10752 10751 10750 ] final  -77.77 input  -60.55 | X-H torsion
[ 11005 11000 10999 10996 ] final  -32.45 input  -57.11 | X-H torsion

> <Gold.Protein.ActiveResidues>
 VAL166  LYS551  ARG553  GLY616  TRP617  ASP618  TYR619  PRO620  LYS621  CYS622 
 ASP623  PHE694  ASN695  SER759  ASP760  ASP761  ALA762  ILE779  LEU786  VAL792 
 PHE793  MET794  SER795  GLU796  ALA797  LYS798  CYS799  TRP800  GLU811  SER814 

> <Gold.Protein.RotatedAtoms>
  151.3168  133.4057  159.2650 H   0  0  0  0  0  0  0  0  0  0  0  0  # atno 6907 bound_to 6896
  151.0068  134.9366  159.7995 H   0  0  0  0  0  0  0  0  0  0  0  0  # atno 6908 bound_to 6896
  152.5290  134.3132  159.9174 H   0  0  0  0  0  0  0  0  0  0  0  0  # atno 6909 bound_to 6896
  145.2823  140.9330  143.2925 H   0  0  0  0  0  0  0  0  0  0  0  0  # atno 7974 bound_to 7965
  154.4348  140.1855  156.1034 H   0  0  0  0  0  0  0  0  0  0  0  0  # atno 8008 bound_to 7997
  156.0274  140.3334  155.7077 H   0  0  0  0  0  0  0  0  0  0  0  0  # atno 8009 bound_to 7997
  155.5888  140.0629  157.2755 H   0  0  0  0  0  0  0  0  0  0  0  0  # atno 8010 bound_to 7997
  140.4775  143.2410  151.8109 H   0  0  0  0  0  0  0  0  0  0  0  0  # atno 10167 bound_to 10162
  157.4991  131.1093  150.9452 H   0  0  0  0  0  0  0  0  0  0  0  0  # atno 10718 bound_to 10713
  154.5172  135.5753  153.6652 H   0  0  0  0  0  0  0  0  0  0  0  0  # atno 10763 bound_to 10752
  152.9909  135.6173  154.2802 H   0  0  0  0  0  0  0  0  0  0  0  0  # atno 10764 bound_to 10752
  154.2720  135.2853  155.2713 H   0  0  0  0  0  0  0  0  0  0  0  0  # atno 10765 bound_to 10752
  140.9553  133.7196  156.1283 H   0  0  0  0  0  0  0  0  0  0  0  0  # atno 11005 bound_to 11000
  144.9243  139.4374  143.6526 LP  0  0  0  0  0  0  0  0  0  0  0  0  # atno 17320 bound_to 7965
  146.3212  139.8120  142.8944 LP  0  0  0  0  0  0  0  0  0  0  0  0  # atno 17321 bound_to 7965
  139.4828  144.4814  151.9301 LP  0  0  0  0  0  0  0  0  0  0  0  0  # atno 17342 bound_to 10162
  140.3899  144.2628  150.5900 LP  0  0  0  0  0  0  0  0  0  0  0  0  # atno 17343 bound_to 10162
  157.0128  130.5643  149.5322 LP  0  0  0  0  0  0  0  0  0  0  0  0  # atno 17370 bound_to 10713
  156.0218  130.5313  150.8297 LP  0  0  0  0  0  0  0  0  0  0  0  0  # atno 17371 bound_to 10713
  140.7545  134.4008  157.5536 LP  0  0  0  0  0  0  0  0  0  0  0  0  # atno 17394 bound_to 11000
  139.8860  134.8921  156.2609 LP  0  0  0  0  0  0  0  0  0  0  0  0  # atno 17395 bound_to 11000

$$$$
