AV-unprocessed.smi:391|AV-procd|sdf|2479|dock6
  -GOLD-   2262022423D 1   1.00000     0.00000
 Structure written by MMmdl.
 36 37  0  0  0  0  0  0  0  0  1 V2000
  148.4937  138.8433  153.9732 C   0  0  0  0  0  0  0  0  0  0  0  0
  148.6144  140.0879  154.8623 C   0  0  0  0  0  0  0  0  0  0  0  0
  148.1516  141.3564  154.1280 C   0  0  0  0  0  0  0  0  0  0  0  0
  149.9967  140.2328  155.3086 N   0  0  0  0  0  0  0  0  0  0  0  0
  150.4161  140.1672  156.5815 C   0  0  0  0  0  0  0  0  0  0  0  0
  149.6602  139.9603  157.5320 O   0  0  0  0  0  0  0  0  0  0  0  0
  151.9244  140.3634  156.7969 C   0  0  0  0  0  0  0  0  0  0  0  0
  152.2558  141.0654  158.0563 N   0  0  0  0  0  0  0  0  0  0  0  0
  153.2078  140.4861  158.9336 C   0  0  0  0  0  0  0  0  0  0  0  0
  153.7689  139.4258  158.6525 O   0  0  0  0  0  0  0  0  0  0  0  0
  153.4514  141.2225  160.1721 C   0  0  0  0  0  0  0  0  0  0  0  0
  154.3815  140.6580  161.0929 C   0  0  0  0  0  0  0  0  0  0  0  0
  155.1553  140.2054  161.8250 N   0  0  0  0  0  0  0  0  0  0  0  0
  152.8150  142.3842  160.4267 C   0  0  0  0  0  0  0  0  0  0  0  0
  151.9202  142.9485  159.5439 N   0  0  0  0  0  0  0  0  0  0  0  0
  151.1387  144.0977  159.9040 C   0  0  0  0  0  0  0  0  0  0  0  0
  150.9183  145.2195  158.9078 C   0  0  0  0  0  0  0  0  0  0  0  0
  151.8347  145.4282  160.0886 C   0  0  0  0  0  0  0  0  0  0  0  0
  151.5769  142.2723  158.3528 C   0  0  0  0  0  0  0  0  0  0  0  0
  150.7059  142.7111  157.5971 O   0  0  0  0  0  0  0  0  0  0  0  0
  147.4641  138.6931  153.6475 H   0  0  0  0  0  0  0  0  0  0  0  0
  148.8027  137.9461  154.5106 H   0  0  0  0  0  0  0  0  0  0  0  0
  149.1152  138.9291  153.0811 H   0  0  0  0  0  0  0  0  0  0  0  0
  147.9737  139.9368  155.7329 H   0  0  0  0  0  0  0  0  0  0  0  0
  147.1180  141.2605  153.7944 H   0  0  0  0  0  0  0  0  0  0  0  0
  148.7671  141.5533  153.2495 H   0  0  0  0  0  0  0  0  0  0  0  0
  148.2061  142.2320  154.7756 H   0  0  0  0  0  0  0  0  0  0  0  0
  150.6888  140.4027  154.5931 H   0  0  0  0  0  0  0  0  0  0  0  0
  152.4047  139.3851  156.7461 H   0  0  0  0  0  0  0  0  0  0  0  0
  152.3362  140.9040  155.9427 H   0  0  0  0  0  0  0  0  0  0  0  0
  153.0161  142.8978  161.3560 H   0  0  0  0  0  0  0  0  0  0  0  0
  150.3109  143.8997  160.5827 H   0  0  0  0  0  0  0  0  0  0  0  0
  151.3835  145.1380  157.9271 H   0  0  0  0  0  0  0  0  0  0  0  0
  149.9525  145.7200  158.9242 H   0  0  0  0  0  0  0  0  0  0  0  0
  151.4811  146.0710  160.8920 H   0  0  0  0  0  0  0  0  0  0  0  0
  152.9027  145.4815  159.8855 H   0  0  0  0  0  0  0  0  0  0  0  0
  1  2  1  0  0  0  0
  1 21  1  0  0  0  0
  1 22  1  0  0  0  0
  1 23  1  0  0  0  0
  2  3  1  0  0  0  0
  2  4  1  0  0  0  0
  2 24  1  0  0  0  0
  3 25  1  0  0  0  0
  3 26  1  0  0  0  0
  3 27  1  0  0  0  0
  4  5  1  0  0  0  0
  4 28  1  0  0  0  0
  5  6  2  0  0  0  0
  5  7  1  0  0  0  0
  7  8  1  0  0  0  0
  7 29  1  0  0  0  0
  7 30  1  0  0  0  0
  8 19  1  0  0  0  0
  8  9  1  0  0  0  0
  9 10  2  0  0  0  0
  9 11  1  0  0  0  0
 11 12  1  0  0  0  0
 11 14  2  0  0  0  0
 12 13  3  0  0  0  0
 14 15  1  0  0  0  0
 14 31  1  0  0  0  0
 15 16  1  0  0  0  0
 15 19  1  0  0  0  0
 16 18  1  0  0  0  0
 16 17  1  0  0  0  0
 16 32  1  0  0  0  0
 17 18  1  0  0  0  0
 17 33  1  0  0  0  0
 17 34  1  0  0  0  0
 18 35  1  0  0  0  0
 18 36  1  0  0  0  0
 19 20  2  0  0  0  0
M  END
> <s_m_source_file>
AV-unprocessed.smi

> <i_m_source_file_index>
391

> <i_lp_mmshare_version>
43012

> <i_f3d_flags>
0

> <s_epik_input>
W0NIM11bQ0hdKFtDSDNdKVtOSF1DKD1PKVtDSDJdbjFjKD1PKWMoQyNOKVtjSF1uKGMxPU8pW0NIXTJbQ0gyXVtDSDJdMg==

> <s_epik_cmdline>
J2VwaWtfcHl0aG9uJywgJy1waCcsICc3LjAnLCAnLXRuJywgJzgnLCAnLW1hJywgJzIwMCcsICctbWV0YWxfYmluZGluZycsICctaW1hZScsICc8aW5maWxlLm1hZT4nLCAnLW9tYWUnLCAnPG91dGZpbGUubWFlPic=

> <r_lp_tautomer_probability>
1

> <r_epik_Ionization_Penalty>
2.07526e-08

> <r_epik_Ionization_Penalty_Charging>
8.22213e-11

> <r_epik_Ionization_Penalty_Neutral>
2.06703e-08

> <r_epik_State_Penalty>
-0

> <r_epik_Charging_Adjusted_Penalty>
8.22213e-11

> <i_epik_Tot_Q>
0

> <i_epik_Tot_abs_Q>
0

> <r_epik_Metal_State_Penalty>
-0

> <b_epik_Metal_Only>
0

> <s_lp_Force_Field>
OPLS_2005

> <r_lp_Energy>
27.641

> <b_lp_Chiralities_Consistent>
1

> <s_lp_Variant>
AV-unprocessed.smi:391-1

> <Gold.Version>
5.8.1

> <Gold.Id.Protein>
6NUR|6NUR_protein|mol2

> <Gold.PLP.Fitness>
42.7177

> <Gold.PLP.PLP>
-40.7864

> <Gold.PLP.part.hbond>
-1.0000

> <Gold.PLP.part.metal>
0.0000

> <Gold.PLP.part.buried>
-4.5911

> <Gold.PLP.part.nonpolar>
-34.1813

> <Gold.PLP.part.repulsive>
0.2560

> <Gold.PLP.ligand.clash>
0.0000

> <Gold.PLP.ligand.torsion>
0.6482

> <Gold.PLP.Chemscore.Hbond>
1.0000

> <Gold.PLP.Chemscore.CHOScore>
0.0000

> <Gold.PLP.Chemscore.Metal>
0.0000

> <Gold.Chemscore.Hbonds>
donor molecule, donor type, donor heavy atom, donor atom, acceptor molecule, acceptor atom, score
      P1  H  7997  8009       L1    10  1.00

> <Gold.PLP.Chemscore.Internal.Correction>
0.2276

> <Gold.Rescore>
     Score         DG    S(hbond)    S(metal)    S(lipo)     H(rot)  DE(clash)    DE(int)     intcor
      9.05     -12.26       0.88        0.00      72.76       1.82       0.10       3.11       ----

> <Gold.Chemscore.Fitness>
9.0455

> <Gold.Chemscore.DG>
-12.2593

> <Gold.Chemscore.ZeroCoef>
-5.4800

> <Gold.Chemscore.Hbond>
0.8785

> <Gold.Chemscore.Metal>
0.0000

> <Gold.Chemscore.Lipo>
72.7626

> <Gold.Chemscore.Internal_Hbond>
0.0000

> <Gold.Chemscore.DEClash>
0.1023

> <Gold.Chemscore.DEInternal>
3.1115

> <Gold.Chemscore.Rot>
1.8234

> <Gold.Chemscore.Internal.Correction>
   9.000000E+99

> <Gold.Chemscore.Hbonds>
donor molecule, donor type, donor heavy atom, donor atom, acceptor molecule, acceptor atom, score
      P1  H  7997  8009       L1    10  0.25

> <Gold.Chemscore.Hbond.Weighted>
-2.9340

> <Gold.Chemscore.Metal.Weighted>
-0.0000

> <Gold.Chemscore.Lipo.Weighted>
-8.5132

> <Gold.Chemscore.Internal_Hbond.Weighted>
0.0000

> <Gold.Chemscore.DEClash.Weighted>
0.1023

> <Gold.Chemscore.DEInternal.Weighted>
3.1115

> <Gold.Chemscore.Rot.Weighted>
4.6680

> <Gold.Chemscore.Internal.Correction.Weighted>
   9.000000E+99

> <Gold.Protein.RotatedTorsions>
[ 6907 6896 6895 6894 ] final  120.81 input  -60.11 | X-H torsion
[ 7974 7965 7964 7962 ] final   -3.66 input  175.53 | X-H torsion
[ 8008 7997 7996 7995 ] final  127.98 input   59.86 | X-H torsion
[ 10167 10162 10161 10158 ] final    3.32 input  -65.29 | X-H torsion
[ 10718 10713 10712 10709 ] final   10.70 input   66.30 | X-H torsion
[ 10763 10752 10751 10750 ] final  143.25 input  -60.55 | X-H torsion
[ 11005 11000 10999 10996 ] final    5.34 input  -57.11 | X-H torsion

> <Gold.Protein.ActiveResidues>
 VAL166  LYS551  ARG553  GLY616  TRP617  ASP618  TYR619  PRO620  LYS621  CYS622 
 ASP623  PHE694  ASN695  SER759  ASP760  ASP761  ALA762  ILE779  LEU786  VAL792 
 PHE793  MET794  SER795  GLU796  ALA797  LYS798  CYS799  TRP800  GLU811  SER814 

> <Gold.Protein.RotatedAtoms>
  152.4370  133.7378  159.6623 H   0  0  0  0  0  0  0  0  0  0  0  0  # atno 6907 bound_to 6896
  150.8255  133.8169  159.3126 H   0  0  0  0  0  0  0  0  0  0  0  0  # atno 6908 bound_to 6896
  151.5838  135.1059  160.0075 H   0  0  0  0  0  0  0  0  0  0  0  0  # atno 6909 bound_to 6896
  146.2386  140.1754  142.8332 H   0  0  0  0  0  0  0  0  0  0  0  0  # atno 7974 bound_to 7965
  156.2904  140.2656  156.2361 H   0  0  0  0  0  0  0  0  0  0  0  0  # atno 8008 bound_to 7997
  155.0024  140.0387  157.2384 H   0  0  0  0  0  0  0  0  0  0  0  0  # atno 8009 bound_to 7997
  154.7590  140.2757  155.6235 H   0  0  0  0  0  0  0  0  0  0  0  0  # atno 8010 bound_to 7997
  140.6592  143.7349  150.7707 H   0  0  0  0  0  0  0  0  0  0  0  0  # atno 10167 bound_to 10162
  156.9849  130.6020  149.5680 H   0  0  0  0  0  0  0  0  0  0  0  0  # atno 10718 bound_to 10713
  153.9693  135.2952  155.3428 H   0  0  0  0  0  0  0  0  0  0  0  0  # atno 10763 bound_to 10752
  154.7331  135.5059  153.9000 H   0  0  0  0  0  0  0  0  0  0  0  0  # atno 10764 bound_to 10752
  153.0908  135.6707  153.9970 H   0  0  0  0  0  0  0  0  0  0  0  0  # atno 10765 bound_to 10752
  140.5718  134.0095  155.8012 H   0  0  0  0  0  0  0  0  0  0  0  0  # atno 11005 bound_to 11000
  144.9977  140.8604  143.5300 LP  0  0  0  0  0  0  0  0  0  0  0  0  # atno 17320 bound_to 7965
  145.1769  139.2373  143.5313 LP  0  0  0  0  0  0  0  0  0  0  0  0  # atno 17321 bound_to 7965
  140.1014  143.4784  152.2423 LP  0  0  0  0  0  0  0  0  0  0  0  0  # atno 17342 bound_to 10162
  139.5821  144.7515  151.3613 LP  0  0  0  0  0  0  0  0  0  0  0  0  # atno 17343 bound_to 10162
  156.0230  130.5324  150.8328 LP  0  0  0  0  0  0  0  0  0  0  0  0  # atno 17370 bound_to 10713
  157.5500  131.0943  150.9708 LP  0  0  0  0  0  0  0  0  0  0  0  0  # atno 17371 bound_to 10713
  141.1051  133.9706  157.3011 LP  0  0  0  0  0  0  0  0  0  0  0  0  # atno 17394 bound_to 11000
  139.9358  135.0196  156.8550 LP  0  0  0  0  0  0  0  0  0  0  0  0  # atno 17395 bound_to 11000

$$$$
