AV-unprocessed.smi:1796|AV-procd|sdf|7253|dock1
  -GOLD-   22720 8503D 1   1.00000     0.00000
 Structure written by MMmdl.
 42 43  0  0  0  0  0  0  0  0  1 V2000
  146.3324  141.1650  154.9874 C   0  0  0  0  0  0  0  0  0  0  0  0
  147.4379  141.4302  156.0119 C   0  0  0  0  0  0  0  0  0  0  0  0
  147.1040  141.7119  157.1628 O   0  0  0  0  0  0  0  0  0  0  0  0
  148.7335  141.3541  155.6230 N   0  0  0  0  0  0  0  0  0  0  0  0
  149.1339  140.9341  154.2747 C   0  0  0  0  0  0  0  0  0  0  0  0
  149.7706  139.5353  154.3623 C   0  0  0  0  0  0  0  0  0  0  0  0
  150.9491  139.5243  155.3547 C   0  0  0  0  0  0  0  0  0  0  0  0
  150.5570  140.1393  156.7192 C   0  0  1  0  0  0  0  0  0  0  0  0
  151.7780  140.2490  157.6401 C   0  0  0  0  0  0  0  0  0  0  0  0
  152.8709  139.8172  157.2724 O   0  0  0  0  0  0  0  0  0  0  0  0
  151.5724  140.8157  158.8401 N   0  0  0  0  0  0  0  0  0  0  0  0
  152.5755  140.9732  159.8927 C   0  0  1  0  0  0  0  0  0  0  0  0
  153.3356  139.6505  160.0590 C   0  0  0  0  0  0  0  0  0  0  0  0
  153.5364  142.1363  159.5641 C   0  0  0  0  0  0  0  0  0  0  0  0
  152.8538  143.4126  159.4432 N   0  0  0  0  0  0  0  0  0  0  0  0
  152.7447  144.2239  158.3331 C   0  0  0  0  0  0  0  0  0  0  0  0
  151.9939  145.3057  158.6931 C   0  0  0  0  0  0  0  0  0  0  0  0
  151.6906  145.0655  160.0626 C   0  0  0  0  0  0  0  0  0  0  0  0
  152.2100  143.9334  160.5098 N   0  0  0  0  0  0  0  0  0  0  0  0
  149.8956  141.5195  156.5056 C   0  0  0  0  0  0  0  0  0  0  0  0
  146.4149  141.8494  154.1425 H   0  0  0  0  0  0  0  0  0  0  0  0
  145.3493  141.3092  155.4367 H   0  0  0  0  0  0  0  0  0  0  0  0
  146.3837  140.1394  154.6208 H   0  0  0  0  0  0  0  0  0  0  0  0
  148.3010  140.9203  153.5705 H   0  0  0  0  0  0  0  0  0  0  0  0
  149.8523  141.6489  153.8707 H   0  0  0  0  0  0  0  0  0  0  0  0
  149.0178  138.8131  154.6816 H   0  0  0  0  0  0  0  0  0  0  0  0
  150.1090  139.2144  153.3768 H   0  0  0  0  0  0  0  0  0  0  0  0
  151.3088  138.5034  155.4887 H   0  0  0  0  0  0  0  0  0  0  0  0
  151.7774  140.0855  154.9187 H   0  0  0  0  0  0  0  0  0  0  0  0
  149.8248  139.4820  157.1924 H   0  0  0  0  0  0  0  0  0  0  0  0
  150.6411  141.1441  159.0509 H   0  0  0  0  0  0  0  0  0  0  0  0
  152.0846  141.1823  160.8450 H   0  0  0  0  0  0  0  0  0  0  0  0
  154.0689  139.7189  160.8631 H   0  0  0  0  0  0  0  0  0  0  0  0
  153.8674  139.3792  159.1464 H   0  0  0  0  0  0  0  0  0  0  0  0
  152.6551  138.8344  160.3044 H   0  0  0  0  0  0  0  0  0  0  0  0
  154.2926  142.2310  160.3448 H   0  0  0  0  0  0  0  0  0  0  0  0
  154.0733  141.9385  158.6354 H   0  0  0  0  0  0  0  0  0  0  0  0
  153.1972  143.9614  157.3883 H   0  0  0  0  0  0  0  0  0  0  0  0
  151.7037  146.1405  158.0726 H   0  0  0  0  0  0  0  0  0  0  0  0
  151.1125  145.6757  160.7407 H   0  0  0  0  0  0  0  0  0  0  0  0
  150.5974  142.2097  156.0338 H   0  0  0  0  0  0  0  0  0  0  0  0
  149.6486  141.9745  157.4643 H   0  0  0  0  0  0  0  0  0  0  0  0
  1  2  1  0  0  0  0
  1 21  1  0  0  0  0
  1 22  1  0  0  0  0
  1 23  1  0  0  0  0
  2  3  2  0  0  0  0
  2  4  1  0  0  0  0
  4 20  1  0  0  0  0
  4  5  1  0  0  0  0
  5  6  1  0  0  0  0
  5 24  1  0  0  0  0
  5 25  1  0  0  0  0
  6  7  1  0  0  0  0
  6 26  1  0  0  0  0
  6 27  1  0  0  0  0
  7  8  1  0  0  0  0
  7 28  1  0  0  0  0
  7 29  1  0  0  0  0
  8  9  1  0  0  0  0
  8 20  1  0  0  0  0
  8 30  1  0  0  0  0
  9 10  2  0  0  0  0
  9 11  1  0  0  0  0
 11 12  1  0  0  0  0
 11 31  1  0  0  0  0
 12 13  1  0  0  0  0
 12 14  1  0  0  0  0
 12 32  1  0  0  0  0
 13 33  1  0  0  0  0
 13 34  1  0  0  0  0
 13 35  1  0  0  0  0
 14 15  1  0  0  0  0
 14 36  1  0  0  0  0
 14 37  1  0  0  0  0
 15 19  1  0  0  0  0
 15 16  1  0  0  0  0
 16 17  2  0  0  0  0
 16 38  1  0  0  0  0
 17 18  1  0  0  0  0
 17 39  1  0  0  0  0
 18 19  2  0  0  0  0
 18 40  1  0  0  0  0
 20 41  1  0  0  0  0
 20 42  1  0  0  0  0
M  END
> <s_m_source_file>
AV-unprocessed.smi

> <i_m_source_file_index>
1796

> <i_lp_mmshare_version>
43012

> <i_f3d_flags>
0

> <s_epik_input>
W0NIM11DKD1PKU4xW0NIMl1bQ0gyXVtDSDJdW0NASF0oW0NIMl0xKUMoPU8pW05IXVtDQEhdKFtDSDNdKVtDSDJdbjJbY0hdW2NIXVtjSF1uMg==

> <s_epik_cmdline>
J2VwaWtfcHl0aG9uJywgJy1waCcsICc3LjAnLCAnLXRuJywgJzgnLCAnLW1hJywgJzIwMCcsICctbWV0YWxfYmluZGluZycsICctaW1hZScsICc8aW5maWxlLm1hZT4nLCAnLW9tYWUnLCAnPG91dGZpbGUubWFlPic=

> <r_lp_tautomer_probability>
1

> <r_epik_Ionization_Penalty>
0.000315051

> <r_epik_Ionization_Penalty_Charging>
0

> <r_epik_Ionization_Penalty_Neutral>
0.000315051

> <r_epik_State_Penalty>
-0

> <r_epik_Charging_Adjusted_Penalty>
0

> <i_epik_Tot_Q>
0

> <i_epik_Tot_abs_Q>
0

> <r_epik_Metal_State_Penalty>
-0

> <b_epik_Metal_Only>
0

> <s_lp_Force_Field>
OPLS_2005

> <r_lp_Energy>
22.8088

> <b_lp_Chiralities_Consistent>
1

> <s_lp_Variant>
AV-unprocessed.smi:1796-3

> <Gold.Version>
5.8.1

> <Gold.Id.Protein>
6NUR|6NUR_protein|mol2

> <Gold.PLP.Fitness>
46.2001

> <Gold.PLP.PLP>
-43.6492

> <Gold.PLP.part.hbond>
-1.0000

> <Gold.PLP.part.metal>
0.0000

> <Gold.PLP.part.buried>
-4.2922

> <Gold.PLP.part.nonpolar>
-39.3656

> <Gold.PLP.part.repulsive>
0.3361

> <Gold.PLP.ligand.clash>
0.0000

> <Gold.PLP.ligand.torsion>
0.2444

> <Gold.PLP.Chemscore.Hbond>
1.0000

> <Gold.PLP.Chemscore.CHOScore>
0.0000

> <Gold.PLP.Chemscore.Metal>
0.0000

> <Gold.Chemscore.Hbonds>
donor molecule, donor type, donor heavy atom, donor atom, acceptor molecule, acceptor atom, score
      P1  H  7997  8009       L1    10  1.00

> <Gold.PLP.Chemscore.Internal.Correction>
0.0397

> <Gold.Rescore>
     Score         DG    S(hbond)    S(metal)    S(lipo)     H(rot)  DE(clash)    DE(int)     intcor
     15.69     -16.58       0.98        0.00     102.61       1.63       0.04       0.85       ----

> <Gold.Chemscore.Fitness>
15.6890

> <Gold.Chemscore.DG>
-16.5788

> <Gold.Chemscore.ZeroCoef>
-5.4800

> <Gold.Chemscore.Hbond>
0.9807

> <Gold.Chemscore.Metal>
0.0000

> <Gold.Chemscore.Lipo>
102.6108

> <Gold.Chemscore.Internal_Hbond>
0.0000

> <Gold.Chemscore.DEClash>
0.0435

> <Gold.Chemscore.DEInternal>
0.8463

> <Gold.Chemscore.Rot>
1.6336

> <Gold.Chemscore.Internal.Correction>
   9.000000E+99

> <Gold.Chemscore.Hbonds>
donor molecule, donor type, donor heavy atom, donor atom, acceptor molecule, acceptor atom, score
      P1  H  7997  8009       L1    10  1.00

> <Gold.Chemscore.Hbond.Weighted>
-3.2755

> <Gold.Chemscore.Metal.Weighted>
-0.0000

> <Gold.Chemscore.Lipo.Weighted>
-12.0055

> <Gold.Chemscore.Internal_Hbond.Weighted>
0.0000

> <Gold.Chemscore.DEClash.Weighted>
0.0435

> <Gold.Chemscore.DEInternal.Weighted>
0.8463

> <Gold.Chemscore.Rot.Weighted>
4.1821

> <Gold.Chemscore.Internal.Correction.Weighted>
   9.000000E+99

> <Gold.Protein.RotatedTorsions>
[ 6907 6896 6895 6894 ] final   -2.82 input  -60.11 | X-H torsion
[ 7974 7965 7964 7962 ] final  -31.70 input  175.53 | X-H torsion
[ 8008 7997 7996 7995 ] final -179.26 input   59.86 | X-H torsion
[ 10167 10162 10161 10158 ] final  101.51 input  -65.29 | X-H torsion
[ 10718 10713 10712 10709 ] final  144.46 input   66.30 | X-H torsion
[ 10763 10752 10751 10750 ] final -176.49 input  -60.55 | X-H torsion
[ 11005 11000 10999 10996 ] final   96.82 input  -57.11 | X-H torsion

> <Gold.Protein.ActiveResidues>
 VAL166  LYS551  ARG553  GLY616  TRP617  ASP618  TYR619  PRO620  LYS621  CYS622 
 ASP623  PHE694  ASN695  SER759  ASP760  ASP761  ALA762  ILE779  LEU786  VAL792 
 PHE793  MET794  SER795  GLU796  ALA797  LYS798  CYS799  TRP800  GLU811  SER814 

> <Gold.Protein.RotatedAtoms>
  151.5237  135.1067  159.9884 H   0  0  0  0  0  0  0  0  0  0  0  0  # atno 6907 bound_to 6896
  152.4609  133.7816  159.6864 H   0  0  0  0  0  0  0  0  0  0  0  0  # atno 6908 bound_to 6896
  150.8571  133.7635  159.3030 H   0  0  0  0  0  0  0  0  0  0  0  0  # atno 6909 bound_to 6896
  146.1047  140.5700  142.8805 H   0  0  0  0  0  0  0  0  0  0  0  0  # atno 7974 bound_to 7965
  156.0285  140.1276  157.0283 H   0  0  0  0  0  0  0  0  0  0  0  0  # atno 8008 bound_to 7997
  154.4340  140.1054  156.6135 H   0  0  0  0  0  0  0  0  0  0  0  0  # atno 8009 bound_to 7997
  155.5842  140.3468  155.4551 H   0  0  0  0  0  0  0  0  0  0  0  0  # atno 8010 bound_to 7997
  139.7431  144.7005  151.0545 H   0  0  0  0  0  0  0  0  0  0  0  0  # atno 10167 bound_to 10162
  157.3569  131.0959  151.0950 H   0  0  0  0  0  0  0  0  0  0  0  0  # atno 10718 bound_to 10713
  154.5717  135.2828  155.0820 H   0  0  0  0  0  0  0  0  0  0  0  0  # atno 10763 bound_to 10752
  154.2190  135.6394  153.5142 H   0  0  0  0  0  0  0  0  0  0  0  0  # atno 10764 bound_to 10752
  153.0059  135.5510  154.6343 H   0  0  0  0  0  0  0  0  0  0  0  0  # atno 10765 bound_to 10752
  139.8779  134.8970  156.4216 H   0  0  0  0  0  0  0  0  0  0  0  0  # atno 11005 bound_to 11000
  144.7461  140.5072  143.6834 LP  0  0  0  0  0  0  0  0  0  0  0  0  # atno 17320 bound_to 7965
  145.5784  139.1487  143.3249 LP  0  0  0  0  0  0  0  0  0  0  0  0  # atno 17321 bound_to 7965
  140.7788  143.4899  150.9906 LP  0  0  0  0  0  0  0  0  0  0  0  0  # atno 17342 bound_to 10162
  139.8588  143.7342  152.3174 LP  0  0  0  0  0  0  0  0  0  0  0  0  # atno 17343 bound_to 10162
  157.2104  130.6435  149.5772 LP  0  0  0  0  0  0  0  0  0  0  0  0  # atno 17370 bound_to 10713
  155.9731  130.4662  150.6279 LP  0  0  0  0  0  0  0  0  0  0  0  0  # atno 17371 bound_to 10713
  140.9130  133.7698  155.9814 LP  0  0  0  0  0  0  0  0  0  0  0  0  # atno 17394 bound_to 11000
  140.8525  134.2937  157.5269 LP  0  0  0  0  0  0  0  0  0  0  0  0  # atno 17395 bound_to 11000

$$$$
