AV-unprocessed.smi:99|AV-procd|sdf|873|dock9
  -GOLD-   2262017333D 1   1.00000     0.00000
 Structure written by MMmdl.
 53 56  0  0  0  0  0  0  0  0  1 V2000
  143.7368  137.2448  152.7633 O   0  0  0  0  0  0  0  0  0  0  0  0
  144.8222  136.6608  152.7472 C   0  0  0  0  0  0  0  0  0  0  0  0
  145.9438  137.1552  153.3034 O   0  0  0  0  0  0  0  0  0  0  0  0
  145.8977  138.3544  154.0594 C   0  0  0  0  0  0  0  0  0  0  0  0
  147.2780  139.0253  154.0210 C   0  0  2  0  0  0  0  0  0  0  0  0
  147.8983  138.9801  155.2997 O   0  0  0  0  0  0  0  0  0  0  0  0
  148.8620  139.9879  155.3973 C   0  0  1  0  0  0  0  0  0  0  0  0
  150.2533  139.3856  155.3120 N   0  0  0  0  0  0  0  0  0  0  0  0
  150.6109  138.4552  154.3433 C   0  0  0  0  0  0  0  0  0  0  0  0
  151.8516  137.9198  154.2556 C   0  0  0  0  0  0  0  0  0  0  0  0
  152.8944  138.3047  155.2008 C   0  0  0  0  0  0  0  0  0  0  0  0
  154.0463  137.8759  155.1990 O   0  0  0  0  0  0  0  0  0  0  0  0
  152.4914  139.2373  156.1602 N   0  0  0  0  0  0  0  0  0  0  0  0
  151.2167  139.7961  156.2604 C   0  0  0  0  0  0  0  0  0  0  0  0
  150.9707  140.6166  157.1438 O   0  0  0  0  0  0  0  0  0  0  0  0
  148.5725  141.0216  154.2791 C   0  0  1  0  0  0  0  0  0  0  0  0
  149.5633  141.1067  153.2700 O   0  0  0  0  0  0  0  0  0  0  0  0
  147.2740  140.5139  153.6664 C   0  0  2  0  0  0  0  0  0  0  0  0
  146.1510  141.1642  154.2520 O   0  0  0  0  0  0  0  0  0  0  0  0
  146.0580  142.5101  154.2651 C   0  0  0  0  0  0  0  0  0  0  0  0
  146.9355  143.2605  153.8341 O   0  0  0  0  0  0  0  0  0  0  0  0
  144.7791  142.9931  154.8591 C   0  0  0  0  0  0  0  0  0  0  0  0
  144.4037  144.3461  154.6901 C   0  0  0  0  0  0  0  0  0  0  0  0
  143.2007  144.8304  155.2395 C   0  0  0  0  0  0  0  0  0  0  0  0
  142.3577  143.9669  155.9629 C   0  0  0  0  0  0  0  0  0  0  0  0
  142.7186  142.6179  156.1356 C   0  0  0  0  0  0  0  0  0  0  0  0
  143.9218  142.1319  155.5878 C   0  0  0  0  0  0  0  0  0  0  0  0
  145.0325  135.3289  152.1113 C   0  0  0  0  0  0  0  0  0  0  0  0
  143.9681  134.7218  151.4049 C   0  0  0  0  0  0  0  0  0  0  0  0
  144.1386  133.4651  150.7923 C   0  0  0  0  0  0  0  0  0  0  0  0
  145.3766  132.8016  150.8761 C   0  0  0  0  0  0  0  0  0  0  0  0
  146.4442  133.3963  151.5734 C   0  0  0  0  0  0  0  0  0  0  0  0
  146.2752  134.6522  152.1885 C   0  0  0  0  0  0  0  0  0  0  0  0
  153.1809  139.5335  156.8355 H   0  0  0  0  0  0  0  0  0  0  0  0
  145.1443  139.0293  153.6500 H   0  0  0  0  0  0  0  0  0  0  0  0
  145.6108  138.1319  155.0877 H   0  0  0  0  0  0  0  0  0  0  0  0
  147.9130  138.5034  153.3045 H   0  0  0  0  0  0  0  0  0  0  0  0
  148.7853  140.4089  156.4016 H   0  0  0  0  0  0  0  0  0  0  0  0
  149.8867  138.1228  153.6166 H   0  0  0  0  0  0  0  0  0  0  0  0
  152.0743  137.2001  153.4811 H   0  0  0  0  0  0  0  0  0  0  0  0
  148.4562  142.0108  154.7234 H   0  0  0  0  0  0  0  0  0  0  0  0
  149.4296  140.3992  152.6578 H   0  0  0  0  0  0  0  0  0  0  0  0
  147.2527  140.6363  152.5821 H   0  0  0  0  0  0  0  0  0  0  0  0
  145.0348  145.0279  154.1383 H   0  0  0  0  0  0  0  0  0  0  0  0
  142.9252  145.8663  155.1057 H   0  0  0  0  0  0  0  0  0  0  0  0
  141.4353  144.3387  156.3841 H   0  0  0  0  0  0  0  0  0  0  0  0
  142.0719  141.9536  156.6893 H   0  0  0  0  0  0  0  0  0  0  0  0
  144.1673  141.0904  155.7375 H   0  0  0  0  0  0  0  0  0  0  0  0
  143.0083  135.2121  151.3274 H   0  0  0  0  0  0  0  0  0  0  0  0
  143.3179  133.0104  150.2570 H   0  0  0  0  0  0  0  0  0  0  0  0
  145.5072  131.8385  150.4049 H   0  0  0  0  0  0  0  0  0  0  0  0
  147.3957  132.8892  151.6360 H   0  0  0  0  0  0  0  0  0  0  0  0
  147.1161  135.0825  152.7127 H   0  0  0  0  0  0  0  0  0  0  0  0
  1  2  2  0  0  0  0
  2  3  1  0  0  0  0
  2 28  1  0  0  0  0
  3  4  1  0  0  0  0
  4  5  1  0  0  0  0
  4 35  1  0  0  0  0
  4 36  1  0  0  0  0
  5 18  1  0  0  0  0
  5  6  1  0  0  0  0
  5 37  1  0  0  0  0
  6  7  1  0  0  0  0
  7  8  1  0  0  0  0
  7 16  1  0  0  0  0
  7 38  1  0  0  0  0
  8 14  1  0  0  0  0
  8  9  1  0  0  0  0
  9 10  2  0  0  0  0
  9 39  1  0  0  0  0
 10 11  1  0  0  0  0
 10 40  1  0  0  0  0
 11 12  2  0  0  0  0
 11 13  1  0  0  0  0
 13 34  1  0  0  0  0
 13 14  1  0  0  0  0
 14 15  2  0  0  0  0
 16 17  1  0  0  0  0
 16 18  1  0  0  0  0
 16 41  1  0  0  0  0
 17 42  1  0  0  0  0
 18 19  1  0  0  0  0
 18 43  1  0  0  0  0
 19 20  1  0  0  0  0
 20 21  2  0  0  0  0
 20 22  1  0  0  0  0
 22 27  1  0  0  0  0
 22 23  2  0  0  0  0
 23 24  1  0  0  0  0
 23 44  1  0  0  0  0
 24 25  2  0  0  0  0
 24 45  1  0  0  0  0
 25 26  1  0  0  0  0
 25 46  1  0  0  0  0
 26 27  2  0  0  0  0
 26 47  1  0  0  0  0
 27 48  1  0  0  0  0
 28 33  1  0  0  0  0
 28 29  2  0  0  0  0
 29 30  1  0  0  0  0
 29 49  1  0  0  0  0
 30 31  2  0  0  0  0
 30 50  1  0  0  0  0
 31 32  1  0  0  0  0
 31 51  1  0  0  0  0
 32 33  2  0  0  0  0
 32 52  1  0  0  0  0
 33 53  1  0  0  0  0
M  END
> <s_m_source_file>
AV-unprocessed.smi

> <i_m_source_file_index>
99

> <i_lp_mmshare_version>
43012

> <i_f3d_flags>
0

> <s_epik_input>
W2NIXTFbY0hdW2NIXVtjSF1bY0hdYzFDKD1PKU9bQ0gyXVtDQEBIXTJPW0NAQEhdKG4zW2NIXVtjSF1jKD1PKVtuSF1jMz1PKVtDQEBIXShbT0hdKVtDQEhdMk9DKD1PKWM0W2NIXVtjSF1bY0hdW2NIXVtjSF00

> <s_epik_cmdline>
J2VwaWtfcHl0aG9uJywgJy1waCcsICc3LjAnLCAnLXRuJywgJzgnLCAnLW1hJywgJzIwMCcsICctbWV0YWxfYmluZGluZycsICctaW1hZScsICc8aW5maWxlLm1hZT4nLCAnLW9tYWUnLCAnPG91dGZpbGUubWFlPic=

> <r_lp_tautomer_probability>
1

> <r_epik_Ionization_Penalty>
0.00454555

> <r_epik_Ionization_Penalty_Charging>
0.0045191

> <r_epik_Ionization_Penalty_Neutral>
2.64449e-05

> <r_epik_State_Penalty>
-0

> <r_epik_Charging_Adjusted_Penalty>
0.0045191

> <i_epik_Tot_Q>
0

> <i_epik_Tot_abs_Q>
0

> <r_epik_Metal_State_Penalty>
1.27877

> <b_epik_Metal_Only>
0

> <s_epik_Chemistry_Notes>
This compound has an ester and may undergo hydrolysis at high or low pH. This compound contains an acetal/aminal-like group ( X-CH(R)-Y where X, Y are N, S, or O) that may be acid/base labile, releasing an aldehyde.

> <s_lp_Force_Field>
OPLS_2005

> <r_lp_Energy>
38.1357

> <b_lp_Chiralities_Consistent>
1

> <s_lp_Variant>
AV-unprocessed.smi:99-9

> <Gold.Version>
5.8.1

> <Gold.Id.Protein>
6NUR|6NUR_protein|mol2

> <Gold.PLP.Fitness>
53.0779

> <Gold.PLP.PLP>
-47.3741

> <Gold.PLP.part.hbond>
-4.8804

> <Gold.PLP.part.metal>
0.0000

> <Gold.PLP.part.buried>
-7.7389

> <Gold.PLP.part.nonpolar>
-37.8676

> <Gold.PLP.part.repulsive>
2.5509

> <Gold.PLP.ligand.clash>
0.0000

> <Gold.PLP.ligand.torsion>
1.3217

> <Gold.PLP.Chemscore.Hbond>
1.9585

> <Gold.PLP.Chemscore.CHOScore>
0.6550

> <Gold.PLP.Chemscore.Metal>
0.0000

> <Gold.Chemscore.Hbonds>
donor molecule, donor type, donor heavy atom, donor atom, acceptor molecule, acceptor atom, score
      L1  H    17    42       P1  7957  0.82
      P1  H  7989  7998       L1    17  0.10
      P1  H  8011  8017       L1    17  1.00
      P1  H  8022  8030       L1    21  0.19
      L1  C     9    39       P1  7948  0.56

> <Gold.PLP.Chemscore.Internal.Correction>
0.5068

> <Gold.Rescore>
     Score         DG    S(hbond)    S(metal)    S(lipo)     H(rot)  DE(clash)    DE(int)     intcor
      8.44     -13.73       1.68        0.00      92.43       3.19       1.60       3.69       ----

> <Gold.Chemscore.Fitness>
8.4408

> <Gold.Chemscore.DG>
-13.7267

> <Gold.Chemscore.ZeroCoef>
-5.4800

> <Gold.Chemscore.Hbond>
1.6765

> <Gold.Chemscore.Metal>
0.0000

> <Gold.Chemscore.Lipo>
92.4280

> <Gold.Chemscore.Internal_Hbond>
0.0000

> <Gold.Chemscore.DEClash>
1.5979

> <Gold.Chemscore.DEInternal>
3.6880

> <Gold.Chemscore.Rot>
3.1903

> <Gold.Chemscore.Internal.Correction>
   9.000000E+99

> <Gold.Chemscore.Hbonds>
donor molecule, donor type, donor heavy atom, donor atom, acceptor molecule, acceptor atom, score
      L1  H    17    42       P1  7957  0.78
      P1  H  7989  7998       L1    17  0.02
      P1  H  8011  8017       L1    17  0.44
      P1  H  8022  8030       L1    21  0.19

> <Gold.Chemscore.Hbond.Weighted>
-5.5997

> <Gold.Chemscore.Metal.Weighted>
-0.0000

> <Gold.Chemscore.Lipo.Weighted>
-10.8141

> <Gold.Chemscore.Internal_Hbond.Weighted>
0.0000

> <Gold.Chemscore.DEClash.Weighted>
1.5979

> <Gold.Chemscore.DEInternal.Weighted>
3.6880

> <Gold.Chemscore.Rot.Weighted>
8.1671

> <Gold.Chemscore.Internal.Correction.Weighted>
   9.000000E+99

> <Gold.Protein.RotatedTorsions>
[ 6907 6896 6895 6894 ] final  156.30 input  -60.11 | X-H torsion
[ 7974 7965 7964 7962 ] final  162.83 input  175.53 | X-H torsion
[ 8008 7997 7996 7995 ] final  177.98 input   59.86 | X-H torsion
[ 10167 10162 10161 10158 ] final   77.16 input  -65.29 | X-H torsion
[ 10718 10713 10712 10709 ] final   18.97 input   66.30 | X-H torsion
[ 10763 10752 10751 10750 ] final -116.45 input  -60.55 | X-H torsion
[ 11005 11000 10999 10996 ] final  -82.10 input  -57.11 | X-H torsion

> <Gold.Protein.ActiveResidues>
 VAL166  LYS551  ARG553  GLY616  TRP617  ASP618  TYR619  PRO620  LYS621  CYS622 
 ASP623  PHE694  ASN695  SER759  ASP760  ASP761  ALA762  ILE779  LEU786  VAL792 
 PHE793  MET794  SER795  GLU796  ALA797  LYS798  CYS799  TRP800  GLU811  SER814 

> <Gold.Protein.RotatedAtoms>
  152.0317  133.3940  159.4299 H   0  0  0  0  0  0  0  0  0  0  0  0  # atno 6907 bound_to 6896
  150.6882  134.3513  159.4919 H   0  0  0  0  0  0  0  0  0  0  0  0  # atno 6908 bound_to 6896
  152.1300  134.9141  160.0610 H   0  0  0  0  0  0  0  0  0  0  0  0  # atno 6909 bound_to 6896
  144.7618  139.8095  143.6330 H   0  0  0  0  0  0  0  0  0  0  0  0  # atno 7974 bound_to 7965
  156.0597  140.1345  156.9955 H   0  0  0  0  0  0  0  0  0  0  0  0  # atno 8008 bound_to 7997
  154.4476  140.0994  156.6570 H   0  0  0  0  0  0  0  0  0  0  0  0  # atno 8009 bound_to 7997
  155.5396  140.3460  155.4446 H   0  0  0  0  0  0  0  0  0  0  0  0  # atno 8010 bound_to 7997
  139.9845  144.5802  150.7871 H   0  0  0  0  0  0  0  0  0  0  0  0  # atno 10167 bound_to 10162
  157.1039  130.6480  149.5879 H   0  0  0  0  0  0  0  0  0  0  0  0  # atno 10718 bound_to 10713
  154.8520  135.4345  154.1823 H   0  0  0  0  0  0  0  0  0  0  0  0  # atno 10763 bound_to 10752
  153.2911  135.6961  153.7298 H   0  0  0  0  0  0  0  0  0  0  0  0  # atno 10764 bound_to 10752
  153.6465  135.3459  155.3062 H   0  0  0  0  0  0  0  0  0  0  0  0  # atno 10765 bound_to 10752
  141.1664  133.7228  156.8522 H   0  0  0  0  0  0  0  0  0  0  0  0  # atno 11005 bound_to 11000
  146.1688  139.4831  142.9941 LP  0  0  0  0  0  0  0  0  0  0  0  0  # atno 17320 bound_to 7965
  145.6595  141.0244  143.1716 LP  0  0  0  0  0  0  0  0  0  0  0  0  # atno 17321 bound_to 7965
  140.7477  143.2910  151.3330 LP  0  0  0  0  0  0  0  0  0  0  0  0  # atno 17342 bound_to 10162
  139.6385  144.0584  152.2535 LP  0  0  0  0  0  0  0  0  0  0  0  0  # atno 17343 bound_to 10162
  155.9867  130.4902  150.7090 LP  0  0  0  0  0  0  0  0  0  0  0  0  # atno 17370 bound_to 10713
  157.4617  131.0884  151.0738 LP  0  0  0  0  0  0  0  0  0  0  0  0  # atno 17371 bound_to 10713
  140.1908  134.8967  157.3058 LP  0  0  0  0  0  0  0  0  0  0  0  0  # atno 17394 bound_to 11000
  140.2292  134.3929  155.7529 LP  0  0  0  0  0  0  0  0  0  0  0  0  # atno 17395 bound_to 11000

$$$$
