AV-unprocessed.smi:2481|AV-procd|sdf|9773|dock7
  -GOLD-   2272013413D 1   1.00000     0.00000
 Structure written by MMmdl.
 37 38  0  0  0  0  0  0  0  0  1 V2000
  152.2435  137.5532  159.2226 C   0  0  0  0  0  0  0  0  0  0  0  0
  151.1667  137.6036  158.2525 N   0  0  0  0  0  0  0  0  0  0  0  0
  150.7100  136.4754  157.6598 N   0  0  0  0  0  0  0  0  0  0  0  0
  149.7506  136.9340  156.8559 C   0  0  0  0  0  0  0  0  0  0  0  0
  149.5453  138.2842  156.8778 N   0  0  0  0  0  0  0  0  0  0  0  0
  150.4654  138.6341  157.7712 C   0  0  0  0  0  0  0  0  0  0  0  0
  150.7358  139.9538  158.2223 N   0  0  0  0  0  0  0  0  0  0  0  0
  151.9335  140.5465  158.3635 C   0  0  0  0  0  0  0  0  0  0  0  0
  153.0200  140.0175  158.1278 O   0  0  0  0  0  0  0  0  0  0  0  0
  151.8005  141.8056  158.8040 N   0  0  0  0  0  0  0  0  0  0  0  0
  152.8996  142.7361  159.0666 C   0  0  2  0  0  0  0  0  0  0  0  0
  153.4544  142.5392  160.4942 C   0  0  0  0  0  0  0  0  0  0  0  0
  152.4580  142.9993  161.5715 C   0  0  0  0  0  0  0  0  0  0  0  0
  152.0256  144.4547  161.3419 C   0  0  0  0  0  0  0  0  0  0  0  0
  151.4598  144.6561  159.9269 C   0  0  0  0  0  0  0  0  0  0  0  0
  152.4596  144.2073  158.8392 C   0  0  2  0  0  0  0  0  0  0  0  0
  151.8967  144.4748  157.4269 C   0  0  0  0  0  0  0  0  0  0  0  0
  150.6298  143.8721  157.2663 O   0  0  0  0  0  0  0  0  0  0  0  0
  151.9531  138.0939  160.1240 H   0  0  0  0  0  0  0  0  0  0  0  0
  153.1366  138.0148  158.8006 H   0  0  0  0  0  0  0  0  0  0  0  0
  152.4705  136.5200  159.4899 H   0  0  0  0  0  0  0  0  0  0  0  0
  149.1758  136.2691  156.2282 H   0  0  0  0  0  0  0  0  0  0  0  0
  149.9263  140.5077  158.4596 H   0  0  0  0  0  0  0  0  0  0  0  0
  150.8680  142.1522  158.9740 H   0  0  0  0  0  0  0  0  0  0  0  0
  153.7057  142.5159  158.3641 H   0  0  0  0  0  0  0  0  0  0  0  0
  153.7255  141.4957  160.6583 H   0  0  0  0  0  0  0  0  0  0  0  0
  154.3788  143.1086  160.5987 H   0  0  0  0  0  0  0  0  0  0  0  0
  151.5815  142.3505  161.5660 H   0  0  0  0  0  0  0  0  0  0  0  0
  152.9083  142.8980  162.5594 H   0  0  0  0  0  0  0  0  0  0  0  0
  151.2803  144.7415  162.0841 H   0  0  0  0  0  0  0  0  0  0  0  0
  152.8798  145.1164  161.4905 H   0  0  0  0  0  0  0  0  0  0  0  0
  150.5252  144.1027  159.8258 H   0  0  0  0  0  0  0  0  0  0  0  0
  151.2075  145.7079  159.7880 H   0  0  0  0  0  0  0  0  0  0  0  0
  153.3479  144.8315  158.9514 H   0  0  0  0  0  0  0  0  0  0  0  0
  151.8182  145.5427  157.2230 H   0  0  0  0  0  0  0  0  0  0  0  0
  152.5634  144.0581  156.6713 H   0  0  0  0  0  0  0  0  0  0  0  0
  150.0341  144.5131  156.9092 H   0  0  0  0  0  0  0  0  0  0  0  0
  1  2  1  0  0  0  0
  1 19  1  0  0  0  0
  1 20  1  0  0  0  0
  1 21  1  0  0  0  0
  2  6  1  0  0  0  0
  2  3  1  0  0  0  0
  3  4  2  0  0  0  0
  4  5  1  0  0  0  0
  4 22  1  0  0  0  0
  5  6  2  0  0  0  0
  6  7  1  0  0  0  0
  7  8  1  0  0  0  0
  7 23  1  0  0  0  0
  8  9  2  0  0  0  0
  8 10  1  0  0  0  0
 10 11  1  0  0  0  0
 10 24  1  0  0  0  0
 11 16  1  0  0  0  0
 11 12  1  0  0  0  0
 11 25  1  0  0  0  0
 12 13  1  0  0  0  0
 12 26  1  0  0  0  0
 12 27  1  0  0  0  0
 13 14  1  0  0  0  0
 13 28  1  0  0  0  0
 13 29  1  0  0  0  0
 14 15  1  0  0  0  0
 14 30  1  0  0  0  0
 14 31  1  0  0  0  0
 15 16  1  0  0  0  0
 15 32  1  0  0  0  0
 15 33  1  0  0  0  0
 16 17  1  0  0  0  0
 16 34  1  0  0  0  0
 17 18  1  0  0  0  0
 17 35  1  0  0  0  0
 17 36  1  0  0  0  0
 18 37  1  0  0  0  0
M  END
> <s_m_source_file>
AV-unprocessed.smi

> <i_m_source_file_index>
2481

> <i_lp_mmshare_version>
43012

> <i_f3d_flags>
0

> <s_epik_input>
W0NIM11uMW5bY0hdbmMxW05IXUMoPU8pW05IXVtDQEBIXTJbQ0gyXVtDSDJdW0NIMl1bQ0gyXVtDQEhdMltDSDJdW09IXQ==

> <s_epik_cmdline>
J2VwaWtfcHl0aG9uJywgJy1waCcsICc3LjAnLCAnLXRuJywgJzgnLCAnLW1hJywgJzIwMCcsICctbWV0YWxfYmluZGluZycsICctaW1hZScsICc8aW5maWxlLm1hZT4nLCAnLW9tYWUnLCAnPG91dGZpbGUubWFlPic=

> <r_lp_tautomer_probability>
1

> <r_epik_Ionization_Penalty>
2.32704e-05

> <r_epik_Ionization_Penalty_Charging>
0

> <r_epik_Ionization_Penalty_Neutral>
2.32704e-05

> <r_epik_State_Penalty>
-0

> <r_epik_Charging_Adjusted_Penalty>
0

> <i_epik_Tot_Q>
0

> <i_epik_Tot_abs_Q>
0

> <r_epik_Metal_State_Penalty>
-0

> <b_epik_Metal_Only>
0

> <s_lp_Force_Field>
OPLS_2005

> <r_lp_Energy>
12.0515

> <b_lp_Chiralities_Consistent>
1

> <s_lp_Variant>
AV-unprocessed.smi:2481-3

> <Gold.Version>
5.8.1

> <Gold.Id.Protein>
6NUR|6NUR_protein|mol2

> <Gold.PLP.Fitness>
43.6752

> <Gold.PLP.PLP>
-37.3028

> <Gold.PLP.part.hbond>
-3.0000

> <Gold.PLP.part.metal>
0.0000

> <Gold.PLP.part.buried>
-4.7583

> <Gold.PLP.part.nonpolar>
-29.9781

> <Gold.PLP.part.repulsive>
0.2732

> <Gold.PLP.ligand.clash>
0.0000

> <Gold.PLP.ligand.torsion>
0.7941

> <Gold.PLP.Chemscore.Hbond>
2.6473

> <Gold.PLP.Chemscore.CHOScore>
0.0000

> <Gold.PLP.Chemscore.Metal>
0.0000

> <Gold.Chemscore.Hbonds>
donor molecule, donor type, donor heavy atom, donor atom, acceptor molecule, acceptor atom, score
      L1  H    18    37       P1  8028  0.86
      P1  H  7997  8010       L1     9  1.00

> <Gold.PLP.Chemscore.Internal.Correction>
0.0188

> <Gold.Rescore>
     Score         DG    S(hbond)    S(metal)    S(lipo)     H(rot)  DE(clash)    DE(int)     intcor
     17.14     -19.42       2.51        0.00      91.01       1.99       0.02       2.25       ----

> <Gold.Chemscore.Fitness>
17.1445

> <Gold.Chemscore.DG>
-19.4165

> <Gold.Chemscore.ZeroCoef>
-5.4800

> <Gold.Chemscore.Hbond>
2.5079

> <Gold.Chemscore.Metal>
0.0000

> <Gold.Chemscore.Lipo>
91.0142

> <Gold.Chemscore.Internal_Hbond>
0.0000

> <Gold.Chemscore.DEClash>
0.0243

> <Gold.Chemscore.DEInternal>
2.2477

> <Gold.Chemscore.Rot>
1.9877

> <Gold.Chemscore.Internal.Correction>
   9.000000E+99

> <Gold.Chemscore.Hbonds>
donor molecule, donor type, donor heavy atom, donor atom, acceptor molecule, acceptor atom, score
      L1  H    18    37       P1  8028  0.55
      P1  H  7997  8010       L1     9  0.96

> <Gold.Chemscore.Hbond.Weighted>
-8.3763

> <Gold.Chemscore.Metal.Weighted>
-0.0000

> <Gold.Chemscore.Lipo.Weighted>
-10.6487

> <Gold.Chemscore.Internal_Hbond.Weighted>
0.0000

> <Gold.Chemscore.DEClash.Weighted>
0.0243

> <Gold.Chemscore.DEInternal.Weighted>
2.2477

> <Gold.Chemscore.Rot.Weighted>
5.0885

> <Gold.Chemscore.Internal.Correction.Weighted>
   9.000000E+99

> <Gold.Protein.RotatedTorsions>
[ 6907 6896 6895 6894 ] final -164.01 input  -60.11 | X-H torsion
[ 7974 7965 7964 7962 ] final  -21.89 input  175.53 | X-H torsion
[ 8008 7997 7996 7995 ] final   32.27 input   59.86 | X-H torsion
[ 10167 10162 10161 10158 ] final  -77.90 input  -65.29 | X-H torsion
[ 10718 10713 10712 10709 ] final  -51.45 input   66.30 | X-H torsion
[ 10763 10752 10751 10750 ] final   62.25 input  -60.55 | X-H torsion
[ 11005 11000 10999 10996 ] final  -94.22 input  -57.11 | X-H torsion

> <Gold.Protein.ActiveResidues>
 VAL166  LYS551  ARG553  GLY616  TRP617  ASP618  TYR619  PRO620  LYS621  CYS622 
 ASP623  PHE694  ASN695  SER759  ASP760  ASP761  ALA762  ILE779  LEU786  VAL792 
 PHE793  MET794  SER795  GLU796  ALA797  LYS798  CYS799  TRP800  GLU811  SER814 

> <Gold.Protein.RotatedAtoms>
  151.4050  133.3745  159.2736 H   0  0  0  0  0  0  0  0  0  0  0  0  # atno 6907 bound_to 6896
  150.9405  134.8815  159.7619 H   0  0  0  0  0  0  0  0  0  0  0  0  # atno 6908 bound_to 6896
  152.5069  134.4001  159.9465 H   0  0  0  0  0  0  0  0  0  0  0  0  # atno 6909 bound_to 6896
  146.1707  140.4404  142.8533 H   0  0  0  0  0  0  0  0  0  0  0  0  # atno 7974 bound_to 7965
  155.1197  140.3247  155.4500 H   0  0  0  0  0  0  0  0  0  0  0  0  # atno 8008 bound_to 7997
  156.2666  140.2029  156.6268 H   0  0  0  0  0  0  0  0  0  0  0  0  # atno 8009 bound_to 7997
  154.6693  140.0538  157.0135 H   0  0  0  0  0  0  0  0  0  0  0  0  # atno 8010 bound_to 7997
  140.4729  143.2422  151.8177 H   0  0  0  0  0  0  0  0  0  0  0  0  # atno 10167 bound_to 10162
  156.1709  130.4149  149.9649 H   0  0  0  0  0  0  0  0  0  0  0  0  # atno 10718 bound_to 10713
  152.9976  135.5472  154.6163 H   0  0  0  0  0  0  0  0  0  0  0  0  # atno 10763 bound_to 10752
  154.5472  135.2824  155.1044 H   0  0  0  0  0  0  0  0  0  0  0  0  # atno 10764 bound_to 10752
  154.2298  135.6435  153.5224 H   0  0  0  0  0  0  0  0  0  0  0  0  # atno 10765 bound_to 10752
  141.1476  133.7941  157.0268 H   0  0  0  0  0  0  0  0  0  0  0  0  # atno 11005 bound_to 11000
  144.8159  140.6467  143.6385 LP  0  0  0  0  0  0  0  0  0  0  0  0  # atno 17320 bound_to 7965
  145.4347  139.1544  143.4003 LP  0  0  0  0  0  0  0  0  0  0  0  0  # atno 17321 bound_to 7965
  139.4821  144.4869  151.9235 LP  0  0  0  0  0  0  0  0  0  0  0  0  # atno 17342 bound_to 10162
  140.3954  144.2562  150.5896 LP  0  0  0  0  0  0  0  0  0  0  0  0  # atno 17343 bound_to 10162
  156.7450  130.9093  151.3634 LP  0  0  0  0  0  0  0  0  0  0  0  0  # atno 17370 bound_to 10713
  157.6802  130.9132  150.0248 LP  0  0  0  0  0  0  0  0  0  0  0  0  # atno 17371 bound_to 10713
  140.0780  134.9665  157.1577 LP  0  0  0  0  0  0  0  0  0  0  0  0  # atno 17394 bound_to 11000
  140.3617  134.2487  155.7186 LP  0  0  0  0  0  0  0  0  0  0  0  0  # atno 17395 bound_to 11000

$$$$
