AV-unprocessed.smi:1957|AV-procd|sdf|7904|dock4
  -GOLD-   2272010 63D 1   1.00000     0.00000
 Structure written by MMmdl.
 42 43  0  0  0  0  0  0  0  0  1 V2000
  151.4234  140.3005  156.1328 C   0  0  0  0  0  0  0  0  0  0  0  0
  151.3584  139.8662  154.7863 O   0  0  0  0  0  0  0  0  0  0  0  0
  151.4707  138.4575  154.6625 C   0  0  0  0  0  0  0  0  0  0  0  0
  150.0935  137.8139  154.8910 C   0  0  0  0  0  0  0  0  0  0  0  0
  150.2098  136.4473  155.4119 N   0  0  0  0  0  0  0  0  0  0  0  0
  149.4878  135.5092  154.6944 N   0  0  0  0  0  0  0  0  0  0  0  0
  149.5166  134.2625  155.0387 C   0  0  0  0  0  0  0  0  0  0  0  0
  148.7594  133.2241  154.2872 C   0  0  0  0  0  0  0  0  0  0  0  0
  148.8245  132.0292  154.5810 O   0  0  0  0  0  0  0  0  0  0  0  0
  148.0082  133.6872  153.2717 N   0  0  0  0  0  0  0  0  0  0  0  0
  147.1541  132.8857  152.3962 C   0  0  2  0  0  0  0  0  0  0  0  0
  146.5775  133.7555  151.2489 C   0  0  0  0  0  0  0  0  0  0  0  0
  145.2437  133.2778  150.6377 C   0  0  0  0  0  0  0  0  0  0  0  0
  145.2269  131.8202  150.1339 C   0  0  0  0  0  0  0  0  0  0  0  0
  145.6472  130.7301  151.1482 C   0  0  0  0  0  0  0  0  0  0  0  0
  145.4482  131.1030  152.5480 N   0  0  0  0  0  0  0  0  0  0  0  0
  146.1186  132.0711  153.1962 C   0  0  0  0  0  0  0  0  0  0  0  0
  145.9030  132.3166  154.3825 O   0  0  0  0  0  0  0  0  0  0  0  0
  150.2976  133.8248  156.1834 C   0  0  0  0  0  0  0  0  0  0  0  0
  150.9983  134.7514  156.8734 C   0  0  0  0  0  0  0  0  0  0  0  0
  150.9890  136.1668  156.4996 C   0  0  0  0  0  0  0  0  0  0  0  0
  151.6274  137.0271  157.1054 O   0  0  0  0  0  0  0  0  0  0  0  0
  151.3250  141.3853  156.1720 H   0  0  0  0  0  0  0  0  0  0  0  0
  152.3778  140.0322  156.5877 H   0  0  0  0  0  0  0  0  0  0  0  0
  150.6175  139.8675  156.7267 H   0  0  0  0  0  0  0  0  0  0  0  0
  151.8640  138.1892  153.6806 H   0  0  0  0  0  0  0  0  0  0  0  0
  152.1747  138.0827  155.4065 H   0  0  0  0  0  0  0  0  0  0  0  0
  149.5112  138.4270  155.5809 H   0  0  0  0  0  0  0  0  0  0  0  0
  149.5291  137.8172  153.9567 H   0  0  0  0  0  0  0  0  0  0  0  0
  148.0111  134.6835  153.1030 H   0  0  0  0  0  0  0  0  0  0  0  0
  147.8091  132.1407  151.9423 H   0  0  0  0  0  0  0  0  0  0  0  0
  146.4235  134.7732  151.6103 H   0  0  0  0  0  0  0  0  0  0  0  0
  147.3251  133.8365  150.4588 H   0  0  0  0  0  0  0  0  0  0  0  0
  144.4427  133.4163  151.3652 H   0  0  0  0  0  0  0  0  0  0  0  0
  144.9857  133.9363  149.8079 H   0  0  0  0  0  0  0  0  0  0  0  0
  144.2128  131.6022  149.7967 H   0  0  0  0  0  0  0  0  0  0  0  0
  145.8530  131.7344  149.2453 H   0  0  0  0  0  0  0  0  0  0  0  0
  145.0861  129.8160  150.9528 H   0  0  0  0  0  0  0  0  0  0  0  0
  146.6930  130.4614  150.9956 H   0  0  0  0  0  0  0  0  0  0  0  0
  144.7603  130.5774  153.0677 H   0  0  0  0  0  0  0  0  0  0  0  0
  150.3229  132.7865  156.4811 H   0  0  0  0  0  0  0  0  0  0  0  0
  151.5837  134.4405  157.7262 H   0  0  0  0  0  0  0  0  0  0  0  0
  1  2  1  0  0  0  0
  1 23  1  0  0  0  0
  1 24  1  0  0  0  0
  1 25  1  0  0  0  0
  2  3  1  0  0  0  0
  3  4  1  0  0  0  0
  3 26  1  0  0  0  0
  3 27  1  0  0  0  0
  4  5  1  0  0  0  0
  4 28  1  0  0  0  0
  4 29  1  0  0  0  0
  5 21  1  0  0  0  0
  5  6  1  0  0  0  0
  6  7  2  0  0  0  0
  7  8  1  0  0  0  0
  7 19  1  0  0  0  0
  8  9  2  0  0  0  0
  8 10  1  0  0  0  0
 10 11  1  0  0  0  0
 10 30  1  0  0  0  0
 11 17  1  0  0  0  0
 11 12  1  0  0  0  0
 11 31  1  0  0  0  0
 12 13  1  0  0  0  0
 12 32  1  0  0  0  0
 12 33  1  0  0  0  0
 13 14  1  0  0  0  0
 13 34  1  0  0  0  0
 13 35  1  0  0  0  0
 14 15  1  0  0  0  0
 14 36  1  0  0  0  0
 14 37  1  0  0  0  0
 15 16  1  0  0  0  0
 15 38  1  0  0  0  0
 15 39  1  0  0  0  0
 16 17  1  0  0  0  0
 16 40  1  0  0  0  0
 17 18  2  0  0  0  0
 19 20  2  0  0  0  0
 19 41  1  0  0  0  0
 20 21  1  0  0  0  0
 20 42  1  0  0  0  0
 21 22  2  0  0  0  0
M  END
> <s_m_source_file>
AV-unprocessed.smi

> <i_m_source_file_index>
1957

> <i_lp_mmshare_version>
43012

> <i_f3d_flags>
0

> <s_epik_input>
W0NIM11PW0NIMl1bQ0gyXW4xbmMoW2NIXVtjSF1jMT1PKUMoPU8pW05IXVtDQEBIXTJbQ0gyXVtDSDJdW0NIMl1bQ0gyXVtOSF1DMj1P

> <s_epik_cmdline>
J2VwaWtfcHl0aG9uJywgJy1waCcsICc3LjAnLCAnLXRuJywgJzgnLCAnLW1hJywgJzIwMCcsICctbWV0YWxfYmluZGluZycsICctaW1hZScsICc8aW5maWxlLm1hZT4nLCAnLW9tYWUnLCAnPG91dGZpbGUubWFlPic=

> <r_lp_tautomer_probability>
1

> <r_epik_Ionization_Penalty>
2.17512e-06

> <r_epik_Ionization_Penalty_Charging>
5.0222e-09

> <r_epik_Ionization_Penalty_Neutral>
2.1701e-06

> <r_epik_State_Penalty>
-0

> <r_epik_Charging_Adjusted_Penalty>
5.0222e-09

> <i_epik_Tot_Q>
0

> <i_epik_Tot_abs_Q>
0

> <r_epik_Metal_State_Penalty>
-0

> <b_epik_Metal_Only>
0

> <s_lp_Force_Field>
OPLS_2005

> <r_lp_Energy>
35.215

> <b_lp_Chiralities_Consistent>
1

> <s_lp_Variant>
AV-unprocessed.smi:1957-1

> <Gold.Version>
5.8.1

> <Gold.Id.Protein>
6NUR|6NUR_protein|mol2

> <Gold.PLP.Fitness>
39.2861

> <Gold.PLP.PLP>
-35.2207

> <Gold.PLP.part.hbond>
-2.0000

> <Gold.PLP.part.metal>
0.0000

> <Gold.PLP.part.buried>
-7.5411

> <Gold.PLP.part.nonpolar>
-28.0948

> <Gold.PLP.part.repulsive>
2.3000

> <Gold.PLP.ligand.clash>
0.0000

> <Gold.PLP.ligand.torsion>
0.3880

> <Gold.PLP.Chemscore.Hbond>
1.5860

> <Gold.PLP.Chemscore.CHOScore>
0.0000

> <Gold.PLP.Chemscore.Metal>
0.0000

> <Gold.Chemscore.Hbonds>
donor molecule, donor type, donor heavy atom, donor atom, acceptor molecule, acceptor atom, score
      L1  H    10    30       P1  7948  0.54
      P1  H  7989  7998       L1     2  1.00

> <Gold.PLP.Chemscore.Internal.Correction>
0.0832

> <Gold.Rescore>
     Score         DG    S(hbond)    S(metal)    S(lipo)     H(rot)  DE(clash)    DE(int)     intcor
     12.32     -15.28       1.54        0.00      78.80       1.78       1.08       1.88       ----

> <Gold.Chemscore.Fitness>
12.3151

> <Gold.Chemscore.DG>
-15.2771

> <Gold.Chemscore.ZeroCoef>
-5.4800

> <Gold.Chemscore.Hbond>
1.5366

> <Gold.Chemscore.Metal>
0.0000

> <Gold.Chemscore.Lipo>
78.7959

> <Gold.Chemscore.Internal_Hbond>
0.0000

> <Gold.Chemscore.DEClash>
1.0788

> <Gold.Chemscore.DEInternal>
1.8831

> <Gold.Chemscore.Rot>
1.7791

> <Gold.Chemscore.Internal.Correction>
   9.000000E+99

> <Gold.Chemscore.Hbonds>
donor molecule, donor type, donor heavy atom, donor atom, acceptor molecule, acceptor atom, score
      L1  H    10    30       P1  7948  0.46
      P1  H  7989  7998       L1     2  0.97

> <Gold.Chemscore.Hbond.Weighted>
-5.1324

> <Gold.Chemscore.Metal.Weighted>
-0.0000

> <Gold.Chemscore.Lipo.Weighted>
-9.2191

> <Gold.Chemscore.Internal_Hbond.Weighted>
0.0000

> <Gold.Chemscore.DEClash.Weighted>
1.0788

> <Gold.Chemscore.DEInternal.Weighted>
1.8831

> <Gold.Chemscore.Rot.Weighted>
4.5544

> <Gold.Chemscore.Internal.Correction.Weighted>
   9.000000E+99

> <Gold.Protein.RotatedTorsions>
[ 6907 6896 6895 6894 ] final   61.50 input  -60.11 | X-H torsion
[ 7974 7965 7964 7962 ] final  -50.96 input  175.53 | X-H torsion
[ 8008 7997 7996 7995 ] final   14.47 input   59.86 | X-H torsion
[ 10167 10162 10161 10158 ] final -136.33 input  -65.29 | X-H torsion
[ 10718 10713 10712 10709 ] final   14.31 input   66.30 | X-H torsion
[ 10763 10752 10751 10750 ] final   17.96 input  -60.55 | X-H torsion
[ 11005 11000 10999 10996 ] final  108.40 input  -57.11 | X-H torsion

> <Gold.Protein.ActiveResidues>
 VAL166  LYS551  ARG553  GLY616  TRP617  ASP618  TYR619  PRO620  LYS621  CYS622 
 ASP623  PHE694  ASN695  SER759  ASP760  ASP761  ALA762  ILE779  LEU786  VAL792 
 PHE793  MET794  SER795  GLU796  ALA797  LYS798  CYS799  TRP800  GLU811  SER814 

> <Gold.Protein.RotatedAtoms>
  152.4094  134.6151  160.0035 H   0  0  0  0  0  0  0  0  0  0  0  0  # atno 6907 bound_to 6896
  151.6333  133.3325  159.3122 H   0  0  0  0  0  0  0  0  0  0  0  0  # atno 6908 bound_to 6896
  150.7986  134.7104  159.6645 H   0  0  0  0  0  0  0  0  0  0  0  0  # atno 6909 bound_to 6896
  145.9242  140.7807  142.9632 H   0  0  0  0  0  0  0  0  0  0  0  0  # atno 7974 bound_to 7965
  154.8490  140.2926  155.5610 H   0  0  0  0  0  0  0  0  0  0  0  0  # atno 8008 bound_to 7997
  156.3015  140.2499  156.3377 H   0  0  0  0  0  0  0  0  0  0  0  0  # atno 8009 bound_to 7997
  154.9042  140.0390  157.1899 H   0  0  0  0  0  0  0  0  0  0  0  0  # atno 8010 bound_to 7997
  139.8689  143.6982  152.2642 H   0  0  0  0  0  0  0  0  0  0  0  0  # atno 10167 bound_to 10162
  157.0373  130.6217  149.5745 H   0  0  0  0  0  0  0  0  0  0  0  0  # atno 10718 bound_to 10713
  153.1292  135.6736  153.9206 H   0  0  0  0  0  0  0  0  0  0  0  0  # atno 10763 bound_to 10752
  153.8698  135.3071  155.3443 H   0  0  0  0  0  0  0  0  0  0  0  0  # atno 10764 bound_to 10752
  154.7692  135.4948  153.9696 H   0  0  0  0  0  0  0  0  0  0  0  0  # atno 10765 bound_to 10752
  139.8843  134.9429  156.5966 H   0  0  0  0  0  0  0  0  0  0  0  0  # atno 11005 bound_to 11000
  144.6756  140.2023  143.7386 LP  0  0  0  0  0  0  0  0  0  0  0  0  # atno 17320 bound_to 7965
  145.8511  139.2176  143.1771 LP  0  0  0  0  0  0  0  0  0  0  0  0  # atno 17321 bound_to 7965
  139.7303  144.7584  151.0813 LP  0  0  0  0  0  0  0  0  0  0  0  0  # atno 17342 bound_to 10162
  140.7764  143.5097  150.9668 LP  0  0  0  0  0  0  0  0  0  0  0  0  # atno 17343 bound_to 10162
  156.0049  130.5135  150.7796 LP  0  0  0  0  0  0  0  0  0  0  0  0  # atno 17370 bound_to 10713
  157.5131  131.0927  151.0173 LP  0  0  0  0  0  0  0  0  0  0  0  0  # atno 17371 bound_to 10713
  140.7915  133.8578  155.8650 LP  0  0  0  0  0  0  0  0  0  0  0  0  # atno 17394 bound_to 11000
  140.9673  134.1577  157.4605 LP  0  0  0  0  0  0  0  0  0  0  0  0  # atno 17395 bound_to 11000

$$$$
