AV-unprocessed.smi:69|AV-procd|sdf|643|dock3
  -GOLD-   2262016533D 1   1.00000     0.00000
 Structure written by MMmdl.
 32 34  0  0  0  0  0  0  0  0  1 V2000
  143.8655  140.8893  155.2806 N   0  0  0  0  0  0  0  0  0  0  0  0
  145.0457  141.1815  155.8447 C   0  0  0  0  0  0  0  0  0  0  0  0
  145.0682  141.5043  157.1590 N   0  0  0  0  0  0  0  0  0  0  0  0
  146.2330  141.8018  157.7439 C   0  0  0  0  0  0  0  0  0  0  0  0
  147.4544  141.8355  157.2043 N   0  0  0  0  0  0  0  0  0  0  0  0
  147.4301  141.5092  155.8787 C   0  0  0  0  0  0  0  0  0  0  0  0
  146.2698  141.1695  155.1291 C   0  0  0  0  0  0  0  0  0  0  0  0
  146.6195  140.8939  153.8143 N   0  0  0  0  0  0  0  0  0  0  0  0
  147.9144  141.0635  153.7920 C   0  0  0  0  0  0  0  0  0  0  0  0
  148.4837  141.4391  154.9894 N   0  0  0  0  0  0  0  0  0  0  0  0
  149.9274  141.7108  155.2675 C   0  0  2  0  0  0  0  0  0  0  0  0
  150.6662  140.6084  154.8395 O   0  0  0  0  0  0  0  0  0  0  0  0
  151.6774  140.3091  155.7945 C   0  0  2  0  0  0  0  0  0  0  0  0
  152.0891  138.8342  155.6709 C   0  0  0  0  0  0  0  0  0  0  0  0
  153.1539  138.5524  156.5541 O   0  0  0  0  0  0  0  0  0  0  0  0
  150.9889  140.6440  157.1187 C   0  0  1  0  0  0  0  0  0  0  0  0
  151.9056  140.8469  158.1787 O   0  0  0  0  0  0  0  0  0  0  0  0
  150.1705  141.8875  156.7765 C   0  0  1  0  0  0  0  0  0  0  0  0
  150.8807  143.0850  157.0382 O   0  0  0  0  0  0  0  0  0  0  0  0
  150.1681  142.5933  154.6722 H   0  0  0  0  0  0  0  0  0  0  0  0
  152.5285  140.9762  155.6418 H   0  0  0  0  0  0  0  0  0  0  0  0
  150.3132  139.8348  157.3962 H   0  0  0  0  0  0  0  0  0  0  0  0
  149.2293  141.9135  157.3278 H   0  0  0  0  0  0  0  0  0  0  0  0
  143.8233  140.6464  154.3013 H   0  0  0  0  0  0  0  0  0  0  0  0
  143.0218  140.9138  155.8348 H   0  0  0  0  0  0  0  0  0  0  0  0
  146.1792  142.0487  158.7939 H   0  0  0  0  0  0  0  0  0  0  0  0
  148.4941  140.9225  152.8912 H   0  0  0  0  0  0  0  0  0  0  0  0
  151.2565  138.1869  155.9478 H   0  0  0  0  0  0  0  0  0  0  0  0
  152.3665  138.5843  154.6464 H   0  0  0  0  0  0  0  0  0  0  0  0
  153.1431  137.6285  156.7527 H   0  0  0  0  0  0  0  0  0  0  0  0
  151.4358  140.7834  158.9963 H   0  0  0  0  0  0  0  0  0  0  0  0
  150.4322  143.7972  156.6082 H   0  0  0  0  0  0  0  0  0  0  0  0
  1  2  1  0  0  0  0
  1 24  1  0  0  0  0
  1 25  1  0  0  0  0
  2  7  1  0  0  0  0
  2  3  2  0  0  0  0
  3  4  1  0  0  0  0
  4  5  2  0  0  0  0
  4 26  1  0  0  0  0
  5  6  1  0  0  0  0
  6 10  1  0  0  0  0
  6  7  2  0  0  0  0
  7  8  1  0  0  0  0
  8  9  2  0  0  0  0
  9 10  1  0  0  0  0
  9 27  1  0  0  0  0
 10 11  1  0  0  0  0
 11 20  1  0  0  0  0
 11 18  1  0  0  0  0
 11 12  1  0  0  0  0
 12 13  1  0  0  0  0
 13 21  1  0  0  0  0
 13 14  1  0  0  0  0
 13 16  1  0  0  0  0
 14 15  1  0  0  0  0
 14 28  1  0  0  0  0
 14 29  1  0  0  0  0
 15 30  1  0  0  0  0
 16 22  1  0  0  0  0
 16 17  1  0  0  0  0
 16 18  1  0  0  0  0
 17 31  1  0  0  0  0
 18 23  1  0  0  0  0
 18 19  1  0  0  0  0
 19 32  1  0  0  0  0
M  END
> <s_m_source_file>
AV-unprocessed.smi

> <i_m_source_file_index>
69

> <i_lp_mmshare_version>
43012

> <i_f3d_flags>
0

> <s_epik_input>
bjFbY0hdbmMoW05IMl0pYyhjMTIpbltjSF1uMltDQEBIXTNPW0NASF0oW0NIMl1bT0hdKVtDQEBIXShbT0hdKVtDQEhdM1tPSF0=

> <s_epik_cmdline>
J2VwaWtfcHl0aG9uJywgJy1waCcsICc3LjAnLCAnLXRuJywgJzgnLCAnLW1hJywgJzIwMCcsICctbWV0YWxfYmluZGluZycsICctaW1hZScsICc8aW5maWxlLm1hZT4nLCAnLW9tYWUnLCAnPG91dGZpbGUubWFlPic=

> <r_lp_tautomer_probability>
1

> <r_epik_Ionization_Penalty>
0.000428445

> <r_epik_Ionization_Penalty_Charging>
0

> <r_epik_Ionization_Penalty_Neutral>
0.000428445

> <r_epik_State_Penalty>
-0

> <r_epik_Charging_Adjusted_Penalty>
0

> <i_epik_Tot_Q>
0

> <i_epik_Tot_abs_Q>
0

> <r_epik_Metal_State_Penalty>
-0

> <b_epik_Metal_Only>
0

> <s_epik_Chemistry_Notes>
This compound contains an acetal/aminal-like group ( X-CH(R)-Y where X, Y are N, S, or O) that may be acid/base labile, releasing an aldehyde.

> <s_lp_Force_Field>
OPLS_2005

> <r_lp_Energy>
38.6476

> <b_lp_Chiralities_Consistent>
1

> <s_lp_Variant>
AV-unprocessed.smi:69-1

> <Gold.Version>
5.8.1

> <Gold.Id.Protein>
6NUR|6NUR_protein|mol2

> <Gold.PLP.Fitness>
39.9532

> <Gold.PLP.PLP>
-25.2669

> <Gold.PLP.part.hbond>
-4.0000

> <Gold.PLP.part.metal>
0.0000

> <Gold.PLP.part.buried>
-3.1732

> <Gold.PLP.part.nonpolar>
-18.5476

> <Gold.PLP.part.repulsive>
0.3683

> <Gold.PLP.ligand.clash>
0.0000

> <Gold.PLP.ligand.torsion>
0.1512

> <Gold.PLP.Chemscore.Hbond>
3.9920

> <Gold.PLP.Chemscore.CHOScore>
1.0000

> <Gold.PLP.Chemscore.Metal>
0.0000

> <Gold.Chemscore.Hbonds>
donor molecule, donor type, donor heavy atom, donor atom, acceptor molecule, acceptor atom, score
      L1  H     1    24       P1 10175  1.00
      L1  H    19    32       P1  8028  1.00
      P1  H  7989  7998       L1    12  0.98
      P1  H  7997  8010       L1    15  1.00
      L1  C     9    27       P1  7957  1.00

> <Gold.PLP.Chemscore.Internal.Correction>
0.0128

> <Gold.Rescore>
     Score         DG    S(hbond)    S(metal)    S(lipo)     H(rot)  DE(clash)    DE(int)     intcor
      7.55      -9.13       3.23        0.00      27.02       4.03       0.00       1.58       ----

> <Gold.Chemscore.Fitness>
7.5461

> <Gold.Chemscore.DG>
-9.1266

> <Gold.Chemscore.ZeroCoef>
-5.4800

> <Gold.Chemscore.Hbond>
3.2323

> <Gold.Chemscore.Metal>
0.0000

> <Gold.Chemscore.Lipo>
27.0221

> <Gold.Chemscore.Internal_Hbond>
0.0000

> <Gold.Chemscore.DEClash>
0.0048

> <Gold.Chemscore.DEInternal>
1.5757

> <Gold.Chemscore.Rot>
4.0277

> <Gold.Chemscore.Internal.Correction>
   9.000000E+99

> <Gold.Chemscore.Hbonds>
donor molecule, donor type, donor heavy atom, donor atom, acceptor molecule, acceptor atom, score
      L1  H     1    24       P1 10175  0.99
      L1  H    19    32       P1  8028  0.93
      P1  H  7989  7998       L1    12  0.22
      P1  H  7997  8010       L1    15  0.67

> <Gold.Chemscore.Hbond.Weighted>
-10.7960

> <Gold.Chemscore.Metal.Weighted>
-0.0000

> <Gold.Chemscore.Lipo.Weighted>
-3.1616

> <Gold.Chemscore.Internal_Hbond.Weighted>
0.0000

> <Gold.Chemscore.DEClash.Weighted>
0.0048

> <Gold.Chemscore.DEInternal.Weighted>
1.5757

> <Gold.Chemscore.Rot.Weighted>
10.3110

> <Gold.Chemscore.Internal.Correction.Weighted>
   9.000000E+99

> <Gold.Protein.RotatedTorsions>
[ 6907 6896 6895 6894 ] final  167.76 input  -60.11 | X-H torsion
[ 7974 7965 7964 7962 ] final  104.13 input  175.53 | X-H torsion
[ 8008 7997 7996 7995 ] final   63.67 input   59.86 | X-H torsion
[ 10167 10162 10161 10158 ] final  -62.14 input  -65.29 | X-H torsion
[ 10718 10713 10712 10709 ] final   91.47 input   66.30 | X-H torsion
[ 10763 10752 10751 10750 ] final -153.76 input  -60.55 | X-H torsion
[ 11005 11000 10999 10996 ] final   73.18 input  -57.11 | X-H torsion

> <Gold.Protein.ActiveResidues>
 VAL166  LYS551  ARG553  GLY616  TRP617  ASP618  TYR619  PRO620  LYS621  CYS622 
 ASP623  PHE694  ASN695  SER759  ASP760  ASP761  ALA762  ILE779  LEU786  VAL792 
 PHE793  MET794  SER795  GLU796  ALA797  LYS798  CYS799  TRP800  GLU811  SER814 

> <Gold.Protein.RotatedAtoms>
  151.8583  133.3452  159.3695 H   0  0  0  0  0  0  0  0  0  0  0  0  # atno 6907 bound_to 6896
  150.7186  134.5231  159.5673 H   0  0  0  0  0  0  0  0  0  0  0  0  # atno 6908 bound_to 6896
  152.2739  134.7903  160.0460 H   0  0  0  0  0  0  0  0  0  0  0  0  # atno 6909 bound_to 6896
  145.3368  139.2472  143.3631 H   0  0  0  0  0  0  0  0  0  0  0  0  # atno 7974 bound_to 7965
  155.6339  140.3496  155.4692 H   0  0  0  0  0  0  0  0  0  0  0  0  # atno 8008 bound_to 7997
  155.9981  140.1207  157.0598 H   0  0  0  0  0  0  0  0  0  0  0  0  # atno 8009 bound_to 7997
  154.4240  140.1106  156.5644 H   0  0  0  0  0  0  0  0  0  0  0  0  # atno 8010 bound_to 7997
  140.5959  143.2351  151.6037 H   0  0  0  0  0  0  0  0  0  0  0  0  # atno 10167 bound_to 10162
  157.6960  131.0408  150.3734 H   0  0  0  0  0  0  0  0  0  0  0  0  # atno 10718 bound_to 10713
  154.7905  135.3205  154.7787 H   0  0  0  0  0  0  0  0  0  0  0  0  # atno 10763 bound_to 10752
  153.8477  135.6865  153.4800 H   0  0  0  0  0  0  0  0  0  0  0  0  # atno 10764 bound_to 10752
  153.1574  135.4674  154.9664 H   0  0  0  0  0  0  0  0  0  0  0  0  # atno 10765 bound_to 10752
  139.9453  134.7325  156.0996 H   0  0  0  0  0  0  0  0  0  0  0  0  # atno 11005 bound_to 11000
  146.3023  140.3958  142.8699 LP  0  0  0  0  0  0  0  0  0  0  0  0  # atno 17320 bound_to 7965
  144.8821  140.7414  143.5980 LP  0  0  0  0  0  0  0  0  0  0  0  0  # atno 17321 bound_to 7965
  139.5258  144.3064  152.1030 LP  0  0  0  0  0  0  0  0  0  0  0  0  # atno 17342 bound_to 10162
  140.2236  144.4440  150.6331 LP  0  0  0  0  0  0  0  0  0  0  0  0  # atno 17343 bound_to 10162
  156.4157  130.3943  149.6860 LP  0  0  0  0  0  0  0  0  0  0  0  0  # atno 17370 bound_to 10713
  156.4129  130.7731  151.2745 LP  0  0  0  0  0  0  0  0  0  0  0  0  # atno 17371 bound_to 10713
  141.1101  133.6646  156.2958 LP  0  0  0  0  0  0  0  0  0  0  0  0  # atno 17394 bound_to 11000
  140.5851  134.5707  157.5488 LP  0  0  0  0  0  0  0  0  0  0  0  0  # atno 17395 bound_to 11000

$$$$
