AV-unprocessed.smi:1696|AV-procd|sdf|6800|dock5
  -GOLD-   22720 7563D 1   1.00000     0.00000
 Structure written by MMmdl.
 39 40  0  0  0  0  0  0  0  0  2 V2000
  146.5469  139.2628  152.7284 C   0  0  0  0  0  0  0  0  0  0  0  0
  145.4711  138.3896  152.0650 C   0  0  0  0  0  0  0  0  0  0  0  0
  145.0997  137.1084  152.8600 C   0  0  1  0  0  0  0  0  0  0  0  0
  143.5618  136.8970  152.9535 C   0  0  0  0  0  0  0  0  0  0  0  0
  142.8061  138.1468  153.0345 N   0  0  0  0  0  0  0  0  0  0  0  0
  141.5125  138.2571  153.3687 C   0  0  0  0  0  0  0  0  0  0  0  0
  140.8054  137.2971  153.6713 O   0  0  0  0  0  0  0  0  0  0  0  0
  141.1083  139.5369  153.3285 N   0  0  0  0  0  0  0  0  0  0  0  0
  139.8227  140.0500  153.6309 C   0  0  0  0  0  0  0  0  0  0  0  0
  138.7736  139.2270  153.5835 N   0  0  0  0  0  0  0  0  0  0  0  0
  137.5803  139.8788  153.9086 C   0  0  0  0  0  0  0  0  0  0  0  0
  137.7409  141.2106  154.2005 C   0  0  0  0  0  0  0  0  0  0  0  0
  139.4075  141.7066  154.0779 S   0  0  0  0  0  0  0  0  0  0  0  0
  145.7708  135.8963  152.2979 N   0  3  0  0  0  0  0  0  0  0  0  0
  145.8646  134.7234  153.1952 C   0  0  0  0  0  0  0  0  0  0  0  0
  146.1135  133.5369  152.2718 C   0  0  0  0  0  0  0  0  0  0  0  0
  145.2668  133.8679  151.0491 C   0  0  0  0  0  0  0  0  0  0  0  0
  145.2057  135.4012  151.0157 C   0  0  0  0  0  0  0  0  0  0  0  0
  146.8426  140.0747  152.0637 H   0  0  0  0  0  0  0  0  0  0  0  0
  147.4409  138.6823  152.9568 H   0  0  0  0  0  0  0  0  0  0  0  0
  146.1957  139.7201  153.6524 H   0  0  0  0  0  0  0  0  0  0  0  0
  144.5807  138.9874  151.8698 H   0  0  0  0  0  0  0  0  0  0  0  0
  145.8675  138.1209  151.0869 H   0  0  0  0  0  0  0  0  0  0  0  0
  145.4769  137.2423  153.8752 H   0  0  0  0  0  0  0  0  0  0  0  0
  143.2098  136.3786  152.0618 H   0  0  0  0  0  0  0  0  0  0  0  0
  143.2970  136.2301  153.7736 H   0  0  0  0  0  0  0  0  0  0  0  0
  143.3008  138.9922  152.7894 H   0  0  0  0  0  0  0  0  0  0  0  0
  141.7936  140.2231  153.0493 H   0  0  0  0  0  0  0  0  0  0  0  0
  136.6586  139.3159  153.9090 H   0  0  0  0  0  0  0  0  0  0  0  0
  136.9827  141.9271  154.4800 H   0  0  0  0  0  0  0  0  0  0  0  0
  146.6614  134.8329  153.9314 H   0  0  0  0  0  0  0  0  0  0  0  0
  144.9205  134.5874  153.7257 H   0  0  0  0  0  0  0  0  0  0  0  0
  147.1676  133.4986  151.9935 H   0  0  0  0  0  0  0  0  0  0  0  0
  145.8494  132.5815  152.7264 H   0  0  0  0  0  0  0  0  0  0  0  0
  145.6785  133.4445  150.1325 H   0  0  0  0  0  0  0  0  0  0  0  0
  144.2621  133.4631  151.1781 H   0  0  0  0  0  0  0  0  0  0  0  0
  144.1710  135.7197  150.8813 H   0  0  0  0  0  0  0  0  0  0  0  0
  145.7873  135.8039  150.1861 H   0  0  0  0  0  0  0  0  0  0  0  0
  146.7252  136.1592  152.0971 H   0  0  0  0  0  0  0  0  0  0  0  0
  1  2  1  0  0  0  0
  1 19  1  0  0  0  0
  1 20  1  0  0  0  0
  1 21  1  0  0  0  0
  2  3  1  0  0  0  0
  2 22  1  0  0  0  0
  2 23  1  0  0  0  0
  3  4  1  0  0  0  0
  3 14  1  0  0  0  0
  3 24  1  0  0  0  0
  4  5  1  0  0  0  0
  4 25  1  0  0  0  0
  4 26  1  0  0  0  0
  5  6  1  0  0  0  0
  5 27  1  0  0  0  0
  6  7  2  0  0  0  0
  6  8  1  0  0  0  0
  8  9  1  0  0  0  0
  8 28  1  0  0  0  0
  9 13  1  0  0  0  0
  9 10  2  0  0  0  0
 10 11  1  0  0  0  0
 11 12  2  0  0  0  0
 11 29  1  0  0  0  0
 12 13  1  0  0  0  0
 12 30  1  0  0  0  0
 14 18  1  0  0  0  0
 14 15  1  0  0  0  0
 14 39  1  0  0  0  0
 15 16  1  0  0  0  0
 15 31  1  0  0  0  0
 15 32  1  0  0  0  0
 16 17  1  0  0  0  0
 16 33  1  0  0  0  0
 16 34  1  0  0  0  0
 17 18  1  0  0  0  0
 17 35  1  0  0  0  0
 17 36  1  0  0  0  0
 18 37  1  0  0  0  0
 18 38  1  0  0  0  0
M  CHG  1  14   1
M  END
> <s_m_source_file>
AV-unprocessed.smi

> <i_m_source_file_index>
1696

> <i_lp_mmshare_version>
43012

> <i_f3d_flags>
0

> <s_epik_input>
W0NIMl0xW0NIMl1bQ0gyXVtDSDJdTjFbQ0BIXShbQ0gyXVtDSDNdKVtDSDJdW05IXUMoPU8pW05IXWMybltjSF1bY0hdczI=

> <s_epik_cmdline>
J2VwaWtfcHl0aG9uJywgJy1waCcsICc3LjAnLCAnLXRuJywgJzgnLCAnLW1hJywgJzIwMCcsICctbWV0YWxfYmluZGluZycsICctaW1hZScsICc8aW5maWxlLm1hZT4nLCAnLW9tYWUnLCAnPG91dGZpbGUubWFlPic=

> <r_lp_tautomer_probability>
1

> <r_epik_Ionization_Penalty>
0.0013883

> <r_epik_Ionization_Penalty_Charging>
0.00115997

> <r_epik_Ionization_Penalty_Neutral>
0.000228323

> <r_epik_State_Penalty>
-0

> <r_epik_Charging_Adjusted_Penalty>
0.00115997

> <i_epik_Tot_Q>
1

> <i_epik_Tot_abs_Q>
1

> <r_epik_Metal_State_Penalty>
0.0131845

> <b_epik_Metal_Only>
0

> <s_lp_Force_Field>
OPLS_2005

> <r_lp_Energy>
36.9264

> <b_lp_Chiralities_Consistent>
1

> <s_lp_Variant>
AV-unprocessed.smi:1696-2

> <Gold.Version>
5.8.1

> <Gold.Id.Protein>
6NUR|6NUR_protein|mol2

> <Gold.PLP.Fitness>
38.5809

> <Gold.PLP.PLP>
-29.0704

> <Gold.PLP.part.hbond>
-4.1762

> <Gold.PLP.part.metal>
0.0000

> <Gold.PLP.part.buried>
-0.5703

> <Gold.PLP.part.nonpolar>
-24.4792

> <Gold.PLP.part.repulsive>
0.3524

> <Gold.PLP.ligand.clash>
0.0000

> <Gold.PLP.ligand.torsion>
1.2300

> <Gold.PLP.Chemscore.Hbond>
3.9600

> <Gold.PLP.Chemscore.CHOScore>
0.0000

> <Gold.PLP.Chemscore.Metal>
0.0000

> <Gold.Chemscore.Hbonds>
donor molecule, donor type, donor heavy atom, donor atom, acceptor molecule, acceptor atom, score
      L1  H     5    27       P1 10175  0.96
      L1  H     8    28       P1 10175  0.63
      L1  H    14    39       P1  7948  1.04

> <Gold.PLP.Chemscore.Internal.Correction>
0.0904

> <Gold.Rescore>
     Score         DG    S(hbond)    S(metal)    S(lipo)     H(rot)  DE(clash)    DE(int)     intcor
     14.08     -17.29       2.81        0.00      59.42       1.77       0.23       2.98       ----

> <Gold.Chemscore.Fitness>
14.0820

> <Gold.Chemscore.DG>
-17.2909

> <Gold.Chemscore.ZeroCoef>
-5.4800

> <Gold.Chemscore.Hbond>
2.8118

> <Gold.Chemscore.Metal>
0.0000

> <Gold.Chemscore.Lipo>
59.4178

> <Gold.Chemscore.Internal_Hbond>
0.0000

> <Gold.Chemscore.DEClash>
0.2276

> <Gold.Chemscore.DEInternal>
2.9814

> <Gold.Chemscore.Rot>
1.7705

> <Gold.Chemscore.Internal.Correction>
   9.000000E+99

> <Gold.Chemscore.Hbonds>
donor molecule, donor type, donor heavy atom, donor atom, acceptor molecule, acceptor atom, score
      L1  H     5    27       P1 10175  0.90
      L1  H     8    28       P1 10175  0.06
      L1  H    14    39       P1  7948  0.52

> <Gold.Chemscore.Hbond.Weighted>
-9.3915

> <Gold.Chemscore.Metal.Weighted>
-0.0000

> <Gold.Chemscore.Lipo.Weighted>
-6.9519

> <Gold.Chemscore.Internal_Hbond.Weighted>
0.0000

> <Gold.Chemscore.DEClash.Weighted>
0.2276

> <Gold.Chemscore.DEInternal.Weighted>
2.9814

> <Gold.Chemscore.Rot.Weighted>
4.5324

> <Gold.Chemscore.Internal.Correction.Weighted>
   9.000000E+99

> <Gold.Protein.RotatedTorsions>
[ 6907 6896 6895 6894 ] final  -76.05 input  -60.11 | X-H torsion
[ 7974 7965 7964 7962 ] final  -95.89 input  175.53 | X-H torsion
[ 8008 7997 7996 7995 ] final  -29.18 input   59.86 | X-H torsion
[ 10167 10162 10161 10158 ] final   59.43 input  -65.29 | X-H torsion
[ 10718 10713 10712 10709 ] final  -28.52 input   66.30 | X-H torsion
[ 10763 10752 10751 10750 ] final   94.92 input  -60.55 | X-H torsion
[ 11005 11000 10999 10996 ] final -112.90 input  -57.11 | X-H torsion

> <Gold.Protein.ActiveResidues>
 VAL166  LYS551  ARG553  GLY616  TRP617  ASP618  TYR619  PRO620  LYS621  CYS622 
 ASP623  PHE694  ASN695  SER759  ASP760  ASP761  ALA762  ILE779  LEU786  VAL792 
 PHE793  MET794  SER795  GLU796  ALA797  LYS798  CYS799  TRP800  GLU811  SER814 

> <Gold.Protein.RotatedAtoms>
  150.7039  134.4630  159.5389 H   0  0  0  0  0  0  0  0  0  0  0  0  # atno 6907 bound_to 6896
  152.2301  134.8327  160.0484 H   0  0  0  0  0  0  0  0  0  0  0  0  # atno 6908 bound_to 6896
  151.9146  133.3535  159.3912 H   0  0  0  0  0  0  0  0  0  0  0  0  # atno 6909 bound_to 6896
  145.3540  140.9481  143.2538 H   0  0  0  0  0  0  0  0  0  0  0  0  # atno 7974 bound_to 7965
  154.4301  140.1825  156.1207 H   0  0  0  0  0  0  0  0  0  0  0  0  # atno 8008 bound_to 7997
  156.0145  140.3347  155.6950 H   0  0  0  0  0  0  0  0  0  0  0  0  # atno 8009 bound_to 7997
  155.6063  140.0645  157.2709 H   0  0  0  0  0  0  0  0  0  0  0  0  # atno 8010 bound_to 7997
  140.1765  144.4224  150.6636 H   0  0  0  0  0  0  0  0  0  0  0  0  # atno 10167 bound_to 10162
  156.4241  130.4432  149.7163 H   0  0  0  0  0  0  0  0  0  0  0  0  # atno 10718 bound_to 10713
  153.2472  135.4272  155.0760 H   0  0  0  0  0  0  0  0  0  0  0  0  # atno 10763 bound_to 10752
  154.8366  135.3417  154.6565 H   0  0  0  0  0  0  0  0  0  0  0  0  # atno 10764 bound_to 10752
  153.6987  135.7029  153.5126 H   0  0  0  0  0  0  0  0  0  0  0  0  # atno 10765 bound_to 10752
  141.0647  133.9478  157.2601 H   0  0  0  0  0  0  0  0  0  0  0  0  # atno 11005 bound_to 11000
  144.8696  139.5058  143.6774 LP  0  0  0  0  0  0  0  0  0  0  0  0  # atno 17320 bound_to 7965
  146.2956  139.7267  142.9129 LP  0  0  0  0  0  0  0  0  0  0  0  0  # atno 17321 bound_to 7965
  140.6548  143.2234  151.5995 LP  0  0  0  0  0  0  0  0  0  0  0  0  # atno 17342 bound_to 10162
  139.5315  144.2903  152.1157 LP  0  0  0  0  0  0  0  0  0  0  0  0  # atno 17343 bound_to 10162
  156.4092  130.7713  151.2725 LP  0  0  0  0  0  0  0  0  0  0  0  0  # atno 17370 bound_to 10713
  157.7508  131.0216  150.3759 LP  0  0  0  0  0  0  0  0  0  0  0  0  # atno 17371 bound_to 10713
  139.9465  135.0183  156.8868 LP  0  0  0  0  0  0  0  0  0  0  0  0  # atno 17394 bound_to 11000
  140.5797  134.0364  155.7459 LP  0  0  0  0  0  0  0  0  0  0  0  0  # atno 17395 bound_to 11000

$$$$
