AV-unprocessed.smi:2919|AV-procd|sdf|11192|dock3
  -GOLD-   2272016 83D 1   1.00000     0.00000
 Structure written by MMmdl.
 34 36  0  0  0  0  0  0  0  0  1 V2000
  148.0281  138.1541  155.7648 C   0  0  0  0  0  0  0  0  0  0  0  0
  149.0623  138.7800  156.6837 C   0  0  0  0  0  0  0  0  0  0  0  0
  149.0758  140.1311  156.6902 N   0  0  0  0  0  0  0  0  0  0  0  0
  149.9410  140.7948  157.4584 N   0  0  0  0  0  0  0  0  0  0  0  0
  150.8246  140.1340  158.2452 C   0  0  0  0  0  0  0  0  0  0  0  0
  151.7057  140.9043  159.0268 N   0  0  0  0  0  0  0  0  0  0  0  0
  151.8580  142.3405  158.8195 C   0  0  2  0  0  0  0  0  0  0  0  0
  152.9983  142.9508  159.6451 C   0  0  0  0  0  0  0  0  0  0  0  0
  152.2701  144.0493  160.4292 C   0  0  1  0  0  0  0  0  0  0  0  0
  151.8022  145.1978  159.5249 C   0  0  0  0  0  0  0  0  0  0  0  0
  150.6297  144.5546  158.7847 C   0  0  0  0  0  0  0  0  0  0  0  0
  150.6458  143.1270  159.3469 C   0  0  2  0  0  0  0  0  0  0  0  0
  151.0394  143.3958  160.6832 O   0  0  0  0  0  0  0  0  0  0  0  0
  150.8644  138.7160  158.2889 C   0  0  0  0  0  0  0  0  0  0  0  0
  151.8184  138.0076  159.1401 C   0  0  0  0  0  0  0  0  0  0  0  0
  152.5735  137.4467  159.8140 N   0  0  0  0  0  0  0  0  0  0  0  0
  149.9461  138.0065  157.4745 C   0  0  0  0  0  0  0  0  0  0  0  0
  149.9182  136.4803  157.4560 C   0  0  0  0  0  0  0  0  0  0  0  0
  147.3306  137.5417  156.3367 H   0  0  0  0  0  0  0  0  0  0  0  0
  148.5123  137.5272  155.0159 H   0  0  0  0  0  0  0  0  0  0  0  0
  147.4487  138.9139  155.2382 H   0  0  0  0  0  0  0  0  0  0  0  0
  152.3799  140.4356  159.6151 H   0  0  0  0  0  0  0  0  0  0  0  0
  151.9862  142.5364  157.7538 H   0  0  0  0  0  0  0  0  0  0  0  0
  153.4310  142.2234  160.3337 H   0  0  0  0  0  0  0  0  0  0  0  0
  153.8021  143.3455  159.0228 H   0  0  0  0  0  0  0  0  0  0  0  0
  152.7979  144.3766  161.3252 H   0  0  0  0  0  0  0  0  0  0  0  0
  151.4604  146.0469  160.1179 H   0  0  0  0  0  0  0  0  0  0  0  0
  152.5898  145.5428  158.8542 H   0  0  0  0  0  0  0  0  0  0  0  0
  149.6961  145.0580  159.0383 H   0  0  0  0  0  0  0  0  0  0  0  0
  150.7468  144.5783  157.7006 H   0  0  0  0  0  0  0  0  0  0  0  0
  149.6907  142.6095  159.2486 H   0  0  0  0  0  0  0  0  0  0  0  0
  150.8817  136.0907  157.1259 H   0  0  0  0  0  0  0  0  0  0  0  0
  149.1581  136.0692  156.7941 H   0  0  0  0  0  0  0  0  0  0  0  0
  149.7191  136.0950  158.4566 H   0  0  0  0  0  0  0  0  0  0  0  0
  1  2  1  0  0  0  0
  1 19  1  0  0  0  0
  1 20  1  0  0  0  0
  1 21  1  0  0  0  0
  2 17  1  0  0  0  0
  2  3  2  0  0  0  0
  3  4  1  0  0  0  0
  4  5  2  0  0  0  0
  5  6  1  0  0  0  0
  5 14  1  0  0  0  0
  6  7  1  0  0  0  0
  6 22  1  0  0  0  0
  7 12  1  0  0  0  0
  7  8  1  0  0  0  0
  7 23  1  0  0  0  0
  8  9  1  0  0  0  0
  8 24  1  0  0  0  0
  8 25  1  0  0  0  0
  9 13  1  0  0  0  0
  9 10  1  0  0  0  0
  9 26  1  0  0  0  0
 10 11  1  0  0  0  0
 10 27  1  0  0  0  0
 10 28  1  0  0  0  0
 11 12  1  0  0  0  0
 11 29  1  0  0  0  0
 11 30  1  0  0  0  0
 12 13  1  0  0  0  0
 12 31  1  0  0  0  0
 14 15  1  0  0  0  0
 14 17  2  0  0  0  0
 15 16  3  0  0  0  0
 17 18  1  0  0  0  0
 18 32  1  0  0  0  0
 18 33  1  0  0  0  0
 18 34  1  0  0  0  0
M  END
> <s_m_source_file>
AV-unprocessed.smi

> <i_m_source_file_index>
2919

> <i_lp_mmshare_version>
43012

> <i_f3d_flags>
0

> <s_epik_input>
W0NIM11jMW5uYyhjKEMjTiljMVtDSDNdKVtOSF1bQ0BIXShbQ0gyXVtDQEBIXTIzKVtDQEBIXShPMylbQ0gyXVtDSDJdMg==

> <s_epik_cmdline>
J2VwaWtfcHl0aG9uJywgJy1waCcsICc3LjAnLCAnLXRuJywgJzgnLCAnLW1hJywgJzIwMCcsICctbWV0YWxfYmluZGluZycsICctaW1hZScsICc8aW5maWxlLm1hZT4nLCAnLW9tYWUnLCAnPG91dGZpbGUubWFlPic=

> <r_lp_tautomer_probability>
1

> <r_epik_Ionization_Penalty>
0.00143865

> <r_epik_Ionization_Penalty_Charging>
0

> <r_epik_Ionization_Penalty_Neutral>
0.00143865

> <r_epik_State_Penalty>
-0

> <r_epik_Charging_Adjusted_Penalty>
0

> <i_epik_Tot_Q>
0

> <i_epik_Tot_abs_Q>
0

> <r_epik_Metal_State_Penalty>
-0

> <b_epik_Metal_Only>
0

> <s_lp_Force_Field>
OPLS_2005

> <r_lp_Energy>
49.0133

> <b_lp_Chiralities_Consistent>
1

> <s_lp_Variant>
AV-unprocessed.smi:2919-1

> <Gold.Version>
5.8.1

> <Gold.Id.Protein>
6NUR|6NUR_protein|mol2

> <Gold.PLP.Fitness>
41.1786

> <Gold.PLP.PLP>
-35.4701

> <Gold.PLP.part.hbond>
-2.9740

> <Gold.PLP.part.metal>
0.0000

> <Gold.PLP.part.buried>
-6.0831

> <Gold.PLP.part.nonpolar>
-26.3065

> <Gold.PLP.part.repulsive>
0.2227

> <Gold.PLP.ligand.clash>
0.0000

> <Gold.PLP.ligand.torsion>
0.1425

> <Gold.PLP.Chemscore.Hbond>
1.9913

> <Gold.PLP.Chemscore.CHOScore>
0.0000

> <Gold.PLP.Chemscore.Metal>
0.0000

> <Gold.PLP.Chemscore.Internal.Correction>
0.0199

> <Gold.Rescore>
     Score         DG    S(hbond)    S(metal)    S(lipo)     H(rot)  DE(clash)    DE(int)     intcor
     19.68     -19.96       1.84        0.00      93.03       1.00       0.03       0.25       ----

> <Gold.Chemscore.Fitness>
19.6837

> <Gold.Chemscore.DG>
-19.9585

> <Gold.Chemscore.ZeroCoef>
-5.4800

> <Gold.Chemscore.Hbond>
1.8424

> <Gold.Chemscore.Metal>
0.0000

> <Gold.Chemscore.Lipo>
93.0333

> <Gold.Chemscore.Internal_Hbond>
0.0000

> <Gold.Chemscore.DEClash>
0.0294

> <Gold.Chemscore.DEInternal>
0.2454

> <Gold.Chemscore.Rot>
1.0000

> <Gold.Chemscore.Internal.Correction>
   9.000000E+99

> <Gold.Chemscore.Hbonds>
donor molecule, donor type, donor heavy atom, donor atom, acceptor molecule, acceptor atom, score
      P1  H  6896  6908       L1    16  0.01

> <Gold.Chemscore.Hbond.Weighted>
-6.1536

> <Gold.Chemscore.Metal.Weighted>
-0.0000

> <Gold.Chemscore.Lipo.Weighted>
-10.8849

> <Gold.Chemscore.Internal_Hbond.Weighted>
0.0000

> <Gold.Chemscore.DEClash.Weighted>
0.0294

> <Gold.Chemscore.DEInternal.Weighted>
0.2454

> <Gold.Chemscore.Rot.Weighted>
2.5600

> <Gold.Chemscore.Internal.Correction.Weighted>
   9.000000E+99

> <Gold.Protein.RotatedTorsions>
[ 6907 6896 6895 6894 ] final -121.90 input  -60.11 | X-H torsion
[ 7974 7965 7964 7962 ] final  132.63 input  175.53 | X-H torsion
[ 8008 7997 7996 7995 ] final  -62.53 input   59.86 | X-H torsion
[ 10167 10162 10161 10158 ] final  148.93 input  -65.29 | X-H torsion
[ 10718 10713 10712 10709 ] final   63.07 input   66.30 | X-H torsion
[ 10763 10752 10751 10750 ] final -125.38 input  -60.55 | X-H torsion
[ 11005 11000 10999 10996 ] final  -55.38 input  -57.11 | X-H torsion

> <Gold.Protein.ActiveResidues>
 VAL166  LYS551  ARG553  GLY616  TRP617  ASP618  TYR619  PRO620  LYS621  CYS622 
 ASP623  PHE694  ASN695  SER759  ASP760  ASP761  ALA762  ILE779  LEU786  VAL792 
 PHE793  MET794  SER795  GLU796  ALA797  LYS798  CYS799  TRP800  GLU811  SER814 

> <Gold.Protein.RotatedAtoms>
  150.8526  133.7764  159.3020 H   0  0  0  0  0  0  0  0  0  0  0  0  # atno 6907 bound_to 6896
  151.5432  135.1066  159.9941 H   0  0  0  0  0  0  0  0  0  0  0  0  # atno 6908 bound_to 6896
  152.4564  133.7689  159.6844 H   0  0  0  0  0  0  0  0  0  0  0  0  # atno 6909 bound_to 6896
  144.9948  139.4370  143.5321 H   0  0  0  0  0  0  0  0  0  0  0  0  # atno 7974 bound_to 7965
  154.4504  140.0994  156.6601 H   0  0  0  0  0  0  0  0  0  0  0  0  # atno 8008 bound_to 7997
  155.5303  140.3481  155.4406 H   0  0  0  0  0  0  0  0  0  0  0  0  # atno 8009 bound_to 7997
  156.0669  140.1340  156.9864 H   0  0  0  0  0  0  0  0  0  0  0  0  # atno 8010 bound_to 7997
  139.4868  144.5641  151.7177 H   0  0  0  0  0  0  0  0  0  0  0  0  # atno 10167 bound_to 10162
  157.5945  130.9085  149.9668 H   0  0  0  0  0  0  0  0  0  0  0  0  # atno 10718 bound_to 10713
  154.8735  135.4031  154.3259 H   0  0  0  0  0  0  0  0  0  0  0  0  # atno 10763 bound_to 10752
  153.4080  135.7020  153.6385 H   0  0  0  0  0  0  0  0  0  0  0  0  # atno 10764 bound_to 10752
  153.5099  135.3709  155.2552 H   0  0  0  0  0  0  0  0  0  0  0  0  # atno 10765 bound_to 10752
  141.1071  133.6612  156.4462 H   0  0  0  0  0  0  0  0  0  0  0  0  # atno 11005 bound_to 11000
  146.3439  139.9302  142.8754 LP  0  0  0  0  0  0  0  0  0  0  0  0  # atno 17320 bound_to 7965
  145.2235  140.9944  143.4032 LP  0  0  0  0  0  0  0  0  0  0  0  0  # atno 17321 bound_to 7965
  140.5216  144.0870  150.6024 LP  0  0  0  0  0  0  0  0  0  0  0  0  # atno 17342 bound_to 10162
  140.3830  143.2793  152.0149 LP  0  0  0  0  0  0  0  0  0  0  0  0  # atno 17343 bound_to 10162
  156.1005  130.3656  150.0226 LP  0  0  0  0  0  0  0  0  0  0  0  0  # atno 17370 bound_to 10713
  156.8342  130.9403  151.3635 LP  0  0  0  0  0  0  0  0  0  0  0  0  # atno 17371 bound_to 10713
  140.4873  134.6608  157.5196 LP  0  0  0  0  0  0  0  0  0  0  0  0  # atno 17394 bound_to 11000
  139.9947  134.6931  155.9630 LP  0  0  0  0  0  0  0  0  0  0  0  0  # atno 17395 bound_to 11000

$$$$
