AV-unprocessed.smi:2061|AV-procd|sdf|8361|dock4
  -GOLD-   2272011 33D 1   1.00000     0.00000
 Structure written by MMmdl.
 45 46  0  0  0  0  0  0  0  0  1 V2000
  144.7236  135.6824  151.3213 C   0  0  0  0  0  0  0  0  0  0  0  0
  145.5006  136.6511  152.1451 C   0  0  0  0  0  0  0  0  0  0  0  0
  146.5308  137.5011  151.8551 C   0  0  0  0  0  0  0  0  0  0  0  0
  146.7845  138.1328  153.1014 C   0  0  0  0  0  0  0  0  0  0  0  0
  147.8019  139.1130  153.2271 N   0  0  0  0  0  0  0  0  0  0  0  0
  148.2051  139.7355  154.3479 C   0  0  0  0  0  0  0  0  0  0  0  0
  147.7575  139.5239  155.4752 O   0  0  0  0  0  0  0  0  0  0  0  0
  149.1654  140.6342  154.0847 N   0  0  0  0  0  0  0  0  0  0  0  0
  149.8183  141.4944  155.0695 C   0  0  0  0  0  0  0  0  0  0  0  0
  150.5779  140.6951  156.1664 C   0  0  1  0  0  0  0  0  0  0  0  0
  151.2916  139.4846  155.5111 C   0  0  0  0  0  0  0  0  0  0  0  0
  151.4988  141.5354  156.9683 N   0  0  0  0  0  0  0  0  0  0  0  0
  150.8894  142.7988  157.3980 C   0  0  0  0  0  0  0  0  0  0  0  0
  151.8368  143.6645  158.2506 C   0  0  1  0  0  0  0  0  0  0  0  0
  151.1565  144.9402  158.7585 C   0  0  0  0  0  0  0  0  0  0  0  0
  152.2691  142.9133  159.3775 O   0  0  0  0  0  0  0  0  0  0  0  0
  152.9415  141.7156  159.0112 C   0  0  1  0  0  0  0  0  0  0  0  0
  153.3902  141.0059  160.2929 C   0  0  0  0  0  0  0  0  0  0  0  0
  151.9946  140.8448  158.1640 C   0  0  0  0  0  0  0  0  0  0  0  0
  145.9832  137.7059  154.0654 N   0  0  0  0  0  0  0  0  0  0  0  0
  145.1561  136.7544  153.4573 O   0  0  0  0  0  0  0  0  0  0  0  0
  145.3440  135.2586  150.5316 H   0  0  0  0  0  0  0  0  0  0  0  0
  143.8690  136.1729  150.8551 H   0  0  0  0  0  0  0  0  0  0  0  0
  144.3500  134.8609  151.9331 H   0  0  0  0  0  0  0  0  0  0  0  0
  147.0196  137.6468  150.9032 H   0  0  0  0  0  0  0  0  0  0  0  0
  148.2612  139.3801  152.3692 H   0  0  0  0  0  0  0  0  0  0  0  0
  149.4662  140.7384  153.1271 H   0  0  0  0  0  0  0  0  0  0  0  0
  150.4917  142.2102  154.5948 H   0  0  0  0  0  0  0  0  0  0  0  0
  149.0061  142.0778  155.4984 H   0  0  0  0  0  0  0  0  0  0  0  0
  149.8229  140.2890  156.8414 H   0  0  0  0  0  0  0  0  0  0  0  0
  150.6168  138.8835  154.9036 H   0  0  0  0  0  0  0  0  0  0  0  0
  151.6947  138.7902  156.2464 H   0  0  0  0  0  0  0  0  0  0  0  0
  152.1099  139.8100  154.8680 H   0  0  0  0  0  0  0  0  0  0  0  0
  150.6058  143.4000  156.5364 H   0  0  0  0  0  0  0  0  0  0  0  0
  149.9760  142.5948  157.9589 H   0  0  0  0  0  0  0  0  0  0  0  0
  152.7081  143.9463  157.6565 H   0  0  0  0  0  0  0  0  0  0  0  0
  150.8162  145.5608  157.9292 H   0  0  0  0  0  0  0  0  0  0  0  0
  151.8448  145.5357  159.3588 H   0  0  0  0  0  0  0  0  0  0  0  0
  150.2913  144.7052  159.3790 H   0  0  0  0  0  0  0  0  0  0  0  0
  153.8262  141.9693  158.4247 H   0  0  0  0  0  0  0  0  0  0  0  0
  153.9256  140.0842  160.0641 H   0  0  0  0  0  0  0  0  0  0  0  0
  152.5375  140.7513  160.9229 H   0  0  0  0  0  0  0  0  0  0  0  0
  154.0571  141.6414  160.8759 H   0  0  0  0  0  0  0  0  0  0  0  0
  151.1524  140.5182  158.7762 H   0  0  0  0  0  0  0  0  0  0  0  0
  152.5503  139.9510  157.8870 H   0  0  0  0  0  0  0  0  0  0  0  0
  1  2  1  0  0  0  0
  1 22  1  0  0  0  0
  1 23  1  0  0  0  0
  1 24  1  0  0  0  0
  2 21  1  0  0  0  0
  2  3  2  0  0  0  0
  3  4  1  0  0  0  0
  3 25  1  0  0  0  0
  4  5  1  0  0  0  0
  4 20  2  0  0  0  0
  5  6  1  0  0  0  0
  5 26  1  0  0  0  0
  6  7  2  0  0  0  0
  6  8  1  0  0  0  0
  8  9  1  0  0  0  0
  8 27  1  0  0  0  0
  9 10  1  0  0  0  0
  9 28  1  0  0  0  0
  9 29  1  0  0  0  0
 10 11  1  0  0  0  0
 10 12  1  0  0  0  0
 10 30  1  0  0  0  0
 11 31  1  0  0  0  0
 11 32  1  0  0  0  0
 11 33  1  0  0  0  0
 12 19  1  0  0  0  0
 12 13  1  0  0  0  0
 13 14  1  0  0  0  0
 13 34  1  0  0  0  0
 13 35  1  0  0  0  0
 14 15  1  0  0  0  0
 14 16  1  0  0  0  0
 14 36  1  0  0  0  0
 15 37  1  0  0  0  0
 15 38  1  0  0  0  0
 15 39  1  0  0  0  0
 16 17  1  0  0  0  0
 17 18  1  0  0  0  0
 17 19  1  0  0  0  0
 17 40  1  0  0  0  0
 18 41  1  0  0  0  0
 18 42  1  0  0  0  0
 18 43  1  0  0  0  0
 19 44  1  0  0  0  0
 19 45  1  0  0  0  0
 20 21  1  0  0  0  0
M  END
> <s_m_source_file>
AV-unprocessed.smi

> <i_m_source_file_index>
2061

> <i_lp_mmshare_version>
43012

> <i_f3d_flags>
0

> <s_epik_input>
W0NIM11jMVtjSF1jKG5vMSlbTkhdQyg9TylbTkhdW0NIMl1bQ0BIXShbQ0gzXSlOMltDSDJdW0NAQEhdKFtDSDNdKU9bQ0BASF0oW0NIM10pW0NIMl0y

> <s_epik_cmdline>
J2VwaWtfcHl0aG9uJywgJy1waCcsICc3LjAnLCAnLXRuJywgJzgnLCAnLW1hJywgJzIwMCcsICctbWV0YWxfYmluZGluZycsICctaW1hZScsICc8aW5maWxlLm1hZT4nLCAnLW9tYWUnLCAnPG91dGZpbGUubWFlPic=

> <r_epik_Ionization_Penalty>
0.214073

> <r_epik_Ionization_Penalty_Charging>
0

> <r_epik_Ionization_Penalty_Neutral>
0.214073

> <r_epik_State_Penalty>
0.204211

> <r_epik_Charging_Adjusted_Penalty>
0.204211

> <i_epik_Tot_Q>
0

> <i_epik_Tot_abs_Q>
0

> <r_epik_Metal_State_Penalty>
0.217067

> <b_epik_Metal_Only>
0

> <s_lp_Force_Field>
OPLS_2005

> <r_lp_Energy>
26.0702

> <b_lp_Chiralities_Consistent>
1

> <s_lp_Variant>
AV-unprocessed.smi:2061-2

> <Gold.Version>
5.8.1

> <Gold.Id.Protein>
6NUR|6NUR_protein|mol2

> <Gold.PLP.Fitness>
40.1571

> <Gold.PLP.PLP>
-34.7595

> <Gold.PLP.part.hbond>
-2.0000

> <Gold.PLP.part.metal>
0.0000

> <Gold.PLP.part.buried>
1.9720

> <Gold.PLP.part.nonpolar>
-34.5677

> <Gold.PLP.part.repulsive>
0.5834

> <Gold.PLP.ligand.clash>
0.0000

> <Gold.PLP.ligand.torsion>
0.2695

> <Gold.PLP.Chemscore.Hbond>
1.9675

> <Gold.PLP.Chemscore.CHOScore>
0.0000

> <Gold.PLP.Chemscore.Metal>
0.0000

> <Gold.Chemscore.Hbonds>
donor molecule, donor type, donor heavy atom, donor atom, acceptor molecule, acceptor atom, score
      L1  H     5    26       P1  7957  1.00
      L1  H     8    27       P1  7957  0.86

> <Gold.PLP.Chemscore.Internal.Correction>
0.0343

> <Gold.Rescore>
     Score         DG    S(hbond)    S(metal)    S(lipo)     H(rot)  DE(clash)    DE(int)     intcor
     17.67     -19.68       1.92        0.00     100.52       1.55       0.62       1.40       ----

> <Gold.Chemscore.Fitness>
17.6653

> <Gold.Chemscore.DG>
-19.6801

> <Gold.Chemscore.ZeroCoef>
-5.4800

> <Gold.Chemscore.Hbond>
1.9164

> <Gold.Chemscore.Metal>
0.0000

> <Gold.Chemscore.Lipo>
100.5167

> <Gold.Chemscore.Internal_Hbond>
0.0000

> <Gold.Chemscore.DEClash>
0.6183

> <Gold.Chemscore.DEInternal>
1.3964

> <Gold.Chemscore.Rot>
1.5474

> <Gold.Chemscore.Internal.Correction>
   9.000000E+99

> <Gold.Chemscore.Hbonds>
donor molecule, donor type, donor heavy atom, donor atom, acceptor molecule, acceptor atom, score
      L1  H     5    26       P1  7957  1.00
      L1  H     8    27       P1  7957  0.81

> <Gold.Chemscore.Hbond.Weighted>
-6.4009

> <Gold.Chemscore.Metal.Weighted>
-0.0000

> <Gold.Chemscore.Lipo.Weighted>
-11.7605

> <Gold.Chemscore.Internal_Hbond.Weighted>
0.0000

> <Gold.Chemscore.DEClash.Weighted>
0.6183

> <Gold.Chemscore.DEInternal.Weighted>
1.3964

> <Gold.Chemscore.Rot.Weighted>
3.9612

> <Gold.Chemscore.Internal.Correction.Weighted>
   9.000000E+99

> <Gold.Protein.RotatedTorsions>
[ 6907 6896 6895 6894 ] final   78.05 input  -60.11 | X-H torsion
[ 7974 7965 7964 7962 ] final  -57.29 input  175.53 | X-H torsion
[ 8008 7997 7996 7995 ] final  -92.12 input   59.86 | X-H torsion
[ 10167 10162 10161 10158 ] final  146.27 input  -65.29 | X-H torsion
[ 10718 10713 10712 10709 ] final  147.24 input   66.30 | X-H torsion
[ 10763 10752 10751 10750 ] final  104.35 input  -60.55 | X-H torsion
[ 11005 11000 10999 10996 ] final  161.20 input  -57.11 | X-H torsion

> <Gold.Protein.ActiveResidues>
 VAL166  LYS551  ARG553  GLY616  TRP617  ASP618  TYR619  PRO620  LYS621  CYS622 
 ASP623  PHE694  ASN695  SER759  ASP760  ASP761  ALA762  ILE779  LEU786  VAL792 
 PHE793  MET794  SER795  GLU796  ALA797  LYS798  CYS799  TRP800  GLU811  SER814 

> <Gold.Protein.RotatedAtoms>
  152.5143  134.3724  159.9322 H   0  0  0  0  0  0  0  0  0  0  0  0  # atno 6907 bound_to 6896
  151.3679  133.3859  159.2704 H   0  0  0  0  0  0  0  0  0  0  0  0  # atno 6908 bound_to 6896
  150.9601  134.9009  159.7783 H   0  0  0  0  0  0  0  0  0  0  0  0  # atno 6909 bound_to 6896
  145.8527  140.8341  142.9977 H   0  0  0  0  0  0  0  0  0  0  0  0  # atno 7974 bound_to 7965
  154.7191  140.0512  157.0623 H   0  0  0  0  0  0  0  0  0  0  0  0  # atno 8008 bound_to 7997
  155.0451  140.3173  155.4692 H   0  0  0  0  0  0  0  0  0  0  0  0  # atno 8009 bound_to 7997
  156.2811  140.2126  156.5576 H   0  0  0  0  0  0  0  0  0  0  0  0  # atno 8010 bound_to 7997
  139.4910  144.5841  151.6813 H   0  0  0  0  0  0  0  0  0  0  0  0  # atno 10167 bound_to 10162
  157.3234  131.0908  151.1222 H   0  0  0  0  0  0  0  0  0  0  0  0  # atno 10718 bound_to 10713
  153.3648  135.3946  155.1745 H   0  0  0  0  0  0  0  0  0  0  0  0  # atno 10763 bound_to 10752
  154.8685  135.3688  154.5053 H   0  0  0  0  0  0  0  0  0  0  0  0  # atno 10764 bound_to 10752
  153.5515  135.7083  153.5649 H   0  0  0  0  0  0  0  0  0  0  0  0  # atno 10765 bound_to 10752
  140.2134  134.8250  157.3145 H   0  0  0  0  0  0  0  0  0  0  0  0  # atno 11005 bound_to 11000
  144.6728  140.0978  143.7462 LP  0  0  0  0  0  0  0  0  0  0  0  0  # atno 17320 bound_to 7965
  145.9338  139.2624  143.1309 LP  0  0  0  0  0  0  0  0  0  0  0  0  # atno 17321 bound_to 7965
  140.5454  144.0512  150.6105 LP  0  0  0  0  0  0  0  0  0  0  0  0  # atno 17342 bound_to 10162
  140.3548  143.2942  152.0448 LP  0  0  0  0  0  0  0  0  0  0  0  0  # atno 17343 bound_to 10162
  157.2498  130.6609  149.5926 LP  0  0  0  0  0  0  0  0  0  0  0  0  # atno 17370 bound_to 10713
  155.9688  130.4542  150.5840 LP  0  0  0  0  0  0  0  0  0  0  0  0  # atno 17371 bound_to 10713
  140.1926  134.4353  155.7707 LP  0  0  0  0  0  0  0  0  0  0  0  0  # atno 17394 bound_to 11000
  141.2225  133.7034  156.8053 LP  0  0  0  0  0  0  0  0  0  0  0  0  # atno 17395 bound_to 11000

$$$$
