AV-unprocessed.smi:1150|AV-procd|sdf|4894|dock6
  -GOLD-   22720 3473D 1   1.00000     0.00000
 Structure written by MMmdl.
 50 51  0  0  0  0  0  0  0  0  1 V2000
  152.4683  138.5738  155.2327 C   0  0  0  0  0  0  0  0  0  0  0  0
  151.3518  138.5845  156.2900 C   0  0  0  0  0  0  0  0  0  0  0  0
  150.5232  139.8912  156.3304 C   0  0  1  0  0  0  0  0  0  0  0  0
  151.3898  140.9761  156.7937 N   0  0  0  0  0  0  0  0  0  0  0  0
  151.1403  141.8110  157.8160 C   0  0  0  0  0  0  0  0  0  0  0  0
  150.0871  141.8195  158.4524 O   0  0  0  0  0  0  0  0  0  0  0  0
  152.2653  142.7764  158.1869 C   0  0  0  0  0  0  0  0  0  0  0  0
  152.5755  142.6390  159.6569 C   0  0  0  0  0  0  0  0  0  0  0  0
  153.0622  141.4812  160.3326 C   0  0  0  0  0  0  0  0  0  0  0  0
  153.3770  140.1314  159.7539 C   0  0  0  0  0  0  0  0  0  0  0  0
  153.2539  141.6933  161.6237 N   0  0  0  0  0  0  0  0  0  0  0  0
  152.9039  142.9804  161.8169 N   0  0  0  0  0  0  0  0  0  0  0  0
  152.9978  143.5485  163.1476 C   0  0  0  0  0  0  0  0  0  0  0  0
  152.4865  143.5826  160.6459 C   0  0  0  0  0  0  0  0  0  0  0  0
  152.0540  145.0127  160.5983 C   0  0  0  0  0  0  0  0  0  0  0  0
  149.8784  140.2624  154.9636 C   0  0  0  0  0  0  0  0  0  0  0  0
  149.0241  141.5536  155.0487 C   0  0  0  0  0  0  0  0  0  0  0  0
  148.3782  141.9211  153.7035 C   0  0  0  0  0  0  0  0  0  0  0  0
  147.5267  140.7666  153.1616 C   0  0  0  0  0  0  0  0  0  0  0  0
  148.3635  139.4870  153.0435 C   0  0  0  0  0  0  0  0  0  0  0  0
  149.0129  139.1149  154.3866 C   0  0  0  0  0  0  0  0  0  0  0  0
  153.0694  137.6683  155.3163 H   0  0  0  0  0  0  0  0  0  0  0  0
  153.1351  139.4273  155.3565 H   0  0  0  0  0  0  0  0  0  0  0  0
  152.0686  138.6045  154.2187 H   0  0  0  0  0  0  0  0  0  0  0  0
  150.6908  137.7342  156.1179 H   0  0  0  0  0  0  0  0  0  0  0  0
  151.8233  138.4145  157.2568 H   0  0  0  0  0  0  0  0  0  0  0  0
  149.7148  139.7391  157.0478 H   0  0  0  0  0  0  0  0  0  0  0  0
  152.2861  141.0585  156.3362 H   0  0  0  0  0  0  0  0  0  0  0  0
  153.1356  142.5652  157.5650 H   0  0  0  0  0  0  0  0  0  0  0  0
  151.9607  143.7938  157.9395 H   0  0  0  0  0  0  0  0  0  0  0  0
  154.3432  140.1427  159.2494 H   0  0  0  0  0  0  0  0  0  0  0  0
  152.6255  139.8316  159.0238 H   0  0  0  0  0  0  0  0  0  0  0  0
  153.4120  139.3604  160.5243 H   0  0  0  0  0  0  0  0  0  0  0  0
  153.4903  144.5199  163.1016 H   0  0  0  0  0  0  0  0  0  0  0  0
  153.5747  142.8959  163.8046 H   0  0  0  0  0  0  0  0  0  0  0  0
  151.9974  143.6746  163.5615 H   0  0  0  0  0  0  0  0  0  0  0  0
  151.7681  145.3094  159.5897 H   0  0  0  0  0  0  0  0  0  0  0  0
  152.8604  145.6715  160.9204 H   0  0  0  0  0  0  0  0  0  0  0  0
  151.1973  145.1798  161.2513 H   0  0  0  0  0  0  0  0  0  0  0  0
  150.6874  140.4527  154.2562 H   0  0  0  0  0  0  0  0  0  0  0  0
  148.2459  141.4276  155.8028 H   0  0  0  0  0  0  0  0  0  0  0  0
  149.6302  142.3990  155.3739 H   0  0  0  0  0  0  0  0  0  0  0  0
  147.7618  142.8131  153.8192 H   0  0  0  0  0  0  0  0  0  0  0  0
  149.1555  142.1737  152.9811 H   0  0  0  0  0  0  0  0  0  0  0  0
  146.6789  140.5920  153.8256 H   0  0  0  0  0  0  0  0  0  0  0  0
  147.1110  141.0328  152.1894 H   0  0  0  0  0  0  0  0  0  0  0  0
  147.7370  138.6654  152.6948 H   0  0  0  0  0  0  0  0  0  0  0  0
  149.1389  139.6255  152.2889 H   0  0  0  0  0  0  0  0  0  0  0  0
  149.6126  138.2198  154.2287 H   0  0  0  0  0  0  0  0  0  0  0  0
  148.2359  138.8447  155.1031 H   0  0  0  0  0  0  0  0  0  0  0  0
  1  2  1  0  0  0  0
  1 22  1  0  0  0  0
  1 23  1  0  0  0  0
  1 24  1  0  0  0  0
  2  3  1  0  0  0  0
  2 25  1  0  0  0  0
  2 26  1  0  0  0  0
  3  4  1  0  0  0  0
  3 16  1  0  0  0  0
  3 27  1  0  0  0  0
  4  5  1  0  0  0  0
  4 28  1  0  0  0  0
  5  6  2  0  0  0  0
  5  7  1  0  0  0  0
  7  8  1  0  0  0  0
  7 29  1  0  0  0  0
  7 30  1  0  0  0  0
  8 14  2  0  0  0  0
  8  9  1  0  0  0  0
  9 10  1  0  0  0  0
  9 11  2  0  0  0  0
 10 31  1  0  0  0  0
 10 32  1  0  0  0  0
 10 33  1  0  0  0  0
 11 12  1  0  0  0  0
 12 13  1  0  0  0  0
 12 14  1  0  0  0  0
 13 34  1  0  0  0  0
 13 35  1  0  0  0  0
 13 36  1  0  0  0  0
 14 15  1  0  0  0  0
 15 37  1  0  0  0  0
 15 38  1  0  0  0  0
 15 39  1  0  0  0  0
 16 21  1  0  0  0  0
 16 17  1  0  0  0  0
 16 40  1  0  0  0  0
 17 18  1  0  0  0  0
 17 41  1  0  0  0  0
 17 42  1  0  0  0  0
 18 19  1  0  0  0  0
 18 43  1  0  0  0  0
 18 44  1  0  0  0  0
 19 20  1  0  0  0  0
 19 45  1  0  0  0  0
 19 46  1  0  0  0  0
 20 21  1  0  0  0  0
 20 47  1  0  0  0  0
 20 48  1  0  0  0  0
 21 49  1  0  0  0  0
 21 50  1  0  0  0  0
M  END
> <s_m_source_file>
AV-unprocessed.smi

> <i_m_source_file_index>
1150

> <i_lp_mmshare_version>
43012

> <i_f3d_flags>
0

> <s_epik_input>
W0NIMl0xW0NIMl1bQ0gyXVtDSDJdW0NIMl1bQ0hdMVtDQEhdKFtDSDJdW0NIM10pW05IXUMoPU8pW0NIMl1jMmMoW0NIM10pbm4oW0NIM10pYzJbQ0gzXQ==

> <s_epik_cmdline>
J2VwaWtfcHl0aG9uJywgJy1waCcsICc3LjAnLCAnLXRuJywgJzgnLCAnLW1hJywgJzIwMCcsICctbWV0YWxfYmluZGluZycsICctaW1hZScsICc8aW5maWxlLm1hZT4nLCAnLW9tYWUnLCAnPG91dGZpbGUubWFlPic=

> <r_lp_tautomer_probability>
1

> <r_epik_Ionization_Penalty>
0.00328092

> <r_epik_Ionization_Penalty_Charging>
0

> <r_epik_Ionization_Penalty_Neutral>
0.00328092

> <r_epik_State_Penalty>
0.00231765

> <r_epik_Charging_Adjusted_Penalty>
0.00231765

> <i_epik_Tot_Q>
0

> <i_epik_Tot_abs_Q>
0

> <r_epik_Metal_State_Penalty>
-0

> <b_epik_Metal_Only>
0

> <s_lp_Force_Field>
OPLS_2005

> <r_lp_Energy>
7.94886

> <b_lp_Chiralities_Consistent>
1

> <s_lp_Variant>
AV-unprocessed.smi:1150-2

> <Gold.Version>
5.8.1

> <Gold.Id.Protein>
6NUR|6NUR_protein|mol2

> <Gold.PLP.Fitness>
47.0992

> <Gold.PLP.PLP>
-47.3710

> <Gold.PLP.part.hbond>
-0.1843

> <Gold.PLP.part.metal>
0.0000

> <Gold.PLP.part.buried>
-1.6869

> <Gold.PLP.part.nonpolar>
-45.5241

> <Gold.PLP.part.repulsive>
0.1311

> <Gold.PLP.ligand.clash>
0.0000

> <Gold.PLP.ligand.torsion>
0.1577

> <Gold.PLP.Chemscore.Hbond>
0.0000

> <Gold.PLP.Chemscore.CHOScore>
0.0000

> <Gold.PLP.Chemscore.Metal>
0.0000

> <Gold.PLP.Chemscore.Internal.Correction>
0.0436

> <Gold.Rescore>
     Score         DG    S(hbond)    S(metal)    S(lipo)     H(rot)  DE(clash)    DE(int)     intcor
     15.86     -16.96       0.00        0.00     129.10       1.42       0.96       0.13       ----

> <Gold.Chemscore.Fitness>
15.8629

> <Gold.Chemscore.DG>
-16.9561

> <Gold.Chemscore.ZeroCoef>
-5.4800

> <Gold.Chemscore.Hbond>
0.0000

> <Gold.Chemscore.Metal>
0.0000

> <Gold.Chemscore.Lipo>
129.0999

> <Gold.Chemscore.Internal_Hbond>
0.0000

> <Gold.Chemscore.DEClash>
0.9615

> <Gold.Chemscore.DEInternal>
0.1317

> <Gold.Chemscore.Rot>
1.4174

> <Gold.Chemscore.Internal.Correction>
   9.000000E+99

> <Gold.Chemscore.Hbond.Weighted>
-0.0000

> <Gold.Chemscore.Metal.Weighted>
-0.0000

> <Gold.Chemscore.Lipo.Weighted>
-15.1047

> <Gold.Chemscore.Internal_Hbond.Weighted>
0.0000

> <Gold.Chemscore.DEClash.Weighted>
0.9615

> <Gold.Chemscore.DEInternal.Weighted>
0.1317

> <Gold.Chemscore.Rot.Weighted>
3.6286

> <Gold.Chemscore.Internal.Correction.Weighted>
   9.000000E+99

> <Gold.Protein.RotatedTorsions>
[ 6907 6896 6895 6894 ] final  -69.46 input  -60.11 | X-H torsion
[ 7974 7965 7964 7962 ] final    6.46 input  175.53 | X-H torsion
[ 8008 7997 7996 7995 ] final  161.62 input   59.86 | X-H torsion
[ 10167 10162 10161 10158 ] final   14.52 input  -65.29 | X-H torsion
[ 10718 10713 10712 10709 ] final -144.55 input   66.30 | X-H torsion
[ 10763 10752 10751 10750 ] final   61.23 input  -60.55 | X-H torsion
[ 11005 11000 10999 10996 ] final  -42.76 input  -57.11 | X-H torsion

> <Gold.Protein.ActiveResidues>
 VAL166  LYS551  ARG553  GLY616  TRP617  ASP618  TYR619  PRO620  LYS621  CYS622 
 ASP623  PHE694  ASN695  SER759  ASP760  ASP761  ALA762  ILE779  LEU786  VAL792 
 PHE793  MET794  SER795  GLU796  ALA797  LYS798  CYS799  TRP800  GLU811  SER814 

> <Gold.Protein.RotatedAtoms>
  150.7304  134.5593  159.5833 H   0  0  0  0  0  0  0  0  0  0  0  0  # atno 6907 bound_to 6896
  152.3061  134.7551  160.0356 H   0  0  0  0  0  0  0  0  0  0  0  0  # atno 6908 bound_to 6896
  151.8115  133.3347  159.3593 H   0  0  0  0  0  0  0  0  0  0  0  0  # atno 6909 bound_to 6896
  146.2434  140.0231  142.8396 H   0  0  0  0  0  0  0  0  0  0  0  0  # atno 7974 bound_to 7965
  156.2090  140.1772  156.7737 H   0  0  0  0  0  0  0  0  0  0  0  0  # atno 8008 bound_to 7997
  154.5695  140.0685  156.8973 H   0  0  0  0  0  0  0  0  0  0  0  0  # atno 8009 bound_to 7997
  155.2699  140.3341  155.4268 H   0  0  0  0  0  0  0  0  0  0  0  0  # atno 8010 bound_to 7997
  140.5930  143.8758  150.6891 H   0  0  0  0  0  0  0  0  0  0  0  0  # atno 10167 bound_to 10162
  156.3715  130.7790  151.1971 H   0  0  0  0  0  0  0  0  0  0  0  0  # atno 10718 bound_to 10713
  152.9944  135.5508  154.6001 H   0  0  0  0  0  0  0  0  0  0  0  0  # atno 10763 bound_to 10752
  154.5344  135.2815  155.1154 H   0  0  0  0  0  0  0  0  0  0  0  0  # atno 10764 bound_to 10752
  154.2456  135.6408  153.5275 H   0  0  0  0  0  0  0  0  0  0  0  0  # atno 10765 bound_to 10752
  141.0338  133.6809  156.2639 H   0  0  0  0  0  0  0  0  0  0  0  0  # atno 11005 bound_to 11000
  145.1223  140.9470  143.4593 LP  0  0  0  0  0  0  0  0  0  0  0  0  # atno 17320 bound_to 7965
  145.0469  139.3214  143.5948 LP  0  0  0  0  0  0  0  0  0  0  0  0  # atno 17321 bound_to 7965
  140.2285  143.3753  152.1585 LP  0  0  0  0  0  0  0  0  0  0  0  0  # atno 17342 bound_to 10162
  139.5239  144.7078  151.5301 LP  0  0  0  0  0  0  0  0  0  0  0  0  # atno 17343 bound_to 10162
  157.7484  131.0371  150.4440 LP  0  0  0  0  0  0  0  0  0  0  0  0  # atno 17370 bound_to 10713
  156.4667  130.4044  149.6543 LP  0  0  0  0  0  0  0  0  0  0  0  0  # atno 17371 bound_to 10713
  140.6360  134.5215  157.5564 LP  0  0  0  0  0  0  0  0  0  0  0  0  # atno 17394 bound_to 11000
  139.9226  134.8119  156.1165 LP  0  0  0  0  0  0  0  0  0  0  0  0  # atno 17395 bound_to 11000

$$$$
