AV-unprocessed.smi:2390|AV-procd|sdf|9476|dock1
  -GOLD-   2272013103D 1   1.00000     0.00000
 Structure written by MMmdl.
 45 46  0  0  0  0  0  0  0  0  1 V2000
  152.9292  141.1475  160.4874 C   0  0  0  0  0  0  0  0  0  0  0  0
  152.5494  142.3324  159.6247 C   0  0  0  0  0  0  0  0  0  0  0  0
  153.0099  143.6286  159.9290 C   0  0  0  0  0  0  0  0  0  0  0  0
  152.6205  144.6851  159.0865 C   0  0  0  0  0  0  0  0  0  0  0  0
  151.7932  144.4042  157.9820 C   0  0  0  0  0  0  0  0  0  0  0  0
  151.3732  143.0754  157.7478 C   0  0  0  0  0  0  0  0  0  0  0  0
  150.5433  142.8976  156.6092 N   0  0  0  0  0  0  0  0  0  0  0  0
  150.0004  141.7576  156.1469 C   0  0  0  0  0  0  0  0  0  0  0  0
  150.1202  140.6495  156.6705 O   0  0  0  0  0  0  0  0  0  0  0  0
  149.3024  141.9766  155.0229 N   0  0  0  0  0  0  0  0  0  0  0  0
  148.6200  140.9566  154.2263 C   0  0  1  0  0  0  0  0  0  0  0  0
  149.4750  139.6770  154.1806 C   0  0  0  0  0  0  0  0  0  0  0  0
  147.1590  140.7462  154.7355 C   0  0  1  0  0  0  0  0  0  0  0  0
  147.1679  139.8599  156.0077 C   0  0  0  0  0  0  0  0  0  0  0  0
  146.4055  142.0113  154.9294 N   0  0  0  0  0  0  0  0  0  0  0  0
  145.1103  141.8033  155.5876 C   0  0  0  0  0  0  0  0  0  0  0  0
  144.3197  143.1091  155.7799 C   0  0  0  0  0  0  0  0  0  0  0  0
  144.1331  143.7465  154.5240 O   0  0  0  0  0  0  0  0  0  0  0  0
  145.3689  144.0387  153.8874 C   0  0  0  0  0  0  0  0  0  0  0  0
  146.1643  142.7391  153.6776 C   0  0  0  0  0  0  0  0  0  0  0  0
  151.7540  142.0634  158.5670 N   0  0  0  0  0  0  0  0  0  0  0  0
  153.6823  141.4220  161.2265 H   0  0  0  0  0  0  0  0  0  0  0  0
  153.3345  140.3430  159.8729 H   0  0  0  0  0  0  0  0  0  0  0  0
  152.0539  140.7691  161.0159 H   0  0  0  0  0  0  0  0  0  0  0  0
  153.6443  143.8109  160.7841 H   0  0  0  0  0  0  0  0  0  0  0  0
  152.9514  145.6944  159.2828 H   0  0  0  0  0  0  0  0  0  0  0  0
  151.4865  145.2044  157.3237 H   0  0  0  0  0  0  0  0  0  0  0  0
  150.3521  143.7332  156.0766 H   0  0  0  0  0  0  0  0  0  0  0  0
  149.2634  142.9209  154.6684 H   0  0  0  0  0  0  0  0  0  0  0  0
  148.5737  141.2676  153.1837 H   0  0  0  0  0  0  0  0  0  0  0  0
  148.9465  138.8677  153.6762 H   0  0  0  0  0  0  0  0  0  0  0  0
  149.7599  139.3296  155.1734 H   0  0  0  0  0  0  0  0  0  0  0  0
  150.4001  139.8544  153.6310 H   0  0  0  0  0  0  0  0  0  0  0  0
  146.6443  140.1739  153.9622 H   0  0  0  0  0  0  0  0  0  0  0  0
  147.7515  138.9509  155.8769 H   0  0  0  0  0  0  0  0  0  0  0  0
  146.1711  139.5121  156.2737 H   0  0  0  0  0  0  0  0  0  0  0  0
  147.5760  140.3945  156.8660 H   0  0  0  0  0  0  0  0  0  0  0  0
  144.5106  141.0992  155.0088 H   0  0  0  0  0  0  0  0  0  0  0  0
  145.2456  141.3679  156.5758 H   0  0  0  0  0  0  0  0  0  0  0  0
  143.3445  142.8997  156.2197 H   0  0  0  0  0  0  0  0  0  0  0  0
  144.8416  143.7804  156.4638 H   0  0  0  0  0  0  0  0  0  0  0  0
  145.1707  144.5199  152.9297 H   0  0  0  0  0  0  0  0  0  0  0  0
  145.9402  144.7471  154.4897 H   0  0  0  0  0  0  0  0  0  0  0  0
  147.1030  143.0240  153.2077 H   0  0  0  0  0  0  0  0  0  0  0  0
  145.6353  142.0977  152.9713 H   0  0  0  0  0  0  0  0  0  0  0  0
  1  2  1  0  0  0  0
  1 22  1  0  0  0  0
  1 23  1  0  0  0  0
  1 24  1  0  0  0  0
  2 21  1  0  0  0  0
  2  3  2  0  0  0  0
  3  4  1  0  0  0  0
  3 25  1  0  0  0  0
  4  5  2  0  0  0  0
  4 26  1  0  0  0  0
  5  6  1  0  0  0  0
  5 27  1  0  0  0  0
  6  7  1  0  0  0  0
  6 21  2  0  0  0  0
  7  8  1  0  0  0  0
  7 28  1  0  0  0  0
  8  9  2  0  0  0  0
  8 10  1  0  0  0  0
 10 11  1  0  0  0  0
 10 29  1  0  0  0  0
 11 12  1  0  0  0  0
 11 13  1  0  0  0  0
 11 30  1  0  0  0  0
 12 31  1  0  0  0  0
 12 32  1  0  0  0  0
 12 33  1  0  0  0  0
 13 14  1  0  0  0  0
 13 15  1  0  0  0  0
 13 34  1  0  0  0  0
 14 35  1  0  0  0  0
 14 36  1  0  0  0  0
 14 37  1  0  0  0  0
 15 20  1  0  0  0  0
 15 16  1  0  0  0  0
 16 17  1  0  0  0  0
 16 38  1  0  0  0  0
 16 39  1  0  0  0  0
 17 18  1  0  0  0  0
 17 40  1  0  0  0  0
 17 41  1  0  0  0  0
 18 19  1  0  0  0  0
 19 20  1  0  0  0  0
 19 42  1  0  0  0  0
 19 43  1  0  0  0  0
 20 44  1  0  0  0  0
 20 45  1  0  0  0  0
M  END
> <s_m_source_file>
AV-unprocessed.smi

> <i_m_source_file_index>
2390

> <i_lp_mmshare_version>
43012

> <i_f3d_flags>
0

> <s_epik_input>
W0NIM11jMVtjSF1bY0hdW2NIXWMobjEpW05IXUMoPU8pW05IXVtDQEhdKFtDSDNdKVtDQEhdKFtDSDNdKU4yW0NIMl1bQ0gyXU9bQ0gyXVtDSDJdMg==

> <s_epik_cmdline>
J2VwaWtfcHl0aG9uJywgJy1waCcsICc3LjAnLCAnLXRuJywgJzgnLCAnLW1hJywgJzIwMCcsICctbWV0YWxfYmluZGluZycsICctaW1hZScsICc8aW5maWxlLm1hZT4nLCAnLW9tYWUnLCAnPG91dGZpbGUubWFlPic=

> <r_epik_Ionization_Penalty>
0.266074

> <r_epik_Ionization_Penalty_Charging>
0

> <r_epik_Ionization_Penalty_Neutral>
0.266074

> <r_epik_State_Penalty>
0.257924

> <r_epik_Charging_Adjusted_Penalty>
0.257924

> <i_epik_Tot_Q>
0

> <i_epik_Tot_abs_Q>
0

> <r_epik_Metal_State_Penalty>
0.257919

> <b_epik_Metal_Only>
0

> <s_lp_Force_Field>
OPLS_2005

> <r_lp_Energy>
36.7319

> <b_lp_Chiralities_Consistent>
1

> <s_lp_Variant>
AV-unprocessed.smi:2390-4

> <Gold.Version>
5.8.1

> <Gold.Id.Protein>
6NUR|6NUR_protein|mol2

> <Gold.PLP.Fitness>
44.4378

> <Gold.PLP.PLP>
-41.2033

> <Gold.PLP.part.hbond>
-2.0000

> <Gold.PLP.part.metal>
0.0000

> <Gold.PLP.part.buried>
-5.8858

> <Gold.PLP.part.nonpolar>
-34.2373

> <Gold.PLP.part.repulsive>
0.6022

> <Gold.PLP.ligand.clash>
0.0056

> <Gold.PLP.ligand.torsion>
0.6239

> <Gold.PLP.Chemscore.Hbond>
1.4552

> <Gold.PLP.Chemscore.CHOScore>
0.0000

> <Gold.PLP.Chemscore.Metal>
0.0000

> <Gold.Chemscore.Hbonds>
donor molecule, donor type, donor heavy atom, donor atom, acceptor molecule, acceptor atom, score
      L1  H     7    28       P1  8028  0.75
      L1  H    10    29       P1  8028  0.56

> <Gold.PLP.Chemscore.Internal.Correction>
0.1222

> <Gold.Rescore>
     Score         DG    S(hbond)    S(metal)    S(lipo)     H(rot)  DE(clash)    DE(int)     intcor
     15.37     -19.42       1.78        0.00      99.95       1.44       0.52       3.54       ----

> <Gold.Chemscore.Fitness>
15.3682

> <Gold.Chemscore.DG>
-19.4203

> <Gold.Chemscore.ZeroCoef>
-5.4800

> <Gold.Chemscore.Hbond>
1.7758

> <Gold.Chemscore.Metal>
0.0000

> <Gold.Chemscore.Lipo>
99.9539

> <Gold.Chemscore.Internal_Hbond>
0.0000

> <Gold.Chemscore.DEClash>
0.5163

> <Gold.Chemscore.DEInternal>
3.5358

> <Gold.Chemscore.Rot>
1.4396

> <Gold.Chemscore.Internal.Correction>
   9.000000E+99

> <Gold.Chemscore.Hbonds>
donor molecule, donor type, donor heavy atom, donor atom, acceptor molecule, acceptor atom, score
      L1  H     7    28       P1  8028  0.74
      L1  H    10    29       P1  8028  0.54

> <Gold.Chemscore.Hbond.Weighted>
-5.9311

> <Gold.Chemscore.Metal.Weighted>
-0.0000

> <Gold.Chemscore.Lipo.Weighted>
-11.6946

> <Gold.Chemscore.Internal_Hbond.Weighted>
0.0000

> <Gold.Chemscore.DEClash.Weighted>
0.5163

> <Gold.Chemscore.DEInternal.Weighted>
3.5358

> <Gold.Chemscore.Rot.Weighted>
3.6855

> <Gold.Chemscore.Internal.Correction.Weighted>
   9.000000E+99

> <Gold.Protein.RotatedTorsions>
[ 6907 6896 6895 6894 ] final   90.27 input  -60.11 | X-H torsion
[ 7974 7965 7964 7962 ] final -142.99 input  175.53 | X-H torsion
[ 8008 7997 7996 7995 ] final    6.68 input   59.86 | X-H torsion
[ 10167 10162 10161 10158 ] final  -91.20 input  -65.29 | X-H torsion
[ 10718 10713 10712 10709 ] final   -4.45 input   66.30 | X-H torsion
[ 10763 10752 10751 10750 ] final -115.75 input  -60.55 | X-H torsion
[ 11005 11000 10999 10996 ] final   96.80 input  -57.11 | X-H torsion

> <Gold.Protein.ActiveResidues>
 VAL166  LYS551  ARG553  GLY616  TRP617  ASP618  TYR619  PRO620  LYS621  CYS622 
 ASP623  PHE694  ASN695  SER759  ASP760  ASP761  ALA762  ILE779  LEU786  VAL792 
 PHE793  MET794  SER795  GLU796  ALA797  LYS798  CYS799  TRP800  GLU811  SER814 

> <Gold.Protein.RotatedAtoms>
  152.5443  134.1837  159.8645 H   0  0  0  0  0  0  0  0  0  0  0  0  # atno 6907 bound_to 6896
  151.1837  133.4702  159.2602 H   0  0  0  0  0  0  0  0  0  0  0  0  # atno 6908 bound_to 6896
  151.1152  135.0061  159.8568 H   0  0  0  0  0  0  0  0  0  0  0  0  # atno 6909 bound_to 6896
  144.8402  140.5890  143.5457 H   0  0  0  0  0  0  0  0  0  0  0  0  # atno 7974 bound_to 7965
  154.7441  140.2754  155.6348 H   0  0  0  0  0  0  0  0  0  0  0  0  # atno 8008 bound_to 7997
  156.2880  140.2691  156.2103 H   0  0  0  0  0  0  0  0  0  0  0  0  # atno 8009 bound_to 7997
  155.0220  140.0371  157.2431 H   0  0  0  0  0  0  0  0  0  0  0  0  # atno 8010 bound_to 7997
  140.3473  143.2910  151.9766 H   0  0  0  0  0  0  0  0  0  0  0  0  # atno 10167 bound_to 10162
  156.7612  130.5270  149.5785 H   0  0  0  0  0  0  0  0  0  0  0  0  # atno 10718 bound_to 10713
  154.8493  135.4370  154.1713 H   0  0  0  0  0  0  0  0  0  0  0  0  # atno 10763 bound_to 10752
  153.2826  135.6955  153.7377 H   0  0  0  0  0  0  0  0  0  0  0  0  # atno 10764 bound_to 10752
  153.6575  135.3440  155.3092 H   0  0  0  0  0  0  0  0  0  0  0  0  # atno 10765 bound_to 10752
  139.8779  134.8969  156.4213 H   0  0  0  0  0  0  0  0  0  0  0  0  # atno 11005 bound_to 11000
  145.4710  139.1503  143.3814 LP  0  0  0  0  0  0  0  0  0  0  0  0  # atno 17320 bound_to 7965
  146.2696  140.4843  142.8820 LP  0  0  0  0  0  0  0  0  0  0  0  0  # atno 17321 bound_to 7965
  139.4831  144.6106  151.7441 LP  0  0  0  0  0  0  0  0  0  0  0  0  # atno 17342 bound_to 10162
  140.5252  144.0816  150.6035 LP  0  0  0  0  0  0  0  0  0  0  0  0  # atno 17343 bound_to 10162
  156.1338  130.6196  151.0371 LP  0  0  0  0  0  0  0  0  0  0  0  0  # atno 17370 bound_to 10713
  157.6734  131.0856  150.7556 LP  0  0  0  0  0  0  0  0  0  0  0  0  # atno 17371 bound_to 10713
  140.9132  133.7697  155.9816 LP  0  0  0  0  0  0  0  0  0  0  0  0  # atno 17394 bound_to 11000
  140.8523  134.2939  157.5270 LP  0  0  0  0  0  0  0  0  0  0  0  0  # atno 17395 bound_to 11000

$$$$
