AV-unprocessed.smi:168|AV-procd|sdf|1396|dock1
  -GOLD-   2262019143D 1   1.00000     0.00000
 Structure written by MMmdl.
 62 66  0  0  0  0  0  0  0  0  1 V2000
  152.1402  138.8382  159.1534 C   0  0  0  0  0  0  0  0  0  0  0  0
  152.5676  140.2911  158.8812 C   0  0  0  0  0  0  0  0  0  0  0  0
  153.2762  140.8445  160.1291 C   0  0  0  0  0  0  0  0  0  0  0  0
  151.3777  141.1769  158.4759 C   0  0  2  0  0  0  0  0  0  0  0  0
  151.2239  141.3306  157.0317 N   0  0  0  0  0  0  0  0  0  0  0  0
  150.3532  140.4115  156.3855 C   0  0  0  0  0  0  0  0  0  0  0  0
  150.4125  140.3803  155.0303 N   0  0  0  0  0  0  0  0  0  0  0  0
  149.6460  139.5462  154.3229 C   0  0  0  0  0  0  0  0  0  0  0  0
  148.7481  138.6653  154.7629 N   0  0  0  0  0  0  0  0  0  0  0  0
  148.6646  138.6897  156.1230 C   0  0  0  0  0  0  0  0  0  0  0  0
  149.4245  139.5170  157.0002 C   0  0  0  0  0  0  0  0  0  0  0  0
  149.0707  139.2447  158.3174 N   0  0  0  0  0  0  0  0  0  0  0  0
  148.1662  138.3095  158.2240 C   0  0  0  0  0  0  0  0  0  0  0  0
  147.8381  137.9382  156.9407 N   0  0  0  0  0  0  0  0  0  0  0  0
  146.9090  136.9156  156.5551 C   0  0  0  0  0  0  0  0  0  0  0  0
  147.3556  135.7204  155.7049 C   0  0  0  0  0  0  0  0  0  0  0  0
  146.0106  135.7467  154.9438 C   0  0  0  0  0  0  0  0  0  0  0  0
  146.0908  135.6031  153.4123 C   0  0  0  0  0  0  0  0  0  0  0  0
  146.7382  136.6959  152.7909 O   0  0  0  0  0  0  0  0  0  0  0  0
  144.9554  134.7126  155.3895 C   0  0  0  0  0  0  0  0  0  0  0  0
  145.2390  133.3977  154.9563 O   0  0  0  0  0  0  0  0  0  0  0  0
  145.8364  137.1820  155.4917 C   0  0  0  0  0  0  0  0  0  0  0  0
  150.6614  142.6601  157.2063 C   0  0  0  0  0  0  0  0  0  0  0  0
  151.4321  142.7235  158.5350 C   0  0  0  0  0  0  0  0  0  0  0  0
  152.8169  143.4064  158.4518 C   0  0  0  0  0  0  0  0  0  0  0  0
  152.7205  144.9331  158.2880 C   0  0  0  0  0  0  0  0  0  0  0  0
  151.9104  145.5629  159.4285 C   0  0  0  0  0  0  0  0  0  0  0  0
  150.5408  144.8873  159.5759 C   0  0  0  0  0  0  0  0  0  0  0  0
  150.6837  143.3625  159.7156 C   0  0  0  0  0  0  0  0  0  0  0  0
  151.3667  138.7895  159.9205 H   0  0  0  0  0  0  0  0  0  0  0  0
  152.9839  138.2368  159.4927 H   0  0  0  0  0  0  0  0  0  0  0  0
  151.7497  138.3594  158.2564 H   0  0  0  0  0  0  0  0  0  0  0  0
  153.2983  140.2740  158.0718 H   0  0  0  0  0  0  0  0  0  0  0  0
  152.6047  140.8576  160.9880 H   0  0  0  0  0  0  0  0  0  0  0  0
  153.6356  141.8610  159.9826 H   0  0  0  0  0  0  0  0  0  0  0  0
  154.1396  140.2335  160.3934 H   0  0  0  0  0  0  0  0  0  0  0  0
  150.4530  140.8321  158.9388 H   0  0  0  0  0  0  0  0  0  0  0  0
  149.7693  139.5932  153.2510 H   0  0  0  0  0  0  0  0  0  0  0  0
  147.7062  137.8682  159.0961 H   0  0  0  0  0  0  0  0  0  0  0  0
  146.4500  136.5720  157.4829 H   0  0  0  0  0  0  0  0  0  0  0  0
  148.2169  135.9592  155.0797 H   0  0  0  0  0  0  0  0  0  0  0  0
  147.5388  134.8111  156.2783 H   0  0  0  0  0  0  0  0  0  0  0  0
  146.6315  134.6972  153.1362 H   0  0  0  0  0  0  0  0  0  0  0  0
  145.0938  135.5182  152.9784 H   0  0  0  0  0  0  0  0  0  0  0  0
  147.5453  136.3888  152.4067 H   0  0  0  0  0  0  0  0  0  0  0  0
  144.8718  134.6901  156.4766 H   0  0  0  0  0  0  0  0  0  0  0  0
  143.9695  134.9797  155.0071 H   0  0  0  0  0  0  0  0  0  0  0  0
  144.4226  132.9343  154.8475 H   0  0  0  0  0  0  0  0  0  0  0  0
  144.8490  137.3987  155.9005 H   0  0  0  0  0  0  0  0  0  0  0  0
  146.1371  137.9566  154.7851 H   0  0  0  0  0  0  0  0  0  0  0  0
  150.9913  143.3727  156.4503 H   0  0  0  0  0  0  0  0  0  0  0  0
  149.5781  142.6759  157.3324 H   0  0  0  0  0  0  0  0  0  0  0  0
  153.4041  143.1946  159.3438 H   0  0  0  0  0  0  0  0  0  0  0  0
  153.3940  143.0015  157.6196 H   0  0  0  0  0  0  0  0  0  0  0  0
  153.7197  145.3681  158.2592 H   0  0  0  0  0  0  0  0  0  0  0  0
  152.2541  145.1733  157.3323 H   0  0  0  0  0  0  0  0  0  0  0  0
  152.4647  145.4642  160.3626 H   0  0  0  0  0  0  0  0  0  0  0  0
  151.7850  146.6319  159.2538 H   0  0  0  0  0  0  0  0  0  0  0  0
  150.0185  145.2930  160.4428 H   0  0  0  0  0  0  0  0  0  0  0  0
  149.9234  145.1185  158.7073 H   0  0  0  0  0  0  0  0  0  0  0  0
  149.6900  142.9242  159.8138 H   0  0  0  0  0  0  0  0  0  0  0  0
  151.1972  143.1347  160.6504 H   0  0  0  0  0  0  0  0  0  0  0  0
  1  2  1  0  0  0  0
  1 30  1  0  0  0  0
  1 31  1  0  0  0  0
  1 32  1  0  0  0  0
  2  3  1  0  0  0  0
  2  4  1  0  0  0  0
  2 33  1  0  0  0  0
  3 34  1  0  0  0  0
  3 35  1  0  0  0  0
  3 36  1  0  0  0  0
  4 24  1  0  0  0  0
  4  5  1  0  0  0  0
  4 37  1  0  0  0  0
  5  6  1  0  0  0  0
  5 23  1  0  0  0  0
  6 11  1  0  0  0  0
  6  7  2  0  0  0  0
  7  8  1  0  0  0  0
  8  9  2  0  0  0  0
  8 38  1  0  0  0  0
  9 10  1  0  0  0  0
 10 14  1  0  0  0  0
 10 11  2  0  0  0  0
 11 12  1  0  0  0  0
 12 13  2  0  0  0  0
 13 14  1  0  0  0  0
 13 39  1  0  0  0  0
 14 15  1  0  0  0  0
 15 22  1  0  0  0  0
 15 16  1  0  0  0  0
 15 40  1  0  0  0  0
 16 17  1  0  0  0  0
 16 41  1  0  0  0  0
 16 42  1  0  0  0  0
 17 18  1  0  0  0  0
 17 20  1  0  0  0  0
 17 22  1  0  0  0  0
 18 19  1  0  0  0  0
 18 43  1  0  0  0  0
 18 44  1  0  0  0  0
 19 45  1  0  0  0  0
 20 21  1  0  0  0  0
 20 46  1  0  0  0  0
 20 47  1  0  0  0  0
 21 48  1  0  0  0  0
 22 49  1  0  0  0  0
 22 50  1  0  0  0  0
 23 24  1  0  0  0  0
 23 51  1  0  0  0  0
 23 52  1  0  0  0  0
 24 29  1  0  0  0  0
 24 25  1  0  0  0  0
 25 26  1  0  0  0  0
 25 53  1  0  0  0  0
 25 54  1  0  0  0  0
 26 27  1  0  0  0  0
 26 55  1  0  0  0  0
 26 56  1  0  0  0  0
 27 28  1  0  0  0  0
 27 57  1  0  0  0  0
 27 58  1  0  0  0  0
 28 29  1  0  0  0  0
 28 59  1  0  0  0  0
 28 60  1  0  0  0  0
 29 61  1  0  0  0  0
 29 62  1  0  0  0  0
M  END
> <s_m_source_file>
AV-unprocessed.smi

> <i_m_source_file_index>
168

> <i_lp_mmshare_version>
43012

> <i_f3d_flags>
0

> <s_epik_input>
W0NIMl0xW0NIMl1bQ0gyXVtDSDJdW0NIMl1DMTJbQ0BIXShbQ0hdKFtDSDNdKVtDSDNdKU4oW0NIMl0yKWMobltjSF1uMyljKGMzNCluW2NIXW40W0NIXShbQ0gyXTUpW0NIMl1DNShbQ0gyXVtPSF0pW0NIMl1bT0hd

> <s_epik_cmdline>
J2VwaWtfcHl0aG9uJywgJy1waCcsICc3LjAnLCAnLXRuJywgJzgnLCAnLW1hJywgJzIwMCcsICctbWV0YWxfYmluZGluZycsICctaW1hZScsICc8aW5maWxlLm1hZT4nLCAnLW9tYWUnLCAnPG91dGZpbGUubWFlPic=

> <r_lp_tautomer_probability>
1

> <r_epik_Ionization_Penalty>
0.00324652

> <r_epik_Ionization_Penalty_Charging>
0

> <r_epik_Ionization_Penalty_Neutral>
0.00324652

> <r_epik_State_Penalty>
0.00223464

> <r_epik_Charging_Adjusted_Penalty>
0.00223464

> <i_epik_Tot_Q>
0

> <i_epik_Tot_abs_Q>
0

> <r_epik_Metal_State_Penalty>
-0

> <b_epik_Metal_Only>
0

> <s_lp_Force_Field>
OPLS_2005

> <r_lp_Energy>
66.0346

> <b_lp_Chiralities_Consistent>
1

> <s_lp_Variant>
AV-unprocessed.smi:168-1

> <Gold.Version>
5.8.1

> <Gold.Id.Protein>
6NUR|6NUR_protein|mol2

> <Gold.PLP.Fitness>
45.6146

> <Gold.PLP.PLP>
-36.3274

> <Gold.PLP.part.hbond>
-3.3675

> <Gold.PLP.part.metal>
0.0000

> <Gold.PLP.part.buried>
-4.0205

> <Gold.PLP.part.nonpolar>
-29.3519

> <Gold.PLP.part.repulsive>
0.2285

> <Gold.PLP.ligand.clash>
0.0000

> <Gold.PLP.ligand.torsion>
1.5835

> <Gold.PLP.Chemscore.Hbond>
2.8500

> <Gold.PLP.Chemscore.CHOScore>
1.0000

> <Gold.PLP.Chemscore.Metal>
0.0000

> <Gold.Chemscore.Hbonds>
donor molecule, donor type, donor heavy atom, donor atom, acceptor molecule, acceptor atom, score
      L1  H    19    45       P1  7948  0.94
      L1  H    21    48       P1 10957  0.83
      P1  H  7989  7998       L1     7  0.80
      L1  C     8    38       P1  7957  1.00

> <Gold.PLP.Chemscore.Internal.Correction>
0.9043

> <Gold.Rescore>
     Score         DG    S(hbond)    S(metal)    S(lipo)     H(rot)  DE(clash)    DE(int)     intcor
     14.59     -17.57       2.19        0.00     109.08       3.12       0.69       2.29       ----

> <Gold.Chemscore.Fitness>
14.5915

> <Gold.Chemscore.DG>
-17.5713

> <Gold.Chemscore.ZeroCoef>
-5.4800

> <Gold.Chemscore.Hbond>
2.1889

> <Gold.Chemscore.Metal>
0.0000

> <Gold.Chemscore.Lipo>
109.0825

> <Gold.Chemscore.Internal_Hbond>
0.0000

> <Gold.Chemscore.DEClash>
0.6922

> <Gold.Chemscore.DEInternal>
2.2876

> <Gold.Chemscore.Rot>
3.1181

> <Gold.Chemscore.Internal.Correction>
   9.000000E+99

> <Gold.Chemscore.Hbonds>
donor molecule, donor type, donor heavy atom, donor atom, acceptor molecule, acceptor atom, score
      L1  H    19    45       P1  7948  0.90
      L1  H    21    48       P1 10957  0.80
      P1  H  7989  7998       L1     7  0.11

> <Gold.Chemscore.Hbond.Weighted>
-7.3109

> <Gold.Chemscore.Metal.Weighted>
-0.0000

> <Gold.Chemscore.Lipo.Weighted>
-12.7627

> <Gold.Chemscore.Internal_Hbond.Weighted>
0.0000

> <Gold.Chemscore.DEClash.Weighted>
0.6922

> <Gold.Chemscore.DEInternal.Weighted>
2.2876

> <Gold.Chemscore.Rot.Weighted>
7.9823

> <Gold.Chemscore.Internal.Correction.Weighted>
   9.000000E+99

> <Gold.Protein.RotatedTorsions>
[ 6907 6896 6895 6894 ] final   32.97 input  -60.11 | X-H torsion
[ 7974 7965 7964 7962 ] final  -58.03 input  175.53 | X-H torsion
[ 8008 7997 7996 7995 ] final -178.02 input   59.86 | X-H torsion
[ 10167 10162 10161 10158 ] final  156.14 input  -65.29 | X-H torsion
[ 10718 10713 10712 10709 ] final   -6.32 input   66.30 | X-H torsion
[ 10763 10752 10751 10750 ] final   -1.30 input  -60.55 | X-H torsion
[ 11005 11000 10999 10996 ] final  110.61 input  -57.11 | X-H torsion

> <Gold.Protein.ActiveResidues>
 VAL166  LYS551  ARG553  GLY616  TRP617  ASP618  TYR619  PRO620  LYS621  CYS622 
 ASP623  PHE694  ASN695  SER759  ASP760  ASP761  ALA762  ILE779  LEU786  VAL792 
 PHE793  MET794  SER795  GLU796  ALA797  LYS798  CYS799  TRP800  GLU811  SER814 

> <Gold.Protein.RotatedAtoms>
  152.0820  134.9465  160.0573 H   0  0  0  0  0  0  0  0  0  0  0  0  # atno 6907 bound_to 6896
  152.0750  133.4120  159.4484 H   0  0  0  0  0  0  0  0  0  0  0  0  # atno 6908 bound_to 6896
  150.6836  134.2968  159.4733 H   0  0  0  0  0  0  0  0  0  0  0  0  # atno 6909 bound_to 6896
  145.8441  140.8397  143.0019 H   0  0  0  0  0  0  0  0  0  0  0  0  # atno 7974 bound_to 7965
  156.0138  140.1246  157.0427 H   0  0  0  0  0  0  0  0  0  0  0  0  # atno 8008 bound_to 7997
  154.4286  140.1082  156.5937 H   0  0  0  0  0  0  0  0  0  0  0  0  # atno 8009 bound_to 7997
  155.6042  140.3471  155.4605 H   0  0  0  0  0  0  0  0  0  0  0  0  # atno 8010 bound_to 7997
  139.4821  144.5035  151.8132 H   0  0  0  0  0  0  0  0  0  0  0  0  # atno 10167 bound_to 10162
  156.7336  130.5187  149.5840 H   0  0  0  0  0  0  0  0  0  0  0  0  # atno 10718 bound_to 10713
  153.3431  135.6981  153.6851 H   0  0  0  0  0  0  0  0  0  0  0  0  # atno 10763 bound_to 10752
  153.5608  135.3535  155.2799 H   0  0  0  0  0  0  0  0  0  0  0  0  # atno 10764 bound_to 10752
  154.8640  135.4249  154.2648 H   0  0  0  0  0  0  0  0  0  0  0  0  # atno 10765 bound_to 10752
  139.8885  134.9488  156.6305 H   0  0  0  0  0  0  0  0  0  0  0  0  # atno 11005 bound_to 11000
  144.6732  140.0855  143.7467 LP  0  0  0  0  0  0  0  0  0  0  0  0  # atno 17320 bound_to 7965
  145.9432  139.2683  143.1256 LP  0  0  0  0  0  0  0  0  0  0  0  0  # atno 17321 bound_to 7965
  140.4531  144.1827  150.5899 LP  0  0  0  0  0  0  0  0  0  0  0  0  # atno 17342 bound_to 10162
  140.4564  143.2466  151.9279 LP  0  0  0  0  0  0  0  0  0  0  0  0  # atno 17343 bound_to 10162
  156.1512  130.6311  151.0598 LP  0  0  0  0  0  0  0  0  0  0  0  0  # atno 17370 bound_to 10713
  157.6848  131.0828  150.7271 LP  0  0  0  0  0  0  0  0  0  0  0  0  # atno 17371 bound_to 10713
  140.7670  133.8770  155.8462 LP  0  0  0  0  0  0  0  0  0  0  0  0  # atno 17394 bound_to 11000
  140.9874  134.1324  157.4439 LP  0  0  0  0  0  0  0  0  0  0  0  0  # atno 17395 bound_to 11000

$$$$
