AV-unprocessed.smi:21|AV-procd|sdf|151|dock7
  -GOLD-   2262015373D 1   1.00000     0.00000
 Structure written by MMmdl.
 62 65  0  0  0  0  0  0  0  0  2 V2000
  144.0254  134.9310  151.8624 C   0  0  0  0  0  0  0  0  0  0  0  0
  144.4258  133.5834  151.6678 O   0  0  0  0  0  0  0  0  0  0  0  0
  145.6480  133.4465  150.9546 C   0  0  1  0  0  0  0  0  0  0  0  0
  146.8008  133.6703  151.9253 C   0  0  0  0  0  0  0  0  0  0  0  0
  146.9867  132.3027  152.5887 C   0  0  2  0  0  0  0  0  0  0  0  0
  148.3913  132.0817  153.1865 C   0  0  0  0  0  0  0  0  0  0  0  0
  148.3445  131.5289  154.5421 N   0  0  0  0  0  0  0  0  0  0  0  0
  147.5570  130.3217  154.7591 C   0  0  0  0  0  0  0  0  0  0  0  0
  148.7220  132.2952  155.6053 C   0  0  0  0  0  0  0  0  0  0  0  0
  149.8209  133.0847  155.4664 N   0  0  0  0  0  0  0  0  0  0  0  0
  150.2400  133.8616  156.4683 C   0  0  0  0  0  0  0  0  0  0  0  0
  149.7125  134.0092  157.6829 N   0  0  0  0  0  0  0  0  0  0  0  0
  148.6080  133.2263  157.8376 C   0  0  0  0  0  0  0  0  0  0  0  0
  148.0492  132.3445  156.8661 C   0  0  0  0  0  0  0  0  0  0  0  0
  146.9217  131.7284  157.4020 N   0  0  0  0  0  0  0  0  0  0  0  0
  146.8265  132.2081  158.6112 C   0  0  0  0  0  0  0  0  0  0  0  0
  147.7932  133.1248  158.9508 N   0  0  0  0  0  0  0  0  0  0  0  0
  147.9275  133.8259  160.2153 C   0  0  0  0  0  0  0  0  0  0  0  0
  146.5753  133.9750  160.9598 C   0  0  1  0  0  0  0  0  0  0  0  0
  146.1803  132.6635  161.6774 C   0  0  0  0  0  0  0  0  0  0  0  0
  144.8391  132.3141  161.4055 O   0  0  0  0  0  0  0  0  0  0  0  0
  146.5291  135.1969  161.9182 C   0  0  1  0  0  0  0  0  0  0  0  0
  147.6468  135.2892  162.9518 C   0  0  0  0  0  0  0  0  0  0  0  0
  147.7298  136.7880  163.2026 C   0  0  0  0  0  0  0  0  0  0  0  0
  147.5584  137.3290  161.9036 O   0  0  0  0  0  0  0  0  0  0  0  0
  146.5501  136.5774  161.2366 C   0  0  0  0  0  0  0  0  0  0  0  0
  146.6891  131.3231  151.5186 N   0  3  1  0  0  0  0  0  0  0  0  0
  146.1255  130.0452  152.0065 C   0  0  0  0  0  0  0  0  0  0  0  0
  145.8485  131.9929  150.4967 C   0  0  0  0  0  0  0  0  0  0  0  0
  145.6945  134.1563  150.1270 H   0  0  0  0  0  0  0  0  0  0  0  0
  146.2297  132.1978  153.3684 H   0  0  0  0  0  0  0  0  0  0  0  0
  143.0742  134.9546  152.3941 H   0  0  0  0  0  0  0  0  0  0  0  0
  143.8922  135.4567  150.9168 H   0  0  0  0  0  0  0  0  0  0  0  0
  144.7568  135.4744  152.4621 H   0  0  0  0  0  0  0  0  0  0  0  0
  147.6966  133.9392  151.3637 H   0  0  0  0  0  0  0  0  0  0  0  0
  146.6054  134.4693  152.6415 H   0  0  0  0  0  0  0  0  0  0  0  0
  148.9391  131.3725  152.5655 H   0  0  0  0  0  0  0  0  0  0  0  0
  148.9724  133.0029  153.1386 H   0  0  0  0  0  0  0  0  0  0  0  0
  147.9975  129.7047  155.5428 H   0  0  0  0  0  0  0  0  0  0  0  0
  147.5159  129.7179  153.8520 H   0  0  0  0  0  0  0  0  0  0  0  0
  146.5336  130.5738  155.0388 H   0  0  0  0  0  0  0  0  0  0  0  0
  151.1240  134.4492  156.2681 H   0  0  0  0  0  0  0  0  0  0  0  0
  146.0377  131.9126  159.2878 H   0  0  0  0  0  0  0  0  0  0  0  0
  148.6476  133.2836  160.8280 H   0  0  0  0  0  0  0  0  0  0  0  0
  148.3753  134.7959  160.0033 H   0  0  0  0  0  0  0  0  0  0  0  0
  145.8145  134.1592  160.1994 H   0  0  0  0  0  0  0  0  0  0  0  0
  146.8011  131.8318  161.3452 H   0  0  0  0  0  0  0  0  0  0  0  0
  146.3198  132.7524  162.7551 H   0  0  0  0  0  0  0  0  0  0  0  0
  144.5109  132.8839  160.7263 H   0  0  0  0  0  0  0  0  0  0  0  0
  145.5901  135.1568  162.4720 H   0  0  0  0  0  0  0  0  0  0  0  0
  147.4355  134.7210  163.8580 H   0  0  0  0  0  0  0  0  0  0  0  0
  148.5991  134.9438  162.5523 H   0  0  0  0  0  0  0  0  0  0  0  0
  146.9197  137.1234  163.8524 H   0  0  0  0  0  0  0  0  0  0  0  0
  148.6790  137.0915  163.6448 H   0  0  0  0  0  0  0  0  0  0  0  0
  146.7584  136.5382  160.1680 H   0  0  0  0  0  0  0  0  0  0  0  0
  145.5877  137.0758  161.3591 H   0  0  0  0  0  0  0  0  0  0  0  0
  145.1614  130.2015  152.4927 H   0  0  0  0  0  0  0  0  0  0  0  0
  146.7979  129.5734  152.7234 H   0  0  0  0  0  0  0  0  0  0  0  0
  145.9821  129.3520  151.1770 H   0  0  0  0  0  0  0  0  0  0  0  0
  144.9026  131.4766  150.3294 H   0  0  0  0  0  0  0  0  0  0  0  0
  146.3961  131.9709  149.5540 H   0  0  0  0  0  0  0  0  0  0  0  0
  147.5675  131.1133  151.0662 H   0  0  0  0  0  0  0  0  0  0  0  0
  1  2  1  0  0  0  0
  1 32  1  0  0  0  0
  1 33  1  0  0  0  0
  1 34  1  0  0  0  0
  2  3  1  0  0  0  0
  3 30  1  0  0  0  0
  3 29  1  0  0  0  0
  3  4  1  0  0  0  0
  4  5  1  0  0  0  0
  4 35  1  0  0  0  0
  4 36  1  0  0  0  0
  5 31  1  0  0  0  0
  5  6  1  0  0  0  0
  5 27  1  0  0  0  0
  6  7  1  0  0  0  0
  6 37  1  0  0  0  0
  6 38  1  0  0  0  0
  7  8  1  0  0  0  0
  7  9  1  0  0  0  0
  8 39  1  0  0  0  0
  8 40  1  0  0  0  0
  8 41  1  0  0  0  0
  9 14  1  0  0  0  0
  9 10  2  0  0  0  0
 10 11  1  0  0  0  0
 11 12  2  0  0  0  0
 11 42  1  0  0  0  0
 12 13  1  0  0  0  0
 13 17  1  0  0  0  0
 13 14  2  0  0  0  0
 14 15  1  0  0  0  0
 15 16  2  0  0  0  0
 16 17  1  0  0  0  0
 16 43  1  0  0  0  0
 17 18  1  0  0  0  0
 18 19  1  0  0  0  0
 18 44  1  0  0  0  0
 18 45  1  0  0  0  0
 19 20  1  0  0  0  0
 19 22  1  0  0  0  0
 19 46  1  0  0  0  0
 20 21  1  0  0  0  0
 20 47  1  0  0  0  0
 20 48  1  0  0  0  0
 21 49  1  0  0  0  0
 22 26  1  0  0  0  0
 22 23  1  0  0  0  0
 22 50  1  0  0  0  0
 23 24  1  0  0  0  0
 23 51  1  0  0  0  0
 23 52  1  0  0  0  0
 24 25  1  0  0  0  0
 24 53  1  0  0  0  0
 24 54  1  0  0  0  0
 25 26  1  0  0  0  0
 26 55  1  0  0  0  0
 26 56  1  0  0  0  0
 27 28  1  0  0  0  0
 27 29  1  0  0  0  0
 27 62  1  0  0  0  0
 28 57  1  0  0  0  0
 28 58  1  0  0  0  0
 28 59  1  0  0  0  0
 29 60  1  0  0  0  0
 29 61  1  0  0  0  0
M  CHG  1  27   1
M  END
> <s_m_source_file>
AV-unprocessed.smi

> <i_m_source_file_index>
21

> <i_lp_mmshare_version>
43012

> <i_f3d_flags>
0

> <s_epik_input>
W0NIM11PW0NASF0xW0NIMl1bQ0BIXShOKFtDSDNdKVtDSDJdMSlbQ0gyXU4oW0NIM10pYyhuW2NIXW4yKWMoYzIzKW5bY0hdbjNbQ0gyXVtDQEhdKFtDSDJdW09IXSlbQ0BASF00W0NIMl1bQ0gyXU9bQ0gyXTQ=

> <s_epik_cmdline>
J2VwaWtfcHl0aG9uJywgJy1waCcsICc3LjAnLCAnLXRuJywgJzgnLCAnLW1hJywgJzIwMCcsICctbWV0YWxfYmluZGluZycsICctaW1hZScsICc8aW5maWxlLm1hZT4nLCAnLW9tYWUnLCAnPG91dGZpbGUubWFlPic=

> <r_lp_tautomer_probability>
1

> <r_epik_Ionization_Penalty>
0.0157465

> <r_epik_Ionization_Penalty_Charging>
0.015354

> <r_epik_Ionization_Penalty_Neutral>
0.000392529

> <r_epik_State_Penalty>
0.0120612

> <r_epik_Charging_Adjusted_Penalty>
0.0274152

> <i_epik_Tot_Q>
1

> <i_epik_Tot_abs_Q>
1

> <r_epik_Metal_State_Penalty>
0.0121253

> <b_epik_Metal_Only>
0

> <s_lp_Force_Field>
OPLS_2005

> <r_lp_Energy>
59.9021

> <b_lp_Chiralities_Consistent>
1

> <s_lp_Variant>
AV-unprocessed.smi:21-31

> <Gold.Version>
5.8.1

> <Gold.Id.Protein>
6NUR|6NUR_protein|mol2

> <Gold.PLP.Fitness>
48.5011

> <Gold.PLP.PLP>
-43.3239

> <Gold.PLP.part.hbond>
-4.0000

> <Gold.PLP.part.metal>
0.0000

> <Gold.PLP.part.buried>
-5.3850

> <Gold.PLP.part.nonpolar>
-34.3562

> <Gold.PLP.part.repulsive>
0.1387

> <Gold.PLP.ligand.clash>
0.0000

> <Gold.PLP.ligand.torsion>
2.6694

> <Gold.PLP.Chemscore.Hbond>
3.3857

> <Gold.PLP.Chemscore.CHOScore>
0.0000

> <Gold.PLP.Chemscore.Metal>
0.0000

> <Gold.Chemscore.Hbonds>
donor molecule, donor type, donor heavy atom, donor atom, acceptor molecule, acceptor atom, score
      L1  H    27    62       P1 10747  1.00
      P1  H  6896  6909       L1    12  1.00
      P1  H  6931  6943       L1    25  0.67
      P1  H  6934  6947       L1    25  0.52

> <Gold.PLP.Chemscore.Internal.Correction>
0.3590

> <Gold.Rescore>
     Score         DG    S(hbond)    S(metal)    S(lipo)     H(rot)  DE(clash)    DE(int)     intcor
     16.54     -19.49       2.87        0.00     104.97       3.08       0.08       2.87       ----

> <Gold.Chemscore.Fitness>
16.5389

> <Gold.Chemscore.DG>
-19.4895

> <Gold.Chemscore.ZeroCoef>
-5.4800

> <Gold.Chemscore.Hbond>
2.8750

> <Gold.Chemscore.Metal>
0.0000

> <Gold.Chemscore.Lipo>
104.9681

> <Gold.Chemscore.Internal_Hbond>
0.0000

> <Gold.Chemscore.DEClash>
0.0797

> <Gold.Chemscore.DEInternal>
2.8709

> <Gold.Chemscore.Rot>
3.0758

> <Gold.Chemscore.Internal.Correction>
   9.000000E+99

> <Gold.Chemscore.Hbonds>
donor molecule, donor type, donor heavy atom, donor atom, acceptor molecule, acceptor atom, score
      L1  H    27    62       P1 10747  1.00
      P1  H  6896  6909       L1    12  0.61
      P1  H  6931  6943       L1    25  0.08
      P1  H  6934  6947       L1    25  0.08

> <Gold.Chemscore.Hbond.Weighted>
-9.6024

> <Gold.Chemscore.Metal.Weighted>
-0.0000

> <Gold.Chemscore.Lipo.Weighted>
-12.2813

> <Gold.Chemscore.Internal_Hbond.Weighted>
0.0000

> <Gold.Chemscore.DEClash.Weighted>
0.0797

> <Gold.Chemscore.DEInternal.Weighted>
2.8709

> <Gold.Chemscore.Rot.Weighted>
7.8741

> <Gold.Chemscore.Internal.Correction.Weighted>
   9.000000E+99

> <Gold.Protein.RotatedTorsions>
[ 6907 6896 6895 6894 ] final   -2.31 input  -60.11 | X-H torsion
[ 7974 7965 7964 7962 ] final  114.31 input  175.53 | X-H torsion
[ 8008 7997 7996 7995 ] final -113.90 input   59.86 | X-H torsion
[ 10167 10162 10161 10158 ] final -128.30 input  -65.29 | X-H torsion
[ 10718 10713 10712 10709 ] final  -26.33 input   66.30 | X-H torsion
[ 10763 10752 10751 10750 ] final   92.38 input  -60.55 | X-H torsion
[ 11005 11000 10999 10996 ] final  139.39 input  -57.11 | X-H torsion

> <Gold.Protein.ActiveResidues>
 VAL166  LYS551  ARG553  GLY616  TRP617  ASP618  TYR619  PRO620  LYS621  CYS622 
 ASP623  PHE694  ASN695  SER759  ASP760  ASP761  ALA762  ILE779  LEU786  VAL792 
 PHE793  MET794  SER795  GLU796  ALA797  LYS798  CYS799  TRP800  GLU811  SER814 

> <Gold.Protein.RotatedAtoms>
  151.5319  135.1068  159.9904 H   0  0  0  0  0  0  0  0  0  0  0  0  # atno 6907 bound_to 6896
  152.4574  133.7748  159.6829 H   0  0  0  0  0  0  0  0  0  0  0  0  # atno 6908 bound_to 6896
  150.8523  133.7702  159.3046 H   0  0  0  0  0  0  0  0  0  0  0  0  # atno 6909 bound_to 6896
  145.2061  139.2929  143.4293 H   0  0  0  0  0  0  0  0  0  0  0  0  # atno 7974 bound_to 7965
  155.0280  140.0393  157.2463 H   0  0  0  0  0  0  0  0  0  0  0  0  # atno 8008 bound_to 7997
  154.7321  140.2732  155.6423 H   0  0  0  0  0  0  0  0  0  0  0  0  # atno 8009 bound_to 7997
  156.2844  140.2682  156.2024 H   0  0  0  0  0  0  0  0  0  0  0  0  # atno 8010 bound_to 7997
  139.9517  143.6048  152.2473 H   0  0  0  0  0  0  0  0  0  0  0  0  # atno 10167 bound_to 10162
  156.4526  130.4487  149.6980 H   0  0  0  0  0  0  0  0  0  0  0  0  # atno 10718 bound_to 10713
  153.2185  135.4364  155.0462 H   0  0  0  0  0  0  0  0  0  0  0  0  # atno 10763 bound_to 10752
  154.8237  135.3350  154.6963 H   0  0  0  0  0  0  0  0  0  0  0  0  # atno 10764 bound_to 10752
  153.7396  135.7005  153.5026 H   0  0  0  0  0  0  0  0  0  0  0  0  # atno 10765 bound_to 10752
  140.0251  134.9378  157.0553 H   0  0  0  0  0  0  0  0  0  0  0  0  # atno 11005 bound_to 11000
  146.3407  140.2321  142.8593 LP  0  0  0  0  0  0  0  0  0  0  0  0  # atno 17320 bound_to 7965
  144.9901  140.8539  143.5344 LP  0  0  0  0  0  0  0  0  0  0  0  0  # atno 17321 bound_to 7965
  139.6623  144.7662  151.1939 LP  0  0  0  0  0  0  0  0  0  0  0  0  # atno 17342 bound_to 10162
  140.7581  143.5991  150.8718 LP  0  0  0  0  0  0  0  0  0  0  0  0  # atno 17343 bound_to 10162
  156.3800  130.7574  151.2566 LP  0  0  0  0  0  0  0  0  0  0  0  0  # atno 17370 bound_to 10713
  157.7502  131.0298  150.4111 LP  0  0  0  0  0  0  0  0  0  0  0  0  # atno 17371 bound_to 10713
  140.4320  134.1771  155.7168 LP  0  0  0  0  0  0  0  0  0  0  0  0  # atno 17394 bound_to 11000
  141.1798  133.8438  157.1298 LP  0  0  0  0  0  0  0  0  0  0  0  0  # atno 17395 bound_to 11000

$$$$
