AV-unprocessed.smi:2043|AV-procd|sdf|8296|dock2
  -GOLD-   2272010563D 1   1.00000     0.00000
 Structure written by MMmdl.
 29 30  0  0  0  0  0  0  0  0  1 V2000
  144.4671  135.8591  150.8451 C   0  0  0  0  0  0  0  0  0  0  0  0
  144.8090  134.4084  150.8603 C   0  0  0  0  0  0  0  0  0  0  0  0
  143.8840  133.4453  150.7674 N   0  0  0  0  0  0  0  0  0  0  0  0
  144.4413  132.1747  150.8083 N   0  0  0  0  0  0  0  0  0  0  0  0
  145.7749  132.2180  150.9333 C   0  0  0  0  0  0  0  0  0  0  0  0
  146.5996  131.0642  151.0028 N   0  0  0  0  0  0  0  0  0  0  0  0
  146.2899  129.8453  151.4789 C   0  0  0  0  0  0  0  0  0  0  0  0
  145.1959  129.5178  151.9394 O   0  0  0  0  0  0  0  0  0  0  0  0
  147.3360  129.0110  151.3894 N   0  0  0  0  0  0  0  0  0  0  0  0
  147.3402  127.6146  151.8105 C   0  0  0  0  0  0  0  0  0  0  0  0
  148.7150  126.9789  151.6188 C   0  0  0  0  0  0  0  0  0  0  0  0
  149.1039  126.3687  150.2625 C   0  0  0  0  0  0  0  0  0  0  0  0
  149.8909  125.2974  151.0216 C   0  0  0  0  0  0  0  0  0  0  0  0
  148.9997  125.5984  152.2293 C   0  0  0  0  0  0  0  0  0  0  0  0
  146.4639  133.8306  151.0108 S   0  0  0  0  0  0  0  0  0  0  0  0
  143.4853  136.0166  150.3974 H   0  0  0  0  0  0  0  0  0  0  0  0
  145.2062  136.4124  150.2655 H   0  0  0  0  0  0  0  0  0  0  0  0
  144.4554  136.2485  151.8630 H   0  0  0  0  0  0  0  0  0  0  0  0
  147.5384  131.1825  150.6524 H   0  0  0  0  0  0  0  0  0  0  0  0
  148.1954  129.3671  150.9973 H   0  0  0  0  0  0  0  0  0  0  0  0
  147.0594  127.5834  152.8633 H   0  0  0  0  0  0  0  0  0  0  0  0
  146.5722  127.0511  151.2781 H   0  0  0  0  0  0  0  0  0  0  0  0
  149.5047  127.6642  151.9345 H   0  0  0  0  0  0  0  0  0  0  0  0
  148.2500  125.9573  149.7214 H   0  0  0  0  0  0  0  0  0  0  0  0
  149.7069  127.0173  149.6263 H   0  0  0  0  0  0  0  0  0  0  0  0
  149.7937  124.2878  150.6215 H   0  0  0  0  0  0  0  0  0  0  0  0
  150.9339  125.5731  151.1849 H   0  0  0  0  0  0  0  0  0  0  0  0
  149.5201  125.6212  153.1872 H   0  0  0  0  0  0  0  0  0  0  0  0
  148.1149  124.9603  152.2675 H   0  0  0  0  0  0  0  0  0  0  0  0
  1  2  1  0  0  0  0
  1 16  1  0  0  0  0
  1 17  1  0  0  0  0
  1 18  1  0  0  0  0
  2 15  1  0  0  0  0
  2  3  2  0  0  0  0
  3  4  1  0  0  0  0
  4  5  2  0  0  0  0
  5  6  1  0  0  0  0
  5 15  1  0  0  0  0
  6  7  1  0  0  0  0
  6 19  1  0  0  0  0
  7  8  2  0  0  0  0
  7  9  1  0  0  0  0
  9 10  1  0  0  0  0
  9 20  1  0  0  0  0
 10 11  1  0  0  0  0
 10 21  1  0  0  0  0
 10 22  1  0  0  0  0
 11 14  1  0  0  0  0
 11 12  1  0  0  0  0
 11 23  1  0  0  0  0
 12 13  1  0  0  0  0
 12 24  1  0  0  0  0
 12 25  1  0  0  0  0
 13 14  1  0  0  0  0
 13 26  1  0  0  0  0
 13 27  1  0  0  0  0
 14 28  1  0  0  0  0
 14 29  1  0  0  0  0
M  END
> <s_m_source_file>
AV-unprocessed.smi

> <i_m_source_file_index>
2043

> <i_lp_mmshare_version>
43012

> <i_f3d_flags>
0

> <s_epik_input>
W0NIM11jMW5uYyhzMSlbTkhdQyg9TylbTkhdW0NIMl1bQ0hdMltDSDJdW0NIMl1bQ0gyXTI=

> <s_epik_cmdline>
J2VwaWtfcHl0aG9uJywgJy1waCcsICc3LjAnLCAnLXRuJywgJzgnLCAnLW1hJywgJzIwMCcsICctbWV0YWxfYmluZGluZycsICctaW1hZScsICc8aW5maWxlLm1hZT4nLCAnLW9tYWUnLCAnPG91dGZpbGUubWFlPic=

> <r_lp_tautomer_probability>
1

> <r_epik_Ionization_Penalty>
0.000387707

> <r_epik_Ionization_Penalty_Charging>
0

> <r_epik_Ionization_Penalty_Neutral>
0.000387707

> <r_epik_State_Penalty>
-0

> <r_epik_Charging_Adjusted_Penalty>
0

> <i_epik_Tot_Q>
0

> <i_epik_Tot_abs_Q>
0

> <r_epik_Metal_State_Penalty>
0.190371

> <b_epik_Metal_Only>
0

> <s_lp_Force_Field>
OPLS_2005

> <r_lp_Energy>
11.3872

> <b_lp_Chiralities_Consistent>
1

> <s_lp_Variant>
AV-unprocessed.smi:2043-1

> <Gold.Version>
5.8.1

> <Gold.Id.Protein>
6NUR|6NUR_protein|mol2

> <Gold.PLP.Fitness>
33.7197

> <Gold.PLP.PLP>
-28.5893

> <Gold.PLP.part.hbond>
-1.9001

> <Gold.PLP.part.metal>
0.0000

> <Gold.PLP.part.buried>
-3.2805

> <Gold.PLP.part.nonpolar>
-23.5125

> <Gold.PLP.part.repulsive>
0.6223

> <Gold.PLP.ligand.clash>
0.0000

> <Gold.PLP.ligand.torsion>
0.3558

> <Gold.PLP.Chemscore.Hbond>
1.9280

> <Gold.PLP.Chemscore.CHOScore>
0.0000

> <Gold.PLP.Chemscore.Metal>
0.0000

> <Gold.Chemscore.Hbonds>
donor molecule, donor type, donor heavy atom, donor atom, acceptor molecule, acceptor atom, score
      L1  H     6    19       P1 10747  0.98
      L1  H     9    20       P1 10747  0.91

> <Gold.PLP.Chemscore.Internal.Correction>
0.0580

> <Gold.Rescore>
     Score         DG    S(hbond)    S(metal)    S(lipo)     H(rot)  DE(clash)    DE(int)     intcor
     12.31     -14.00       1.66        0.00      53.19       1.27       0.28       1.40       ----

> <Gold.Chemscore.Fitness>
12.3139

> <Gold.Chemscore.DG>
-13.9960

> <Gold.Chemscore.ZeroCoef>
-5.4800

> <Gold.Chemscore.Hbond>
1.6635

> <Gold.Chemscore.Metal>
0.0000

> <Gold.Chemscore.Lipo>
53.1942

> <Gold.Chemscore.Internal_Hbond>
0.0000

> <Gold.Chemscore.DEClash>
0.2788

> <Gold.Chemscore.DEInternal>
1.4032

> <Gold.Chemscore.Rot>
1.2750

> <Gold.Chemscore.Internal.Correction>
   9.000000E+99

> <Gold.Chemscore.Hbonds>
donor molecule, donor type, donor heavy atom, donor atom, acceptor molecule, acceptor atom, score
      L1  H     6    19       P1 10747  0.91
      L1  H     9    20       P1 10747  0.31

> <Gold.Chemscore.Hbond.Weighted>
-5.5562

> <Gold.Chemscore.Metal.Weighted>
-0.0000

> <Gold.Chemscore.Lipo.Weighted>
-6.2237

> <Gold.Chemscore.Internal_Hbond.Weighted>
0.0000

> <Gold.Chemscore.DEClash.Weighted>
0.2788

> <Gold.Chemscore.DEInternal.Weighted>
1.4032

> <Gold.Chemscore.Rot.Weighted>
3.2640

> <Gold.Chemscore.Internal.Correction.Weighted>
   9.000000E+99

> <Gold.Protein.RotatedTorsions>
[ 6907 6896 6895 6894 ] final   98.48 input  -60.11 | X-H torsion
[ 7974 7965 7964 7962 ] final  -42.26 input  175.53 | X-H torsion
[ 8008 7997 7996 7995 ] final  136.88 input   59.86 | X-H torsion
[ 10167 10162 10161 10158 ] final   42.46 input  -65.29 | X-H torsion
[ 10718 10713 10712 10709 ] final   77.53 input   66.30 | X-H torsion
[ 10763 10752 10751 10750 ] final   73.76 input  -60.55 | X-H torsion
[ 11005 11000 10999 10996 ] final  -41.98 input  -57.11 | X-H torsion

> <Gold.Protein.ActiveResidues>
 VAL166  LYS551  ARG553  GLY616  TRP617  ASP618  TYR619  PRO620  LYS621  CYS622 
 ASP623  PHE694  ASN695  SER759  ASP760  ASP761  ALA762  ILE779  LEU786  VAL792 
 PHE793  MET794  SER795  GLU796  ALA797  LYS798  CYS799  TRP800  GLU811  SER814 

> <Gold.Protein.RotatedAtoms>
  152.5408  134.0575  159.8136 H   0  0  0  0  0  0  0  0  0  0  0  0  # atno 6907 bound_to 6896
  151.0707  133.5461  159.2634 H   0  0  0  0  0  0  0  0  0  0  0  0  # atno 6908 bound_to 6896
  151.2325  135.0568  159.9047 H   0  0  0  0  0  0  0  0  0  0  0  0  # atno 6909 bound_to 6896
  146.0133  140.6939  142.9214 H   0  0  0  0  0  0  0  0  0  0  0  0  # atno 7974 bound_to 7965
  156.3003  140.2434  156.3818 H   0  0  0  0  0  0  0  0  0  0  0  0  # atno 8008 bound_to 7997
  154.8694  140.0417  157.1735 H   0  0  0  0  0  0  0  0  0  0  0  0  # atno 8009 bound_to 7997
  154.8811  140.2949  155.5428 H   0  0  0  0  0  0  0  0  0  0  0  0  # atno 8010 bound_to 7997
  140.3541  144.2312  150.6143 H   0  0  0  0  0  0  0  0  0  0  0  0  # atno 10167 bound_to 10162
  157.6713  130.9826  150.1654 H   0  0  0  0  0  0  0  0  0  0  0  0  # atno 10718 bound_to 10713
  153.0543  135.5051  154.7942 H   0  0  0  0  0  0  0  0  0  0  0  0  # atno 10763 bound_to 10752
  154.6780  135.2963  154.9654 H   0  0  0  0  0  0  0  0  0  0  0  0  # atno 10764 bound_to 10752
  154.0449  135.6712  153.4846 H   0  0  0  0  0  0  0  0  0  0  0  0  # atno 10765 bound_to 10752
  141.0284  133.6831  156.2532 H   0  0  0  0  0  0  0  0  0  0  0  0  # atno 11005 bound_to 11000
  144.6961  140.3436  143.7194 LP  0  0  0  0  0  0  0  0  0  0  0  0  # atno 17320 bound_to 7965
  145.7309  139.1736  143.2431 LP  0  0  0  0  0  0  0  0  0  0  0  0  # atno 17321 bound_to 7965
  140.5190  143.2270  151.8418 LP  0  0  0  0  0  0  0  0  0  0  0  0  # atno 17342 bound_to 10162
  139.4822  144.4859  151.9247 LP  0  0  0  0  0  0  0  0  0  0  0  0  # atno 17343 bound_to 10162
  156.2421  130.3692  149.8326 LP  0  0  0  0  0  0  0  0  0  0  0  0  # atno 17370 bound_to 10713
  156.6123  130.8592  151.3457 LP  0  0  0  0  0  0  0  0  0  0  0  0  # atno 17371 bound_to 10713
  140.6450  134.5126  157.5573 LP  0  0  0  0  0  0  0  0  0  0  0  0  # atno 17394 bound_to 11000
  139.9191  134.8185  156.1268 LP  0  0  0  0  0  0  0  0  0  0  0  0  # atno 17395 bound_to 11000

$$$$
