AV-unprocessed.smi:3028|AV-procd|sdf|11518|dock1
  -GOLD-   2272016453D 1   1.00000     0.00000
 Structure written by MMmdl.
 48 49  0  0  0  0  0  0  0  0  2 V2000
  152.0316  141.1873  158.4752 C   0  0  0  0  0  0  0  0  0  0  0  0
  151.2634  141.0182  157.1964 C   0  0  0  0  0  0  0  0  0  0  0  0
  150.4529  141.9789  156.5283 C   0  0  0  0  0  0  0  0  0  0  0  0
  149.9144  141.5098  155.4151 N   0  0  0  0  0  0  0  0  0  0  0  0
  150.3588  140.2360  155.3310 N   0  0  0  0  0  0  0  0  0  0  0  0
  149.9754  139.3948  154.2026 C   0  0  1  0  0  0  0  0  0  0  0  0
  150.6822  138.0299  154.3054 C   0  0  0  0  0  0  0  0  0  0  0  0
  148.4317  139.2797  154.0813 C   0  0  2  0  0  0  0  0  0  0  0  0
  147.8195  138.3166  155.1117 C   0  0  0  0  0  0  0  0  0  0  0  0
  148.0571  138.8204  152.7237 N   0  3  0  0  0  0  0  0  0  0  0  0
  146.6039  138.7775  152.4569 C   0  0  0  0  0  0  0  0  0  0  0  0
  146.0711  137.3419  152.3668 C   0  0  0  0  0  0  0  0  0  0  0  0
  146.2461  136.5618  153.3016 O   0  0  0  0  0  0  0  0  0  0  0  0
  145.4167  136.9505  151.2605 N   0  0  0  0  0  0  0  0  0  0  0  0
  144.8330  135.6410  150.9708 C   0  0  0  0  0  0  0  0  0  0  0  0
  143.7604  135.3027  152.0171 C   0  0  0  0  0  0  0  0  0  0  0  0
  143.2633  133.8588  151.8377 C   0  0  0  0  0  0  0  0  0  0  0  0
  144.3600  132.9540  151.9064 O   0  0  0  0  0  0  0  0  0  0  0  0
  145.3156  133.1605  150.8715 C   0  0  0  0  0  0  0  0  0  0  0  0
  145.9292  134.5650  150.9939 C   0  0  0  0  0  0  0  0  0  0  0  0
  151.1708  139.9135  156.3984 C   0  0  0  0  0  0  0  0  0  0  0  0
  151.9630  142.2055  158.8590 H   0  0  0  0  0  0  0  0  0  0  0  0
  153.0905  140.9661  158.3402 H   0  0  0  0  0  0  0  0  0  0  0  0
  151.6611  140.5241  159.2569 H   0  0  0  0  0  0  0  0  0  0  0  0
  150.2429  142.9985  156.8164 H   0  0  0  0  0  0  0  0  0  0  0  0
  150.3483  139.8863  153.3025 H   0  0  0  0  0  0  0  0  0  0  0  0
  150.5574  137.4412  153.3970 H   0  0  0  0  0  0  0  0  0  0  0  0
  150.2990  137.4420  155.1401 H   0  0  0  0  0  0  0  0  0  0  0  0
  151.7550  138.1572  154.4555 H   0  0  0  0  0  0  0  0  0  0  0  0
  147.9957  140.2648  154.2576 H   0  0  0  0  0  0  0  0  0  0  0  0
  147.9662  138.6700  156.1320 H   0  0  0  0  0  0  0  0  0  0  0  0
  148.2560  137.3201  155.0355 H   0  0  0  0  0  0  0  0  0  0  0  0
  146.7435  138.2201  154.9627 H   0  0  0  0  0  0  0  0  0  0  0  0
  148.4782  139.4451  152.0508 H   0  0  0  0  0  0  0  0  0  0  0  0
  146.0798  139.3110  153.2510 H   0  0  0  0  0  0  0  0  0  0  0  0
  146.4001  139.2890  151.5159 H   0  0  0  0  0  0  0  0  0  0  0  0
  145.3088  137.6439  150.5338 H   0  0  0  0  0  0  0  0  0  0  0  0
  144.3606  135.6162  149.9893 H   0  0  0  0  0  0  0  0  0  0  0  0
  144.1705  135.4163  153.0218 H   0  0  0  0  0  0  0  0  0  0  0  0
  142.9237  135.9983  151.9401 H   0  0  0  0  0  0  0  0  0  0  0  0
  142.5508  133.6082  152.6237 H   0  0  0  0  0  0  0  0  0  0  0  0
  142.7413  133.7426  150.8867 H   0  0  0  0  0  0  0  0  0  0  0  0
  146.0949  132.4031  150.9570 H   0  0  0  0  0  0  0  0  0  0  0  0
  144.8461  133.0250  149.8961 H   0  0  0  0  0  0  0  0  0  0  0  0
  146.6423  134.7329  150.1859 H   0  0  0  0  0  0  0  0  0  0  0  0
  146.4929  134.6271  151.9262 H   0  0  0  0  0  0  0  0  0  0  0  0
  151.6164  138.9348  156.5001 H   0  0  0  0  0  0  0  0  0  0  0  0
  148.4353  137.8956  152.5764 H   0  0  0  0  0  0  0  0  0  0  0  0
  1  2  1  0  0  0  0
  1 22  1  0  0  0  0
  1 23  1  0  0  0  0
  1 24  1  0  0  0  0
  2 21  2  0  0  0  0
  2  3  1  0  0  0  0
  3  4  2  0  0  0  0
  3 25  1  0  0  0  0
  4  5  1  0  0  0  0
  5  6  1  0  0  0  0
  5 21  1  0  0  0  0
  6  7  1  0  0  0  0
  6  8  1  0  0  0  0
  6 26  1  0  0  0  0
  7 27  1  0  0  0  0
  7 28  1  0  0  0  0
  7 29  1  0  0  0  0
  8  9  1  0  0  0  0
  8 10  1  0  0  0  0
  8 30  1  0  0  0  0
  9 31  1  0  0  0  0
  9 32  1  0  0  0  0
  9 33  1  0  0  0  0
 10 11  1  0  0  0  0
 10 34  1  0  0  0  0
 10 48  1  0  0  0  0
 11 12  1  0  0  0  0
 11 35  1  0  0  0  0
 11 36  1  0  0  0  0
 12 13  2  0  0  0  0
 12 14  1  0  0  0  0
 14 15  1  0  0  0  0
 14 37  1  0  0  0  0
 15 20  1  0  0  0  0
 15 16  1  0  0  0  0
 15 38  1  0  0  0  0
 16 17  1  0  0  0  0
 16 39  1  0  0  0  0
 16 40  1  0  0  0  0
 17 18  1  0  0  0  0
 17 41  1  0  0  0  0
 17 42  1  0  0  0  0
 18 19  1  0  0  0  0
 19 20  1  0  0  0  0
 19 43  1  0  0  0  0
 19 44  1  0  0  0  0
 20 45  1  0  0  0  0
 20 46  1  0  0  0  0
 21 47  1  0  0  0  0
M  CHG  1  10   1
M  END
> <s_m_source_file>
AV-unprocessed.smi

> <i_m_source_file_index>
3028

> <i_lp_mmshare_version>
43012

> <i_f3d_flags>
0

> <s_epik_input>
W0NIM11jMVtjSF1ubihbY0hdMSlbQ0BIXShbQ0gzXSlbQ0BIXShbQ0gzXSlbTkhdW0NIMl1DKD1PKVtOSF1bQ0hdMltDSDJdW0NIMl1PW0NIMl1bQ0gyXTI=

> <s_epik_cmdline>
J2VwaWtfcHl0aG9uJywgJy1waCcsICc3LjAnLCAnLXRuJywgJzgnLCAnLW1hJywgJzIwMCcsICctbWV0YWxfYmluZGluZycsICctaW1hZScsICc8aW5maWxlLm1hZT4nLCAnLW9tYWUnLCAnPG91dGZpbGUubWFlPic=

> <r_lp_tautomer_probability>
1

> <r_epik_Ionization_Penalty>
0.151514

> <r_epik_Ionization_Penalty_Charging>
0.151494

> <r_epik_Ionization_Penalty_Neutral>
1.95502e-05

> <r_epik_State_Penalty>
0.141395

> <r_epik_Charging_Adjusted_Penalty>
0.292889

> <i_epik_Tot_Q>
1

> <i_epik_Tot_abs_Q>
1

> <r_epik_Metal_State_Penalty>
0.141632

> <b_epik_Metal_Only>
0

> <s_lp_Force_Field>
OPLS_2005

> <r_lp_Energy>
16.7547

> <b_lp_Chiralities_Consistent>
1

> <s_lp_Variant>
AV-unprocessed.smi:3028-2

> <Gold.Version>
5.8.1

> <Gold.Id.Protein>
6NUR|6NUR_protein|mol2

> <Gold.PLP.Fitness>
51.5315

> <Gold.PLP.PLP>
-38.2926

> <Gold.PLP.part.hbond>
-3.1872

> <Gold.PLP.part.metal>
0.0000

> <Gold.PLP.part.buried>
-3.6914

> <Gold.PLP.part.nonpolar>
-32.8048

> <Gold.PLP.part.repulsive>
0.6186

> <Gold.PLP.ligand.clash>
0.0000

> <Gold.PLP.ligand.torsion>
0.6234

> <Gold.PLP.Chemscore.Hbond>
3.7840

> <Gold.PLP.Chemscore.CHOScore>
1.0000

> <Gold.PLP.Chemscore.Metal>
0.0000

> <Gold.Chemscore.Hbonds>
donor molecule, donor type, donor heavy atom, donor atom, acceptor molecule, acceptor atom, score
      L1  H    10    34       P1  7957  1.00
      L1  H    10    48       P1  7948  2.00
      L1  H    14    37       P1 10171  0.72
      L1  C     3    25       P1  8028  1.00

> <Gold.PLP.Chemscore.Internal.Correction>
0.1336

> <Gold.Rescore>
     Score         DG    S(hbond)    S(metal)    S(lipo)     H(rot)  DE(clash)    DE(int)     intcor
     17.17     -20.02       2.89        0.00      85.35       1.99       0.12       2.73       ----

> <Gold.Chemscore.Fitness>
17.1737

> <Gold.Chemscore.DG>
-20.0210

> <Gold.Chemscore.ZeroCoef>
-5.4800

> <Gold.Chemscore.Hbond>
2.8889

> <Gold.Chemscore.Metal>
0.0000

> <Gold.Chemscore.Lipo>
85.3471

> <Gold.Chemscore.Internal_Hbond>
0.0000

> <Gold.Chemscore.DEClash>
0.1151

> <Gold.Chemscore.DEInternal>
2.7322

> <Gold.Chemscore.Rot>
1.9897

> <Gold.Chemscore.Internal.Correction>
   9.000000E+99

> <Gold.Chemscore.Hbonds>
donor molecule, donor type, donor heavy atom, donor atom, acceptor molecule, acceptor atom, score
      L1  H    10    34       P1  7957  0.93
      L1  H    10    48       P1  7948  1.00
      L1  H    14    37       P1 10171  0.72

> <Gold.Chemscore.Hbond.Weighted>
-9.6490

> <Gold.Chemscore.Metal.Weighted>
-0.0000

> <Gold.Chemscore.Lipo.Weighted>
-9.9856

> <Gold.Chemscore.Internal_Hbond.Weighted>
0.0000

> <Gold.Chemscore.DEClash.Weighted>
0.1151

> <Gold.Chemscore.DEInternal.Weighted>
2.7322

> <Gold.Chemscore.Rot.Weighted>
5.0936

> <Gold.Chemscore.Internal.Correction.Weighted>
   9.000000E+99

> <Gold.Protein.RotatedTorsions>
[ 6907 6896 6895 6894 ] final -165.95 input  -60.11 | X-H torsion
[ 7974 7965 7964 7962 ] final  133.47 input  175.53 | X-H torsion
[ 8008 7997 7996 7995 ] final   44.44 input   59.86 | X-H torsion
[ 10167 10162 10161 10158 ] final  109.13 input  -65.29 | X-H torsion
[ 10718 10713 10712 10709 ] final -157.08 input   66.30 | X-H torsion
[ 10763 10752 10751 10750 ] final  142.96 input  -60.55 | X-H torsion
[ 11005 11000 10999 10996 ] final  128.57 input  -57.11 | X-H torsion

> <Gold.Protein.ActiveResidues>
 VAL166  LYS551  ARG553  GLY616  TRP617  ASP618  TYR619  PRO620  LYS621  CYS622 
 ASP623  PHE694  ASN695  SER759  ASP760  ASP761  ALA762  ILE779  LEU786  VAL792 
 PHE793  MET794  SER795  GLU796  ALA797  LYS798  CYS799  TRP800  GLU811  SER814 

> <Gold.Protein.RotatedAtoms>
  151.4358  133.3657  159.2774 H   0  0  0  0  0  0  0  0  0  0  0  0  # atno 6907 bound_to 6896
  150.9192  134.8612  159.7488 H   0  0  0  0  0  0  0  0  0  0  0  0  # atno 6908 bound_to 6896
  152.4973  134.4294  159.9559 H   0  0  0  0  0  0  0  0  0  0  0  0  # atno 6909 bound_to 6896
  144.9862  139.4453  143.5362 H   0  0  0  0  0  0  0  0  0  0  0  0  # atno 7974 bound_to 7965
  155.3193  140.3396  155.4241 H   0  0  0  0  0  0  0  0  0  0  0  0  # atno 8008 bound_to 7997
  156.1917  140.1700  156.8116 H   0  0  0  0  0  0  0  0  0  0  0  0  # atno 8009 bound_to 7997
  154.5450  140.0717  156.8557 H   0  0  0  0  0  0  0  0  0  0  0  0  # atno 8010 bound_to 7997
  139.6791  144.7120  151.1548 H   0  0  0  0  0  0  0  0  0  0  0  0  # atno 10167 bound_to 10162
  156.5354  130.8539  151.2730 H   0  0  0  0  0  0  0  0  0  0  0  0  # atno 10718 bound_to 10713
  153.9645  135.2957  155.3431 H   0  0  0  0  0  0  0  0  0  0  0  0  # atno 10763 bound_to 10752
  154.7356  135.5048  153.9040 H   0  0  0  0  0  0  0  0  0  0  0  0  # atno 10764 bound_to 10752
  153.0930  135.6713  153.9928 H   0  0  0  0  0  0  0  0  0  0  0  0  # atno 10765 bound_to 10752
  139.9568  134.9611  156.9022 H   0  0  0  0  0  0  0  0  0  0  0  0  # atno 11005 bound_to 11000
  146.3420  139.9165  142.8773 LP  0  0  0  0  0  0  0  0  0  0  0  0  # atno 17320 bound_to 7965
  145.2351  140.9988  143.3968 LP  0  0  0  0  0  0  0  0  0  0  0  0  # atno 17321 bound_to 7965
  140.7646  143.5726  150.8979 LP  0  0  0  0  0  0  0  0  0  0  0  0  # atno 17342 bound_to 10162
  139.9397  143.6396  152.3056 LP  0  0  0  0  0  0  0  0  0  0  0  0  # atno 17343 bound_to 10162
  157.7414  130.9870  150.2447 LP  0  0  0  0  0  0  0  0  0  0  0  0  # atno 17370 bound_to 10713
  156.3021  130.3760  149.7741 LP  0  0  0  0  0  0  0  0  0  0  0  0  # atno 17371 bound_to 10713
  140.5591  134.0552  155.7393 LP  0  0  0  0  0  0  0  0  0  0  0  0  # atno 17394 bound_to 11000
  141.1240  133.9413  157.2672 LP  0  0  0  0  0  0  0  0  0  0  0  0  # atno 17395 bound_to 11000

$$$$
