AV-unprocessed.smi:1954|AV-procd|sdf|7896|dock4
  -GOLD-   2272010 53D 1   1.00000     0.00000
 Structure written by MMmdl.
 45 47  0  0  0  0  0  0  0  0  2 V2000
  144.7146  136.0190  153.2286 O   0  0  0  0  0  0  0  0  0  0  0  0
  145.8765  135.8864  152.8446 C   0  0  0  0  0  0  0  0  0  0  0  0
  146.8944  136.6337  153.2955 N   0  0  0  0  0  0  0  0  0  0  0  0
  146.7871  137.7108  154.2801 C   0  0  0  0  0  0  0  0  0  0  0  0
  148.0096  138.6842  154.2783 C   0  0  1  0  0  0  0  0  0  0  0  0
  149.2813  137.8740  154.1875 N   0  3  0  0  0  0  0  0  0  0  0  0
  150.5274  138.6914  154.1723 C   0  0  0  0  0  0  0  0  0  0  0  0
  151.7556  137.8158  153.8850 C   0  0  0  0  0  0  0  0  0  0  0  0
  151.8497  136.8087  154.8807 O   0  0  0  0  0  0  0  0  0  0  0  0
  150.7240  135.9443  154.8516 C   0  0  0  0  0  0  0  0  0  0  0  0
  149.4333  136.7342  155.1357 C   0  0  0  0  0  0  0  0  0  0  0  0
  147.8680  139.7006  153.1192 C   0  0  0  0  0  0  0  0  0  0  0  0
  146.7418  140.6873  153.4612 C   0  0  0  0  0  0  0  0  0  0  0  0
  146.6564  140.8397  155.2631 S   0  0  0  0  0  0  0  0  0  0  0  0
  147.9451  139.5983  155.5320 C   0  0  0  0  0  0  0  0  0  0  0  0
  146.2948  134.9997  151.9247 N   0  0  0  0  0  0  0  0  0  0  0  0
  145.5196  134.0652  151.1879 C   0  0  0  0  0  0  0  0  0  0  0  0
  146.1336  133.1973  150.2482 C   0  0  0  0  0  0  0  0  0  0  0  0
  145.3351  132.2988  149.5144 C   0  0  0  0  0  0  0  0  0  0  0  0
  143.9452  132.2970  149.7261 C   0  0  0  0  0  0  0  0  0  0  0  0
  143.4162  133.2041  150.6620 C   0  0  0  0  0  0  0  0  0  0  0  0
  144.1782  134.0680  151.3662 N   0  0  0  0  0  0  0  0  0  0  0  0
  147.8099  136.4660  152.9043 H   0  0  0  0  0  0  0  0  0  0  0  0
  145.8725  138.2554  154.0480 H   0  0  0  0  0  0  0  0  0  0  0  0
  146.6041  137.2933  155.2708 H   0  0  0  0  0  0  0  0  0  0  0  0
  150.4748  139.4725  153.4158 H   0  0  0  0  0  0  0  0  0  0  0  0
  150.6641  139.1863  155.1345 H   0  0  0  0  0  0  0  0  0  0  0  0
  151.6967  137.3686  152.8912 H   0  0  0  0  0  0  0  0  0  0  0  0
  152.6619  138.4210  153.9094 H   0  0  0  0  0  0  0  0  0  0  0  0
  150.6651  135.4420  153.8844 H   0  0  0  0  0  0  0  0  0  0  0  0
  150.8589  135.1662  155.6031 H   0  0  0  0  0  0  0  0  0  0  0  0
  149.4334  137.0984  156.1636 H   0  0  0  0  0  0  0  0  0  0  0  0
  148.6134  136.0256  155.0321 H   0  0  0  0  0  0  0  0  0  0  0  0
  148.7957  140.2626  153.0054 H   0  0  0  0  0  0  0  0  0  0  0  0
  147.6742  139.2189  152.1602 H   0  0  0  0  0  0  0  0  0  0  0  0
  146.9023  141.6606  152.9970 H   0  0  0  0  0  0  0  0  0  0  0  0
  145.7830  140.3086  153.1061 H   0  0  0  0  0  0  0  0  0  0  0  0
  147.7940  139.0580  156.4654 H   0  0  0  0  0  0  0  0  0  0  0  0
  148.8442  140.1997  155.6494 H   0  0  0  0  0  0  0  0  0  0  0  0
  147.2584  135.0790  151.6353 H   0  0  0  0  0  0  0  0  0  0  0  0
  147.1981  133.2126  150.0700 H   0  0  0  0  0  0  0  0  0  0  0  0
  145.7824  131.6271  148.7969 H   0  0  0  0  0  0  0  0  0  0  0  0
  143.3010  131.6229  149.1812 H   0  0  0  0  0  0  0  0  0  0  0  0
  142.3532  133.2400  150.8486 H   0  0  0  0  0  0  0  0  0  0  0  0
  149.2333  137.4364  153.2784 H   0  0  0  0  0  0  0  0  0  0  0  0
  1  2  2  0  0  0  0
  2  3  1  0  0  0  0
  2 16  1  0  0  0  0
  3  4  1  0  0  0  0
  3 23  1  0  0  0  0
  4  5  1  0  0  0  0
  4 24  1  0  0  0  0
  4 25  1  0  0  0  0
  5 15  1  0  0  0  0
  5  6  1  0  0  0  0
  5 12  1  0  0  0  0
  6 11  1  0  0  0  0
  6  7  1  0  0  0  0
  6 45  1  0  0  0  0
  7  8  1  0  0  0  0
  7 26  1  0  0  0  0
  7 27  1  0  0  0  0
  8  9  1  0  0  0  0
  8 28  1  0  0  0  0
  8 29  1  0  0  0  0
  9 10  1  0  0  0  0
 10 11  1  0  0  0  0
 10 30  1  0  0  0  0
 10 31  1  0  0  0  0
 11 32  1  0  0  0  0
 11 33  1  0  0  0  0
 12 13  1  0  0  0  0
 12 34  1  0  0  0  0
 12 35  1  0  0  0  0
 13 14  1  0  0  0  0
 13 36  1  0  0  0  0
 13 37  1  0  0  0  0
 14 15  1  0  0  0  0
 15 38  1  0  0  0  0
 15 39  1  0  0  0  0
 16 17  1  0  0  0  0
 16 40  1  0  0  0  0
 17 22  1  0  0  0  0
 17 18  2  0  0  0  0
 18 19  1  0  0  0  0
 18 41  1  0  0  0  0
 19 20  2  0  0  0  0
 19 42  1  0  0  0  0
 20 21  1  0  0  0  0
 20 43  1  0  0  0  0
 21 22  2  0  0  0  0
 21 44  1  0  0  0  0
M  CHG  1   6   1
M  END
> <s_m_source_file>
AV-unprocessed.smi

> <i_m_source_file_index>
1954

> <i_lp_mmshare_version>
43012

> <i_f3d_flags>
0

> <s_epik_input>
bjFbY0hdW2NIXVtjSF1bY0hdYzFbTkhdQyg9TylbTkhdW0NIMl1bQ0BdMihbQ0gyXVtDSDJdU1tDSDJdMilOM1tDSDJdW0NIMl1PW0NIMl1bQ0gyXTM=

> <s_epik_cmdline>
J2VwaWtfcHl0aG9uJywgJy1waCcsICc3LjAnLCAnLXRuJywgJzgnLCAnLW1hJywgJzIwMCcsICctbWV0YWxfYmluZGluZycsICctaW1hZScsICc8aW5maWxlLm1hZT4nLCAnLW9tYWUnLCAnPG91dGZpbGUubWFlPic=

> <r_epik_Ionization_Penalty>
2.03222

> <r_epik_Ionization_Penalty_Charging>
2.03219

> <r_epik_Ionization_Penalty_Neutral>
3.25833e-05

> <r_epik_State_Penalty>
2.16328

> <r_epik_Charging_Adjusted_Penalty>
4.19546

> <i_epik_Tot_Q>
1

> <i_epik_Tot_abs_Q>
1

> <r_epik_Metal_State_Penalty>
2.16328

> <b_epik_Metal_Only>
0

> <s_lp_Force_Field>
OPLS_2005

> <r_lp_Energy>
49.2696

> <b_lp_Chiralities_Consistent>
1

> <s_lp_Variant>
AV-unprocessed.smi:1954-3

> <Gold.Version>
5.8.1

> <Gold.Id.Protein>
6NUR|6NUR_protein|mol2

> <Gold.PLP.Fitness>
48.2323

> <Gold.PLP.PLP>
-31.6849

> <Gold.PLP.part.hbond>
-4.0000

> <Gold.PLP.part.metal>
0.0000

> <Gold.PLP.part.buried>
-0.7071

> <Gold.PLP.part.nonpolar>
-29.2178

> <Gold.PLP.part.repulsive>
0.3157

> <Gold.PLP.ligand.clash>
0.0000

> <Gold.PLP.ligand.torsion>
0.4060

> <Gold.PLP.Chemscore.Hbond>
4.7800

> <Gold.PLP.Chemscore.CHOScore>
0.9607

> <Gold.PLP.Chemscore.Metal>
0.0000

> <Gold.Chemscore.Hbonds>
donor molecule, donor type, donor heavy atom, donor atom, acceptor molecule, acceptor atom, score
      L1  H     3    23       P1  7948  1.00
      L1  H     6    45       P1  7948  2.00
      L1  H    16    40       P1  7948  0.90
      P1  H 10752 10765       L1     9  0.74
      L1  C    21    44       P1 10186  0.84

> <Gold.PLP.Chemscore.Internal.Correction>
0.1372

> <Gold.Rescore>
     Score         DG    S(hbond)    S(metal)    S(lipo)     H(rot)  DE(clash)    DE(int)     intcor
     18.45     -21.69       2.78        0.00      92.82       1.54       1.56       1.68       ----

> <Gold.Chemscore.Fitness>
18.4516

> <Gold.Chemscore.DG>
-21.6875

> <Gold.Chemscore.ZeroCoef>
-5.4800

> <Gold.Chemscore.Hbond>
2.7780

> <Gold.Chemscore.Metal>
0.0000

> <Gold.Chemscore.Lipo>
92.8212

> <Gold.Chemscore.Internal_Hbond>
0.0000

> <Gold.Chemscore.DEClash>
1.5566

> <Gold.Chemscore.DEInternal>
1.6794

> <Gold.Chemscore.Rot>
1.5355

> <Gold.Chemscore.Internal.Correction>
   9.000000E+99

> <Gold.Chemscore.Hbonds>
donor molecule, donor type, donor heavy atom, donor atom, acceptor molecule, acceptor atom, score
      L1  H     3    23       P1  7948  0.96
      L1  H     6    45       P1  7948  0.99
      L1  H    16    40       P1  7948  0.73
      P1  H 10752 10765       L1     9  0.09

> <Gold.Chemscore.Hbond.Weighted>
-9.2784

> <Gold.Chemscore.Metal.Weighted>
-0.0000

> <Gold.Chemscore.Lipo.Weighted>
-10.8601

> <Gold.Chemscore.Internal_Hbond.Weighted>
0.0000

> <Gold.Chemscore.DEClash.Weighted>
1.5566

> <Gold.Chemscore.DEInternal.Weighted>
1.6794

> <Gold.Chemscore.Rot.Weighted>
3.9309

> <Gold.Chemscore.Internal.Correction.Weighted>
   9.000000E+99

> <Gold.Protein.RotatedTorsions>
[ 6907 6896 6895 6894 ] final -114.55 input  -60.11 | X-H torsion
[ 7974 7965 7964 7962 ] final -127.06 input  175.53 | X-H torsion
[ 8008 7997 7996 7995 ] final   35.92 input   59.86 | X-H torsion
[ 10167 10162 10161 10158 ] final -140.67 input  -65.29 | X-H torsion
[ 10718 10713 10712 10709 ] final  -75.33 input   66.30 | X-H torsion
[ 10763 10752 10751 10750 ] final -168.65 input  -60.55 | X-H torsion
[ 11005 11000 10999 10996 ] final    4.96 input  -57.11 | X-H torsion

> <Gold.Protein.ActiveResidues>
 VAL166  LYS551  ARG553  GLY616  TRP617  ASP618  TYR619  PRO620  LYS621  CYS622 
 ASP623  PHE694  ASN695  SER759  ASP760  ASP761  ALA762  ILE779  LEU786  VAL792 
 PHE793  MET794  SER795  GLU796  ALA797  LYS798  CYS799  TRP800  GLU811  SER814 

> <Gold.Protein.RotatedAtoms>
  150.7911  133.8785  159.3278 H   0  0  0  0  0  0  0  0  0  0  0  0  # atno 6907 bound_to 6896
  151.6623  135.0986  160.0191 H   0  0  0  0  0  0  0  0  0  0  0  0  # atno 6908 bound_to 6896
  152.3985  133.6743  159.6331 H   0  0  0  0  0  0  0  0  0  0  0  0  # atno 6909 bound_to 6896
  144.9809  140.7639  143.4613 H   0  0  0  0  0  0  0  0  0  0  0  0  # atno 7974 bound_to 7965
  155.1789  140.3298  155.4379 H   0  0  0  0  0  0  0  0  0  0  0  0  # atno 8008 bound_to 7997
  156.2484  140.1930  156.6839 H   0  0  0  0  0  0  0  0  0  0  0  0  # atno 8009 bound_to 7997
  154.6285  140.0586  156.9689 H   0  0  0  0  0  0  0  0  0  0  0  0  # atno 8010 bound_to 7997
  139.8259  143.7511  152.2666 H   0  0  0  0  0  0  0  0  0  0  0  0  # atno 10167 bound_to 10162
  156.0211  130.4438  150.3026 H   0  0  0  0  0  0  0  0  0  0  0  0  # atno 10718 bound_to 10713
  154.6606  135.2924  154.9871 H   0  0  0  0  0  0  0  0  0  0  0  0  # atno 10763 bound_to 10752
  154.0932  135.6587  153.4860 H   0  0  0  0  0  0  0  0  0  0  0  0  # atno 10764 bound_to 10752
  153.0427  135.5225  154.7555 H   0  0  0  0  0  0  0  0  0  0  0  0  # atno 10765 bound_to 10752
  140.5761  134.0057  155.8028 H   0  0  0  0  0  0  0  0  0  0  0  0  # atno 11005 bound_to 11000
  145.2422  139.2067  143.4986 LP  0  0  0  0  0  0  0  0  0  0  0  0  # atno 17320 bound_to 7965
  146.3408  140.2320  142.8593 LP  0  0  0  0  0  0  0  0  0  0  0  0  # atno 17321 bound_to 7965
  139.7704  144.7478  151.0233 LP  0  0  0  0  0  0  0  0  0  0  0  0  # atno 17342 bound_to 10162
  140.7810  143.4652  151.0223 LP  0  0  0  0  0  0  0  0  0  0  0  0  # atno 17343 bound_to 10162
  157.1129  131.0226  151.3041 LP  0  0  0  0  0  0  0  0  0  0  0  0  # atno 17370 bound_to 10713
  157.4690  130.7698  149.7306 LP  0  0  0  0  0  0  0  0  0  0  0  0  # atno 17371 bound_to 10713
  141.1026  133.9744  157.3053 LP  0  0  0  0  0  0  0  0  0  0  0  0  # atno 17394 bound_to 11000
  139.9339  135.0198  156.8491 LP  0  0  0  0  0  0  0  0  0  0  0  0  # atno 17395 bound_to 11000

$$$$
