AV-unprocessed.smi:1830|AV-procd|sdf|7444|dock10
  -GOLD-   22720 9133D 1   1.00000     0.00000
 Structure written by MMmdl.
 54 57  0  0  0  0  0  0  0  0  3 V2000
  150.2127  136.3241  159.0991 O   0  0  0  0  0  0  0  0  0  0  0  0
  149.4213  137.2182  158.8010 C   0  0  0  0  0  0  0  0  0  0  0  0
  149.6870  138.1695  157.8965 N   0  0  0  0  0  0  0  0  0  0  0  0
  150.9418  138.2818  157.1625 C   0  0  0  0  0  0  0  0  0  0  0  0
  151.4951  139.7121  157.2362 C   0  0  2  0  0  0  0  0  0  0  0  0
  151.9015  140.0961  158.6791 C   0  0  0  0  0  0  0  0  0  0  0  0
  152.3140  141.5112  158.6826 N   0  3  2  0  0  0  0  0  0  0  0  0
  152.7673  142.1057  159.9516 C   0  0  0  0  0  0  0  0  0  0  0  0
  152.5409  143.6211  159.7778 C   0  0  0  0  0  0  0  0  0  0  0  0
  151.7835  143.7815  158.4465 C   0  0  0  0  0  0  0  0  0  0  0  0
  151.2438  142.3787  158.1858 C   0  0  1  0  0  0  0  0  0  0  0  0
  150.9099  141.9844  156.7414 C   0  0  0  0  0  0  0  0  0  0  0  0
  150.4948  140.6169  156.7520 O   0  0  0  0  0  0  0  0  0  0  0  0
  148.1881  137.3609  159.3147 N   0  0  0  0  0  0  0  0  0  0  0  0
  147.5282  136.5110  160.2475 C   0  0  0  0  0  0  0  0  0  0  0  0
  148.1213  135.2954  160.6762 C   0  0  0  0  0  0  0  0  0  0  0  0
  147.4824  134.5059  161.6505 C   0  0  0  0  0  0  0  0  0  0  0  0
  146.2666  134.9512  162.1959 C   0  0  0  0  0  0  0  0  0  0  0  0
  145.7346  136.1183  161.7783 N   0  3  0  0  0  0  0  0  0  0  0  0
  146.2930  136.9157  160.8333 C   0  0  0  0  0  0  0  0  0  0  0  0
  145.6123  138.1069  160.4914 N   0  0  0  0  0  0  0  0  0  0  0  0
  144.4802  138.5655  161.2881 C   0  0  0  0  0  0  0  0  0  0  0  0
  143.8097  139.6420  160.4393 C   0  0  0  0  0  0  0  0  0  0  0  0
  144.0100  139.1139  159.0221 C   0  0  0  0  0  0  0  0  0  0  0  0
  145.3709  138.4124  159.0846 C   0  0  0  0  0  0  0  0  0  0  0  0
  148.9843  138.8704  157.7118 H   0  0  0  0  0  0  0  0  0  0  0  0
  151.6620  137.5726  157.5727 H   0  0  0  0  0  0  0  0  0  0  0  0
  150.7837  138.0091  156.1176 H   0  0  0  0  0  0  0  0  0  0  0  0
  152.3718  139.7840  156.5894 H   0  0  0  0  0  0  0  0  0  0  0  0
  151.0681  139.9495  159.3683 H   0  0  0  0  0  0  0  0  0  0  0  0
  152.7265  139.4725  159.0258 H   0  0  0  0  0  0  0  0  0  0  0  0
  152.1630  141.7285  160.7783 H   0  0  0  0  0  0  0  0  0  0  0  0
  153.8100  141.8569  160.1505 H   0  0  0  0  0  0  0  0  0  0  0  0
  151.9525  144.0106  160.6094 H   0  0  0  0  0  0  0  0  0  0  0  0
  153.4832  144.1695  159.7578 H   0  0  0  0  0  0  0  0  0  0  0  0
  150.9960  144.5343  158.4951 H   0  0  0  0  0  0  0  0  0  0  0  0
  152.4787  144.0712  157.6571 H   0  0  0  0  0  0  0  0  0  0  0  0
  150.3576  142.2314  158.8079 H   0  0  0  0  0  0  0  0  0  0  0  0
  150.1007  142.6027  156.3527 H   0  0  0  0  0  0  0  0  0  0  0  0
  151.7687  142.1159  156.0810 H   0  0  0  0  0  0  0  0  0  0  0  0
  147.6186  138.0902  158.9112 H   0  0  0  0  0  0  0  0  0  0  0  0
  149.0729  134.9650  160.2881 H   0  0  0  0  0  0  0  0  0  0  0  0
  147.9263  133.5789  161.9832 H   0  0  0  0  0  0  0  0  0  0  0  0
  145.7094  134.4172  162.9520 H   0  0  0  0  0  0  0  0  0  0  0  0
  143.7796  137.7475  161.4618 H   0  0  0  0  0  0  0  0  0  0  0  0
  144.8029  138.9545  162.2542 H   0  0  0  0  0  0  0  0  0  0  0  0
  142.7607  139.7945  160.6955 H   0  0  0  0  0  0  0  0  0  0  0  0
  144.3313  140.5928  160.5599 H   0  0  0  0  0  0  0  0  0  0  0  0
  143.2317  138.3857  158.7903 H   0  0  0  0  0  0  0  0  0  0  0  0
  143.9719  139.8983  158.2656 H   0  0  0  0  0  0  0  0  0  0  0  0
  146.1524  139.0869  158.7339 H   0  0  0  0  0  0  0  0  0  0  0  0
  145.3860  137.5189  158.4592 H   0  0  0  0  0  0  0  0  0  0  0  0
  153.0823  141.6033  158.0335 H   0  0  0  0  0  0  0  0  0  0  0  0
  144.8524  136.4154  162.1955 H   0  0  0  0  0  0  0  0  0  0  0  0
  1  2  2  0  0  0  0
  2  3  1  0  0  0  0
  2 14  1  0  0  0  0
  3  4  1  0  0  0  0
  3 26  1  0  0  0  0
  4  5  1  0  0  0  0
  4 27  1  0  0  0  0
  4 28  1  0  0  0  0
  5 13  1  0  0  0  0
  5  6  1  0  0  0  0
  5 29  1  0  0  0  0
  6  7  1  0  0  0  0
  6 30  1  0  0  0  0
  6 31  1  0  0  0  0
  7 11  1  0  0  0  0
  7  8  1  0  0  0  0
  7 53  1  0  0  0  0
  8  9  1  0  0  0  0
  8 32  1  0  0  0  0
  8 33  1  0  0  0  0
  9 10  1  0  0  0  0
  9 34  1  0  0  0  0
  9 35  1  0  0  0  0
 10 11  1  0  0  0  0
 10 36  1  0  0  0  0
 10 37  1  0  0  0  0
 11 12  1  0  0  0  0
 11 38  1  0  0  0  0
 12 13  1  0  0  0  0
 12 39  1  0  0  0  0
 12 40  1  0  0  0  0
 14 15  1  0  0  0  0
 14 41  1  0  0  0  0
 15 20  1  0  0  0  0
 15 16  2  0  0  0  0
 16 17  1  0  0  0  0
 16 42  1  0  0  0  0
 17 18  2  0  0  0  0
 17 43  1  0  0  0  0
 18 19  1  0  0  0  0
 18 44  1  0  0  0  0
 19 20  2  0  0  0  0
 19 54  1  0  0  0  0
 20 21  1  0  0  0  0
 21 25  1  0  0  0  0
 21 22  1  0  0  0  0
 22 23  1  0  0  0  0
 22 45  1  0  0  0  0
 22 46  1  0  0  0  0
 23 24  1  0  0  0  0
 23 47  1  0  0  0  0
 23 48  1  0  0  0  0
 24 25  1  0  0  0  0
 24 49  1  0  0  0  0
 24 50  1  0  0  0  0
 25 51  1  0  0  0  0
 25 52  1  0  0  0  0
M  CHG  1   7   1
M  CHG  1  19   1
M  END
> <s_m_source_file>
AV-unprocessed.smi

> <i_m_source_file_index>
1830

> <i_lp_mmshare_version>
43012

> <i_f3d_flags>
0

> <s_epik_input>
W0NIMl0xW0NIMl1bQ0gyXVtDQEhdKE4xMilbQ0gyXU9bQ0BASF0oW0NIMl0yKVtDSDJdW05IXUMoPU8pW05IXWMzW2NIXVtjSF1bY0hdbmMzTjRbQ0gyXVtDSDJdW0NIMl1bQ0gyXTQ=

> <s_epik_cmdline>
J2VwaWtfcHl0aG9uJywgJy1waCcsICc3LjAnLCAnLXRuJywgJzgnLCAnLW1hJywgJzIwMCcsICctbWV0YWxfYmluZGluZycsICctaW1hZScsICc8aW5maWxlLm1hZT4nLCAnLW9tYWUnLCAnPG91dGZpbGUubWFlPic=

> <r_lp_tautomer_probability>
0.999994

> <r_epik_Ionization_Penalty>
1.29113

> <r_epik_Ionization_Penalty_Charging>
1.29111

> <r_epik_Ionization_Penalty_Neutral>
1.88144e-05

> <r_epik_State_Penalty>
1.32676

> <r_epik_Charging_Adjusted_Penalty>
2.61787

> <i_epik_Tot_Q>
2

> <i_epik_Tot_abs_Q>
2

> <r_epik_Metal_State_Penalty>
1.40425

> <b_epik_Metal_Only>
0

> <s_lp_Force_Field>
OPLS_2005

> <r_lp_Energy>
74.3766

> <b_lp_Chiralities_Consistent>
1

> <s_lp_Variant>
AV-unprocessed.smi:1830-13

> <Gold.Version>
5.8.1

> <Gold.Id.Protein>
6NUR|6NUR_protein|mol2

> <Gold.PLP.Fitness>
40.3315

> <Gold.PLP.PLP>
-36.5477

> <Gold.PLP.part.hbond>
-2.0000

> <Gold.PLP.part.metal>
0.0000

> <Gold.PLP.part.buried>
-6.4327

> <Gold.PLP.part.nonpolar>
-29.3455

> <Gold.PLP.part.repulsive>
0.4286

> <Gold.PLP.ligand.clash>
0.0000

> <Gold.PLP.ligand.torsion>
0.2704

> <Gold.PLP.Chemscore.Hbond>
1.3080

> <Gold.PLP.Chemscore.CHOScore>
0.0000

> <Gold.PLP.Chemscore.Metal>
0.0000

> <Gold.Chemscore.Hbonds>
donor molecule, donor type, donor heavy atom, donor atom, acceptor molecule, acceptor atom, score
      P1  H  6896  6907       L1     1  1.00
      P1  H  6934  6947       L1    21  0.37

> <Gold.PLP.Chemscore.Internal.Correction>
0.4006

> <Gold.Rescore>
     Score         DG    S(hbond)    S(metal)    S(lipo)     H(rot)  DE(clash)    DE(int)     intcor
     14.92     -16.66       0.99        0.00      98.55       1.43       0.09       1.64       ----

> <Gold.Chemscore.Fitness>
14.9227

> <Gold.Chemscore.DG>
-16.6587

> <Gold.Chemscore.ZeroCoef>
-5.4800

> <Gold.Chemscore.Hbond>
0.9892

> <Gold.Chemscore.Metal>
0.0000

> <Gold.Chemscore.Lipo>
98.5463

> <Gold.Chemscore.Internal_Hbond>
0.0000

> <Gold.Chemscore.DEClash>
0.0928

> <Gold.Chemscore.DEInternal>
1.6433

> <Gold.Chemscore.Rot>
1.4278

> <Gold.Chemscore.Internal.Correction>
   9.000000E+99

> <Gold.Chemscore.Hbonds>
donor molecule, donor type, donor heavy atom, donor atom, acceptor molecule, acceptor atom, score
      P1  H  6896  6907       L1     1  0.99
      P1  H  6934  6947       L1    21  0.01

> <Gold.Chemscore.Hbond.Weighted>
-3.3039

> <Gold.Chemscore.Metal.Weighted>
-0.0000

> <Gold.Chemscore.Lipo.Weighted>
-11.5299

> <Gold.Chemscore.Internal_Hbond.Weighted>
0.0000

> <Gold.Chemscore.DEClash.Weighted>
0.0928

> <Gold.Chemscore.DEInternal.Weighted>
1.6433

> <Gold.Chemscore.Rot.Weighted>
3.6551

> <Gold.Chemscore.Internal.Correction.Weighted>
   9.000000E+99

> <Gold.Protein.RotatedTorsions>
[ 6907 6896 6895 6894 ] final  -29.21 input  -60.11 | X-H torsion
[ 7974 7965 7964 7962 ] final  165.34 input  175.53 | X-H torsion
[ 8008 7997 7996 7995 ] final -141.82 input   59.86 | X-H torsion
[ 10167 10162 10161 10158 ] final  -22.79 input  -65.29 | X-H torsion
[ 10718 10713 10712 10709 ] final  -91.19 input   66.30 | X-H torsion
[ 10763 10752 10751 10750 ] final -150.65 input  -60.55 | X-H torsion
[ 11005 11000 10999 10996 ] final  -22.86 input  -57.11 | X-H torsion

> <Gold.Protein.ActiveResidues>
 VAL166  LYS551  ARG553  GLY616  TRP617  ASP618  TYR619  PRO620  LYS621  CYS622 
 ASP623  PHE694  ASN695  SER759  ASP760  ASP761  ALA762  ILE779  LEU786  VAL792 
 PHE793  MET794  SER795  GLU796  ALA797  LYS798  CYS799  TRP800  GLU811  SER814 

> <Gold.Protein.RotatedAtoms>
  151.1223  135.0086  159.8543 H   0  0  0  0  0  0  0  0  0  0  0  0  # atno 6907 bound_to 6896
  152.5448  134.1708  159.8606 H   0  0  0  0  0  0  0  0  0  0  0  0  # atno 6908 bound_to 6896
  151.1767  133.4705  159.2627 H   0  0  0  0  0  0  0  0  0  0  0  0  # atno 6909 bound_to 6896
  144.7507  139.8456  143.6367 H   0  0  0  0  0  0  0  0  0  0  0  0  # atno 7974 bound_to 7965
  155.4841  140.0562  157.2963 H   0  0  0  0  0  0  0  0  0  0  0  0  # atno 8008 bound_to 7997
  154.4649  140.2013  156.0098 H   0  0  0  0  0  0  0  0  0  0  0  0  # atno 8009 bound_to 7997
  156.0956  140.3227  155.7877 H   0  0  0  0  0  0  0  0  0  0  0  0  # atno 8010 bound_to 7997
  140.7287  143.4502  151.0527 H   0  0  0  0  0  0  0  0  0  0  0  0  # atno 10167 bound_to 10162
  155.9992  130.4938  150.5437 H   0  0  0  0  0  0  0  0  0  0  0  0  # atno 10718 bound_to 10713
  154.8106  135.3279  154.7316 H   0  0  0  0  0  0  0  0  0  0  0  0  # atno 10763 bound_to 10752
  153.7966  135.6907  153.4867 H   0  0  0  0  0  0  0  0  0  0  0  0  # atno 10764 bound_to 10752
  153.1882  135.4561  155.0061 H   0  0  0  0  0  0  0  0  0  0  0  0  # atno 10765 bound_to 10752
  140.8697  133.7729  156.0172 H   0  0  0  0  0  0  0  0  0  0  0  0  # atno 11005 bound_to 11000
  146.1452  139.4519  143.0084 LP  0  0  0  0  0  0  0  0  0  0  0  0  # atno 17320 bound_to 7965
  145.6956  141.0151  143.1531 LP  0  0  0  0  0  0  0  0  0  0  0  0  # atno 17321 bound_to 7965
  139.8178  143.7862  152.3175 LP  0  0  0  0  0  0  0  0  0  0  0  0  # atno 17342 bound_to 10162
  139.7934  144.7402  150.9924 LP  0  0  0  0  0  0  0  0  0  0  0  0  # atno 17343 bound_to 10162
  157.3370  131.0710  151.1817 LP  0  0  0  0  0  0  0  0  0  0  0  0  # atno 17370 bound_to 10713
  157.2679  130.6690  149.6005 LP  0  0  0  0  0  0  0  0  0  0  0  0  # atno 17371 bound_to 10713
  140.8587  134.2866  157.5244 LP  0  0  0  0  0  0  0  0  0  0  0  0  # atno 17394 bound_to 11000
  139.8711  134.9507  156.4062 LP  0  0  0  0  0  0  0  0  0  0  0  0  # atno 17395 bound_to 11000

$$$$
