AV-unprocessed.smi:2062|AV-procd|sdf|8407|dock5
  -GOLD-   2272011 93D 1   1.00000     0.00000
 Structure written by MMmdl.
 41 42  0  0  0  0  0  0  0  0  2 V2000
  151.4478  144.5931  160.1359 C   0  0  0  0  0  0  0  0  0  0  0  0
  151.7874  143.6516  158.9675 C   0  0  0  0  0  0  0  0  0  0  0  0
  152.2598  144.4705  157.7561 C   0  0  0  0  0  0  0  0  0  0  0  0
  150.5904  142.7463  158.5923 C   0  0  0  0  0  0  0  0  0  0  0  0
  150.9313  141.5062  157.8939 N   0  0  0  0  0  0  0  0  0  0  0  0
  151.2353  141.7662  156.4913 C   0  0  0  0  0  0  0  0  0  0  0  0
  151.5985  140.4792  155.7332 C   0  0  0  0  0  0  0  0  0  0  0  0
  150.5326  139.5447  155.8559 O   0  0  0  0  0  0  0  0  0  0  0  0
  150.2383  139.2108  157.2106 C   0  0  2  0  0  0  0  0  0  0  0  0
  149.0898  138.1923  157.2277 C   0  0  0  0  0  0  0  0  0  0  0  0
  148.5198  138.0802  158.5638 N   0  0  0  0  0  0  0  0  0  0  0  0
  148.6406  137.0155  159.3673 C   0  0  0  0  0  0  0  0  0  0  0  0
  149.2787  136.0304  158.9886 O   0  0  0  0  0  0  0  0  0  0  0  0
  148.0159  137.1581  160.5585 N   0  5  0  0  0  0  0  0  0  0  0  0
  147.7126  136.0754  161.2930 C   0  0  0  0  0  0  0  0  0  0  0  0
  147.5164  134.8638  160.7603 N   0  0  0  0  0  0  0  0  0  0  0  0
  147.2030  133.8858  161.7060 C   0  0  0  0  0  0  0  0  0  0  0  0
  147.1497  134.3657  162.9877 C   0  0  0  0  0  0  0  0  0  0  0  0
  147.4958  136.0705  163.0455 S   0  0  0  0  0  0  0  0  0  0  0  0
  149.8735  140.5012  157.9717 C   0  0  0  0  0  0  0  0  0  0  0  0
  150.6399  145.2757  159.8708 H   0  0  0  0  0  0  0  0  0  0  0  0
  152.3116  145.1968  160.4155 H   0  0  0  0  0  0  0  0  0  0  0  0
  151.1355  144.0433  161.0231 H   0  0  0  0  0  0  0  0  0  0  0  0
  152.6267  143.0224  159.2672 H   0  0  0  0  0  0  0  0  0  0  0  0
  151.4705  145.1266  157.3875 H   0  0  0  0  0  0  0  0  0  0  0  0
  152.5635  143.8193  156.9361 H   0  0  0  0  0  0  0  0  0  0  0  0
  153.1177  145.0927  158.0123 H   0  0  0  0  0  0  0  0  0  0  0  0
  149.9945  142.5248  159.4793 H   0  0  0  0  0  0  0  0  0  0  0  0
  149.9274  143.3198  157.9428 H   0  0  0  0  0  0  0  0  0  0  0  0
  150.3774  142.2370  156.0081 H   0  0  0  0  0  0  0  0  0  0  0  0
  152.0625  142.4730  156.4155 H   0  0  0  0  0  0  0  0  0  0  0  0
  151.7647  140.6939  154.6775 H   0  0  0  0  0  0  0  0  0  0  0  0
  152.5210  140.0456  156.1224 H   0  0  0  0  0  0  0  0  0  0  0  0
  151.1215  138.7610  157.6688 H   0  0  0  0  0  0  0  0  0  0  0  0
  148.3063  138.5057  156.5363 H   0  0  0  0  0  0  0  0  0  0  0  0
  149.4434  137.2153  156.8942 H   0  0  0  0  0  0  0  0  0  0  0  0
  147.9955  138.8713  158.9077 H   0  0  0  0  0  0  0  0  0  0  0  0
  147.0310  132.8717  161.3773 H   0  0  0  0  0  0  0  0  0  0  0  0
  146.9287  133.8251  163.8954 H   0  0  0  0  0  0  0  0  0  0  0  0
  149.6817  140.2429  159.0127 H   0  0  0  0  0  0  0  0  0  0  0  0
  148.9446  140.9109  157.5718 H   0  0  0  0  0  0  0  0  0  0  0  0
  1  2  1  0  0  0  0
  1 21  1  0  0  0  0
  1 22  1  0  0  0  0
  1 23  1  0  0  0  0
  2  3  1  0  0  0  0
  2  4  1  0  0  0  0
  2 24  1  0  0  0  0
  3 25  1  0  0  0  0
  3 26  1  0  0  0  0
  3 27  1  0  0  0  0
  4  5  1  0  0  0  0
  4 28  1  0  0  0  0
  4 29  1  0  0  0  0
  5 20  1  0  0  0  0
  5  6  1  0  0  0  0
  6  7  1  0  0  0  0
  6 30  1  0  0  0  0
  6 31  1  0  0  0  0
  7  8  1  0  0  0  0
  7 32  1  0  0  0  0
  7 33  1  0  0  0  0
  8  9  1  0  0  0  0
  9 10  1  0  0  0  0
  9 20  1  0  0  0  0
  9 34  1  0  0  0  0
 10 11  1  0  0  0  0
 10 35  1  0  0  0  0
 10 36  1  0  0  0  0
 11 12  1  0  0  0  0
 11 37  1  0  0  0  0
 12 13  2  0  0  0  0
 12 14  1  0  0  0  0
 14 15  1  0  0  0  0
 15 19  1  0  0  0  0
 15 16  2  0  0  0  0
 16 17  1  0  0  0  0
 17 18  2  0  0  0  0
 17 38  1  0  0  0  0
 18 19  1  0  0  0  0
 18 39  1  0  0  0  0
 20 40  1  0  0  0  0
 20 41  1  0  0  0  0
M  CHG  1  14  -1
M  END
> <s_m_source_file>
AV-unprocessed.smi

> <i_m_source_file_index>
2062

> <i_lp_mmshare_version>
43012

> <i_f3d_flags>
0

> <s_epik_input>
W0NIM11bQ0hdKFtDSDNdKVtDSDJdTjFbQ0gyXVtDSDJdT1tDQEhdKFtDSDJdMSlbQ0gyXVtOSF1DKD1PKVtOSF1jMm5bY0hdW2NIXXMy

> <s_epik_cmdline>
J2VwaWtfcHl0aG9uJywgJy1waCcsICc3LjAnLCAnLXRuJywgJzgnLCAnLW1hJywgJzIwMCcsICctbWV0YWxfYmluZGluZycsICctaW1hZScsICc8aW5maWxlLm1hZT4nLCAnLW9tYWUnLCAnPG91dGZpbGUubWFlPic=

> <r_lp_tautomer_probability>
0.999

> <r_epik_Ionization_Penalty>
7.76343

> <r_epik_Ionization_Penalty_Charging>
5.65212

> <r_epik_Ionization_Penalty_Neutral>
2.11131

> <r_epik_State_Penalty>
6.82229

> <r_epik_Charging_Adjusted_Penalty>
12.4744

> <i_epik_Tot_Q>
-1

> <i_epik_Tot_abs_Q>
1

> <r_epik_Metal_State_Penalty>
2.82401

> <b_epik_Metal_Only>
1

> <s_lp_Force_Field>
OPLS_2005

> <r_lp_Energy>
20.4401

> <b_lp_Chiralities_Consistent>
1

> <s_lp_Variant>
AV-unprocessed.smi:2062-12

> <Gold.Version>
5.8.1

> <Gold.Id.Protein>
6NUR|6NUR_protein|mol2

> <Gold.PLP.Fitness>
49.5910

> <Gold.PLP.PLP>
-38.6882

> <Gold.PLP.part.hbond>
-2.9803

> <Gold.PLP.part.metal>
0.0000

> <Gold.PLP.part.buried>
-3.9494

> <Gold.PLP.part.nonpolar>
-32.2593

> <Gold.PLP.part.repulsive>
0.2159

> <Gold.PLP.ligand.clash>
0.0000

> <Gold.PLP.ligand.torsion>
0.7495

> <Gold.PLP.Chemscore.Hbond>
4.1040

> <Gold.PLP.Chemscore.CHOScore>
0.0000

> <Gold.PLP.Chemscore.Metal>
0.0000

> <Gold.Chemscore.Hbonds>
donor molecule, donor type, donor heavy atom, donor atom, acceptor molecule, acceptor atom, score
      P1  H  6896  6908       L1    13  0.94
      P1  H  6931  6943       L1    14  1.60
      P1  H  6934  6947       L1    14  1.40

> <Gold.PLP.Chemscore.Internal.Correction>
0.0898

> <Gold.Rescore>
     Score         DG    S(hbond)    S(metal)    S(lipo)     H(rot)  DE(clash)    DE(int)     intcor
     15.94     -18.32       1.75        0.00      96.57       1.68       0.10       2.29       ----

> <Gold.Chemscore.Fitness>
15.9360

> <Gold.Chemscore.DG>
-18.3228

> <Gold.Chemscore.ZeroCoef>
-5.4800

> <Gold.Chemscore.Hbond>
1.7484

> <Gold.Chemscore.Metal>
0.0000

> <Gold.Chemscore.Lipo>
96.5668

> <Gold.Chemscore.Internal_Hbond>
0.0000

> <Gold.Chemscore.DEClash>
0.0982

> <Gold.Chemscore.DEInternal>
2.2886

> <Gold.Chemscore.Rot>
1.6779

> <Gold.Chemscore.Internal.Correction>
   9.000000E+99

> <Gold.Chemscore.Hbonds>
donor molecule, donor type, donor heavy atom, donor atom, acceptor molecule, acceptor atom, score
      P1  H  6896  6908       L1    13  0.90
      P1  H  6931  6943       L1    14  0.20
      P1  H  6934  6947       L1    14  0.59

> <Gold.Chemscore.Hbond.Weighted>
-5.8398

> <Gold.Chemscore.Metal.Weighted>
-0.0000

> <Gold.Chemscore.Lipo.Weighted>
-11.2983

> <Gold.Chemscore.Internal_Hbond.Weighted>
0.0000

> <Gold.Chemscore.DEClash.Weighted>
0.0982

> <Gold.Chemscore.DEInternal.Weighted>
2.2886

> <Gold.Chemscore.Rot.Weighted>
4.2953

> <Gold.Chemscore.Internal.Correction.Weighted>
   9.000000E+99

> <Gold.Protein.RotatedTorsions>
[ 6907 6896 6895 6894 ] final -178.92 input  -60.11 | X-H torsion
[ 7974 7965 7964 7962 ] final -140.93 input  175.53 | X-H torsion
[ 8008 7997 7996 7995 ] final  104.68 input   59.86 | X-H torsion
[ 10167 10162 10161 10158 ] final -119.70 input  -65.29 | X-H torsion
[ 10718 10713 10712 10709 ] final  -17.51 input   66.30 | X-H torsion
[ 10763 10752 10751 10750 ] final  -62.31 input  -60.55 | X-H torsion
[ 11005 11000 10999 10996 ] final  126.85 input  -57.11 | X-H torsion

> <Gold.Protein.ActiveResidues>
 VAL166  LYS551  ARG553  GLY616  TRP617  ASP618  TYR619  PRO620  LYS621  CYS622 
 ASP623  PHE694  ASN695  SER759  ASP760  ASP761  ALA762  ILE779  LEU786  VAL792 
 PHE793  MET794  SER795  GLU796  ALA797  LYS798  CYS799  TRP800  GLU811  SER814 

> <Gold.Protein.RotatedAtoms>
  151.6450  133.3324  159.3138 H   0  0  0  0  0  0  0  0  0  0  0  0  # atno 6907 bound_to 6896
  150.7989  134.7072  159.6593 H   0  0  0  0  0  0  0  0  0  0  0  0  # atno 6908 bound_to 6896
  152.4079  134.6179  160.0094 H   0  0  0  0  0  0  0  0  0  0  0  0  # atno 6909 bound_to 6896
  144.8559  140.6141  143.5360 H   0  0  0  0  0  0  0  0  0  0  0  0  # atno 7974 bound_to 7965
  156.1594  140.3143  155.8781 H   0  0  0  0  0  0  0  0  0  0  0  0  # atno 8008 bound_to 7997
  155.3813  140.0488  157.3060 H   0  0  0  0  0  0  0  0  0  0  0  0  # atno 8009 bound_to 7997
  154.5132  140.2172  155.9128 H   0  0  0  0  0  0  0  0  0  0  0  0  # atno 8010 bound_to 7997
  140.0438  143.5127  152.2116 H   0  0  0  0  0  0  0  0  0  0  0  0  # atno 10167 bound_to 10162
  156.5726  130.4753  149.6356 H   0  0  0  0  0  0  0  0  0  0  0  0  # atno 10718 bound_to 10713
  154.2979  135.6240  153.5412 H   0  0  0  0  0  0  0  0  0  0  0  0  # atno 10763 bound_to 10752
  152.9844  135.5671  154.5317 H   0  0  0  0  0  0  0  0  0  0  0  0  # atno 10764 bound_to 10752
  154.4941  135.2869  155.1449 H   0  0  0  0  0  0  0  0  0  0  0  0  # atno 10765 bound_to 10752
  139.9477  134.9627  156.8768 H   0  0  0  0  0  0  0  0  0  0  0  0  # atno 11005 bound_to 11000
  145.4407  139.1536  143.3972 LP  0  0  0  0  0  0  0  0  0  0  0  0  # atno 17320 bound_to 7965
  146.2822  140.4529  142.8772 LP  0  0  0  0  0  0  0  0  0  0  0  0  # atno 17321 bound_to 7965
  139.5996  144.7578  151.3202 LP  0  0  0  0  0  0  0  0  0  0  0  0  # atno 17342 bound_to 10162
  140.7248  143.7035  150.7826 LP  0  0  0  0  0  0  0  0  0  0  0  0  # atno 17343 bound_to 10162
  156.2701  130.7012  151.1807 LP  0  0  0  0  0  0  0  0  0  0  0  0  # atno 17370 bound_to 10713
  157.7345  131.0581  150.5522 LP  0  0  0  0  0  0  0  0  0  0  0  0  # atno 17371 bound_to 10713
  140.5794  134.0366  155.7458 LP  0  0  0  0  0  0  0  0  0  0  0  0  # atno 17394 bound_to 11000
  141.1132  133.9583  157.2871 LP  0  0  0  0  0  0  0  0  0  0  0  0  # atno 17395 bound_to 11000

$$$$
