AV-unprocessed.smi:2083|AV-procd|sdf|8506|dock3
  -GOLD-   2272011213D 1   1.00000     0.00000
 Structure written by MMmdl.
 44 45  0  0  0  0  0  0  0  0  3 V2000
  152.5598  143.7738  160.1999 C   0  0  0  0  0  0  0  0  0  0  0  0
  151.6241  143.1000  159.2558 C   0  0  0  0  0  0  0  0  0  0  0  0
  151.2174  143.3903  157.9843 C   0  0  0  0  0  0  0  0  0  0  0  0
  150.3141  142.3352  157.6869 C   0  0  0  0  0  0  0  0  0  0  0  0
  149.6566  142.2800  156.4297 N   0  0  0  0  0  0  0  0  0  0  0  0
  149.9358  141.5066  155.3646 C   0  0  0  0  0  0  0  0  0  0  0  0
  150.8874  140.7170  155.3978 O   0  0  0  0  0  0  0  0  0  0  0  0
  149.0708  141.7195  154.3358 N   0  5  0  0  0  0  0  0  0  0  0  0
  148.5516  140.6709  153.4594 C   0  0  0  0  0  0  0  0  0  0  0  0
  146.9944  140.7610  153.3666 C   0  0  2  0  0  0  0  0  0  0  0  0
  146.3358  141.3365  154.6431 C   0  0  0  0  0  0  0  0  0  0  0  0
  146.2934  139.4964  152.9549 N   0  3  1  0  0  0  0  0  0  0  0  0
  146.7779  138.8907  151.6824 C   0  0  0  0  0  0  0  0  0  0  0  0
  145.7741  137.8507  151.1617 C   0  0  0  0  0  0  0  0  0  0  0  0
  145.5007  136.7724  152.2191 C   0  0  0  0  0  0  0  0  0  0  0  0
  145.0305  137.4169  153.5350 C   0  0  1  0  0  0  0  0  0  0  0  0
  144.7675  136.3583  154.6153 C   0  0  0  0  0  0  0  0  0  0  0  0
  146.0545  138.4665  154.0108 C   0  0  0  0  0  0  0  0  0  0  0  0
  150.1855  141.4754  158.6867 N   0  0  0  0  0  0  0  0  0  0  0  0
  151.0245  141.9609  159.6968 O   0  0  0  0  0  0  0  0  0  0  0  0
  152.8140  144.7741  159.8488 H   0  0  0  0  0  0  0  0  0  0  0  0
  153.4838  143.2045  160.2989 H   0  0  0  0  0  0  0  0  0  0  0  0
  152.1111  143.8679  161.1889 H   0  0  0  0  0  0  0  0  0  0  0  0
  151.5163  144.2251  157.3682 H   0  0  0  0  0  0  0  0  0  0  0  0
  148.8656  142.8977  156.3251 H   0  0  0  0  0  0  0  0  0  0  0  0
  148.9705  140.7654  152.4573 H   0  0  0  0  0  0  0  0  0  0  0  0
  148.8279  139.6722  153.7998 H   0  0  0  0  0  0  0  0  0  0  0  0
  146.7672  141.4804  152.5780 H   0  0  0  0  0  0  0  0  0  0  0  0
  146.6692  142.3544  154.8535 H   0  0  0  0  0  0  0  0  0  0  0  0
  146.5403  140.7388  155.5324 H   0  0  0  0  0  0  0  0  0  0  0  0
  145.2525  141.3847  154.5274 H   0  0  0  0  0  0  0  0  0  0  0  0
  146.9129  139.6645  150.9258 H   0  0  0  0  0  0  0  0  0  0  0  0
  147.7504  138.4205  151.8339 H   0  0  0  0  0  0  0  0  0  0  0  0
  144.8401  138.3461  150.8929 H   0  0  0  0  0  0  0  0  0  0  0  0
  146.1539  137.3904  150.2492 H   0  0  0  0  0  0  0  0  0  0  0  0
  144.7489  136.0742  151.8493 H   0  0  0  0  0  0  0  0  0  0  0  0
  146.4077  136.1915  152.3927 H   0  0  0  0  0  0  0  0  0  0  0  0
  144.0871  137.9300  153.3420 H   0  0  0  0  0  0  0  0  0  0  0  0
  145.6765  135.8085  154.8616 H   0  0  0  0  0  0  0  0  0  0  0  0
  144.0212  135.6361  154.2838 H   0  0  0  0  0  0  0  0  0  0  0  0
  144.3967  136.8168  155.5325 H   0  0  0  0  0  0  0  0  0  0  0  0
  146.9903  137.9698  154.2726 H   0  0  0  0  0  0  0  0  0  0  0  0
  145.6826  138.9380  154.9197 H   0  0  0  0  0  0  0  0  0  0  0  0
  145.3676  139.8244  152.7212 H   0  0  0  0  0  0  0  0  0  0  0  0
  1  2  1  0  0  0  0
  1 21  1  0  0  0  0
  1 22  1  0  0  0  0
  1 23  1  0  0  0  0
  2 20  1  0  0  0  0
  2  3  2  0  0  0  0
  3  4  1  0  0  0  0
  3 24  1  0  0  0  0
  4  5  1  0  0  0  0
  4 19  2  0  0  0  0
  5  6  1  0  0  0  0
  5 25  1  0  0  0  0
  6  7  2  0  0  0  0
  6  8  1  0  0  0  0
  8  9  1  0  0  0  0
  9 10  1  0  0  0  0
  9 26  1  0  0  0  0
  9 27  1  0  0  0  0
 10 11  1  0  0  0  0
 10 12  1  0  0  0  0
 10 28  1  0  0  0  0
 11 29  1  0  0  0  0
 11 30  1  0  0  0  0
 11 31  1  0  0  0  0
 12 18  1  0  0  0  0
 12 13  1  0  0  0  0
 12 44  1  0  0  0  0
 13 14  1  0  0  0  0
 13 32  1  0  0  0  0
 13 33  1  0  0  0  0
 14 15  1  0  0  0  0
 14 34  1  0  0  0  0
 14 35  1  0  0  0  0
 15 16  1  0  0  0  0
 15 36  1  0  0  0  0
 15 37  1  0  0  0  0
 16 17  1  0  0  0  0
 16 18  1  0  0  0  0
 16 38  1  0  0  0  0
 17 39  1  0  0  0  0
 17 40  1  0  0  0  0
 17 41  1  0  0  0  0
 18 42  1  0  0  0  0
 18 43  1  0  0  0  0
 19 20  1  0  0  0  0
M  CHG  1   8  -1
M  CHG  1  12   1
M  END
> <s_m_source_file>
AV-unprocessed.smi

> <i_m_source_file_index>
2083

> <i_lp_mmshare_version>
43012

> <i_f3d_flags>
0

> <s_epik_input>
W0NIM11jMVtjSF1jKG5vMSlbTkhdQyg9TylbTkhdW0NIMl1bQ0BIXShbQ0gzXSlOMltDSDJdW0NIMl1bQ0gyXVtDQEBIXShbQ0gzXSlbQ0gyXTI=

> <s_epik_cmdline>
J2VwaWtfcHl0aG9uJywgJy1waCcsICc3LjAnLCAnLXRuJywgJzgnLCAnLW1hJywgJzIwMCcsICctbWV0YWxfYmluZGluZycsICctaW1hZScsICc8aW5maWxlLm1hZT4nLCAnLW9tYWUnLCAnPG91dGZpbGUubWFlPic=

> <r_epik_Ionization_Penalty>
6.76934

> <r_epik_Ionization_Penalty_Charging>
6.76934

> <r_epik_Ionization_Penalty_Neutral>
5.77849e-06

> <r_epik_State_Penalty>
6.79457

> <r_epik_Charging_Adjusted_Penalty>
13.5639

> <i_epik_Tot_Q>
0

> <i_epik_Tot_abs_Q>
2

> <r_epik_Metal_State_Penalty>
2.72837

> <b_epik_Metal_Only>
1

> <s_lp_Force_Field>
OPLS_2005

> <r_lp_Energy>
20.364

> <b_lp_Chiralities_Consistent>
1

> <s_lp_Variant>
AV-unprocessed.smi:2083-17

> <Gold.Version>
5.8.1

> <Gold.Id.Protein>
6NUR|6NUR_protein|mol2

> <Gold.PLP.Fitness>
40.3957

> <Gold.PLP.PLP>
-32.5956

> <Gold.PLP.part.hbond>
-5.7741

> <Gold.PLP.part.metal>
0.0000

> <Gold.PLP.part.buried>
5.4354

> <Gold.PLP.part.nonpolar>
-32.3921

> <Gold.PLP.part.repulsive>
0.3447

> <Gold.PLP.ligand.clash>
0.0000

> <Gold.PLP.ligand.torsion>
1.5002

> <Gold.PLP.Chemscore.Hbond>
3.5093

> <Gold.PLP.Chemscore.CHOScore>
0.0000

> <Gold.PLP.Chemscore.Metal>
0.0000

> <Gold.Chemscore.Hbonds>
donor molecule, donor type, donor heavy atom, donor atom, acceptor molecule, acceptor atom, score
      L1  H     5    25       P1  8028  0.56
      L1  H    12    44       P1 10175  2.00
      P1  H  7989  7998       L1     7  0.83

> <Gold.PLP.Chemscore.Internal.Correction>
0.2724

> <Gold.Rescore>
     Score         DG    S(hbond)    S(metal)    S(lipo)     H(rot)  DE(clash)    DE(int)     intcor
     13.52     -18.39       1.97        0.00      87.27       1.52       3.45       1.41       ----

> <Gold.Chemscore.Fitness>
13.5212

> <Gold.Chemscore.DG>
-18.3850

> <Gold.Chemscore.ZeroCoef>
-5.4800

> <Gold.Chemscore.Hbond>
1.9709

> <Gold.Chemscore.Metal>
0.0000

> <Gold.Chemscore.Lipo>
87.2723

> <Gold.Chemscore.Internal_Hbond>
0.0000

> <Gold.Chemscore.DEClash>
3.4526

> <Gold.Chemscore.DEInternal>
1.4112

> <Gold.Chemscore.Rot>
1.5190

> <Gold.Chemscore.Internal.Correction>
   9.000000E+99

> <Gold.Chemscore.Hbonds>
donor molecule, donor type, donor heavy atom, donor atom, acceptor molecule, acceptor atom, score
      L1  H     5    25       P1  8028  0.55
      L1  H    12    44       P1 10175  1.00
      P1  H  7989  7998       L1     7  0.27

> <Gold.Chemscore.Hbond.Weighted>
-6.5828

> <Gold.Chemscore.Metal.Weighted>
-0.0000

> <Gold.Chemscore.Lipo.Weighted>
-10.2109

> <Gold.Chemscore.Internal_Hbond.Weighted>
0.0000

> <Gold.Chemscore.DEClash.Weighted>
3.4526

> <Gold.Chemscore.DEInternal.Weighted>
1.4112

> <Gold.Chemscore.Rot.Weighted>
3.8886

> <Gold.Chemscore.Internal.Correction.Weighted>
   9.000000E+99

> <Gold.Protein.RotatedTorsions>
[ 6907 6896 6895 6894 ] final -143.59 input  -60.11 | X-H torsion
[ 7974 7965 7964 7962 ] final   55.85 input  175.53 | X-H torsion
[ 8008 7997 7996 7995 ] final  -44.35 input   59.86 | X-H torsion
[ 10167 10162 10161 10158 ] final   55.11 input  -65.29 | X-H torsion
[ 10718 10713 10712 10709 ] final  148.87 input   66.30 | X-H torsion
[ 10763 10752 10751 10750 ] final  172.09 input  -60.55 | X-H torsion
[ 11005 11000 10999 10996 ] final -159.15 input  -57.11 | X-H torsion

> <Gold.Protein.ActiveResidues>
 VAL166  LYS551  ARG553  GLY616  TRP617  ASP618  TYR619  PRO620  LYS621  CYS622 
 ASP623  PHE694  ASN695  SER759  ASP760  ASP761  ALA762  ILE779  LEU786  VAL792 
 PHE793  MET794  SER795  GLU796  ALA797  LYS798  CYS799  TRP800  GLU811  SER814 

> <Gold.Protein.RotatedAtoms>
  151.1025  133.5233  159.2609 H   0  0  0  0  0  0  0  0  0  0  0  0  # atno 6907 bound_to 6896
  151.2058  135.0461  159.8901 H   0  0  0  0  0  0  0  0  0  0  0  0  # atno 6908 bound_to 6896
  152.5444  134.0847  159.8304 H   0  0  0  0  0  0  0  0  0  0  0  0  # atno 6909 bound_to 6896
  145.9461  139.3930  143.0334 H   0  0  0  0  0  0  0  0  0  0  0  0  # atno 7974 bound_to 7965
  154.3997  140.1424  156.3669 H   0  0  0  0  0  0  0  0  0  0  0  0  # atno 8008 bound_to 7997
  155.8129  140.3472  155.5447 H   0  0  0  0  0  0  0  0  0  0  0  0  # atno 8009 bound_to 7997
  155.8367  140.0920  157.1750 H   0  0  0  0  0  0  0  0  0  0  0  0  # atno 8010 bound_to 7997
  140.2229  144.3769  150.6443 H   0  0  0  0  0  0  0  0  0  0  0  0  # atno 10167 bound_to 10162
  157.3032  131.0874  151.1374 H   0  0  0  0  0  0  0  0  0  0  0  0  # atno 10718 bound_to 10713
  154.4211  135.2758  155.1975 H   0  0  0  0  0  0  0  0  0  0  0  0  # atno 10763 bound_to 10752
  154.3920  135.6064  153.5852 H   0  0  0  0  0  0  0  0  0  0  0  0  # atno 10764 bound_to 10752
  152.9833  135.5905  154.4507 H   0  0  0  0  0  0  0  0  0  0  0  0  # atno 10765 bound_to 10752
  140.6457  134.4503  157.5234 H   0  0  0  0  0  0  0  0  0  0  0  0  # atno 11005 bound_to 11000
  145.8235  140.9667  143.0886 LP  0  0  0  0  0  0  0  0  0  0  0  0  # atno 17320 bound_to 7965
  144.6787  140.0071  143.7484 LP  0  0  0  0  0  0  0  0  0  0  0  0  # atno 17321 bound_to 7965
  140.6242  143.2179  151.6632 LP  0  0  0  0  0  0  0  0  0  0  0  0  # atno 17342 bound_to 10162
  139.5137  144.3433  152.0720 LP  0  0  0  0  0  0  0  0  0  0  0  0  # atno 17343 bound_to 10162
  157.2725  130.6711  149.6026 LP  0  0  0  0  0  0  0  0  0  0  0  0  # atno 17370 bound_to 10713
  155.9673  130.4475  150.5582 LP  0  0  0  0  0  0  0  0  0  0  0  0  # atno 17371 bound_to 10713
  139.9064  134.8441  156.1692 LP  0  0  0  0  0  0  0  0  0  0  0  0  # atno 17394 bound_to 11000
  141.0574  133.6858  156.1886 LP  0  0  0  0  0  0  0  0  0  0  0  0  # atno 17395 bound_to 11000

$$$$
