AV-unprocessed.smi:942|AV-procd|sdf|4226|dock3
  -GOLD-   22720 2133D 1   1.00000     0.00000
 Structure written by MMmdl.
 42 44  0  0  0  0  0  0  0  0  1 V2000
  152.7610  139.8712  156.9171 O   0  0  0  0  0  0  0  0  0  0  0  0
  151.7425  140.5614  156.9683 C   0  0  0  0  0  0  0  0  0  0  0  0
  150.7461  140.4769  156.0742 N   0  0  0  0  0  0  0  0  0  0  0  0
  150.7294  139.6213  154.8858 C   0  0  1  0  0  0  0  0  0  0  0  0
  151.2694  138.2187  155.2337 C   0  0  0  0  0  0  0  0  0  0  0  0
  150.0888  137.2445  155.1080 C   0  0  0  0  0  0  0  0  0  0  0  0
  148.8359  138.1188  155.0994 C   0  0  0  0  0  0  0  0  0  0  0  0
  149.2924  139.3877  154.3721 C   0  0  1  0  0  0  0  0  0  0  0  0
  148.4037  140.5399  154.4990 N   0  0  0  0  0  0  0  0  0  0  0  0
  147.9974  141.4370  153.5153 C   0  0  0  0  0  0  0  0  0  0  0  0
  147.1652  142.3461  154.1277 C   0  0  0  0  0  0  0  0  0  0  0  0
  147.0550  142.0435  155.4817 N   0  0  0  0  0  0  0  0  0  0  0  0
  147.8205  140.9704  155.6276 C   0  0  0  0  0  0  0  0  0  0  0  0
  151.5649  141.5978  158.0853 C   0  0  0  0  0  0  0  0  0  0  0  0
  151.3221  143.0036  157.4953 C   0  0  0  0  0  0  0  0  0  0  0  0
  151.1544  144.0546  158.6050 C   0  0  0  0  0  0  0  0  0  0  0  0
  152.3631  144.0605  159.5547 C   0  0  0  0  0  0  0  0  0  0  0  0
  152.6167  142.6627  160.1414 C   0  0  0  0  0  0  0  0  0  0  0  0
  152.7861  141.6148  159.0293 C   0  0  0  0  0  0  0  0  0  0  0  0
  149.9498  141.0845  156.2020 H   0  0  0  0  0  0  0  0  0  0  0  0
  151.3257  140.0664  154.0874 H   0  0  0  0  0  0  0  0  0  0  0  0
  152.0748  137.9296  154.5576 H   0  0  0  0  0  0  0  0  0  0  0  0
  151.6807  138.1891  156.2438 H   0  0  0  0  0  0  0  0  0  0  0  0
  150.1611  136.7042  154.1632 H   0  0  0  0  0  0  0  0  0  0  0  0
  150.0720  136.5046  155.9085 H   0  0  0  0  0  0  0  0  0  0  0  0
  147.9903  137.6328  154.6118 H   0  0  0  0  0  0  0  0  0  0  0  0
  148.5519  138.3438  156.1285 H   0  0  0  0  0  0  0  0  0  0  0  0
  149.3507  139.1509  153.3083 H   0  0  0  0  0  0  0  0  0  0  0  0
  148.3158  141.3631  152.4863 H   0  0  0  0  0  0  0  0  0  0  0  0
  146.6460  143.1918  153.7011 H   0  0  0  0  0  0  0  0  0  0  0  0
  147.9532  140.4769  156.5794 H   0  0  0  0  0  0  0  0  0  0  0  0
  150.6872  141.3219  158.6730 H   0  0  0  0  0  0  0  0  0  0  0  0
  152.1552  143.2920  156.8523 H   0  0  0  0  0  0  0  0  0  0  0  0
  150.4331  142.9971  156.8628 H   0  0  0  0  0  0  0  0  0  0  0  0
  151.0240  145.0432  158.1636 H   0  0  0  0  0  0  0  0  0  0  0  0
  150.2454  143.8468  159.1709 H   0  0  0  0  0  0  0  0  0  0  0  0
  153.2498  144.3960  159.0150 H   0  0  0  0  0  0  0  0  0  0  0  0
  152.2007  144.7780  160.3593 H   0  0  0  0  0  0  0  0  0  0  0  0
  153.5048  142.6802  160.7736 H   0  0  0  0  0  0  0  0  0  0  0  0
  151.7838  142.3800  160.7863 H   0  0  0  0  0  0  0  0  0  0  0  0
  152.9295  140.6300  159.4758 H   0  0  0  0  0  0  0  0  0  0  0  0
  153.6953  141.8344  158.4671 H   0  0  0  0  0  0  0  0  0  0  0  0
  1  2  2  0  0  0  0
  2  3  1  0  0  0  0
  2 14  1  0  0  0  0
  3  4  1  0  0  0  0
  3 20  1  0  0  0  0
  4  8  1  0  0  0  0
  4  5  1  0  0  0  0
  4 21  1  0  0  0  0
  5  6  1  0  0  0  0
  5 22  1  0  0  0  0
  5 23  1  0  0  0  0
  6  7  1  0  0  0  0
  6 24  1  0  0  0  0
  6 25  1  0  0  0  0
  7  8  1  0  0  0  0
  7 26  1  0  0  0  0
  7 27  1  0  0  0  0
  8  9  1  0  0  0  0
  8 28  1  0  0  0  0
  9 13  1  0  0  0  0
  9 10  1  0  0  0  0
 10 11  2  0  0  0  0
 10 29  1  0  0  0  0
 11 12  1  0  0  0  0
 11 30  1  0  0  0  0
 12 13  2  0  0  0  0
 13 31  1  0  0  0  0
 14 19  1  0  0  0  0
 14 15  1  0  0  0  0
 14 32  1  0  0  0  0
 15 16  1  0  0  0  0
 15 33  1  0  0  0  0
 15 34  1  0  0  0  0
 16 17  1  0  0  0  0
 16 35  1  0  0  0  0
 16 36  1  0  0  0  0
 17 18  1  0  0  0  0
 17 37  1  0  0  0  0
 17 38  1  0  0  0  0
 18 19  1  0  0  0  0
 18 39  1  0  0  0  0
 18 40  1  0  0  0  0
 19 41  1  0  0  0  0
 19 42  1  0  0  0  0
M  END
> <s_m_source_file>
AV-unprocessed.smi

> <i_m_source_file_index>
942

> <i_lp_mmshare_version>
43012

> <i_f3d_flags>
0

> <s_epik_input>
W0NIMl0xW0NIMl1bQ0gyXVtDSDJdW0NIMl1bQ0hdMUMoPU8pW05IXVtDQEBIXTJbQ0gyXVtDSDJdW0NIMl1bQ0BIXTJuM1tjSF1bY0hdbltjSF0z

> <s_epik_cmdline>
J2VwaWtfcHl0aG9uJywgJy1waCcsICc3LjAnLCAnLXRuJywgJzgnLCAnLW1hJywgJzIwMCcsICctbWV0YWxfYmluZGluZycsICctaW1hZScsICc8aW5maWxlLm1hZT4nLCAnLW9tYWUnLCAnPG91dGZpbGUubWFlPic=

> <r_lp_tautomer_probability>
1

> <r_epik_Ionization_Penalty>
0.778458

> <r_epik_Ionization_Penalty_Charging>
0.778458

> <r_epik_Ionization_Penalty_Neutral>
2.79355e-08

> <r_epik_State_Penalty>
0.807804

> <r_epik_Charging_Adjusted_Penalty>
1.58626

> <i_epik_Tot_Q>
0

> <i_epik_Tot_abs_Q>
0

> <r_epik_Metal_State_Penalty>
0.343007

> <b_epik_Metal_Only>
0

> <s_lp_Force_Field>
OPLS_2005

> <r_lp_Energy>
33.2342

> <b_lp_Chiralities_Consistent>
1

> <s_lp_Variant>
AV-unprocessed.smi:942-6

> <Gold.Version>
5.8.1

> <Gold.Id.Protein>
6NUR|6NUR_protein|mol2

> <Gold.PLP.Fitness>
43.2436

> <Gold.PLP.PLP>
-38.6357

> <Gold.PLP.part.hbond>
-1.0000

> <Gold.PLP.part.metal>
0.0000

> <Gold.PLP.part.buried>
-2.3313

> <Gold.PLP.part.nonpolar>
-34.2362

> <Gold.PLP.part.repulsive>
0.2273

> <Gold.PLP.ligand.clash>
0.0000

> <Gold.PLP.ligand.torsion>
0.7100

> <Gold.PLP.Chemscore.Hbond>
1.0000

> <Gold.PLP.Chemscore.CHOScore>
1.0000

> <Gold.PLP.Chemscore.Metal>
0.0000

> <Gold.Chemscore.Hbonds>
donor molecule, donor type, donor heavy atom, donor atom, acceptor molecule, acceptor atom, score
      P1  H  7997  8010       L1     1  1.00
      L1  C    10    29       P1  7957  1.00

> <Gold.PLP.Chemscore.Internal.Correction>
0.0279

> <Gold.Rescore>
     Score         DG    S(hbond)    S(metal)    S(lipo)     H(rot)  DE(clash)    DE(int)     intcor
     14.17     -17.34       0.97        0.00     105.16       1.44       0.08       3.09       ----

> <Gold.Chemscore.Fitness>
14.1671

> <Gold.Chemscore.DG>
-17.3383

> <Gold.Chemscore.ZeroCoef>
-5.4800

> <Gold.Chemscore.Hbond>
0.9701

> <Gold.Chemscore.Metal>
0.0000

> <Gold.Chemscore.Lipo>
105.1573

> <Gold.Chemscore.Internal_Hbond>
0.0000

> <Gold.Chemscore.DEClash>
0.0784

> <Gold.Chemscore.DEInternal>
3.0928

> <Gold.Chemscore.Rot>
1.4395

> <Gold.Chemscore.Internal.Correction>
   9.000000E+99

> <Gold.Chemscore.Hbonds>
donor molecule, donor type, donor heavy atom, donor atom, acceptor molecule, acceptor atom, score
      P1  H  7997  8010       L1     1  0.98

> <Gold.Chemscore.Hbond.Weighted>
-3.2401

> <Gold.Chemscore.Metal.Weighted>
-0.0000

> <Gold.Chemscore.Lipo.Weighted>
-12.3034

> <Gold.Chemscore.Internal_Hbond.Weighted>
0.0000

> <Gold.Chemscore.DEClash.Weighted>
0.0784

> <Gold.Chemscore.DEInternal.Weighted>
3.0928

> <Gold.Chemscore.Rot.Weighted>
3.6852

> <Gold.Chemscore.Internal.Correction.Weighted>
   9.000000E+99

> <Gold.Protein.RotatedTorsions>
[ 6907 6896 6895 6894 ] final   89.77 input  -60.11 | X-H torsion
[ 7974 7965 7964 7962 ] final  -91.94 input  175.53 | X-H torsion
[ 8008 7997 7996 7995 ] final   76.88 input   59.86 | X-H torsion
[ 10167 10162 10161 10158 ] final -120.18 input  -65.29 | X-H torsion
[ 10718 10713 10712 10709 ] final -166.63 input   66.30 | X-H torsion
[ 10763 10752 10751 10750 ] final  -86.53 input  -60.55 | X-H torsion
[ 11005 11000 10999 10996 ] final  127.04 input  -57.11 | X-H torsion

> <Gold.Protein.ActiveResidues>
 VAL166  LYS551  ARG553  GLY616  TRP617  ASP618  TYR619  PRO620  LYS621  CYS622 
 ASP623  PHE694  ASN695  SER759  ASP760  ASP761  ALA762  ILE779  LEU786  VAL792 
 PHE793  MET794  SER795  GLU796  ALA797  LYS798  CYS799  TRP800  GLU811  SER814 

> <Gold.Protein.RotatedAtoms>
  152.5439  134.1915  159.8675 H   0  0  0  0  0  0  0  0  0  0  0  0  # atno 6907 bound_to 6896
  151.1910  133.4660  159.2602 H   0  0  0  0  0  0  0  0  0  0  0  0  # atno 6908 bound_to 6896
  151.1083  135.0024  159.8537 H   0  0  0  0  0  0  0  0  0  0  0  0  # atno 6909 bound_to 6896
  145.4065  140.9541  143.2258 H   0  0  0  0  0  0  0  0  0  0  0  0  # atno 7974 bound_to 7965
  155.8337  140.3465  155.5588 H   0  0  0  0  0  0  0  0  0  0  0  0  # atno 8008 bound_to 7997
  155.8215  140.0913  157.1866 H   0  0  0  0  0  0  0  0  0  0  0  0  # atno 8009 bound_to 7997
  154.4004  140.1429  156.3493 H   0  0  0  0  0  0  0  0  0  0  0  0  # atno 8010 bound_to 7997
  140.0386  143.5176  152.2141 H   0  0  0  0  0  0  0  0  0  0  0  0  # atno 10167 bound_to 10162
  156.6706  130.9082  151.3043 H   0  0  0  0  0  0  0  0  0  0  0  0  # atno 10718 bound_to 10713
  154.6235  135.5446  153.7601 H   0  0  0  0  0  0  0  0  0  0  0  0  # atno 10763 bound_to 10752
  153.0250  135.6418  154.1406 H   0  0  0  0  0  0  0  0  0  0  0  0  # atno 10764 bound_to 10752
  154.1339  135.2912  155.3158 H   0  0  0  0  0  0  0  0  0  0  0  0  # atno 10765 bound_to 10752
  139.9487  134.9625  156.8796 H   0  0  0  0  0  0  0  0  0  0  0  0  # atno 11005 bound_to 11000
  144.8338  139.5584  143.6931 LP  0  0  0  0  0  0  0  0  0  0  0  0  # atno 17320 bound_to 7965
  146.2726  139.6673  142.9285 LP  0  0  0  0  0  0  0  0  0  0  0  0  # atno 17321 bound_to 7965
  139.6029  144.7588  151.3130 LP  0  0  0  0  0  0  0  0  0  0  0  0  # atno 17342 bound_to 10162
  140.7270  143.6974  150.7872 LP  0  0  0  0  0  0  0  0  0  0  0  0  # atno 17343 bound_to 10162
  157.7078  130.9405  150.0989 LP  0  0  0  0  0  0  0  0  0  0  0  0  # atno 17370 bound_to 10713
  156.1941  130.3656  149.8871 LP  0  0  0  0  0  0  0  0  0  0  0  0  # atno 17371 bound_to 10713
  140.5771  134.0387  155.7451 LP  0  0  0  0  0  0  0  0  0  0  0  0  # atno 17394 bound_to 11000
  141.1144  133.9564  157.2849 LP  0  0  0  0  0  0  0  0  0  0  0  0  # atno 17395 bound_to 11000

$$$$
