AV-unprocessed.smi:1200|AV-procd|sdf|5022|dock3
  -GOLD-   22720 4 43D 1   1.00000     0.00000
 Structure written by MMmdl.
 42 43  0  0  0  0  0  0  0  0  1 V2000
  143.1107  136.0692  153.1542 C   0  0  0  0  0  0  0  0  0  0  0  0
  144.1446  136.9481  152.6307 N   0  0  0  0  0  0  0  0  0  0  0  0
  145.4059  136.9848  153.0845 C   0  0  0  0  0  0  0  0  0  0  0  0
  145.8156  136.2760  154.0032 O   0  0  0  0  0  0  0  0  0  0  0  0
  146.3522  137.9788  152.4009 C   0  0  0  0  0  0  0  0  0  0  0  0
  146.9305  139.0056  153.2993 N   0  0  0  0  0  0  0  0  0  0  0  0
  147.0339  140.3243  152.6561 C   0  0  0  0  0  0  0  0  0  0  0  0
  147.5750  141.3693  153.6482 C   0  0  0  0  0  0  0  0  0  0  0  0
  148.9420  140.9516  154.2079 C   0  0  0  0  0  0  0  0  0  0  0  0
  149.3669  141.8873  155.2464 N   0  0  0  0  0  0  0  0  0  0  0  0
  150.3465  141.6789  156.1383 C   0  0  0  0  0  0  0  0  0  0  0  0
  151.0069  140.6422  156.1972 O   0  0  0  0  0  0  0  0  0  0  0  0
  150.4887  142.7372  156.9550 N   0  0  0  0  0  0  0  0  0  0  0  0
  151.4152  142.9184  158.0179 C   0  0  0  0  0  0  0  0  0  0  0  0
  152.1638  141.7999  158.4393 C   0  0  0  0  0  0  0  0  0  0  0  0
  153.0778  141.9450  159.5002 C   0  0  0  0  0  0  0  0  0  0  0  0
  153.2009  143.2085  160.1094 C   0  0  0  0  0  0  0  0  0  0  0  0
  152.4818  144.2856  159.7303 N   0  0  0  0  0  0  0  0  0  0  0  0
  151.6088  144.1401  158.7099 C   0  0  0  0  0  0  0  0  0  0  0  0
  148.8345  139.5341  154.7868 C   0  0  0  0  0  0  0  0  0  0  0  0
  148.2517  138.5567  153.7512 C   0  0  0  0  0  0  0  0  0  0  0  0
  142.1838  136.2146  152.5997 H   0  0  0  0  0  0  0  0  0  0  0  0
  142.9161  136.2826  154.2060 H   0  0  0  0  0  0  0  0  0  0  0  0
  143.4045  135.0230  153.0587 H   0  0  0  0  0  0  0  0  0  0  0  0
  143.8907  137.5633  151.8711 H   0  0  0  0  0  0  0  0  0  0  0  0
  147.1568  137.3986  151.9468 H   0  0  0  0  0  0  0  0  0  0  0  0
  145.8220  138.4656  151.5799 H   0  0  0  0  0  0  0  0  0  0  0  0
  147.6791  140.2653  151.7777 H   0  0  0  0  0  0  0  0  0  0  0  0
  146.0594  140.6659  152.3072 H   0  0  0  0  0  0  0  0  0  0  0  0
  147.6548  142.3387  153.1549 H   0  0  0  0  0  0  0  0  0  0  0  0
  146.8604  141.4954  154.4631 H   0  0  0  0  0  0  0  0  0  0  0  0
  149.6598  140.9329  153.3858 H   0  0  0  0  0  0  0  0  0  0  0  0
  148.8766  142.7688  155.2841 H   0  0  0  0  0  0  0  0  0  0  0  0
  149.8199  143.4836  156.8336 H   0  0  0  0  0  0  0  0  0  0  0  0
  152.0443  140.8420  157.9541 H   0  0  0  0  0  0  0  0  0  0  0  0
  153.6695  141.1079  159.8398 H   0  0  0  0  0  0  0  0  0  0  0  0
  153.8914  143.3566  160.9268 H   0  0  0  0  0  0  0  0  0  0  0  0
  151.0467  145.0292  158.4715 H   0  0  0  0  0  0  0  0  0  0  0  0
  149.8172  139.1873  155.1082 H   0  0  0  0  0  0  0  0  0  0  0  0
  148.2017  139.5385  155.6760 H   0  0  0  0  0  0  0  0  0  0  0  0
  148.1694  137.5699  154.2087 H   0  0  0  0  0  0  0  0  0  0  0  0
  148.9307  138.4571  152.9022 H   0  0  0  0  0  0  0  0  0  0  0  0
  1  2  1  0  0  0  0
  1 22  1  0  0  0  0
  1 23  1  0  0  0  0
  1 24  1  0  0  0  0
  2  3  1  0  0  0  0
  2 25  1  0  0  0  0
  3  4  2  0  0  0  0
  3  5  1  0  0  0  0
  5  6  1  0  0  0  0
  5 26  1  0  0  0  0
  5 27  1  0  0  0  0
  6 21  1  0  0  0  0
  6  7  1  0  0  0  0
  7  8  1  0  0  0  0
  7 28  1  0  0  0  0
  7 29  1  0  0  0  0
  8  9  1  0  0  0  0
  8 30  1  0  0  0  0
  8 31  1  0  0  0  0
  9 10  1  0  0  0  0
  9 20  1  0  0  0  0
  9 32  1  0  0  0  0
 10 11  1  0  0  0  0
 10 33  1  0  0  0  0
 11 12  2  0  0  0  0
 11 13  1  0  0  0  0
 13 14  1  0  0  0  0
 13 34  1  0  0  0  0
 14 19  1  0  0  0  0
 14 15  2  0  0  0  0
 15 16  1  0  0  0  0
 15 35  1  0  0  0  0
 16 17  2  0  0  0  0
 16 36  1  0  0  0  0
 17 18  1  0  0  0  0
 17 37  1  0  0  0  0
 18 19  2  0  0  0  0
 19 38  1  0  0  0  0
 20 21  1  0  0  0  0
 20 39  1  0  0  0  0
 20 40  1  0  0  0  0
 21 41  1  0  0  0  0
 21 42  1  0  0  0  0
M  END
> <s_m_source_file>
AV-unprocessed.smi

> <i_m_source_file_index>
1200

> <i_lp_mmshare_version>
43012

> <i_f3d_flags>
0

> <s_epik_input>
W0NIM11bTkhdQyg9TylbQ0gyXU4xW0NIMl1bQ0gyXVtDSF0oW0NIMl1bQ0gyXTEpW05IXUMoPU8pW05IXWMyW2NIXVtjSF1bY0hdbltjSF0y

> <s_epik_cmdline>
J2VwaWtfcHl0aG9uJywgJy1waCcsICc3LjAnLCAnLXRuJywgJzgnLCAnLW1hJywgJzIwMCcsICctbWV0YWxfYmluZGluZycsICctaW1hZScsICc8aW5maWxlLm1hZT4nLCAnLW9tYWUnLCAnPG91dGZpbGUubWFlPic=

> <r_epik_Ionization_Penalty>
0.169655

> <r_epik_Ionization_Penalty_Charging>
0

> <r_epik_Ionization_Penalty_Neutral>
0.169655

> <r_epik_State_Penalty>
0.162809

> <r_epik_Charging_Adjusted_Penalty>
0.162809

> <i_epik_Tot_Q>
0

> <i_epik_Tot_abs_Q>
0

> <r_epik_Metal_State_Penalty>
0.163912

> <b_epik_Metal_Only>
0

> <s_lp_Force_Field>
OPLS_2005

> <r_lp_Energy>
16.8115

> <b_lp_Chiralities_Consistent>
1

> <s_lp_Variant>
AV-unprocessed.smi:1200-1

> <Gold.Version>
5.8.1

> <Gold.Id.Protein>
6NUR|6NUR_protein|mol2

> <Gold.PLP.Fitness>
46.9484

> <Gold.PLP.PLP>
-39.4062

> <Gold.PLP.part.hbond>
-4.0000

> <Gold.PLP.part.metal>
0.0000

> <Gold.PLP.part.buried>
-5.2389

> <Gold.PLP.part.nonpolar>
-31.1305

> <Gold.PLP.part.repulsive>
0.5915

> <Gold.PLP.ligand.clash>
0.0000

> <Gold.PLP.ligand.torsion>
0.7278

> <Gold.PLP.Chemscore.Hbond>
2.9920

> <Gold.PLP.Chemscore.CHOScore>
0.0000

> <Gold.PLP.Chemscore.Metal>
0.0000

> <Gold.Chemscore.Hbonds>
donor molecule, donor type, donor heavy atom, donor atom, acceptor molecule, acceptor atom, score
      L1  H     2    25       P1 10171  0.34
      L1  H    10    33       P1  8028  1.00
      L1  H    13    34       P1  8028  1.00

> <Gold.PLP.Chemscore.Internal.Correction>
0.0219

> <Gold.Rescore>
     Score         DG    S(hbond)    S(metal)    S(lipo)     H(rot)  DE(clash)    DE(int)     intcor
     18.40     -22.29       2.80        0.00     100.14       1.66       0.54       3.35       ----

> <Gold.Chemscore.Fitness>
18.4000

> <Gold.Chemscore.DG>
-22.2920

> <Gold.Chemscore.ZeroCoef>
-5.4800

> <Gold.Chemscore.Hbond>
2.7999

> <Gold.Chemscore.Metal>
0.0000

> <Gold.Chemscore.Lipo>
100.1355

> <Gold.Chemscore.Internal_Hbond>
0.0000

> <Gold.Chemscore.DEClash>
0.5396

> <Gold.Chemscore.DEInternal>
3.3525

> <Gold.Chemscore.Rot>
1.6623

> <Gold.Chemscore.Internal.Correction>
   9.000000E+99

> <Gold.Chemscore.Hbonds>
donor molecule, donor type, donor heavy atom, donor atom, acceptor molecule, acceptor atom, score
      L1  H     2    25       P1 10171  0.35
      L1  H    10    33       P1  8028  0.92
      L1  H    13    34       P1  8028  0.94

> <Gold.Chemscore.Hbond.Weighted>
-9.3516

> <Gold.Chemscore.Metal.Weighted>
-0.0000

> <Gold.Chemscore.Lipo.Weighted>
-11.7158

> <Gold.Chemscore.Internal_Hbond.Weighted>
0.0000

> <Gold.Chemscore.DEClash.Weighted>
0.5396

> <Gold.Chemscore.DEInternal.Weighted>
3.3525

> <Gold.Chemscore.Rot.Weighted>
4.2554

> <Gold.Chemscore.Internal.Correction.Weighted>
   9.000000E+99

> <Gold.Protein.RotatedTorsions>
[ 6907 6896 6895 6894 ] final -173.55 input  -60.11 | X-H torsion
[ 7974 7965 7964 7962 ] final  168.73 input  175.53 | X-H torsion
[ 8008 7997 7996 7995 ] final  -77.16 input   59.86 | X-H torsion
[ 10167 10162 10161 10158 ] final  -37.15 input  -65.29 | X-H torsion
[ 10718 10713 10712 10709 ] final   82.84 input   66.30 | X-H torsion
[ 10763 10752 10751 10750 ] final  119.28 input  -60.55 | X-H torsion
[ 11005 11000 10999 10996 ] final   99.13 input  -57.11 | X-H torsion

> <Gold.Protein.ActiveResidues>
 VAL166  LYS551  ARG553  GLY616  TRP617  ASP618  TYR619  PRO620  LYS621  CYS622 
 ASP623  PHE694  ASN695  SER759  ASP760  ASP761  ALA762  ILE779  LEU786  VAL792 
 PHE793  MET794  SER795  GLU796  ALA797  LYS798  CYS799  TRP800  GLU811  SER814 

> <Gold.Protein.RotatedAtoms>
  151.5579  133.3407  159.2965 H   0  0  0  0  0  0  0  0  0  0  0  0  # atno 6907 bound_to 6896
  150.8440  134.7745  159.6966 H   0  0  0  0  0  0  0  0  0  0  0  0  # atno 6908 bound_to 6896
  152.4501  134.5418  159.9893 H   0  0  0  0  0  0  0  0  0  0  0  0  # atno 6909 bound_to 6896
  144.7378  139.8951  143.6405 H   0  0  0  0  0  0  0  0  0  0  0  0  # atno 7974 bound_to 7965
  154.5571  140.0715  156.8760 H   0  0  0  0  0  0  0  0  0  0  0  0  # atno 8008 bound_to 7997
  155.2882  140.3376  155.4236 H   0  0  0  0  0  0  0  0  0  0  0  0  # atno 8009 bound_to 7997
  156.2011  140.1722  156.7883 H   0  0  0  0  0  0  0  0  0  0  0  0  # atno 8010 bound_to 7997
  140.7125  143.3361  151.2461 H   0  0  0  0  0  0  0  0  0  0  0  0  # atno 10167 bound_to 10162
  157.6866  131.0065  150.2434 H   0  0  0  0  0  0  0  0  0  0  0  0  # atno 10718 bound_to 10713
  153.5805  135.3485  155.2873 H   0  0  0  0  0  0  0  0  0  0  0  0  # atno 10763 bound_to 10752
  154.8668  135.4181  154.2625 H   0  0  0  0  0  0  0  0  0  0  0  0  # atno 10764 bound_to 10752
  153.3411  135.7050  153.6937 H   0  0  0  0  0  0  0  0  0  0  0  0  # atno 10765 bound_to 10752
  139.8771  134.9081  156.4560 H   0  0  0  0  0  0  0  0  0  0  0  0  # atno 11005 bound_to 11000
  146.1113  139.4119  143.0286 LP  0  0  0  0  0  0  0  0  0  0  0  0  # atno 17320 bound_to 7965
  145.7438  140.9998  143.1286 LP  0  0  0  0  0  0  0  0  0  0  0  0  # atno 17321 bound_to 7965
  139.6856  143.9780  152.2832 LP  0  0  0  0  0  0  0  0  0  0  0  0  # atno 17342 bound_to 10162
  139.9424  144.6673  150.8253 LP  0  0  0  0  0  0  0  0  0  0  0  0  # atno 17343 bound_to 10162
  156.3044  130.3763  149.7720 LP  0  0  0  0  0  0  0  0  0  0  0  0  # atno 17370 bound_to 10713
  156.5340  130.8270  151.3247 LP  0  0  0  0  0  0  0  0  0  0  0  0  # atno 17371 bound_to 10713
  140.8898  133.7856  155.9559 LP  0  0  0  0  0  0  0  0  0  0  0  0  # atno 17394 bound_to 11000
  140.8766  134.2662  157.5165 LP  0  0  0  0  0  0  0  0  0  0  0  0  # atno 17395 bound_to 11000

$$$$
