AV-unprocessed.smi:794|AV-procd|sdf|3757|dock6
  -GOLD-   22720 1193D 1   1.00000     0.00000
 Structure written by MMmdl.
 41 43  0  0  0  0  0  0  0  0  1 V2000
  143.8013  132.3715  149.7353 C   0  0  0  0  0  0  0  0  0  0  0  0
  144.7769  132.5543  150.8572 C   0  0  0  0  0  0  0  0  0  0  0  0
  145.2600  133.8331  151.1512 N   0  0  0  0  0  0  0  0  0  0  0  0
  146.1172  133.8268  152.1771 C   0  0  0  0  0  0  0  0  0  0  0  0
  146.7573  134.9830  152.6943 N   0  0  0  0  0  0  0  0  0  0  0  0
  146.5280  135.6091  153.8617 C   0  0  0  0  0  0  0  0  0  0  0  0
  145.6803  135.2812  154.6922 O   0  0  0  0  0  0  0  0  0  0  0  0
  147.3466  136.6599  154.0139 N   0  0  0  0  0  0  0  0  0  0  0  0
  147.3853  137.5462  155.1784 C   0  0  1  0  0  0  0  0  0  0  0  0
  148.7138  137.4226  155.9654 C   0  0  1  0  0  0  0  0  0  0  0  0
  149.9365  137.5523  155.0314 C   0  0  0  0  0  0  0  0  0  0  0  0
  149.8980  139.0387  154.6341 C   0  0  0  0  0  0  0  0  0  0  0  0
  148.6823  139.5753  155.4188 C   0  0  2  0  0  0  0  0  0  0  0  0
  148.7729  138.7572  156.7016 C   0  0  0  0  0  0  0  0  0  0  0  0
  147.3412  139.0643  154.8366 C   0  0  1  0  0  0  0  0  0  0  0  0
  147.0451  139.4587  153.3720 C   0  0  0  0  0  0  0  0  0  0  0  0
  147.8146  138.6730  152.4867 O   0  0  0  0  0  0  0  0  0  0  0  0
  146.3924  132.2319  152.8550 S   0  0  0  0  0  0  0  0  0  0  0  0
  145.2848  131.5728  151.6769 C   0  0  0  0  0  0  0  0  0  0  0  0
  144.9850  130.1111  151.6417 C   0  0  0  0  0  0  0  0  0  0  0  0
  142.9273  131.8078  150.0622 H   0  0  0  0  0  0  0  0  0  0  0  0
  144.2549  131.8267  148.9069 H   0  0  0  0  0  0  0  0  0  0  0  0
  143.4479  133.3276  149.3470 H   0  0  0  0  0  0  0  0  0  0  0  0
  147.4834  135.3727  152.1115 H   0  0  0  0  0  0  0  0  0  0  0  0
  148.0079  136.8566  153.2772 H   0  0  0  0  0  0  0  0  0  0  0  0
  146.5592  137.3063  155.8512 H   0  0  0  0  0  0  0  0  0  0  0  0
  148.7550  136.5448  156.6111 H   0  0  0  0  0  0  0  0  0  0  0  0
  150.8551  137.3331  155.5771 H   0  0  0  0  0  0  0  0  0  0  0  0
  149.9083  136.8849  154.1705 H   0  0  0  0  0  0  0  0  0  0  0  0
  150.8121  139.5377  154.9585 H   0  0  0  0  0  0  0  0  0  0  0  0
  149.8161  139.1852  153.5581 H   0  0  0  0  0  0  0  0  0  0  0  0
  148.7058  140.6549  155.5710 H   0  0  0  0  0  0  0  0  0  0  0  0
  147.9323  138.9154  157.3797 H   0  0  0  0  0  0  0  0  0  0  0  0
  149.7044  138.9104  157.2496 H   0  0  0  0  0  0  0  0  0  0  0  0
  146.5426  139.5016  155.4391 H   0  0  0  0  0  0  0  0  0  0  0  0
  145.9902  139.3544  153.1207 H   0  0  0  0  0  0  0  0  0  0  0  0
  147.3072  140.5039  153.2065 H   0  0  0  0  0  0  0  0  0  0  0  0
  148.6509  139.0945  152.3599 H   0  0  0  0  0  0  0  0  0  0  0  0
  145.1125  129.7133  150.6345 H   0  0  0  0  0  0  0  0  0  0  0  0
  143.9574  129.9209  151.9523 H   0  0  0  0  0  0  0  0  0  0  0  0
  145.6463  129.5553  152.3072 H   0  0  0  0  0  0  0  0  0  0  0  0
  1  2  1  0  0  0  0
  1 21  1  0  0  0  0
  1 22  1  0  0  0  0
  1 23  1  0  0  0  0
  2 19  2  0  0  0  0
  2  3  1  0  0  0  0
  3  4  2  0  0  0  0
  4  5  1  0  0  0  0
  4 18  1  0  0  0  0
  5  6  1  0  0  0  0
  5 24  1  0  0  0  0
  6  7  2  0  0  0  0
  6  8  1  0  0  0  0
  8  9  1  0  0  0  0
  8 25  1  0  0  0  0
  9 15  1  0  0  0  0
  9 10  1  0  0  0  0
  9 26  1  0  0  0  0
 10 14  1  0  0  0  0
 10 11  1  0  0  0  0
 10 27  1  0  0  0  0
 11 12  1  0  0  0  0
 11 28  1  0  0  0  0
 11 29  1  0  0  0  0
 12 13  1  0  0  0  0
 12 30  1  0  0  0  0
 12 31  1  0  0  0  0
 13 14  1  0  0  0  0
 13 15  1  0  0  0  0
 13 32  1  0  0  0  0
 14 33  1  0  0  0  0
 14 34  1  0  0  0  0
 15 16  1  0  0  0  0
 15 35  1  0  0  0  0
 16 17  1  0  0  0  0
 16 36  1  0  0  0  0
 16 37  1  0  0  0  0
 17 38  1  0  0  0  0
 18 19  1  0  0  0  0
 19 20  1  0  0  0  0
 20 39  1  0  0  0  0
 20 40  1  0  0  0  0
 20 41  1  0  0  0  0
M  END
> <s_m_source_file>
AV-unprocessed.smi

> <i_m_source_file_index>
794

> <i_lp_mmshare_version>
43012

> <i_f3d_flags>
0

> <s_epik_input>
W0NIM11jMW5jKHNjMVtDSDNdKVtOSF1DKD1PKVtOSF1bQ0BIXShbQ0BASF0yMylbQ0BIXShbQ0gyXVtPSF0pW0NAQEhdKFtDSDJdMylbQ0gyXVtDSDJdMg==

> <s_epik_cmdline>
J2VwaWtfcHl0aG9uJywgJy1waCcsICc3LjAnLCAnLXRuJywgJzgnLCAnLW1hJywgJzIwMCcsICctbWV0YWxfYmluZGluZycsICctaW1hZScsICc8aW5maWxlLm1hZT4nLCAnLW9tYWUnLCAnPG91dGZpbGUubWFlPic=

> <r_lp_tautomer_probability>
0.999

> <r_epik_Ionization_Penalty>
0.000713029

> <r_epik_Ionization_Penalty_Charging>
0

> <r_epik_Ionization_Penalty_Neutral>
0.000713029

> <r_epik_State_Penalty>
0.000177984

> <r_epik_Charging_Adjusted_Penalty>
0.000177984

> <i_epik_Tot_Q>
0

> <i_epik_Tot_abs_Q>
0

> <r_epik_Metal_State_Penalty>
-0

> <b_epik_Metal_Only>
0

> <s_lp_Force_Field>
OPLS_2005

> <r_lp_Energy>
49.1423

> <b_lp_Chiralities_Consistent>
1

> <s_lp_Variant>
AV-unprocessed.smi:794-2

> <Gold.Version>
5.8.1

> <Gold.Id.Protein>
6NUR|6NUR_protein|mol2

> <Gold.PLP.Fitness>
34.5285

> <Gold.PLP.PLP>
-27.7145

> <Gold.PLP.part.hbond>
-4.0000

> <Gold.PLP.part.metal>
0.0000

> <Gold.PLP.part.buried>
-5.1976

> <Gold.PLP.part.nonpolar>
-20.0938

> <Gold.PLP.part.repulsive>
0.1634

> <Gold.PLP.ligand.clash>
0.0000

> <Gold.PLP.ligand.torsion>
0.8573

> <Gold.PLP.Chemscore.Hbond>
2.8400

> <Gold.PLP.Chemscore.CHOScore>
0.0000

> <Gold.PLP.Chemscore.Metal>
0.0000

> <Gold.Chemscore.Hbonds>
donor molecule, donor type, donor heavy atom, donor atom, acceptor molecule, acceptor atom, score
      L1  H     5    24       P1  7948  1.00
      L1  H     8    25       P1  7948  0.96
      L1  H    17    38       P1  7957  0.83

> <Gold.PLP.Chemscore.Internal.Correction>
0.0086

> <Gold.Rescore>
     Score         DG    S(hbond)    S(metal)    S(lipo)     H(rot)  DE(clash)    DE(int)     intcor
     15.84     -18.62       2.84        0.00      70.06       1.78       0.13       2.64       ----

> <Gold.Chemscore.Fitness>
15.8437

> <Gold.Chemscore.DG>
-18.6190

> <Gold.Chemscore.ZeroCoef>
-5.4800

> <Gold.Chemscore.Hbond>
2.8436

> <Gold.Chemscore.Metal>
0.0000

> <Gold.Chemscore.Lipo>
70.0641

> <Gold.Chemscore.Internal_Hbond>
0.0000

> <Gold.Chemscore.DEClash>
0.1334

> <Gold.Chemscore.DEInternal>
2.6418

> <Gold.Chemscore.Rot>
1.7798

> <Gold.Chemscore.Internal.Correction>
   9.000000E+99

> <Gold.Chemscore.Hbonds>
donor molecule, donor type, donor heavy atom, donor atom, acceptor molecule, acceptor atom, score
      L1  H     5    24       P1  7948  0.98
      L1  H     8    25       P1  7948  0.92
      L1  H    17    38       P1  7957  0.81

> <Gold.Chemscore.Hbond.Weighted>
-9.4977

> <Gold.Chemscore.Metal.Weighted>
-0.0000

> <Gold.Chemscore.Lipo.Weighted>
-8.1975

> <Gold.Chemscore.Internal_Hbond.Weighted>
0.0000

> <Gold.Chemscore.DEClash.Weighted>
0.1334

> <Gold.Chemscore.DEInternal.Weighted>
2.6418

> <Gold.Chemscore.Rot.Weighted>
4.5562

> <Gold.Chemscore.Internal.Correction.Weighted>
   9.000000E+99

> <Gold.Protein.RotatedTorsions>
[ 6907 6896 6895 6894 ] final -122.24 input  -60.11 | X-H torsion
[ 7974 7965 7964 7962 ] final  149.73 input  175.53 | X-H torsion
[ 8008 7997 7996 7995 ] final   60.36 input   59.86 | X-H torsion
[ 10167 10162 10161 10158 ] final  -35.05 input  -65.29 | X-H torsion
[ 10718 10713 10712 10709 ] final   38.87 input   66.30 | X-H torsion
[ 10763 10752 10751 10750 ] final  -12.20 input  -60.55 | X-H torsion
[ 11005 11000 10999 10996 ] final  169.81 input  -57.11 | X-H torsion

> <Gold.Protein.ActiveResidues>
 VAL166  LYS551  ARG553  GLY616  TRP617  ASP618  TYR619  PRO620  LYS621  CYS622 
 ASP623  PHE694  ASN695  SER759  ASP760  ASP761  ALA762  ILE779  LEU786  VAL792 
 PHE793  MET794  SER795  GLU796  ALA797  LYS798  CYS799  TRP800  GLU811  SER814 

> <Gold.Protein.RotatedAtoms>
  150.8557  133.7719  159.3009 H   0  0  0  0  0  0  0  0  0  0  0  0  # atno 6907 bound_to 6896
  151.5377  135.1067  159.9928 H   0  0  0  0  0  0  0  0  0  0  0  0  # atno 6908 bound_to 6896
  152.4588  133.7734  159.6867 H   0  0  0  0  0  0  0  0  0  0  0  0  # atno 6909 bound_to 6896
  144.8417  139.6317  143.6014 H   0  0  0  0  0  0  0  0  0  0  0  0  # atno 7974 bound_to 7965
  155.5811  140.3491  155.4540 H   0  0  0  0  0  0  0  0  0  0  0  0  # atno 8008 bound_to 7997
  156.0372  140.1288  157.0219 H   0  0  0  0  0  0  0  0  0  0  0  0  # atno 8009 bound_to 7997
  154.4377  140.1031  156.6171 H   0  0  0  0  0  0  0  0  0  0  0  0  # atno 8010 bound_to 7997
  140.7173  143.3504  151.2167 H   0  0  0  0  0  0  0  0  0  0  0  0  # atno 10167 bound_to 10162
  157.3639  130.7664  149.7068 H   0  0  0  0  0  0  0  0  0  0  0  0  # atno 10718 bound_to 10713
  153.4950  135.7017  153.5863 H   0  0  0  0  0  0  0  0  0  0  0  0  # atno 10763 bound_to 10752
  153.4019  135.3870  155.1993 H   0  0  0  0  0  0  0  0  0  0  0  0  # atno 10764 bound_to 10752
  154.8714  135.3883  154.4415 H   0  0  0  0  0  0  0  0  0  0  0  0  # atno 10765 bound_to 10752
  140.3017  134.7590  157.3921 H   0  0  0  0  0  0  0  0  0  0  0  0  # atno 11005 bound_to 11000
  146.2708  139.6630  142.9297 LP  0  0  0  0  0  0  0  0  0  0  0  0  # atno 17320 bound_to 7965
  145.4681  141.0435  143.2714 LP  0  0  0  0  0  0  0  0  0  0  0  0  # atno 17321 bound_to 7965
  139.7034  143.9496  152.2915 LP  0  0  0  0  0  0  0  0  0  0  0  0  # atno 17342 bound_to 10162
  139.9196  144.6807  150.8475 LP  0  0  0  0  0  0  0  0  0  0  0  0  # atno 17343 bound_to 10162
  155.9742  130.4106  150.3939 LP  0  0  0  0  0  0  0  0  0  0  0  0  # atno 17370 bound_to 10713
  157.2020  131.0440  151.2645 LP  0  0  0  0  0  0  0  0  0  0  0  0  # atno 17371 bound_to 10713
  140.1103  134.5354  155.8272 LP  0  0  0  0  0  0  0  0  0  0  0  0  # atno 17394 bound_to 11000
  141.2127  133.6722  156.6677 LP  0  0  0  0  0  0  0  0  0  0  0  0  # atno 17395 bound_to 11000

$$$$
