AV-unprocessed.smi:3136|AV-procd|sdf|11949|dock7
  -GOLD-   2272017343D 1   1.00000     0.00000
 Structure written by MMmdl.
 40 40  0  0  0  0  0  0  0  0  2 V2000
  147.5767  144.5938  161.9569 C   0  0  0  0  0  0  0  0  0  0  0  0
  146.4845  145.0934  161.0012 C   0  0  0  0  0  0  0  0  0  0  0  0
  146.6814  144.5864  159.6478 N   0  0  0  0  0  0  0  0  0  0  0  0
  146.6425  143.2927  159.2940 C   0  0  0  0  0  0  0  0  0  0  0  0
  146.4293  142.3808  160.0938 O   0  0  0  0  0  0  0  0  0  0  0  0
  146.8841  142.9979  157.8097 C   0  0  0  0  0  0  0  0  0  0  0  0
  148.2864  142.4376  157.5153 C   0  0  0  0  0  0  0  0  0  0  0  0
  149.3329  143.2927  158.1121 N   0  3  0  0  0  0  0  0  0  0  0  0
  150.6699  142.6649  158.2294 C   0  0  1  0  0  0  0  0  0  0  0  0
  151.3491  142.6650  156.8496 C   0  0  0  0  0  0  0  0  0  0  0  0
  151.5435  143.3494  159.3170 C   0  0  2  0  0  0  0  0  0  0  0  0
  152.5113  144.4104  158.7610 C   0  0  0  0  0  0  0  0  0  0  0  0
  152.2318  142.3971  160.1832 N   0  0  0  0  0  0  0  0  0  0  0  0
  152.0924  142.2333  161.5466 C   0  0  0  0  0  0  0  0  0  0  0  0
  152.9244  141.2193  161.9252 C   0  0  0  0  0  0  0  0  0  0  0  0
  153.5394  140.8145  160.7085 C   0  0  0  0  0  0  0  0  0  0  0  0
  153.1208  141.5168  159.6681 N   0  0  0  0  0  0  0  0  0  0  0  0
  147.4475  145.0234  162.9506 H   0  0  0  0  0  0  0  0  0  0  0  0
  148.5697  144.8715  161.6014 H   0  0  0  0  0  0  0  0  0  0  0  0
  147.5486  143.5087  162.0611 H   0  0  0  0  0  0  0  0  0  0  0  0
  145.4969  144.8134  161.3721 H   0  0  0  0  0  0  0  0  0  0  0  0
  146.5027  146.1827  160.9608 H   0  0  0  0  0  0  0  0  0  0  0  0
  146.8618  145.2716  158.9281 H   0  0  0  0  0  0  0  0  0  0  0  0
  146.1260  142.2904  157.4704 H   0  0  0  0  0  0  0  0  0  0  0  0
  146.7299  143.9197  157.2469 H   0  0  0  0  0  0  0  0  0  0  0  0
  148.3758  141.4246  157.9086 H   0  0  0  0  0  0  0  0  0  0  0  0
  148.4515  142.3820  156.4381 H   0  0  0  0  0  0  0  0  0  0  0  0
  149.4244  144.1139  157.5313 H   0  0  0  0  0  0  0  0  0  0  0  0
  150.5397  141.6191  158.5128 H   0  0  0  0  0  0  0  0  0  0  0  0
  152.3354  142.2028  156.8982 H   0  0  0  0  0  0  0  0  0  0  0  0
  151.4739  143.6750  156.4577 H   0  0  0  0  0  0  0  0  0  0  0  0
  150.7597  142.1024  156.1249 H   0  0  0  0  0  0  0  0  0  0  0  0
  150.8518  143.8936  159.9620 H   0  0  0  0  0  0  0  0  0  0  0  0
  151.9792  145.1539  158.1672 H   0  0  0  0  0  0  0  0  0  0  0  0
  153.2834  143.9702  158.1298 H   0  0  0  0  0  0  0  0  0  0  0  0
  153.0150  144.9387  159.5710 H   0  0  0  0  0  0  0  0  0  0  0  0
  151.4195  142.8454  162.1291 H   0  0  0  0  0  0  0  0  0  0  0  0
  153.0715  140.8262  162.9204 H   0  0  0  0  0  0  0  0  0  0  0  0
  154.2710  140.0356  160.5518 H   0  0  0  0  0  0  0  0  0  0  0  0
  149.0401  143.5865  159.0339 H   0  0  0  0  0  0  0  0  0  0  0  0
  1  2  1  0  0  0  0
  1 18  1  0  0  0  0
  1 19  1  0  0  0  0
  1 20  1  0  0  0  0
  2  3  1  0  0  0  0
  2 21  1  0  0  0  0
  2 22  1  0  0  0  0
  3  4  1  0  0  0  0
  3 23  1  0  0  0  0
  4  5  2  0  0  0  0
  4  6  1  0  0  0  0
  6  7  1  0  0  0  0
  6 24  1  0  0  0  0
  6 25  1  0  0  0  0
  7  8  1  0  0  0  0
  7 26  1  0  0  0  0
  7 27  1  0  0  0  0
  8  9  1  0  0  0  0
  8 28  1  0  0  0  0
  8 40  1  0  0  0  0
  9 10  1  0  0  0  0
  9 11  1  0  0  0  0
  9 29  1  0  0  0  0
 10 30  1  0  0  0  0
 10 31  1  0  0  0  0
 10 32  1  0  0  0  0
 11 12  1  0  0  0  0
 11 13  1  0  0  0  0
 11 33  1  0  0  0  0
 12 34  1  0  0  0  0
 12 35  1  0  0  0  0
 12 36  1  0  0  0  0
 13 17  1  0  0  0  0
 13 14  1  0  0  0  0
 14 15  2  0  0  0  0
 14 37  1  0  0  0  0
 15 16  1  0  0  0  0
 15 38  1  0  0  0  0
 16 17  2  0  0  0  0
 16 39  1  0  0  0  0
M  CHG  1   8   1
M  END
> <s_m_source_file>
AV-unprocessed.smi

> <i_m_source_file_index>
3136

> <i_lp_mmshare_version>
43012

> <i_f3d_flags>
0

> <s_epik_input>
W0NIM11bQ0gyXVtOSF1DKD1PKVtDSDJdW0NIMl1bTkhdW0NASF0oW0NIM10pW0NASF0oW0NIM10pbjFbY0hdW2NIXVtjSF1uMQ==

> <s_epik_cmdline>
J2VwaWtfcHl0aG9uJywgJy1waCcsICc3LjAnLCAnLXRuJywgJzgnLCAnLW1hJywgJzIwMCcsICctbWV0YWxfYmluZGluZycsICctaW1hZScsICc8aW5maWxlLm1hZT4nLCAnLW9tYWUnLCAnPG91dGZpbGUubWFlPic=

> <r_lp_tautomer_probability>
1

> <r_epik_Ionization_Penalty>
0.00463447

> <r_epik_Ionization_Penalty_Charging>
0.00462393

> <r_epik_Ionization_Penalty_Neutral>
1.05394e-05

> <r_epik_State_Penalty>
-0

> <r_epik_Charging_Adjusted_Penalty>
0.00462393

> <i_epik_Tot_Q>
1

> <i_epik_Tot_abs_Q>
1

> <r_epik_Metal_State_Penalty>
-0

> <b_epik_Metal_Only>
0

> <s_lp_Force_Field>
OPLS_2005

> <r_lp_Energy>
10.5289

> <b_lp_Chiralities_Consistent>
1

> <s_lp_Variant>
AV-unprocessed.smi:3136-2

> <Gold.Version>
5.8.1

> <Gold.Id.Protein>
6NUR|6NUR_protein|mol2

> <Gold.PLP.Fitness>
54.9122

> <Gold.PLP.PLP>
-43.5812

> <Gold.PLP.part.hbond>
-4.6760

> <Gold.PLP.part.metal>
0.0000

> <Gold.PLP.part.buried>
-5.5263

> <Gold.PLP.part.nonpolar>
-33.3684

> <Gold.PLP.part.repulsive>
0.1345

> <Gold.PLP.ligand.clash>
0.0000

> <Gold.PLP.ligand.torsion>
1.6361

> <Gold.PLP.Chemscore.Hbond>
4.7622

> <Gold.PLP.Chemscore.CHOScore>
0.0000

> <Gold.PLP.Chemscore.Metal>
0.0000

> <Gold.Chemscore.Hbonds>
donor molecule, donor type, donor heavy atom, donor atom, acceptor molecule, acceptor atom, score
      L1  H     3    23       P1  8029  0.98
      L1  H     8    28       P1  8028  1.33
      P1  H  6934  6946       L1     5  1.00

> <Gold.PLP.Chemscore.Internal.Correction>
0.3164

> <Gold.Rescore>
     Score         DG    S(hbond)    S(metal)    S(lipo)     H(rot)  DE(clash)    DE(int)     intcor
     17.07     -19.73       2.87        0.00      90.53       2.32       0.15       2.52       ----

> <Gold.Chemscore.Fitness>
17.0708

> <Gold.Chemscore.DG>
-19.7345

> <Gold.Chemscore.ZeroCoef>
-5.4800

> <Gold.Chemscore.Hbond>
2.8714

> <Gold.Chemscore.Metal>
0.0000

> <Gold.Chemscore.Lipo>
90.5349

> <Gold.Chemscore.Internal_Hbond>
0.0000

> <Gold.Chemscore.DEClash>
0.1480

> <Gold.Chemscore.DEInternal>
2.5156

> <Gold.Chemscore.Rot>
2.3159

> <Gold.Chemscore.Internal.Correction>
   9.000000E+99

> <Gold.Chemscore.Hbonds>
donor molecule, donor type, donor heavy atom, donor atom, acceptor molecule, acceptor atom, score
      L1  H     3    23       P1  8029  0.90
      L1  H     8    28       P1  8028  0.11
      P1  H  6933  6944       L1     5  0.01
      P1  H  6934  6946       L1     5  1.00

> <Gold.Chemscore.Hbond.Weighted>
-9.5905

> <Gold.Chemscore.Metal.Weighted>
-0.0000

> <Gold.Chemscore.Lipo.Weighted>
-10.5926

> <Gold.Chemscore.Internal_Hbond.Weighted>
0.0000

> <Gold.Chemscore.DEClash.Weighted>
0.1480

> <Gold.Chemscore.DEInternal.Weighted>
2.5156

> <Gold.Chemscore.Rot.Weighted>
5.9286

> <Gold.Chemscore.Internal.Correction.Weighted>
   9.000000E+99

> <Gold.Protein.RotatedTorsions>
[ 6907 6896 6895 6894 ] final   95.48 input  -60.11 | X-H torsion
[ 7974 7965 7964 7962 ] final -121.55 input  175.53 | X-H torsion
[ 8008 7997 7996 7995 ] final -154.29 input   59.86 | X-H torsion
[ 10167 10162 10161 10158 ] final  172.05 input  -65.29 | X-H torsion
[ 10718 10713 10712 10709 ] final   42.42 input   66.30 | X-H torsion
[ 10763 10752 10751 10750 ] final  100.56 input  -60.55 | X-H torsion
[ 11005 11000 10999 10996 ] final  -55.77 input  -57.11 | X-H torsion

> <Gold.Protein.ActiveResidues>
 VAL166  LYS551  ARG553  GLY616  TRP617  ASP618  TYR619  PRO620  LYS621  CYS622 
 ASP623  PHE694  ASN695  SER759  ASP760  ASP761  ALA762  ILE779  LEU786  VAL792 
 PHE793  MET794  SER795  GLU796  ALA797  LYS798  CYS799  TRP800  GLU811  SER814 

> <Gold.Protein.RotatedAtoms>
  152.5443  134.1034  159.8327 H   0  0  0  0  0  0  0  0  0  0  0  0  # atno 6907 bound_to 6896
  151.1109  133.5166  159.2613 H   0  0  0  0  0  0  0  0  0  0  0  0  # atno 6908 bound_to 6896
  151.1885  135.0402  159.8877 H   0  0  0  0  0  0  0  0  0  0  0  0  # atno 6909 bound_to 6896
  145.0391  140.8130  143.4277 H   0  0  0  0  0  0  0  0  0  0  0  0  # atno 7974 bound_to 7965
  155.6840  140.0747  157.2474 H   0  0  0  0  0  0  0  0  0  0  0  0  # atno 8008 bound_to 7997
  154.4100  140.1676  156.2066 H   0  0  0  0  0  0  0  0  0  0  0  0  # atno 8009 bound_to 7997
  155.9510  140.3377  155.6411 H   0  0  0  0  0  0  0  0  0  0  0  0  # atno 8010 bound_to 7997
  139.5065  144.3418  152.0011 H   0  0  0  0  0  0  0  0  0  0  0  0  # atno 10167 bound_to 10162
  157.4047  130.7880  149.7378 H   0  0  0  0  0  0  0  0  0  0  0  0  # atno 10718 bound_to 10713
  153.3156  135.4074  155.1373 H   0  0  0  0  0  0  0  0  0  0  0  0  # atno 10763 bound_to 10752
  154.8587  135.3575  154.5665 H   0  0  0  0  0  0  0  0  0  0  0  0  # atno 10764 bound_to 10752
  153.6096  135.7068  153.5411 H   0  0  0  0  0  0  0  0  0  0  0  0  # atno 10765 bound_to 10752
  141.1089  133.6611  156.4519 H   0  0  0  0  0  0  0  0  0  0  0  0  # atno 11005 bound_to 11000
  145.1671  139.2425  143.5361 LP  0  0  0  0  0  0  0  0  0  0  0  0  # atno 17320 bound_to 7965
  146.3507  140.1413  142.8594 LP  0  0  0  0  0  0  0  0  0  0  0  0  # atno 17321 bound_to 7965
  140.2856  144.3811  150.6105 LP  0  0  0  0  0  0  0  0  0  0  0  0  # atno 17342 bound_to 10162
  140.5986  143.2167  151.7117 LP  0  0  0  0  0  0  0  0  0  0  0  0  # atno 17343 bound_to 10162
  155.9833  130.4002  150.3371 LP  0  0  0  0  0  0  0  0  0  0  0  0  # atno 17370 bound_to 10713
  157.1502  131.0319  151.2888 LP  0  0  0  0  0  0  0  0  0  0  0  0  # atno 17371 bound_to 10713
  140.4828  134.6648  157.5178 LP  0  0  0  0  0  0  0  0  0  0  0  0  # atno 17394 bound_to 11000
  139.9973  134.6892  155.9589 LP  0  0  0  0  0  0  0  0  0  0  0  0  # atno 17395 bound_to 11000

$$$$
