AV-unprocessed.smi:1444|AV-procd|sdf|5882|dock9
  -GOLD-   22720 5563D 1   1.00000     0.00000
 Structure written by MMmdl.
 43 44  0  0  0  0  0  0  0  0  1 V2000
  152.0273  138.3262  154.4231 C   0  0  0  0  0  0  0  0  0  0  0  0
  150.6265  138.2280  154.1897 O   0  0  0  0  0  0  0  0  0  0  0  0
  149.8422  139.3463  154.3995 C   0  0  0  0  0  0  0  0  0  0  0  0
  150.4362  140.4720  154.8694 N   0  0  0  0  0  0  0  0  0  0  0  0
  149.6727  141.5656  155.0717 C   0  0  0  0  0  0  0  0  0  0  0  0
  148.2905  141.5989  154.8120 C   0  0  0  0  0  0  0  0  0  0  0  0
  147.6720  140.4326  154.3249 C   0  0  0  0  0  0  0  0  0  0  0  0
  148.4570  139.2717  154.1226 C   0  0  0  0  0  0  0  0  0  0  0  0
  147.9355  138.0497  153.6157 N   0  0  0  0  0  0  0  0  0  0  0  0
  146.7237  137.5086  153.8260 C   0  0  0  0  0  0  0  0  0  0  0  0
  145.8401  137.9953  154.5313 O   0  0  0  0  0  0  0  0  0  0  0  0
  146.5987  136.3385  153.1831 N   0  0  0  0  0  0  0  0  0  0  0  0
  145.4208  135.4742  153.2110 C   0  0  1  0  0  0  0  0  0  0  0  0
  144.3207  136.1610  152.3864 C   0  0  0  0  0  0  0  0  0  0  0  0
  145.8245  134.0612  152.7204 C   0  0  0  0  0  0  0  0  0  0  0  0
  145.2737  133.6318  151.4315 N   0  0  0  0  0  0  0  0  0  0  0  0
  146.0685  132.5780  150.7995 C   0  0  0  0  0  0  0  0  0  0  0  0
  145.4589  132.1162  149.4642 C   0  0  0  0  0  0  0  0  0  0  0  0
  144.1238  131.6709  149.6759 O   0  0  0  0  0  0  0  0  0  0  0  0
  143.2992  132.6762  150.2541 C   0  0  0  0  0  0  0  0  0  0  0  0
  143.9091  133.1345  151.5902 C   0  0  0  0  0  0  0  0  0  0  0  0
  152.4947  137.3627  154.2213 H   0  0  0  0  0  0  0  0  0  0  0  0
  152.2428  138.5866  155.4604 H   0  0  0  0  0  0  0  0  0  0  0  0
  152.4904  139.0627  153.7649 H   0  0  0  0  0  0  0  0  0  0  0  0
  150.1803  142.4426  155.4451 H   0  0  0  0  0  0  0  0  0  0  0  0
  147.7184  142.4997  154.9778 H   0  0  0  0  0  0  0  0  0  0  0  0
  146.6163  140.4556  154.1030 H   0  0  0  0  0  0  0  0  0  0  0  0
  148.5893  137.4878  153.0902 H   0  0  0  0  0  0  0  0  0  0  0  0
  147.3805  136.0171  152.6311 H   0  0  0  0  0  0  0  0  0  0  0  0
  145.0689  135.4031  154.2420 H   0  0  0  0  0  0  0  0  0  0  0  0
  143.3410  135.7329  152.5911 H   0  0  0  0  0  0  0  0  0  0  0  0
  144.5164  136.0881  151.3161 H   0  0  0  0  0  0  0  0  0  0  0  0
  144.2461  137.2196  152.6384 H   0  0  0  0  0  0  0  0  0  0  0  0
  146.9103  133.9543  152.7208 H   0  0  0  0  0  0  0  0  0  0  0  0
  145.4740  133.3631  153.4826 H   0  0  0  0  0  0  0  0  0  0  0  0
  147.0842  132.9119  150.6127 H   0  0  0  0  0  0  0  0  0  0  0  0
  146.1459  131.7209  151.4704 H   0  0  0  0  0  0  0  0  0  0  0  0
  145.4690  132.9265  148.7337 H   0  0  0  0  0  0  0  0  0  0  0  0
  146.0436  131.2977  149.0442 H   0  0  0  0  0  0  0  0  0  0  0  0
  143.1999  133.5170  149.5657 H   0  0  0  0  0  0  0  0  0  0  0  0
  142.2999  132.2704  150.4119 H   0  0  0  0  0  0  0  0  0  0  0  0
  143.8974  132.3026  152.2962 H   0  0  0  0  0  0  0  0  0  0  0  0
  143.2774  133.9146  152.0171 H   0  0  0  0  0  0  0  0  0  0  0  0
  1  2  1  0  0  0  0
  1 22  1  0  0  0  0
  1 23  1  0  0  0  0
  1 24  1  0  0  0  0
  2  3  1  0  0  0  0
  3  8  1  0  0  0  0
  3  4  2  0  0  0  0
  4  5  1  0  0  0  0
  5  6  2  0  0  0  0
  5 25  1  0  0  0  0
  6  7  1  0  0  0  0
  6 26  1  0  0  0  0
  7  8  2  0  0  0  0
  7 27  1  0  0  0  0
  8  9  1  0  0  0  0
  9 10  1  0  0  0  0
  9 28  1  0  0  0  0
 10 11  2  0  0  0  0
 10 12  1  0  0  0  0
 12 13  1  0  0  0  0
 12 29  1  0  0  0  0
 13 14  1  0  0  0  0
 13 15  1  0  0  0  0
 13 30  1  0  0  0  0
 14 31  1  0  0  0  0
 14 32  1  0  0  0  0
 14 33  1  0  0  0  0
 15 16  1  0  0  0  0
 15 34  1  0  0  0  0
 15 35  1  0  0  0  0
 16 21  1  0  0  0  0
 16 17  1  0  0  0  0
 17 18  1  0  0  0  0
 17 36  1  0  0  0  0
 17 37  1  0  0  0  0
 18 19  1  0  0  0  0
 18 38  1  0  0  0  0
 18 39  1  0  0  0  0
 19 20  1  0  0  0  0
 20 21  1  0  0  0  0
 20 40  1  0  0  0  0
 20 41  1  0  0  0  0
 21 42  1  0  0  0  0
 21 43  1  0  0  0  0
M  END
> <s_m_source_file>
AV-unprocessed.smi

> <i_m_source_file_index>
1444

> <i_lp_mmshare_version>
43012

> <i_f3d_flags>
0

> <s_epik_input>
W0NIM11PYzFuW2NIXVtjSF1bY0hdYzFbTkhdQyg9TylbTkhdW0NASF0oW0NIM10pW0NIMl1OMltDSDJdW0NIMl1PW0NIMl1bQ0gyXTI=

> <s_epik_cmdline>
J2VwaWtfcHl0aG9uJywgJy1waCcsICc3LjAnLCAnLXRuJywgJzgnLCAnLW1hJywgJzIwMCcsICctbWV0YWxfYmluZGluZycsICctaW1hZScsICc8aW5maWxlLm1hZT4nLCAnLW9tYWUnLCAnPG91dGZpbGUubWFlPic=

> <r_lp_tautomer_probability>
1

> <r_epik_Ionization_Penalty>
0.266086

> <r_epik_Ionization_Penalty_Charging>
0

> <r_epik_Ionization_Penalty_Neutral>
0.266086

> <r_epik_State_Penalty>
0.257924

> <r_epik_Charging_Adjusted_Penalty>
0.257924

> <i_epik_Tot_Q>
0

> <i_epik_Tot_abs_Q>
0

> <r_epik_Metal_State_Penalty>
0.25792

> <b_epik_Metal_Only>
0

> <s_lp_Force_Field>
OPLS_2005

> <r_lp_Energy>
29.2348

> <b_lp_Chiralities_Consistent>
1

> <s_lp_Variant>
AV-unprocessed.smi:1444-2

> <Gold.Version>
5.8.1

> <Gold.Id.Protein>
6NUR|6NUR_protein|mol2

> <Gold.PLP.Fitness>
45.3377

> <Gold.PLP.PLP>
-34.9172

> <Gold.PLP.part.hbond>
-4.0000

> <Gold.PLP.part.metal>
0.0000

> <Gold.PLP.part.buried>
-1.8129

> <Gold.PLP.part.nonpolar>
-29.1096

> <Gold.PLP.part.repulsive>
0.7193

> <Gold.PLP.ligand.clash>
0.0000

> <Gold.PLP.ligand.torsion>
1.3520

> <Gold.PLP.Chemscore.Hbond>
3.5280

> <Gold.PLP.Chemscore.CHOScore>
0.8334

> <Gold.PLP.Chemscore.Metal>
0.0000

> <Gold.Chemscore.Hbonds>
donor molecule, donor type, donor heavy atom, donor atom, acceptor molecule, acceptor atom, score
      L1  H     9    28       P1  7948  1.00
      L1  H    12    29       P1  7948  1.00
      P1  H  7989  7998       L1     4  1.00
      P1  H 10785 10796       L1    19  0.66
      L1  C     5    25       P1  8028  0.61

> <Gold.PLP.Chemscore.Internal.Correction>
0.0403

> <Gold.Rescore>
     Score         DG    S(hbond)    S(metal)    S(lipo)     H(rot)  DE(clash)    DE(int)     intcor
     17.61     -20.42       2.83        0.00      84.66       1.72       0.62       2.19       ----

> <Gold.Chemscore.Fitness>
17.6096

> <Gold.Chemscore.DG>
-20.4247

> <Gold.Chemscore.ZeroCoef>
-5.4800

> <Gold.Chemscore.Hbond>
2.8262

> <Gold.Chemscore.Metal>
0.0000

> <Gold.Chemscore.Lipo>
84.6637

> <Gold.Chemscore.Internal_Hbond>
0.0000

> <Gold.Chemscore.DEClash>
0.6221

> <Gold.Chemscore.DEInternal>
2.1930

> <Gold.Chemscore.Rot>
1.7189

> <Gold.Chemscore.Internal.Correction>
   9.000000E+99

> <Gold.Chemscore.Hbonds>
donor molecule, donor type, donor heavy atom, donor atom, acceptor molecule, acceptor atom, score
      L1  H     9    28       P1  7948  0.96
      L1  H    12    29       P1  7948  0.98
      P1  H  7989  7998       L1     4  0.20
      P1  H 10785 10796       L1    19  0.60

> <Gold.Chemscore.Hbond.Weighted>
-9.4394

> <Gold.Chemscore.Metal.Weighted>
-0.0000

> <Gold.Chemscore.Lipo.Weighted>
-9.9056

> <Gold.Chemscore.Internal_Hbond.Weighted>
0.0000

> <Gold.Chemscore.DEClash.Weighted>
0.6221

> <Gold.Chemscore.DEInternal.Weighted>
2.1930

> <Gold.Chemscore.Rot.Weighted>
4.4004

> <Gold.Chemscore.Internal.Correction.Weighted>
   9.000000E+99

> <Gold.Protein.RotatedTorsions>
[ 6907 6896 6895 6894 ] final    0.13 input  -60.11 | X-H torsion
[ 7974 7965 7964 7962 ] final -149.35 input  175.53 | X-H torsion
[ 8008 7997 7996 7995 ] final   -3.29 input   59.86 | X-H torsion
[ 10167 10162 10161 10158 ] final   55.77 input  -65.29 | X-H torsion
[ 10718 10713 10712 10709 ] final -133.72 input   66.30 | X-H torsion
[ 10763 10752 10751 10750 ] final  -31.98 input  -60.55 | X-H torsion
[ 11005 11000 10999 10996 ] final  178.37 input  -57.11 | X-H torsion

> <Gold.Protein.ActiveResidues>
 VAL166  LYS551  ARG553  GLY616  TRP617  ASP618  TYR619  PRO620  LYS621  CYS622 
 ASP623  PHE694  ASN695  SER759  ASP760  ASP761  ALA762  ILE779  LEU786  VAL792 
 PHE793  MET794  SER795  GLU796  ALA797  LYS798  CYS799  TRP800  GLU811  SER814 

> <Gold.Protein.RotatedAtoms>
  151.5714  135.1062  159.9995 H   0  0  0  0  0  0  0  0  0  0  0  0  # atno 6907 bound_to 6896
  152.4399  133.7424  159.6659 H   0  0  0  0  0  0  0  0  0  0  0  0  # atno 6908 bound_to 6896
  150.8302  133.8034  159.3125 H   0  0  0  0  0  0  0  0  0  0  0  0  # atno 6909 bound_to 6896
  144.7973  140.5076  143.5731 H   0  0  0  0  0  0  0  0  0  0  0  0  # atno 7974 bound_to 7965
  154.6265  140.2513  155.7486 H   0  0  0  0  0  0  0  0  0  0  0  0  # atno 8008 bound_to 7997
  156.2456  140.2916  156.0516 H   0  0  0  0  0  0  0  0  0  0  0  0  # atno 8009 bound_to 7997
  155.1814  140.0389  157.2873 H   0  0  0  0  0  0  0  0  0  0  0  0  # atno 8010 bound_to 7997
  140.2159  144.3840  150.6470 H   0  0  0  0  0  0  0  0  0  0  0  0  # atno 10167 bound_to 10162
  156.2478  130.7135  151.1022 H   0  0  0  0  0  0  0  0  0  0  0  0  # atno 10718 bound_to 10713
  153.8063  135.6886  153.4848 H   0  0  0  0  0  0  0  0  0  0  0  0  # atno 10763 bound_to 10752
  153.1656  135.4562  154.9831 H   0  0  0  0  0  0  0  0  0  0  0  0  # atno 10764 bound_to 10752
  154.7986  135.3329  154.7547 H   0  0  0  0  0  0  0  0  0  0  0  0  # atno 10765 bound_to 10752
  140.3943  134.6834  157.4526 H   0  0  0  0  0  0  0  0  0  0  0  0  # atno 11005 bound_to 11000
  145.5642  139.1480  143.3324 LP  0  0  0  0  0  0  0  0  0  0  0  0  # atno 17320 bound_to 7965
  146.2244  140.5777  142.9003 LP  0  0  0  0  0  0  0  0  0  0  0  0  # atno 17321 bound_to 7965
  140.6290  143.2185  151.6536 LP  0  0  0  0  0  0  0  0  0  0  0  0  # atno 17342 bound_to 10162
  139.5162  144.3354  152.0789 LP  0  0  0  0  0  0  0  0  0  0  0  0  # atno 17343 bound_to 10162
  157.7202  131.0686  150.6165 LP  0  0  0  0  0  0  0  0  0  0  0  0  # atno 17370 bound_to 10713
  156.6243  130.4414  149.5810 LP  0  0  0  0  0  0  0  0  0  0  0  0  # atno 17371 bound_to 10713
  140.0383  134.6304  155.9014 LP  0  0  0  0  0  0  0  0  0  0  0  0  # atno 17394 bound_to 11000
  141.1879  133.6561  156.5304 LP  0  0  0  0  0  0  0  0  0  0  0  0  # atno 17395 bound_to 11000

$$$$
