AV-unprocessed.smi:2562|AV-procd|sdf|10046|dock4
  -GOLD-   2272014 93D 1   1.00000     0.00000
 Structure written by MMmdl.
 30 31  0  0  0  0  0  0  0  0  1 V2000
  152.5309  143.5433  160.8216 C   0  0  0  0  0  0  0  0  0  0  0  0
  152.5324  142.8151  159.4733 C   0  0  0  0  0  0  0  0  0  0  0  0
  151.4471  143.3371  158.5208 C   0  0  0  0  0  0  0  0  0  0  0  0
  151.1678  142.3942  157.3968 C   0  0  0  0  0  0  0  0  0  0  0  0
  150.3289  142.6948  156.4034 N   0  0  0  0  0  0  0  0  0  0  0  0
  150.2680  141.6577  155.5421 N   0  0  0  0  0  0  0  0  0  0  0  0
  151.0845  140.7711  156.1142 C   0  0  0  0  0  0  0  0  0  0  0  0
  151.3788  139.4438  155.4858 C   0  0  2  0  0  0  0  0  0  0  0  0
  150.4043  139.1169  154.3373 C   0  0  0  0  0  0  0  0  0  0  0  0
  150.6676  137.7765  153.8154 N   0  0  0  0  0  0  0  0  0  0  0  0
  150.6240  136.7761  154.8810 C   0  0  0  0  0  0  0  0  0  0  0  0
  151.5893  137.1600  156.0171 C   0  0  0  0  0  0  0  0  0  0  0  0
  151.2598  138.4554  156.5072 O   0  0  0  0  0  0  0  0  0  0  0  0
  151.6901  141.1792  157.2707 N   0  0  0  0  0  0  0  0  0  0  0  0
  149.8095  143.5513  156.2732 H   0  0  0  0  0  0  0  0  0  0  0  0
  153.3107  143.1520  161.4752 H   0  0  0  0  0  0  0  0  0  0  0  0
  151.5756  143.4224  161.3332 H   0  0  0  0  0  0  0  0  0  0  0  0
  152.7101  144.6110  160.6922 H   0  0  0  0  0  0  0  0  0  0  0  0
  153.5124  142.9260  159.0075 H   0  0  0  0  0  0  0  0  0  0  0  0
  152.3899  141.7469  159.6410 H   0  0  0  0  0  0  0  0  0  0  0  0
  150.5213  143.5182  159.0687 H   0  0  0  0  0  0  0  0  0  0  0  0
  151.7507  144.2961  158.0990 H   0  0  0  0  0  0  0  0  0  0  0  0
  152.4055  139.4576  155.1147 H   0  0  0  0  0  0  0  0  0  0  0  0
  149.3761  139.1771  154.6964 H   0  0  0  0  0  0  0  0  0  0  0  0
  150.5020  139.8545  153.5406 H   0  0  0  0  0  0  0  0  0  0  0  0
  149.9797  137.5474  153.1050 H   0  0  0  0  0  0  0  0  0  0  0  0
  149.6100  136.6969  155.2744 H   0  0  0  0  0  0  0  0  0  0  0  0
  150.8836  135.7945  154.4842 H   0  0  0  0  0  0  0  0  0  0  0  0
  151.5093  136.4436  156.8347 H   0  0  0  0  0  0  0  0  0  0  0  0
  152.6254  137.1372  155.6753 H   0  0  0  0  0  0  0  0  0  0  0  0
  1  2  1  0  0  0  0
  1 16  1  0  0  0  0
  1 17  1  0  0  0  0
  1 18  1  0  0  0  0
  2  3  1  0  0  0  0
  2 19  1  0  0  0  0
  2 20  1  0  0  0  0
  3 21  1  0  0  0  0
  3 22  1  0  0  0  0
  3  4  1  0  0  0  0
  4 14  2  0  0  0  0
  4  5  1  0  0  0  0
  5  6  1  0  0  0  0
  5 15  1  0  0  0  0
  6  7  2  0  0  0  0
  7 14  1  0  0  0  0
  7  8  1  0  0  0  0
  8 13  1  0  0  0  0
  8  9  1  0  0  0  0
  8 23  1  0  0  0  0
  9 10  1  0  0  0  0
  9 24  1  0  0  0  0
  9 25  1  0  0  0  0
 10 11  1  0  0  0  0
 10 26  1  0  0  0  0
 11 12  1  0  0  0  0
 11 27  1  0  0  0  0
 11 28  1  0  0  0  0
 12 13  1  0  0  0  0
 12 29  1  0  0  0  0
 12 30  1  0  0  0  0
M  END
> <s_m_source_file>
AV-unprocessed.smi

> <i_m_source_file_index>
2562

> <i_lp_mmshare_version>
43012

> <i_f3d_flags>
0

> <s_epik_input>
W0NIM11bQ0gyXVtDSDJdYzFuW25IXWMobjEpW0NAQEhdMltDSDJdW05IXVtDSDJdW0NIMl1PMg==

> <s_epik_cmdline>
J2VwaWtfcHl0aG9uJywgJy1waCcsICc3LjAnLCAnLXRuJywgJzgnLCAnLW1hJywgJzIwMCcsICctbWV0YWxfYmluZGluZycsICctaW1hZScsICc8aW5maWxlLm1hZT4nLCAnLW9tYWUnLCAnPG91dGZpbGUubWFlPic=

> <r_epik_Ionization_Penalty>
1.10136

> <r_epik_Ionization_Penalty_Charging>
0

> <r_epik_Ionization_Penalty_Neutral>
1.10136

> <r_epik_State_Penalty>
1.43987

> <r_epik_Charging_Adjusted_Penalty>
1.43987

> <i_epik_Tot_Q>
0

> <i_epik_Tot_abs_Q>
0

> <r_epik_Metal_State_Penalty>
1.55976

> <b_epik_Metal_Only>
0

> <s_lp_Force_Field>
OPLS_2005

> <r_lp_Energy>
11.7633

> <b_lp_Chiralities_Consistent>
1

> <s_lp_Variant>
AV-unprocessed.smi:2562-5

> <Gold.Version>
5.8.1

> <Gold.Id.Protein>
6NUR|6NUR_protein|mol2

> <Gold.PLP.Fitness>
33.4807

> <Gold.PLP.PLP>
-28.1951

> <Gold.PLP.part.hbond>
-3.3928

> <Gold.PLP.part.metal>
0.0000

> <Gold.PLP.part.buried>
-3.3067

> <Gold.PLP.part.nonpolar>
-22.0506

> <Gold.PLP.part.repulsive>
0.1962

> <Gold.PLP.ligand.clash>
0.0000

> <Gold.PLP.ligand.torsion>
0.3519

> <Gold.PLP.Chemscore.Hbond>
1.9913

> <Gold.PLP.Chemscore.CHOScore>
0.0000

> <Gold.PLP.Chemscore.Metal>
0.0000

> <Gold.Chemscore.Hbonds>
donor molecule, donor type, donor heavy atom, donor atom, acceptor molecule, acceptor atom, score
      L1  H     5    15       P1  8028  1.00
      L1  H    10    26       P1  7948  0.99

> <Gold.PLP.Chemscore.Internal.Correction>
0.0156

> <Gold.Rescore>
     Score         DG    S(hbond)    S(metal)    S(lipo)     H(rot)  DE(clash)    DE(int)     intcor
     14.15     -14.53       1.75        0.00      59.82       1.48       0.04       0.33       ----

> <Gold.Chemscore.Fitness>
14.1512

> <Gold.Chemscore.DG>
-14.5280

> <Gold.Chemscore.ZeroCoef>
-5.4800

> <Gold.Chemscore.Hbond>
1.7453

> <Gold.Chemscore.Metal>
0.0000

> <Gold.Chemscore.Lipo>
59.8242

> <Gold.Chemscore.Internal_Hbond>
0.0000

> <Gold.Chemscore.DEClash>
0.0426

> <Gold.Chemscore.DEInternal>
0.3341

> <Gold.Chemscore.Rot>
1.4769

> <Gold.Chemscore.Internal.Correction>
   9.000000E+99

> <Gold.Chemscore.Hbonds>
donor molecule, donor type, donor heavy atom, donor atom, acceptor molecule, acceptor atom, score
      L1  H     5    15       P1  8028  0.99
      L1  H    10    26       P1  7948  0.27

> <Gold.Chemscore.Hbond.Weighted>
-5.8293

> <Gold.Chemscore.Metal.Weighted>
-0.0000

> <Gold.Chemscore.Lipo.Weighted>
-6.9994

> <Gold.Chemscore.Internal_Hbond.Weighted>
0.0000

> <Gold.Chemscore.DEClash.Weighted>
0.0426

> <Gold.Chemscore.DEInternal.Weighted>
0.3341

> <Gold.Chemscore.Rot.Weighted>
3.7808

> <Gold.Chemscore.Internal.Correction.Weighted>
   9.000000E+99

> <Gold.Protein.RotatedTorsions>
[ 6907 6896 6895 6894 ] final   59.40 input  -60.11 | X-H torsion
[ 7974 7965 7964 7962 ] final  175.24 input  175.53 | X-H torsion
[ 8008 7997 7996 7995 ] final   47.19 input   59.86 | X-H torsion
[ 10167 10162 10161 10158 ] final  118.69 input  -65.29 | X-H torsion
[ 10718 10713 10712 10709 ] final  -54.28 input   66.30 | X-H torsion
[ 10763 10752 10751 10750 ] final  -34.52 input  -60.55 | X-H torsion
[ 11005 11000 10999 10996 ] final -146.33 input  -57.11 | X-H torsion

> <Gold.Protein.ActiveResidues>
 VAL166  LYS551  ARG553  GLY616  TRP617  ASP618  TYR619  PRO620  LYS621  CYS622 
 ASP623  PHE694  ASN695  SER759  ASP760  ASP761  ALA762  ILE779  LEU786  VAL792 
 PHE793  MET794  SER795  GLU796  ALA797  LYS798  CYS799  TRP800  GLU811  SER814 

> <Gold.Protein.RotatedAtoms>
  152.3911  134.6439  160.0106 H   0  0  0  0  0  0  0  0  0  0  0  0  # atno 6907 bound_to 6896
  151.6672  133.3309  159.3196 H   0  0  0  0  0  0  0  0  0  0  0  0  # atno 6908 bound_to 6896
  150.7827  134.6830  159.6499 H   0  0  0  0  0  0  0  0  0  0  0  0  # atno 6909 bound_to 6896
  144.7205  139.9918  143.6440 H   0  0  0  0  0  0  0  0  0  0  0  0  # atno 7974 bound_to 7965
  155.3649  140.3420  155.4241 H   0  0  0  0  0  0  0  0  0  0  0  0  # atno 8008 bound_to 7997
  156.1694  140.1626  156.8509 H   0  0  0  0  0  0  0  0  0  0  0  0  # atno 8009 bound_to 7997
  154.5217  140.0765  156.8167 H   0  0  0  0  0  0  0  0  0  0  0  0  # atno 8010 bound_to 7997
  139.6095  144.7078  151.2877 H   0  0  0  0  0  0  0  0  0  0  0  0  # atno 10167 bound_to 10162
  156.1464  130.4152  150.0017 H   0  0  0  0  0  0  0  0  0  0  0  0  # atno 10718 bound_to 10713
  153.8480  135.6851  153.4795 H   0  0  0  0  0  0  0  0  0  0  0  0  # atno 10763 bound_to 10752
  153.1414  135.4656  154.9499 H   0  0  0  0  0  0  0  0  0  0  0  0  # atno 10764 bound_to 10752
  154.7815  135.3270  154.7927 H   0  0  0  0  0  0  0  0  0  0  0  0  # atno 10765 bound_to 10752
  140.7831  134.3056  157.5039 H   0  0  0  0  0  0  0  0  0  0  0  0  # atno 11005 bound_to 11000
  146.0406  139.3418  143.0700 LP  0  0  0  0  0  0  0  0  0  0  0  0  # atno 17320 bound_to 7965
  145.8340  140.9616  143.0834 LP  0  0  0  0  0  0  0  0  0  0  0  0  # atno 17321 bound_to 7965
  140.7309  143.6867  150.7955 LP  0  0  0  0  0  0  0  0  0  0  0  0  # atno 17342 bound_to 10162
  140.0459  143.5298  152.2696 LP  0  0  0  0  0  0  0  0  0  0  0  0  # atno 17343 bound_to 10162
  156.7887  130.9248  151.3646 LP  0  0  0  0  0  0  0  0  0  0  0  0  # atno 17370 bound_to 10713
  157.6620  130.8974  149.9850 LP  0  0  0  0  0  0  0  0  0  0  0  0  # atno 17371 bound_to 10713
  139.8740  134.9330  156.3570 LP  0  0  0  0  0  0  0  0  0  0  0  0  # atno 17394 bound_to 11000
  140.9463  133.7481  156.0212 LP  0  0  0  0  0  0  0  0  0  0  0  0  # atno 17395 bound_to 11000

$$$$
