AV-unprocessed.smi:2298|AV-procd|sdf|9226|dock1
  -GOLD-   2272012443D 1   1.00000     0.00000
 Structure written by MMmdl.
 38 39  0  0  0  0  0  0  0  0  2 V2000
  150.7186  141.0955  155.7756 C   0  0  0  0  0  0  0  0  0  0  0  0
  149.4576  140.9276  154.9496 C   0  0  0  0  0  0  0  0  0  0  0  0
  148.6401  141.9965  154.8273 N   0  3  0  0  0  0  0  0  0  0  0  0
  147.4889  141.9649  154.1247 C   0  0  0  0  0  0  0  0  0  0  0  0
  147.0964  140.7802  153.4722 C   0  0  0  0  0  0  0  0  0  0  0  0
  147.9254  139.6324  153.5519 C   0  0  0  0  0  0  0  0  0  0  0  0
  147.5950  138.3917  152.9374 N   0  0  0  0  0  0  0  0  0  0  0  0
  146.3866  137.9379  152.5629 C   0  0  0  0  0  0  0  0  0  0  0  0
  145.3270  138.5505  152.6920 O   0  0  0  0  0  0  0  0  0  0  0  0
  146.4754  136.7213  152.0063 N   0  0  0  0  0  0  0  0  0  0  0  0
  145.3506  135.9496  151.4851 C   0  0  1  0  0  0  0  0  0  0  0  0
  145.8731  134.6798  150.7866 C   0  0  0  0  0  0  0  0  0  0  0  0
  144.7179  133.8064  150.2708 C   0  0  0  0  0  0  0  0  0  0  0  0
  143.7452  133.4465  151.4070 C   0  0  2  0  0  0  0  0  0  0  0  0
  142.6631  132.7046  150.8856 O   0  0  0  0  0  0  0  0  0  0  0  0
  143.2138  134.7119  152.1016 C   0  0  0  0  0  0  0  0  0  0  0  0
  144.3681  135.5860  152.6181 C   0  0  0  0  0  0  0  0  0  0  0  0
  149.1170  139.7093  154.3154 C   0  0  0  0  0  0  0  0  0  0  0  0
  150.1549  138.3314  154.4682 Cl  0  0  0  0  0  0  0  0  0  0  0  0
  144.8233  136.5500  150.7409 H   0  0  0  0  0  0  0  0  0  0  0  0
  144.2584  132.8209  152.1383 H   0  0  0  0  0  0  0  0  0  0  0  0
  151.6004  140.9200  155.1588 H   0  0  0  0  0  0  0  0  0  0  0  0
  150.7291  140.3849  156.6026 H   0  0  0  0  0  0  0  0  0  0  0  0
  150.7922  142.1011  156.1922 H   0  0  0  0  0  0  0  0  0  0  0  0
  146.9163  142.8808  154.1106 H   0  0  0  0  0  0  0  0  0  0  0  0
  146.1610  140.7724  152.9339 H   0  0  0  0  0  0  0  0  0  0  0  0
  148.3825  137.8116  152.6860 H   0  0  0  0  0  0  0  0  0  0  0  0
  147.3875  136.2940  151.9360 H   0  0  0  0  0  0  0  0  0  0  0  0
  146.5253  134.9514  149.9556 H   0  0  0  0  0  0  0  0  0  0  0  0
  146.4821  134.0984  151.4805 H   0  0  0  0  0  0  0  0  0  0  0  0
  144.1864  134.3408  149.4819 H   0  0  0  0  0  0  0  0  0  0  0  0
  145.1165  132.8984  149.8165 H   0  0  0  0  0  0  0  0  0  0  0  0
  142.0341  133.3072  150.5191 H   0  0  0  0  0  0  0  0  0  0  0  0
  142.6073  135.2915  151.4040 H   0  0  0  0  0  0  0  0  0  0  0  0
  142.5586  134.4385  152.9294 H   0  0  0  0  0  0  0  0  0  0  0  0
  144.8977  135.0535  153.4095 H   0  0  0  0  0  0  0  0  0  0  0  0
  143.9626  136.4908  153.0725 H   0  0  0  0  0  0  0  0  0  0  0  0
  148.9028  142.8661  155.2920 H   0  0  0  0  0  0  0  0  0  0  0  0
  1  2  1  0  0  0  0
  1 22  1  0  0  0  0
  1 23  1  0  0  0  0
  1 24  1  0  0  0  0
  2 18  1  0  0  0  0
  2  3  2  0  0  0  0
  3  4  1  0  0  0  0
  3 38  1  0  0  0  0
  4  5  2  0  0  0  0
  4 25  1  0  0  0  0
  5  6  1  0  0  0  0
  5 26  1  0  0  0  0
  6  7  1  0  0  0  0
  6 18  2  0  0  0  0
  7  8  1  0  0  0  0
  7 27  1  0  0  0  0
  8  9  2  0  0  0  0
  8 10  1  0  0  0  0
 10 11  1  0  0  0  0
 10 28  1  0  0  0  0
 11 20  1  0  0  0  0
 11 17  1  0  0  0  0
 11 12  1  0  0  0  0
 12 13  1  0  0  0  0
 12 29  1  0  0  0  0
 12 30  1  0  0  0  0
 13 14  1  0  0  0  0
 13 31  1  0  0  0  0
 13 32  1  0  0  0  0
 14 21  1  0  0  0  0
 14 15  1  0  0  0  0
 14 16  1  0  0  0  0
 15 33  1  0  0  0  0
 16 17  1  0  0  0  0
 16 34  1  0  0  0  0
 16 35  1  0  0  0  0
 17 36  1  0  0  0  0
 17 37  1  0  0  0  0
 18 19  1  0  0  0  0
M  CHG  1   3   1
M  END
> <s_m_source_file>
AV-unprocessed.smi

> <i_m_source_file_index>
2298

> <i_lp_mmshare_version>
43012

> <i_f3d_flags>
0

> <s_epik_input>
W0NIM11jMW5bY0hdW2NIXWMoYzFDbClbTkhdQyg9TylbTkhdW0NASF0yW0NIMl1bQ0gyXVtDQEhdKFtPSF0pW0NIMl1bQ0gyXTI=

> <s_epik_cmdline>
J2VwaWtfcHl0aG9uJywgJy1waCcsICc3LjAnLCAnLXRuJywgJzgnLCAnLW1hJywgJzIwMCcsICctbWV0YWxfYmluZGluZycsICctaW1hZScsICc8aW5maWxlLm1hZT4nLCAnLW9tYWUnLCAnPG91dGZpbGUubWFlPic=

> <r_epik_Ionization_Penalty>
2.42586

> <r_epik_Ionization_Penalty_Charging>
2.42584

> <r_epik_Ionization_Penalty_Neutral>
2.16148e-05

> <r_epik_State_Penalty>
2.58553

> <r_epik_Charging_Adjusted_Penalty>
5.01136

> <i_epik_Tot_Q>
1

> <i_epik_Tot_abs_Q>
1

> <r_epik_Metal_State_Penalty>
2.59536

> <b_epik_Metal_Only>
0

> <s_lp_Force_Field>
OPLS_2005

> <r_lp_Energy>
18.0317

> <b_lp_Chiralities_Consistent>
1

> <s_lp_Variant>
AV-unprocessed.smi:2298-3

> <Gold.Version>
5.8.1

> <Gold.Id.Protein>
6NUR|6NUR_protein|mol2

> <Gold.PLP.Fitness>
49.3605

> <Gold.PLP.PLP>
-34.8086

> <Gold.PLP.part.hbond>
-4.8291

> <Gold.PLP.part.metal>
0.0000

> <Gold.PLP.part.buried>
-2.9158

> <Gold.PLP.part.nonpolar>
-31.1622

> <Gold.PLP.part.repulsive>
4.3189

> <Gold.PLP.ligand.clash>
0.0000

> <Gold.PLP.ligand.torsion>
0.1422

> <Gold.PLP.Chemscore.Hbond>
4.9440

> <Gold.PLP.Chemscore.CHOScore>
0.0000

> <Gold.PLP.Chemscore.Metal>
0.0000

> <Gold.Chemscore.Hbonds>
donor molecule, donor type, donor heavy atom, donor atom, acceptor molecule, acceptor atom, score
      L1  H     3    38       P1  8028  2.00
      L1  H     7    27       P1  7948  0.94
      L1  H    10    28       P1  7948  1.00
      L1  H    15    33       P1 10186  1.00

> <Gold.PLP.Chemscore.Internal.Correction>
0.0043

> <Gold.Rescore>
     Score         DG    S(hbond)    S(metal)    S(lipo)     H(rot)  DE(clash)    DE(int)     intcor
     21.10     -24.49       3.87        0.00      83.21       1.43       2.06       1.33       ----

> <Gold.Chemscore.Fitness>
21.1037

> <Gold.Chemscore.DG>
-24.4862

> <Gold.Chemscore.ZeroCoef>
-5.4800

> <Gold.Chemscore.Hbond>
3.8742

> <Gold.Chemscore.Metal>
0.0000

> <Gold.Chemscore.Lipo>
83.2109

> <Gold.Chemscore.Internal_Hbond>
0.0000

> <Gold.Chemscore.DEClash>
2.0559

> <Gold.Chemscore.DEInternal>
1.3266

> <Gold.Chemscore.Rot>
1.4333

> <Gold.Chemscore.Internal.Correction>
   9.000000E+99

> <Gold.Chemscore.Hbonds>
donor molecule, donor type, donor heavy atom, donor atom, acceptor molecule, acceptor atom, score
      L1  H     3    38       P1  8028  0.98
      L1  H     7    27       P1  7948  0.91
      L1  H    10    28       P1  7948  0.94
      L1  H    15    33       P1 10186  0.99

> <Gold.Chemscore.Hbond.Weighted>
-12.9398

> <Gold.Chemscore.Metal.Weighted>
-0.0000

> <Gold.Chemscore.Lipo.Weighted>
-9.7357

> <Gold.Chemscore.Internal_Hbond.Weighted>
0.0000

> <Gold.Chemscore.DEClash.Weighted>
2.0559

> <Gold.Chemscore.DEInternal.Weighted>
1.3266

> <Gold.Chemscore.Rot.Weighted>
3.6693

> <Gold.Chemscore.Internal.Correction.Weighted>
   9.000000E+99

> <Gold.Protein.RotatedTorsions>
[ 6907 6896 6895 6894 ] final -160.33 input  -60.11 | X-H torsion
[ 7974 7965 7964 7962 ] final   40.17 input  175.53 | X-H torsion
[ 8008 7997 7996 7995 ] final  155.22 input   59.86 | X-H torsion
[ 10167 10162 10161 10158 ] final  170.57 input  -65.29 | X-H torsion
[ 10718 10713 10712 10709 ] final   -9.10 input   66.30 | X-H torsion
[ 10763 10752 10751 10750 ] final -115.73 input  -60.55 | X-H torsion
[ 11005 11000 10999 10996 ] final  -41.20 input  -57.11 | X-H torsion

> <Gold.Protein.ActiveResidues>
 VAL166  LYS551  ARG553  GLY616  TRP617  ASP618  TYR619  PRO620  LYS621  CYS622 
 ASP623  PHE694  ASN695  SER759  ASP760  ASP761  ALA762  ILE779  LEU786  VAL792 
 PHE793  MET794  SER795  GLU796  ALA797  LYS798  CYS799  TRP800  GLU811  SER814 

> <Gold.Protein.RotatedAtoms>
  151.3474  133.3938  159.2676 H   0  0  0  0  0  0  0  0  0  0  0  0  # atno 6907 bound_to 6896
  150.9828  134.9181  159.7865 H   0  0  0  0  0  0  0  0  0  0  0  0  # atno 6908 bound_to 6896
  152.5223  134.3438  159.9279 H   0  0  0  0  0  0  0  0  0  0  0  0  # atno 6909 bound_to 6896
  146.0926  139.5564  142.9466 H   0  0  0  0  0  0  0  0  0  0  0  0  # atno 7974 bound_to 7965
  156.2490  140.1945  156.6767 H   0  0  0  0  0  0  0  0  0  0  0  0  # atno 8008 bound_to 7997
  154.6352  140.0590  156.9806 H   0  0  0  0  0  0  0  0  0  0  0  0  # atno 8009 bound_to 7997
  155.1648  140.3263  155.4407 H   0  0  0  0  0  0  0  0  0  0  0  0  # atno 8010 bound_to 7997
  139.5022  144.3582  151.9852 H   0  0  0  0  0  0  0  0  0  0  0  0  # atno 10167 bound_to 10162
  156.6929  130.5070  149.5938 H   0  0  0  0  0  0  0  0  0  0  0  0  # atno 10718 bound_to 10713
  154.8492  135.4371  154.1709 H   0  0  0  0  0  0  0  0  0  0  0  0  # atno 10763 bound_to 10752
  153.2822  135.6954  153.7380 H   0  0  0  0  0  0  0  0  0  0  0  0  # atno 10764 bound_to 10752
  153.6579  135.3440  155.3094 H   0  0  0  0  0  0  0  0  0  0  0  0  # atno 10765 bound_to 10752
  141.0229  133.6854  156.2425 H   0  0  0  0  0  0  0  0  0  0  0  0  # atno 11005 bound_to 11000
  145.6010  141.0355  143.2018 LP  0  0  0  0  0  0  0  0  0  0  0  0  # atno 17320 bound_to 7965
  144.7371  139.7553  143.7325 LP  0  0  0  0  0  0  0  0  0  0  0  0  # atno 17321 bound_to 7965
  140.3019  144.3637  150.6058 LP  0  0  0  0  0  0  0  0  0  0  0  0  # atno 17342 bound_to 10162
  140.5867  143.2169  151.7329 LP  0  0  0  0  0  0  0  0  0  0  0  0  # atno 17343 bound_to 10162
  156.1784  130.6483  151.0922 LP  0  0  0  0  0  0  0  0  0  0  0  0  # atno 17370 bound_to 10713
  157.7002  131.0779  150.6844 LP  0  0  0  0  0  0  0  0  0  0  0  0  # atno 17371 bound_to 10713
  140.6542  134.5036  157.5579 LP  0  0  0  0  0  0  0  0  0  0  0  0  # atno 17394 bound_to 11000
  139.9157  134.8251  156.1374 LP  0  0  0  0  0  0  0  0  0  0  0  0  # atno 17395 bound_to 11000

$$$$
