AV-unprocessed.smi:2515|AV-procd|sdf|9897|dock7
  -GOLD-   2272013533D 1   1.00000     0.00000
 Structure written by MMmdl.
 36 37  0  0  0  0  0  0  0  0  1 V2000
  154.5169  138.1603  154.7060 N   0  0  0  0  0  0  0  0  0  0  0  0
  153.4325  138.5282  154.8707 C   0  0  0  0  0  0  0  0  0  0  0  0
  152.0993  138.9853  155.0740 C   0  0  0  0  0  0  0  0  0  0  0  0
  151.1861  139.0876  154.0258 N   0  0  0  0  0  0  0  0  0  0  0  0
  150.0657  139.5363  154.5857 C   0  0  0  0  0  0  0  0  0  0  0  0
  148.8834  139.7747  153.9007 N   0  0  0  0  0  0  0  0  0  0  0  0
  150.1535  139.7477  155.9139 N   0  0  0  0  0  0  0  0  0  0  0  0
  149.1210  140.2270  156.8246 C   0  0  0  0  0  0  0  0  0  0  0  0
  149.0788  141.7637  156.8662 C   0  0  0  0  0  0  0  0  0  0  0  0
  150.3628  142.3210  157.2720 N   0  0  0  0  0  0  0  0  0  0  0  0
  150.5705  143.0248  158.3958 C   0  0  0  0  0  0  0  0  0  0  0  0
  149.6757  143.2743  159.2047 O   0  0  0  0  0  0  0  0  0  0  0  0
  152.0095  143.5117  158.6410 C   0  0  0  0  0  0  0  0  0  0  0  0
  152.6208  142.9054  159.9136 C   0  0  0  0  0  0  0  0  0  0  0  0
  152.2830  143.8666  161.0625 C   0  0  0  0  0  0  0  0  0  0  0  0
  151.8908  145.2029  160.4159 C   0  0  0  0  0  0  0  0  0  0  0  0
  152.0779  145.0232  158.9045 C   0  0  0  0  0  0  0  0  0  0  0  0
  151.4609  139.3866  156.2279 C   0  0  0  0  0  0  0  0  0  0  0  0
  152.0164  139.4269  157.5246 C   0  0  0  0  0  0  0  0  0  0  0  0
  152.4707  139.4610  158.5877 N   0  0  0  0  0  0  0  0  0  0  0  0
  148.8117  139.6135  152.9063 H   0  0  0  0  0  0  0  0  0  0  0  0
  148.0610  140.1265  154.3692 H   0  0  0  0  0  0  0  0  0  0  0  0
  148.1602  139.8224  156.5045 H   0  0  0  0  0  0  0  0  0  0  0  0
  149.2996  139.8220  157.8211 H   0  0  0  0  0  0  0  0  0  0  0  0
  148.8292  142.1566  155.8803 H   0  0  0  0  0  0  0  0  0  0  0  0
  148.2954  142.1087  157.5438 H   0  0  0  0  0  0  0  0  0  0  0  0
  151.1485  142.1597  156.6585 H   0  0  0  0  0  0  0  0  0  0  0  0
  152.6178  143.2538  157.7724 H   0  0  0  0  0  0  0  0  0  0  0  0
  152.2686  141.8925  160.1159 H   0  0  0  0  0  0  0  0  0  0  0  0
  153.7037  142.8461  159.7965 H   0  0  0  0  0  0  0  0  0  0  0  0
  151.4483  143.4799  161.6490 H   0  0  0  0  0  0  0  0  0  0  0  0
  153.1299  143.9801  161.7401 H   0  0  0  0  0  0  0  0  0  0  0  0
  150.8467  145.4258  160.6392 H   0  0  0  0  0  0  0  0  0  0  0  0
  152.4873  146.0325  160.7969 H   0  0  0  0  0  0  0  0  0  0  0  0
  153.0624  145.3925  158.6141 H   0  0  0  0  0  0  0  0  0  0  0  0
  151.3429  145.5917  158.3326 H   0  0  0  0  0  0  0  0  0  0  0  0
  1  2  3  0  0  0  0
  2  3  1  0  0  0  0
  3 18  2  0  0  0  0
  3  4  1  0  0  0  0
  4  5  2  0  0  0  0
  5  6  1  0  0  0  0
  5  7  1  0  0  0  0
  6 21  1  0  0  0  0
  6 22  1  0  0  0  0
  7  8  1  0  0  0  0
  7 18  1  0  0  0  0
  8  9  1  0  0  0  0
  8 23  1  0  0  0  0
  8 24  1  0  0  0  0
  9 10  1  0  0  0  0
  9 25  1  0  0  0  0
  9 26  1  0  0  0  0
 10 11  1  0  0  0  0
 10 27  1  0  0  0  0
 11 12  2  0  0  0  0
 11 13  1  0  0  0  0
 13 17  1  0  0  0  0
 13 14  1  0  0  0  0
 13 28  1  0  0  0  0
 14 15  1  0  0  0  0
 14 29  1  0  0  0  0
 14 30  1  0  0  0  0
 15 16  1  0  0  0  0
 15 31  1  0  0  0  0
 15 32  1  0  0  0  0
 16 17  1  0  0  0  0
 16 33  1  0  0  0  0
 16 34  1  0  0  0  0
 17 35  1  0  0  0  0
 17 36  1  0  0  0  0
 18 19  1  0  0  0  0
 19 20  3  0  0  0  0
M  END
> <s_m_source_file>
AV-unprocessed.smi

> <i_m_source_file_index>
2515

> <i_lp_mmshare_version>
43012

> <i_f3d_flags>
0

> <s_epik_input>
TiNDYzFuYyhbTkgyXSluKGMxQyNOKVtDSDJdW0NIMl1bTkhdQyg9TylbQ0hdMltDSDJdW0NIMl1bQ0gyXVtDSDJdMg==

> <s_epik_cmdline>
J2VwaWtfcHl0aG9uJywgJy1waCcsICc3LjAnLCAnLXRuJywgJzgnLCAnLW1hJywgJzIwMCcsICctbWV0YWxfYmluZGluZycsICctaW1hZScsICc8aW5maWxlLm1hZT4nLCAnLW9tYWUnLCAnPG91dGZpbGUubWFlPic=

> <r_lp_tautomer_probability>
1

> <r_epik_Ionization_Penalty>
0.000275801

> <r_epik_Ionization_Penalty_Charging>
2.18328e-09

> <r_epik_Ionization_Penalty_Neutral>
0.000275798

> <r_epik_State_Penalty>
-0

> <r_epik_Charging_Adjusted_Penalty>
2.18328e-09

> <i_epik_Tot_Q>
0

> <i_epik_Tot_abs_Q>
0

> <r_epik_Metal_State_Penalty>
-0

> <b_epik_Metal_Only>
0

> <s_lp_Force_Field>
OPLS_2005

> <r_lp_Energy>
23.1048

> <b_lp_Chiralities_Consistent>
1

> <s_lp_Variant>
AV-unprocessed.smi:2515-1

> <Gold.Version>
5.8.1

> <Gold.Id.Protein>
6NUR|6NUR_protein|mol2

> <Gold.PLP.Fitness>
44.8167

> <Gold.PLP.PLP>
-41.4607

> <Gold.PLP.part.hbond>
-5.0958

> <Gold.PLP.part.metal>
0.0000

> <Gold.PLP.part.buried>
-2.7168

> <Gold.PLP.part.nonpolar>
-34.6854

> <Gold.PLP.part.repulsive>
0.4559

> <Gold.PLP.ligand.clash>
0.0000

> <Gold.PLP.ligand.torsion>
0.4189

> <Gold.PLP.Chemscore.Hbond>
1.3900

> <Gold.PLP.Chemscore.CHOScore>
0.0000

> <Gold.PLP.Chemscore.Metal>
0.0000

> <Gold.Chemscore.Hbonds>
donor molecule, donor type, donor heavy atom, donor atom, acceptor molecule, acceptor atom, score
      L1  H     6    21       P1  7957  0.90
      P1  H  7989  7998       L1     4  0.47

> <Gold.PLP.Chemscore.Internal.Correction>
0.0238

> <Gold.Rescore>
     Score         DG    S(hbond)    S(metal)    S(lipo)     H(rot)  DE(clash)    DE(int)     intcor
     11.07     -12.82       0.98        0.00      83.41       2.23       1.39       0.35       ----

> <Gold.Chemscore.Fitness>
11.0734

> <Gold.Chemscore.DG>
-12.8156

> <Gold.Chemscore.ZeroCoef>
-5.4800

> <Gold.Chemscore.Hbond>
0.9813

> <Gold.Chemscore.Metal>
0.0000

> <Gold.Chemscore.Lipo>
83.4063

> <Gold.Chemscore.Internal_Hbond>
0.0000

> <Gold.Chemscore.DEClash>
1.3876

> <Gold.Chemscore.DEInternal>
0.3546

> <Gold.Chemscore.Rot>
2.2267

> <Gold.Chemscore.Internal.Correction>
   9.000000E+99

> <Gold.Chemscore.Hbonds>
donor molecule, donor type, donor heavy atom, donor atom, acceptor molecule, acceptor atom, score
      L1  H     6    21       P1  7957  0.87

> <Gold.Chemscore.Hbond.Weighted>
-3.2775

> <Gold.Chemscore.Metal.Weighted>
-0.0000

> <Gold.Chemscore.Lipo.Weighted>
-9.7585

> <Gold.Chemscore.Internal_Hbond.Weighted>
0.0000

> <Gold.Chemscore.DEClash.Weighted>
1.3876

> <Gold.Chemscore.DEInternal.Weighted>
0.3546

> <Gold.Chemscore.Rot.Weighted>
5.7004

> <Gold.Chemscore.Internal.Correction.Weighted>
   9.000000E+99

> <Gold.Protein.RotatedTorsions>
[ 6907 6896 6895 6894 ] final  -71.77 input  -60.11 | X-H torsion
[ 7974 7965 7964 7962 ] final   14.76 input  175.53 | X-H torsion
[ 8008 7997 7996 7995 ] final  132.15 input   59.86 | X-H torsion
[ 10167 10162 10161 10158 ] final -173.94 input  -65.29 | X-H torsion
[ 10718 10713 10712 10709 ] final  141.44 input   66.30 | X-H torsion
[ 10763 10752 10751 10750 ] final   21.13 input  -60.55 | X-H torsion
[ 11005 11000 10999 10996 ] final -103.72 input  -57.11 | X-H torsion

> <Gold.Protein.ActiveResidues>
 VAL166  LYS551  ARG553  GLY616  TRP617  ASP618  TYR619  PRO620  LYS621  CYS622 
 ASP623  PHE694  ASN695  SER759  ASP760  ASP761  ALA762  ILE779  LEU786  VAL792 
 PHE793  MET794  SER795  GLU796  ALA797  LYS798  CYS799  TRP800  GLU811  SER814 

> <Gold.Protein.RotatedAtoms>
  150.7198  134.5261  159.5676 H   0  0  0  0  0  0  0  0  0  0  0  0  # atno 6907 bound_to 6896
  152.2805  134.7831  160.0406 H   0  0  0  0  0  0  0  0  0  0  0  0  # atno 6908 bound_to 6896
  151.8479  133.3399  159.3700 H   0  0  0  0  0  0  0  0  0  0  0  0  # atno 6909 bound_to 6896
  146.2296  139.8994  142.8542 H   0  0  0  0  0  0  0  0  0  0  0  0  # atno 7974 bound_to 7965
  156.2979  140.2553  156.3041 H   0  0  0  0  0  0  0  0  0  0  0  0  # atno 8008 bound_to 7997
  154.9389  140.0396  157.2105 H   0  0  0  0  0  0  0  0  0  0  0  0  # atno 8009 bound_to 7997
  154.8146  140.2850  155.5834 H   0  0  0  0  0  0  0  0  0  0  0  0  # atno 8010 bound_to 7997
  139.5661  144.1753  152.1314 H   0  0  0  0  0  0  0  0  0  0  0  0  # atno 10167 bound_to 10162
  157.3920  131.1006  151.0637 H   0  0  0  0  0  0  0  0  0  0  0  0  # atno 10718 bound_to 10713
  153.1020  135.6675  153.9655 H   0  0  0  0  0  0  0  0  0  0  0  0  # atno 10763 bound_to 10752
  153.9223  135.3013  155.3449 H   0  0  0  0  0  0  0  0  0  0  0  0  # atno 10764 bound_to 10752
  154.7441  135.5066  153.9249 H   0  0  0  0  0  0  0  0  0  0  0  0  # atno 10765 bound_to 10752
  141.1133  133.8664  157.1521 H   0  0  0  0  0  0  0  0  0  0  0  0  # atno 11005 bound_to 11000
  145.2339  140.9983  143.3975 LP  0  0  0  0  0  0  0  0  0  0  0  0  # atno 17320 bound_to 7965
  144.9508  139.4085  143.6403 LP  0  0  0  0  0  0  0  0  0  0  0  0  # atno 17321 bound_to 7965
  140.1276  144.5317  150.6823 LP  0  0  0  0  0  0  0  0  0  0  0  0  # atno 17342 bound_to 10162
  140.6944  143.2395  151.5041 LP  0  0  0  0  0  0  0  0  0  0  0  0  # atno 17343 bound_to 10162
  157.1667  130.6249  149.5628 LP  0  0  0  0  0  0  0  0  0  0  0  0  # atno 17370 bound_to 10713
  155.9801  130.4799  150.6751 LP  0  0  0  0  0  0  0  0  0  0  0  0  # atno 17371 bound_to 10713
  140.0039  135.0016  157.0251 LP  0  0  0  0  0  0  0  0  0  0  0  0  # atno 17394 bound_to 11000
  140.4716  134.1381  155.7204 LP  0  0  0  0  0  0  0  0  0  0  0  0  # atno 17395 bound_to 11000

$$$$
