AV-unprocessed.smi:743|AV-procd|sdf|3566|dock6
  -GOLD-   22720 0563D 1   1.00000     0.00000
 Structure written by MMmdl.
 28 29  0  0  0  0  0  0  0  0  1 V2000
  152.1555  141.9491  158.4917 C   0  0  0  0  0  0  0  0  0  0  0  0
  151.5913  141.3884  157.2827 N   0  0  0  0  0  0  0  0  0  0  0  0
  150.4928  141.8160  156.5690 C   0  0  0  0  0  0  0  0  0  0  0  0
  150.3456  140.9821  155.4955 C   0  0  0  0  0  0  0  0  0  0  0  0
  149.2993  141.0298  154.4066 C   0  0  2  0  0  0  0  0  0  0  0  0
  148.2932  142.0549  154.7014 N   0  0  0  0  0  0  0  0  0  0  0  0
  146.9690  141.9837  154.4758 C   0  0  0  0  0  0  0  0  0  0  0  0
  146.2254  142.9315  154.7182 O   0  0  0  0  0  0  0  0  0  0  0  0
  146.3724  140.6769  153.9341 C   0  0  0  0  0  0  0  0  0  0  0  0
  147.4176  139.7539  153.2908 C   0  0  0  0  0  0  0  0  0  0  0  0
  148.6576  139.6392  154.1847 C   0  0  1  0  0  0  0  0  0  0  0  0
  149.6058  138.7158  153.5875 N   0  0  0  0  0  0  0  0  0  0  0  0
  151.4264  140.0643  155.6482 C   0  0  0  0  0  0  0  0  0  0  0  0
  152.1674  140.3092  156.7160 N   0  0  0  0  0  0  0  0  0  0  0  0
  148.3516  139.2263  155.1473 H   0  0  0  0  0  0  0  0  0  0  0  0
  151.4110  142.5619  159.0006 H   0  0  0  0  0  0  0  0  0  0  0  0
  153.0155  142.5697  158.2396 H   0  0  0  0  0  0  0  0  0  0  0  0
  152.4736  141.1509  159.1636 H   0  0  0  0  0  0  0  0  0  0  0  0
  149.9125  142.6730  156.8781 H   0  0  0  0  0  0  0  0  0  0  0  0
  149.7609  141.3456  153.4695 H   0  0  0  0  0  0  0  0  0  0  0  0
  148.6449  142.9218  155.0815 H   0  0  0  0  0  0  0  0  0  0  0  0
  145.8959  140.1616  154.7688 H   0  0  0  0  0  0  0  0  0  0  0  0
  145.5833  140.9059  153.2168 H   0  0  0  0  0  0  0  0  0  0  0  0
  146.9778  138.7699  153.1234 H   0  0  0  0  0  0  0  0  0  0  0  0
  147.6954  140.1413  152.3092 H   0  0  0  0  0  0  0  0  0  0  0  0
  149.1307  137.8619  153.3324 H   0  0  0  0  0  0  0  0  0  0  0  0
  149.9667  139.1091  152.7301 H   0  0  0  0  0  0  0  0  0  0  0  0
  151.6940  139.2316  155.0144 H   0  0  0  0  0  0  0  0  0  0  0  0
  1  2  1  0  0  0  0
  1 16  1  0  0  0  0
  1 17  1  0  0  0  0
  1 18  1  0  0  0  0
  2 14  1  0  0  0  0
  2  3  1  0  0  0  0
  3  4  2  0  0  0  0
  3 19  1  0  0  0  0
  4  5  1  0  0  0  0
  4 13  1  0  0  0  0
  5 11  1  0  0  0  0
  5  6  1  0  0  0  0
  5 20  1  0  0  0  0
  6  7  1  0  0  0  0
  6 21  1  0  0  0  0
  7  8  2  0  0  0  0
  7  9  1  0  0  0  0
  9 10  1  0  0  0  0
  9 22  1  0  0  0  0
  9 23  1  0  0  0  0
 10 11  1  0  0  0  0
 10 24  1  0  0  0  0
 10 25  1  0  0  0  0
 11 15  1  0  0  0  0
 11 12  1  0  0  0  0
 12 26  1  0  0  0  0
 12 27  1  0  0  0  0
 13 14  2  0  0  0  0
 13 28  1  0  0  0  0
M  END
> <s_m_source_file>
AV-unprocessed.smi

> <i_m_source_file_index>
743

> <i_lp_mmshare_version>
43012

> <i_f3d_flags>
0

> <s_epik_input>
W0NIM11uMVtjSF1jKFtjSF1uMSlbQ0BASF0yW05IXUMoPU8pW0NIMl1bQ0gyXVtDQEBIXTJbTkgyXQ==

> <s_epik_cmdline>
J2VwaWtfcHl0aG9uJywgJy1waCcsICc3LjAnLCAnLXRuJywgJzgnLCAnLW1hJywgJzIwMCcsICctbWV0YWxfYmluZGluZycsICctaW1hZScsICc8aW5maWxlLm1hZT4nLCAnLW9tYWUnLCAnPG91dGZpbGUubWFlPic=

> <r_lp_tautomer_probability>
1

> <r_epik_Ionization_Penalty>
2.50279

> <r_epik_Ionization_Penalty_Charging>
0

> <r_epik_Ionization_Penalty_Neutral>
2.50279

> <r_epik_State_Penalty>
2.66754

> <r_epik_Charging_Adjusted_Penalty>
2.66754

> <i_epik_Tot_Q>
0

> <i_epik_Tot_abs_Q>
0

> <r_epik_Metal_State_Penalty>
2.66721

> <b_epik_Metal_Only>
0

> <s_lp_Force_Field>
OPLS_2005

> <r_lp_Energy>
8.43832

> <b_lp_Chiralities_Consistent>
1

> <s_lp_Variant>
AV-unprocessed.smi:743-7

> <Gold.Version>
5.8.1

> <Gold.Id.Protein>
6NUR|6NUR_protein|mol2

> <Gold.PLP.Fitness>
37.4822

> <Gold.PLP.PLP>
-25.4633

> <Gold.PLP.part.hbond>
-3.6890

> <Gold.PLP.part.metal>
0.0000

> <Gold.PLP.part.buried>
1.9081

> <Gold.PLP.part.nonpolar>
-22.0781

> <Gold.PLP.part.repulsive>
0.3889

> <Gold.PLP.ligand.clash>
0.0000

> <Gold.PLP.ligand.torsion>
0.1397

> <Gold.PLP.Chemscore.Hbond>
3.2202

> <Gold.PLP.Chemscore.CHOScore>
0.8706

> <Gold.PLP.Chemscore.Metal>
0.0000

> <Gold.Chemscore.Hbonds>
donor molecule, donor type, donor heavy atom, donor atom, acceptor molecule, acceptor atom, score
      L1  H     6    21       P1  8028  1.00
      L1  H    12    26       P1  7948  0.57
      L1  H    12    27       P1  7957  0.96
      P1  H  7997  8009       L1    14  0.60
      L1  C     3    19       P1  8028  0.85

> <Gold.PLP.Chemscore.Internal.Correction>
0.0258

> <Gold.Rescore>
     Score         DG    S(hbond)    S(metal)    S(lipo)     H(rot)  DE(clash)    DE(int)     intcor
     19.42     -20.26       3.19        0.00      57.24       1.00       0.19       0.65       ----

> <Gold.Chemscore.Fitness>
19.4237

> <Gold.Chemscore.DG>
-20.2627

> <Gold.Chemscore.ZeroCoef>
-5.4800

> <Gold.Chemscore.Hbond>
3.1871

> <Gold.Chemscore.Metal>
0.0000

> <Gold.Chemscore.Lipo>
57.2448

> <Gold.Chemscore.Internal_Hbond>
0.0000

> <Gold.Chemscore.DEClash>
0.1919

> <Gold.Chemscore.DEInternal>
0.6470

> <Gold.Chemscore.Rot>
1.0000

> <Gold.Chemscore.Internal.Correction>
   9.000000E+99

> <Gold.Chemscore.Hbonds>
donor molecule, donor type, donor heavy atom, donor atom, acceptor molecule, acceptor atom, score
      L1  H     6    21       P1  8028  1.00
      L1  H    12    26       P1  7948  0.55
      L1  H    12    27       P1  7957  0.79
      P1  H  7997  8009       L1    14  0.54

> <Gold.Chemscore.Hbond.Weighted>
-10.6450

> <Gold.Chemscore.Metal.Weighted>
-0.0000

> <Gold.Chemscore.Lipo.Weighted>
-6.6976

> <Gold.Chemscore.Internal_Hbond.Weighted>
0.0000

> <Gold.Chemscore.DEClash.Weighted>
0.1919

> <Gold.Chemscore.DEInternal.Weighted>
0.6470

> <Gold.Chemscore.Rot.Weighted>
2.5600

> <Gold.Chemscore.Internal.Correction.Weighted>
   9.000000E+99

> <Gold.Protein.RotatedTorsions>
[ 6907 6896 6895 6894 ] final  174.80 input  -60.11 | X-H torsion
[ 7974 7965 7964 7962 ] final    8.46 input  175.53 | X-H torsion
[ 8008 7997 7996 7995 ] final -169.97 input   59.86 | X-H torsion
[ 10167 10162 10161 10158 ] final  -93.78 input  -65.29 | X-H torsion
[ 10718 10713 10712 10709 ] final -162.51 input   66.30 | X-H torsion
[ 10763 10752 10751 10750 ] final   93.10 input  -60.55 | X-H torsion
[ 11005 11000 10999 10996 ] final -124.27 input  -57.11 | X-H torsion

> <Gold.Protein.ActiveResidues>
 VAL166  LYS551  ARG553  GLY616  TRP617  ASP618  TYR619  PRO620  LYS621  CYS622 
 ASP623  PHE694  ASN695  SER759  ASP760  ASP761  ALA762  ILE779  LEU786  VAL792 
 PHE793  MET794  SER795  GLU796  ALA797  LYS798  CYS799  TRP800  GLU811  SER814 

> <Gold.Protein.RotatedAtoms>
  151.7465  133.3325  159.3379 H   0  0  0  0  0  0  0  0  0  0  0  0  # atno 6907 bound_to 6896
  150.7552  134.6231  159.6156 H   0  0  0  0  0  0  0  0  0  0  0  0  # atno 6908 bound_to 6896
  152.3496  134.7025  160.0291 H   0  0  0  0  0  0  0  0  0  0  0  0  # atno 6909 bound_to 6896
  146.2416  139.9930  142.8424 H   0  0  0  0  0  0  0  0  0  0  0  0  # atno 7974 bound_to 7965
  155.9121  140.1059  157.1272 H   0  0  0  0  0  0  0  0  0  0  0  0  # atno 8008 bound_to 7997
  154.4041  140.1272  156.4635 H   0  0  0  0  0  0  0  0  0  0  0  0  # atno 8009 bound_to 7997
  155.7298  140.3468  155.5056 H   0  0  0  0  0  0  0  0  0  0  0  0  # atno 8010 bound_to 7997
  140.3211  143.3048  152.0045 H   0  0  0  0  0  0  0  0  0  0  0  0  # atno 10167 bound_to 10162
  156.6115  130.8852  151.2937 H   0  0  0  0  0  0  0  0  0  0  0  0  # atno 10718 bound_to 10713
  153.2265  135.4337  155.0548 H   0  0  0  0  0  0  0  0  0  0  0  0  # atno 10763 bound_to 10752
  154.8276  135.3369  154.6850 H   0  0  0  0  0  0  0  0  0  0  0  0  # atno 10764 bound_to 10752
  153.7279  135.7013  153.5052 H   0  0  0  0  0  0  0  0  0  0  0  0  # atno 10765 bound_to 10752
  140.9854  134.0614  157.3717 H   0  0  0  0  0  0  0  0  0  0  0  0  # atno 11005 bound_to 11000
  145.1485  140.9610  143.4446 LP  0  0  0  0  0  0  0  0  0  0  0  0  # atno 17320 bound_to 7965
  145.0227  139.3409  143.6064 LP  0  0  0  0  0  0  0  0  0  0  0  0  # atno 17321 bound_to 7965
  139.4874  144.6310  151.7070 LP  0  0  0  0  0  0  0  0  0  0  0  0  # atno 17342 bound_to 10162
  140.5482  144.0468  150.6116 LP  0  0  0  0  0  0  0  0  0  0  0  0  # atno 17343 bound_to 10162
  157.7253  130.9614  150.1608 LP  0  0  0  0  0  0  0  0  0  0  0  0  # atno 17370 bound_to 10713
  156.2386  130.3689  149.8363 LP  0  0  0  0  0  0  0  0  0  0  0  0  # atno 17371 bound_to 10713
  139.8968  135.0147  156.7070 LP  0  0  0  0  0  0  0  0  0  0  0  0  # atno 17394 bound_to 11000
  140.7122  133.9213  155.8092 LP  0  0  0  0  0  0  0  0  0  0  0  0  # atno 17395 bound_to 11000

$$$$
