AV-unprocessed.smi:1473|AV-procd|sdf|5967|dock4
  -GOLD-   22720 6 53D 1   1.00000     0.00000
 Structure written by MMmdl.
 33 34  0  0  0  0  0  0  0  0  2 V2000
  152.0984  136.7520  156.2345 N   0  0  0  0  0  0  0  0  0  0  0  0
  152.5382  138.3550  155.8019 S   0  0  0  0  0  0  0  0  0  0  0  0
  153.2142  138.2490  154.4990 O   0  0  0  0  0  0  0  0  0  0  0  0
  151.3026  139.1498  155.8901 O   0  0  0  0  0  0  0  0  0  0  0  0
  153.5529  138.5942  157.0425 N   0  5  0  0  0  0  0  0  0  0  0  0
  153.0940  138.3529  158.4014 C   0  0  0  0  0  0  0  0  0  0  0  0
  153.3933  139.5188  159.3365 C   0  0  0  0  0  0  0  0  0  0  0  0
  154.1628  139.3275  160.5040 C   0  0  0  0  0  0  0  0  0  0  0  0
  154.4201  140.4412  161.3225 C   0  0  0  0  0  0  0  0  0  0  0  0
  153.9690  141.6826  161.0494 N   0  0  0  0  0  0  0  0  0  0  0  0
  153.2312  141.8863  159.9309 C   0  0  0  0  0  0  0  0  0  0  0  0
  152.7903  143.2099  159.6973 N   0  0  0  0  0  0  0  0  0  0  0  0
  151.9976  143.8758  160.7280 C   0  0  0  0  0  0  0  0  0  0  0  0
  151.8902  145.3830  160.4416 C   0  0  0  0  0  0  0  0  0  0  0  0
  151.3811  145.5906  159.1291 O   0  0  0  0  0  0  0  0  0  0  0  0
  152.2465  145.0458  158.1395 C   0  0  0  0  0  0  0  0  0  0  0  0
  152.3686  143.5247  158.3321 C   0  0  0  0  0  0  0  0  0  0  0  0
  152.9165  140.8193  159.0505 C   0  0  0  0  0  0  0  0  0  0  0  0
  151.1556  136.5138  155.9286 H   0  0  0  0  0  0  0  0  0  0  0  0
  152.2758  136.5550  157.2186 H   0  0  0  0  0  0  0  0  0  0  0  0
  152.0240  138.1429  158.4352 H   0  0  0  0  0  0  0  0  0  0  0  0
  153.5689  137.4657  158.8215 H   0  0  0  0  0  0  0  0  0  0  0  0
  154.5591  138.3584  160.7751 H   0  0  0  0  0  0  0  0  0  0  0  0
  155.0064  140.3327  162.2230 H   0  0  0  0  0  0  0  0  0  0  0  0
  151.0037  143.4279  160.7629 H   0  0  0  0  0  0  0  0  0  0  0  0
  152.4569  143.7398  161.7075 H   0  0  0  0  0  0  0  0  0  0  0  0
  151.2199  145.8535  161.1612 H   0  0  0  0  0  0  0  0  0  0  0  0
  152.8615  145.8688  160.5473 H   0  0  0  0  0  0  0  0  0  0  0  0
  151.8398  145.2666  157.1526 H   0  0  0  0  0  0  0  0  0  0  0  0
  153.2263  145.5237  158.1931 H   0  0  0  0  0  0  0  0  0  0  0  0
  153.0693  143.1370  157.5929 H   0  0  0  0  0  0  0  0  0  0  0  0
  151.4074  143.0453  158.1428 H   0  0  0  0  0  0  0  0  0  0  0  0
  152.3395  140.9887  158.1525 H   0  0  0  0  0  0  0  0  0  0  0  0
  1  2  1  0  0  0  0
  1 19  1  0  0  0  0
  1 20  1  0  0  0  0
  2  3  2  0  0  0  0
  2  4  2  0  0  0  0
  2  5  1  0  0  0  0
  5  6  1  0  0  0  0
  6  7  1  0  0  0  0
  6 21  1  0  0  0  0
  6 22  1  0  0  0  0
  7 18  1  0  0  0  0
  7  8  2  0  0  0  0
  8  9  1  0  0  0  0
  8 23  1  0  0  0  0
  9 10  2  0  0  0  0
  9 24  1  0  0  0  0
 10 11  1  0  0  0  0
 11 12  1  0  0  0  0
 11 18  2  0  0  0  0
 12 17  1  0  0  0  0
 12 13  1  0  0  0  0
 13 14  1  0  0  0  0
 13 25  1  0  0  0  0
 13 26  1  0  0  0  0
 14 15  1  0  0  0  0
 14 27  1  0  0  0  0
 14 28  1  0  0  0  0
 15 16  1  0  0  0  0
 16 17  1  0  0  0  0
 16 29  1  0  0  0  0
 16 30  1  0  0  0  0
 17 31  1  0  0  0  0
 17 32  1  0  0  0  0
 18 33  1  0  0  0  0
M  CHG  1   5  -1
M  END
> <s_m_source_file>
AV-unprocessed.smi

> <i_m_source_file_index>
1473

> <i_lp_mmshare_version>
43012

> <i_f3d_flags>
0

> <s_epik_input>
W05IMl1TKD1PKSg9TylbTkhdW0NIMl1jMVtjSF1bY0hdbmMoW2NIXTEpTjJbQ0gyXVtDSDJdT1tDSDJdW0NIMl0y

> <s_epik_cmdline>
J2VwaWtfcHl0aG9uJywgJy1waCcsICc3LjAnLCAnLXRuJywgJzgnLCAnLW1hJywgJzIwMCcsICctbWV0YWxfYmluZGluZycsICctaW1hZScsICc8aW5maWxlLm1hZT4nLCAnLW9tYWUnLCAnPG91dGZpbGUubWFlPic=

> <r_lp_tautomer_probability>
1

> <r_epik_Ionization_Penalty>
1.02326

> <r_epik_Ionization_Penalty_Charging>
0.789613

> <r_epik_Ionization_Penalty_Neutral>
0.233646

> <r_epik_State_Penalty>
0.93706

> <r_epik_Charging_Adjusted_Penalty>
1.72667

> <i_epik_Tot_Q>
-1

> <i_epik_Tot_abs_Q>
1

> <r_epik_Metal_State_Penalty>
0.736197

> <b_epik_Metal_Only>
0

> <s_lp_Force_Field>
OPLS_2005

> <r_lp_Energy>
11.8177

> <b_lp_Chiralities_Consistent>
1

> <s_lp_Variant>
AV-unprocessed.smi:1473-2

> <Gold.Version>
5.8.1

> <Gold.Id.Protein>
6NUR|6NUR_protein|mol2

> <Gold.PLP.Fitness>
44.9886

> <Gold.PLP.PLP>
-36.5651

> <Gold.PLP.part.hbond>
-3.8447

> <Gold.PLP.part.metal>
0.0000

> <Gold.PLP.part.buried>
-7.5305

> <Gold.PLP.part.nonpolar>
-25.6047

> <Gold.PLP.part.repulsive>
0.1794

> <Gold.PLP.ligand.clash>
0.0000

> <Gold.PLP.ligand.torsion>
0.8566

> <Gold.PLP.Chemscore.Hbond>
2.9200

> <Gold.PLP.Chemscore.CHOScore>
0.0000

> <Gold.PLP.Chemscore.Metal>
0.0000

> <Gold.Chemscore.Hbonds>
donor molecule, donor type, donor heavy atom, donor atom, acceptor molecule, acceptor atom, score
      P1  H  7997  8010       L1     5  1.95
      P1  H 10752 10765       L1     1  0.98

> <Gold.PLP.Chemscore.Internal.Correction>
1.3768

> <Gold.Rescore>
     Score         DG    S(hbond)    S(metal)    S(lipo)     H(rot)  DE(clash)    DE(int)     intcor
     12.72     -13.90       1.01        0.00      84.34       1.88       0.22       0.97       ----

> <Gold.Chemscore.Fitness>
12.7198

> <Gold.Chemscore.DG>
-13.9033

> <Gold.Chemscore.ZeroCoef>
-5.4800

> <Gold.Chemscore.Hbond>
1.0097

> <Gold.Chemscore.Metal>
0.0000

> <Gold.Chemscore.Lipo>
84.3370

> <Gold.Chemscore.Internal_Hbond>
0.0000

> <Gold.Chemscore.DEClash>
0.2159

> <Gold.Chemscore.DEInternal>
0.9677

> <Gold.Chemscore.Rot>
1.8814

> <Gold.Chemscore.Internal.Correction>
   9.000000E+99

> <Gold.Chemscore.Hbonds>
donor molecule, donor type, donor heavy atom, donor atom, acceptor molecule, acceptor atom, score
      P1  H  7997  8010       L1     5  0.58
      P1  H 10752 10765       L1     1  0.14

> <Gold.Chemscore.Hbond.Weighted>
-3.3723

> <Gold.Chemscore.Metal.Weighted>
-0.0000

> <Gold.Chemscore.Lipo.Weighted>
-9.8674

> <Gold.Chemscore.Internal_Hbond.Weighted>
0.0000

> <Gold.Chemscore.DEClash.Weighted>
0.2159

> <Gold.Chemscore.DEInternal.Weighted>
0.9677

> <Gold.Chemscore.Rot.Weighted>
4.8165

> <Gold.Chemscore.Internal.Correction.Weighted>
   9.000000E+99

> <Gold.Protein.RotatedTorsions>
[ 6907 6896 6895 6894 ] final   96.19 input  -60.11 | X-H torsion
[ 7974 7965 7964 7962 ] final  -10.43 input  175.53 | X-H torsion
[ 8008 7997 7996 7995 ] final   53.16 input   59.86 | X-H torsion
[ 10167 10162 10161 10158 ] final    2.33 input  -65.29 | X-H torsion
[ 10718 10713 10712 10709 ] final  -85.48 input   66.30 | X-H torsion
[ 10763 10752 10751 10750 ] final -141.44 input  -60.55 | X-H torsion
[ 11005 11000 10999 10996 ] final  -45.85 input  -57.11 | X-H torsion

> <Gold.Protein.ActiveResidues>
 VAL166  LYS551  ARG553  GLY616  TRP617  ASP618  TYR619  PRO620  LYS621  CYS622 
 ASP623  PHE694  ASN695  SER759  ASP760  ASP761  ALA762  ILE779  LEU786  VAL792 
 PHE793  MET794  SER795  GLU796  ALA797  LYS798  CYS799  TRP800  GLU811  SER814 

> <Gold.Protein.RotatedAtoms>
  152.5437  134.0924  159.8282 H   0  0  0  0  0  0  0  0  0  0  0  0  # atno 6907 bound_to 6896
  151.1012  133.5235  159.2617 H   0  0  0  0  0  0  0  0  0  0  0  0  # atno 6908 bound_to 6896
  151.1989  135.0443  159.8918 H   0  0  0  0  0  0  0  0  0  0  0  0  # atno 6909 bound_to 6896
  146.2221  140.2762  142.8359 H   0  0  0  0  0  0  0  0  0  0  0  0  # atno 7974 bound_to 7965
  155.4637  140.3462  155.4316 H   0  0  0  0  0  0  0  0  0  0  0  0  # atno 8008 bound_to 7997
  156.1144  140.1470  156.9322 H   0  0  0  0  0  0  0  0  0  0  0  0  # atno 8009 bound_to 7997
  154.4779  140.0879  156.7285 H   0  0  0  0  0  0  0  0  0  0  0  0  # atno 8010 bound_to 7997
  140.6640  143.7228  150.7792 H   0  0  0  0  0  0  0  0  0  0  0  0  # atno 10167 bound_to 10162
  155.9996  130.4732  150.4569 H   0  0  0  0  0  0  0  0  0  0  0  0  # atno 10718 bound_to 10713
  154.8545  135.3524  154.5868 H   0  0  0  0  0  0  0  0  0  0  0  0  # atno 10763 bound_to 10752
  153.6478  135.6995  153.5224 H   0  0  0  0  0  0  0  0  0  0  0  0  # atno 10764 bound_to 10752
  153.2918  135.4232  155.1132 H   0  0  0  0  0  0  0  0  0  0  0  0  # atno 10765 bound_to 10752
  141.0542  133.6732  156.3072 H   0  0  0  0  0  0  0  0  0  0  0  0  # atno 11005 bound_to 11000
  144.9231  140.7890  143.5736 LP  0  0  0  0  0  0  0  0  0  0  0  0  # atno 17320 bound_to 7965
  145.2700  139.1958  143.4846 LP  0  0  0  0  0  0  0  0  0  0  0  0  # atno 17321 bound_to 7965
  140.0902  143.4885  152.2483 LP  0  0  0  0  0  0  0  0  0  0  0  0  # atno 17342 bound_to 10162
  139.5883  144.7540  151.3464 LP  0  0  0  0  0  0  0  0  0  0  0  0  # atno 17343 bound_to 10162
  157.2597  131.0564  151.2328 LP  0  0  0  0  0  0  0  0  0  0  0  0  # atno 17370 bound_to 10713
  157.3447  130.7051  149.6403 LP  0  0  0  0  0  0  0  0  0  0  0  0  # atno 17371 bound_to 10713
  140.5997  134.5567  157.5515 LP  0  0  0  0  0  0  0  0  0  0  0  0  # atno 17394 bound_to 11000
  139.9376  134.7847  156.0763 LP  0  0  0  0  0  0  0  0  0  0  0  0  # atno 17395 bound_to 11000

$$$$
