AV-unprocessed.smi:1240|AV-procd|sdf|5208|dock9
  -GOLD-   22720 4303D 1   1.00000     0.00000
 Structure written by MMmdl.
 49 51  0  0  0  0  0  0  0  0  3 V2000
  146.8054  132.4335  153.8872 O   0  0  0  0  0  0  0  0  0  0  0  0
  147.3984  132.0027  152.8985 C   0  0  0  0  0  0  0  0  0  0  0  0
  148.5909  131.3937  152.9621 N   0  0  0  0  0  0  0  0  0  0  0  0
  149.3465  131.1585  154.1874 C   0  0  0  0  0  0  0  0  0  0  0  0
  150.1833  129.8464  154.1752 C   0  0  1  0  0  0  0  0  0  0  0  0
  151.2964  129.7936  155.2609 C   0  0  2  0  0  0  0  0  0  0  0  0
  152.0495  131.0928  155.5098 C   0  0  0  0  0  0  0  0  0  0  0  0
  153.3650  130.6312  156.1367 C   0  0  0  0  0  0  0  0  0  0  0  0
  153.5195  129.2629  155.7783 O   0  0  0  0  0  0  0  0  0  0  0  0
  152.4725  128.8818  154.8993 C   0  0  0  0  0  0  0  0  0  0  0  0
  149.3131  128.6362  154.2803 N   0  3  0  0  0  0  0  0  0  0  0  0
  148.4739  128.5384  155.5017 C   0  0  0  0  0  0  0  0  0  0  0  0
  147.7859  127.1644  155.5542 C   0  0  0  0  0  0  0  0  0  0  0  0
  147.0088  126.9777  154.3770 O   0  0  0  0  0  0  0  0  0  0  0  0
  147.8067  126.9961  153.1990 C   0  0  0  0  0  0  0  0  0  0  0  0
  148.5064  128.3597  153.0667 C   0  0  0  0  0  0  0  0  0  0  0  0
  146.9598  132.0839  151.6305 N   0  0  0  0  0  0  0  0  0  0  0  0
  145.7387  132.6308  151.1504 C   0  0  0  0  0  0  0  0  0  0  0  0
  145.4048  132.3985  149.7976 C   0  0  0  0  0  0  0  0  0  0  0  0
  144.1946  132.9064  149.2829 C   0  0  0  0  0  0  0  0  0  0  0  0
  143.3610  133.6005  150.0867 N   0  3  0  0  0  0  0  0  0  0  0  0
  143.6299  133.8360  151.3889 C   0  0  0  0  0  0  0  0  0  0  0  0
  144.8250  133.3529  151.9599 C   0  0  0  0  0  0  0  0  0  0  0  0
  149.0116  131.0746  152.1012 H   0  0  0  0  0  0  0  0  0  0  0  0
  149.9993  132.0204  154.3245 H   0  0  0  0  0  0  0  0  0  0  0  0
  148.6483  131.1696  155.0251 H   0  0  0  0  0  0  0  0  0  0  0  0
  150.6871  129.7732  153.2106 H   0  0  0  0  0  0  0  0  0  0  0  0
  150.8766  129.4569  156.2096 H   0  0  0  0  0  0  0  0  0  0  0  0
  152.2524  131.6007  154.5658 H   0  0  0  0  0  0  0  0  0  0  0  0
  151.5145  131.7852  156.1596 H   0  0  0  0  0  0  0  0  0  0  0  0
  154.2095  131.2248  155.7855 H   0  0  0  0  0  0  0  0  0  0  0  0
  153.3282  130.7058  157.2239 H   0  0  0  0  0  0  0  0  0  0  0  0
  152.2383  127.8227  155.0108 H   0  0  0  0  0  0  0  0  0  0  0  0
  152.7957  129.0526  153.8711 H   0  0  0  0  0  0  0  0  0  0  0  0
  149.0809  128.6751  156.3963 H   0  0  0  0  0  0  0  0  0  0  0  0
  147.7135  129.3201  155.5035 H   0  0  0  0  0  0  0  0  0  0  0  0
  148.5205  126.3634  155.6529 H   0  0  0  0  0  0  0  0  0  0  0  0
  147.1307  127.1051  156.4233 H   0  0  0  0  0  0  0  0  0  0  0  0
  148.5366  126.1853  153.2280 H   0  0  0  0  0  0  0  0  0  0  0  0
  147.1665  126.8169  152.3351 H   0  0  0  0  0  0  0  0  0  0  0  0
  147.7613  129.1422  152.9215 H   0  0  0  0  0  0  0  0  0  0  0  0
  149.1457  128.3565  152.1833 H   0  0  0  0  0  0  0  0  0  0  0  0
  147.6006  131.7651  150.9184 H   0  0  0  0  0  0  0  0  0  0  0  0
  146.0704  131.8414  149.1541 H   0  0  0  0  0  0  0  0  0  0  0  0
  143.8699  132.7773  148.2606 H   0  0  0  0  0  0  0  0  0  0  0  0
  142.8831  134.3947  151.9340 H   0  0  0  0  0  0  0  0  0  0  0  0
  145.0101  133.5347  153.0076 H   0  0  0  0  0  0  0  0  0  0  0  0
  149.9602  127.8626  154.3365 H   0  0  0  0  0  0  0  0  0  0  0  0
  142.4893  133.9580  149.6950 H   0  0  0  0  0  0  0  0  0  0  0  0
  1  2  2  0  0  0  0
  2  3  1  0  0  0  0
  2 17  1  0  0  0  0
  3  4  1  0  0  0  0
  3 24  1  0  0  0  0
  4  5  1  0  0  0  0
  4 25  1  0  0  0  0
  4 26  1  0  0  0  0
  5  6  1  0  0  0  0
  5 11  1  0  0  0  0
  5 27  1  0  0  0  0
  6 10  1  0  0  0  0
  6  7  1  0  0  0  0
  6 28  1  0  0  0  0
  7  8  1  0  0  0  0
  7 29  1  0  0  0  0
  7 30  1  0  0  0  0
  8  9  1  0  0  0  0
  8 31  1  0  0  0  0
  8 32  1  0  0  0  0
  9 10  1  0  0  0  0
 10 33  1  0  0  0  0
 10 34  1  0  0  0  0
 11 16  1  0  0  0  0
 11 12  1  0  0  0  0
 11 48  1  0  0  0  0
 12 13  1  0  0  0  0
 12 35  1  0  0  0  0
 12 36  1  0  0  0  0
 13 14  1  0  0  0  0
 13 37  1  0  0  0  0
 13 38  1  0  0  0  0
 14 15  1  0  0  0  0
 15 16  1  0  0  0  0
 15 39  1  0  0  0  0
 15 40  1  0  0  0  0
 16 41  1  0  0  0  0
 16 42  1  0  0  0  0
 17 18  1  0  0  0  0
 17 43  1  0  0  0  0
 18 23  1  0  0  0  0
 18 19  2  0  0  0  0
 19 20  1  0  0  0  0
 19 44  1  0  0  0  0
 20 21  2  0  0  0  0
 20 45  1  0  0  0  0
 21 22  1  0  0  0  0
 21 49  1  0  0  0  0
 22 23  2  0  0  0  0
 22 46  1  0  0  0  0
 23 47  1  0  0  0  0
M  CHG  1  11   1
M  CHG  1  21   1
M  END
> <s_m_source_file>
AV-unprocessed.smi

> <i_m_source_file_index>
1240

> <i_lp_mmshare_version>
43012

> <i_f3d_flags>
0

> <s_epik_input>
W2NIXTFbY0hdbltjSF1bY0hdYzFbTkhdQyg9TylbTkhdW0NIMl1bQ0BIXShbQ0BASF0yW0NIMl1bQ0gyXU9bQ0gyXTIpTjNbQ0gyXVtDSDJdT1tDSDJdW0NIMl0z

> <s_epik_cmdline>
J2VwaWtfcHl0aG9uJywgJy1waCcsICc3LjAnLCAnLXRuJywgJzgnLCAnLW1hJywgJzIwMCcsICctbWV0YWxfYmluZGluZycsICctaW1hZScsICc8aW5maWxlLm1hZT4nLCAnLW9tYWUnLCAnPG91dGZpbGUubWFlPic=

> <r_epik_Ionization_Penalty>
2.08105

> <r_epik_Ionization_Penalty_Charging>
2.08103

> <r_epik_Ionization_Penalty_Neutral>
2.04144e-05

> <r_epik_State_Penalty>
2.15598

> <r_epik_Charging_Adjusted_Penalty>
4.23701

> <i_epik_Tot_Q>
2

> <i_epik_Tot_abs_Q>
2

> <r_epik_Metal_State_Penalty>
2.25158

> <b_epik_Metal_Only>
0

> <s_lp_Force_Field>
OPLS_2005

> <r_lp_Energy>
49.9195

> <b_lp_Chiralities_Consistent>
1

> <s_lp_Variant>
AV-unprocessed.smi:1240-14

> <Gold.Version>
5.8.1

> <Gold.Id.Protein>
6NUR|6NUR_protein|mol2

> <Gold.PLP.Fitness>
47.6402

> <Gold.PLP.PLP>
-37.0283

> <Gold.PLP.part.hbond>
-3.0000

> <Gold.PLP.part.metal>
0.0000

> <Gold.PLP.part.buried>
-6.2706

> <Gold.PLP.part.nonpolar>
-27.0600

> <Gold.PLP.part.repulsive>
0.2404

> <Gold.PLP.ligand.clash>
0.0000

> <Gold.PLP.ligand.torsion>
0.8163

> <Gold.PLP.Chemscore.Hbond>
4.0000

> <Gold.PLP.Chemscore.CHOScore>
0.0000

> <Gold.PLP.Chemscore.Metal>
0.0000

> <Gold.Chemscore.Hbonds>
donor molecule, donor type, donor heavy atom, donor atom, acceptor molecule, acceptor atom, score
      L1  H     3    24       P1 10747  1.00
      L1  H    17    43       P1 10747  1.00
      L1  H    21    49       P1 10186  2.00

> <Gold.PLP.Chemscore.Internal.Correction>
0.2446

> <Gold.Rescore>
     Score         DG    S(hbond)    S(metal)    S(lipo)     H(rot)  DE(clash)    DE(int)     intcor
     18.01     -20.20       2.58        0.00      90.28       1.74       0.05       2.14       ----

> <Gold.Chemscore.Fitness>
18.0131

> <Gold.Chemscore.DG>
-20.2013

> <Gold.Chemscore.ZeroCoef>
-5.4800

> <Gold.Chemscore.Hbond>
2.5805

> <Gold.Chemscore.Metal>
0.0000

> <Gold.Chemscore.Lipo>
90.2756

> <Gold.Chemscore.Internal_Hbond>
0.0000

> <Gold.Chemscore.DEClash>
0.0469

> <Gold.Chemscore.DEInternal>
2.1413

> <Gold.Chemscore.Rot>
1.7421

> <Gold.Chemscore.Internal.Correction>
   9.000000E+99

> <Gold.Chemscore.Hbonds>
donor molecule, donor type, donor heavy atom, donor atom, acceptor molecule, acceptor atom, score
      L1  H     3    24       P1 10747  0.48
      L1  H    17    43       P1 10747  0.99
      L1  H    21    49       P1 10186  0.96

> <Gold.Chemscore.Hbond.Weighted>
-8.6188

> <Gold.Chemscore.Metal.Weighted>
-0.0000

> <Gold.Chemscore.Lipo.Weighted>
-10.5622

> <Gold.Chemscore.Internal_Hbond.Weighted>
0.0000

> <Gold.Chemscore.DEClash.Weighted>
0.0469

> <Gold.Chemscore.DEInternal.Weighted>
2.1413

> <Gold.Chemscore.Rot.Weighted>
4.4597

> <Gold.Chemscore.Internal.Correction.Weighted>
   9.000000E+99

> <Gold.Protein.RotatedTorsions>
[ 6907 6896 6895 6894 ] final -178.34 input  -60.11 | X-H torsion
[ 7974 7965 7964 7962 ] final   74.38 input  175.53 | X-H torsion
[ 8008 7997 7996 7995 ] final   24.22 input   59.86 | X-H torsion
[ 10167 10162 10161 10158 ] final  113.22 input  -65.29 | X-H torsion
[ 10718 10713 10712 10709 ] final  132.72 input   66.30 | X-H torsion
[ 10763 10752 10751 10750 ] final  -88.86 input  -60.55 | X-H torsion
[ 11005 11000 10999 10996 ] final   73.16 input  -57.11 | X-H torsion

> <Gold.Protein.ActiveResidues>
 VAL166  LYS551  ARG553  GLY616  TRP617  ASP618  TYR619  PRO620  LYS621  CYS622 
 ASP623  PHE694  ASN695  SER759  ASP760  ASP761  ALA762  ILE779  LEU786  VAL792 
 PHE793  MET794  SER795  GLU796  ALA797  LYS798  CYS799  TRP800  GLU811  SER814 

> <Gold.Protein.RotatedAtoms>
  151.6356  133.3329  159.3118 H   0  0  0  0  0  0  0  0  0  0  0  0  # atno 6907 bound_to 6896
  150.8034  134.7146  159.6633 H   0  0  0  0  0  0  0  0  0  0  0  0  # atno 6908 bound_to 6896
  152.4128  134.6099  160.0074 H   0  0  0  0  0  0  0  0  0  0  0  0  # atno 6909 bound_to 6896
  145.7290  139.2676  143.1552 H   0  0  0  0  0  0  0  0  0  0  0  0  # atno 7974 bound_to 7965
  154.9929  140.3116  155.4898 H   0  0  0  0  0  0  0  0  0  0  0  0  # atno 8008 bound_to 7997
  156.2937  140.2246  156.4975 H   0  0  0  0  0  0  0  0  0  0  0  0  # atno 8009 bound_to 7997
  154.7687  140.0454  157.1021 H   0  0  0  0  0  0  0  0  0  0  0  0  # atno 8010 bound_to 7997
  139.6477  144.7127  151.2110 H   0  0  0  0  0  0  0  0  0  0  0  0  # atno 10167 bound_to 10162
  157.4844  131.1087  150.9640 H   0  0  0  0  0  0  0  0  0  0  0  0  # atno 10718 bound_to 10713
  154.6491  135.5362  153.7880 H   0  0  0  0  0  0  0  0  0  0  0  0  # atno 10763 bound_to 10752
  153.0376  135.6478  154.1044 H   0  0  0  0  0  0  0  0  0  0  0  0  # atno 10764 bound_to 10752
  154.0963  135.2936  155.3241 H   0  0  0  0  0  0  0  0  0  0  0  0  # atno 10765 bound_to 10752
  139.9454  134.7323  156.0993 H   0  0  0  0  0  0  0  0  0  0  0  0  # atno 11005 bound_to 11000
  146.0555  140.8025  142.9760 LP  0  0  0  0  0  0  0  0  0  0  0  0  # atno 17320 bound_to 7965
  144.6897  140.3118  143.7247 LP  0  0  0  0  0  0  0  0  0  0  0  0  # atno 17321 bound_to 7965
  140.7523  143.6203  150.8520 LP  0  0  0  0  0  0  0  0  0  0  0  0  # atno 17342 bound_to 10162
  139.9847  143.5912  152.2931 LP  0  0  0  0  0  0  0  0  0  0  0  0  # atno 17343 bound_to 10162
  157.0362  130.5731  149.5350 LP  0  0  0  0  0  0  0  0  0  0  0  0  # atno 17370 bound_to 10713
  156.0139  130.5232  150.8073 LP  0  0  0  0  0  0  0  0  0  0  0  0  # atno 17371 bound_to 10713
  141.1103  133.6646  156.2961 LP  0  0  0  0  0  0  0  0  0  0  0  0  # atno 17394 bound_to 11000
  140.5848  134.5710  157.5487 LP  0  0  0  0  0  0  0  0  0  0  0  0  # atno 17395 bound_to 11000

$$$$
