AV-unprocessed.smi:1247|AV-procd|sdf|5249|dock6
  -GOLD-   22720 4363D 1   1.00000     0.00000
 Structure written by MMmdl.
 47 48  0  0  0  0  0  0  0  0  2 V2000
  150.6375  142.0952  156.2811 C   0  0  0  0  0  0  0  0  0  0  0  0
  150.5088  140.7501  155.6291 C   0  0  0  0  0  0  0  0  0  0  0  0
  149.3222  139.9928  155.4052 C   0  0  0  0  0  0  0  0  0  0  0  0
  149.7956  138.8688  154.7852 C   0  0  0  0  0  0  0  0  0  0  0  0
  149.1057  137.7822  154.3477 N   0  0  0  0  0  0  0  0  0  0  0  0
  147.9824  137.2462  154.8556 C   0  0  0  0  0  0  0  0  0  0  0  0
  147.3606  137.6778  155.8269 O   0  0  0  0  0  0  0  0  0  0  0  0
  147.5957  136.1700  154.1551 N   0  0  0  0  0  0  0  0  0  0  0  0
  146.4014  135.3805  154.4354 C   0  0  0  0  0  0  0  0  0  0  0  0
  145.6392  135.0404  153.1405 C   0  0  0  0  0  0  0  0  0  0  0  0
  146.5265  134.4819  152.0857 N   0  3  1  0  0  0  0  0  0  0  0  0
  147.2193  133.2357  152.4956 C   0  0  0  0  0  0  0  0  0  0  0  0
  146.2700  132.0218  152.4342 C   0  0  2  0  0  0  0  0  0  0  0  0
  146.9849  130.7103  152.7769 C   0  0  0  0  0  0  0  0  0  0  0  0
  145.7523  131.9109  151.1128 O   0  0  0  0  0  0  0  0  0  0  0  0
  144.9895  133.0469  150.7190 C   0  0  2  0  0  0  0  0  0  0  0  0
  144.4334  132.7797  149.3160 C   0  0  0  0  0  0  0  0  0  0  0  0
  145.8871  134.3028  150.7567 C   0  0  0  0  0  0  0  0  0  0  0  0
  151.1641  138.9668  154.6688 N   0  0  0  0  0  0  0  0  0  0  0  0
  152.1085  138.0311  154.0906 C   0  0  0  0  0  0  0  0  0  0  0  0
  151.6004  140.1346  155.1884 N   0  0  0  0  0  0  0  0  0  0  0  0
  149.6617  142.4936  156.5591 H   0  0  0  0  0  0  0  0  0  0  0  0
  151.1097  142.8137  155.6106 H   0  0  0  0  0  0  0  0  0  0  0  0
  151.2415  142.0357  157.1869 H   0  0  0  0  0  0  0  0  0  0  0  0
  148.3063  140.2471  155.6675 H   0  0  0  0  0  0  0  0  0  0  0  0
  149.4764  137.3426  153.5181 H   0  0  0  0  0  0  0  0  0  0  0  0
  148.1636  135.8799  153.3723 H   0  0  0  0  0  0  0  0  0  0  0  0
  146.7264  134.4746  154.9454 H   0  0  0  0  0  0  0  0  0  0  0  0
  145.7540  135.9149  155.1331 H   0  0  0  0  0  0  0  0  0  0  0  0
  144.8767  134.2980  153.3800 H   0  0  0  0  0  0  0  0  0  0  0  0
  145.1042  135.9158  152.7727 H   0  0  0  0  0  0  0  0  0  0  0  0
  148.0601  133.0750  151.8190 H   0  0  0  0  0  0  0  0  0  0  0  0
  147.6483  133.3459  153.4925 H   0  0  0  0  0  0  0  0  0  0  0  0
  145.4445  132.1538  153.1354 H   0  0  0  0  0  0  0  0  0  0  0  0
  147.3920  130.7375  153.7879 H   0  0  0  0  0  0  0  0  0  0  0  0
  147.8080  130.5160  152.0886 H   0  0  0  0  0  0  0  0  0  0  0  0
  146.2968  129.8666  152.7197 H   0  0  0  0  0  0  0  0  0  0  0  0
  144.1463  133.1653  151.4007 H   0  0  0  0  0  0  0  0  0  0  0  0
  143.8322  133.6186  148.9651 H   0  0  0  0  0  0  0  0  0  0  0  0
  143.7996  131.8927  149.3112 H   0  0  0  0  0  0  0  0  0  0  0  0
  145.2361  132.6185  148.5959 H   0  0  0  0  0  0  0  0  0  0  0  0
  145.3232  135.1889  150.4679 H   0  0  0  0  0  0  0  0  0  0  0  0
  146.6820  134.1989  150.0167 H   0  0  0  0  0  0  0  0  0  0  0  0
  151.8536  137.8530  153.0456 H   0  0  0  0  0  0  0  0  0  0  0  0
  152.0682  137.0870  154.6340 H   0  0  0  0  0  0  0  0  0  0  0  0
  153.1237  138.4265  154.1439 H   0  0  0  0  0  0  0  0  0  0  0  0
  147.2547  135.1718  151.9648 H   0  0  0  0  0  0  0  0  0  0  0  0
  1  2  1  0  0  0  0
  1 22  1  0  0  0  0
  1 23  1  0  0  0  0
  1 24  1  0  0  0  0
  2 21  2  0  0  0  0
  2  3  1  0  0  0  0
  3  4  2  0  0  0  0
  3 25  1  0  0  0  0
  4  5  1  0  0  0  0
  4 19  1  0  0  0  0
  5  6  1  0  0  0  0
  5 26  1  0  0  0  0
  6  7  2  0  0  0  0
  6  8  1  0  0  0  0
  8  9  1  0  0  0  0
  8 27  1  0  0  0  0
  9 10  1  0  0  0  0
  9 28  1  0  0  0  0
  9 29  1  0  0  0  0
 10 11  1  0  0  0  0
 10 30  1  0  0  0  0
 10 31  1  0  0  0  0
 11 18  1  0  0  0  0
 11 12  1  0  0  0  0
 11 47  1  0  0  0  0
 12 13  1  0  0  0  0
 12 32  1  0  0  0  0
 12 33  1  0  0  0  0
 13 14  1  0  0  0  0
 13 15  1  0  0  0  0
 13 34  1  0  0  0  0
 14 35  1  0  0  0  0
 14 36  1  0  0  0  0
 14 37  1  0  0  0  0
 15 16  1  0  0  0  0
 16 17  1  0  0  0  0
 16 18  1  0  0  0  0
 16 38  1  0  0  0  0
 17 39  1  0  0  0  0
 17 40  1  0  0  0  0
 17 41  1  0  0  0  0
 18 42  1  0  0  0  0
 18 43  1  0  0  0  0
 19 20  1  0  0  0  0
 19 21  1  0  0  0  0
 20 44  1  0  0  0  0
 20 45  1  0  0  0  0
 20 46  1  0  0  0  0
M  CHG  1  11   1
M  END
> <s_m_source_file>
AV-unprocessed.smi

> <i_m_source_file_index>
1247

> <i_lp_mmshare_version>
43012

> <i_f3d_flags>
0

> <s_epik_input>
W0NIM11jMVtjSF1jKG4objEpW0NIM10pW05IXUMoPU8pW05IXVtDSDJdW0NIMl1OMltDSDJdW0NAQEhdKFtDSDNdKU9bQ0BASF0oW0NIM10pW0NIMl0y

> <s_epik_cmdline>
J2VwaWtfcHl0aG9uJywgJy1waCcsICc3LjAnLCAnLXRuJywgJzgnLCAnLW1hJywgJzIwMCcsICctbWV0YWxfYmluZGluZycsICctaW1hZScsICc8aW5maWxlLm1hZT4nLCAnLW9tYWUnLCAnPG91dGZpbGUubWFlPic=

> <r_lp_tautomer_probability>
1

> <r_epik_Ionization_Penalty>
0.663902

> <r_epik_Ionization_Penalty_Charging>
0.663826

> <r_epik_Ionization_Penalty_Neutral>
7.65444e-05

> <r_epik_State_Penalty>
0.683414

> <r_epik_Charging_Adjusted_Penalty>
1.34724

> <i_epik_Tot_Q>
1

> <i_epik_Tot_abs_Q>
1

> <r_epik_Metal_State_Penalty>
0.683419

> <b_epik_Metal_Only>
0

> <s_lp_Force_Field>
OPLS_2005

> <r_lp_Energy>
18.7227

> <b_lp_Chiralities_Consistent>
1

> <s_lp_Variant>
AV-unprocessed.smi:1247-7

> <Gold.Version>
5.8.1

> <Gold.Id.Protein>
6NUR|6NUR_protein|mol2

> <Gold.PLP.Fitness>
46.5890

> <Gold.PLP.PLP>
-33.9204

> <Gold.PLP.part.hbond>
-4.0000

> <Gold.PLP.part.metal>
0.0000

> <Gold.PLP.part.buried>
-4.7945

> <Gold.PLP.part.nonpolar>
-25.0402

> <Gold.PLP.part.repulsive>
0.1825

> <Gold.PLP.ligand.clash>
0.0000

> <Gold.PLP.ligand.torsion>
0.3568

> <Gold.PLP.Chemscore.Hbond>
4.4521

> <Gold.PLP.Chemscore.CHOScore>
0.0000

> <Gold.PLP.Chemscore.Metal>
0.0000

> <Gold.Chemscore.Hbonds>
donor molecule, donor type, donor heavy atom, donor atom, acceptor molecule, acceptor atom, score
      L1  H     5    26       P1  7948  0.89
      L1  H     8    27       P1  7948  1.00
      L1  H    11    47       P1  7948  2.00
      P1  H  7989  7998       L1    21  0.44

> <Gold.PLP.Chemscore.Internal.Correction>
0.0259

> <Gold.Rescore>
     Score         DG    S(hbond)    S(metal)    S(lipo)     H(rot)  DE(clash)    DE(int)     intcor
     18.23     -19.37       2.70        0.00      75.01       1.52       0.12       1.01       ----

> <Gold.Chemscore.Fitness>
18.2334

> <Gold.Chemscore.DG>
-19.3653

> <Gold.Chemscore.ZeroCoef>
-5.4800

> <Gold.Chemscore.Hbond>
2.6964

> <Gold.Chemscore.Metal>
0.0000

> <Gold.Chemscore.Lipo>
75.0082

> <Gold.Chemscore.Internal_Hbond>
0.0000

> <Gold.Chemscore.DEClash>
0.1197

> <Gold.Chemscore.DEInternal>
1.0121

> <Gold.Chemscore.Rot>
1.5221

> <Gold.Chemscore.Internal.Correction>
   9.000000E+99

> <Gold.Chemscore.Hbonds>
donor molecule, donor type, donor heavy atom, donor atom, acceptor molecule, acceptor atom, score
      L1  H     5    26       P1  7948  0.75
      L1  H     8    27       P1  7948  0.95
      L1  H    11    47       P1  7948  0.97

> <Gold.Chemscore.Hbond.Weighted>
-9.0060

> <Gold.Chemscore.Metal.Weighted>
-0.0000

> <Gold.Chemscore.Lipo.Weighted>
-8.7760

> <Gold.Chemscore.Internal_Hbond.Weighted>
0.0000

> <Gold.Chemscore.DEClash.Weighted>
0.1197

> <Gold.Chemscore.DEInternal.Weighted>
1.0121

> <Gold.Chemscore.Rot.Weighted>
3.8967

> <Gold.Chemscore.Internal.Correction.Weighted>
   9.000000E+99

> <Gold.Protein.RotatedTorsions>
[ 6907 6896 6895 6894 ] final -157.90 input  -60.11 | X-H torsion
[ 7974 7965 7964 7962 ] final  128.34 input  175.53 | X-H torsion
[ 8008 7997 7996 7995 ] final   19.80 input   59.86 | X-H torsion
[ 10167 10162 10161 10158 ] final  173.67 input  -65.29 | X-H torsion
[ 10718 10713 10712 10709 ] final -148.45 input   66.30 | X-H torsion
[ 10763 10752 10751 10750 ] final  156.46 input  -60.55 | X-H torsion
[ 11005 11000 10999 10996 ] final   82.51 input  -57.11 | X-H torsion

> <Gold.Protein.ActiveResidues>
 VAL166  LYS551  ARG553  GLY616  TRP617  ASP618  TYR619  PRO620  LYS621  CYS622 
 ASP623  PHE694  ASN695  SER759  ASP760  ASP761  ALA762  ILE779  LEU786  VAL792 
 PHE793  MET794  SER795  GLU796  ALA797  LYS798  CYS799  TRP800  GLU811  SER814 

> <Gold.Protein.RotatedAtoms>
  151.3099  133.4085  159.2645 H   0  0  0  0  0  0  0  0  0  0  0  0  # atno 6907 bound_to 6896
  151.0123  134.9407  159.8024 H   0  0  0  0  0  0  0  0  0  0  0  0  # atno 6908 bound_to 6896
  152.5304  134.3063  159.9149 H   0  0  0  0  0  0  0  0  0  0  0  0  # atno 6909 bound_to 6896
  145.0407  139.3966  143.5103 H   0  0  0  0  0  0  0  0  0  0  0  0  # atno 7974 bound_to 7965
  154.9262  140.3034  155.5191 H   0  0  0  0  0  0  0  0  0  0  0  0  # atno 8008 bound_to 7997
  156.3006  140.2362  156.4253 H   0  0  0  0  0  0  0  0  0  0  0  0  # atno 8009 bound_to 7997
  154.8282  140.0420  157.1447 H   0  0  0  0  0  0  0  0  0  0  0  0  # atno 8010 bound_to 7997
  139.5116  144.3234  152.0181 H   0  0  0  0  0  0  0  0  0  0  0  0  # atno 10167 bound_to 10162
  156.4204  130.8026  151.2249 H   0  0  0  0  0  0  0  0  0  0  0  0  # atno 10718 bound_to 10713
  154.1846  135.2798  155.3041 H   0  0  0  0  0  0  0  0  0  0  0  0  # atno 10763 bound_to 10752
  154.5976  135.5540  153.7344 H   0  0  0  0  0  0  0  0  0  0  0  0  # atno 10764 bound_to 10752
  153.0128  135.6384  154.1985 H   0  0  0  0  0  0  0  0  0  0  0  0  # atno 10765 bound_to 10752
  139.9061  134.8077  156.2185 H   0  0  0  0  0  0  0  0  0  0  0  0  # atno 11005 bound_to 11000
  146.3509  140.0006  142.8676 LP  0  0  0  0  0  0  0  0  0  0  0  0  # atno 17320 bound_to 7965
  145.1652  140.9693  143.4354 LP  0  0  0  0  0  0  0  0  0  0  0  0  # atno 17321 bound_to 7965
  140.2675  144.4000  150.6163 LP  0  0  0  0  0  0  0  0  0  0  0  0  # atno 17342 bound_to 10162
  140.6112  143.2169  151.6881 LP  0  0  0  0  0  0  0  0  0  0  0  0  # atno 17343 bound_to 10162
  157.7508  131.0230  150.3814 LP  0  0  0  0  0  0  0  0  0  0  0  0  # atno 17370 bound_to 10713
  156.4131  130.3938  149.6878 LP  0  0  0  0  0  0  0  0  0  0  0  0  # atno 17371 bound_to 10713
  141.0420  133.6932  156.1616 LP  0  0  0  0  0  0  0  0  0  0  0  0  # atno 17394 bound_to 11000
  140.6940  134.4635  157.5588 LP  0  0  0  0  0  0  0  0  0  0  0  0  # atno 17395 bound_to 11000

$$$$
