AV-unprocessed.smi:212|AV-procd|sdf|1631|dock2
  -GOLD-   2262019583D 1   1.00000     0.00000
 Structure written by MMmdl.
 65 68  0  0  0  0  0  0  0  0  2 V2000
  143.2191  136.3074  153.0601 C   0  0  0  0  0  0  0  0  0  0  0  0
  144.6332  136.8265  152.7485 C   0  0  2  0  0  0  0  0  0  0  0  0
  145.3651  135.9407  151.7189 C   0  0  0  0  0  0  0  0  0  0  0  0
  145.7747  134.6392  152.3100 N   0  3  1  0  0  0  0  0  0  0  0  0
  146.3673  133.7030  151.3188 C   0  0  0  0  0  0  0  0  0  0  0  0
  145.2936  132.9353  150.5122 C   0  0  0  0  0  0  0  0  0  0  0  0
  145.9642  131.9372  149.5534 C   0  0  0  0  0  0  0  0  0  0  0  0
  144.2902  132.2055  151.4242 C   0  0  0  0  0  0  0  0  0  0  0  0
  144.5768  133.8491  149.7059 O   0  0  0  0  0  0  0  0  0  0  0  0
  146.6108  134.8154  153.5238 C   0  0  0  0  0  0  0  0  0  0  0  0
  145.8979  135.7028  154.5609 C   0  0  0  0  0  0  0  0  0  0  0  0
  145.4413  136.9592  153.9637 N   0  0  0  0  0  0  0  0  0  0  0  0
  146.2578  138.0448  154.0200 C   0  0  0  0  0  0  0  0  0  0  0  0
  146.4784  138.7875  152.9023 N   0  0  0  0  0  0  0  0  0  0  0  0
  147.2688  139.8638  152.9500 C   0  0  0  0  0  0  0  0  0  0  0  0
  147.9293  140.3681  153.9934 N   0  0  0  0  0  0  0  0  0  0  0  0
  147.7202  139.6235  155.1163 C   0  0  0  0  0  0  0  0  0  0  0  0
  146.9090  138.4580  155.2170 C   0  0  0  0  0  0  0  0  0  0  0  0
  146.9500  137.9646  156.5162 N   0  0  0  0  0  0  0  0  0  0  0  0
  147.7361  138.7933  157.1481 C   0  0  0  0  0  0  0  0  0  0  0  0
  148.2442  139.8174  156.3821 N   0  0  0  0  0  0  0  0  0  0  0  0
  149.1404  140.8694  156.8269 C   0  0  0  0  0  0  0  0  0  0  0  0
  150.5459  140.3561  157.2467 C   0  0  1  0  0  0  0  0  0  0  0  0
  151.2376  139.4895  156.1653 C   0  0  0  0  0  0  0  0  0  0  0  0
  151.7921  140.2745  155.1296 O   0  0  0  0  0  0  0  0  0  0  0  0
  151.5006  141.4892  157.7089 C   0  0  1  0  0  0  0  0  0  0  0  0
  150.8897  142.6014  158.5598 C   0  0  0  0  0  0  0  0  0  0  0  0
  152.0157  142.9936  159.5229 C   0  0  0  0  0  0  0  0  0  0  0  0
  153.1677  142.3007  159.0611 O   0  0  0  0  0  0  0  0  0  0  0  0
  152.7270  141.0673  158.5199 C   0  0  0  0  0  0  0  0  0  0  0  0
  142.6099  136.2742  152.1566 H   0  0  0  0  0  0  0  0  0  0  0  0
  142.7137  136.9614  153.7712 H   0  0  0  0  0  0  0  0  0  0  0  0
  143.2331  135.3027  153.4827 H   0  0  0  0  0  0  0  0  0  0  0  0
  144.5050  137.8027  152.2820 H   0  0  0  0  0  0  0  0  0  0  0  0
  144.7287  135.7812  150.8485 H   0  0  0  0  0  0  0  0  0  0  0  0
  146.2557  136.4600  151.3607 H   0  0  0  0  0  0  0  0  0  0  0  0
  147.0424  134.2405  150.6504 H   0  0  0  0  0  0  0  0  0  0  0  0
  146.9935  132.9719  151.8333 H   0  0  0  0  0  0  0  0  0  0  0  0
  146.5390  131.1891  150.1006 H   0  0  0  0  0  0  0  0  0  0  0  0
  146.6485  132.4399  148.8686 H   0  0  0  0  0  0  0  0  0  0  0  0
  145.2271  131.4060  148.9495 H   0  0  0  0  0  0  0  0  0  0  0  0
  144.7979  131.4943  152.0763 H   0  0  0  0  0  0  0  0  0  0  0  0
  143.5562  131.6485  150.8405 H   0  0  0  0  0  0  0  0  0  0  0  0
  143.7382  132.8994  152.0593 H   0  0  0  0  0  0  0  0  0  0  0  0
  145.0959  134.0486  148.9414 H   0  0  0  0  0  0  0  0  0  0  0  0
  146.8257  133.8430  153.9686 H   0  0  0  0  0  0  0  0  0  0  0  0
  147.5685  135.2541  153.2402 H   0  0  0  0  0  0  0  0  0  0  0  0
  145.0300  135.1762  154.9579 H   0  0  0  0  0  0  0  0  0  0  0  0
  146.5467  135.8878  155.4180 H   0  0  0  0  0  0  0  0  0  0  0  0
  147.3889  140.3980  152.0188 H   0  0  0  0  0  0  0  0  0  0  0  0
  147.9751  138.6767  158.1953 H   0  0  0  0  0  0  0  0  0  0  0  0
  149.2170  141.6059  156.0280 H   0  0  0  0  0  0  0  0  0  0  0  0
  148.6498  141.3724  157.6589 H   0  0  0  0  0  0  0  0  0  0  0  0
  150.4039  139.7190  158.1214 H   0  0  0  0  0  0  0  0  0  0  0  0
  152.0130  138.8623  156.6062 H   0  0  0  0  0  0  0  0  0  0  0  0
  150.5191  138.8169  155.6959 H   0  0  0  0  0  0  0  0  0  0  0  0
  152.2755  140.9872  155.5191 H   0  0  0  0  0  0  0  0  0  0  0  0
  151.8965  141.9672  156.8109 H   0  0  0  0  0  0  0  0  0  0  0  0
  150.5870  143.4418  157.9342 H   0  0  0  0  0  0  0  0  0  0  0  0
  150.0124  142.2807  159.1198 H   0  0  0  0  0  0  0  0  0  0  0  0
  152.1896  144.0694  159.5481 H   0  0  0  0  0  0  0  0  0  0  0  0
  151.7826  142.6633  160.5362 H   0  0  0  0  0  0  0  0  0  0  0  0
  152.4816  140.3948  159.3414 H   0  0  0  0  0  0  0  0  0  0  0  0
  153.4974  140.5992  157.9068 H   0  0  0  0  0  0  0  0  0  0  0  0
  144.9243  134.1965  152.6273 H   0  0  0  0  0  0  0  0  0  0  0  0
  1  2  1  0  0  0  0
  1 31  1  0  0  0  0
  1 32  1  0  0  0  0
  1 33  1  0  0  0  0
  2 12  1  0  0  0  0
  2  3  1  0  0  0  0
  2 34  1  0  0  0  0
  3  4  1  0  0  0  0
  3 35  1  0  0  0  0
  3 36  1  0  0  0  0
  4  5  1  0  0  0  0
  4 10  1  0  0  0  0
  4 65  1  0  0  0  0
  5  6  1  0  0  0  0
  5 37  1  0  0  0  0
  5 38  1  0  0  0  0
  6  7  1  0  0  0  0
  6  8  1  0  0  0  0
  6  9  1  0  0  0  0
  7 39  1  0  0  0  0
  7 40  1  0  0  0  0
  7 41  1  0  0  0  0
  8 42  1  0  0  0  0
  8 43  1  0  0  0  0
  8 44  1  0  0  0  0
  9 45  1  0  0  0  0
 10 11  1  0  0  0  0
 10 46  1  0  0  0  0
 10 47  1  0  0  0  0
 11 12  1  0  0  0  0
 11 48  1  0  0  0  0
 11 49  1  0  0  0  0
 12 13  1  0  0  0  0
 13 18  1  0  0  0  0
 13 14  2  0  0  0  0
 14 15  1  0  0  0  0
 15 16  2  0  0  0  0
 15 50  1  0  0  0  0
 16 17  1  0  0  0  0
 17 21  1  0  0  0  0
 17 18  2  0  0  0  0
 18 19  1  0  0  0  0
 19 20  2  0  0  0  0
 20 21  1  0  0  0  0
 20 51  1  0  0  0  0
 21 22  1  0  0  0  0
 22 23  1  0  0  0  0
 22 52  1  0  0  0  0
 22 53  1  0  0  0  0
 23 24  1  0  0  0  0
 23 26  1  0  0  0  0
 23 54  1  0  0  0  0
 24 25  1  0  0  0  0
 24 55  1  0  0  0  0
 24 56  1  0  0  0  0
 25 57  1  0  0  0  0
 26 30  1  0  0  0  0
 26 27  1  0  0  0  0
 26 58  1  0  0  0  0
 27 28  1  0  0  0  0
 27 59  1  0  0  0  0
 27 60  1  0  0  0  0
 28 29  1  0  0  0  0
 28 61  1  0  0  0  0
 28 62  1  0  0  0  0
 29 30  1  0  0  0  0
 30 63  1  0  0  0  0
 30 64  1  0  0  0  0
M  CHG  1   4   1
M  END
> <s_m_source_file>
AV-unprocessed.smi

> <i_m_source_file_index>
212

> <i_lp_mmshare_version>
43012

> <i_f3d_flags>
0

> <s_epik_input>
W0NIM11bQ0BASF0xW0NIMl1OKFtDSDJdQyhbQ0gzXSkoW0NIM10pW09IXSlbQ0gyXVtDSDJdTjFjKG5bY0hdbjIpYyhjMjMpbltjSF1uM1tDSDJdW0NASF0oW0NIMl1bT0hdKVtDQEBIXTRbQ0gyXVtDSDJdT1tDSDJdNA==

> <s_epik_cmdline>
J2VwaWtfcHl0aG9uJywgJy1waCcsICc3LjAnLCAnLXRuJywgJzgnLCAnLW1hJywgJzIwMCcsICctbWV0YWxfYmluZGluZycsICctaW1hZScsICc8aW5maWxlLm1hZT4nLCAnLW9tYWUnLCAnPG91dGZpbGUubWFlPic=

> <r_lp_tautomer_probability>
1

> <r_epik_Ionization_Penalty>
0.00182193

> <r_epik_Ionization_Penalty_Charging>
0.00173996

> <r_epik_Ionization_Penalty_Neutral>
8.19718e-05

> <r_epik_State_Penalty>
-0

> <r_epik_Charging_Adjusted_Penalty>
0.00173996

> <i_epik_Tot_Q>
1

> <i_epik_Tot_abs_Q>
1

> <r_epik_Metal_State_Penalty>
-0

> <b_epik_Metal_Only>
0

> <s_lp_Force_Field>
OPLS_2005

> <r_lp_Energy>
59.1595

> <b_lp_Chiralities_Consistent>
1

> <s_lp_Variant>
AV-unprocessed.smi:212-15

> <Gold.Version>
5.8.1

> <Gold.Id.Protein>
6NUR|6NUR_protein|mol2

> <Gold.PLP.Fitness>
45.6407

> <Gold.PLP.PLP>
-39.2727

> <Gold.PLP.part.hbond>
-2.0000

> <Gold.PLP.part.metal>
0.0000

> <Gold.PLP.part.buried>
-6.9909

> <Gold.PLP.part.nonpolar>
-30.6903

> <Gold.PLP.part.repulsive>
0.4201

> <Gold.PLP.ligand.clash>
0.0000

> <Gold.PLP.ligand.torsion>
1.1470

> <Gold.PLP.Chemscore.Hbond>
1.8640

> <Gold.PLP.Chemscore.CHOScore>
0.6473

> <Gold.PLP.Chemscore.Metal>
0.0000

> <Gold.Chemscore.Hbonds>
donor molecule, donor type, donor heavy atom, donor atom, acceptor molecule, acceptor atom, score
      L1  H     9    45       P1  7921  1.00
      P1  H  7989  7998       L1    25  0.81
      L1  C    15    50       P1  7957  0.62

> <Gold.PLP.Chemscore.Internal.Correction>
1.1282

> <Gold.Rescore>
     Score         DG    S(hbond)    S(metal)    S(lipo)     H(rot)  DE(clash)    DE(int)     intcor
     11.00     -13.23       1.68        0.00      92.69       3.40       0.96       1.28       ----

> <Gold.Chemscore.Fitness>
10.9963

> <Gold.Chemscore.DG>
-13.2311

> <Gold.Chemscore.ZeroCoef>
-5.4800

> <Gold.Chemscore.Hbond>
1.6788

> <Gold.Chemscore.Metal>
0.0000

> <Gold.Chemscore.Lipo>
92.6885

> <Gold.Chemscore.Internal_Hbond>
0.0000

> <Gold.Chemscore.DEClash>
0.9593

> <Gold.Chemscore.DEInternal>
1.2756

> <Gold.Chemscore.Rot>
3.3986

> <Gold.Chemscore.Internal.Correction>
   9.000000E+99

> <Gold.Chemscore.Hbonds>
donor molecule, donor type, donor heavy atom, donor atom, acceptor molecule, acceptor atom, score
      L1  H     9    45       P1  7921  0.98
      P1  H  7989  7998       L1    25  0.18

> <Gold.Chemscore.Hbond.Weighted>
-5.6071

> <Gold.Chemscore.Metal.Weighted>
-0.0000

> <Gold.Chemscore.Lipo.Weighted>
-10.8445

> <Gold.Chemscore.Internal_Hbond.Weighted>
0.0000

> <Gold.Chemscore.DEClash.Weighted>
0.9593

> <Gold.Chemscore.DEInternal.Weighted>
1.2756

> <Gold.Chemscore.Rot.Weighted>
8.7005

> <Gold.Chemscore.Internal.Correction.Weighted>
   9.000000E+99

> <Gold.Protein.RotatedTorsions>
[ 6907 6896 6895 6894 ] final  101.47 input  -60.11 | X-H torsion
[ 7974 7965 7964 7962 ] final   97.32 input  175.53 | X-H torsion
[ 8008 7997 7996 7995 ] final   23.34 input   59.86 | X-H torsion
[ 10167 10162 10161 10158 ] final  165.90 input  -65.29 | X-H torsion
[ 10718 10713 10712 10709 ] final   72.13 input   66.30 | X-H torsion
[ 10763 10752 10751 10750 ] final -117.26 input  -60.55 | X-H torsion
[ 11005 11000 10999 10996 ] final   70.72 input  -57.11 | X-H torsion

> <Gold.Protein.ActiveResidues>
 VAL166  LYS551  ARG553  GLY616  TRP617  ASP618  TYR619  PRO620  LYS621  CYS622 
 ASP623  PHE694  ASN695  SER759  ASP760  ASP761  ALA762  ILE779  LEU786  VAL792 
 PHE793  MET794  SER795  GLU796  ALA797  LYS798  CYS799  TRP800  GLU811  SER814 

> <Gold.Protein.RotatedAtoms>
  152.5348  134.0120  159.7942 H   0  0  0  0  0  0  0  0  0  0  0  0  # atno 6907 bound_to 6896
  151.0321  133.5773  159.2667 H   0  0  0  0  0  0  0  0  0  0  0  0  # atno 6908 bound_to 6896
  151.2774  135.0710  159.9210 H   0  0  0  0  0  0  0  0  0  0  0  0  # atno 6909 bound_to 6896
  145.4270  139.2315  143.3165 H   0  0  0  0  0  0  0  0  0  0  0  0  # atno 7974 bound_to 7965
  154.9794  140.3100  155.4953 H   0  0  0  0  0  0  0  0  0  0  0  0  # atno 8008 bound_to 7997
  156.2955  140.2269  156.4832 H   0  0  0  0  0  0  0  0  0  0  0  0  # atno 8009 bound_to 7997
  154.7803  140.0446  157.1110 H   0  0  0  0  0  0  0  0  0  0  0  0  # atno 8010 bound_to 7997
  139.4914  144.4084  151.9328 H   0  0  0  0  0  0  0  0  0  0  0  0  # atno 10167 bound_to 10162
  157.6486  130.9563  150.0886 H   0  0  0  0  0  0  0  0  0  0  0  0  # atno 10718 bound_to 10713
  154.8548  135.4316  154.1951 H   0  0  0  0  0  0  0  0  0  0  0  0  # atno 10763 bound_to 10752
  153.3010  135.6969  153.7209 H   0  0  0  0  0  0  0  0  0  0  0  0  # atno 10764 bound_to 10752
  153.6339  135.3480  155.3024 H   0  0  0  0  0  0  0  0  0  0  0  0  # atno 10765 bound_to 10752
  139.9582  134.7107  156.0705 H   0  0  0  0  0  0  0  0  0  0  0  0  # atno 11005 bound_to 11000
  146.2627  140.5002  142.8847 LP  0  0  0  0  0  0  0  0  0  0  0  0  # atno 17320 bound_to 7965
  144.8207  140.6545  143.6354 LP  0  0  0  0  0  0  0  0  0  0  0  0  # atno 17321 bound_to 7965
  140.3524  144.3072  150.5947 LP  0  0  0  0  0  0  0  0  0  0  0  0  # atno 17342 bound_to 10162
  140.5473  143.2212  151.7985 LP  0  0  0  0  0  0  0  0  0  0  0  0  # atno 17343 bound_to 10162
  156.1842  130.3651  149.8995 LP  0  0  0  0  0  0  0  0  0  0  0  0  # atno 17370 bound_to 10713
  156.6940  130.8907  151.3591 LP  0  0  0  0  0  0  0  0  0  0  0  0  # atno 17371 bound_to 10713
  141.1256  133.6600  156.3329 LP  0  0  0  0  0  0  0  0  0  0  0  0  # atno 17394 bound_to 11000
  140.5560  134.5981  157.5421 LP  0  0  0  0  0  0  0  0  0  0  0  0  # atno 17395 bound_to 11000

$$$$
