AV-unprocessed.smi:2128|AV-procd|sdf|8682|dock1
  -GOLD-   2272011433D 1   1.00000     0.00000
 Structure written by MMmdl.
 51 53  0  0  0  0  0  0  0  0  2 V2000
  153.3330  142.3754  161.2214 O   0  0  0  0  0  0  0  0  0  0  0  0
  152.7660  142.7941  160.2153 C   0  0  0  0  0  0  0  0  0  0  0  0
  152.1323  141.7911  159.2350 C   0  0  0  0  0  0  0  0  0  0  0  0
  151.5536  142.3934  158.0272 N   0  0  0  0  0  0  0  0  0  0  0  0
  151.0269  141.5274  157.0396 C   0  0  0  0  0  0  0  0  0  0  0  0
  151.4944  140.2062  156.8325 C   0  0  0  0  0  0  0  0  0  0  0  0
  150.9198  139.3999  155.8282 C   0  0  0  0  0  0  0  0  0  0  0  0
  149.8652  139.9143  155.0342 C   0  0  0  0  0  0  0  0  0  0  0  0
  149.2120  139.2028  153.9898 N   0  0  0  0  0  0  0  0  0  0  0  0
  148.0271  139.4465  153.4028 C   0  0  0  0  0  0  0  0  0  0  0  0
  147.2602  140.3627  153.6958 O   0  0  0  0  0  0  0  0  0  0  0  0
  147.7826  138.5614  152.4251 N   0  0  0  0  0  0  0  0  0  0  0  0
  146.6053  138.5557  151.5596 C   0  0  0  0  0  0  0  0  0  0  0  0
  146.5124  137.2718  150.7110 C   0  0  0  0  0  0  0  0  0  0  0  0
  145.8301  136.1090  151.4166 C   0  0  0  0  0  0  0  0  0  0  0  0
  145.3180  136.2315  152.6569 C   0  0  0  0  0  0  0  0  0  0  0  0
  144.6108  135.1143  153.4030 C   0  0  0  0  0  0  0  0  0  0  0  0
  144.2209  133.9483  152.4797 C   0  0  0  0  0  0  0  0  0  0  0  0
  145.3602  133.6017  151.5139 C   0  0  0  0  0  0  0  0  0  0  0  0
  145.7344  134.8056  150.6310 C   0  0  0  0  0  0  0  0  0  0  0  0
  149.4351  141.2331  155.2813 C   0  0  0  0  0  0  0  0  0  0  0  0
  150.0145  141.9696  156.2530 N   0  3  0  0  0  0  0  0  0  0  0  0
  151.0084  143.7457  158.1437 C   0  0  0  0  0  0  0  0  0  0  0  0
  152.0445  144.6887  158.7757 C   0  0  0  0  0  0  0  0  0  0  0  0
  152.6778  144.1089  159.9554 N   0  0  0  0  0  0  0  0  0  0  0  0
  152.9024  141.0732  158.9486 H   0  0  0  0  0  0  0  0  0  0  0  0
  151.3586  141.2425  159.7743 H   0  0  0  0  0  0  0  0  0  0  0  0
  152.2779  139.7793  157.4390 H   0  0  0  0  0  0  0  0  0  0  0  0
  151.3103  138.4040  155.6947 H   0  0  0  0  0  0  0  0  0  0  0  0
  149.7354  138.4284  153.6083 H   0  0  0  0  0  0  0  0  0  0  0  0
  148.4699  137.8420  152.2536 H   0  0  0  0  0  0  0  0  0  0  0  0
  145.7257  138.6238  152.1998 H   0  0  0  0  0  0  0  0  0  0  0  0
  146.5799  139.4442  150.9276 H   0  0  0  0  0  0  0  0  0  0  0  0
  145.9780  137.4943  149.7864 H   0  0  0  0  0  0  0  0  0  0  0  0
  147.5115  136.9543  150.4113 H   0  0  0  0  0  0  0  0  0  0  0  0
  145.4159  137.1673  153.1876 H   0  0  0  0  0  0  0  0  0  0  0  0
  145.2775  134.7637  154.1913 H   0  0  0  0  0  0  0  0  0  0  0  0
  143.7220  135.5139  153.8921 H   0  0  0  0  0  0  0  0  0  0  0  0
  143.9474  133.0765  153.0748 H   0  0  0  0  0  0  0  0  0  0  0  0
  143.3348  134.2196  151.9040 H   0  0  0  0  0  0  0  0  0  0  0  0
  146.2333  133.2883  152.0881 H   0  0  0  0  0  0  0  0  0  0  0  0
  145.0824  132.7532  150.8879 H   0  0  0  0  0  0  0  0  0  0  0  0
  144.9875  134.9404  149.8482 H   0  0  0  0  0  0  0  0  0  0  0  0
  146.6788  134.5984  150.1287 H   0  0  0  0  0  0  0  0  0  0  0  0
  148.6423  141.7227  154.7339 H   0  0  0  0  0  0  0  0  0  0  0  0
  150.6859  144.1712  157.1964 H   0  0  0  0  0  0  0  0  0  0  0  0
  150.1205  143.6978  158.7757 H   0  0  0  0  0  0  0  0  0  0  0  0
  152.8288  144.9147  158.0522 H   0  0  0  0  0  0  0  0  0  0  0  0
  151.5801  145.6378  159.0443 H   0  0  0  0  0  0  0  0  0  0  0  0
  153.0939  144.7507  160.6154 H   0  0  0  0  0  0  0  0  0  0  0  0
  149.6713  142.9188  156.4013 H   0  0  0  0  0  0  0  0  0  0  0  0
  1  2  2  0  0  0  0
  2 25  1  0  0  0  0
  2  3  1  0  0  0  0
  3  4  1  0  0  0  0
  3 26  1  0  0  0  0
  3 27  1  0  0  0  0
  4  5  1  0  0  0  0
  4 23  1  0  0  0  0
  5 22  1  0  0  0  0
  5  6  2  0  0  0  0
  6  7  1  0  0  0  0
  6 28  1  0  0  0  0
  7  8  2  0  0  0  0
  7 29  1  0  0  0  0
  8  9  1  0  0  0  0
  8 21  1  0  0  0  0
  9 10  1  0  0  0  0
  9 30  1  0  0  0  0
 10 11  2  0  0  0  0
 10 12  1  0  0  0  0
 12 13  1  0  0  0  0
 12 31  1  0  0  0  0
 13 14  1  0  0  0  0
 13 32  1  0  0  0  0
 13 33  1  0  0  0  0
 14 15  1  0  0  0  0
 14 34  1  0  0  0  0
 14 35  1  0  0  0  0
 15 20  1  0  0  0  0
 15 16  2  0  0  0  0
 16 17  1  0  0  0  0
 16 36  1  0  0  0  0
 17 18  1  0  0  0  0
 17 37  1  0  0  0  0
 17 38  1  0  0  0  0
 18 19  1  0  0  0  0
 18 39  1  0  0  0  0
 18 40  1  0  0  0  0
 19 20  1  0  0  0  0
 19 41  1  0  0  0  0
 19 42  1  0  0  0  0
 20 43  1  0  0  0  0
 20 44  1  0  0  0  0
 21 22  2  0  0  0  0
 21 45  1  0  0  0  0
 22 51  1  0  0  0  0
 23 24  1  0  0  0  0
 23 46  1  0  0  0  0
 23 47  1  0  0  0  0
 24 25  1  0  0  0  0
 24 48  1  0  0  0  0
 24 49  1  0  0  0  0
 25 50  1  0  0  0  0
M  CHG  1  22   1
M  END
> <s_m_source_file>
AV-unprocessed.smi

> <i_m_source_file_index>
2128

> <i_lp_mmshare_version>
43012

> <i_f3d_flags>
0

> <s_epik_input>
Tz1DMVtDSDJdTihbQ0gyXVtDSDJdW05IXTEpYzJbY0hdW2NIXWMoW2NIXW4yKVtOSF1DKD1PKVtOSF1bQ0gyXVtDSDJdQzM9W0NIXVtDSDJdW0NIMl1bQ0gyXVtDSDJdMw==

> <s_epik_cmdline>
J2VwaWtfcHl0aG9uJywgJy1waCcsICc3LjAnLCAnLXRuJywgJzgnLCAnLW1hJywgJzIwMCcsICctbWV0YWxfYmluZGluZycsICctaW1hZScsICc8aW5maWxlLm1hZT4nLCAnLW9tYWUnLCAnPG91dGZpbGUubWFlPic=

> <r_lp_tautomer_probability>
0.999994

> <r_epik_Ionization_Penalty>
1.98589

> <r_epik_Ionization_Penalty_Charging>
1.98586

> <r_epik_Ionization_Penalty_Neutral>
2.08865e-05

> <r_epik_State_Penalty>
2.11351

> <r_epik_Charging_Adjusted_Penalty>
4.09937

> <i_epik_Tot_Q>
1

> <i_epik_Tot_abs_Q>
1

> <r_epik_Metal_State_Penalty>
2.13405

> <b_epik_Metal_Only>
0

> <s_lp_Force_Field>
OPLS_2005

> <r_lp_Energy>
28.599

> <b_lp_Chiralities_Consistent>
1

> <s_lp_Variant>
AV-unprocessed.smi:2128-2

> <Gold.Version>
5.8.1

> <Gold.Id.Protein>
6NUR|6NUR_protein|mol2

> <Gold.PLP.Fitness>
56.3628

> <Gold.PLP.PLP>
-48.0417

> <Gold.PLP.part.hbond>
-4.0000

> <Gold.PLP.part.metal>
0.0000

> <Gold.PLP.part.buried>
4.2799

> <Gold.PLP.part.nonpolar>
-48.6612

> <Gold.PLP.part.repulsive>
0.4621

> <Gold.PLP.ligand.clash>
0.0000

> <Gold.PLP.ligand.torsion>
0.4359

> <Gold.PLP.Chemscore.Hbond>
3.0000

> <Gold.PLP.Chemscore.CHOScore>
0.0000

> <Gold.PLP.Chemscore.Metal>
0.0000

> <Gold.Chemscore.Hbonds>
donor molecule, donor type, donor heavy atom, donor atom, acceptor molecule, acceptor atom, score
      L1  H    12    31       P1  7948  1.00
      L1  H    22    51       P1  8028  1.66

> <Gold.PLP.Chemscore.Internal.Correction>
0.1928

> <Gold.Rescore>
     Score         DG    S(hbond)    S(metal)    S(lipo)     H(rot)  DE(clash)    DE(int)     intcor
     16.20     -20.21       1.99        0.00     100.25       1.43       2.32       1.68       ----

> <Gold.Chemscore.Fitness>
16.2036

> <Gold.Chemscore.DG>
-20.2092

> <Gold.Chemscore.ZeroCoef>
-5.4800

> <Gold.Chemscore.Hbond>
1.9915

> <Gold.Chemscore.Metal>
0.0000

> <Gold.Chemscore.Lipo>
100.2544

> <Gold.Chemscore.Internal_Hbond>
0.0000

> <Gold.Chemscore.DEClash>
2.3207

> <Gold.Chemscore.DEInternal>
1.6849

> <Gold.Chemscore.Rot>
1.4266

> <Gold.Chemscore.Internal.Correction>
   9.000000E+99

> <Gold.Chemscore.Hbonds>
donor molecule, donor type, donor heavy atom, donor atom, acceptor molecule, acceptor atom, score
      L1  H    12    31       P1  7948  0.98
      L1  H    22    51       P1  8028  0.77

> <Gold.Chemscore.Hbond.Weighted>
-6.6516

> <Gold.Chemscore.Metal.Weighted>
-0.0000

> <Gold.Chemscore.Lipo.Weighted>
-11.7298

> <Gold.Chemscore.Internal_Hbond.Weighted>
0.0000

> <Gold.Chemscore.DEClash.Weighted>
2.3207

> <Gold.Chemscore.DEInternal.Weighted>
1.6849

> <Gold.Chemscore.Rot.Weighted>
3.6521

> <Gold.Chemscore.Internal.Correction.Weighted>
   9.000000E+99

> <Gold.Protein.RotatedTorsions>
[ 6907 6896 6895 6894 ] final -154.76 input  -60.11 | X-H torsion
[ 7974 7965 7964 7962 ] final  167.45 input  175.53 | X-H torsion
[ 8008 7997 7996 7995 ] final -141.53 input   59.86 | X-H torsion
[ 10167 10162 10161 10158 ] final -161.86 input  -65.29 | X-H torsion
[ 10718 10713 10712 10709 ] final  -84.43 input   66.30 | X-H torsion
[ 10763 10752 10751 10750 ] final   90.47 input  -60.55 | X-H torsion
[ 11005 11000 10999 10996 ] final  -45.83 input  -57.11 | X-H torsion

> <Gold.Protein.ActiveResidues>
 VAL166  LYS551  ARG553  GLY616  TRP617  ASP618  TYR619  PRO620  LYS621  CYS622 
 ASP623  PHE694  ASN695  SER759  ASP760  ASP761  ALA762  ILE779  LEU786  VAL792 
 PHE793  MET794  SER795  GLU796  ALA797  LYS798  CYS799  TRP800  GLU811  SER814 

> <Gold.Protein.RotatedAtoms>
  151.2623  133.4296  159.2616 H   0  0  0  0  0  0  0  0  0  0  0  0  # atno 6907 bound_to 6896
  151.0519  134.9679  159.8226 H   0  0  0  0  0  0  0  0  0  0  0  0  # atno 6908 bound_to 6896
  152.5384  134.2577  159.8976 H   0  0  0  0  0  0  0  0  0  0  0  0  # atno 6909 bound_to 6896
  144.7424  139.8763  143.6393 H   0  0  0  0  0  0  0  0  0  0  0  0  # atno 7974 bound_to 7965
  155.4793  140.0559  157.2969 H   0  0  0  0  0  0  0  0  0  0  0  0  # atno 8008 bound_to 7997
  154.4667  140.2021  156.0053 H   0  0  0  0  0  0  0  0  0  0  0  0  # atno 8009 bound_to 7997
  156.0986  140.3222  155.7915 H   0  0  0  0  0  0  0  0  0  0  0  0  # atno 8010 bound_to 7997
  139.6434  144.0216  152.2109 H   0  0  0  0  0  0  0  0  0  0  0  0  # atno 10167 bound_to 10162
  156.0006  130.4697  150.4409 H   0  0  0  0  0  0  0  0  0  0  0  0  # atno 10718 bound_to 10713
  153.1979  135.4432  155.0231 H   0  0  0  0  0  0  0  0  0  0  0  0  # atno 10763 bound_to 10752
  154.8130  135.3302  154.7257 H   0  0  0  0  0  0  0  0  0  0  0  0  # atno 10764 bound_to 10752
  153.7704  135.6985  153.4963 H   0  0  0  0  0  0  0  0  0  0  0  0  # atno 10765 bound_to 10752
  141.0540  133.6732  156.3068 H   0  0  0  0  0  0  0  0  0  0  0  0  # atno 11005 bound_to 11000
  146.1244  139.4267  143.0208 LP  0  0  0  0  0  0  0  0  0  0  0  0  # atno 17320 bound_to 7965
  145.7257  141.0060  143.1378 LP  0  0  0  0  0  0  0  0  0  0  0  0  # atno 17321 bound_to 7965
  139.9912  144.6360  150.7813 LP  0  0  0  0  0  0  0  0  0  0  0  0  # atno 17342 bound_to 10162
  140.7502  143.2952  151.3223 LP  0  0  0  0  0  0  0  0  0  0  0  0  # atno 17343 bound_to 10162
  157.2450  131.0534  151.2414 LP  0  0  0  0  0  0  0  0  0  0  0  0  # atno 17370 bound_to 10713
  157.3584  130.7118  149.6485 LP  0  0  0  0  0  0  0  0  0  0  0  0  # atno 17371 bound_to 10713
  140.6000  134.5565  157.5515 LP  0  0  0  0  0  0  0  0  0  0  0  0  # atno 17394 bound_to 11000
  139.9374  134.7849  156.0766 LP  0  0  0  0  0  0  0  0  0  0  0  0  # atno 17395 bound_to 11000

$$$$
