AV-unprocessed.smi:950|AV-procd|sdf|4250|dock4
  -GOLD-   22720 2153D 1   1.00000     0.00000
 Structure written by MMmdl.
 34 35  0  0  0  0  0  0  0  0  1 V2000
  152.6318  142.6788  162.3792 C   0  0  0  0  0  0  0  0  0  0  0  0
  153.3356  142.5255  161.0266 C   0  0  0  0  0  0  0  0  0  0  0  0
  152.4528  142.8873  159.8800 C   0  0  0  0  0  0  0  0  0  0  0  0
  151.3346  142.2244  159.5761 N   0  0  0  0  0  0  0  0  0  0  0  0
  150.7066  142.7193  158.4280 C   0  0  0  0  0  0  0  0  0  0  0  0
  149.4384  142.0865  157.9294 C   0  0  0  0  0  0  0  0  0  0  0  0
  149.5129  141.6141  156.4625 C   0  0  0  0  0  0  0  0  0  0  0  0
  148.3216  141.9541  155.6905 N   0  0  0  0  0  0  0  0  0  0  0  0
  147.4664  141.0671  155.1619 C   0  0  0  0  0  0  0  0  0  0  0  0
  147.5717  139.8505  155.3226 O   0  0  0  0  0  0  0  0  0  0  0  0
  146.3271  141.6565  154.3209 C   0  0  0  0  0  0  0  0  0  0  0  0
  146.7288  142.8123  153.3860 C   0  0  0  0  0  0  0  0  0  0  0  0
  145.4773  143.5646  153.8485 C   0  0  0  0  0  0  0  0  0  0  0  0
  145.4456  142.6599  155.0836 C   0  0  0  0  0  0  0  0  0  0  0  0
  151.3753  143.7762  157.8620 C   0  0  0  0  0  0  0  0  0  0  0  0
  152.8210  144.1812  158.7463 S   0  0  0  0  0  0  0  0  0  0  0  0
  153.3020  142.4167  163.1978 H   0  0  0  0  0  0  0  0  0  0  0  0
  151.7576  142.0301  162.4427 H   0  0  0  0  0  0  0  0  0  0  0  0
  152.2989  143.7052  162.5358 H   0  0  0  0  0  0  0  0  0  0  0  0
  154.2270  143.1531  160.9975 H   0  0  0  0  0  0  0  0  0  0  0  0
  153.6733  141.4970  160.8969 H   0  0  0  0  0  0  0  0  0  0  0  0
  149.1761  141.2407  158.5661 H   0  0  0  0  0  0  0  0  0  0  0  0
  148.6110  142.7897  158.0300 H   0  0  0  0  0  0  0  0  0  0  0  0
  150.4010  142.0221  155.9775 H   0  0  0  0  0  0  0  0  0  0  0  0
  149.6199  140.5294  156.4374 H   0  0  0  0  0  0  0  0  0  0  0  0
  148.1595  142.9342  155.5099 H   0  0  0  0  0  0  0  0  0  0  0  0
  145.7330  140.9007  153.8034 H   0  0  0  0  0  0  0  0  0  0  0  0
  147.6518  143.3235  153.6649 H   0  0  0  0  0  0  0  0  0  0  0  0
  146.7235  142.5556  152.3264 H   0  0  0  0  0  0  0  0  0  0  0  0
  145.6345  144.6221  154.0631 H   0  0  0  0  0  0  0  0  0  0  0  0
  144.6228  143.4067  153.1888 H   0  0  0  0  0  0  0  0  0  0  0  0
  144.4525  142.2871  155.3345 H   0  0  0  0  0  0  0  0  0  0  0  0
  145.9318  143.1110  155.9507 H   0  0  0  0  0  0  0  0  0  0  0  0
  151.1102  144.3351  156.9770 H   0  0  0  0  0  0  0  0  0  0  0  0
  1  2  1  0  0  0  0
  1 17  1  0  0  0  0
  1 18  1  0  0  0  0
  1 19  1  0  0  0  0
  2  3  1  0  0  0  0
  2 20  1  0  0  0  0
  2 21  1  0  0  0  0
  3 16  1  0  0  0  0
  3  4  2  0  0  0  0
  4  5  1  0  0  0  0
  5  6  1  0  0  0  0
  5 15  2  0  0  0  0
  6  7  1  0  0  0  0
  6 22  1  0  0  0  0
  6 23  1  0  0  0  0
  7  8  1  0  0  0  0
  7 24  1  0  0  0  0
  7 25  1  0  0  0  0
  8  9  1  0  0  0  0
  8 26  1  0  0  0  0
  9 10  2  0  0  0  0
  9 11  1  0  0  0  0
 11 14  1  0  0  0  0
 11 12  1  0  0  0  0
 11 27  1  0  0  0  0
 12 13  1  0  0  0  0
 12 28  1  0  0  0  0
 12 29  1  0  0  0  0
 13 14  1  0  0  0  0
 13 30  1  0  0  0  0
 13 31  1  0  0  0  0
 14 32  1  0  0  0  0
 14 33  1  0  0  0  0
 15 16  1  0  0  0  0
 15 34  1  0  0  0  0
M  END
> <s_m_source_file>
AV-unprocessed.smi

> <i_m_source_file_index>
950

> <i_lp_mmshare_version>
43012

> <i_f3d_flags>
0

> <s_epik_input>
W0NIM11bQ0gyXWMxbmMoW2NIXXMxKVtDSDJdW0NIMl1bTkhdQyg9TylbQ0hdMltDSDJdW0NIMl1bQ0gyXTI=

> <s_epik_cmdline>
J2VwaWtfcHl0aG9uJywgJy1waCcsICc3LjAnLCAnLXRuJywgJzgnLCAnLW1hJywgJzIwMCcsICctbWV0YWxfYmluZGluZycsICctaW1hZScsICc8aW5maWxlLm1hZT4nLCAnLW9tYWUnLCAnPG91dGZpbGUubWFlPic=

> <r_epik_Ionization_Penalty>
0.00109666

> <r_epik_Ionization_Penalty_Charging>
0

> <r_epik_Ionization_Penalty_Neutral>
0.00109666

> <r_epik_State_Penalty>
0.000719322

> <r_epik_Charging_Adjusted_Penalty>
0.000719322

> <i_epik_Tot_Q>
0

> <i_epik_Tot_abs_Q>
0

> <r_epik_Metal_State_Penalty>
-0

> <b_epik_Metal_Only>
0

> <s_lp_Force_Field>
OPLS_2005

> <r_lp_Energy>
2.32113

> <b_lp_Chiralities_Consistent>
1

> <s_lp_Variant>
AV-unprocessed.smi:950-1

> <Gold.Version>
5.8.1

> <Gold.Id.Protein>
6NUR|6NUR_protein|mol2

> <Gold.PLP.Fitness>
42.2348

> <Gold.PLP.PLP>
-37.4021

> <Gold.PLP.part.hbond>
-1.4288

> <Gold.PLP.part.metal>
0.0000

> <Gold.PLP.part.buried>
-4.8432

> <Gold.PLP.part.nonpolar>
-30.9410

> <Gold.PLP.part.repulsive>
0.0877

> <Gold.PLP.ligand.clash>
0.0000

> <Gold.PLP.ligand.torsion>
0.6091

> <Gold.PLP.Chemscore.Hbond>
0.8800

> <Gold.PLP.Chemscore.CHOScore>
1.0000

> <Gold.PLP.Chemscore.Metal>
0.0000

> <Gold.Chemscore.Hbonds>
donor molecule, donor type, donor heavy atom, donor atom, acceptor molecule, acceptor atom, score
      L1  H     8    26       P1  8028  0.93
      L1  C    15    34       P1  8028  0.87

> <Gold.PLP.Chemscore.Internal.Correction>
0.4109

> <Gold.Rescore>
     Score         DG    S(hbond)    S(metal)    S(lipo)     H(rot)  DE(clash)    DE(int)     intcor
     14.89     -17.02       0.87        0.00     106.70       1.51       1.53       0.60       ----

> <Gold.Chemscore.Fitness>
14.8888

> <Gold.Chemscore.DG>
-17.0188

> <Gold.Chemscore.ZeroCoef>
-5.4800

> <Gold.Chemscore.Hbond>
0.8742

> <Gold.Chemscore.Metal>
0.0000

> <Gold.Chemscore.Lipo>
106.6954

> <Gold.Chemscore.Internal_Hbond>
0.0000

> <Gold.Chemscore.DEClash>
1.5305

> <Gold.Chemscore.DEInternal>
0.5994

> <Gold.Chemscore.Rot>
1.5096

> <Gold.Chemscore.Internal.Correction>
   9.000000E+99

> <Gold.Chemscore.Hbonds>
donor molecule, donor type, donor heavy atom, donor atom, acceptor molecule, acceptor atom, score
      L1  H     8    26       P1  8028  0.86

> <Gold.Chemscore.Hbond.Weighted>
-2.9200

> <Gold.Chemscore.Metal.Weighted>
-0.0000

> <Gold.Chemscore.Lipo.Weighted>
-12.4834

> <Gold.Chemscore.Internal_Hbond.Weighted>
0.0000

> <Gold.Chemscore.DEClash.Weighted>
1.5305

> <Gold.Chemscore.DEInternal.Weighted>
0.5994

> <Gold.Chemscore.Rot.Weighted>
3.8646

> <Gold.Chemscore.Internal.Correction.Weighted>
   9.000000E+99

> <Gold.Protein.RotatedTorsions>
[ 6907 6896 6895 6894 ] final  158.98 input  -60.11 | X-H torsion
[ 7974 7965 7964 7962 ] final -132.74 input  175.53 | X-H torsion
[ 8008 7997 7996 7995 ] final   36.64 input   59.86 | X-H torsion
[ 10167 10162 10161 10158 ] final  -72.81 input  -65.29 | X-H torsion
[ 10718 10713 10712 10709 ] final   49.60 input   66.30 | X-H torsion
[ 10763 10752 10751 10750 ] final  144.79 input  -60.55 | X-H torsion
[ 11005 11000 10999 10996 ] final  -54.94 input  -57.11 | X-H torsion

> <Gold.Protein.ActiveResidues>
 VAL166  LYS551  ARG553  GLY616  TRP617  ASP618  TYR619  PRO620  LYS621  CYS622 
 ASP623  PHE694  ASN695  SER759  ASP760  ASP761  ALA762  ILE779  LEU786  VAL792 
 PHE793  MET794  SER795  GLU796  ALA797  LYS798  CYS799  TRP800  GLU811  SER814 

> <Gold.Protein.RotatedAtoms>
  151.9923  133.3795  159.4148 H   0  0  0  0  0  0  0  0  0  0  0  0  # atno 6907 bound_to 6896
  150.6920  134.3923  159.5091 H   0  0  0  0  0  0  0  0  0  0  0  0  # atno 6908 bound_to 6896
  152.1658  134.8874  160.0589 H   0  0  0  0  0  0  0  0  0  0  0  0  # atno 6909 bound_to 6896
  144.9258  140.7069  143.4937 H   0  0  0  0  0  0  0  0  0  0  0  0  # atno 7974 bound_to 7965
  155.1908  140.3307  155.4359 H   0  0  0  0  0  0  0  0  0  0  0  0  # atno 8008 bound_to 7997
  156.2443  140.1910  156.6951 H   0  0  0  0  0  0  0  0  0  0  0  0  # atno 8009 bound_to 7997
  154.6207  140.0596  156.9597 H   0  0  0  0  0  0  0  0  0  0  0  0  # atno 8010 bound_to 7997
  140.5162  143.2338  151.7509 H   0  0  0  0  0  0  0  0  0  0  0  0  # atno 10167 bound_to 10162
  157.4803  130.8310  149.8085 H   0  0  0  0  0  0  0  0  0  0  0  0  # atno 10718 bound_to 10713
  153.9946  135.2929  155.3408 H   0  0  0  0  0  0  0  0  0  0  0  0  # atno 10763 bound_to 10752
  154.7195  135.5115  153.8792 H   0  0  0  0  0  0  0  0  0  0  0  0  # atno 10764 bound_to 10752
  153.0794  135.6674  154.0195 H   0  0  0  0  0  0  0  0  0  0  0  0  # atno 10765 bound_to 10752
  141.1050  133.6614  156.4395 H   0  0  0  0  0  0  0  0  0  0  0  0  # atno 11005 bound_to 11000
  145.3222  139.1785  143.4581 LP  0  0  0  0  0  0  0  0  0  0  0  0  # atno 17320 bound_to 7965
  146.3225  140.3241  142.8635 LP  0  0  0  0  0  0  0  0  0  0  0  0  # atno 17321 bound_to 7965
  139.4910  144.4320  151.9861 LP  0  0  0  0  0  0  0  0  0  0  0  0  # atno 17342 bound_to 10162
  140.3415  144.3198  150.5966 LP  0  0  0  0  0  0  0  0  0  0  0  0  # atno 17343 bound_to 10162
  156.0118  130.3830  150.2240 LP  0  0  0  0  0  0  0  0  0  0  0  0  # atno 17370 bound_to 10713
  157.0426  131.0039  151.3279 LP  0  0  0  0  0  0  0  0  0  0  0  0  # atno 17371 bound_to 10713
  140.4926  134.6561  157.5217 LP  0  0  0  0  0  0  0  0  0  0  0  0  # atno 17394 bound_to 11000
  139.9916  134.6976  155.9680 LP  0  0  0  0  0  0  0  0  0  0  0  0  # atno 17395 bound_to 11000

$$$$
