AV-unprocessed.smi:2904|AV-procd|sdf|11160|dock4
  -GOLD-   2272016 43D 1   1.00000     0.00000
 Structure written by MMmdl.
 39 40  0  0  0  0  0  0  0  0  1 V2000
  150.7470  141.5855  156.0685 C   0  0  0  0  0  0  0  0  0  0  0  0
  151.4136  141.8921  157.3788 C   0  0  0  0  0  0  0  0  0  0  0  0
  151.5646  143.1524  157.7488 N   0  0  0  0  0  0  0  0  0  0  0  0
  152.1659  143.0902  158.9552 N   0  0  0  0  0  0  0  0  0  0  0  0
  152.5116  144.3208  159.6461 C   0  0  0  0  0  0  0  0  0  0  0  0
  152.0414  145.3670  158.9679 F   0  0  0  0  0  0  0  0  0  0  0  0
  152.0133  144.3203  160.8835 F   0  0  0  0  0  0  0  0  0  0  0  0
  152.4273  141.7857  159.3289 C   0  0  0  0  0  0  0  0  0  0  0  0
  153.1123  141.4475  160.6130 C   0  0  0  0  0  0  0  0  0  0  0  0
  151.9445  140.9772  158.3344 C   0  0  0  0  0  0  0  0  0  0  0  0
  151.9610  139.4693  158.2485 C   0  0  0  0  0  0  0  0  0  0  0  0
  153.2316  138.8759  158.8703 C   0  0  0  0  0  0  0  0  0  0  0  0
  154.3099  138.9047  158.2745 O   0  0  0  0  0  0  0  0  0  0  0  0
  153.0832  138.3326  160.0880 N   0  0  0  0  0  0  0  0  0  0  0  0
  154.1503  137.7139  160.8691 C   0  0  0  0  0  0  0  0  0  0  0  0
  154.6666  136.4600  160.1486 C   0  0  0  0  0  0  0  0  0  0  0  0
  155.6887  135.7148  161.0224 C   0  0  0  0  0  0  0  0  0  0  0  0
  155.1060  135.3858  162.2791 O   0  0  0  0  0  0  0  0  0  0  0  0
  154.7241  136.5328  163.0311 C   0  0  0  0  0  0  0  0  0  0  0  0
  153.6495  137.3273  162.2712 C   0  0  0  0  0  0  0  0  0  0  0  0
  150.1597  140.6691  156.1317 H   0  0  0  0  0  0  0  0  0  0  0  0
  151.4857  141.4533  155.2779 H   0  0  0  0  0  0  0  0  0  0  0  0
  150.0723  142.3867  155.7649 H   0  0  0  0  0  0  0  0  0  0  0  0
  153.5935  144.4246  159.7267 H   0  0  0  0  0  0  0  0  0  0  0  0
  153.3101  140.3785  160.6883 H   0  0  0  0  0  0  0  0  0  0  0  0
  152.4954  141.7321  161.4654 H   0  0  0  0  0  0  0  0  0  0  0  0
  154.0658  141.9698  160.6932 H   0  0  0  0  0  0  0  0  0  0  0  0
  151.0957  139.0434  158.7577 H   0  0  0  0  0  0  0  0  0  0  0  0
  151.8939  139.1318  157.2142 H   0  0  0  0  0  0  0  0  0  0  0  0
  152.1642  138.3502  160.5062 H   0  0  0  0  0  0  0  0  0  0  0  0
  154.9809  138.4157  160.9684 H   0  0  0  0  0  0  0  0  0  0  0  0
  153.8347  135.7912  159.9230 H   0  0  0  0  0  0  0  0  0  0  0  0
  155.1187  136.7311  159.1940 H   0  0  0  0  0  0  0  0  0  0  0  0
  156.0029  134.7954  160.5284 H   0  0  0  0  0  0  0  0  0  0  0  0
  156.5856  136.3178  161.1722 H   0  0  0  0  0  0  0  0  0  0  0  0
  154.3358  136.2070  163.9963 H   0  0  0  0  0  0  0  0  0  0  0  0
  155.5969  137.1553  163.2336 H   0  0  0  0  0  0  0  0  0  0  0  0
  153.3751  138.2178  162.8379 H   0  0  0  0  0  0  0  0  0  0  0  0
  152.7473  136.7196  162.1884 H   0  0  0  0  0  0  0  0  0  0  0  0
  1  2  1  0  0  0  0
  1 21  1  0  0  0  0
  1 22  1  0  0  0  0
  1 23  1  0  0  0  0
  2 10  1  0  0  0  0
  2  3  2  0  0  0  0
  3  4  1  0  0  0  0
  4  5  1  0  0  0  0
  4  8  1  0  0  0  0
  5  6  1  0  0  0  0
  5  7  1  0  0  0  0
  5 24  1  0  0  0  0
  8  9  1  0  0  0  0
  8 10  2  0  0  0  0
  9 25  1  0  0  0  0
  9 26  1  0  0  0  0
  9 27  1  0  0  0  0
 10 11  1  0  0  0  0
 11 12  1  0  0  0  0
 11 28  1  0  0  0  0
 11 29  1  0  0  0  0
 12 13  2  0  0  0  0
 12 14  1  0  0  0  0
 14 15  1  0  0  0  0
 14 30  1  0  0  0  0
 15 20  1  0  0  0  0
 15 16  1  0  0  0  0
 15 31  1  0  0  0  0
 16 17  1  0  0  0  0
 16 32  1  0  0  0  0
 16 33  1  0  0  0  0
 17 18  1  0  0  0  0
 17 34  1  0  0  0  0
 17 35  1  0  0  0  0
 18 19  1  0  0  0  0
 19 20  1  0  0  0  0
 19 36  1  0  0  0  0
 19 37  1  0  0  0  0
 20 38  1  0  0  0  0
 20 39  1  0  0  0  0
M  END
> <s_m_source_file>
AV-unprocessed.smi

> <i_m_source_file_index>
2904

> <i_lp_mmshare_version>
43012

> <i_f3d_flags>
0

> <s_epik_input>
W0NIM11jMW5uKFtDSF0oRilGKWMoW0NIM10pYzFbQ0gyXUMoPU8pW05IXVtDSF0yW0NIMl1bQ0gyXU9bQ0gyXVtDSDJdMg==

> <s_epik_cmdline>
J2VwaWtfcHl0aG9uJywgJy1waCcsICc3LjAnLCAnLXRuJywgJzgnLCAnLW1hJywgJzIwMCcsICctbWV0YWxfYmluZGluZycsICctaW1hZScsICc8aW5maWxlLm1hZT4nLCAnLW9tYWUnLCAnPG91dGZpbGUubWFlPic=

> <r_lp_tautomer_probability>
1

> <r_epik_Ionization_Penalty>
3.9362e-07

> <r_epik_Ionization_Penalty_Charging>
0

> <r_epik_Ionization_Penalty_Neutral>
3.9362e-07

> <r_epik_State_Penalty>
-0

> <r_epik_Charging_Adjusted_Penalty>
0

> <i_epik_Tot_Q>
0

> <i_epik_Tot_abs_Q>
0

> <r_epik_Metal_State_Penalty>
-0

> <b_epik_Metal_Only>
0

> <s_lp_Force_Field>
OPLS_2005

> <r_lp_Energy>
7.93396

> <b_lp_Chiralities_Consistent>
1

> <s_lp_Variant>
AV-unprocessed.smi:2904-1

> <Gold.Version>
5.8.1

> <Gold.Id.Protein>
6NUR|6NUR_protein|mol2

> <Gold.PLP.Fitness>
43.7065

> <Gold.PLP.PLP>
-41.9725

> <Gold.PLP.part.hbond>
-1.0000

> <Gold.PLP.part.metal>
0.0000

> <Gold.PLP.part.buried>
-5.7966

> <Gold.PLP.part.nonpolar>
-35.6125

> <Gold.PLP.part.repulsive>
0.1683

> <Gold.PLP.ligand.clash>
0.0000

> <Gold.PLP.ligand.torsion>
0.6441

> <Gold.PLP.Chemscore.Hbond>
1.0000

> <Gold.PLP.Chemscore.CHOScore>
0.0000

> <Gold.PLP.Chemscore.Metal>
0.0000

> <Gold.Chemscore.Hbonds>
donor molecule, donor type, donor heavy atom, donor atom, acceptor molecule, acceptor atom, score
      P1  H  7997  8010       L1    13  1.00

> <Gold.PLP.Chemscore.Internal.Correction>
0.0222

> <Gold.Rescore>
     Score         DG    S(hbond)    S(metal)    S(lipo)     H(rot)  DE(clash)    DE(int)     intcor
     14.99     -15.64       1.00        0.00      89.87       1.44       0.04       0.61       ----

> <Gold.Chemscore.Fitness>
14.9920

> <Gold.Chemscore.DG>
-15.6433

> <Gold.Chemscore.ZeroCoef>
-5.4800

> <Gold.Chemscore.Hbond>
1.0000

> <Gold.Chemscore.Metal>
0.0000

> <Gold.Chemscore.Lipo>
89.8681

> <Gold.Chemscore.Internal_Hbond>
0.0000

> <Gold.Chemscore.DEClash>
0.0398

> <Gold.Chemscore.DEInternal>
0.6115

> <Gold.Chemscore.Rot>
1.4419

> <Gold.Chemscore.Internal.Correction>
   9.000000E+99

> <Gold.Chemscore.Hbonds>
donor molecule, donor type, donor heavy atom, donor atom, acceptor molecule, acceptor atom, score
      P1  H  7997  8010       L1    13  0.99

> <Gold.Chemscore.Hbond.Weighted>
-3.3400

> <Gold.Chemscore.Metal.Weighted>
-0.0000

> <Gold.Chemscore.Lipo.Weighted>
-10.5146

> <Gold.Chemscore.Internal_Hbond.Weighted>
0.0000

> <Gold.Chemscore.DEClash.Weighted>
0.0398

> <Gold.Chemscore.DEInternal.Weighted>
0.6115

> <Gold.Chemscore.Rot.Weighted>
3.6913

> <Gold.Chemscore.Internal.Correction.Weighted>
   9.000000E+99

> <Gold.Protein.RotatedTorsions>
[ 6907 6896 6895 6894 ] final -173.58 input  -60.11 | X-H torsion
[ 7974 7965 7964 7962 ] final -161.48 input  175.53 | X-H torsion
[ 8008 7997 7996 7995 ] final   11.10 input   59.86 | X-H torsion
[ 10167 10162 10161 10158 ] final -131.49 input  -65.29 | X-H torsion
[ 10718 10713 10712 10709 ] final  112.34 input   66.30 | X-H torsion
[ 10763 10752 10751 10750 ] final  169.57 input  -60.55 | X-H torsion
[ 11005 11000 10999 10996 ] final -174.10 input  -57.11 | X-H torsion

> <Gold.Protein.ActiveResidues>
 VAL166  LYS551  ARG553  GLY616  TRP617  ASP618  TYR619  PRO620  LYS621  CYS622 
 ASP623  PHE694  ASN695  SER759  ASP760  ASP761  ALA762  ILE779  LEU786  VAL792 
 PHE793  MET794  SER795  GLU796  ALA797  LYS798  CYS799  TRP800  GLU811  SER814 

> <Gold.Protein.RotatedAtoms>
  151.5585  133.3406  159.2966 H   0  0  0  0  0  0  0  0  0  0  0  0  # atno 6907 bound_to 6896
  150.8436  134.7740  159.6964 H   0  0  0  0  0  0  0  0  0  0  0  0  # atno 6908 bound_to 6896
  152.4499  134.5423  159.9894 H   0  0  0  0  0  0  0  0  0  0  0  0  # atno 6909 bound_to 6896
  144.7390  140.3392  143.6138 H   0  0  0  0  0  0  0  0  0  0  0  0  # atno 7974 bound_to 7965
  154.8024  140.2854  155.5912 H   0  0  0  0  0  0  0  0  0  0  0  0  # atno 8008 bound_to 7997
  156.2979  140.2584  156.2824 H   0  0  0  0  0  0  0  0  0  0  0  0  # atno 8009 bound_to 7997
  154.9542  140.0379  157.2148 H   0  0  0  0  0  0  0  0  0  0  0  0  # atno 8010 bound_to 7997
  139.9183  143.6412  152.2559 H   0  0  0  0  0  0  0  0  0  0  0  0  # atno 10167 bound_to 10162
  157.6398  131.0966  150.6880 H   0  0  0  0  0  0  0  0  0  0  0  0  # atno 10718 bound_to 10713
  154.3851  135.2753  155.2188 H   0  0  0  0  0  0  0  0  0  0  0  0  # atno 10763 bound_to 10752
  154.4279  135.5984  153.6054 H   0  0  0  0  0  0  0  0  0  0  0  0  # atno 10764 bound_to 10752
  152.9833  135.5988  154.4098 H   0  0  0  0  0  0  0  0  0  0  0  0  # atno 10765 bound_to 10752
  140.4783  134.6099  157.4909 H   0  0  0  0  0  0  0  0  0  0  0  0  # atno 11005 bound_to 11000
  145.7392  139.1759  143.2386 LP  0  0  0  0  0  0  0  0  0  0  0  0  # atno 17320 bound_to 7965
  146.1147  140.7384  142.9486 LP  0  0  0  0  0  0  0  0  0  0  0  0  # atno 17321 bound_to 7965
  139.6883  144.7649  151.1484 LP  0  0  0  0  0  0  0  0  0  0  0  0  # atno 17342 bound_to 10162
  140.7668  143.5625  150.9083 LP  0  0  0  0  0  0  0  0  0  0  0  0  # atno 17343 bound_to 10162
  156.7206  130.4679  149.5524 LP  0  0  0  0  0  0  0  0  0  0  0  0  # atno 17370 bound_to 10713
  156.1668  130.6410  151.0788 LP  0  0  0  0  0  0  0  0  0  0  0  0  # atno 17371 bound_to 10713
  139.9842  134.7088  155.9804 LP  0  0  0  0  0  0  0  0  0  0  0  0  # atno 17394 bound_to 11000
  141.1543  133.6544  156.4113 LP  0  0  0  0  0  0  0  0  0  0  0  0  # atno 17395 bound_to 11000

$$$$
