AV-unprocessed.smi:65|AV-procd|sdf|614|dock3
  -GOLD-   2262016503D 1   1.00000     0.00000
 Structure written by MMmdl.
 25 26  0  0  0  0  0  0  0  0  1 V2000
  146.2174  139.3540  153.0661 N   0  0  0  0  0  0  0  0  0  0  0  0
  147.2334  139.9633  153.7607 C   0  0  0  0  0  0  0  0  0  0  0  0
  146.9265  141.0944  154.3986 N   0  0  0  0  0  0  0  0  0  0  0  0
  147.9262  141.6965  155.0789 C   0  0  0  0  0  0  0  0  0  0  0  0
  149.2289  141.1590  155.1156 C   0  0  0  0  0  0  0  0  0  0  0  0
  149.4336  139.9539  154.4108 C   0  0  0  0  0  0  0  0  0  0  0  0
  150.7116  139.3746  154.3875 N   0  0  0  0  0  0  0  0  0  0  0  0
  150.6956  137.9142  154.4055 C   0  0  0  0  0  0  0  0  0  0  0  0
  151.5855  137.4820  155.5735 C   0  0  0  0  0  0  0  0  0  0  0  0
  152.5555  138.6501  155.7026 C   0  0  2  0  0  0  0  0  0  0  0  0
  153.1384  138.7323  156.9857 O   0  0  0  0  0  0  0  0  0  0  0  0
  151.6615  139.8485  155.3910 C   0  0  0  0  0  0  0  0  0  0  0  0
  148.4247  139.3626  153.7256 N   0  0  0  0  0  0  0  0  0  0  0  0
  146.3861  138.4959  152.5618 H   0  0  0  0  0  0  0  0  0  0  0  0
  145.2938  139.7615  153.0496 H   0  0  0  0  0  0  0  0  0  0  0  0
  147.6863  142.6138  155.5956 H   0  0  0  0  0  0  0  0  0  0  0  0
  150.0263  141.6464  155.6574 H   0  0  0  0  0  0  0  0  0  0  0  0
  149.6904  137.4998  154.4983 H   0  0  0  0  0  0  0  0  0  0  0  0
  151.1114  137.5590  153.4620 H   0  0  0  0  0  0  0  0  0  0  0  0
  150.9803  137.3933  156.4773 H   0  0  0  0  0  0  0  0  0  0  0  0
  152.0817  136.5263  155.4022 H   0  0  0  0  0  0  0  0  0  0  0  0
  153.3395  138.5644  154.9485 H   0  0  0  0  0  0  0  0  0  0  0  0
  152.4612  138.6035  157.6322 H   0  0  0  0  0  0  0  0  0  0  0  0
  152.2419  140.6890  155.0098 H   0  0  0  0  0  0  0  0  0  0  0  0
  151.1516  140.1825  156.2954 H   0  0  0  0  0  0  0  0  0  0  0  0
  1  2  1  0  0  0  0
  1 14  1  0  0  0  0
  1 15  1  0  0  0  0
  2 13  1  0  0  0  0
  2  3  2  0  0  0  0
  3  4  1  0  0  0  0
  4  5  2  0  0  0  0
  4 16  1  0  0  0  0
  5  6  1  0  0  0  0
  5 17  1  0  0  0  0
  6  7  1  0  0  0  0
  6 13  2  0  0  0  0
  7 12  1  0  0  0  0
  7  8  1  0  0  0  0
  8  9  1  0  0  0  0
  8 18  1  0  0  0  0
  8 19  1  0  0  0  0
  9 10  1  0  0  0  0
  9 20  1  0  0  0  0
  9 21  1  0  0  0  0
 10 11  1  0  0  0  0
 10 12  1  0  0  0  0
 10 22  1  0  0  0  0
 11 23  1  0  0  0  0
 12 24  1  0  0  0  0
 12 25  1  0  0  0  0
M  END
> <s_m_source_file>
AV-unprocessed.smi

> <i_m_source_file_index>
65

> <i_lp_mmshare_version>
43012

> <i_f3d_flags>
0

> <s_epik_input>
W05IMl1jMW5bY0hdW2NIXWMobjEpTjJbQ0gyXVtDSDJdW0NAQEhdKFtPSF0pW0NIMl0y

> <s_epik_cmdline>
J2VwaWtfcHl0aG9uJywgJy1waCcsICc3LjAnLCAnLXRuJywgJzgnLCAnLW1hJywgJzIwMCcsICctbWV0YWxfYmluZGluZycsICctaW1hZScsICc8aW5maWxlLm1hZT4nLCAnLW9tYWUnLCAnPG91dGZpbGUubWFlPic=

> <r_lp_tautomer_probability>
1

> <r_epik_Ionization_Penalty>
0.99295

> <r_epik_Ionization_Penalty_Charging>
0

> <r_epik_Ionization_Penalty_Neutral>
0.99295

> <r_epik_State_Penalty>
0.750885

> <r_epik_Charging_Adjusted_Penalty>
0.750885

> <i_epik_Tot_Q>
0

> <i_epik_Tot_abs_Q>
0

> <r_epik_Metal_State_Penalty>
0.338511

> <b_epik_Metal_Only>
0

> <s_lp_Force_Field>
OPLS_2005

> <r_lp_Energy>
21.5088

> <b_lp_Chiralities_Consistent>
1

> <s_lp_Variant>
AV-unprocessed.smi:65-4

> <Gold.Version>
5.8.1

> <Gold.Id.Protein>
6NUR|6NUR_protein|mol2

> <Gold.PLP.Fitness>
29.9589

> <Gold.PLP.PLP>
-21.9639

> <Gold.PLP.part.hbond>
-3.0000

> <Gold.PLP.part.metal>
0.0000

> <Gold.PLP.part.buried>
-2.3140

> <Gold.PLP.part.nonpolar>
-18.5281

> <Gold.PLP.part.repulsive>
1.8176

> <Gold.PLP.ligand.clash>
0.0000

> <Gold.PLP.ligand.torsion>
0.5355

> <Gold.PLP.Chemscore.Hbond>
2.0000

> <Gold.PLP.Chemscore.CHOScore>
1.0000

> <Gold.PLP.Chemscore.Metal>
0.0000

> <Gold.Chemscore.Hbonds>
donor molecule, donor type, donor heavy atom, donor atom, acceptor molecule, acceptor atom, score
      L1  H     1    15       P1 10175  1.00
      P1  H  7997  8009       L1    11  1.00
      L1  C     4    16       P1  8028  1.00

> <Gold.PLP.Chemscore.Internal.Correction>
0.0659

> <Gold.Rescore>
     Score         DG    S(hbond)    S(metal)    S(lipo)     H(rot)  DE(clash)    DE(int)     intcor
     12.02     -12.88       1.96        0.00      41.25       1.55       0.31       0.54       ----

> <Gold.Chemscore.Fitness>
12.0164

> <Gold.Chemscore.DG>
-12.8761

> <Gold.Chemscore.ZeroCoef>
-5.4800

> <Gold.Chemscore.Hbond>
1.9573

> <Gold.Chemscore.Metal>
0.0000

> <Gold.Chemscore.Lipo>
41.2459

> <Gold.Chemscore.Internal_Hbond>
0.0000

> <Gold.Chemscore.DEClash>
0.3148

> <Gold.Chemscore.DEInternal>
0.5449

> <Gold.Chemscore.Rot>
1.5496

> <Gold.Chemscore.Internal.Correction>
   9.000000E+99

> <Gold.Chemscore.Hbonds>
donor molecule, donor type, donor heavy atom, donor atom, acceptor molecule, acceptor atom, score
      L1  H     1    15       P1 10175  1.00
      P1  H  7997  8009       L1    11  0.49

> <Gold.Chemscore.Hbond.Weighted>
-6.5374

> <Gold.Chemscore.Metal.Weighted>
-0.0000

> <Gold.Chemscore.Lipo.Weighted>
-4.8258

> <Gold.Chemscore.Internal_Hbond.Weighted>
0.0000

> <Gold.Chemscore.DEClash.Weighted>
0.3148

> <Gold.Chemscore.DEInternal.Weighted>
0.5449

> <Gold.Chemscore.Rot.Weighted>
3.9670

> <Gold.Chemscore.Internal.Correction.Weighted>
   9.000000E+99

> <Gold.Protein.RotatedTorsions>
[ 6907 6896 6895 6894 ] final   19.46 input  -60.11 | X-H torsion
[ 7974 7965 7964 7962 ] final  -94.39 input  175.53 | X-H torsion
[ 8008 7997 7996 7995 ] final  167.93 input   59.86 | X-H torsion
[ 10167 10162 10161 10158 ] final  147.82 input  -65.29 | X-H torsion
[ 10718 10713 10712 10709 ] final   89.08 input   66.30 | X-H torsion
[ 10763 10752 10751 10750 ] final  -56.39 input  -60.55 | X-H torsion
[ 11005 11000 10999 10996 ] final  -20.84 input  -57.11 | X-H torsion

> <Gold.Protein.ActiveResidues>
 VAL166  LYS551  ARG553  GLY616  TRP617  ASP618  TYR619  PRO620  LYS621  CYS622 
 ASP623  PHE694  ASN695  SER759  ASP760  ASP761  ALA762  ILE779  LEU786  VAL792 
 PHE793  MET794  SER795  GLU796  ALA797  LYS798  CYS799  TRP800  GLU811  SER814 

> <Gold.Protein.RotatedAtoms>
  151.8812  135.0453  160.0488 H   0  0  0  0  0  0  0  0  0  0  0  0  # atno 6907 bound_to 6896
  152.2511  133.5211  159.5334 H   0  0  0  0  0  0  0  0  0  0  0  0  # atno 6908 bound_to 6896
  150.7084  134.0875  159.3962 H   0  0  0  0  0  0  0  0  0  0  0  0  # atno 6909 bound_to 6896
  145.3739  140.9509  143.2431 H   0  0  0  0  0  0  0  0  0  0  0  0  # atno 7974 bound_to 7965
  156.1591  140.1604  156.8643 H   0  0  0  0  0  0  0  0  0  0  0  0  # atno 8008 bound_to 7997
  154.5143  140.0793  156.8087 H   0  0  0  0  0  0  0  0  0  0  0  0  # atno 8009 bound_to 7997
  155.3744  140.3402  155.4246 H   0  0  0  0  0  0  0  0  0  0  0  0  # atno 8010 bound_to 7997
  139.4884  144.5726  151.7025 H   0  0  0  0  0  0  0  0  0  0  0  0  # atno 10167 bound_to 10162
  157.6953  131.0319  150.3372 H   0  0  0  0  0  0  0  0  0  0  0  0  # atno 10718 bound_to 10713
  154.2060  135.6403  153.5101 H   0  0  0  0  0  0  0  0  0  0  0  0  # atno 10763 bound_to 10752
  153.0001  135.5462  154.6265 H   0  0  0  0  0  0  0  0  0  0  0  0  # atno 10764 bound_to 10752
  154.5690  135.2915  155.0819 H   0  0  0  0  0  0  0  0  0  0  0  0  # atno 10765 bound_to 10752
  140.8503  133.7861  155.9959 H   0  0  0  0  0  0  0  0  0  0  0  0  # atno 11005 bound_to 11000
  144.8556  139.5254  143.6836 LP  0  0  0  0  0  0  0  0  0  0  0  0  # atno 17320 bound_to 7965
  146.2873  139.7039  142.9186 LP  0  0  0  0  0  0  0  0  0  0  0  0  # atno 17321 bound_to 7965
  140.5317  144.0720  150.6056 LP  0  0  0  0  0  0  0  0  0  0  0  0  # atno 17342 bound_to 10162
  140.3712  143.2853  152.0275 LP  0  0  0  0  0  0  0  0  0  0  0  0  # atno 17343 bound_to 10162
  156.3838  130.3885  149.7082 LP  0  0  0  0  0  0  0  0  0  0  0  0  # atno 17370 bound_to 10713
  156.4455  130.7881  151.2903 LP  0  0  0  0  0  0  0  0  0  0  0  0  # atno 17371 bound_to 10713
  140.8797  134.2626  157.5150 LP  0  0  0  0  0  0  0  0  0  0  0  0  # atno 17394 bound_to 11000
  139.8704  134.9609  156.4378 LP  0  0  0  0  0  0  0  0  0  0  0  0  # atno 17395 bound_to 11000

$$$$
