AV-unprocessed.smi:100|AV-procd|sdf|907|dock6
  -GOLD-   2262017403D 1   1.00000     0.00000
 Structure written by MMmdl.
 31 33  0  0  0  0  0  0  0  0  1 V2000
  154.6454  141.7636  162.6252 N   0  0  0  0  0  0  0  0  0  0  0  0
  154.5592  141.0864  161.4718 C   0  0  0  0  0  0  0  0  0  0  0  0
  155.4726  140.1185  161.2246 N   0  0  0  0  0  0  0  0  0  0  0  0
  155.4058  139.4278  160.0819 C   0  0  0  0  0  0  0  0  0  0  0  0
  154.5271  139.5478  159.0834 N   0  0  0  0  0  0  0  0  0  0  0  0
  153.6083  140.5267  159.3320 C   0  0  0  0  0  0  0  0  0  0  0  0
  153.5566  141.3365  160.5008 C   0  0  0  0  0  0  0  0  0  0  0  0
  152.4909  142.2221  160.4174 N   0  0  0  0  0  0  0  0  0  0  0  0
  151.9462  141.9483  159.2626 C   0  0  0  0  0  0  0  0  0  0  0  0
  152.5567  140.9455  158.5405 N   0  0  0  0  0  0  0  0  0  0  0  0
  152.1618  140.4269  157.1913 C   0  0  2  0  0  0  0  0  0  0  0  0
  151.2772  141.3312  156.6040 O   0  0  0  0  0  0  0  0  0  0  0  0
  150.3006  140.6023  155.8683 C   0  0  2  0  0  0  0  0  0  0  0  0
  149.0586  141.4655  155.5957 C   0  0  0  0  0  0  0  0  0  0  0  0
  149.2696  142.2697  154.4544 O   0  0  0  0  0  0  0  0  0  0  0  0
  150.0450  139.3904  156.7683 C   0  0  2  0  0  0  0  0  0  0  0  0
  149.2586  139.7494  157.7858 F   0  0  0  0  0  0  0  0  0  0  0  0
  151.4509  139.0577  157.2485 C   0  0  2  0  0  0  0  0  0  0  0  0
  151.4570  138.4042  158.5058 O   0  0  0  0  0  0  0  0  0  0  0  0
  153.9751  142.4900  162.8323 H   0  0  0  0  0  0  0  0  0  0  0  0
  155.3775  141.5445  163.2849 H   0  0  0  0  0  0  0  0  0  0  0  0
  156.1642  138.6708  159.9469 H   0  0  0  0  0  0  0  0  0  0  0  0
  151.0780  142.4790  158.9000 H   0  0  0  0  0  0  0  0  0  0  0  0
  153.0942  140.3925  156.6255 H   0  0  0  0  0  0  0  0  0  0  0  0
  150.7409  140.2558  154.9311 H   0  0  0  0  0  0  0  0  0  0  0  0
  148.1968  140.8295  155.3919 H   0  0  0  0  0  0  0  0  0  0  0  0
  148.8086  142.0855  156.4574 H   0  0  0  0  0  0  0  0  0  0  0  0
  149.2561  143.1769  154.7190 H   0  0  0  0  0  0  0  0  0  0  0  0
  149.5584  138.5626  156.2520 H   0  0  0  0  0  0  0  0  0  0  0  0
  151.9361  138.4095  156.5177 H   0  0  0  0  0  0  0  0  0  0  0  0
  152.3267  138.0727  158.6684 H   0  0  0  0  0  0  0  0  0  0  0  0
  1  2  1  0  0  0  0
  1 20  1  0  0  0  0
  1 21  1  0  0  0  0
  2  7  1  0  0  0  0
  2  3  2  0  0  0  0
  3  4  1  0  0  0  0
  4  5  2  0  0  0  0
  4 22  1  0  0  0  0
  5  6  1  0  0  0  0
  6 10  1  0  0  0  0
  6  7  2  0  0  0  0
  7  8  1  0  0  0  0
  8  9  2  0  0  0  0
  9 10  1  0  0  0  0
  9 23  1  0  0  0  0
 10 11  1  0  0  0  0
 11 18  1  0  0  0  0
 11 12  1  0  0  0  0
 11 24  1  0  0  0  0
 12 13  1  0  0  0  0
 13 14  1  0  0  0  0
 13 16  1  0  0  0  0
 13 25  1  0  0  0  0
 14 15  1  0  0  0  0
 14 26  1  0  0  0  0
 14 27  1  0  0  0  0
 15 28  1  0  0  0  0
 16 17  1  0  0  0  0
 16 18  1  0  0  0  0
 16 29  1  0  0  0  0
 18 19  1  0  0  0  0
 18 30  1  0  0  0  0
 19 31  1  0  0  0  0
M  END
> <s_m_source_file>
AV-unprocessed.smi

> <i_m_source_file_index>
100

> <i_lp_mmshare_version>
43012

> <i_f3d_flags>
0

> <s_epik_input>
bjFbY0hdbmMoW05IMl0pYyhjMTIpbltjSF1uMltDQEBIXTNPW0NAQEhdKFtDSDJdW09IXSlbQ0BIXShGKVtDQEhdM1tPSF0=

> <s_epik_cmdline>
J2VwaWtfcHl0aG9uJywgJy1waCcsICc3LjAnLCAnLXRuJywgJzgnLCAnLW1hJywgJzIwMCcsICctbWV0YWxfYmluZGluZycsICctaW1hZScsICc8aW5maWxlLm1hZT4nLCAnLW9tYWUnLCAnPG91dGZpbGUubWFlPic=

> <r_lp_tautomer_probability>
1

> <r_epik_Ionization_Penalty>
0.000750324

> <r_epik_Ionization_Penalty_Charging>
0

> <r_epik_Ionization_Penalty_Neutral>
0.000750324

> <r_epik_State_Penalty>
-0

> <r_epik_Charging_Adjusted_Penalty>
0

> <i_epik_Tot_Q>
0

> <i_epik_Tot_abs_Q>
0

> <r_epik_Metal_State_Penalty>
-0

> <b_epik_Metal_Only>
0

> <s_epik_Chemistry_Notes>
This compound contains an acetal/aminal-like group ( X-CH(R)-Y where X, Y are N, S, or O) that may be acid/base labile, releasing an aldehyde.

> <s_lp_Force_Field>
OPLS_2005

> <r_lp_Energy>
39.5

> <b_lp_Chiralities_Consistent>
1

> <s_lp_Variant>
AV-unprocessed.smi:100-11

> <Gold.Version>
5.8.1

> <Gold.Id.Protein>
6NUR|6NUR_protein|mol2

> <Gold.PLP.Fitness>
33.8659

> <Gold.PLP.PLP>
-28.4497

> <Gold.PLP.part.hbond>
-4.2654

> <Gold.PLP.part.metal>
0.0000

> <Gold.PLP.part.buried>
-3.9734

> <Gold.PLP.part.nonpolar>
-18.5418

> <Gold.PLP.part.repulsive>
0.0776

> <Gold.PLP.ligand.clash>
0.0000

> <Gold.PLP.ligand.torsion>
0.5933

> <Gold.PLP.Chemscore.Hbond>
2.1989

> <Gold.PLP.Chemscore.CHOScore>
0.0000

> <Gold.PLP.Chemscore.Metal>
0.0000

> <Gold.Chemscore.Hbonds>
donor molecule, donor type, donor heavy atom, donor atom, acceptor molecule, acceptor atom, score
      L1  H    15    28       P1  8028  1.00
      P1  H  7997  8008       L1     5  1.00
      P1  H  8011  8017       L1    15  0.14

> <Gold.PLP.Chemscore.Internal.Correction>
0.0062

> <Gold.Rescore>
     Score         DG    S(hbond)    S(metal)    S(lipo)     H(rot)  DE(clash)    DE(int)     intcor
      6.29      -6.90       1.87        0.00      28.55       3.19       0.06       0.55       ----

> <Gold.Chemscore.Fitness>
6.2873

> <Gold.Chemscore.DG>
-6.8953

> <Gold.Chemscore.ZeroCoef>
-5.4800

> <Gold.Chemscore.Hbond>
1.8688

> <Gold.Chemscore.Metal>
0.0000

> <Gold.Chemscore.Lipo>
28.5488

> <Gold.Chemscore.Internal_Hbond>
0.0000

> <Gold.Chemscore.DEClash>
0.0589

> <Gold.Chemscore.DEInternal>
0.5492

> <Gold.Chemscore.Rot>
3.1901

> <Gold.Chemscore.Internal.Correction>
   9.000000E+99

> <Gold.Chemscore.Hbonds>
donor molecule, donor type, donor heavy atom, donor atom, acceptor molecule, acceptor atom, score
      L1  H    15    28       P1  8028  1.00
      P1  H  7997  8008       L1     5  0.34
      P1  H  8011  8017       L1    15  0.04

> <Gold.Chemscore.Hbond.Weighted>
-6.2418

> <Gold.Chemscore.Metal.Weighted>
-0.0000

> <Gold.Chemscore.Lipo.Weighted>
-3.3402

> <Gold.Chemscore.Internal_Hbond.Weighted>
0.0000

> <Gold.Chemscore.DEClash.Weighted>
0.0589

> <Gold.Chemscore.DEInternal.Weighted>
0.5492

> <Gold.Chemscore.Rot.Weighted>
8.1667

> <Gold.Chemscore.Internal.Correction.Weighted>
   9.000000E+99

> <Gold.Protein.RotatedTorsions>
[ 6907 6896 6895 6894 ] final  103.41 input  -60.11 | X-H torsion
[ 7974 7965 7964 7962 ] final -130.46 input  175.53 | X-H torsion
[ 8008 7997 7996 7995 ] final -121.76 input   59.86 | X-H torsion
[ 10167 10162 10161 10158 ] final -132.28 input  -65.29 | X-H torsion
[ 10718 10713 10712 10709 ] final   29.41 input   66.30 | X-H torsion
[ 10763 10752 10751 10750 ] final  120.73 input  -60.55 | X-H torsion
[ 11005 11000 10999 10996 ] final  -30.25 input  -57.11 | X-H torsion

> <Gold.Protein.ActiveResidues>
 VAL166  LYS551  ARG553  GLY616  TRP617  ASP618  TYR619  PRO620  LYS621  CYS622 
 ASP623  PHE694  ASN695  SER759  ASP760  ASP761  ALA762  ILE779  LEU786  VAL792 
 PHE793  MET794  SER795  GLU796  ALA797  LYS798  CYS799  TRP800  GLU811  SER814 

> <Gold.Protein.RotatedAtoms>
  152.5296  133.9830  159.7815 H   0  0  0  0  0  0  0  0  0  0  0  0  # atno 6907 bound_to 6896
  151.0080  133.5984  159.2693 H   0  0  0  0  0  0  0  0  0  0  0  0  # atno 6908 bound_to 6896
  151.3069  135.0790  159.9311 H   0  0  0  0  0  0  0  0  0  0  0  0  # atno 6909 bound_to 6896
  144.9472  140.7305  143.4810 H   0  0  0  0  0  0  0  0  0  0  0  0  # atno 7974 bound_to 7965
  155.1532  140.0404  157.2826 H   0  0  0  0  0  0  0  0  0  0  0  0  # atno 8008 bound_to 7997
  154.6389  140.2542  155.7318 H   0  0  0  0  0  0  0  0  0  0  0  0  # atno 8009 bound_to 7997
  156.2522  140.2860  156.0774 H   0  0  0  0  0  0  0  0  0  0  0  0  # atno 8010 bound_to 7997
  139.9102  143.6503  152.2577 H   0  0  0  0  0  0  0  0  0  0  0  0  # atno 10167 bound_to 10162
  157.2462  130.7093  149.6382 H   0  0  0  0  0  0  0  0  0  0  0  0  # atno 10718 bound_to 10713
  153.6031  135.3444  155.2952 H   0  0  0  0  0  0  0  0  0  0  0  0  # atno 10763 bound_to 10752
  154.8632  135.4232  154.2391 H   0  0  0  0  0  0  0  0  0  0  0  0  # atno 10764 bound_to 10752
  153.3224  135.7039  153.7090 H   0  0  0  0  0  0  0  0  0  0  0  0  # atno 10765 bound_to 10752
  140.9366  133.7304  156.1015 H   0  0  0  0  0  0  0  0  0  0  0  0  # atno 11005 bound_to 11000
  145.2899  139.1887  143.4746 LP  0  0  0  0  0  0  0  0  0  0  0  0  # atno 17320 bound_to 7965
  146.3308  140.2874  142.8613 LP  0  0  0  0  0  0  0  0  0  0  0  0  # atno 17321 bound_to 7965
  139.6949  144.7642  151.1373 LP  0  0  0  0  0  0  0  0  0  0  0  0  # atno 17342 bound_to 10162
  140.7687  143.5537  150.9176 LP  0  0  0  0  0  0  0  0  0  0  0  0  # atno 17343 bound_to 10162
  155.9668  130.4442  150.5453 LP  0  0  0  0  0  0  0  0  0  0  0  0  # atno 17370 bound_to 10713
  157.3327  131.0702  151.1849 LP  0  0  0  0  0  0  0  0  0  0  0  0  # atno 17371 bound_to 10713
  140.7790  134.3747  157.5491 LP  0  0  0  0  0  0  0  0  0  0  0  0  # atno 17394 bound_to 11000
  139.8809  134.9070  156.2935 LP  0  0  0  0  0  0  0  0  0  0  0  0  # atno 17395 bound_to 11000

$$$$
