AV-unprocessed.smi:727|AV-procd|sdf|3517|dock2
  -GOLD-   22720 0513D 1   1.00000     0.00000
 Structure written by MMmdl.
 38 39  0  0  0  0  0  0  0  0  1 V2000
  150.7574  140.3446  155.6256 C   0  0  0  0  0  0  0  0  0  0  0  0
  149.5180  140.2883  154.8459 N   0  0  0  0  0  0  0  0  0  0  0  0
  148.8411  141.4973  154.6128 C   0  0  0  0  0  0  0  0  0  0  0  0
  147.7026  141.5407  153.9074 C   0  0  0  0  0  0  0  0  0  0  0  0
  147.1718  140.3052  153.3829 C   0  0  0  0  0  0  0  0  0  0  0  0
  147.8059  139.1250  153.6005 C   0  0  0  0  0  0  0  0  0  0  0  0
  147.3681  137.8751  153.1261 N   0  0  0  0  0  0  0  0  0  0  0  0
  146.1361  137.3327  153.1326 C   0  0  0  0  0  0  0  0  0  0  0  0
  145.1187  137.8536  153.5884 O   0  0  0  0  0  0  0  0  0  0  0  0
  146.1518  136.1140  152.5732 N   0  0  0  0  0  0  0  0  0  0  0  0
  144.9986  135.2304  152.4228 C   0  0  0  0  0  0  0  0  0  0  0  0
  145.0300  134.4446  151.0955 C   0  0  1  0  0  0  0  0  0  0  0  0
  146.3102  133.5841  151.0047 C   0  0  0  0  0  0  0  0  0  0  0  0
  146.2820  132.6077  149.8431 C   0  0  0  0  0  0  0  0  0  0  0  0
  145.1629  132.2873  149.1733 C   0  0  0  0  0  0  0  0  0  0  0  0
  143.7993  132.8626  149.5061 C   0  0  0  0  0  0  0  0  0  0  0  0
  143.7777  133.5683  150.8750 C   0  0  0  0  0  0  0  0  0  0  0  0
  149.0638  139.0896  154.3731 C   0  0  0  0  0  0  0  0  0  0  0  0
  149.6821  138.0442  154.5895 O   0  0  0  0  0  0  0  0  0  0  0  0
  150.9974  141.3533  155.9637 H   0  0  0  0  0  0  0  0  0  0  0  0
  151.6006  139.9922  155.0295 H   0  0  0  0  0  0  0  0  0  0  0  0
  150.6817  139.7155  156.5138 H   0  0  0  0  0  0  0  0  0  0  0  0
  149.3010  142.3777  155.0377 H   0  0  0  0  0  0  0  0  0  0  0  0
  147.1939  142.4777  153.7349 H   0  0  0  0  0  0  0  0  0  0  0  0
  146.2631  140.3711  152.8082 H   0  0  0  0  0  0  0  0  0  0  0  0
  148.1035  137.2971  152.7458 H   0  0  0  0  0  0  0  0  0  0  0  0
  147.0337  135.7654  152.2270 H   0  0  0  0  0  0  0  0  0  0  0  0
  145.0175  134.5315  153.2598 H   0  0  0  0  0  0  0  0  0  0  0  0
  144.0615  135.7824  152.5131 H   0  0  0  0  0  0  0  0  0  0  0  0
  145.0664  135.1715  150.2821 H   0  0  0  0  0  0  0  0  0  0  0  0
  147.1830  134.2296  150.9015 H   0  0  0  0  0  0  0  0  0  0  0  0
  146.4496  133.0073  151.9198 H   0  0  0  0  0  0  0  0  0  0  0  0
  147.2215  132.1513  149.5675 H   0  0  0  0  0  0  0  0  0  0  0  0
  145.2115  131.5949  148.3457 H   0  0  0  0  0  0  0  0  0  0  0  0
  143.5278  133.5634  148.7161 H   0  0  0  0  0  0  0  0  0  0  0  0
  143.0579  132.0634  149.4900 H   0  0  0  0  0  0  0  0  0  0  0  0
  143.7209  132.8212  151.6680 H   0  0  0  0  0  0  0  0  0  0  0  0
  142.8656  134.1602  150.9479 H   0  0  0  0  0  0  0  0  0  0  0  0
  1  2  1  0  0  0  0
  1 20  1  0  0  0  0
  1 21  1  0  0  0  0
  1 22  1  0  0  0  0
  2 18  1  0  0  0  0
  2  3  1  0  0  0  0
  3  4  2  0  0  0  0
  3 23  1  0  0  0  0
  4  5  1  0  0  0  0
  4 24  1  0  0  0  0
  5  6  2  0  0  0  0
  5 25  1  0  0  0  0
  6  7  1  0  0  0  0
  6 18  1  0  0  0  0
  7  8  1  0  0  0  0
  7 26  1  0  0  0  0
  8  9  2  0  0  0  0
  8 10  1  0  0  0  0
 10 11  1  0  0  0  0
 10 27  1  0  0  0  0
 11 12  1  0  0  0  0
 11 28  1  0  0  0  0
 11 29  1  0  0  0  0
 12 17  1  0  0  0  0
 12 13  1  0  0  0  0
 12 30  1  0  0  0  0
 13 14  1  0  0  0  0
 13 31  1  0  0  0  0
 13 32  1  0  0  0  0
 14 15  2  0  0  0  0
 14 33  1  0  0  0  0
 15 16  1  0  0  0  0
 15 34  1  0  0  0  0
 16 17  1  0  0  0  0
 16 35  1  0  0  0  0
 16 36  1  0  0  0  0
 17 37  1  0  0  0  0
 17 38  1  0  0  0  0
 18 19  2  0  0  0  0
M  END
> <s_m_source_file>
AV-unprocessed.smi

> <i_m_source_file_index>
727

> <i_lp_mmshare_version>
43012

> <i_f3d_flags>
0

> <s_epik_input>
W0NIM11uMVtjSF1bY0hdW2NIXWMoYzE9TylbTkhdQyg9TylbTkhdW0NIMl1bQ0BASF0yW0NIMl1bQ0hdPVtDSF1bQ0gyXVtDSDJdMg==

> <s_epik_cmdline>
J2VwaWtfcHl0aG9uJywgJy1waCcsICc3LjAnLCAnLXRuJywgJzgnLCAnLW1hJywgJzIwMCcsICctbWV0YWxfYmluZGluZycsICctaW1hZScsICc8aW5maWxlLm1hZT4nLCAnLW9tYWUnLCAnPG91dGZpbGUubWFlPic=

> <r_lp_tautomer_probability>
1

> <r_epik_Ionization_Penalty>
2.60682e-05

> <r_epik_Ionization_Penalty_Charging>
4.8094e-06

> <r_epik_Ionization_Penalty_Neutral>
2.12588e-05

> <r_epik_State_Penalty>
-0

> <r_epik_Charging_Adjusted_Penalty>
4.8094e-06

> <i_epik_Tot_Q>
0

> <i_epik_Tot_abs_Q>
0

> <r_epik_Metal_State_Penalty>
-0

> <b_epik_Metal_Only>
0

> <s_lp_Force_Field>
OPLS_2005

> <r_lp_Energy>
21.4957

> <b_lp_Chiralities_Consistent>
1

> <s_lp_Variant>
AV-unprocessed.smi:727-2

> <Gold.Version>
5.8.1

> <Gold.Id.Protein>
6NUR|6NUR_protein|mol2

> <Gold.PLP.Fitness>
45.7359

> <Gold.PLP.PLP>
-38.0149

> <Gold.PLP.part.hbond>
-2.0000

> <Gold.PLP.part.metal>
0.0000

> <Gold.PLP.part.buried>
-1.6041

> <Gold.PLP.part.nonpolar>
-34.1763

> <Gold.PLP.part.repulsive>
0.4163

> <Gold.PLP.ligand.clash>
0.0000

> <Gold.PLP.ligand.torsion>
0.5380

> <Gold.PLP.Chemscore.Hbond>
1.9280

> <Gold.PLP.Chemscore.CHOScore>
1.0000

> <Gold.PLP.Chemscore.Metal>
0.0000

> <Gold.Chemscore.Hbonds>
donor molecule, donor type, donor heavy atom, donor atom, acceptor molecule, acceptor atom, score
      L1  H     7    26       P1  7948  1.00
      L1  H    10    27       P1  7948  0.91
      L1  C     3    23       P1  8028  1.00

> <Gold.PLP.Chemscore.Internal.Correction>
0.0130

> <Gold.Rescore>
     Score         DG    S(hbond)    S(metal)    S(lipo)     H(rot)  DE(clash)    DE(int)     intcor
     18.73     -19.41       1.89        0.00      91.52       1.21       0.20       0.48       ----

> <Gold.Chemscore.Fitness>
18.7346

> <Gold.Chemscore.DG>
-19.4115

> <Gold.Chemscore.ZeroCoef>
-5.4800

> <Gold.Chemscore.Hbond>
1.8930

> <Gold.Chemscore.Metal>
0.0000

> <Gold.Chemscore.Lipo>
91.5161

> <Gold.Chemscore.Internal_Hbond>
0.0000

> <Gold.Chemscore.DEClash>
0.1977

> <Gold.Chemscore.DEInternal>
0.4791

> <Gold.Chemscore.Rot>
1.2103

> <Gold.Chemscore.Internal.Correction>
   9.000000E+99

> <Gold.Chemscore.Hbonds>
donor molecule, donor type, donor heavy atom, donor atom, acceptor molecule, acceptor atom, score
      L1  H     7    26       P1  7948  0.99
      L1  H    10    27       P1  7948  0.87

> <Gold.Chemscore.Hbond.Weighted>
-6.3225

> <Gold.Chemscore.Metal.Weighted>
-0.0000

> <Gold.Chemscore.Lipo.Weighted>
-10.7074

> <Gold.Chemscore.Internal_Hbond.Weighted>
0.0000

> <Gold.Chemscore.DEClash.Weighted>
0.1977

> <Gold.Chemscore.DEInternal.Weighted>
0.4791

> <Gold.Chemscore.Rot.Weighted>
3.0984

> <Gold.Chemscore.Internal.Correction.Weighted>
   9.000000E+99

> <Gold.Protein.RotatedTorsions>
[ 6907 6896 6895 6894 ] final  171.20 input  -60.11 | X-H torsion
[ 7974 7965 7964 7962 ] final -115.17 input  175.53 | X-H torsion
[ 8008 7997 7996 7995 ] final  -72.00 input   59.86 | X-H torsion
[ 10167 10162 10161 10158 ] final -160.49 input  -65.29 | X-H torsion
[ 10718 10713 10712 10709 ] final  117.76 input   66.30 | X-H torsion
[ 10763 10752 10751 10750 ] final    3.32 input  -60.55 | X-H torsion
[ 11005 11000 10999 10996 ] final  173.88 input  -57.11 | X-H torsion

> <Gold.Protein.ActiveResidues>
 VAL166  LYS551  ARG553  GLY616  TRP617  ASP618  TYR619  PRO620  LYS621  CYS622 
 ASP623  PHE694  ASN695  SER759  ASP760  ASP761  ALA762  ILE779  LEU786  VAL792 
 PHE793  MET794  SER795  GLU796  ALA797  LYS798  CYS799  TRP800  GLU811  SER814 

> <Gold.Protein.RotatedAtoms>
  151.8040  133.3373  159.3535 H   0  0  0  0  0  0  0  0  0  0  0  0  # atno 6907 bound_to 6896
  150.7349  134.5727  159.5908 H   0  0  0  0  0  0  0  0  0  0  0  0  # atno 6908 bound_to 6896
  152.3123  134.7484  160.0385 H   0  0  0  0  0  0  0  0  0  0  0  0  # atno 6909 bound_to 6896
  145.1115  140.8614  143.3867 H   0  0  0  0  0  0  0  0  0  0  0  0  # atno 7974 bound_to 7965
  154.5131  140.0805  156.8029 H   0  0  0  0  0  0  0  0  0  0  0  0  # atno 8008 bound_to 7997
  155.3740  140.3424  155.4226 H   0  0  0  0  0  0  0  0  0  0  0  0  # atno 8009 bound_to 7997
  156.1597  140.1584  156.8621 H   0  0  0  0  0  0  0  0  0  0  0  0  # atno 8010 bound_to 7997
  139.6536  144.0040  152.2178 H   0  0  0  0  0  0  0  0  0  0  0  0  # atno 10167 bound_to 10162
  157.6075  131.1041  150.7660 H   0  0  0  0  0  0  0  0  0  0  0  0  # atno 10718 bound_to 10713
  153.2848  135.6943  153.7350 H   0  0  0  0  0  0  0  0  0  0  0  0  # atno 10763 bound_to 10752
  153.6323  135.3408  155.3046 H   0  0  0  0  0  0  0  0  0  0  0  0  # atno 10764 bound_to 10752
  154.8506  135.4412  154.1913 H   0  0  0  0  0  0  0  0  0  0  0  0  # atno 10765 bound_to 10752
  140.3452  134.7242  157.4230 H   0  0  0  0  0  0  0  0  0  0  0  0  # atno 11005 bound_to 11000
  145.0841  139.2938  143.5768 LP  0  0  0  0  0  0  0  0  0  0  0  0  # atno 17320 bound_to 7965
  146.3526  140.0357  142.8647 LP  0  0  0  0  0  0  0  0  0  0  0  0  # atno 17321 bound_to 7965
  139.9760  144.6461  150.7944 LP  0  0  0  0  0  0  0  0  0  0  0  0  # atno 17342 bound_to 10162
  140.7549  143.3035  151.3019 LP  0  0  0  0  0  0  0  0  0  0  0  0  # atno 17343 bound_to 10162
  156.8045  130.4932  149.5365 LP  0  0  0  0  0  0  0  0  0  0  0  0  # atno 17370 bound_to 10713
  156.1166  130.6080  151.0130 LP  0  0  0  0  0  0  0  0  0  0  0  0  # atno 17371 bound_to 10713
  140.0748  134.5812  155.8603 LP  0  0  0  0  0  0  0  0  0  0  0  0  # atno 17394 bound_to 11000
  141.2027  133.6627  156.6023 LP  0  0  0  0  0  0  0  0  0  0  0  0  # atno 17395 bound_to 11000

$$$$
