AV-unprocessed.smi:506|AV-procd|sdf|2751|dock4
  -GOLD-   2262023213D 1   1.00000     0.00000
 Structure written by MMmdl.
 41 43  0  0  0  0  0  0  0  0  2 V2000
  155.4490  138.0647  165.0584 C   0  0  0  0  0  0  0  0  0  0  0  0
  155.9193  138.8710  163.9882 O   0  0  0  0  0  0  0  0  0  0  0  0
  155.2341  138.8260  162.7930 C   0  0  0  0  0  0  0  0  0  0  0  0
  154.5591  137.6285  162.4854 C   0  0  0  0  0  0  0  0  0  0  0  0
  153.8315  137.4986  161.2876 C   0  0  0  0  0  0  0  0  0  0  0  0
  153.7610  138.5630  160.3676 C   0  0  0  0  0  0  0  0  0  0  0  0
  153.0220  138.3541  159.2231 O   0  0  0  0  0  0  0  0  0  0  0  0
  152.8459  139.4435  158.3293 C   0  0  0  0  0  0  0  0  0  0  0  0
  151.3470  139.7489  158.2254 C   0  0  0  0  0  0  0  0  0  0  0  0
  151.1001  141.1207  157.7639 N   0  0  0  0  0  0  0  0  0  0  0  0
  150.3541  141.5773  156.7173 C   0  0  0  0  0  0  0  0  0  0  0  0
  149.5763  140.7428  155.7498 C   0  0  0  0  0  0  0  0  0  0  0  0
  150.2967  140.4336  154.5751 O   0  0  0  0  0  0  0  0  0  0  0  0
  150.4502  142.9379  156.7205 N   0  3  0  0  0  0  0  0  0  0  0  0
  151.2572  143.3541  157.7799 C   0  0  0  0  0  0  0  0  0  0  0  0
  151.6421  144.6274  158.1881 C   0  0  0  0  0  0  0  0  0  0  0  0
  152.4755  144.7029  159.3236 C   0  0  0  0  0  0  0  0  0  0  0  0
  152.8926  143.5420  160.0069 C   0  0  0  0  0  0  0  0  0  0  0  0
  152.4966  142.2561  159.5831 C   0  0  0  0  0  0  0  0  0  0  0  0
  151.6752  142.1908  158.4578 C   0  0  0  0  0  0  0  0  0  0  0  0
  154.4425  139.7677  160.6699 C   0  0  0  0  0  0  0  0  0  0  0  0
  155.1699  139.8979  161.8691 C   0  0  0  0  0  0  0  0  0  0  0  0
  156.0937  138.2065  165.9257 H   0  0  0  0  0  0  0  0  0  0  0  0
  155.4724  137.0052  164.7995 H   0  0  0  0  0  0  0  0  0  0  0  0
  154.4359  138.3432  165.3521 H   0  0  0  0  0  0  0  0  0  0  0  0
  154.5974  136.7996  163.1769 H   0  0  0  0  0  0  0  0  0  0  0  0
  153.3197  136.5716  161.0743 H   0  0  0  0  0  0  0  0  0  0  0  0
  153.3730  140.3250  158.6979 H   0  0  0  0  0  0  0  0  0  0  0  0
  153.2461  139.1917  157.3459 H   0  0  0  0  0  0  0  0  0  0  0  0
  150.8472  139.0511  157.5528 H   0  0  0  0  0  0  0  0  0  0  0  0
  150.8713  139.6338  159.1998 H   0  0  0  0  0  0  0  0  0  0  0  0
  149.2782  139.8147  156.2381 H   0  0  0  0  0  0  0  0  0  0  0  0
  148.6641  141.2721  155.4728 H   0  0  0  0  0  0  0  0  0  0  0  0
  149.7991  139.8046  154.0746 H   0  0  0  0  0  0  0  0  0  0  0  0
  151.3220  145.5182  157.6675 H   0  0  0  0  0  0  0  0  0  0  0  0
  152.8005  145.6704  159.6782 H   0  0  0  0  0  0  0  0  0  0  0  0
  153.5295  143.6396  160.8742 H   0  0  0  0  0  0  0  0  0  0  0  0
  152.8202  141.3734  160.1146 H   0  0  0  0  0  0  0  0  0  0  0  0
  154.4226  140.6114  159.9972 H   0  0  0  0  0  0  0  0  0  0  0  0
  155.6708  140.8354  162.0575 H   0  0  0  0  0  0  0  0  0  0  0  0
  149.9890  143.5336  156.0446 H   0  0  0  0  0  0  0  0  0  0  0  0
  1  2  1  0  0  0  0
  1 23  1  0  0  0  0
  1 24  1  0  0  0  0
  1 25  1  0  0  0  0
  2  3  1  0  0  0  0
  3 22  1  0  0  0  0
  3  4  2  0  0  0  0
  4  5  1  0  0  0  0
  4 26  1  0  0  0  0
  5  6  2  0  0  0  0
  5 27  1  0  0  0  0
  6  7  1  0  0  0  0
  6 21  1  0  0  0  0
  7  8  1  0  0  0  0
  8  9  1  0  0  0  0
  8 28  1  0  0  0  0
  8 29  1  0  0  0  0
  9 10  1  0  0  0  0
  9 30  1  0  0  0  0
  9 31  1  0  0  0  0
 10 20  1  0  0  0  0
 10 11  1  0  0  0  0
 11 12  1  0  0  0  0
 11 14  2  0  0  0  0
 12 13  1  0  0  0  0
 12 32  1  0  0  0  0
 12 33  1  0  0  0  0
 13 34  1  0  0  0  0
 14 15  1  0  0  0  0
 14 41  1  0  0  0  0
 15 20  2  0  0  0  0
 15 16  1  0  0  0  0
 16 17  2  0  0  0  0
 16 35  1  0  0  0  0
 17 18  1  0  0  0  0
 17 36  1  0  0  0  0
 18 19  2  0  0  0  0
 18 37  1  0  0  0  0
 19 20  1  0  0  0  0
 19 38  1  0  0  0  0
 21 22  2  0  0  0  0
 21 39  1  0  0  0  0
 22 40  1  0  0  0  0
M  CHG  1  14   1
M  END
> <s_m_source_file>
AV-unprocessed.smi

> <i_m_source_file_index>
506

> <i_lp_mmshare_version>
43012

> <i_f3d_flags>
0

> <s_epik_input>
W0NIM11PYzFbY0hdW2NIXWMoW2NIXVtjSF0xKU9bQ0gyXVtDSDJdbihjKG4yKVtDSDJdW09IXSljKGMyMylbY0hdW2NIXVtjSF1bY0hdMw==

> <s_epik_cmdline>
J2VwaWtfcHl0aG9uJywgJy1waCcsICc3LjAnLCAnLXRuJywgJzgnLCAnLW1hJywgJzIwMCcsICctbWV0YWxfYmluZGluZycsICctaW1hZScsICc8aW5maWxlLm1hZT4nLCAnLW9tYWUnLCAnPG91dGZpbGUubWFlPic=

> <r_lp_tautomer_probability>
1

> <r_epik_Ionization_Penalty>
1.51027

> <r_epik_Ionization_Penalty_Charging>
1.50942

> <r_epik_Ionization_Penalty_Neutral>
0.000855784

> <r_epik_State_Penalty>
1.60032

> <r_epik_Charging_Adjusted_Penalty>
3.10973

> <i_epik_Tot_Q>
1

> <i_epik_Tot_abs_Q>
1

> <r_epik_Metal_State_Penalty>
5.65193

> <b_epik_Metal_Only>
0

> <s_lp_Force_Field>
OPLS_2005

> <r_lp_Energy>
22.2088

> <b_lp_Chiralities_Consistent>
1

> <s_lp_Variant>
AV-unprocessed.smi:506-2

> <Gold.Version>
5.8.1

> <Gold.Id.Protein>
6NUR|6NUR_protein|mol2

> <Gold.PLP.Fitness>
53.6367

> <Gold.PLP.PLP>
-47.1987

> <Gold.PLP.part.hbond>
-2.0000

> <Gold.PLP.part.metal>
0.0000

> <Gold.PLP.part.buried>
-6.5123

> <Gold.PLP.part.nonpolar>
-39.3035

> <Gold.PLP.part.repulsive>
0.0473

> <Gold.PLP.ligand.clash>
0.0000

> <Gold.PLP.ligand.torsion>
1.2660

> <Gold.PLP.Chemscore.Hbond>
2.9840

> <Gold.PLP.Chemscore.CHOScore>
0.0000

> <Gold.PLP.Chemscore.Metal>
0.0000

> <Gold.Chemscore.Hbonds>
donor molecule, donor type, donor heavy atom, donor atom, acceptor molecule, acceptor atom, score
      L1  H    14    41       P1  8028  2.00
      P1  H  7989  7998       L1    13  0.99

> <Gold.PLP.Chemscore.Internal.Correction>
0.0179

> <Gold.Rescore>
     Score         DG    S(hbond)    S(metal)    S(lipo)     H(rot)  DE(clash)    DE(int)     intcor
     18.73     -19.69       1.59        0.00     131.86       2.54       0.00       0.96       ----

> <Gold.Chemscore.Fitness>
18.7302

> <Gold.Chemscore.DG>
-19.6930

> <Gold.Chemscore.ZeroCoef>
-5.4800

> <Gold.Chemscore.Hbond>
1.5856

> <Gold.Chemscore.Metal>
0.0000

> <Gold.Chemscore.Lipo>
131.8572

> <Gold.Chemscore.Internal_Hbond>
0.0000

> <Gold.Chemscore.DEClash>
0.0000

> <Gold.Chemscore.DEInternal>
0.9629

> <Gold.Chemscore.Rot>
2.5431

> <Gold.Chemscore.Internal.Correction>
   9.000000E+99

> <Gold.Chemscore.Hbonds>
donor molecule, donor type, donor heavy atom, donor atom, acceptor molecule, acceptor atom, score
      L1  H    14    41       P1  8028  0.95
      P1  H  7989  7998       L1    13  0.42

> <Gold.Chemscore.Hbond.Weighted>
-5.2960

> <Gold.Chemscore.Metal.Weighted>
-0.0000

> <Gold.Chemscore.Lipo.Weighted>
-15.4273

> <Gold.Chemscore.Internal_Hbond.Weighted>
0.0000

> <Gold.Chemscore.DEClash.Weighted>
0.0000

> <Gold.Chemscore.DEInternal.Weighted>
0.9629

> <Gold.Chemscore.Rot.Weighted>
6.5103

> <Gold.Chemscore.Internal.Correction.Weighted>
   9.000000E+99

> <Gold.Protein.RotatedTorsions>
[ 6907 6896 6895 6894 ] final   34.05 input  -60.11 | X-H torsion
[ 7974 7965 7964 7962 ] final -101.35 input  175.53 | X-H torsion
[ 8008 7997 7996 7995 ] final   19.12 input   59.86 | X-H torsion
[ 10167 10162 10161 10158 ] final  118.30 input  -65.29 | X-H torsion
[ 10718 10713 10712 10709 ] final  -80.90 input   66.30 | X-H torsion
[ 10763 10752 10751 10750 ] final   31.15 input  -60.55 | X-H torsion
[ 11005 11000 10999 10996 ] final   78.88 input  -57.11 | X-H torsion

> <Gold.Protein.ActiveResidues>
 VAL166  LYS551  ARG553  GLY616  TRP617  ASP618  TYR619  PRO620  LYS621  CYS622 
 ASP623  PHE694  ASN695  SER759  ASP760  ASP761  ALA762  ILE779  LEU786  VAL792 
 PHE793  MET794  SER795  GLU796  ALA797  LYS798  CYS799  TRP800  GLU811  SER814 

> <Gold.Protein.RotatedAtoms>
  152.0970  134.9368  160.0570 H   0  0  0  0  0  0  0  0  0  0  0  0  # atno 6907 bound_to 6896
  152.0597  133.4051  159.4420 H   0  0  0  0  0  0  0  0  0  0  0  0  # atno 6908 bound_to 6896
  150.6838  134.3135  159.4800 H   0  0  0  0  0  0  0  0  0  0  0  0  # atno 6909 bound_to 6896
  145.2828  140.9331  143.2922 H   0  0  0  0  0  0  0  0  0  0  0  0  # atno 7974 bound_to 7965
  154.9160  140.3020  155.5241 H   0  0  0  0  0  0  0  0  0  0  0  0  # atno 8008 bound_to 7997
  156.3012  140.2380  156.4141 H   0  0  0  0  0  0  0  0  0  0  0  0  # atno 8009 bound_to 7997
  154.8378  140.0415  157.1509 H   0  0  0  0  0  0  0  0  0  0  0  0  # atno 8010 bound_to 7997
  139.6120  144.7084  151.2822 H   0  0  0  0  0  0  0  0  0  0  0  0  # atno 10167 bound_to 10162
  156.0061  130.4588  150.3871 H   0  0  0  0  0  0  0  0  0  0  0  0  # atno 10718 bound_to 10713
  153.0331  135.6446  154.1155 H   0  0  0  0  0  0  0  0  0  0  0  0  # atno 10763 bound_to 10752
  154.0874  135.2869  155.3280 H   0  0  0  0  0  0  0  0  0  0  0  0  # atno 10764 bound_to 10752
  154.6488  135.5433  153.7940 H   0  0  0  0  0  0  0  0  0  0  0  0  # atno 10765 bound_to 10752
  139.9194  134.7799  156.1707 H   0  0  0  0  0  0  0  0  0  0  0  0  # atno 11005 bound_to 11000
  144.9239  139.4379  143.6528 LP  0  0  0  0  0  0  0  0  0  0  0  0  # atno 17320 bound_to 7965
  146.3211  139.8114  142.8945 LP  0  0  0  0  0  0  0  0  0  0  0  0  # atno 17321 bound_to 7965
  140.7326  143.6819  150.7993 LP  0  0  0  0  0  0  0  0  0  0  0  0  # atno 17342 bound_to 10162
  140.0416  143.5340  152.2715 LP  0  0  0  0  0  0  0  0  0  0  0  0  # atno 17343 bound_to 10162
  157.1948  131.0424  151.2681 LP  0  0  0  0  0  0  0  0  0  0  0  0  # atno 17370 bound_to 10713
  157.4029  130.7343  149.6781 LP  0  0  0  0  0  0  0  0  0  0  0  0  # atno 17371 bound_to 10713
  141.0702  133.6800  156.2125 LP  0  0  0  0  0  0  0  0  0  0  0  0  # atno 17394 bound_to 11000
  140.6519  134.5058  157.5578 LP  0  0  0  0  0  0  0  0  0  0  0  0  # atno 17395 bound_to 11000

$$$$
