AV-unprocessed.smi:1778|AV-procd|sdf|7180|dock8
  -GOLD-   22720 8423D 1   1.00000     0.00000
 Structure written by MMmdl.
 34 35  0  0  0  0  0  0  0  0  1 V2000
  145.0217  135.5612  150.8321 C   0  0  0  0  0  0  0  0  0  0  0  0
  144.8541  134.0739  150.9577 C   0  0  0  0  0  0  0  0  0  0  0  0
  143.6434  133.5512  150.8613 N   0  0  0  0  0  0  0  0  0  0  0  0
  143.8056  132.1728  151.0301 O   0  0  0  0  0  0  0  0  0  0  0  0
  145.1241  131.9167  151.2251 C   0  0  0  0  0  0  0  0  0  0  0  0
  145.5085  130.4913  151.4358 C   0  0  0  0  0  0  0  0  0  0  0  0
  145.8466  133.0774  151.1907 C   0  0  0  0  0  0  0  0  0  0  0  0
  147.3330  133.2577  151.3658 C   0  0  0  0  0  0  0  0  0  0  0  0
  147.7195  132.9643  152.8150 C   0  0  0  0  0  0  0  0  0  0  0  0
  147.3881  131.9009  153.3382 O   0  0  0  0  0  0  0  0  0  0  0  0
  148.4184  133.9170  153.4509 N   0  0  0  0  0  0  0  0  0  0  0  0
  148.8656  133.8470  154.8372 C   0  0  1  0  0  0  0  0  0  0  0  0
  149.9624  132.7822  155.0403 C   0  0  0  0  0  0  0  0  0  0  0  0
  150.6376  133.0255  156.3956 C   0  0  0  0  0  0  0  0  0  0  0  0
  150.5542  134.8331  156.6880 S   0  0  0  0  0  0  0  0  0  0  0  0
  149.8552  135.0793  157.9584 O   0  0  0  0  0  0  0  0  0  0  0  0
  151.8671  135.4377  156.4168 O   0  0  0  0  0  0  0  0  0  0  0  0
  149.4281  135.2014  155.2903 C   0  0  0  0  0  0  0  0  0  0  0  0
  144.7549  136.0620  151.7628 H   0  0  0  0  0  0  0  0  0  0  0  0
  144.3890  135.9664  150.0419 H   0  0  0  0  0  0  0  0  0  0  0  0
  146.0513  135.8290  150.5962 H   0  0  0  0  0  0  0  0  0  0  0  0
  145.9335  130.3511  152.4299 H   0  0  0  0  0  0  0  0  0  0  0  0
  146.2531  130.1803  150.7033 H   0  0  0  0  0  0  0  0  0  0  0  0
  144.6457  129.8317  151.3405 H   0  0  0  0  0  0  0  0  0  0  0  0
  147.8923  132.5906  150.7086 H   0  0  0  0  0  0  0  0  0  0  0  0
  147.6503  134.2679  151.1057 H   0  0  0  0  0  0  0  0  0  0  0  0
  148.6471  134.7565  152.9386 H   0  0  0  0  0  0  0  0  0  0  0  0
  148.0205  133.6012  155.4835 H   0  0  0  0  0  0  0  0  0  0  0  0
  149.5654  131.7690  154.9696 H   0  0  0  0  0  0  0  0  0  0  0  0
  150.7121  132.8851  154.2544 H   0  0  0  0  0  0  0  0  0  0  0  0
  150.0861  132.5302  157.1951 H   0  0  0  0  0  0  0  0  0  0  0  0
  151.6727  132.6849  156.4235 H   0  0  0  0  0  0  0  0  0  0  0  0
  150.0214  135.6693  154.5038 H   0  0  0  0  0  0  0  0  0  0  0  0
  148.6538  135.9014  155.6049 H   0  0  0  0  0  0  0  0  0  0  0  0
  1  2  1  0  0  0  0
  1 19  1  0  0  0  0
  1 20  1  0  0  0  0
  1 21  1  0  0  0  0
  2  7  1  0  0  0  0
  2  3  2  0  0  0  0
  3  4  1  0  0  0  0
  4  5  1  0  0  0  0
  5  6  1  0  0  0  0
  5  7  2  0  0  0  0
  6 22  1  0  0  0  0
  6 23  1  0  0  0  0
  6 24  1  0  0  0  0
  7  8  1  0  0  0  0
  8  9  1  0  0  0  0
  8 25  1  0  0  0  0
  8 26  1  0  0  0  0
  9 10  2  0  0  0  0
  9 11  1  0  0  0  0
 11 12  1  0  0  0  0
 11 27  1  0  0  0  0
 12 18  1  0  0  0  0
 12 13  1  0  0  0  0
 12 28  1  0  0  0  0
 13 14  1  0  0  0  0
 13 29  1  0  0  0  0
 13 30  1  0  0  0  0
 14 15  1  0  0  0  0
 14 31  1  0  0  0  0
 14 32  1  0  0  0  0
 15 16  2  0  0  0  0
 15 17  2  0  0  0  0
 15 18  1  0  0  0  0
 18 33  1  0  0  0  0
 18 34  1  0  0  0  0
M  END
> <s_m_source_file>
AV-unprocessed.smi

> <i_m_source_file_index>
1778

> <i_lp_mmshare_version>
43012

> <i_f3d_flags>
0

> <s_epik_input>
W0NIM11jMW5vYyhbQ0gzXSljMVtDSDJdQyg9TylbTkhdW0NAQEhdKFtDSDJdMilbQ0gyXVtDSDJdUzIoPU8pPU8=

> <s_epik_cmdline>
J2VwaWtfcHl0aG9uJywgJy1waCcsICc3LjAnLCAnLXRuJywgJzgnLCAnLW1hJywgJzIwMCcsICctbWV0YWxfYmluZGluZycsICctaW1hZScsICc8aW5maWxlLm1hZT4nLCAnLW9tYWUnLCAnPG91dGZpbGUubWFlPic=

> <r_lp_tautomer_probability>
1

> <r_epik_Ionization_Penalty>
1.26334e-07

> <r_epik_Ionization_Penalty_Charging>
0

> <r_epik_Ionization_Penalty_Neutral>
1.26334e-07

> <r_epik_State_Penalty>
-0

> <r_epik_Charging_Adjusted_Penalty>
0

> <i_epik_Tot_Q>
0

> <i_epik_Tot_abs_Q>
0

> <r_epik_Metal_State_Penalty>
-0

> <b_epik_Metal_Only>
0

> <s_lp_Force_Field>
OPLS_2005

> <r_lp_Energy>
-2.84578

> <b_lp_Chiralities_Consistent>
1

> <s_lp_Variant>
AV-unprocessed.smi:1778-2

> <Gold.Version>
5.8.1

> <Gold.Id.Protein>
6NUR|6NUR_protein|mol2

> <Gold.PLP.Fitness>
37.5500

> <Gold.PLP.PLP>
-29.0799

> <Gold.PLP.part.hbond>
-3.0000

> <Gold.PLP.part.metal>
0.0000

> <Gold.PLP.part.buried>
-4.9503

> <Gold.PLP.part.nonpolar>
-22.3016

> <Gold.PLP.part.repulsive>
0.7932

> <Gold.PLP.ligand.clash>
0.0000

> <Gold.PLP.ligand.torsion>
0.2058

> <Gold.PLP.Chemscore.Hbond>
2.9600

> <Gold.PLP.Chemscore.CHOScore>
0.0000

> <Gold.PLP.Chemscore.Metal>
0.0000

> <Gold.Chemscore.Hbonds>
donor molecule, donor type, donor heavy atom, donor atom, acceptor molecule, acceptor atom, score
      L1  H    11    27       P1  7948  1.00
      P1  H  6896  6908       L1    16  0.96
      P1  H 10752 10765       L1    17  1.00

> <Gold.PLP.Chemscore.Internal.Correction>
0.0017

> <Gold.Rescore>
     Score         DG    S(hbond)    S(metal)    S(lipo)     H(rot)  DE(clash)    DE(int)     intcor
     17.74     -18.01       2.70        0.00      63.09       1.51       0.03       0.25       ----

> <Gold.Chemscore.Fitness>
17.7371

> <Gold.Chemscore.DG>
-18.0149

> <Gold.Chemscore.ZeroCoef>
-5.4800

> <Gold.Chemscore.Hbond>
2.6967

> <Gold.Chemscore.Metal>
0.0000

> <Gold.Chemscore.Lipo>
63.0851

> <Gold.Chemscore.Internal_Hbond>
0.0000

> <Gold.Chemscore.DEClash>
0.0263

> <Gold.Chemscore.DEInternal>
0.2515

> <Gold.Chemscore.Rot>
1.5051

> <Gold.Chemscore.Internal.Correction>
   9.000000E+99

> <Gold.Chemscore.Hbonds>
donor molecule, donor type, donor heavy atom, donor atom, acceptor molecule, acceptor atom, score
      L1  H    11    27       P1  7948  0.26
      P1  H  6896  6908       L1    16  0.84
      P1  H 10752 10765       L1    17  1.00

> <Gold.Chemscore.Hbond.Weighted>
-9.0071

> <Gold.Chemscore.Metal.Weighted>
-0.0000

> <Gold.Chemscore.Lipo.Weighted>
-7.3810

> <Gold.Chemscore.Internal_Hbond.Weighted>
0.0000

> <Gold.Chemscore.DEClash.Weighted>
0.0263

> <Gold.Chemscore.DEInternal.Weighted>
0.2515

> <Gold.Chemscore.Rot.Weighted>
3.8531

> <Gold.Chemscore.Internal.Correction.Weighted>
   9.000000E+99

> <Gold.Protein.RotatedTorsions>
[ 6907 6896 6895 6894 ] final  154.19 input  -60.11 | X-H torsion
[ 7974 7965 7964 7962 ] final  -15.37 input  175.53 | X-H torsion
[ 8008 7997 7996 7995 ] final  -56.21 input   59.86 | X-H torsion
[ 10167 10162 10161 10158 ] final  154.46 input  -65.29 | X-H torsion
[ 10718 10713 10712 10709 ] final   81.53 input   66.30 | X-H torsion
[ 10763 10752 10751 10750 ] final -146.53 input  -60.55 | X-H torsion
[ 11005 11000 10999 10996 ] final  107.23 input  -57.11 | X-H torsion

> <Gold.Protein.ActiveResidues>
 VAL166  LYS551  ARG553  GLY616  TRP617  ASP618  TYR619  PRO620  LYS621  CYS622 
 ASP623  PHE694  ASN695  SER759  ASP760  ASP761  ALA762  ILE779  LEU786  VAL792 
 PHE793  MET794  SER795  GLU796  ALA797  LYS798  CYS799  TRP800  GLU811  SER814 

> <Gold.Protein.RotatedAtoms>
  152.0619  133.4066  159.4421 H   0  0  0  0  0  0  0  0  0  0  0  0  # atno 6907 bound_to 6896
  150.6866  134.3190  159.4787 H   0  0  0  0  0  0  0  0  0  0  0  0  # atno 6908 bound_to 6896
  152.1012  134.9340  160.0620 H   0  0  0  0  0  0  0  0  0  0  0  0  # atno 6909 bound_to 6896
  146.2035  140.3483  142.8415 H   0  0  0  0  0  0  0  0  0  0  0  0  # atno 7974 bound_to 7965
  154.4222  140.1135  156.5601 H   0  0  0  0  0  0  0  0  0  0  0  0  # atno 8008 bound_to 7997
  155.6320  140.3496  155.4667 H   0  0  0  0  0  0  0  0  0  0  0  0  # atno 8009 bound_to 7997
  155.9940  140.1185  157.0601 H   0  0  0  0  0  0  0  0  0  0  0  0  # atno 8010 bound_to 7997
  139.4823  144.5184  151.7914 H   0  0  0  0  0  0  0  0  0  0  0  0  # atno 10167 bound_to 10162
  157.6835  131.0008  150.2240 H   0  0  0  0  0  0  0  0  0  0  0  0  # atno 10718 bound_to 10713
  154.8331  135.3384  154.6675 H   0  0  0  0  0  0  0  0  0  0  0  0  # atno 10763 bound_to 10752
  153.7293  135.6953  153.4998 H   0  0  0  0  0  0  0  0  0  0  0  0  # atno 10764 bound_to 10752
  153.2324  135.4412  155.0562 H   0  0  0  0  0  0  0  0  0  0  0  0  # atno 10765 bound_to 10752
  139.8825  134.9394  156.5788 H   0  0  0  0  0  0  0  0  0  0  0  0  # atno 11005 bound_to 11000
  144.8737  140.7307  143.6030 LP  0  0  0  0  0  0  0  0  0  0  0  0  # atno 17320 bound_to 7965
  145.3402  139.1734  143.4490 LP  0  0  0  0  0  0  0  0  0  0  0  0  # atno 17321 bound_to 7965
  140.4696  144.1606  150.5916 LP  0  0  0  0  0  0  0  0  0  0  0  0  # atno 17342 bound_to 10162
  140.4397  143.2532  151.9489 LP  0  0  0  0  0  0  0  0  0  0  0  0  # atno 17343 bound_to 10162
  156.2886  130.3742  149.7864 LP  0  0  0  0  0  0  0  0  0  0  0  0  # atno 17370 bound_to 10713
  156.5531  130.8350  151.3305 LP  0  0  0  0  0  0  0  0  0  0  0  0  # atno 17371 bound_to 10713
  140.8043  133.8480  155.8754 LP  0  0  0  0  0  0  0  0  0  0  0  0  # atno 17394 bound_to 11000
  140.9564  134.1712  157.4688 LP  0  0  0  0  0  0  0  0  0  0  0  0  # atno 17395 bound_to 11000

$$$$
