AV-unprocessed.smi:1022|AV-procd|sdf|4459|dock9
  -GOLD-   22720 2433D 1   1.00000     0.00000
 Structure written by MMmdl.
 33 34  0  0  0  0  0  0  0  0  1 V2000
  146.2857  133.8869  151.5840 C   0  0  0  0  0  0  0  0  0  0  0  0
  146.0950  135.0891  152.3090 O   0  0  0  0  0  0  0  0  0  0  0  0
  145.6198  136.1474  151.4925 C   0  0  0  0  0  0  0  0  0  0  0  0
  145.6996  137.4698  152.2707 C   0  0  1  0  0  0  0  0  0  0  0  0
  144.7927  137.4468  153.5119 C   0  0  0  0  0  0  0  0  0  0  0  0
  147.0845  137.7234  152.6611 N   0  0  0  0  0  0  0  0  0  0  0  0
  147.4989  138.7387  153.4328 C   0  0  0  0  0  0  0  0  0  0  0  0
  146.7385  139.5767  153.9186 O   0  0  0  0  0  0  0  0  0  0  0  0
  148.8333  138.7116  153.5961 N   0  0  0  0  0  0  0  0  0  0  0  0
  149.6455  139.5978  154.3524 C   0  0  0  0  0  0  0  0  0  0  0  0
  150.9638  139.4333  154.5277 N   0  0  0  0  0  0  0  0  0  0  0  0
  151.5137  140.4455  155.3020 N   0  0  0  0  0  0  0  0  0  0  0  0
  150.5987  141.3416  155.6911 C   0  0  0  0  0  0  0  0  0  0  0  0
  150.9491  142.5234  156.5325 C   0  0  0  0  0  0  0  0  0  0  0  0
  151.6323  142.3468  157.8695 C   0  0  0  0  0  0  0  0  0  0  0  0
  150.2056  142.8305  157.8142 C   0  0  0  0  0  0  0  0  0  0  0  0
  148.9622  141.0162  155.1281 S   0  0  0  0  0  0  0  0  0  0  0  0
  146.6488  133.1083  152.2548 H   0  0  0  0  0  0  0  0  0  0  0  0
  147.0216  134.0166  150.7894 H   0  0  0  0  0  0  0  0  0  0  0  0
  145.3503  133.5403  151.1422 H   0  0  0  0  0  0  0  0  0  0  0  0
  146.2312  136.2101  150.5907 H   0  0  0  0  0  0  0  0  0  0  0  0
  144.5933  135.9526  151.1770 H   0  0  0  0  0  0  0  0  0  0  0  0
  145.3596  138.2699  151.6104 H   0  0  0  0  0  0  0  0  0  0  0  0
  143.7540  137.2665  153.2339 H   0  0  0  0  0  0  0  0  0  0  0  0
  144.8265  138.3966  154.0464 H   0  0  0  0  0  0  0  0  0  0  0  0
  145.0918  136.6623  154.2076 H   0  0  0  0  0  0  0  0  0  0  0  0
  147.7788  137.0853  152.3007 H   0  0  0  0  0  0  0  0  0  0  0  0
  149.3265  137.9670  153.1261 H   0  0  0  0  0  0  0  0  0  0  0  0
  151.2557  143.3614  155.9094 H   0  0  0  0  0  0  0  0  0  0  0  0
  151.8048  141.3304  158.2190 H   0  0  0  0  0  0  0  0  0  0  0  0
  152.3988  143.0701  158.1403 H   0  0  0  0  0  0  0  0  0  0  0  0
  150.0204  143.8772  158.0467 H   0  0  0  0  0  0  0  0  0  0  0  0
  149.4339  142.1369  158.1422 H   0  0  0  0  0  0  0  0  0  0  0  0
  1  2  1  0  0  0  0
  1 18  1  0  0  0  0
  1 19  1  0  0  0  0
  1 20  1  0  0  0  0
  2  3  1  0  0  0  0
  3  4  1  0  0  0  0
  3 21  1  0  0  0  0
  3 22  1  0  0  0  0
  4  5  1  0  0  0  0
  4  6  1  0  0  0  0
  4 23  1  0  0  0  0
  5 24  1  0  0  0  0
  5 25  1  0  0  0  0
  5 26  1  0  0  0  0
  6  7  1  0  0  0  0
  6 27  1  0  0  0  0
  7  8  2  0  0  0  0
  7  9  1  0  0  0  0
  9 10  1  0  0  0  0
  9 28  1  0  0  0  0
 10 17  1  0  0  0  0
 10 11  2  0  0  0  0
 11 12  1  0  0  0  0
 12 13  2  0  0  0  0
 13 14  1  0  0  0  0
 13 17  1  0  0  0  0
 14 16  1  0  0  0  0
 14 15  1  0  0  0  0
 14 29  1  0  0  0  0
 15 16  1  0  0  0  0
 15 30  1  0  0  0  0
 15 31  1  0  0  0  0
 16 32  1  0  0  0  0
 16 33  1  0  0  0  0
M  END
> <s_m_source_file>
AV-unprocessed.smi

> <i_m_source_file_index>
1022

> <i_lp_mmshare_version>
43012

> <i_f3d_flags>
0

> <s_epik_input>
W0NIM11PW0NIMl1bQ0BIXShbQ0gzXSlbTkhdQyg9TylbTkhdYzFubmMoczEpW0NIXTJbQ0gyXVtDSDJdMg==

> <s_epik_cmdline>
J2VwaWtfcHl0aG9uJywgJy1waCcsICc3LjAnLCAnLXRuJywgJzgnLCAnLW1hJywgJzIwMCcsICctbWV0YWxfYmluZGluZycsICctaW1hZScsICc8aW5maWxlLm1hZT4nLCAnLW9tYWUnLCAnPG91dGZpbGUubWFlPic=

> <r_lp_tautomer_probability>
1

> <r_epik_Ionization_Penalty>
0.00129266

> <r_epik_Ionization_Penalty_Charging>
0

> <r_epik_Ionization_Penalty_Neutral>
0.00129266

> <r_epik_State_Penalty>
-0

> <r_epik_Charging_Adjusted_Penalty>
0

> <i_epik_Tot_Q>
0

> <i_epik_Tot_abs_Q>
0

> <r_epik_Metal_State_Penalty>
0.30857

> <b_epik_Metal_Only>
0

> <s_lp_Force_Field>
OPLS_2005

> <r_lp_Energy>
1.4297

> <b_lp_Chiralities_Consistent>
1

> <s_lp_Variant>
AV-unprocessed.smi:1022-2

> <Gold.Version>
5.8.1

> <Gold.Id.Protein>
6NUR|6NUR_protein|mol2

> <Gold.PLP.Fitness>
34.1047

> <Gold.PLP.PLP>
-28.5597

> <Gold.PLP.part.hbond>
-5.0000

> <Gold.PLP.part.metal>
0.0000

> <Gold.PLP.part.buried>
-4.1634

> <Gold.PLP.part.nonpolar>
-20.3698

> <Gold.PLP.part.repulsive>
0.5544

> <Gold.PLP.ligand.clash>
0.0000

> <Gold.PLP.ligand.torsion>
0.1516

> <Gold.PLP.Chemscore.Hbond>
1.9040

> <Gold.PLP.Chemscore.CHOScore>
0.0000

> <Gold.PLP.Chemscore.Metal>
0.0000

> <Gold.Chemscore.Hbonds>
donor molecule, donor type, donor heavy atom, donor atom, acceptor molecule, acceptor atom, score
      L1  H     6    27       P1  7948  0.94
      L1  H     9    28       P1  7948  0.59

> <Gold.PLP.Chemscore.Internal.Correction>
0.1362

> <Gold.Rescore>
     Score         DG    S(hbond)    S(metal)    S(lipo)     H(rot)  DE(clash)    DE(int)     intcor
     12.47     -14.34       1.90        0.00      59.46       1.73       0.38       1.49       ----

> <Gold.Chemscore.Fitness>
12.4696

> <Gold.Chemscore.DG>
-14.3378

> <Gold.Chemscore.ZeroCoef>
-5.4800

> <Gold.Chemscore.Hbond>
1.8965

> <Gold.Chemscore.Metal>
0.0000

> <Gold.Chemscore.Lipo>
59.4622

> <Gold.Chemscore.Internal_Hbond>
0.0000

> <Gold.Chemscore.DEClash>
0.3804

> <Gold.Chemscore.DEInternal>
1.4878

> <Gold.Chemscore.Rot>
1.7318

> <Gold.Chemscore.Internal.Correction>
   9.000000E+99

> <Gold.Chemscore.Hbonds>
donor molecule, donor type, donor heavy atom, donor atom, acceptor molecule, acceptor atom, score
      L1  H     6    27       P1  7948  0.90
      L1  H     9    28       P1  7948  0.57

> <Gold.Chemscore.Hbond.Weighted>
-6.3342

> <Gold.Chemscore.Metal.Weighted>
-0.0000

> <Gold.Chemscore.Lipo.Weighted>
-6.9571

> <Gold.Chemscore.Internal_Hbond.Weighted>
0.0000

> <Gold.Chemscore.DEClash.Weighted>
0.3804

> <Gold.Chemscore.DEInternal.Weighted>
1.4878

> <Gold.Chemscore.Rot.Weighted>
4.4335

> <Gold.Chemscore.Internal.Correction.Weighted>
   9.000000E+99

> <Gold.Protein.RotatedTorsions>
[ 6907 6896 6895 6894 ] final   96.33 input  -60.11 | X-H torsion
[ 7974 7965 7964 7962 ] final -109.65 input  175.53 | X-H torsion
[ 8008 7997 7996 7995 ] final  -33.66 input   59.86 | X-H torsion
[ 10167 10162 10161 10158 ] final   28.09 input  -65.29 | X-H torsion
[ 10718 10713 10712 10709 ] final  133.58 input   66.30 | X-H torsion
[ 10763 10752 10751 10750 ] final  108.53 input  -60.55 | X-H torsion
[ 11005 11000 10999 10996 ] final  100.39 input  -57.11 | X-H torsion

> <Gold.Protein.ActiveResidues>
 VAL166  LYS551  ARG553  GLY616  TRP617  ASP618  TYR619  PRO620  LYS621  CYS622 
 ASP623  PHE694  ASN695  SER759  ASP760  ASP761  ALA762  ILE779  LEU786  VAL792 
 PHE793  MET794  SER795  GLU796  ALA797  LYS798  CYS799  TRP800  GLU811  SER814 

> <Gold.Protein.RotatedAtoms>
  152.5436  134.0903  159.8273 H   0  0  0  0  0  0  0  0  0  0  0  0  # atno 6907 bound_to 6896
  151.0993  133.5248  159.2618 H   0  0  0  0  0  0  0  0  0  0  0  0  # atno 6908 bound_to 6896
  151.2009  135.0451  159.8926 H   0  0  0  0  0  0  0  0  0  0  0  0  # atno 6909 bound_to 6896
  145.1779  140.8957  143.3497 H   0  0  0  0  0  0  0  0  0  0  0  0  # atno 7974 bound_to 7965
  154.4142  140.1705  156.1923 H   0  0  0  0  0  0  0  0  0  0  0  0  # atno 8008 bound_to 7997
  155.9593  140.3395  155.6452 H   0  0  0  0  0  0  0  0  0  0  0  0  # atno 8009 bound_to 7997
  155.6770  140.0718  157.2490 H   0  0  0  0  0  0  0  0  0  0  0  0  # atno 8010 bound_to 7997
  140.4882  144.0509  150.6288 H   0  0  0  0  0  0  0  0  0  0  0  0  # atno 10167 bound_to 10162
  157.4758  131.1083  150.9745 H   0  0  0  0  0  0  0  0  0  0  0  0  # atno 10718 bound_to 10713
  153.4220  135.3809  155.2117 H   0  0  0  0  0  0  0  0  0  0  0  0  # atno 10763 bound_to 10752
  154.8745  135.3819  154.4372 H   0  0  0  0  0  0  0  0  0  0  0  0  # atno 10764 bound_to 10752
  153.4894  135.7088  153.5955 H   0  0  0  0  0  0  0  0  0  0  0  0  # atno 10765 bound_to 10752
  139.8771  134.9138  156.4749 H   0  0  0  0  0  0  0  0  0  0  0  0  # atno 11005 bound_to 11000
  145.0166  139.3462  143.6093 LP  0  0  0  0  0  0  0  0  0  0  0  0  # atno 17320 bound_to 7965
  146.3458  139.9449  142.8736 LP  0  0  0  0  0  0  0  0  0  0  0  0  # atno 17321 bound_to 7965
  140.3770  143.2823  152.0213 LP  0  0  0  0  0  0  0  0  0  0  0  0  # atno 17342 bound_to 10162
  139.4846  144.6185  151.7301 LP  0  0  0  0  0  0  0  0  0  0  0  0  # atno 17343 bound_to 10162
  157.0494  130.5781  149.5368 LP  0  0  0  0  0  0  0  0  0  0  0  0  # atno 17370 bound_to 10713
  156.0096  130.5186  150.7945 LP  0  0  0  0  0  0  0  0  0  0  0  0  # atno 17371 bound_to 10713
  140.8769  133.7947  155.9424 LP  0  0  0  0  0  0  0  0  0  0  0  0  # atno 17394 bound_to 11000
  140.8895  134.2513  157.5102 LP  0  0  0  0  0  0  0  0  0  0  0  0  # atno 17395 bound_to 11000

$$$$
