AV-unprocessed.smi:1912|AV-procd|sdf|7748|dock5
  -GOLD-   22720 9483D 1   1.00000     0.00000
 Structure written by MMmdl.
 43 45  0  0  0  0  0  0  0  0  1 V2000
  146.0154  144.2132  159.4749 C   0  0  0  0  0  0  0  0  0  0  0  0
  145.4110  144.1077  158.1940 O   0  0  0  0  0  0  0  0  0  0  0  0
  146.0279  143.3182  157.2471 C   0  0  0  0  0  0  0  0  0  0  0  0
  145.4097  143.2300  155.9863 C   0  0  0  0  0  0  0  0  0  0  0  0
  145.9760  142.4566  154.9570 C   0  0  0  0  0  0  0  0  0  0  0  0
  147.1807  141.7424  155.1698 C   0  0  0  0  0  0  0  0  0  0  0  0
  147.7940  140.9812  154.1949 O   0  0  0  0  0  0  0  0  0  0  0  0
  147.0400  140.6080  153.0515 C   0  0  0  0  0  0  0  0  0  0  0  0
  147.8009  141.8116  156.4415 C   0  0  0  0  0  0  0  0  0  0  0  0
  149.1018  141.0543  156.6948 C   0  0  2  0  0  0  0  0  0  0  0  0
  149.0213  140.1628  157.7917 O   0  0  0  0  0  0  0  0  0  0  0  0
  150.2785  142.0288  156.8980 C   0  0  0  0  0  0  0  0  0  0  0  0
  151.3579  141.4502  157.6855 N   0  0  0  0  0  0  0  0  0  0  0  0
  152.0633  140.3224  157.4240 C   0  0  0  0  0  0  0  0  0  0  0  0
  151.7987  139.4891  156.2094 C   0  0  0  0  0  0  0  0  0  0  0  0
  153.0064  140.0073  158.3119 N   0  0  0  0  0  0  0  0  0  0  0  0
  152.9057  141.0297  159.2360 C   0  0  0  0  0  0  0  0  0  0  0  0
  153.6369  141.2715  160.4210 C   0  0  0  0  0  0  0  0  0  0  0  0
  153.3528  142.4006  161.2173 C   0  0  0  0  0  0  0  0  0  0  0  0
  152.3350  143.3012  160.8418 C   0  0  0  0  0  0  0  0  0  0  0  0
  151.5938  143.0785  159.6654 C   0  0  0  0  0  0  0  0  0  0  0  0
  151.8824  141.9512  158.8730 C   0  0  0  0  0  0  0  0  0  0  0  0
  147.2305  142.6033  157.4646 C   0  0  0  0  0  0  0  0  0  0  0  0
  145.4161  144.8730  160.1022 H   0  0  0  0  0  0  0  0  0  0  0  0
  147.0166  144.6415  159.4097 H   0  0  0  0  0  0  0  0  0  0  0  0
  146.0681  143.2437  159.9721 H   0  0  0  0  0  0  0  0  0  0  0  0
  144.4913  143.7683  155.8027 H   0  0  0  0  0  0  0  0  0  0  0  0
  145.4637  142.4315  154.0075 H   0  0  0  0  0  0  0  0  0  0  0  0
  147.6712  140.0242  152.3815 H   0  0  0  0  0  0  0  0  0  0  0  0
  146.6935  141.4822  152.4988 H   0  0  0  0  0  0  0  0  0  0  0  0
  146.1850  139.9875  153.3228 H   0  0  0  0  0  0  0  0  0  0  0  0
  149.3046  140.4239  155.8292 H   0  0  0  0  0  0  0  0  0  0  0  0
  149.8960  139.8830  158.0142 H   0  0  0  0  0  0  0  0  0  0  0  0
  150.6831  142.3380  155.9340 H   0  0  0  0  0  0  0  0  0  0  0  0
  149.9357  142.9423  157.3858 H   0  0  0  0  0  0  0  0  0  0  0  0
  152.4535  138.6171  156.1937 H   0  0  0  0  0  0  0  0  0  0  0  0
  151.9814  140.0699  155.3053 H   0  0  0  0  0  0  0  0  0  0  0  0
  150.7662  139.1408  156.2030 H   0  0  0  0  0  0  0  0  0  0  0  0
  154.4180  140.5872  160.7175 H   0  0  0  0  0  0  0  0  0  0  0  0
  153.9183  142.5763  162.1207 H   0  0  0  0  0  0  0  0  0  0  0  0
  152.1231  144.1631  161.4575 H   0  0  0  0  0  0  0  0  0  0  0  0
  150.8114  143.7645  159.3769 H   0  0  0  0  0  0  0  0  0  0  0  0
  147.7342  142.6560  158.4175 H   0  0  0  0  0  0  0  0  0  0  0  0
  1  2  1  0  0  0  0
  1 24  1  0  0  0  0
  1 25  1  0  0  0  0
  1 26  1  0  0  0  0
  2  3  1  0  0  0  0
  3 23  1  0  0  0  0
  3  4  2  0  0  0  0
  4  5  1  0  0  0  0
  4 27  1  0  0  0  0
  5  6  2  0  0  0  0
  5 28  1  0  0  0  0
  6  7  1  0  0  0  0
  6  9  1  0  0  0  0
  7  8  1  0  0  0  0
  8 29  1  0  0  0  0
  8 30  1  0  0  0  0
  8 31  1  0  0  0  0
  9 10  1  0  0  0  0
  9 23  2  0  0  0  0
 10 11  1  0  0  0  0
 10 12  1  0  0  0  0
 10 32  1  0  0  0  0
 11 33  1  0  0  0  0
 12 13  1  0  0  0  0
 12 34  1  0  0  0  0
 12 35  1  0  0  0  0
 13 22  1  0  0  0  0
 13 14  1  0  0  0  0
 14 15  1  0  0  0  0
 14 16  2  0  0  0  0
 15 36  1  0  0  0  0
 15 37  1  0  0  0  0
 15 38  1  0  0  0  0
 16 17  1  0  0  0  0
 17 22  2  0  0  0  0
 17 18  1  0  0  0  0
 18 19  2  0  0  0  0
 18 39  1  0  0  0  0
 19 20  1  0  0  0  0
 19 40  1  0  0  0  0
 20 21  2  0  0  0  0
 20 41  1  0  0  0  0
 21 22  1  0  0  0  0
 21 42  1  0  0  0  0
 23 43  1  0  0  0  0
M  END
> <s_m_source_file>
AV-unprocessed.smi

> <i_m_source_file_index>
1912

> <i_lp_mmshare_version>
43012

> <i_f3d_flags>
0

> <s_epik_input>
W0NIM11PYzFbY0hdW2NIXWMoT1tDSDNdKWMoW2NIXTEpW0NASF0oW09IXSlbQ0gyXW4oYyhuMilbQ0gzXSljKGMyMylbY0hdW2NIXVtjSF1bY0hdMw==

> <s_epik_cmdline>
J2VwaWtfcHl0aG9uJywgJy1waCcsICc3LjAnLCAnLXRuJywgJzgnLCAnLW1hJywgJzIwMCcsICctbWV0YWxfYmluZGluZycsICctaW1hZScsICc8aW5maWxlLm1hZT4nLCAnLW9tYWUnLCAnPG91dGZpbGUubWFlPic=

> <r_lp_tautomer_probability>
1

> <r_epik_Ionization_Penalty>
0.129663

> <r_epik_Ionization_Penalty_Charging>
0

> <r_epik_Ionization_Penalty_Neutral>
0.129663

> <r_epik_State_Penalty>
0.119073

> <r_epik_Charging_Adjusted_Penalty>
0.119073

> <i_epik_Tot_Q>
0

> <i_epik_Tot_abs_Q>
0

> <r_epik_Metal_State_Penalty>
0.000131867

> <b_epik_Metal_Only>
0

> <s_lp_Force_Field>
OPLS_2005

> <r_lp_Energy>
18.8247

> <b_lp_Chiralities_Consistent>
1

> <s_lp_Variant>
AV-unprocessed.smi:1912-1

> <Gold.Version>
5.8.1

> <Gold.Id.Protein>
6NUR|6NUR_protein|mol2

> <Gold.PLP.Fitness>
41.7977

> <Gold.PLP.PLP>
-39.9746

> <Gold.PLP.part.hbond>
-1.0000

> <Gold.PLP.part.metal>
0.0000

> <Gold.PLP.part.buried>
-4.3165

> <Gold.PLP.part.nonpolar>
-34.3815

> <Gold.PLP.part.repulsive>
0.2596

> <Gold.PLP.ligand.clash>
0.0000

> <Gold.PLP.ligand.torsion>
0.6222

> <Gold.PLP.Chemscore.Hbond>
1.0000

> <Gold.PLP.Chemscore.CHOScore>
0.0000

> <Gold.PLP.Chemscore.Metal>
0.0000

> <Gold.Chemscore.Hbonds>
donor molecule, donor type, donor heavy atom, donor atom, acceptor molecule, acceptor atom, score
      P1  H  7997  8008       L1    16  0.92

> <Gold.PLP.Chemscore.Internal.Correction>
0.0674

> <Gold.Rescore>
     Score         DG    S(hbond)    S(metal)    S(lipo)     H(rot)  DE(clash)    DE(int)     intcor
     13.74     -14.34       0.55        0.00     107.49       2.17       0.07       0.53       ----

> <Gold.Chemscore.Fitness>
13.7406

> <Gold.Chemscore.DG>
-14.3368

> <Gold.Chemscore.ZeroCoef>
-5.4800

> <Gold.Chemscore.Hbond>
0.5487

> <Gold.Chemscore.Metal>
0.0000

> <Gold.Chemscore.Lipo>
107.4946

> <Gold.Chemscore.Internal_Hbond>
0.0000

> <Gold.Chemscore.DEClash>
0.0711

> <Gold.Chemscore.DEInternal>
0.5251

> <Gold.Chemscore.Rot>
2.1690

> <Gold.Chemscore.Internal.Correction>
   9.000000E+99

> <Gold.Chemscore.Hbonds>
donor molecule, donor type, donor heavy atom, donor atom, acceptor molecule, acceptor atom, score
      P1  H  7997  8008       L1    16  0.23

> <Gold.Chemscore.Hbond.Weighted>
-1.8326

> <Gold.Chemscore.Metal.Weighted>
-0.0000

> <Gold.Chemscore.Lipo.Weighted>
-12.5769

> <Gold.Chemscore.Internal_Hbond.Weighted>
0.0000

> <Gold.Chemscore.DEClash.Weighted>
0.0711

> <Gold.Chemscore.DEInternal.Weighted>
0.5251

> <Gold.Chemscore.Rot.Weighted>
5.5526

> <Gold.Chemscore.Internal.Correction.Weighted>
   9.000000E+99

> <Gold.Protein.RotatedTorsions>
[ 6907 6896 6895 6894 ] final   -3.42 input  -60.11 | X-H torsion
[ 7974 7965 7964 7962 ] final  -24.47 input  175.53 | X-H torsion
[ 8008 7997 7996 7995 ] final  -94.27 input   59.86 | X-H torsion
[ 10167 10162 10161 10158 ] final -112.43 input  -65.29 | X-H torsion
[ 10718 10713 10712 10709 ] final  -50.56 input   66.30 | X-H torsion
[ 10763 10752 10751 10750 ] final   67.28 input  -60.55 | X-H torsion
[ 11005 11000 10999 10996 ] final  157.89 input  -57.11 | X-H torsion

> <Gold.Protein.ActiveResidues>
 VAL166  LYS551  ARG553  GLY616  TRP617  ASP618  TYR619  PRO620  LYS621  CYS622 
 ASP623  PHE694  ASN695  SER759  ASP760  ASP761  ALA762  ILE779  LEU786  VAL792 
 PHE793  MET794  SER795  GLU796  ALA797  LYS798  CYS799  TRP800  GLU811  SER814 

> <Gold.Protein.RotatedAtoms>
  151.5141  135.1065  159.9861 H   0  0  0  0  0  0  0  0  0  0  0  0  # atno 6907 bound_to 6896
  152.4649  133.7897  159.6906 H   0  0  0  0  0  0  0  0  0  0  0  0  # atno 6908 bound_to 6896
  150.8628  133.7554  159.3012 H   0  0  0  0  0  0  0  0  0  0  0  0  # atno 6909 bound_to 6896
  146.1553  140.4756  142.8594 H   0  0  0  0  0  0  0  0  0  0  0  0  # atno 7974 bound_to 7965
  154.7463  140.0491  157.0854 H   0  0  0  0  0  0  0  0  0  0  0  0  # atno 8008 bound_to 7997
  155.0114  140.3136  155.4809 H   0  0  0  0  0  0  0  0  0  0  0  0  # atno 8009 bound_to 7997
  156.2875  140.2183  156.5229 H   0  0  0  0  0  0  0  0  0  0  0  0  # atno 8010 bound_to 7997
  140.1228  143.4428  152.1679 H   0  0  0  0  0  0  0  0  0  0  0  0  # atno 10167 bound_to 10162
  156.1789  130.4150  149.9535 H   0  0  0  0  0  0  0  0  0  0  0  0  # atno 10718 bound_to 10713
  153.0179  135.5289  154.6955 H   0  0  0  0  0  0  0  0  0  0  0  0  # atno 10763 bound_to 10752
  154.6078  135.2875  155.0467 H   0  0  0  0  0  0  0  0  0  0  0  0  # atno 10764 bound_to 10752
  154.1500  135.6564  153.5014 H   0  0  0  0  0  0  0  0  0  0  0  0  # atno 10765 bound_to 10752
  140.1813  134.8474  157.2806 H   0  0  0  0  0  0  0  0  0  0  0  0  # atno 11005 bound_to 11000
  144.7955  140.6114  143.6513 LP  0  0  0  0  0  0  0  0  0  0  0  0  # atno 17320 bound_to 7965
  145.4724  139.1502  143.3807 LP  0  0  0  0  0  0  0  0  0  0  0  0  # atno 17321 bound_to 7965
  139.5560  144.7373  151.4294 LP  0  0  0  0  0  0  0  0  0  0  0  0  # atno 17342 bound_to 10162
  140.6862  143.7968  150.7189 LP  0  0  0  0  0  0  0  0  0  0  0  0  # atno 17343 bound_to 10162
  156.7312  130.9044  151.3626 LP  0  0  0  0  0  0  0  0  0  0  0  0  # atno 17370 bound_to 10713
  157.6855  130.9181  150.0375 LP  0  0  0  0  0  0  0  0  0  0  0  0  # atno 17371 bound_to 10713
  140.2264  134.3961  155.7541 LP  0  0  0  0  0  0  0  0  0  0  0  0  # atno 17394 bound_to 11000
  141.2223  133.7192  156.8572 LP  0  0  0  0  0  0  0  0  0  0  0  0  # atno 17395 bound_to 11000

$$$$
