AV-unprocessed.smi:1662|AV-procd|sdf|6660|dock4
  -GOLD-   22720 7373D 1   1.00000     0.00000
 Structure written by MMmdl.
 47 48  0  0  0  0  0  0  0  0  1 V2000
  151.5352  137.7044  154.1920 C   0  0  0  0  0  0  0  0  0  0  0  0
  150.9512  137.4518  155.5556 C   0  0  0  0  0  0  0  0  0  0  0  0
  150.9288  138.4535  156.3718 N   0  0  0  0  0  0  0  0  0  0  0  0
  150.4032  138.3338  157.6441 N   0  0  0  0  0  0  0  0  0  0  0  0
  150.3797  139.5966  158.4031 C   0  0  0  0  0  0  0  0  0  0  0  0
  151.6990  140.3882  158.3543 C   0  0  0  0  0  0  0  0  0  0  0  0
  152.6390  139.9585  157.6872 O   0  0  0  0  0  0  0  0  0  0  0  0
  151.7606  141.5329  159.0534 N   0  0  0  0  0  0  0  0  0  0  0  0
  152.9009  142.4382  159.1592 C   0  0  1  0  0  0  0  0  0  0  0  0
  152.4772  143.8827  158.8289 C   0  0  0  0  0  0  0  0  0  0  0  0
  151.5348  144.4568  159.8974 C   0  0  0  0  0  0  0  0  0  0  0  0
  152.1709  144.3737  161.2914 C   0  0  0  0  0  0  0  0  0  0  0  0
  152.5888  142.9343  161.6580 C   0  0  2  0  0  0  0  0  0  0  0  0
  153.2071  142.9145  163.0671 C   0  0  0  0  0  0  0  0  0  0  0  0
  153.5330  142.3432  160.5723 C   0  0  1  0  0  0  0  0  0  0  0  0
  153.9792  140.9000  160.8860 C   0  0  0  0  0  0  0  0  0  0  0  0
  149.8825  137.1845  158.1639 C   0  0  0  0  0  0  0  0  0  0  0  0
  149.4108  137.1259  159.3001 O   0  0  0  0  0  0  0  0  0  0  0  0
  149.9176  136.0523  157.2361 C   0  0  0  0  0  0  0  0  0  0  0  0
  149.3740  134.8318  157.7381 C   0  0  0  0  0  0  0  0  0  0  0  0
  148.9520  133.8365  158.1521 N   0  0  0  0  0  0  0  0  0  0  0  0
  150.4211  136.1605  155.9811 C   0  0  0  0  0  0  0  0  0  0  0  0
  150.4722  135.0179  154.9765 C   0  0  0  0  0  0  0  0  0  0  0  0
  152.3681  137.0296  153.9950 H   0  0  0  0  0  0  0  0  0  0  0  0
  151.9085  138.7247  154.0918 H   0  0  0  0  0  0  0  0  0  0  0  0
  150.7847  137.5519  153.4165 H   0  0  0  0  0  0  0  0  0  0  0  0
  149.5709  140.2397  158.0521 H   0  0  0  0  0  0  0  0  0  0  0  0
  150.1499  139.3918  159.4503 H   0  0  0  0  0  0  0  0  0  0  0  0
  150.9340  141.8012  159.5671 H   0  0  0  0  0  0  0  0  0  0  0  0
  153.6530  142.1289  158.4310 H   0  0  0  0  0  0  0  0  0  0  0  0
  153.3664  144.5107  158.7603 H   0  0  0  0  0  0  0  0  0  0  0  0
  152.0007  143.9260  157.8488 H   0  0  0  0  0  0  0  0  0  0  0  0
  151.2950  145.4935  159.6601 H   0  0  0  0  0  0  0  0  0  0  0  0
  150.5885  143.9141  159.8909 H   0  0  0  0  0  0  0  0  0  0  0  0
  153.0422  145.0291  161.3293 H   0  0  0  0  0  0  0  0  0  0  0  0
  151.4670  144.7572  162.0309 H   0  0  0  0  0  0  0  0  0  0  0  0
  151.6835  142.3260  161.6954 H   0  0  0  0  0  0  0  0  0  0  0  0
  154.1586  143.4462  163.0910 H   0  0  0  0  0  0  0  0  0  0  0  0
  153.3808  141.8979  163.4186 H   0  0  0  0  0  0  0  0  0  0  0  0
  152.5447  143.3896  163.7913 H   0  0  0  0  0  0  0  0  0  0  0  0
  154.4367  142.9545  160.5560 H   0  0  0  0  0  0  0  0  0  0  0  0
  153.1273  140.2409  161.0567 H   0  0  0  0  0  0  0  0  0  0  0  0
  154.6128  140.8589  161.7714 H   0  0  0  0  0  0  0  0  0  0  0  0
  154.5600  140.4834  160.0628 H   0  0  0  0  0  0  0  0  0  0  0  0
  150.0371  134.1004  155.3718 H   0  0  0  0  0  0  0  0  0  0  0  0
  151.5039  134.7985  154.6996 H   0  0  0  0  0  0  0  0  0  0  0  0
  149.9205  135.2778  154.0723 H   0  0  0  0  0  0  0  0  0  0  0  0
  1  2  1  0  0  0  0
  1 24  1  0  0  0  0
  1 25  1  0  0  0  0
  1 26  1  0  0  0  0
  2 22  1  0  0  0  0
  2  3  2  0  0  0  0
  3  4  1  0  0  0  0
  4  5  1  0  0  0  0
  4 17  1  0  0  0  0
  5  6  1  0  0  0  0
  5 27  1  0  0  0  0
  5 28  1  0  0  0  0
  6  7  2  0  0  0  0
  6  8  1  0  0  0  0
  8  9  1  0  0  0  0
  8 29  1  0  0  0  0
  9 15  1  0  0  0  0
  9 10  1  0  0  0  0
  9 30  1  0  0  0  0
 10 11  1  0  0  0  0
 10 31  1  0  0  0  0
 10 32  1  0  0  0  0
 11 12  1  0  0  0  0
 11 33  1  0  0  0  0
 11 34  1  0  0  0  0
 12 13  1  0  0  0  0
 12 35  1  0  0  0  0
 12 36  1  0  0  0  0
 13 14  1  0  0  0  0
 13 15  1  0  0  0  0
 13 37  1  0  0  0  0
 14 38  1  0  0  0  0
 14 39  1  0  0  0  0
 14 40  1  0  0  0  0
 15 16  1  0  0  0  0
 15 41  1  0  0  0  0
 16 42  1  0  0  0  0
 16 43  1  0  0  0  0
 16 44  1  0  0  0  0
 17 18  2  0  0  0  0
 17 19  1  0  0  0  0
 19 20  1  0  0  0  0
 19 22  2  0  0  0  0
 20 21  3  0  0  0  0
 22 23  1  0  0  0  0
 23 45  1  0  0  0  0
 23 46  1  0  0  0  0
 23 47  1  0  0  0  0
M  END
> <s_m_source_file>
AV-unprocessed.smi

> <i_m_source_file_index>
1662

> <i_lp_mmshare_version>
43012

> <i_f3d_flags>
0

> <s_epik_input>
TiNDYyhjMVtDSDNdKWMoPU8pbihuYzFbQ0gzXSlbQ0gyXUMoPU8pW05IXVtDQEBIXTJbQ0gyXVtDSDJdW0NIMl1bQ0BASF0oW0NIM10pW0NASF0yW0NIM10=

> <s_epik_cmdline>
J2VwaWtfcHl0aG9uJywgJy1waCcsICc3LjAnLCAnLXRuJywgJzgnLCAnLW1hJywgJzIwMCcsICctbWV0YWxfYmluZGluZycsICctaW1hZScsICc8aW5maWxlLm1hZT4nLCAnLW9tYWUnLCAnPG91dGZpbGUubWFlPic=

> <r_lp_tautomer_probability>
1

> <r_epik_Ionization_Penalty>
1.90709e-08

> <r_epik_Ionization_Penalty_Charging>
2.37982e-11

> <r_epik_Ionization_Penalty_Neutral>
1.90471e-08

> <r_epik_State_Penalty>
-0

> <r_epik_Charging_Adjusted_Penalty>
2.37982e-11

> <i_epik_Tot_Q>
0

> <i_epik_Tot_abs_Q>
0

> <r_epik_Metal_State_Penalty>
-0

> <b_epik_Metal_Only>
0

> <s_lp_Force_Field>
OPLS_2005

> <r_lp_Energy>
25.169

> <b_lp_Chiralities_Consistent>
1

> <s_lp_Variant>
AV-unprocessed.smi:1662-4

> <Gold.Version>
5.8.1

> <Gold.Id.Protein>
6NUR|6NUR_protein|mol2

> <Gold.PLP.Fitness>
48.1269

> <Gold.PLP.PLP>
-45.6678

> <Gold.PLP.part.hbond>
-1.4395

> <Gold.PLP.part.metal>
0.0000

> <Gold.PLP.part.buried>
-5.8338

> <Gold.PLP.part.nonpolar>
-39.1187

> <Gold.PLP.part.repulsive>
0.1243

> <Gold.PLP.ligand.clash>
0.0000

> <Gold.PLP.ligand.torsion>
0.2767

> <Gold.PLP.Chemscore.Hbond>
1.0000

> <Gold.PLP.Chemscore.CHOScore>
0.0000

> <Gold.PLP.Chemscore.Metal>
0.0000

> <Gold.Chemscore.Hbonds>
donor molecule, donor type, donor heavy atom, donor atom, acceptor molecule, acceptor atom, score
      P1  H  7997  8010       L1     7  1.00

> <Gold.PLP.Chemscore.Internal.Correction>
0.0125

> <Gold.Rescore>
     Score         DG    S(hbond)    S(metal)    S(lipo)     H(rot)  DE(clash)    DE(int)     intcor
     18.00     -19.82       0.98        0.00     126.40       1.45       0.03       1.79       ----

> <Gold.Chemscore.Fitness>
18.0039

> <Gold.Chemscore.DG>
-19.8208

> <Gold.Chemscore.ZeroCoef>
-5.4800

> <Gold.Chemscore.Hbond>
0.9774

> <Gold.Chemscore.Metal>
0.0000

> <Gold.Chemscore.Lipo>
126.4024

> <Gold.Chemscore.Internal_Hbond>
0.0000

> <Gold.Chemscore.DEClash>
0.0310

> <Gold.Chemscore.DEInternal>
1.7859

> <Gold.Chemscore.Rot>
1.4504

> <Gold.Chemscore.Internal.Correction>
   9.000000E+99

> <Gold.Chemscore.Hbonds>
donor molecule, donor type, donor heavy atom, donor atom, acceptor molecule, acceptor atom, score
      P1  H  7997  8010       L1     7  0.94

> <Gold.Chemscore.Hbond.Weighted>
-3.2646

> <Gold.Chemscore.Metal.Weighted>
-0.0000

> <Gold.Chemscore.Lipo.Weighted>
-14.7891

> <Gold.Chemscore.Internal_Hbond.Weighted>
0.0000

> <Gold.Chemscore.DEClash.Weighted>
0.0310

> <Gold.Chemscore.DEInternal.Weighted>
1.7859

> <Gold.Chemscore.Rot.Weighted>
3.7129

> <Gold.Chemscore.Internal.Correction.Weighted>
   9.000000E+99

> <Gold.Protein.RotatedTorsions>
[ 6907 6896 6895 6894 ] final  139.61 input  -60.11 | X-H torsion
[ 7974 7965 7964 7962 ] final  126.16 input  175.53 | X-H torsion
[ 8008 7997 7996 7995 ] final   55.86 input   59.86 | X-H torsion
[ 10167 10162 10161 10158 ] final -117.35 input  -65.29 | X-H torsion
[ 10718 10713 10712 10709 ] final -151.72 input   66.30 | X-H torsion
[ 10763 10752 10751 10750 ] final  -57.17 input  -60.55 | X-H torsion
[ 11005 11000 10999 10996 ] final -119.94 input  -57.11 | X-H torsion

> <Gold.Protein.ActiveResidues>
 VAL166  LYS551  ARG553  GLY616  TRP617  ASP618  TYR619  PRO620  LYS621  CYS622 
 ASP623  PHE694  ASN695  SER759  ASP760  ASP761  ALA762  ILE779  LEU786  VAL792 
 PHE793  MET794  SER795  GLU796  ALA797  LYS798  CYS799  TRP800  GLU811  SER814 

> <Gold.Protein.RotatedAtoms>
  152.2528  133.5230  159.5335 H   0  0  0  0  0  0  0  0  0  0  0  0  # atno 6907 bound_to 6896
  150.7099  134.0936  159.3949 H   0  0  0  0  0  0  0  0  0  0  0  0  # atno 6908 bound_to 6896
  151.8856  135.0437  160.0543 H   0  0  0  0  0  0  0  0  0  0  0  0  # atno 6909 bound_to 6896
  145.0649  139.3776  143.4987 H   0  0  0  0  0  0  0  0  0  0  0  0  # atno 7974 bound_to 7965
  155.5081  140.3476  155.4383 H   0  0  0  0  0  0  0  0  0  0  0  0  # atno 8008 bound_to 7997
  156.0868  140.1400  156.9670 H   0  0  0  0  0  0  0  0  0  0  0  0  # atno 8009 bound_to 7997
  154.4611  140.0934  156.6873 H   0  0  0  0  0  0  0  0  0  0  0  0  # atno 8010 bound_to 7997
  140.0693  143.4893  152.1989 H   0  0  0  0  0  0  0  0  0  0  0  0  # atno 10167 bound_to 10162
  156.4629  130.8222  151.2452 H   0  0  0  0  0  0  0  0  0  0  0  0  # atno 10718 bound_to 10713
  154.2182  135.6382  153.5136 H   0  0  0  0  0  0  0  0  0  0  0  0  # atno 10763 bound_to 10752
  152.9974  135.5490  154.6142 H   0  0  0  0  0  0  0  0  0  0  0  0  # atno 10764 bound_to 10752
  154.5596  135.2908  155.0906 H   0  0  0  0  0  0  0  0  0  0  0  0  # atno 10765 bound_to 10752
  141.0180  134.0167  157.3323 H   0  0  0  0  0  0  0  0  0  0  0  0  # atno 11005 bound_to 11000
  146.3526  140.0365  142.8646 LP  0  0  0  0  0  0  0  0  0  0  0  0  # atno 17320 bound_to 7965
  145.1364  140.9546  143.4514 LP  0  0  0  0  0  0  0  0  0  0  0  0  # atno 17321 bound_to 7965
  139.5846  144.7525  151.3553 LP  0  0  0  0  0  0  0  0  0  0  0  0  # atno 17342 bound_to 10162
  140.7134  143.7332  150.7608 LP  0  0  0  0  0  0  0  0  0  0  0  0  # atno 17343 bound_to 10162
  157.7496  131.0101  150.3293 LP  0  0  0  0  0  0  0  0  0  0  0  0  # atno 17370 bound_to 10713
  156.3697  130.3861  149.7185 LP  0  0  0  0  0  0  0  0  0  0  0  0  # atno 17371 bound_to 10713
  139.9128  135.0193  156.7762 LP  0  0  0  0  0  0  0  0  0  0  0  0  # atno 17394 bound_to 11000
  140.6622  133.9635  155.7811 LP  0  0  0  0  0  0  0  0  0  0  0  0  # atno 17395 bound_to 11000

$$$$
