AV-unprocessed.smi:48|AV-procd|sdf|460|dock1
  -GOLD-   2262016333D 1   1.00000     0.00000
 Structure written by MMmdl.
 30 32  0  0  0  0  0  0  0  0  1 V2000
  145.5877  139.3263  154.2905 O   0  0  0  0  0  0  0  0  0  0  0  0
  145.9864  139.9590  155.4877 C   0  0  0  0  0  0  0  0  0  0  0  0
  147.5132  140.1257  155.5142 C   0  0  2  0  0  0  0  0  0  0  0  0
  147.8729  141.1018  156.4918 O   0  0  0  0  0  0  0  0  0  0  0  0
  149.0318  141.7824  156.1077 C   0  0  1  0  0  0  0  0  0  0  0  0
  150.1066  141.5467  157.1272 N   0  0  0  0  0  0  0  0  0  0  0  0
  150.4574  140.3631  157.6701 C   0  0  0  0  0  0  0  0  0  0  0  0
  151.4422  140.3638  158.5669 N   0  0  0  0  0  0  0  0  0  0  0  0
  151.7749  141.7075  158.6094 C   0  0  0  0  0  0  0  0  0  0  0  0
  152.7400  142.4322  159.3503 C   0  0  0  0  0  0  0  0  0  0  0  0
  153.7890  141.6338  160.4639 Cl  0  0  0  0  0  0  0  0  0  0  0  0
  152.8222  143.7713  159.1673 N   0  0  0  0  0  0  0  0  0  0  0  0
  151.9960  144.3653  158.2978 C   0  0  0  0  0  0  0  0  0  0  0  0
  151.0442  143.8165  157.5352 N   0  0  0  0  0  0  0  0  0  0  0  0
  150.9607  142.4660  157.7198 C   0  0  0  0  0  0  0  0  0  0  0  0
  149.4111  141.3035  154.6922 C   0  0  1  0  0  0  0  0  0  0  0  0
  150.4730  140.3618  154.6708 O   0  0  0  0  0  0  0  0  0  0  0  0
  148.0875  140.7134  154.2241 C   0  0  1  0  0  0  0  0  0  0  0  0
  148.2366  139.7572  153.1914 O   0  0  0  0  0  0  0  0  0  0  0  0
  148.0080  139.1786  155.7337 H   0  0  0  0  0  0  0  0  0  0  0  0
  148.8383  142.8550  156.1525 H   0  0  0  0  0  0  0  0  0  0  0  0
  149.7044  142.1600  154.0840 H   0  0  0  0  0  0  0  0  0  0  0  0
  147.4430  141.5195  153.8700 H   0  0  0  0  0  0  0  0  0  0  0  0
  145.0229  139.9145  153.8131 H   0  0  0  0  0  0  0  0  0  0  0  0
  145.5019  140.9353  155.5172 H   0  0  0  0  0  0  0  0  0  0  0  0
  145.6331  139.3957  156.3519 H   0  0  0  0  0  0  0  0  0  0  0  0
  149.9583  139.4460  157.3926 H   0  0  0  0  0  0  0  0  0  0  0  0
  152.1131  145.4343  158.1987 H   0  0  0  0  0  0  0  0  0  0  0  0
  150.3499  139.7525  155.3823 H   0  0  0  0  0  0  0  0  0  0  0  0
  148.8820  140.0751  152.5789 H   0  0  0  0  0  0  0  0  0  0  0  0
  1  2  1  0  0  0  0
  1 24  1  0  0  0  0
  2  3  1  0  0  0  0
  2 25  1  0  0  0  0
  2 26  1  0  0  0  0
  3 20  1  0  0  0  0
  3 18  1  0  0  0  0
  3  4  1  0  0  0  0
  4  5  1  0  0  0  0
  5 21  1  0  0  0  0
  5  6  1  0  0  0  0
  5 16  1  0  0  0  0
  6 15  1  0  0  0  0
  6  7  1  0  0  0  0
  7  8  2  0  0  0  0
  7 27  1  0  0  0  0
  8  9  1  0  0  0  0
  9 15  2  0  0  0  0
  9 10  1  0  0  0  0
 10 11  1  0  0  0  0
 10 12  2  0  0  0  0
 12 13  1  0  0  0  0
 13 14  2  0  0  0  0
 13 28  1  0  0  0  0
 14 15  1  0  0  0  0
 16 22  1  0  0  0  0
 16 17  1  0  0  0  0
 16 18  1  0  0  0  0
 17 29  1  0  0  0  0
 18 23  1  0  0  0  0
 18 19  1  0  0  0  0
 19 30  1  0  0  0  0
M  END
> <s_m_source_file>
AV-unprocessed.smi

> <i_m_source_file_index>
48

> <i_lp_mmshare_version>
43012

> <i_f3d_flags>
0

> <s_epik_input>
W09IXVtDSDJdW0NASF0xT1tDQEhdKFtDQEhdKFtPSF0pW0NAQEhdMVtPSF0pbihbY0hdbjIpYyhjMjMpbltjSF1uYzNDbA==

> <s_epik_cmdline>
J2VwaWtfcHl0aG9uJywgJy1waCcsICc3LjAnLCAnLXRuJywgJzgnLCAnLW1hJywgJzIwMCcsICctbWV0YWxfYmluZGluZycsICctaW1hZScsICc8aW5maWxlLm1hZT4nLCAnLW9tYWUnLCAnPG91dGZpbGUubWFlPic=

> <r_lp_tautomer_probability>
1

> <r_epik_Ionization_Penalty>
3.45505e-06

> <r_epik_Ionization_Penalty_Charging>
0

> <r_epik_Ionization_Penalty_Neutral>
3.45505e-06

> <r_epik_State_Penalty>
-0

> <r_epik_Charging_Adjusted_Penalty>
0

> <i_epik_Tot_Q>
0

> <i_epik_Tot_abs_Q>
0

> <r_epik_Metal_State_Penalty>
-0

> <b_epik_Metal_Only>
0

> <s_epik_Chemistry_Notes>
This compound contains an acetal/aminal-like group ( X-CH(R)-Y where X, Y are N, S, or O) that may be acid/base labile, releasing an aldehyde.

> <s_lp_Force_Field>
OPLS_2005

> <r_lp_Energy>
44.1755

> <b_lp_Chiralities_Consistent>
1

> <s_lp_Variant>
AV-unprocessed.smi:48-14

> <Gold.Version>
5.8.1

> <Gold.Id.Protein>
6NUR|6NUR_protein|mol2

> <Gold.PLP.Fitness>
39.7686

> <Gold.PLP.PLP>
-31.6829

> <Gold.PLP.part.hbond>
-2.8028

> <Gold.PLP.part.metal>
0.0000

> <Gold.PLP.part.buried>
-5.1652

> <Gold.PLP.part.nonpolar>
-24.2696

> <Gold.PLP.part.repulsive>
0.2043

> <Gold.PLP.ligand.clash>
0.0201

> <Gold.PLP.ligand.torsion>
0.4382

> <Gold.PLP.Chemscore.Hbond>
2.9913

> <Gold.PLP.Chemscore.CHOScore>
0.0000

> <Gold.PLP.Chemscore.Metal>
0.0000

> <Gold.Chemscore.Hbonds>
donor molecule, donor type, donor heavy atom, donor atom, acceptor molecule, acceptor atom, score
      L1  H     1    24       P1 10175  1.00
      L1  H    19    30       P1  7957  1.00
      P1  H  7989  7998       L1    17  1.00

> <Gold.PLP.Chemscore.Internal.Correction>
0.0086

> <Gold.Rescore>
     Score         DG    S(hbond)    S(metal)    S(lipo)     H(rot)  DE(clash)    DE(int)     intcor
      9.43     -10.27       2.82        0.00      43.71       3.80       0.05       0.79       ----

> <Gold.Chemscore.Fitness>
9.4295

> <Gold.Chemscore.DG>
-10.2742

> <Gold.Chemscore.ZeroCoef>
-5.4800

> <Gold.Chemscore.Hbond>
2.8180

> <Gold.Chemscore.Metal>
0.0000

> <Gold.Chemscore.Lipo>
43.7134

> <Gold.Chemscore.Internal_Hbond>
0.0000

> <Gold.Chemscore.DEClash>
0.0515

> <Gold.Chemscore.DEInternal>
0.7931

> <Gold.Chemscore.Rot>
3.8017

> <Gold.Chemscore.Internal.Correction>
   9.000000E+99

> <Gold.Chemscore.Hbonds>
donor molecule, donor type, donor heavy atom, donor atom, acceptor molecule, acceptor atom, score
      L1  H     1    24       P1 10175  0.97
      L1  H    19    30       P1  7957  0.94
      P1  H  7989  7998       L1    17  0.64

> <Gold.Chemscore.Hbond.Weighted>
-9.4121

> <Gold.Chemscore.Metal.Weighted>
-0.0000

> <Gold.Chemscore.Lipo.Weighted>
-5.1145

> <Gold.Chemscore.Internal_Hbond.Weighted>
0.0000

> <Gold.Chemscore.DEClash.Weighted>
0.0515

> <Gold.Chemscore.DEInternal.Weighted>
0.7931

> <Gold.Chemscore.Rot.Weighted>
9.7324

> <Gold.Chemscore.Internal.Correction.Weighted>
   9.000000E+99

> <Gold.Protein.RotatedTorsions>
[ 6907 6896 6895 6894 ] final  175.41 input  -60.11 | X-H torsion
[ 7974 7965 7964 7962 ] final   32.14 input  175.53 | X-H torsion
[ 8008 7997 7996 7995 ] final  -31.38 input   59.86 | X-H torsion
[ 10167 10162 10161 10158 ] final   54.73 input  -65.29 | X-H torsion
[ 10718 10713 10712 10709 ] final -131.58 input   66.30 | X-H torsion
[ 10763 10752 10751 10750 ] final   52.63 input  -60.55 | X-H torsion
[ 11005 11000 10999 10996 ] final  148.65 input  -57.11 | X-H torsion

> <Gold.Protein.ActiveResidues>
 VAL166  LYS551  ARG553  GLY616  TRP617  ASP618  TYR619  PRO620  LYS621  CYS622 
 ASP623  PHE694  ASN695  SER759  ASP760  ASP761  ALA762  ILE779  LEU786  VAL792 
 PHE793  MET794  SER795  GLU796  ALA797  LYS798  CYS799  TRP800  GLU811  SER814 

> <Gold.Protein.RotatedAtoms>
  151.7366  133.3320  159.3354 H   0  0  0  0  0  0  0  0  0  0  0  0  # atno 6907 bound_to 6896
  150.7590  134.6316  159.6198 H   0  0  0  0  0  0  0  0  0  0  0  0  # atno 6908 bound_to 6896
  152.3558  134.6945  160.0274 H   0  0  0  0  0  0  0  0  0  0  0  0  # atno 6909 bound_to 6896
  146.1505  139.6565  142.9102 H   0  0  0  0  0  0  0  0  0  0  0  0  # atno 7974 bound_to 7965
  154.4216  140.1766  156.1558 H   0  0  0  0  0  0  0  0  0  0  0  0  # atno 8008 bound_to 7997
  155.9878  140.3371  155.6699 H   0  0  0  0  0  0  0  0  0  0  0  0  # atno 8009 bound_to 7997
  155.6413  140.0680  157.2608 H   0  0  0  0  0  0  0  0  0  0  0  0  # atno 8010 bound_to 7997
  140.2271  144.3727  150.6428 H   0  0  0  0  0  0  0  0  0  0  0  0  # atno 10167 bound_to 10162
  156.2259  130.7007  151.0806 H   0  0  0  0  0  0  0  0  0  0  0  0  # atno 10718 bound_to 10713
  152.9790  135.5806  154.4610 H   0  0  0  0  0  0  0  0  0  0  0  0  # atno 10763 bound_to 10752
  154.4186  135.2771  155.1992 H   0  0  0  0  0  0  0  0  0  0  0  0  # atno 10764 bound_to 10752
  154.3751  135.6159  153.5814 H   0  0  0  0  0  0  0  0  0  0  0  0  # atno 10765 bound_to 10752
  140.0978  134.9002  157.1749 H   0  0  0  0  0  0  0  0  0  0  0  0  # atno 11005 bound_to 11000
  145.4834  141.0438  143.2633 LP  0  0  0  0  0  0  0  0  0  0  0  0  # atno 17320 bound_to 7965
  144.7899  139.6350  143.7118 LP  0  0  0  0  0  0  0  0  0  0  0  0  # atno 17321 bound_to 7965
  140.6213  143.2176  151.6689 LP  0  0  0  0  0  0  0  0  0  0  0  0  # atno 17342 bound_to 10162
  139.5123  144.3479  152.0679 LP  0  0  0  0  0  0  0  0  0  0  0  0  # atno 17343 bound_to 10162
  157.7110  131.0734  150.6500 LP  0  0  0  0  0  0  0  0  0  0  0  0  # atno 17370 bound_to 10713
  156.6565  130.4500  149.5702 LP  0  0  0  0  0  0  0  0  0  0  0  0  # atno 17371 bound_to 10713
  140.3262  134.2860  155.7236 LP  0  0  0  0  0  0  0  0  0  0  0  0  # atno 17394 bound_to 11000
  141.2097  133.7741  156.9980 LP  0  0  0  0  0  0  0  0  0  0  0  0  # atno 17395 bound_to 11000

$$$$
