AV-unprocessed.smi:1619|AV-procd|sdf|6487|dock1
  -GOLD-   22720 7153D 1   1.00000     0.00000
 Structure written by MMmdl.
 44 46  0  0  0  0  0  0  0  0  2 V2000
  152.9388  142.8989  161.4147 C   0  0  0  0  0  0  0  0  0  0  0  0
  152.3635  142.5647  160.0498 C   0  0  0  0  0  0  0  0  0  0  0  0
  152.7479  141.3600  159.4185 C   0  0  0  0  0  0  0  0  0  0  0  0
  152.2357  141.0118  158.1498 C   0  0  0  0  0  0  0  0  0  0  0  0
  152.4700  139.8999  157.3589 N   0  0  0  0  0  0  0  0  0  0  0  0
  151.7047  140.1563  156.3019 C   0  0  0  0  0  0  0  0  0  0  0  0
  150.9983  141.3034  156.3160 N   0  0  0  0  0  0  0  0  0  0  0  0
  150.1002  141.7978  155.2880 C   0  0  0  0  0  0  0  0  0  0  0  0
  149.2156  140.6833  154.6975 C   0  0  2  0  0  0  0  0  0  0  0  0
  149.9984  139.8641  153.8497 O   0  0  0  0  0  0  0  0  0  0  0  0
  148.0329  141.2528  153.8913 C   0  0  0  0  0  0  0  0  0  0  0  0
  147.3499  142.3599  154.6027 N   0  3  0  0  0  0  0  0  0  0  0  0
  146.3002  143.0642  153.8260 C   0  0  0  0  0  0  0  0  0  0  0  0
  145.1167  143.2898  154.7768 C   0  0  0  0  0  0  0  0  0  0  0  0
  145.6820  143.0195  156.1675 C   0  0  0  0  0  0  0  0  0  0  0  0
  146.7572  141.9721  155.8981 C   0  0  0  0  0  0  0  0  0  0  0  0
  151.3217  141.9096  157.5246 C   0  0  0  0  0  0  0  0  0  0  0  0
  150.9332  143.1120  158.1412 C   0  0  0  0  0  0  0  0  0  0  0  0
  151.4539  143.4441  159.4094 C   0  0  0  0  0  0  0  0  0  0  0  0
  151.0275  144.7442  160.0681 C   0  0  0  0  0  0  0  0  0  0  0  0
  153.5943  142.1059  161.7760 H   0  0  0  0  0  0  0  0  0  0  0  0
  152.1403  143.0302  162.1454 H   0  0  0  0  0  0  0  0  0  0  0  0
  153.5215  143.8192  161.3675 H   0  0  0  0  0  0  0  0  0  0  0  0
  153.4417  140.6908  159.9057 H   0  0  0  0  0  0  0  0  0  0  0  0
  151.6522  139.4685  155.4705 H   0  0  0  0  0  0  0  0  0  0  0  0
  149.4789  142.5767  155.7318 H   0  0  0  0  0  0  0  0  0  0  0  0
  150.6901  142.2776  154.5052 H   0  0  0  0  0  0  0  0  0  0  0  0
  148.8417  140.0650  155.5143 H   0  0  0  0  0  0  0  0  0  0  0  0
  149.6020  139.8481  152.9916 H   0  0  0  0  0  0  0  0  0  0  0  0
  148.3740  141.6142  152.9197 H   0  0  0  0  0  0  0  0  0  0  0  0
  147.3139  140.4568  153.6897 H   0  0  0  0  0  0  0  0  0  0  0  0
  146.7052  144.0121  153.4700 H   0  0  0  0  0  0  0  0  0  0  0  0
  145.9812  142.4929  152.9527 H   0  0  0  0  0  0  0  0  0  0  0  0
  144.6880  144.2884  154.6853 H   0  0  0  0  0  0  0  0  0  0  0  0
  144.3279  142.5690  154.5573 H   0  0  0  0  0  0  0  0  0  0  0  0
  146.1373  143.9267  156.5672 H   0  0  0  0  0  0  0  0  0  0  0  0
  144.9255  142.6803  156.8756 H   0  0  0  0  0  0  0  0  0  0  0  0
  146.2951  140.9869  155.8125 H   0  0  0  0  0  0  0  0  0  0  0  0
  147.5078  141.9268  156.6880 H   0  0  0  0  0  0  0  0  0  0  0  0
  150.2398  143.7725  157.6420 H   0  0  0  0  0  0  0  0  0  0  0  0
  150.3402  145.3051  159.4341 H   0  0  0  0  0  0  0  0  0  0  0  0
  151.8942  145.3762  160.2626 H   0  0  0  0  0  0  0  0  0  0  0  0
  150.5235  144.5456  161.0143 H   0  0  0  0  0  0  0  0  0  0  0  0
  148.0539  143.0525  154.8165 H   0  0  0  0  0  0  0  0  0  0  0  0
  1  2  1  0  0  0  0
  1 21  1  0  0  0  0
  1 22  1  0  0  0  0
  1 23  1  0  0  0  0
  2 19  1  0  0  0  0
  2  3  2  0  0  0  0
  3  4  1  0  0  0  0
  3 24  1  0  0  0  0
  4 17  2  0  0  0  0
  4  5  1  0  0  0  0
  5  6  2  0  0  0  0
  6  7  1  0  0  0  0
  6 25  1  0  0  0  0
  7  8  1  0  0  0  0
  7 17  1  0  0  0  0
  8  9  1  0  0  0  0
  8 26  1  0  0  0  0
  8 27  1  0  0  0  0
  9 10  1  0  0  0  0
  9 11  1  0  0  0  0
  9 28  1  0  0  0  0
 10 29  1  0  0  0  0
 11 12  1  0  0  0  0
 11 30  1  0  0  0  0
 11 31  1  0  0  0  0
 12 16  1  0  0  0  0
 12 13  1  0  0  0  0
 12 44  1  0  0  0  0
 13 14  1  0  0  0  0
 13 32  1  0  0  0  0
 13 33  1  0  0  0  0
 14 15  1  0  0  0  0
 14 34  1  0  0  0  0
 14 35  1  0  0  0  0
 15 16  1  0  0  0  0
 15 36  1  0  0  0  0
 15 37  1  0  0  0  0
 16 38  1  0  0  0  0
 16 39  1  0  0  0  0
 17 18  1  0  0  0  0
 18 19  2  0  0  0  0
 18 40  1  0  0  0  0
 19 20  1  0  0  0  0
 20 41  1  0  0  0  0
 20 42  1  0  0  0  0
 20 43  1  0  0  0  0
M  CHG  1  12   1
M  END
> <s_m_source_file>
AV-unprocessed.smi

> <i_m_source_file_index>
1619

> <i_lp_mmshare_version>
43012

> <i_f3d_flags>
0

> <s_epik_input>
W0NIM11jKFtjSF0xKWMoW0NIM10pW2NIXWMoYzEyKW4oW2NIXW4yKVtDSDJdW0NASF0oW09IXSlbQ0gyXU4zW0NIMl1bQ0gyXVtDSDJdW0NIMl0z

> <s_epik_cmdline>
J2VwaWtfcHl0aG9uJywgJy1waCcsICc3LjAnLCAnLXRuJywgJzgnLCAnLW1hJywgJzIwMCcsICctbWV0YWxfYmluZGluZycsICctaW1hZScsICc8aW5maWxlLm1hZT4nLCAnLW9tYWUnLCAnPG91dGZpbGUubWFlPic=

> <r_epik_Ionization_Penalty>
0.0947557

> <r_epik_Ionization_Penalty_Charging>
0.00674132

> <r_epik_Ionization_Penalty_Neutral>
0.0880144

> <r_epik_State_Penalty>
0.0806172

> <r_epik_Charging_Adjusted_Penalty>
0.0873585

> <i_epik_Tot_Q>
1

> <i_epik_Tot_abs_Q>
1

> <r_epik_Metal_State_Penalty>
8.03852e-05

> <b_epik_Metal_Only>
0

> <s_lp_Force_Field>
OPLS_2005

> <r_lp_Energy>
32.0343

> <b_lp_Chiralities_Consistent>
1

> <s_lp_Variant>
AV-unprocessed.smi:1619-1

> <Gold.Version>
5.8.1

> <Gold.Id.Protein>
6NUR|6NUR_protein|mol2

> <Gold.PLP.Fitness>
61.4167

> <Gold.PLP.PLP>
-47.5923

> <Gold.PLP.part.hbond>
-4.0000

> <Gold.PLP.part.metal>
0.0000

> <Gold.PLP.part.buried>
-6.2439

> <Gold.PLP.part.nonpolar>
-37.5440

> <Gold.PLP.part.repulsive>
0.1314

> <Gold.PLP.ligand.clash>
0.0000

> <Gold.PLP.ligand.torsion>
0.4642

> <Gold.PLP.Chemscore.Hbond>
4.8800

> <Gold.PLP.Chemscore.CHOScore>
0.0000

> <Gold.PLP.Chemscore.Metal>
0.0000

> <Gold.Chemscore.Hbonds>
donor molecule, donor type, donor heavy atom, donor atom, acceptor molecule, acceptor atom, score
      L1  H    10    29       P1  7957  1.00
      L1  H    12    44       P1  8028  2.00
      P1  H  7989  7998       L1    10  0.88
      P1  H  7997  8008       L1     5  0.98

> <Gold.PLP.Chemscore.Internal.Correction>
0.1128

> <Gold.Rescore>
     Score         DG    S(hbond)    S(metal)    S(lipo)     H(rot)  DE(clash)    DE(int)     intcor
     21.63     -22.71       2.88        0.00     109.28       2.02       0.65       0.43       ----

> <Gold.Chemscore.Fitness>
21.6302

> <Gold.Chemscore.DG>
-22.7123

> <Gold.Chemscore.ZeroCoef>
-5.4800

> <Gold.Chemscore.Hbond>
2.8815

> <Gold.Chemscore.Metal>
0.0000

> <Gold.Chemscore.Lipo>
109.2843

> <Gold.Chemscore.Internal_Hbond>
0.0000

> <Gold.Chemscore.DEClash>
0.6522

> <Gold.Chemscore.DEInternal>
0.4299

> <Gold.Chemscore.Rot>
2.0227

> <Gold.Chemscore.Internal.Correction>
   9.000000E+99

> <Gold.Chemscore.Hbonds>
donor molecule, donor type, donor heavy atom, donor atom, acceptor molecule, acceptor atom, score
      L1  H    10    29       P1  7957  0.98
      L1  H    12    44       P1  8028  0.89
      P1  H  7989  7998       L1    10  0.12
      P1  H  7997  8008       L1     5  0.27

> <Gold.Chemscore.Hbond.Weighted>
-9.6241

> <Gold.Chemscore.Metal.Weighted>
-0.0000

> <Gold.Chemscore.Lipo.Weighted>
-12.7863

> <Gold.Chemscore.Internal_Hbond.Weighted>
0.0000

> <Gold.Chemscore.DEClash.Weighted>
0.6522

> <Gold.Chemscore.DEInternal.Weighted>
0.4299

> <Gold.Chemscore.Rot.Weighted>
5.1780

> <Gold.Chemscore.Internal.Correction.Weighted>
   9.000000E+99

> <Gold.Protein.RotatedTorsions>
[ 6907 6896 6895 6894 ] final -154.03 input  -60.11 | X-H torsion
[ 7974 7965 7964 7962 ] final   69.93 input  175.53 | X-H torsion
[ 8008 7997 7996 7995 ] final  -66.09 input   59.86 | X-H torsion
[ 10167 10162 10161 10158 ] final  -98.15 input  -65.29 | X-H torsion
[ 10718 10713 10712 10709 ] final  103.85 input   66.30 | X-H torsion
[ 10763 10752 10751 10750 ] final   91.01 input  -60.55 | X-H torsion
[ 11005 11000 10999 10996 ] final  -41.90 input  -57.11 | X-H torsion

> <Gold.Protein.ActiveResidues>
 VAL166  LYS551  ARG553  GLY616  TRP617  ASP618  TYR619  PRO620  LYS621  CYS622 
 ASP623  PHE694  ASN695  SER759  ASP760  ASP761  ALA762  ILE779  LEU786  VAL792 
 PHE793  MET794  SER795  GLU796  ALA797  LYS798  CYS799  TRP800  GLU811  SER814 

> <Gold.Protein.RotatedAtoms>
  151.2514  133.4348  159.2611 H   0  0  0  0  0  0  0  0  0  0  0  0  # atno 6907 bound_to 6896
  151.0614  134.9739  159.8272 H   0  0  0  0  0  0  0  0  0  0  0  0  # atno 6908 bound_to 6896
  152.5399  134.2464  159.8934 H   0  0  0  0  0  0  0  0  0  0  0  0  # atno 6909 bound_to 6896
  145.7844  139.2903  143.1247 H   0  0  0  0  0  0  0  0  0  0  0  0  # atno 7974 bound_to 7965
  154.4712  140.0920  156.7150 H   0  0  0  0  0  0  0  0  0  0  0  0  # atno 8008 bound_to 7997
  155.4718  140.3464  155.4308 H   0  0  0  0  0  0  0  0  0  0  0  0  # atno 8009 bound_to 7997
  156.1043  140.1430  156.9414 H   0  0  0  0  0  0  0  0  0  0  0  0  # atno 8010 bound_to 7997
  140.2760  143.3313  152.0488 H   0  0  0  0  0  0  0  0  0  0  0  0  # atno 10167 bound_to 10162
  157.6759  131.0789  150.5618 H   0  0  0  0  0  0  0  0  0  0  0  0  # atno 10718 bound_to 10713
  153.2036  135.4413  155.0296 H   0  0  0  0  0  0  0  0  0  0  0  0  # atno 10763 bound_to 10752
  154.8161  135.3316  154.7175 H   0  0  0  0  0  0  0  0  0  0  0  0  # atno 10764 bound_to 10752
  153.7618  135.6991  153.4979 H   0  0  0  0  0  0  0  0  0  0  0  0  # atno 10765 bound_to 10752
  141.0278  133.6833  156.2521 H   0  0  0  0  0  0  0  0  0  0  0  0  # atno 11005 bound_to 11000
  146.0041  140.8494  143.0003 LP  0  0  0  0  0  0  0  0  0  0  0  0  # atno 17320 bound_to 7965
  144.6791  140.2395  143.7345 LP  0  0  0  0  0  0  0  0  0  0  0  0  # atno 17321 bound_to 7965
  139.4975  144.6624  151.6434 LP  0  0  0  0  0  0  0  0  0  0  0  0  # atno 17342 bound_to 10162
  140.5851  143.9879  150.6291 LP  0  0  0  0  0  0  0  0  0  0  0  0  # atno 17343 bound_to 10162
  156.5921  130.4332  149.5932 LP  0  0  0  0  0  0  0  0  0  0  0  0  # atno 17370 bound_to 10713
  156.2575  130.6943  151.1701 LP  0  0  0  0  0  0  0  0  0  0  0  0  # atno 17371 bound_to 10713
  140.6460  134.5117  157.5573 LP  0  0  0  0  0  0  0  0  0  0  0  0  # atno 17394 bound_to 11000
  139.9188  134.8192  156.1279 LP  0  0  0  0  0  0  0  0  0  0  0  0  # atno 17395 bound_to 11000

$$$$
