AV-unprocessed.smi:2021|AV-procd|sdf|8175|dock7
  -GOLD-   2272010423D 1   1.00000     0.00000
 Structure written by MMmdl.
 42 43  0  0  0  0  0  0  0  0  2 V2000
  152.6210  143.5560  158.6709 C   0  0  0  0  0  0  0  0  0  0  0  0
  151.2452  144.2081  158.4686 C   0  0  0  0  0  0  0  0  0  0  0  0
  151.0663  145.3930  159.4326 C   0  0  0  0  0  0  0  0  0  0  0  0
  150.1198  143.1631  158.6291 C   0  0  0  0  0  0  0  0  0  0  0  0
  149.8526  142.4002  157.3826 N   0  3  1  0  0  0  0  0  0  0  0  0
  151.0746  141.8326  156.7611 C   0  0  0  0  0  0  0  0  0  0  0  0
  150.7211  141.0923  155.4614 C   0  0  0  0  0  0  0  0  0  0  0  0
  149.7597  140.0820  155.7372 O   0  0  0  0  0  0  0  0  0  0  0  0
  148.5412  140.6172  156.2413 C   0  0  1  0  0  0  0  0  0  0  0  0
  147.5498  139.4468  156.3899 C   0  0  0  0  0  0  0  0  0  0  0  0
  148.0276  138.4065  157.2958 N   0  0  0  0  0  0  0  0  0  0  0  0
  147.5022  138.1351  158.4990 C   0  0  0  0  0  0  0  0  0  0  0  0
  146.5636  138.7665  158.9845 O   0  0  0  0  0  0  0  0  0  0  0  0
  148.1316  137.1011  159.0844 N   0  0  0  0  0  0  0  0  0  0  0  0
  147.8706  136.5151  160.3515 C   0  0  0  0  0  0  0  0  0  0  0  0
  147.4810  137.2143  161.4288 N   0  0  0  0  0  0  0  0  0  0  0  0
  147.2968  136.3991  162.5382 N   0  0  0  0  0  0  0  0  0  0  0  0
  147.5550  135.1192  162.2544 C   0  0  0  0  0  0  0  0  0  0  0  0
  148.0495  134.7846  160.6040 S   0  0  0  0  0  0  0  0  0  0  0  0
  148.8302  141.3434  157.5729 C   0  0  0  0  0  0  0  0  0  0  0  0
  152.7217  143.1424  159.6749 H   0  0  0  0  0  0  0  0  0  0  0  0
  153.4249  144.2788  158.5269 H   0  0  0  0  0  0  0  0  0  0  0  0
  152.7805  142.7448  157.9596 H   0  0  0  0  0  0  0  0  0  0  0  0
  151.2314  144.5979  157.4511 H   0  0  0  0  0  0  0  0  0  0  0  0
  151.0862  145.0644  160.4725 H   0  0  0  0  0  0  0  0  0  0  0  0
  150.1200  145.9072  159.2643 H   0  0  0  0  0  0  0  0  0  0  0  0
  151.8619  146.1274  159.3024 H   0  0  0  0  0  0  0  0  0  0  0  0
  150.3547  142.4633  159.4328 H   0  0  0  0  0  0  0  0  0  0  0  0
  149.2123  143.6841  158.9389 H   0  0  0  0  0  0  0  0  0  0  0  0
  151.7951  142.6191  156.5401 H   0  0  0  0  0  0  0  0  0  0  0  0
  151.5554  141.1453  157.4590 H   0  0  0  0  0  0  0  0  0  0  0  0
  150.3383  141.7835  154.7088 H   0  0  0  0  0  0  0  0  0  0  0  0
  151.6117  140.6251  155.0405 H   0  0  0  0  0  0  0  0  0  0  0  0
  148.1464  141.3298  155.5149 H   0  0  0  0  0  0  0  0  0  0  0  0
  146.5840  139.8156  156.7393 H   0  0  0  0  0  0  0  0  0  0  0  0
  147.3682  138.9897  155.4169 H   0  0  0  0  0  0  0  0  0  0  0  0
  148.7963  137.8381  156.9711 H   0  0  0  0  0  0  0  0  0  0  0  0
  148.8811  136.6761  158.5589 H   0  0  0  0  0  0  0  0  0  0  0  0
  147.4541  134.3667  163.0224 H   0  0  0  0  0  0  0  0  0  0  0  0
  149.1760  140.6321  158.3247 H   0  0  0  0  0  0  0  0  0  0  0  0
  147.9137  141.7952  157.9545 H   0  0  0  0  0  0  0  0  0  0  0  0
  149.4592  143.0556  156.7221 H   0  0  0  0  0  0  0  0  0  0  0  0
  1  2  1  0  0  0  0
  1 21  1  0  0  0  0
  1 22  1  0  0  0  0
  1 23  1  0  0  0  0
  2  3  1  0  0  0  0
  2  4  1  0  0  0  0
  2 24  1  0  0  0  0
  3 25  1  0  0  0  0
  3 26  1  0  0  0  0
  3 27  1  0  0  0  0
  4  5  1  0  0  0  0
  4 28  1  0  0  0  0
  4 29  1  0  0  0  0
  5 20  1  0  0  0  0
  5  6  1  0  0  0  0
  5 42  1  0  0  0  0
  6  7  1  0  0  0  0
  6 30  1  0  0  0  0
  6 31  1  0  0  0  0
  7  8  1  0  0  0  0
  7 32  1  0  0  0  0
  7 33  1  0  0  0  0
  8  9  1  0  0  0  0
  9 10  1  0  0  0  0
  9 20  1  0  0  0  0
  9 34  1  0  0  0  0
 10 11  1  0  0  0  0
 10 35  1  0  0  0  0
 10 36  1  0  0  0  0
 11 12  1  0  0  0  0
 11 37  1  0  0  0  0
 12 13  2  0  0  0  0
 12 14  1  0  0  0  0
 14 15  1  0  0  0  0
 14 38  1  0  0  0  0
 15 19  1  0  0  0  0
 15 16  2  0  0  0  0
 16 17  1  0  0  0  0
 17 18  2  0  0  0  0
 18 19  1  0  0  0  0
 18 39  1  0  0  0  0
 20 40  1  0  0  0  0
 20 41  1  0  0  0  0
M  CHG  1   5   1
M  END
> <s_m_source_file>
AV-unprocessed.smi

> <i_m_source_file_index>
2021

> <i_lp_mmshare_version>
43012

> <i_f3d_flags>
0

> <s_epik_input>
W0NIM11bQ0hdKFtDSDNdKVtDSDJdTjFbQ0gyXVtDSDJdT1tDQEhdKFtDSDJdMSlbQ0gyXVtOSF1DKD1PKVtOSF1jMm5uW2NIXXMy

> <s_epik_cmdline>
J2VwaWtfcHl0aG9uJywgJy1waCcsICc3LjAnLCAnLXRuJywgJzgnLCAnLW1hJywgJzIwMCcsICctbWV0YWxfYmluZGluZycsICctaW1hZScsICc8aW5maWxlLm1hZT4nLCAnLW9tYWUnLCAnPG91dGZpbGUubWFlPic=

> <r_lp_tautomer_probability>
1

> <r_epik_Ionization_Penalty>
0.102019

> <r_epik_Ionization_Penalty_Charging>
0.098413

> <r_epik_Ionization_Penalty_Neutral>
0.00360555

> <r_epik_State_Penalty>
0.0884988

> <r_epik_Charging_Adjusted_Penalty>
0.186912

> <i_epik_Tot_Q>
1

> <i_epik_Tot_abs_Q>
1

> <r_epik_Metal_State_Penalty>
0.454709

> <b_epik_Metal_Only>
0

> <s_lp_Force_Field>
OPLS_2005

> <r_lp_Energy>
17.0767

> <b_lp_Chiralities_Consistent>
1

> <s_lp_Variant>
AV-unprocessed.smi:2021-1

> <Gold.Version>
5.8.1

> <Gold.Id.Protein>
6NUR|6NUR_protein|mol2

> <Gold.PLP.Fitness>
40.7785

> <Gold.PLP.PLP>
-30.4108

> <Gold.PLP.part.hbond>
-4.0000

> <Gold.PLP.part.metal>
0.0000

> <Gold.PLP.part.buried>
-3.1278

> <Gold.PLP.part.nonpolar>
-23.0811

> <Gold.PLP.part.repulsive>
0.2581

> <Gold.PLP.ligand.clash>
0.0000

> <Gold.PLP.ligand.torsion>
0.6201

> <Gold.PLP.Chemscore.Hbond>
3.8560

> <Gold.PLP.Chemscore.CHOScore>
0.0000

> <Gold.PLP.Chemscore.Metal>
0.0000

> <Gold.Chemscore.Hbonds>
donor molecule, donor type, donor heavy atom, donor atom, acceptor molecule, acceptor atom, score
      L1  H     5    42       P1  8028  1.89
      P1  H  6931  6943       L1    16  0.91
      P1  H  6934  6947       L1    16  0.88

> <Gold.PLP.Chemscore.Internal.Correction>
0.0398

> <Gold.Rescore>
     Score         DG    S(hbond)    S(metal)    S(lipo)     H(rot)  DE(clash)    DE(int)     intcor
     14.18     -16.00       1.93        0.00      76.06       1.88       0.14       1.67       ----

> <Gold.Chemscore.Fitness>
14.1848

> <Gold.Chemscore.DG>
-15.9955

> <Gold.Chemscore.ZeroCoef>
-5.4800

> <Gold.Chemscore.Hbond>
1.9260

> <Gold.Chemscore.Metal>
0.0000

> <Gold.Chemscore.Lipo>
76.0562

> <Gold.Chemscore.Internal_Hbond>
0.0000

> <Gold.Chemscore.DEClash>
0.1430

> <Gold.Chemscore.DEInternal>
1.6677

> <Gold.Chemscore.Rot>
1.8812

> <Gold.Chemscore.Internal.Correction>
   9.000000E+99

> <Gold.Chemscore.Hbonds>
donor molecule, donor type, donor heavy atom, donor atom, acceptor molecule, acceptor atom, score
      L1  H     5    42       P1  8028  0.90
      P1  H  6931  6943       L1    16  0.18
      P1  H  6934  6947       L1    16  0.64

> <Gold.Chemscore.Hbond.Weighted>
-6.4328

> <Gold.Chemscore.Metal.Weighted>
-0.0000

> <Gold.Chemscore.Lipo.Weighted>
-8.8986

> <Gold.Chemscore.Internal_Hbond.Weighted>
0.0000

> <Gold.Chemscore.DEClash.Weighted>
0.1430

> <Gold.Chemscore.DEInternal.Weighted>
1.6677

> <Gold.Chemscore.Rot.Weighted>
4.8159

> <Gold.Chemscore.Internal.Correction.Weighted>
   9.000000E+99

> <Gold.Protein.RotatedTorsions>
[ 6907 6896 6895 6894 ] final  131.13 input  -60.11 | X-H torsion
[ 7974 7965 7964 7962 ] final   96.50 input  175.53 | X-H torsion
[ 8008 7997 7996 7995 ] final   -4.53 input   59.86 | X-H torsion
[ 10167 10162 10161 10158 ] final   42.96 input  -65.29 | X-H torsion
[ 10718 10713 10712 10709 ] final  -89.20 input   66.30 | X-H torsion
[ 10763 10752 10751 10750 ] final -165.27 input  -60.55 | X-H torsion
[ 11005 11000 10999 10996 ] final   94.31 input  -57.11 | X-H torsion

> <Gold.Protein.ActiveResidues>
 VAL166  LYS551  ARG553  GLY616  TRP617  ASP618  TYR619  PRO620  LYS621  CYS622 
 ASP623  PHE694  ASN695  SER759  ASP760  ASP761  ALA762  ILE779  LEU786  VAL792 
 PHE793  MET794  SER795  GLU796  ALA797  LYS798  CYS799  TRP800  GLU811  SER814 

> <Gold.Protein.RotatedAtoms>
  152.3457  133.6119  159.5908 H   0  0  0  0  0  0  0  0  0  0  0  0  # atno 6907 bound_to 6896
  150.7506  133.9653  159.3537 H   0  0  0  0  0  0  0  0  0  0  0  0  # atno 6908 bound_to 6896
  151.7511  135.0833  160.0382 H   0  0  0  0  0  0  0  0  0  0  0  0  # atno 6909 bound_to 6896
  145.4380  139.2304  143.3108 H   0  0  0  0  0  0  0  0  0  0  0  0  # atno 7974 bound_to 7965
  154.6133  140.2481  155.7641 H   0  0  0  0  0  0  0  0  0  0  0  0  # atno 8008 bound_to 7997
  156.2384  140.2942  156.0325 H   0  0  0  0  0  0  0  0  0  0  0  0  # atno 8009 bound_to 7997
  155.2015  140.0394  157.2908 H   0  0  0  0  0  0  0  0  0  0  0  0  # atno 8010 bound_to 7997
  140.3492  144.2372  150.6147 H   0  0  0  0  0  0  0  0  0  0  0  0  # atno 10167 bound_to 10162
  155.9984  130.4863  150.5135 H   0  0  0  0  0  0  0  0  0  0  0  0  # atno 10718 bound_to 10713
  154.6948  135.2977  154.9427 H   0  0  0  0  0  0  0  0  0  0  0  0  # atno 10763 bound_to 10752
  154.0379  135.6661  153.4791 H   0  0  0  0  0  0  0  0  0  0  0  0  # atno 10764 bound_to 10752
  153.0638  135.5100  154.8060 H   0  0  0  0  0  0  0  0  0  0  0  0  # atno 10765 bound_to 10752
  139.8800  134.8838  156.3846 H   0  0  0  0  0  0  0  0  0  0  0  0  # atno 11005 bound_to 11000
  146.2572  140.5124  142.8869 LP  0  0  0  0  0  0  0  0  0  0  0  0  # atno 17320 bound_to 7965
  144.8140  140.6435  143.6396 LP  0  0  0  0  0  0  0  0  0  0  0  0  # atno 17321 bound_to 7965
  140.5235  143.2260  151.8351 LP  0  0  0  0  0  0  0  0  0  0  0  0  # atno 17342 bound_to 10162
  139.4829  144.4807  151.9310 LP  0  0  0  0  0  0  0  0  0  0  0  0  # atno 17343 bound_to 10162
  157.3105  131.0663  151.2004 LP  0  0  0  0  0  0  0  0  0  0  0  0  # atno 17370 bound_to 10713
  157.2952  130.6816  149.6135 LP  0  0  0  0  0  0  0  0  0  0  0  0  # atno 17371 bound_to 10713
  140.9375  133.7537  156.0104 LP  0  0  0  0  0  0  0  0  0  0  0  0  # atno 17394 bound_to 11000
  140.8258  134.3236  157.5366 LP  0  0  0  0  0  0  0  0  0  0  0  0  # atno 17395 bound_to 11000

$$$$
