AV-unprocessed.smi:2521|AV-procd|sdf|9918|dock7
  -GOLD-   2272013553D 1   1.00000     0.00000
 Structure written by MMmdl.
 35 36  0  0  0  0  0  0  0  0  2 V2000
  143.7576  144.8852  154.3075 C   0  0  0  0  0  0  0  0  0  0  0  0
  144.0466  143.8848  155.4361 C   0  0  0  0  0  0  0  0  0  0  0  0
  143.9843  144.5178  156.8338 C   0  0  0  0  0  0  0  0  0  0  0  0
  145.3230  143.1357  155.2127 C   0  0  0  0  0  0  0  0  0  0  0  0
  145.8309  142.2757  156.1010 N   0  0  0  0  0  0  0  0  0  0  0  0
  147.0189  141.7096  155.6635 N   0  0  0  0  0  0  0  0  0  0  0  0
  147.3999  142.1534  154.4576 C   0  0  0  0  0  0  0  0  0  0  0  0
  148.5212  141.7267  153.8536 N   0  5  0  0  0  0  0  0  0  0  0  0
  149.5417  141.2345  154.5924 C   0  0  0  0  0  0  0  0  0  0  0  0
  150.1433  140.1762  154.3957 O   0  0  0  0  0  0  0  0  0  0  0  0
  149.8855  142.0145  155.6257 N   0  0  0  0  0  0  0  0  0  0  0  0
  150.9459  141.7229  156.5820 C   0  0  0  0  0  0  0  0  0  0  0  0
  150.9636  142.7591  157.7174 C   0  0  1  0  0  0  0  0  0  0  0  0
  151.8309  142.3674  158.8955 C   0  0  0  0  0  0  0  0  0  0  0  0
  152.0267  143.7073  159.5972 C   0  0  0  0  0  0  0  0  0  0  0  0
  152.0266  144.6883  158.5641 O   0  0  0  0  0  0  0  0  0  0  0  0
  151.5697  144.1133  157.3426 C   0  0  0  0  0  0  0  0  0  0  0  0
  146.2787  143.3155  153.7501 S   0  0  0  0  0  0  0  0  0  0  0  0
  143.7247  144.3845  153.3394 H   0  0  0  0  0  0  0  0  0  0  0  0
  144.5248  145.6584  154.2566 H   0  0  0  0  0  0  0  0  0  0  0  0
  142.7973  145.3793  154.4566 H   0  0  0  0  0  0  0  0  0  0  0  0
  143.2464  143.1445  155.4002 H   0  0  0  0  0  0  0  0  0  0  0  0
  144.1095  143.7636  157.6114 H   0  0  0  0  0  0  0  0  0  0  0  0
  143.0251  145.0082  157.0008 H   0  0  0  0  0  0  0  0  0  0  0  0
  144.7673  145.2652  156.9661 H   0  0  0  0  0  0  0  0  0  0  0  0
  149.3718  142.8738  155.7539 H   0  0  0  0  0  0  0  0  0  0  0  0
  150.7933  140.7256  156.9975 H   0  0  0  0  0  0  0  0  0  0  0  0
  151.9049  141.7106  156.0619 H   0  0  0  0  0  0  0  0  0  0  0  0
  149.9458  142.9186  158.0777 H   0  0  0  0  0  0  0  0  0  0  0  0
  151.3696  141.6157  159.5365 H   0  0  0  0  0  0  0  0  0  0  0  0
  152.7917  141.9817  158.5513 H   0  0  0  0  0  0  0  0  0  0  0  0
  151.1912  143.9104  160.2684 H   0  0  0  0  0  0  0  0  0  0  0  0
  152.9465  143.7421  160.1812 H   0  0  0  0  0  0  0  0  0  0  0  0
  152.4285  143.9828  156.6829 H   0  0  0  0  0  0  0  0  0  0  0  0
  150.8552  144.7654  156.8398 H   0  0  0  0  0  0  0  0  0  0  0  0
  1  2  1  0  0  0  0
  1 19  1  0  0  0  0
  1 20  1  0  0  0  0
  1 21  1  0  0  0  0
  2  3  1  0  0  0  0
  2  4  1  0  0  0  0
  2 22  1  0  0  0  0
  3 23  1  0  0  0  0
  3 24  1  0  0  0  0
  3 25  1  0  0  0  0
  4 18  1  0  0  0  0
  4  5  2  0  0  0  0
  5  6  1  0  0  0  0
  6  7  2  0  0  0  0
  7  8  1  0  0  0  0
  7 18  1  0  0  0  0
  8  9  1  0  0  0  0
  9 10  2  0  0  0  0
  9 11  1  0  0  0  0
 11 12  1  0  0  0  0
 11 26  1  0  0  0  0
 12 13  1  0  0  0  0
 12 27  1  0  0  0  0
 12 28  1  0  0  0  0
 13 17  1  0  0  0  0
 13 14  1  0  0  0  0
 13 29  1  0  0  0  0
 14 15  1  0  0  0  0
 14 30  1  0  0  0  0
 14 31  1  0  0  0  0
 15 16  1  0  0  0  0
 15 32  1  0  0  0  0
 15 33  1  0  0  0  0
 16 17  1  0  0  0  0
 17 34  1  0  0  0  0
 17 35  1  0  0  0  0
M  CHG  1   8  -1
M  END
> <s_m_source_file>
AV-unprocessed.smi

> <i_m_source_file_index>
2521

> <i_lp_mmshare_version>
43012

> <i_f3d_flags>
0

> <s_epik_input>
W0NIM11bQ0hdKFtDSDNdKWMxbm5jKHMxKVtOSF1DKD1PKVtOSF1bQ0gyXVtDQEBIXTJbQ0gyXVtDSDJdT1tDSDJdMg==

> <s_epik_cmdline>
J2VwaWtfcHl0aG9uJywgJy1waCcsICc3LjAnLCAnLXRuJywgJzgnLCAnLW1hJywgJzIwMCcsICctbWV0YWxfYmluZGluZycsICctaW1hZScsICc8aW5maWxlLm1hZT4nLCAnLW9tYWUnLCAnPG91dGZpbGUubWFlPic=

> <r_lp_tautomer_probability>
1

> <r_epik_Ionization_Penalty>
4.4451

> <r_epik_Ionization_Penalty_Charging>
4.28522

> <r_epik_Ionization_Penalty_Neutral>
0.159875

> <r_epik_State_Penalty>
4.28479

> <r_epik_Charging_Adjusted_Penalty>
8.57002

> <i_epik_Tot_Q>
-1

> <i_epik_Tot_abs_Q>
1

> <r_epik_Metal_State_Penalty>
0.721771

> <b_epik_Metal_Only>
1

> <s_lp_Force_Field>
OPLS_2005

> <r_lp_Energy>
10.1938

> <b_lp_Chiralities_Consistent>
1

> <s_lp_Variant>
AV-unprocessed.smi:2521-4

> <Gold.Version>
5.8.1

> <Gold.Id.Protein>
6NUR|6NUR_protein|mol2

> <Gold.PLP.Fitness>
40.5633

> <Gold.PLP.PLP>
-35.5855

> <Gold.PLP.part.hbond>
-3.0000

> <Gold.PLP.part.metal>
0.0000

> <Gold.PLP.part.buried>
-4.3791

> <Gold.PLP.part.nonpolar>
-28.8040

> <Gold.PLP.part.repulsive>
0.7180

> <Gold.PLP.ligand.clash>
0.0071

> <Gold.PLP.ligand.torsion>
0.8436

> <Gold.PLP.Chemscore.Hbond>
2.1859

> <Gold.PLP.Chemscore.CHOScore>
0.0000

> <Gold.PLP.Chemscore.Metal>
0.0000

> <Gold.Chemscore.Hbonds>
donor molecule, donor type, donor heavy atom, donor atom, acceptor molecule, acceptor atom, score
      L1  H    11    26       P1  8028  1.00
      P1  H  7989  7998       L1    10  0.90
      P1  H  8011  8017       L1     8  0.33

> <Gold.PLP.Chemscore.Internal.Correction>
0.1145

> <Gold.Rescore>
     Score         DG    S(hbond)    S(metal)    S(lipo)     H(rot)  DE(clash)    DE(int)     intcor
     14.70     -15.67       1.67        0.00      70.54       1.42       0.35       0.61       ----

> <Gold.Chemscore.Fitness>
14.7049

> <Gold.Chemscore.DG>
-15.6744

> <Gold.Chemscore.ZeroCoef>
-5.4800

> <Gold.Chemscore.Hbond>
1.6691

> <Gold.Chemscore.Metal>
0.0000

> <Gold.Chemscore.Lipo>
70.5374

> <Gold.Chemscore.Internal_Hbond>
0.0000

> <Gold.Chemscore.DEClash>
0.3547

> <Gold.Chemscore.DEInternal>
0.6148

> <Gold.Chemscore.Rot>
1.4193

> <Gold.Chemscore.Internal.Correction>
   9.000000E+99

> <Gold.Chemscore.Hbonds>
donor molecule, donor type, donor heavy atom, donor atom, acceptor molecule, acceptor atom, score
      L1  H    11    26       P1  8028  0.99
      P1  H  7989  7998       L1    10  0.17
      P1  H  8011  8017       L1     8  0.03

> <Gold.Chemscore.Hbond.Weighted>
-5.5749

> <Gold.Chemscore.Metal.Weighted>
-0.0000

> <Gold.Chemscore.Lipo.Weighted>
-8.2529

> <Gold.Chemscore.Internal_Hbond.Weighted>
0.0000

> <Gold.Chemscore.DEClash.Weighted>
0.3547

> <Gold.Chemscore.DEInternal.Weighted>
0.6148

> <Gold.Chemscore.Rot.Weighted>
3.6333

> <Gold.Chemscore.Internal.Correction.Weighted>
   9.000000E+99

> <Gold.Protein.RotatedTorsions>
[ 6907 6896 6895 6894 ] final -102.84 input  -60.11 | X-H torsion
[ 7974 7965 7964 7962 ] final  127.69 input  175.53 | X-H torsion
[ 8008 7997 7996 7995 ] final  -32.72 input   59.86 | X-H torsion
[ 10167 10162 10161 10158 ] final -126.84 input  -65.29 | X-H torsion
[ 10718 10713 10712 10709 ] final  106.95 input   66.30 | X-H torsion
[ 10763 10752 10751 10750 ] final  131.99 input  -60.55 | X-H torsion
[ 11005 11000 10999 10996 ] final   77.25 input  -57.11 | X-H torsion

> <Gold.Protein.ActiveResidues>
 VAL166  LYS551  ARG553  GLY616  TRP617  ASP618  TYR619  PRO620  LYS621  CYS622 
 ASP623  PHE694  ASN695  SER759  ASP760  ASP761  ALA762  ILE779  LEU786  VAL792 
 PHE793  MET794  SER795  GLU796  ALA797  LYS798  CYS799  TRP800  GLU811  SER814 

> <Gold.Protein.RotatedAtoms>
  150.7214  134.0520  159.3801 H   0  0  0  0  0  0  0  0  0  0  0  0  # atno 6907 bound_to 6896
  151.8497  135.0560  160.0467 H   0  0  0  0  0  0  0  0  0  0  0  0  # atno 6908 bound_to 6896
  152.2800  133.5425  159.5528 H   0  0  0  0  0  0  0  0  0  0  0  0  # atno 6909 bound_to 6896
  145.0478  139.3909  143.5069 H   0  0  0  0  0  0  0  0  0  0  0  0  # atno 7974 bound_to 7965
  154.4171  140.1730  156.1772 H   0  0  0  0  0  0  0  0  0  0  0  0  # atno 8008 bound_to 7997
  155.9712  140.3385  155.6553 H   0  0  0  0  0  0  0  0  0  0  0  0  # atno 8009 bound_to 7997
  155.6623  140.0702  157.2540 H   0  0  0  0  0  0  0  0  0  0  0  0  # atno 8010 bound_to 7997
  139.9671  143.5886  152.2425 H   0  0  0  0  0  0  0  0  0  0  0  0  # atno 10167 bound_to 10162
  157.6648  131.0862  150.6083 H   0  0  0  0  0  0  0  0  0  0  0  0  # atno 10718 bound_to 10713
  153.7834  135.3165  155.3369 H   0  0  0  0  0  0  0  0  0  0  0  0  # atno 10763 bound_to 10752
  154.8153  135.4640  154.0629 H   0  0  0  0  0  0  0  0  0  0  0  0  # atno 10764 bound_to 10752
  153.1925  135.6910  153.8420 H   0  0  0  0  0  0  0  0  0  0  0  0  # atno 10765 bound_to 10752
  139.9262  134.7667  156.1498 H   0  0  0  0  0  0  0  0  0  0  0  0  # atno 11005 bound_to 11000
  146.3515  140.0112  142.8667 LP  0  0  0  0  0  0  0  0  0  0  0  0  # atno 17320 bound_to 7965
  145.1566  140.9651  143.4401 LP  0  0  0  0  0  0  0  0  0  0  0  0  # atno 17321 bound_to 7965
  139.6509  144.7660  151.2150 LP  0  0  0  0  0  0  0  0  0  0  0  0  # atno 17342 bound_to 10162
  140.7534  143.6162  150.8557 LP  0  0  0  0  0  0  0  0  0  0  0  0  # atno 17343 bound_to 10162
  156.6384  130.4451  149.5761 LP  0  0  0  0  0  0  0  0  0  0  0  0  # atno 17370 bound_to 10713
  156.2228  130.6747  151.1385 LP  0  0  0  0  0  0  0  0  0  0  0  0  # atno 17371 bound_to 10713
  141.0822  133.6749  156.2360 LP  0  0  0  0  0  0  0  0  0  0  0  0  # atno 17394 bound_to 11000
  140.6328  134.5246  157.5561 LP  0  0  0  0  0  0  0  0  0  0  0  0  # atno 17395 bound_to 11000

$$$$
