AV-unprocessed.smi:1033|AV-procd|sdf|4499|dock6
  -GOLD-   22720 2493D 1   1.00000     0.00000
 Structure written by MMmdl.
 57 59  0  0  0  0  0  0  0  0  3 V2000
  152.3495  143.7322  160.1505 C   0  0  0  0  0  0  0  0  0  0  0  0
  151.9716  142.7149  159.0872 C   0  0  0  0  0  0  0  0  0  0  0  0
  151.0481  143.0953  158.0880 C   0  0  0  0  0  0  0  0  0  0  0  0
  150.7128  142.1393  157.1372 C   0  0  0  0  0  0  0  0  0  0  0  0
  149.8394  142.2006  156.0500 N   0  3  0  0  0  0  0  0  0  0  0  0
  149.8291  141.0010  155.4064 C   0  0  0  0  0  0  0  0  0  0  0  0
  150.6769  140.1696  156.0722 N   0  0  0  0  0  0  0  0  0  0  0  0
  151.0146  138.7658  155.7912 C   0  0  0  0  0  0  0  0  0  0  0  0
  149.9278  138.0283  154.9773 C   0  0  1  0  0  0  0  0  0  0  0  0
  150.0611  138.4321  153.6314 O   0  0  0  0  0  0  0  0  0  0  0  0
  150.0105  136.4840  155.0124 C   0  0  0  0  0  0  0  0  0  0  0  0
  148.8127  135.8134  154.4487 N   0  3  0  0  0  0  0  0  0  0  0  0
  147.5415  136.3237  155.0190 C   0  0  0  0  0  0  0  0  0  0  0  0
  146.3478  135.6905  154.2784 C   0  0  0  0  0  0  0  0  0  0  0  0
  146.3356  134.2287  154.3467 N   0  0  0  0  0  0  0  0  0  0  0  0
  145.9966  133.7314  155.6895 C   0  0  0  0  0  0  0  0  0  0  0  0
  144.6318  134.1658  156.2702 C   0  0  2  0  0  0  0  0  0  0  0  0
  144.2409  133.5849  157.6357 C   0  0  0  0  0  0  0  0  0  0  0  0
  143.6125  133.9065  155.3280 O   0  0  0  0  0  0  0  0  0  0  0  0
  147.6112  133.7370  153.8111 C   0  0  0  0  0  0  0  0  0  0  0  0
  148.8523  134.3298  154.5119 C   0  0  0  0  0  0  0  0  0  0  0  0
  151.2662  140.8435  157.1502 C   0  0  0  0  0  0  0  0  0  0  0  0
  152.1875  140.4571  158.1215 C   0  0  0  0  0  0  0  0  0  0  0  0
  152.5341  141.4126  159.1032 C   0  0  0  0  0  0  0  0  0  0  0  0
  153.5216  141.0123  160.1860 C   0  0  0  0  0  0  0  0  0  0  0  0
  151.8141  144.6719  160.0123 H   0  0  0  0  0  0  0  0  0  0  0  0
  153.4174  143.9486  160.1113 H   0  0  0  0  0  0  0  0  0  0  0  0
  152.1081  143.3552  161.1446 H   0  0  0  0  0  0  0  0  0  0  0  0
  150.6173  144.0862  158.0691 H   0  0  0  0  0  0  0  0  0  0  0  0
  149.2479  140.7522  154.5296 H   0  0  0  0  0  0  0  0  0  0  0  0
  151.9469  138.7842  155.2244 H   0  0  0  0  0  0  0  0  0  0  0  0
  151.2401  138.2429  156.7201 H   0  0  0  0  0  0  0  0  0  0  0  0
  148.9423  138.3665  155.2955 H   0  0  0  0  0  0  0  0  0  0  0  0
  149.5286  137.8713  153.0878 H   0  0  0  0  0  0  0  0  0  0  0  0
  150.8910  136.1355  154.4701 H   0  0  0  0  0  0  0  0  0  0  0  0
  150.1467  136.1709  156.0487 H   0  0  0  0  0  0  0  0  0  0  0  0
  147.4980  136.1120  156.0886 H   0  0  0  0  0  0  0  0  0  0  0  0
  147.4967  137.4077  154.9077 H   0  0  0  0  0  0  0  0  0  0  0  0
  145.4120  136.0896  154.6717 H   0  0  0  0  0  0  0  0  0  0  0  0
  146.3785  135.9969  153.2321 H   0  0  0  0  0  0  0  0  0  0  0  0
  146.0763  132.6457  155.7262 H   0  0  0  0  0  0  0  0  0  0  0  0
  146.7492  134.0886  156.3944 H   0  0  0  0  0  0  0  0  0  0  0  0
  144.6707  135.2496  156.3850 H   0  0  0  0  0  0  0  0  0  0  0  0
  145.0493  133.6952  158.3588 H   0  0  0  0  0  0  0  0  0  0  0  0
  143.9762  132.5301  157.5684 H   0  0  0  0  0  0  0  0  0  0  0  0
  143.3696  134.1036  158.0367 H   0  0  0  0  0  0  0  0  0  0  0  0
  143.6407  132.9901  155.0988 H   0  0  0  0  0  0  0  0  0  0  0  0
  147.6629  132.6530  153.8517 H   0  0  0  0  0  0  0  0  0  0  0  0
  147.6625  133.9865  152.7504 H   0  0  0  0  0  0  0  0  0  0  0  0
  149.7440  133.9556  154.0112 H   0  0  0  0  0  0  0  0  0  0  0  0
  148.9178  133.9999  155.5489 H   0  0  0  0  0  0  0  0  0  0  0  0
  152.6169  139.4666  158.1425 H   0  0  0  0  0  0  0  0  0  0  0  0
  153.8818  139.9933  160.0420 H   0  0  0  0  0  0  0  0  0  0  0  0
  153.0525  141.0640  161.1688 H   0  0  0  0  0  0  0  0  0  0  0  0
  154.3878  141.6744  160.1797 H   0  0  0  0  0  0  0  0  0  0  0  0
  148.7924  136.0588  153.4695 H   0  0  0  0  0  0  0  0  0  0  0  0
  149.2930  143.0031  155.7625 H   0  0  0  0  0  0  0  0  0  0  0  0
  1  2  1  0  0  0  0
  1 26  1  0  0  0  0
  1 27  1  0  0  0  0
  1 28  1  0  0  0  0
  2 24  1  0  0  0  0
  2  3  2  0  0  0  0
  3  4  1  0  0  0  0
  3 29  1  0  0  0  0
  4 22  2  0  0  0  0
  4  5  1  0  0  0  0
  5  6  2  0  0  0  0
  5 57  1  0  0  0  0
  6  7  1  0  0  0  0
  6 30  1  0  0  0  0
  7  8  1  0  0  0  0
  7 22  1  0  0  0  0
  8  9  1  0  0  0  0
  8 31  1  0  0  0  0
  8 32  1  0  0  0  0
  9 10  1  0  0  0  0
  9 11  1  0  0  0  0
  9 33  1  0  0  0  0
 10 34  1  0  0  0  0
 11 12  1  0  0  0  0
 11 35  1  0  0  0  0
 11 36  1  0  0  0  0
 12 21  1  0  0  0  0
 12 13  1  0  0  0  0
 12 56  1  0  0  0  0
 13 14  1  0  0  0  0
 13 37  1  0  0  0  0
 13 38  1  0  0  0  0
 14 15  1  0  0  0  0
 14 39  1  0  0  0  0
 14 40  1  0  0  0  0
 15 16  1  0  0  0  0
 15 20  1  0  0  0  0
 16 17  1  0  0  0  0
 16 41  1  0  0  0  0
 16 42  1  0  0  0  0
 17 18  1  0  0  0  0
 17 19  1  0  0  0  0
 17 43  1  0  0  0  0
 18 44  1  0  0  0  0
 18 45  1  0  0  0  0
 18 46  1  0  0  0  0
 19 47  1  0  0  0  0
 20 21  1  0  0  0  0
 20 48  1  0  0  0  0
 20 49  1  0  0  0  0
 21 50  1  0  0  0  0
 21 51  1  0  0  0  0
 22 23  1  0  0  0  0
 23 24  2  0  0  0  0
 23 52  1  0  0  0  0
 24 25  1  0  0  0  0
 25 53  1  0  0  0  0
 25 54  1  0  0  0  0
 25 55  1  0  0  0  0
M  CHG  1   5   1
M  CHG  1  12   1
M  END
> <s_m_source_file>
AV-unprocessed.smi

> <i_m_source_file_index>
1033

> <i_lp_mmshare_version>
43012

> <i_f3d_flags>
0

> <s_epik_input>
W0NIM11jKFtjSF0xKWMoW0NIM10pW2NIXWMoYzEyKW4oW2NIXW4yKVtDSDJdW0NASF0oW09IXSlbQ0gyXU4zW0NIMl1bQ0gyXU4oW0NIMl1bQ0gyXTMpW0NIMl1bQ0BIXShbQ0gzXSlbT0hd

> <s_epik_cmdline>
J2VwaWtfcHl0aG9uJywgJy1waCcsICc3LjAnLCAnLXRuJywgJzgnLCAnLW1hJywgJzIwMCcsICctbWV0YWxfYmluZGluZycsICctaW1hZScsICc8aW5maWxlLm1hZT4nLCAnLW9tYWUnLCAnPG91dGZpbGUubWFlPic=

> <r_epik_Ionization_Penalty>
1.22049

> <r_epik_Ionization_Penalty_Charging>
1.17952

> <r_epik_Ionization_Penalty_Neutral>
0.0409743

> <r_epik_State_Penalty>
1.61468

> <r_epik_Charging_Adjusted_Penalty>
2.7942

> <i_epik_Tot_Q>
2

> <i_epik_Tot_abs_Q>
2

> <r_epik_Metal_State_Penalty>
5.63169

> <b_epik_Metal_Only>
0

> <s_lp_Force_Field>
OPLS_2005

> <r_lp_Energy>
50.4079

> <b_lp_Chiralities_Consistent>
1

> <s_lp_Variant>
AV-unprocessed.smi:1033-10

> <Gold.Version>
5.8.1

> <Gold.Id.Protein>
6NUR|6NUR_protein|mol2

> <Gold.PLP.Fitness>
58.2314

> <Gold.PLP.PLP>
-41.2396

> <Gold.PLP.part.hbond>
-5.0164

> <Gold.PLP.part.metal>
0.0000

> <Gold.PLP.part.buried>
-4.1739

> <Gold.PLP.part.nonpolar>
-32.6359

> <Gold.PLP.part.repulsive>
0.2309

> <Gold.PLP.ligand.clash>
0.0000

> <Gold.PLP.ligand.torsion>
0.5898

> <Gold.PLP.Chemscore.Hbond>
6.0000

> <Gold.PLP.Chemscore.CHOScore>
0.0000

> <Gold.PLP.Chemscore.Metal>
0.0000

> <Gold.Chemscore.Hbonds>
donor molecule, donor type, donor heavy atom, donor atom, acceptor molecule, acceptor atom, score
      L1  H     5    57       P1  8028  2.00
      L1  H    10    34       P1  7948  0.86
      L1  H    12    56       P1  7948  2.00
      L1  H    19    47       P1 10957  0.82

> <Gold.PLP.Chemscore.Internal.Correction>
0.1714

> <Gold.Rescore>
     Score         DG    S(hbond)    S(metal)    S(lipo)     H(rot)  DE(clash)    DE(int)     intcor
     21.63     -22.36       3.86        0.00     102.87       3.15       0.06       0.66       ----

> <Gold.Chemscore.Fitness>
21.6314

> <Gold.Chemscore.DG>
-22.3564

> <Gold.Chemscore.ZeroCoef>
-5.4800

> <Gold.Chemscore.Hbond>
3.8625

> <Gold.Chemscore.Metal>
0.0000

> <Gold.Chemscore.Lipo>
102.8674

> <Gold.Chemscore.Internal_Hbond>
0.0000

> <Gold.Chemscore.DEClash>
0.0630

> <Gold.Chemscore.DEInternal>
0.6621

> <Gold.Chemscore.Rot>
3.1483

> <Gold.Chemscore.Internal.Correction>
   9.000000E+99

> <Gold.Chemscore.Hbonds>
donor molecule, donor type, donor heavy atom, donor atom, acceptor molecule, acceptor atom, score
      L1  H     5    57       P1  8028  0.99
      L1  H    10    34       P1  7948  0.71
      L1  H    12    56       P1  7948  0.99
      L1  H    19    47       P1 10957  0.80

> <Gold.Chemscore.Hbond.Weighted>
-12.9007

> <Gold.Chemscore.Metal.Weighted>
-0.0000

> <Gold.Chemscore.Lipo.Weighted>
-12.0355

> <Gold.Chemscore.Internal_Hbond.Weighted>
0.0000

> <Gold.Chemscore.DEClash.Weighted>
0.0630

> <Gold.Chemscore.DEInternal.Weighted>
0.6621

> <Gold.Chemscore.Rot.Weighted>
8.0597

> <Gold.Chemscore.Internal.Correction.Weighted>
   9.000000E+99

> <Gold.Protein.RotatedTorsions>
[ 6907 6896 6895 6894 ] final   90.04 input  -60.11 | X-H torsion
[ 7974 7965 7964 7962 ] final   88.64 input  175.53 | X-H torsion
[ 8008 7997 7996 7995 ] final  -28.21 input   59.86 | X-H torsion
[ 10167 10162 10161 10158 ] final  143.59 input  -65.29 | X-H torsion
[ 10718 10713 10712 10709 ] final  141.40 input   66.30 | X-H torsion
[ 10763 10752 10751 10750 ] final   61.39 input  -60.55 | X-H torsion
[ 11005 11000 10999 10996 ] final -172.95 input  -57.11 | X-H torsion

> <Gold.Protein.ActiveResidues>
 VAL166  LYS551  ARG553  GLY616  TRP617  ASP618  TYR619  PRO620  LYS621  CYS622 
 ASP623  PHE694  ASN695  SER759  ASP760  ASP761  ALA762  ILE779  LEU786  VAL792 
 PHE793  MET794  SER795  GLU796  ALA797  LYS798  CYS799  TRP800  GLU811  SER814 

> <Gold.Protein.RotatedAtoms>
  152.5441  134.1874  159.8659 H   0  0  0  0  0  0  0  0  0  0  0  0  # atno 6907 bound_to 6896
  151.1872  133.4682  159.2602 H   0  0  0  0  0  0  0  0  0  0  0  0  # atno 6908 bound_to 6896
  151.1120  135.0043  159.8553 H   0  0  0  0  0  0  0  0  0  0  0  0  # atno 6909 bound_to 6896
  145.5429  139.2290  143.2555 H   0  0  0  0  0  0  0  0  0  0  0  0  # atno 7974 bound_to 7965
  154.4342  140.1851  156.1054 H   0  0  0  0  0  0  0  0  0  0  0  0  # atno 8008 bound_to 7997
  156.0259  140.3336  155.7062 H   0  0  0  0  0  0  0  0  0  0  0  0  # atno 8009 bound_to 7997
  155.5909  140.0631  157.2749 H   0  0  0  0  0  0  0  0  0  0  0  0  # atno 8010 bound_to 7997
  139.4966  144.6030  151.6440 H   0  0  0  0  0  0  0  0  0  0  0  0  # atno 10167 bound_to 10162
  157.3924  131.1006  151.0634 H   0  0  0  0  0  0  0  0  0  0  0  0  # atno 10718 bound_to 10713
  152.9949  135.5502  154.6026 H   0  0  0  0  0  0  0  0  0  0  0  0  # atno 10763 bound_to 10752
  154.5364  135.2817  155.1136 H   0  0  0  0  0  0  0  0  0  0  0  0  # atno 10764 bound_to 10752
  154.2431  135.6412  153.5267 H   0  0  0  0  0  0  0  0  0  0  0  0  # atno 10765 bound_to 10752
  140.4912  134.5983  157.4955 H   0  0  0  0  0  0  0  0  0  0  0  0  # atno 11005 bound_to 11000
  146.1969  140.6250  142.9120 LP  0  0  0  0  0  0  0  0  0  0  0  0  # atno 17320 bound_to 7965
  144.7568  140.5326  143.6763 LP  0  0  0  0  0  0  0  0  0  0  0  0  # atno 17321 bound_to 7965
  140.5684  144.0150  150.6204 LP  0  0  0  0  0  0  0  0  0  0  0  0  # atno 17342 bound_to 10162
  140.3260  143.3107  152.0736 LP  0  0  0  0  0  0  0  0  0  0  0  0  # atno 17343 bound_to 10162
  157.1663  130.6247  149.5626 LP  0  0  0  0  0  0  0  0  0  0  0  0  # atno 17370 bound_to 10713
  155.9801  130.4800  150.6756 LP  0  0  0  0  0  0  0  0  0  0  0  0  # atno 17371 bound_to 10713
  139.9768  134.7202  155.9935 LP  0  0  0  0  0  0  0  0  0  0  0  0  # atno 17394 bound_to 11000
  141.1483  133.6552  156.3934 LP  0  0  0  0  0  0  0  0  0  0  0  0  # atno 17395 bound_to 11000

$$$$
