AV-unprocessed.smi:264|AV-procd|sdf|2010|dock4
  -GOLD-   2262021203D 1   1.00000     0.00000
 Structure written by MMmdl.
 52 56  0  0  0  0  0  0  0  0  1 V2000
  146.0626  137.1868  150.7290 C   0  0  0  0  0  0  0  0  0  0  0  0
  145.6267  136.9484  152.1829 C   0  0  1  0  0  0  0  0  0  0  0  0
  145.9927  135.6168  152.5349 O   0  0  0  0  0  0  0  0  0  0  0  0
  146.2434  135.5656  153.9279 C   0  0  0  0  0  0  0  0  0  0  0  0
  146.9938  136.8660  154.1703 C   0  0  0  0  0  0  0  0  0  0  0  0
  146.2663  137.8605  153.2681 C   0  0  2  0  0  0  0  0  0  0  0  0
  145.2124  138.4363  154.0217 O   0  0  0  0  0  0  0  0  0  0  0  0
  147.1758  139.0084  152.7553 C   0  0  0  0  0  0  0  0  0  0  0  0
  147.9853  139.6142  153.8016 N   0  0  0  0  0  0  0  0  0  0  0  0
  149.3576  139.7213  153.8266 C   0  0  0  0  0  0  0  0  0  0  0  0
  149.8512  140.3012  154.8862 N   0  0  0  0  0  0  0  0  0  0  0  0
  148.7344  140.6235  155.6487 C   0  0  0  0  0  0  0  0  0  0  0  0
  148.5438  141.2622  156.9066 C   0  0  0  0  0  0  0  0  0  0  0  0
  149.5787  141.6914  157.6720 N   0  0  0  0  0  0  0  0  0  0  0  0
  150.6608  140.7559  157.9580 C   0  0  0  0  0  0  0  0  0  0  0  0
  151.5405  141.3063  159.0895 C   0  0  0  0  0  0  0  0  0  0  0  0
  151.9956  142.6211  158.7709 O   0  0  0  0  0  0  0  0  0  0  0  0
  150.9621  143.5718  158.4828 C   0  0  1  0  0  0  0  0  0  0  0  0
  150.2017  143.9985  159.7351 C   0  0  0  0  0  0  0  0  0  0  0  0
  151.1522  145.0101  160.3563 C   0  0  0  0  0  0  0  0  0  0  0  0
  151.6515  145.7302  159.2402 O   0  0  0  0  0  0  0  0  0  0  0  0
  151.6632  144.8838  158.0925 C   0  0  0  0  0  0  0  0  0  0  0  0
  150.0615  143.0300  157.3528 C   0  0  0  0  0  0  0  0  0  0  0  0
  147.2637  141.4325  157.3337 N   0  0  0  0  0  0  0  0  0  0  0  0
  146.2408  140.9988  156.5912 C   0  0  0  0  0  0  0  0  0  0  0  0
  146.2710  140.3800  155.4097 N   0  0  0  0  0  0  0  0  0  0  0  0
  147.5516  140.2119  154.9721 C   0  0  0  0  0  0  0  0  0  0  0  0
  145.7990  138.1895  150.3927 H   0  0  0  0  0  0  0  0  0  0  0  0
  145.5696  136.4804  150.0609 H   0  0  0  0  0  0  0  0  0  0  0  0
  147.1376  137.0549  150.6056 H   0  0  0  0  0  0  0  0  0  0  0  0
  144.5376  137.0106  152.2285 H   0  0  0  0  0  0  0  0  0  0  0  0
  145.2994  135.5455  154.4750 H   0  0  0  0  0  0  0  0  0  0  0  0
  146.8243  134.6846  154.2014 H   0  0  0  0  0  0  0  0  0  0  0  0
  147.0199  137.1583  155.2213 H   0  0  0  0  0  0  0  0  0  0  0  0
  148.0242  136.7401  153.8356 H   0  0  0  0  0  0  0  0  0  0  0  0
  144.8274  139.1345  153.5149 H   0  0  0  0  0  0  0  0  0  0  0  0
  147.8552  138.6428  151.9849 H   0  0  0  0  0  0  0  0  0  0  0  0
  146.5759  139.7928  152.2922 H   0  0  0  0  0  0  0  0  0  0  0  0
  149.9865  139.3489  153.0312 H   0  0  0  0  0  0  0  0  0  0  0  0
  150.2576  139.7844  158.2467 H   0  0  0  0  0  0  0  0  0  0  0  0
  151.2600  140.6077  157.0584 H   0  0  0  0  0  0  0  0  0  0  0  0
  150.9993  141.3011  160.0349 H   0  0  0  0  0  0  0  0  0  0  0  0
  152.4086  140.6625  159.2307 H   0  0  0  0  0  0  0  0  0  0  0  0
  149.2739  144.5008  159.4569 H   0  0  0  0  0  0  0  0  0  0  0  0
  149.9405  143.1877  160.4130 H   0  0  0  0  0  0  0  0  0  0  0  0
  150.6611  145.6690  161.0723 H   0  0  0  0  0  0  0  0  0  0  0  0
  151.9780  144.5060  160.8606 H   0  0  0  0  0  0  0  0  0  0  0  0
  152.6825  144.7169  157.7427 H   0  0  0  0  0  0  0  0  0  0  0  0
  151.1252  145.3996  157.2964 H   0  0  0  0  0  0  0  0  0  0  0  0
  150.6322  142.9724  156.4248 H   0  0  0  0  0  0  0  0  0  0  0  0
  149.2419  143.7235  157.1671 H   0  0  0  0  0  0  0  0  0  0  0  0
  145.2575  141.1712  157.0033 H   0  0  0  0  0  0  0  0  0  0  0  0
  1  2  1  0  0  0  0
  1 28  1  0  0  0  0
  1 29  1  0  0  0  0
  1 30  1  0  0  0  0
  2  6  1  0  0  0  0
  2  3  1  0  0  0  0
  2 31  1  0  0  0  0
  3  4  1  0  0  0  0
  4  5  1  0  0  0  0
  4 32  1  0  0  0  0
  4 33  1  0  0  0  0
  5  6  1  0  0  0  0
  5 34  1  0  0  0  0
  5 35  1  0  0  0  0
  6  7  1  0  0  0  0
  6  8  1  0  0  0  0
  7 36  1  0  0  0  0
  8  9  1  0  0  0  0
  8 37  1  0  0  0  0
  8 38  1  0  0  0  0
  9 27  1  0  0  0  0
  9 10  1  0  0  0  0
 10 11  2  0  0  0  0
 10 39  1  0  0  0  0
 11 12  1  0  0  0  0
 12 27  2  0  0  0  0
 12 13  1  0  0  0  0
 13 14  1  0  0  0  0
 13 24  2  0  0  0  0
 14 23  1  0  0  0  0
 14 15  1  0  0  0  0
 15 16  1  0  0  0  0
 15 40  1  0  0  0  0
 15 41  1  0  0  0  0
 16 17  1  0  0  0  0
 16 42  1  0  0  0  0
 16 43  1  0  0  0  0
 17 18  1  0  0  0  0
 18 22  1  0  0  0  0
 18 19  1  0  0  0  0
 18 23  1  0  0  0  0
 19 20  1  0  0  0  0
 19 44  1  0  0  0  0
 19 45  1  0  0  0  0
 20 21  1  0  0  0  0
 20 46  1  0  0  0  0
 20 47  1  0  0  0  0
 21 22  1  0  0  0  0
 22 48  1  0  0  0  0
 22 49  1  0  0  0  0
 23 50  1  0  0  0  0
 23 51  1  0  0  0  0
 24 25  1  0  0  0  0
 25 26  2  0  0  0  0
 25 52  1  0  0  0  0
 26 27  1  0  0  0  0
M  END
> <s_m_source_file>
AV-unprocessed.smi

> <i_m_source_file_index>
264

> <i_lp_mmshare_version>
43012

> <i_f3d_flags>
0

> <s_epik_input>
W0NIMl0xW0NIMl1PW0NAQEhdKFtDSDNdKVtDQEBdMShbT0hdKVtDSDJdbihbY0hdbjIpYyhjMjMpbltjSF1uYzNOKFtDSDJdNClbQ0gyXVtDSDJdT1tDQF00NVtDSDJdW0NIMl1PW0NIMl01

> <s_epik_cmdline>
J2VwaWtfcHl0aG9uJywgJy1waCcsICc3LjAnLCAnLXRuJywgJzgnLCAnLW1hJywgJzIwMCcsICctbWV0YWxfYmluZGluZycsICctaW1hZScsICc8aW5maWxlLm1hZT4nLCAnLW9tYWUnLCAnPG91dGZpbGUubWFlPic=

> <r_lp_tautomer_probability>
1

> <r_epik_Ionization_Penalty>
0.00539389

> <r_epik_Ionization_Penalty_Charging>
0

> <r_epik_Ionization_Penalty_Neutral>
0.00539389

> <r_epik_State_Penalty>
0.00375441

> <r_epik_Charging_Adjusted_Penalty>
0.00375441

> <i_epik_Tot_Q>
0

> <i_epik_Tot_abs_Q>
0

> <r_epik_Metal_State_Penalty>
-0

> <b_epik_Metal_Only>
0

> <s_lp_Force_Field>
OPLS_2005

> <r_lp_Energy>
53.4902

> <b_lp_Chiralities_Consistent>
1

> <s_lp_Variant>
AV-unprocessed.smi:264-4

> <Gold.Version>
5.8.1

> <Gold.Id.Protein>
6NUR|6NUR_protein|mol2

> <Gold.PLP.Fitness>
36.2674

> <Gold.PLP.PLP>
-31.8979

> <Gold.PLP.part.hbond>
-1.9145

> <Gold.PLP.part.metal>
0.0000

> <Gold.PLP.part.buried>
3.2225

> <Gold.PLP.part.nonpolar>
-34.0406

> <Gold.PLP.part.repulsive>
0.5222

> <Gold.PLP.ligand.clash>
0.0000

> <Gold.PLP.ligand.torsion>
0.5722

> <Gold.PLP.Chemscore.Hbond>
1.0455

> <Gold.PLP.Chemscore.CHOScore>
0.6995

> <Gold.PLP.Chemscore.Metal>
0.0000

> <Gold.Chemscore.Hbonds>
donor molecule, donor type, donor heavy atom, donor atom, acceptor molecule, acceptor atom, score
      L1  H     7    36       P1 10175  0.98
      P1  H  7989  7998       L1    11  0.07
      L1  C    10    39       P1  7957  0.74

> <Gold.PLP.Chemscore.Internal.Correction>
0.2787

> <Gold.Rescore>
     Score         DG    S(hbond)    S(metal)    S(lipo)     H(rot)  DE(clash)    DE(int)     intcor
     10.81     -14.22       0.99        0.00      92.44       2.11       1.20       2.21       ----

> <Gold.Chemscore.Fitness>
10.8082

> <Gold.Chemscore.DG>
-14.2163

> <Gold.Chemscore.ZeroCoef>
-5.4800

> <Gold.Chemscore.Hbond>
0.9918

> <Gold.Chemscore.Metal>
0.0000

> <Gold.Chemscore.Lipo>
92.4438

> <Gold.Chemscore.Internal_Hbond>
0.0000

> <Gold.Chemscore.DEClash>
1.1958

> <Gold.Chemscore.DEInternal>
2.2123

> <Gold.Chemscore.Rot>
2.1063

> <Gold.Chemscore.Internal.Correction>
   9.000000E+99

> <Gold.Chemscore.Hbonds>
donor molecule, donor type, donor heavy atom, donor atom, acceptor molecule, acceptor atom, score
      L1  H     7    36       P1 10175  0.91

> <Gold.Chemscore.Hbond.Weighted>
-3.3125

> <Gold.Chemscore.Metal.Weighted>
-0.0000

> <Gold.Chemscore.Lipo.Weighted>
-10.8159

> <Gold.Chemscore.Internal_Hbond.Weighted>
0.0000

> <Gold.Chemscore.DEClash.Weighted>
1.1958

> <Gold.Chemscore.DEInternal.Weighted>
2.2123

> <Gold.Chemscore.Rot.Weighted>
5.3921

> <Gold.Chemscore.Internal.Correction.Weighted>
   9.000000E+99

> <Gold.Protein.RotatedTorsions>
[ 6907 6896 6895 6894 ] final  -17.88 input  -60.11 | X-H torsion
[ 7974 7965 7964 7962 ] final  -51.01 input  175.53 | X-H torsion
[ 8008 7997 7996 7995 ] final  -22.20 input   59.86 | X-H torsion
[ 10167 10162 10161 10158 ] final -160.34 input  -65.29 | X-H torsion
[ 10718 10713 10712 10709 ] final -137.44 input   66.30 | X-H torsion
[ 10763 10752 10751 10750 ] final   79.26 input  -60.55 | X-H torsion
[ 11005 11000 10999 10996 ] final  102.70 input  -57.11 | X-H torsion

> <Gold.Protein.ActiveResidues>
 VAL166  LYS551  ARG553  GLY616  TRP617  ASP618  TYR619  PRO620  LYS621  CYS622 
 ASP623  PHE694  ASN695  SER759  ASP760  ASP761  ALA762  ILE779  LEU786  VAL792 
 PHE793  MET794  SER795  GLU796  ALA797  LYS798  CYS799  TRP800  GLU811  SER814 

> <Gold.Protein.RotatedAtoms>
  151.2866  135.0729  159.9188 H   0  0  0  0  0  0  0  0  0  0  0  0  # atno 6907 bound_to 6896
  152.5324  133.9975  159.7890 H   0  0  0  0  0  0  0  0  0  0  0  0  # atno 6908 bound_to 6896
  151.0238  133.5801  159.2699 H   0  0  0  0  0  0  0  0  0  0  0  0  # atno 6909 bound_to 6896
  145.9236  140.7812  142.9635 H   0  0  0  0  0  0  0  0  0  0  0  0  # atno 7974 bound_to 7965
  154.4658  140.2014  156.0122 H   0  0  0  0  0  0  0  0  0  0  0  0  # atno 8008 bound_to 7997
  156.0924  140.3256  155.7804 H   0  0  0  0  0  0  0  0  0  0  0  0  # atno 8009 bound_to 7997
  155.4934  140.0548  157.2941 H   0  0  0  0  0  0  0  0  0  0  0  0  # atno 8010 bound_to 7997
  139.6547  144.0020  152.2185 H   0  0  0  0  0  0  0  0  0  0  0  0  # atno 10167 bound_to 10162
  156.2882  130.7359  151.1377 H   0  0  0  0  0  0  0  0  0  0  0  0  # atno 10718 bound_to 10713
  153.0939  135.4846  154.8741 H   0  0  0  0  0  0  0  0  0  0  0  0  # atno 10763 bound_to 10752
  154.7301  135.3058  154.8907 H   0  0  0  0  0  0  0  0  0  0  0  0  # atno 10764 bound_to 10752
  153.9545  135.6819  153.4797 H   0  0  0  0  0  0  0  0  0  0  0  0  # atno 10765 bound_to 10752
  139.8779  134.9234  156.5098 H   0  0  0  0  0  0  0  0  0  0  0  0  # atno 11005 bound_to 11000
  144.6756  140.2015  143.7386 LP  0  0  0  0  0  0  0  0  0  0  0  0  # atno 17320 bound_to 7965
  145.8518  139.2179  143.1768 LP  0  0  0  0  0  0  0  0  0  0  0  0  # atno 17321 bound_to 7965
  139.9744  144.6472  150.7959 LP  0  0  0  0  0  0  0  0  0  0  0  0  # atno 17342 bound_to 10162
  140.7554  143.3045  151.2997 LP  0  0  0  0  0  0  0  0  0  0  0  0  # atno 17343 bound_to 10162
  157.7334  131.0591  150.5576 LP  0  0  0  0  0  0  0  0  0  0  0  0  # atno 17370 bound_to 10713
  156.5689  130.4274  149.6028 LP  0  0  0  0  0  0  0  0  0  0  0  0  # atno 17371 bound_to 10713
  140.8528  133.8119  155.9186 LP  0  0  0  0  0  0  0  0  0  0  0  0  # atno 17394 bound_to 11000
  140.9127  134.2241  157.4976 LP  0  0  0  0  0  0  0  0  0  0  0  0  # atno 17395 bound_to 11000

$$$$
