AV-unprocessed.smi:114|AV-procd|sdf|1117|dock8
  -GOLD-   2262018243D 1   1.00000     0.00000
 Structure written by MMmdl.
 32 34  0  0  0  0  0  0  0  0  1 V2000
  149.1016  129.9287  155.6432 N   0  0  0  0  0  0  0  0  0  0  0  0
  148.2421  130.0768  154.6250 C   0  0  0  0  0  0  0  0  0  0  0  0
  147.5202  129.0023  154.2311 N   0  0  0  0  0  0  0  0  0  0  0  0
  146.6497  129.1074  153.2202 C   0  0  0  0  0  0  0  0  0  0  0  0
  145.9712  127.9833  152.8909 F   0  0  0  0  0  0  0  0  0  0  0  0
  146.3762  130.1982  152.4968 N   0  0  0  0  0  0  0  0  0  0  0  0
  147.1007  131.2859  152.8884 C   0  0  0  0  0  0  0  0  0  0  0  0
  148.0532  131.3041  153.9432 C   0  0  0  0  0  0  0  0  0  0  0  0
  148.5997  132.5734  154.0670 N   0  0  0  0  0  0  0  0  0  0  0  0
  147.9966  133.2651  153.1378 C   0  0  0  0  0  0  0  0  0  0  0  0
  147.0835  132.5693  152.3752 N   0  0  0  0  0  0  0  0  0  0  0  0
  146.2388  133.1151  151.2648 C   0  0  2  0  0  0  0  0  0  0  0  0
  146.5642  134.4629  151.0918 O   0  0  0  0  0  0  0  0  0  0  0  0
  145.4400  135.2958  151.3725 C   0  0  1  0  0  0  0  0  0  0  0  0
  145.4989  136.5992  150.5561 C   0  0  0  0  0  0  0  0  0  0  0  0
  146.6593  137.3299  150.8917 O   0  0  0  0  0  0  0  0  0  0  0  0
  144.2394  134.3849  151.0854 C   0  0  1  0  0  0  0  0  0  0  0  0
  143.9431  134.3735  149.6971 O   0  0  0  0  0  0  0  0  0  0  0  0
  144.7388  133.0333  151.5865 C   0  0  1  0  0  0  0  0  0  0  0  0
  144.0799  131.9592  150.9415 O   0  0  0  0  0  0  0  0  0  0  0  0
  146.5287  132.5531  150.3758 H   0  0  0  0  0  0  0  0  0  0  0  0
  145.4296  135.5343  152.4359 H   0  0  0  0  0  0  0  0  0  0  0  0
  143.3471  134.7089  151.6221 H   0  0  0  0  0  0  0  0  0  0  0  0
  144.5873  132.9624  152.6636 H   0  0  0  0  0  0  0  0  0  0  0  0
  149.6513  130.7158  155.9563 H   0  0  0  0  0  0  0  0  0  0  0  0
  149.1924  129.0325  156.0996 H   0  0  0  0  0  0  0  0  0  0  0  0
  148.2035  134.3142  152.9828 H   0  0  0  0  0  0  0  0  0  0  0  0
  145.4753  136.3999  149.4842 H   0  0  0  0  0  0  0  0  0  0  0  0
  144.6400  137.2286  150.7906 H   0  0  0  0  0  0  0  0  0  0  0  0
  147.1555  136.8323  151.5236 H   0  0  0  0  0  0  0  0  0  0  0  0
  143.0041  134.4117  149.5948 H   0  0  0  0  0  0  0  0  0  0  0  0
  143.2149  132.2466  150.6914 H   0  0  0  0  0  0  0  0  0  0  0  0
  1  2  1  0  0  0  0
  1 25  1  0  0  0  0
  1 26  1  0  0  0  0
  2  8  1  0  0  0  0
  2  3  2  0  0  0  0
  3  4  1  0  0  0  0
  4  5  1  0  0  0  0
  4  6  2  0  0  0  0
  6  7  1  0  0  0  0
  7 11  1  0  0  0  0
  7  8  2  0  0  0  0
  8  9  1  0  0  0  0
  9 10  2  0  0  0  0
 10 11  1  0  0  0  0
 10 27  1  0  0  0  0
 11 12  1  0  0  0  0
 12 21  1  0  0  0  0
 12 19  1  0  0  0  0
 12 13  1  0  0  0  0
 13 14  1  0  0  0  0
 14 22  1  0  0  0  0
 14 15  1  0  0  0  0
 14 17  1  0  0  0  0
 15 16  1  0  0  0  0
 15 28  1  0  0  0  0
 15 29  1  0  0  0  0
 16 30  1  0  0  0  0
 17 23  1  0  0  0  0
 17 18  1  0  0  0  0
 17 19  1  0  0  0  0
 18 31  1  0  0  0  0
 19 24  1  0  0  0  0
 19 20  1  0  0  0  0
 20 32  1  0  0  0  0
M  END
> <s_m_source_file>
AV-unprocessed.smi

> <i_m_source_file_index>
114

> <i_lp_mmshare_version>
43012

> <i_f3d_flags>
0

> <s_epik_input>
RmMobjEpbmMoW05IMl0pYyhjMTIpbltjSF1uMltDQEBIXTNPW0NASF0oW0NIMl1bT0hdKVtDQEBIXShbT0hdKVtDQEBIXTNbT0hd

> <s_epik_cmdline>
J2VwaWtfcHl0aG9uJywgJy1waCcsICc3LjAnLCAnLXRuJywgJzgnLCAnLW1hJywgJzIwMCcsICctbWV0YWxfYmluZGluZycsICctaW1hZScsICc8aW5maWxlLm1hZT4nLCAnLW9tYWUnLCAnPG91dGZpbGUubWFlPic=

> <r_lp_tautomer_probability>
1

> <r_epik_Ionization_Penalty>
1.13199e-05

> <r_epik_Ionization_Penalty_Charging>
0

> <r_epik_Ionization_Penalty_Neutral>
1.13199e-05

> <r_epik_State_Penalty>
-0

> <r_epik_Charging_Adjusted_Penalty>
0

> <i_epik_Tot_Q>
0

> <i_epik_Tot_abs_Q>
0

> <r_epik_Metal_State_Penalty>
-0

> <b_epik_Metal_Only>
0

> <s_epik_Chemistry_Notes>
This compound contains an acetal/aminal-like group ( X-CH(R)-Y where X, Y are N, S, or O) that may be acid/base labile, releasing an aldehyde.

> <s_lp_Force_Field>
OPLS_2005

> <r_lp_Energy>
42.9568

> <b_lp_Chiralities_Consistent>
1

> <s_lp_Variant>
AV-unprocessed.smi:114-11

> <Gold.Version>
5.8.1

> <Gold.Id.Protein>
6NUR|6NUR_protein|mol2

> <Gold.PLP.Fitness>
37.0095

> <Gold.PLP.PLP>
-26.3183

> <Gold.PLP.part.hbond>
-4.2695

> <Gold.PLP.part.metal>
0.0000

> <Gold.PLP.part.buried>
-0.9178

> <Gold.PLP.part.nonpolar>
-23.2891

> <Gold.PLP.part.repulsive>
1.2943

> <Gold.PLP.ligand.clash>
0.0000

> <Gold.PLP.ligand.torsion>
0.0102

> <Gold.PLP.Chemscore.Hbond>
2.5680

> <Gold.PLP.Chemscore.CHOScore>
1.0000

> <Gold.PLP.Chemscore.Metal>
0.0000

> <Gold.Chemscore.Hbonds>
donor molecule, donor type, donor heavy atom, donor atom, acceptor molecule, acceptor atom, score
      L1  H    16    30       P1  7948  0.78
      L1  H    18    31       P1 10186  1.00
      P1  H  7954  7966       L1    16  0.75
      L1  C    10    27       P1  7948  1.00

> <Gold.PLP.Chemscore.Internal.Correction>
0.0076

> <Gold.Rescore>
     Score         DG    S(hbond)    S(metal)    S(lipo)     H(rot)  DE(clash)    DE(int)     intcor
      3.42      -5.05       1.91        0.00      29.93       4.03       1.61       0.02       ----

> <Gold.Chemscore.Fitness>
3.4209

> <Gold.Chemscore.DG>
-5.0460

> <Gold.Chemscore.ZeroCoef>
-5.4800

> <Gold.Chemscore.Hbond>
1.9086

> <Gold.Chemscore.Metal>
0.0000

> <Gold.Chemscore.Lipo>
29.9338

> <Gold.Chemscore.Internal_Hbond>
0.0000

> <Gold.Chemscore.DEClash>
1.6080

> <Gold.Chemscore.DEInternal>
0.0171

> <Gold.Chemscore.Rot>
4.0277

> <Gold.Chemscore.Internal.Correction>
   9.000000E+99

> <Gold.Chemscore.Hbonds>
donor molecule, donor type, donor heavy atom, donor atom, acceptor molecule, acceptor atom, score
      L1  H    16    30       P1  7948  0.78
      L1  H    18    31       P1 10186  0.96
      P1  H  7954  7966       L1    16  0.09

> <Gold.Chemscore.Hbond.Weighted>
-6.3747

> <Gold.Chemscore.Metal.Weighted>
-0.0000

> <Gold.Chemscore.Lipo.Weighted>
-3.5023

> <Gold.Chemscore.Internal_Hbond.Weighted>
0.0000

> <Gold.Chemscore.DEClash.Weighted>
1.6080

> <Gold.Chemscore.DEInternal.Weighted>
0.0171

> <Gold.Chemscore.Rot.Weighted>
10.3110

> <Gold.Chemscore.Internal.Correction.Weighted>
   9.000000E+99

> <Gold.Protein.RotatedTorsions>
[ 6907 6896 6895 6894 ] final  -34.76 input  -60.11 | X-H torsion
[ 7974 7965 7964 7962 ] final -177.10 input  175.53 | X-H torsion
[ 8008 7997 7996 7995 ] final  -87.72 input   59.86 | X-H torsion
[ 10167 10162 10161 10158 ] final  114.74 input  -65.29 | X-H torsion
[ 10718 10713 10712 10709 ] final  132.37 input   66.30 | X-H torsion
[ 10763 10752 10751 10750 ] final -115.51 input  -60.55 | X-H torsion
[ 11005 11000 10999 10996 ] final  -41.67 input  -57.11 | X-H torsion

> <Gold.Protein.ActiveResidues>
 VAL166  LYS551  ARG553  GLY616  TRP617  ASP618  TYR619  PRO620  LYS621  CYS622 
 ASP623  PHE694  ASN695  SER759  ASP760  ASP761  ALA762  ILE779  LEU786  VAL792 
 PHE793  MET794  SER795  GLU796  ALA797  LYS798  CYS799  TRP800  GLU811  SER814 

> <Gold.Protein.RotatedAtoms>
  151.0485  134.9657  159.8198 H   0  0  0  0  0  0  0  0  0  0  0  0  # atno 6907 bound_to 6896
  152.5377  134.2567  159.8929 H   0  0  0  0  0  0  0  0  0  0  0  0  # atno 6908 bound_to 6896
  151.2582  133.4273  159.2648 H   0  0  0  0  0  0  0  0  0  0  0  0  # atno 6909 bound_to 6896
  144.7127  140.1070  143.6413 H   0  0  0  0  0  0  0  0  0  0  0  0  # atno 7974 bound_to 7965
  154.6665  140.0562  157.0119 H   0  0  0  0  0  0  0  0  0  0  0  0  # atno 8008 bound_to 7997
  155.1151  140.3242  155.4493 H   0  0  0  0  0  0  0  0  0  0  0  0  # atno 8009 bound_to 7997
  156.2640  140.2007  156.6275 H   0  0  0  0  0  0  0  0  0  0  0  0  # atno 8010 bound_to 7997
  139.6366  144.7120  151.2321 H   0  0  0  0  0  0  0  0  0  0  0  0  # atno 10167 bound_to 10162
  157.4878  131.1089  150.9597 H   0  0  0  0  0  0  0  0  0  0  0  0  # atno 10718 bound_to 10713
  154.8484  135.4379  154.1675 H   0  0  0  0  0  0  0  0  0  0  0  0  # atno 10763 bound_to 10752
  153.2796  135.6952  153.7404 H   0  0  0  0  0  0  0  0  0  0  0  0  # atno 10764 bound_to 10752
  153.6613  135.3434  155.3103 H   0  0  0  0  0  0  0  0  0  0  0  0  # atno 10765 bound_to 10752
  141.0262  133.6840  156.2489 H   0  0  0  0  0  0  0  0  0  0  0  0  # atno 11005 bound_to 11000
  145.9488  139.2719  143.1224 LP  0  0  0  0  0  0  0  0  0  0  0  0  # atno 17320 bound_to 7965
  145.9345  140.9024  143.0339 LP  0  0  0  0  0  0  0  0  0  0  0  0  # atno 17321 bound_to 7965
  140.7469  143.6384  150.8357 LP  0  0  0  0  0  0  0  0  0  0  0  0  # atno 17342 bound_to 10162
  140.0017  143.5737  152.2873 LP  0  0  0  0  0  0  0  0  0  0  0  0  # atno 17343 bound_to 10162
  157.0309  130.5711  149.5343 LP  0  0  0  0  0  0  0  0  0  0  0  0  # atno 17370 bound_to 10713
  156.0156  130.5250  150.8125 LP  0  0  0  0  0  0  0  0  0  0  0  0  # atno 17371 bound_to 10713
  140.6487  134.5089  157.5576 LP  0  0  0  0  0  0  0  0  0  0  0  0  # atno 17394 bound_to 11000
  139.9177  134.8212  156.1311 LP  0  0  0  0  0  0  0  0  0  0  0  0  # atno 17395 bound_to 11000

$$$$
