AV-unprocessed.smi:1|AV-procd|sdf|23|dock1
  -GOLD-   2262015133D 1   1.00000     0.00000
 Structure written by MMmdl.
 56 61  0  0  0  0  0  0  0  0  2 V2000
  149.0028  141.8727  153.8937 O   0  0  0  0  0  0  0  0  0  0  0  0
  149.0213  141.1838  154.9160 C   0  0  0  0  0  0  0  0  0  0  0  0
  148.6462  139.8872  155.0546 N   0  5  0  0  0  0  0  0  0  0  0  0
  149.5598  138.9112  154.9471 C   0  0  0  0  0  0  0  0  0  0  0  0
  150.8422  139.2012  154.6086 N   0  0  0  0  0  0  0  0  0  0  0  0
  151.7477  138.2228  154.4892 C   0  0  0  0  0  0  0  0  0  0  0  0
  151.5882  136.9056  154.6514 N   0  0  0  0  0  0  0  0  0  0  0  0
  150.2997  136.6023  154.9863 C   0  0  0  0  0  0  0  0  0  0  0  0
  149.2407  137.5411  155.1497 C   0  0  0  0  0  0  0  0  0  0  0  0
  148.0593  136.8972  155.4889 N   0  0  0  0  0  0  0  0  0  0  0  0
  148.4452  135.6235  155.5159 C   0  0  0  0  0  0  0  0  0  0  0  0
  149.7351  135.3613  155.2275 N   0  0  0  0  0  0  0  0  0  0  0  0
  150.4056  134.0326  155.1811 C   0  0  2  0  0  0  0  0  0  0  0  0
  149.7661  133.2379  154.2372 O   0  0  0  0  0  0  0  0  0  0  0  0
  149.8524  131.8672  154.6213 C   0  0  2  0  0  0  0  0  0  0  0  0
  148.4583  131.2451  154.4767 C   0  0  0  0  0  0  0  0  0  0  0  0
  147.8993  131.6369  153.2336 O   0  0  0  0  0  0  0  0  0  0  0  0
  146.8342  130.9816  152.7339 C   0  0  0  0  0  0  0  0  0  0  0  0
  146.6050  129.7892  152.9465 O   0  0  0  0  0  0  0  0  0  0  0  0
  145.9596  131.8527  151.8965 C   0  0  0  0  0  0  0  0  0  0  0  0
  146.2828  133.2216  151.7469 C   0  0  0  0  0  0  0  0  0  0  0  0
  145.4759  134.0680  150.9615 C   0  0  0  0  0  0  0  0  0  0  0  0
  144.3351  133.5557  150.3167 C   0  0  0  0  0  0  0  0  0  0  0  0
  144.0019  132.1961  150.4585 C   0  0  0  0  0  0  0  0  0  0  0  0
  144.8080  131.3482  151.2429 C   0  0  0  0  0  0  0  0  0  0  0  0
  150.3817  131.8496  156.0647 C   0  0  1  0  0  0  0  0  0  0  0  0
  151.7472  131.4672  156.0749 O   0  0  0  0  0  0  0  0  0  0  0  0
  152.5835  132.4911  157.0969 S   0  0  0  0  0  0  0  0  0  0  0  0
  152.8394  131.7788  158.3580 O   0  0  0  0  0  0  0  0  0  0  0  0
  153.6520  133.1406  156.3224 O   0  0  0  0  0  0  0  0  0  0  0  0
  151.3756  133.6126  157.3670 O   0  0  0  0  0  0  0  0  0  0  0  0
  150.2842  133.3081  156.5183 C   0  0  1  0  0  0  0  0  0  0  0  0
  149.4481  141.8196  156.2117 C   0  0  0  0  0  0  0  0  0  0  0  0
  150.7426  142.3756  156.3262 C   0  0  0  0  0  0  0  0  0  0  0  0
  151.1709  142.9493  157.5392 C   0  0  0  0  0  0  0  0  0  0  0  0
  150.3125  142.9637  158.6545 C   0  0  0  0  0  0  0  0  0  0  0  0
  149.0262  142.4008  158.5567 C   0  0  0  0  0  0  0  0  0  0  0  0
  148.5967  141.8280  157.3437 C   0  0  0  0  0  0  0  0  0  0  0  0
  152.7440  138.5418  154.2218 H   0  0  0  0  0  0  0  0  0  0  0  0
  147.7471  134.8341  155.7525 H   0  0  0  0  0  0  0  0  0  0  0  0
  151.4348  134.2258  154.8748 H   0  0  0  0  0  0  0  0  0  0  0  0
  150.5505  131.3639  153.9508 H   0  0  0  0  0  0  0  0  0  0  0  0
  148.5154  130.1576  154.5440 H   0  0  0  0  0  0  0  0  0  0  0  0
  147.8139  131.5917  155.2857 H   0  0  0  0  0  0  0  0  0  0  0  0
  147.1543  133.6376  152.2318 H   0  0  0  0  0  0  0  0  0  0  0  0
  145.7333  135.1113  150.8534 H   0  0  0  0  0  0  0  0  0  0  0  0
  143.7168  134.2045  149.7139 H   0  0  0  0  0  0  0  0  0  0  0  0
  143.1262  131.8016  149.9642 H   0  0  0  0  0  0  0  0  0  0  0  0
  144.5227  130.3100  151.3305 H   0  0  0  0  0  0  0  0  0  0  0  0
  149.8240  131.1800  156.7207 H   0  0  0  0  0  0  0  0  0  0  0  0
  149.3215  133.5116  156.9879 H   0  0  0  0  0  0  0  0  0  0  0  0
  151.4147  142.3697  155.4801 H   0  0  0  0  0  0  0  0  0  0  0  0
  152.1598  143.3769  157.6136 H   0  0  0  0  0  0  0  0  0  0  0  0
  150.6418  143.4021  159.5848 H   0  0  0  0  0  0  0  0  0  0  0  0
  148.3682  142.4046  159.4132 H   0  0  0  0  0  0  0  0  0  0  0  0
  147.6096  141.3909  157.2928 H   0  0  0  0  0  0  0  0  0  0  0  0
  1  2  2  0  0  0  0
  2  3  1  0  0  0  0
  2 33  1  0  0  0  0
  3  4  1  0  0  0  0
  4  9  1  0  0  0  0
  4  5  2  0  0  0  0
  5  6  1  0  0  0  0
  6  7  2  0  0  0  0
  6 39  1  0  0  0  0
  7  8  1  0  0  0  0
  8 12  1  0  0  0  0
  8  9  2  0  0  0  0
  9 10  1  0  0  0  0
 10 11  2  0  0  0  0
 11 12  1  0  0  0  0
 11 40  1  0  0  0  0
 12 13  1  0  0  0  0
 13 32  1  0  0  0  0
 13 14  1  0  0  0  0
 13 41  1  0  0  0  0
 14 15  1  0  0  0  0
 15 16  1  0  0  0  0
 15 26  1  0  0  0  0
 15 42  1  0  0  0  0
 16 17  1  0  0  0  0
 16 43  1  0  0  0  0
 16 44  1  0  0  0  0
 17 18  1  0  0  0  0
 18 19  2  0  0  0  0
 18 20  1  0  0  0  0
 20 25  1  0  0  0  0
 20 21  2  0  0  0  0
 21 22  1  0  0  0  0
 21 45  1  0  0  0  0
 22 23  2  0  0  0  0
 22 46  1  0  0  0  0
 23 24  1  0  0  0  0
 23 47  1  0  0  0  0
 24 25  2  0  0  0  0
 24 48  1  0  0  0  0
 25 49  1  0  0  0  0
 26 32  1  0  0  0  0
 26 27  1  0  0  0  0
 26 50  1  0  0  0  0
 27 28  1  0  0  0  0
 28 29  2  0  0  0  0
 28 30  2  0  0  0  0
 28 31  1  0  0  0  0
 31 32  1  0  0  0  0
 32 51  1  0  0  0  0
 33 38  1  0  0  0  0
 33 34  2  0  0  0  0
 34 35  1  0  0  0  0
 34 52  1  0  0  0  0
 35 36  2  0  0  0  0
 35 53  1  0  0  0  0
 36 37  1  0  0  0  0
 36 54  1  0  0  0  0
 37 38  2  0  0  0  0
 37 55  1  0  0  0  0
 38 56  1  0  0  0  0
M  CHG  1   3  -1
M  END
> <s_m_source_file>
AV-unprocessed.smi

> <i_m_source_file_index>
1

> <i_lp_mmshare_version>
43012

> <i_f3d_flags>
0

> <s_epik_input>
W2NIXTFbY0hdW2NIXVtjSF1bY0hdYzFDKD1PKVtOSF1jKG5bY0hdbjIpYyhjMjMpbltjSF1uM1tDQEBIXShbQ0BIXShbQ0BIXTQ1KU9TKE81KSg9Tyk9TylPW0NASF00W0NIMl1PQyg9TyljNltjSF1bY0hdW2NIXVtjSF1bY0hdNg==

> <s_epik_cmdline>
J2VwaWtfcHl0aG9uJywgJy1waCcsICc3LjAnLCAnLXRuJywgJzgnLCAnLW1hJywgJzIwMCcsICctbWV0YWxfYmluZGluZycsICctaW1hZScsICc8aW5maWxlLm1hZT4nLCAnLW9tYWUnLCAnPG91dGZpbGUubWFlPic=

> <r_lp_tautomer_probability>
1

> <r_epik_Ionization_Penalty>
4.39121

> <r_epik_Ionization_Penalty_Charging>
3.39398

> <r_epik_Ionization_Penalty_Neutral>
0.997232

> <r_epik_State_Penalty>
3.39839

> <r_epik_Charging_Adjusted_Penalty>
6.79237

> <i_epik_Tot_Q>
-1

> <i_epik_Tot_abs_Q>
1

> <r_epik_Metal_State_Penalty>
0.497663

> <b_epik_Metal_Only>
1

> <s_epik_Chemistry_Notes>
This compound has an ester and may undergo hydrolysis at high or low pH. This compound contains an acetal/aminal-like group ( X-CH(R)-Y where X, Y are N, S, or O) that may be acid/base labile, releasing an aldehyde.

> <s_lp_Force_Field>
OPLS_2005

> <r_lp_Energy>
40.5787

> <b_lp_Chiralities_Consistent>
1

> <s_lp_Variant>
AV-unprocessed.smi:1-23

> <Gold.Version>
5.8.1

> <Gold.Id.Protein>
6NUR|6NUR_protein|mol2

> <Gold.PLP.Fitness>
56.0088

> <Gold.PLP.PLP>
-52.6718

> <Gold.PLP.part.hbond>
-5.9390

> <Gold.PLP.part.metal>
0.0000

> <Gold.PLP.part.buried>
-3.6023

> <Gold.PLP.part.nonpolar>
-43.3029

> <Gold.PLP.part.repulsive>
1.3073

> <Gold.PLP.ligand.clash>
0.0000

> <Gold.PLP.ligand.torsion>
2.3833

> <Gold.PLP.Chemscore.Hbond>
2.5010

> <Gold.PLP.Chemscore.CHOScore>
0.0000

> <Gold.PLP.Chemscore.Metal>
0.0000

> <Gold.Chemscore.Hbonds>
donor molecule, donor type, donor heavy atom, donor atom, acceptor molecule, acceptor atom, score
      P1  H  6896  6908       L1    29  0.45
      P1  H  7989  7998       L1     5  0.70
      P1  H  8011  8017       L1     1  0.51
      P1  H 10752 10763       L1    30  0.01
      P1  H 10752 10765       L1     7  1.00

> <Gold.PLP.Chemscore.Internal.Correction>
0.6006

> <Gold.Rescore>
     Score         DG    S(hbond)    S(metal)    S(lipo)     H(rot)  DE(clash)    DE(int)     intcor
     13.98     -20.08       2.11        0.00     110.94       2.11       4.02       2.08       ----

> <Gold.Chemscore.Fitness>
13.9791

> <Gold.Chemscore.DG>
-20.0824

> <Gold.Chemscore.ZeroCoef>
-5.4800

> <Gold.Chemscore.Hbond>
2.1057

> <Gold.Chemscore.Metal>
0.0000

> <Gold.Chemscore.Lipo>
110.9405

> <Gold.Chemscore.Internal_Hbond>
0.0000

> <Gold.Chemscore.DEClash>
4.0236

> <Gold.Chemscore.DEInternal>
2.0797

> <Gold.Chemscore.Rot>
2.1136

> <Gold.Chemscore.Internal.Correction>
   9.000000E+99

> <Gold.Chemscore.Hbonds>
donor molecule, donor type, donor heavy atom, donor atom, acceptor molecule, acceptor atom, score
      P1  H  6896  6908       L1    29  0.01
      P1  H  7989  7998       L1     5  0.35
      P1  H  8011  8017       L1     1  0.52
      P1  H 10752 10763       L1    30  0.01
      P1  H 10752 10765       L1     7  0.98

> <Gold.Chemscore.Hbond.Weighted>
-7.0331

> <Gold.Chemscore.Metal.Weighted>
-0.0000

> <Gold.Chemscore.Lipo.Weighted>
-12.9800

> <Gold.Chemscore.Internal_Hbond.Weighted>
0.0000

> <Gold.Chemscore.DEClash.Weighted>
4.0236

> <Gold.Chemscore.DEInternal.Weighted>
2.0797

> <Gold.Chemscore.Rot.Weighted>
5.4107

> <Gold.Chemscore.Internal.Correction.Weighted>
   9.000000E+99

> <Gold.Protein.RotatedTorsions>
[ 6907 6896 6895 6894 ] final   41.98 input  -60.11 | X-H torsion
[ 7974 7965 7964 7962 ] final  -57.33 input  175.53 | X-H torsion
[ 8008 7997 7996 7995 ] final  173.41 input   59.86 | X-H torsion
[ 10167 10162 10161 10158 ] final   82.01 input  -65.29 | X-H torsion
[ 10718 10713 10712 10709 ] final   42.96 input   66.30 | X-H torsion
[ 10763 10752 10751 10750 ] final  159.80 input  -60.55 | X-H torsion
[ 11005 11000 10999 10996 ] final  157.09 input  -57.11 | X-H torsion

> <Gold.Protein.ActiveResidues>
 VAL166  LYS551  ARG553  GLY616  TRP617  ASP618  TYR619  PRO620  LYS621  CYS622 
 ASP623  PHE694  ASN695  SER759  ASP760  ASP761  ALA762  ILE779  LEU786  VAL792 
 PHE793  MET794  SER795  GLU796  ALA797  LYS798  CYS799  TRP800  GLU811  SER814 

> <Gold.Protein.RotatedAtoms>
  152.2021  134.8578  160.0506 H   0  0  0  0  0  0  0  0  0  0  0  0  # atno 6907 bound_to 6896
  151.9427  133.3637  159.3979 H   0  0  0  0  0  0  0  0  0  0  0  0  # atno 6908 bound_to 6896
  150.6957  134.4346  159.5308 H   0  0  0  0  0  0  0  0  0  0  0  0  # atno 6909 bound_to 6896
  145.8523  140.8343  142.9979 H   0  0  0  0  0  0  0  0  0  0  0  0  # atno 7974 bound_to 7965
  156.1078  140.1461  156.9380 H   0  0  0  0  0  0  0  0  0  0  0  0  # atno 8008 bound_to 7997
  154.4746  140.0898  156.7274 H   0  0  0  0  0  0  0  0  0  0  0  0  # atno 8009 bound_to 7997
  155.4649  140.3439  155.4320 H   0  0  0  0  0  0  0  0  0  0  0  0  # atno 8010 bound_to 7997
  139.9333  144.6138  150.8324 H   0  0  0  0  0  0  0  0  0  0  0  0  # atno 10167 bound_to 10162
  157.4106  130.7912  149.7427 H   0  0  0  0  0  0  0  0  0  0  0  0  # atno 10718 bound_to 10713
  154.2374  135.2776  155.2867 H   0  0  0  0  0  0  0  0  0  0  0  0  # atno 10763 bound_to 10752
  154.5573  135.5657  153.6979 H   0  0  0  0  0  0  0  0  0  0  0  0  # atno 10764 bound_to 10752
  153.0007  135.6289  154.2517 H   0  0  0  0  0  0  0  0  0  0  0  0  # atno 10765 bound_to 10752
  140.1736  134.8525  157.2720 H   0  0  0  0  0  0  0  0  0  0  0  0  # atno 11005 bound_to 11000
  144.6729  140.0972  143.7462 LP  0  0  0  0  0  0  0  0  0  0  0  0  # atno 17320 bound_to 7965
  145.9343  139.2627  143.1306 LP  0  0  0  0  0  0  0  0  0  0  0  0  # atno 17321 bound_to 7965
  140.7631  143.3216  151.2610 LP  0  0  0  0  0  0  0  0  0  0  0  0  # atno 17342 bound_to 10162
  139.6764  143.9929  152.2784 LP  0  0  0  0  0  0  0  0  0  0  0  0  # atno 17343 bound_to 10162
  155.9849  130.3987  150.3285 LP  0  0  0  0  0  0  0  0  0  0  0  0  # atno 17370 bound_to 10713
  157.1423  131.0300  151.2922 LP  0  0  0  0  0  0  0  0  0  0  0  0  # atno 17371 bound_to 10713
  140.2348  134.3865  155.7506 LP  0  0  0  0  0  0  0  0  0  0  0  0  # atno 17394 bound_to 11000
  141.2219  133.7234  156.8698 LP  0  0  0  0  0  0  0  0  0  0  0  0  # atno 17395 bound_to 11000

$$$$
