AV-unprocessed.smi:2731|AV-procd|sdf|10530|dock2
  -GOLD-   2272014573D 1   1.00000     0.00000
 Structure written by MMmdl.
 45 46  0  0  0  0  0  0  0  0  1 V2000
  149.7781  142.1711  156.7305 C   0  0  0  0  0  0  0  0  0  0  0  0
  150.5629  142.5399  157.9562 C   0  0  0  0  0  0  0  0  0  0  0  0
  150.3318  143.7040  158.5394 N   0  0  0  0  0  0  0  0  0  0  0  0
  151.1893  143.7456  159.5782 N   0  0  0  0  0  0  0  0  0  0  0  0
  151.1925  144.9049  160.4496 C   0  0  0  0  0  0  0  0  0  0  0  0
  151.9676  142.6064  159.6489 C   0  0  0  0  0  0  0  0  0  0  0  0
  153.0070  142.4161  160.7065 C   0  0  0  0  0  0  0  0  0  0  0  0
  151.5851  141.7941  158.6143 C   0  0  0  0  0  0  0  0  0  0  0  0
  152.1253  140.4359  158.2323 C   0  0  0  0  0  0  0  0  0  0  0  0
  151.6782  139.3114  159.1873 C   0  0  0  0  0  0  0  0  0  0  0  0
  150.3236  138.8478  158.8947 N   0  0  0  0  0  0  0  0  0  0  0  0
  149.8107  137.6663  159.2724 C   0  0  0  0  0  0  0  0  0  0  0  0
  150.4671  136.8007  159.8535 O   0  0  0  0  0  0  0  0  0  0  0  0
  148.3278  137.4424  158.9500 C   0  0  0  0  0  0  0  0  0  0  0  0
  147.8333  136.1567  159.4596 N   0  0  0  0  0  0  0  0  0  0  0  0
  147.4664  135.1404  158.4657 C   0  0  0  0  0  0  0  0  0  0  0  0
  146.0781  134.5559  158.7753 C   0  0  0  0  0  0  0  0  0  0  0  0
  145.9649  134.0515  160.2283 C   0  0  0  0  0  0  0  0  0  0  0  0
  147.0956  134.5383  161.1627 C   0  0  0  0  0  0  0  0  0  0  0  0
  147.6445  135.9186  160.7782 C   0  0  0  0  0  0  0  0  0  0  0  0
  147.9003  136.7359  161.6623 O   0  0  0  0  0  0  0  0  0  0  0  0
  150.1809  142.6687  155.8481 H   0  0  0  0  0  0  0  0  0  0  0  0
  148.7308  142.4588  156.8281 H   0  0  0  0  0  0  0  0  0  0  0  0
  149.8078  141.0973  156.5473 H   0  0  0  0  0  0  0  0  0  0  0  0
  152.2000  145.3162  160.5147 H   0  0  0  0  0  0  0  0  0  0  0  0
  150.8614  144.6128  161.4466 H   0  0  0  0  0  0  0  0  0  0  0  0
  150.5236  145.6772  160.0663 H   0  0  0  0  0  0  0  0  0  0  0  0
  153.7013  141.6196  160.4403 H   0  0  0  0  0  0  0  0  0  0  0  0
  152.5445  142.1572  161.6589 H   0  0  0  0  0  0  0  0  0  0  0  0
  153.5933  143.3238  160.8495 H   0  0  0  0  0  0  0  0  0  0  0  0
  151.8195  140.1738  157.2196 H   0  0  0  0  0  0  0  0  0  0  0  0
  153.2148  140.4552  158.2005 H   0  0  0  0  0  0  0  0  0  0  0  0
  152.3599  138.4649  159.1028 H   0  0  0  0  0  0  0  0  0  0  0  0
  151.7519  139.6532  160.2210 H   0  0  0  0  0  0  0  0  0  0  0  0
  149.7163  139.4944  158.4127 H   0  0  0  0  0  0  0  0  0  0  0  0
  147.7361  138.2490  159.3862 H   0  0  0  0  0  0  0  0  0  0  0  0
  148.1860  137.5229  157.8711 H   0  0  0  0  0  0  0  0  0  0  0  0
  147.4663  135.5626  157.4602 H   0  0  0  0  0  0  0  0  0  0  0  0
  148.2196  134.3512  158.4708 H   0  0  0  0  0  0  0  0  0  0  0  0
  145.3328  135.3360  158.6128 H   0  0  0  0  0  0  0  0  0  0  0  0
  145.8342  133.7563  158.0757 H   0  0  0  0  0  0  0  0  0  0  0  0
  144.9974  134.3476  160.6354 H   0  0  0  0  0  0  0  0  0  0  0  0
  145.9631  132.9610  160.2295 H   0  0  0  0  0  0  0  0  0  0  0  0
  146.7537  134.5422  162.1984 H   0  0  0  0  0  0  0  0  0  0  0  0
  147.9299  133.8375  161.1170 H   0  0  0  0  0  0  0  0  0  0  0  0
  1  2  1  0  0  0  0
  1 22  1  0  0  0  0
  1 23  1  0  0  0  0
  1 24  1  0  0  0  0
  2  8  1  0  0  0  0
  2  3  2  0  0  0  0
  3  4  1  0  0  0  0
  4  5  1  0  0  0  0
  4  6  1  0  0  0  0
  5 25  1  0  0  0  0
  5 26  1  0  0  0  0
  5 27  1  0  0  0  0
  6  7  1  0  0  0  0
  6  8  2  0  0  0  0
  7 28  1  0  0  0  0
  7 29  1  0  0  0  0
  7 30  1  0  0  0  0
  8  9  1  0  0  0  0
  9 10  1  0  0  0  0
  9 31  1  0  0  0  0
  9 32  1  0  0  0  0
 10 11  1  0  0  0  0
 10 33  1  0  0  0  0
 10 34  1  0  0  0  0
 11 12  1  0  0  0  0
 11 35  1  0  0  0  0
 12 13  2  0  0  0  0
 12 14  1  0  0  0  0
 14 15  1  0  0  0  0
 14 36  1  0  0  0  0
 14 37  1  0  0  0  0
 15 20  1  0  0  0  0
 15 16  1  0  0  0  0
 16 17  1  0  0  0  0
 16 38  1  0  0  0  0
 16 39  1  0  0  0  0
 17 18  1  0  0  0  0
 17 40  1  0  0  0  0
 17 41  1  0  0  0  0
 18 19  1  0  0  0  0
 18 42  1  0  0  0  0
 18 43  1  0  0  0  0
 19 20  1  0  0  0  0
 19 44  1  0  0  0  0
 19 45  1  0  0  0  0
 20 21  2  0  0  0  0
M  END
> <s_m_source_file>
AV-unprocessed.smi

> <i_m_source_file_index>
2731

> <i_lp_mmshare_version>
43012

> <i_f3d_flags>
0

> <s_epik_input>
W0NIM11jMW5uKFtDSDNdKWMoW0NIM10pYzFbQ0gyXVtDSDJdW05IXUMoPU8pW0NIMl1OMltDSDJdW0NIMl1bQ0gyXVtDSDJdQzI9Tw==

> <s_epik_cmdline>
J2VwaWtfcHl0aG9uJywgJy1waCcsICc3LjAnLCAnLXRuJywgJzgnLCAnLW1hJywgJzIwMCcsICctbWV0YWxfYmluZGluZycsICctaW1hZScsICc8aW5maWxlLm1hZT4nLCAnLW9tYWUnLCAnPG91dGZpbGUubWFlPic=

> <r_lp_tautomer_probability>
1

> <r_epik_Ionization_Penalty>
0.0111965

> <r_epik_Ionization_Penalty_Charging>
0

> <r_epik_Ionization_Penalty_Neutral>
0.0111965

> <r_epik_State_Penalty>
0.00860379

> <r_epik_Charging_Adjusted_Penalty>
0.00860379

> <i_epik_Tot_Q>
0

> <i_epik_Tot_abs_Q>
0

> <r_epik_Metal_State_Penalty>
0.00844338

> <b_epik_Metal_Only>
0

> <s_lp_Force_Field>
OPLS_2005

> <r_lp_Energy>
7.02137

> <b_lp_Chiralities_Consistent>
1

> <s_lp_Variant>
AV-unprocessed.smi:2731-1

> <Gold.Version>
5.8.1

> <Gold.Id.Protein>
6NUR|6NUR_protein|mol2

> <Gold.PLP.Fitness>
42.8086

> <Gold.PLP.PLP>
-35.2966

> <Gold.PLP.part.hbond>
-3.1818

> <Gold.PLP.part.metal>
0.0000

> <Gold.PLP.part.buried>
-3.4677

> <Gold.PLP.part.nonpolar>
-28.9666

> <Gold.PLP.part.repulsive>
0.3113

> <Gold.PLP.ligand.clash>
0.0000

> <Gold.PLP.ligand.torsion>
0.4837

> <Gold.PLP.Chemscore.Hbond>
2.8000

> <Gold.PLP.Chemscore.CHOScore>
0.0000

> <Gold.PLP.Chemscore.Metal>
0.0000

> <Gold.Chemscore.Hbonds>
donor molecule, donor type, donor heavy atom, donor atom, acceptor molecule, acceptor atom, score
      P1  H  6896  6907       L1    13  1.00
      P1  H  6931  6943       L1    21  1.00

> <Gold.PLP.Chemscore.Internal.Correction>
0.0794

> <Gold.Rescore>
     Score         DG    S(hbond)    S(metal)    S(lipo)     H(rot)  DE(clash)    DE(int)     intcor
     19.09     -19.44       2.77        0.00      79.23       1.78       0.05       0.31       ----

> <Gold.Chemscore.Fitness>
19.0868

> <Gold.Chemscore.DG>
-19.4384

> <Gold.Chemscore.ZeroCoef>
-5.4800

> <Gold.Chemscore.Hbond>
2.7654

> <Gold.Chemscore.Metal>
0.0000

> <Gold.Chemscore.Lipo>
79.2342

> <Gold.Chemscore.Internal_Hbond>
0.0000

> <Gold.Chemscore.DEClash>
0.0456

> <Gold.Chemscore.DEInternal>
0.3060

> <Gold.Chemscore.Rot>
1.7767

> <Gold.Chemscore.Internal.Correction>
   9.000000E+99

> <Gold.Chemscore.Hbonds>
donor molecule, donor type, donor heavy atom, donor atom, acceptor molecule, acceptor atom, score
      P1  H  6896  6907       L1    13  0.98
      P1  H  6931  6943       L1    21  1.00
      P1  H  6934  6947       L1    21  0.01

> <Gold.Chemscore.Hbond.Weighted>
-9.2363

> <Gold.Chemscore.Metal.Weighted>
-0.0000

> <Gold.Chemscore.Lipo.Weighted>
-9.2704

> <Gold.Chemscore.Internal_Hbond.Weighted>
0.0000

> <Gold.Chemscore.DEClash.Weighted>
0.0456

> <Gold.Chemscore.DEInternal.Weighted>
0.3060

> <Gold.Chemscore.Rot.Weighted>
4.5483

> <Gold.Chemscore.Internal.Correction.Weighted>
   9.000000E+99

> <Gold.Protein.RotatedTorsions>
[ 6907 6896 6895 6894 ] final  -41.14 input  -60.11 | X-H torsion
[ 7974 7965 7964 7962 ] final -178.80 input  175.53 | X-H torsion
[ 8008 7997 7996 7995 ] final   -4.26 input   59.86 | X-H torsion
[ 10167 10162 10161 10158 ] final  176.26 input  -65.29 | X-H torsion
[ 10718 10713 10712 10709 ] final -150.78 input   66.30 | X-H torsion
[ 10763 10752 10751 10750 ] final -165.81 input  -60.55 | X-H torsion
[ 11005 11000 10999 10996 ] final   -7.12 input  -57.11 | X-H torsion

> <Gold.Protein.ActiveResidues>
 VAL166  LYS551  ARG553  GLY616  TRP617  ASP618  TYR619  PRO620  LYS621  CYS622 
 ASP623  PHE694  ASN695  SER759  ASP760  ASP761  ALA762  ILE779  LEU786  VAL792 
 PHE793  MET794  SER795  GLU796  ALA797  LYS798  CYS799  TRP800  GLU811  SER814 

> <Gold.Protein.RotatedAtoms>
  150.9702  134.9076  159.7782 H   0  0  0  0  0  0  0  0  0  0  0  0  # atno 6907 bound_to 6896
  152.5187  134.3552  159.9275 H   0  0  0  0  0  0  0  0  0  0  0  0  # atno 6908 bound_to 6896
  151.3561  133.3866  159.2719 H   0  0  0  0  0  0  0  0  0  0  0  0  # atno 6909 bound_to 6896
  144.7133  140.0813  143.6425 H   0  0  0  0  0  0  0  0  0  0  0  0  # atno 7974 bound_to 7965
  154.6162  140.2488  155.7607 H   0  0  0  0  0  0  0  0  0  0  0  0  # atno 8008 bound_to 7997
  156.2400  140.2936  156.0367 H   0  0  0  0  0  0  0  0  0  0  0  0  # atno 8009 bound_to 7997
  155.1972  140.0393  157.2901 H   0  0  0  0  0  0  0  0  0  0  0  0  # atno 8010 bound_to 7997
  139.5207  144.2936  152.0441 H   0  0  0  0  0  0  0  0  0  0  0  0  # atno 10167 bound_to 10162
  156.4506  130.8166  151.2396 H   0  0  0  0  0  0  0  0  0  0  0  0  # atno 10718 bound_to 10713
  154.6895  135.2968  154.9499 H   0  0  0  0  0  0  0  0  0  0  0  0  # atno 10763 bound_to 10752
  154.0467  135.6650  153.4800 H   0  0  0  0  0  0  0  0  0  0  0  0  # atno 10764 bound_to 10752
  153.0602  135.5120  154.7980 H   0  0  0  0  0  0  0  0  0  0  0  0  # atno 10765 bound_to 10752
  140.7093  133.8922  155.8739 H   0  0  0  0  0  0  0  0  0  0  0  0  # atno 11005 bound_to 11000
  145.9699  139.2862  143.1105 LP  0  0  0  0  0  0  0  0  0  0  0  0  # atno 17320 bound_to 7965
  145.9127  140.9169  143.0445 LP  0  0  0  0  0  0  0  0  0  0  0  0  # atno 17321 bound_to 7965
  140.2386  144.4293  150.6269 LP  0  0  0  0  0  0  0  0  0  0  0  0  # atno 17342 bound_to 10162
  140.6306  143.2187  151.6504 LP  0  0  0  0  0  0  0  0  0  0  0  0  # atno 17343 bound_to 10162
  157.7503  131.0139  150.3443 LP  0  0  0  0  0  0  0  0  0  0  0  0  # atno 17370 bound_to 10713
  156.3821  130.3882  149.7094 LP  0  0  0  0  0  0  0  0  0  0  0  0  # atno 17371 bound_to 10713
  141.0098  134.1036  157.4233 LP  0  0  0  0  0  0  0  0  0  0  0  0  # atno 17394 bound_to 11000
  139.8876  135.0091  156.6569 LP  0  0  0  0  0  0  0  0  0  0  0  0  # atno 17395 bound_to 11000

$$$$
