AV-unprocessed.smi:2193|AV-procd|sdf|8899|dock10
  -GOLD-   2272012113D 1   1.00000     0.00000
 Structure written by MMmdl.
 40 42  0  0  0  0  0  0  0  0  1 V2000
  150.2840  140.5535  154.5567 O   0  0  0  0  0  0  0  0  0  0  0  0
  150.8754  139.7689  155.5728 C   0  0  0  0  0  0  0  0  0  0  0  0
  151.3913  140.5650  156.7387 C   0  0  0  0  0  0  0  0  0  0  0  0
  151.2425  141.8881  156.8415 N   0  0  0  0  0  0  0  0  0  0  0  0
  151.8462  142.1721  158.0504 C   0  0  0  0  0  0  0  0  0  0  0  0
  152.0164  143.4023  158.7252 C   0  0  0  0  0  0  0  0  0  0  0  0
  152.6746  143.4478  159.9717 C   0  0  0  0  0  0  0  0  0  0  0  0
  153.1715  142.2664  160.5594 C   0  0  0  0  0  0  0  0  0  0  0  0
  153.0123  141.0304  159.9037 C   0  0  0  0  0  0  0  0  0  0  0  0
  152.3540  140.9903  158.6597 C   0  0  0  0  0  0  0  0  0  0  0  0
  152.0378  139.9666  157.7709 N   0  0  0  0  0  0  0  0  0  0  0  0
  152.3429  138.5514  157.9387 C   0  0  0  0  0  0  0  0  0  0  0  0
  152.3109  138.1019  159.4142 C   0  0  1  0  0  0  0  0  0  0  0  0
  151.2041  137.2514  159.6400 O   0  0  0  0  0  0  0  0  0  0  0  0
  153.5871  137.3554  159.8287 C   0  0  0  0  0  0  0  0  0  0  0  0
  153.3577  136.6987  161.0684 O   0  0  0  0  0  0  0  0  0  0  0  0
  153.9377  137.2247  162.2027 C   0  0  0  0  0  0  0  0  0  0  0  0
  153.6687  136.5681  163.4217 C   0  0  0  0  0  0  0  0  0  0  0  0
  154.2225  137.0347  164.6295 C   0  0  0  0  0  0  0  0  0  0  0  0
  155.0556  138.1684  164.6295 C   0  0  0  0  0  0  0  0  0  0  0  0
  155.5909  138.6175  165.7892 F   0  0  0  0  0  0  0  0  0  0  0  0
  155.3316  138.8343  163.4211 C   0  0  0  0  0  0  0  0  0  0  0  0
  154.7769  138.3681  162.2131 C   0  0  0  0  0  0  0  0  0  0  0  0
  149.4214  140.8134  154.8411 H   0  0  0  0  0  0  0  0  0  0  0  0
  150.1352  139.0529  155.9307 H   0  0  0  0  0  0  0  0  0  0  0  0
  151.6941  139.2012  155.1319 H   0  0  0  0  0  0  0  0  0  0  0  0
  151.6398  144.3126  158.2828 H   0  0  0  0  0  0  0  0  0  0  0  0
  152.7991  144.3936  160.4788 H   0  0  0  0  0  0  0  0  0  0  0  0
  153.6753  142.3100  161.5138 H   0  0  0  0  0  0  0  0  0  0  0  0
  153.3932  140.1247  160.3514 H   0  0  0  0  0  0  0  0  0  0  0  0
  151.6291  137.9720  157.3520 H   0  0  0  0  0  0  0  0  0  0  0  0
  153.3204  138.3495  157.5003 H   0  0  0  0  0  0  0  0  0  0  0  0
  152.1872  138.9700  160.0618 H   0  0  0  0  0  0  0  0  0  0  0  0
  150.4154  137.7139  159.4017 H   0  0  0  0  0  0  0  0  0  0  0  0
  153.8388  136.6144  159.0678 H   0  0  0  0  0  0  0  0  0  0  0  0
  154.4215  138.0542  159.9106 H   0  0  0  0  0  0  0  0  0  0  0  0
  153.0304  135.6967  163.4314 H   0  0  0  0  0  0  0  0  0  0  0  0
  154.0086  136.5219  165.5556 H   0  0  0  0  0  0  0  0  0  0  0  0
  155.9710  139.7047  163.4195 H   0  0  0  0  0  0  0  0  0  0  0  0
  155.0131  138.9051  161.3073 H   0  0  0  0  0  0  0  0  0  0  0  0
  1  2  1  0  0  0  0
  1 24  1  0  0  0  0
  2  3  1  0  0  0  0
  2 25  1  0  0  0  0
  2 26  1  0  0  0  0
  3 11  1  0  0  0  0
  3  4  2  0  0  0  0
  4  5  1  0  0  0  0
  5 10  2  0  0  0  0
  5  6  1  0  0  0  0
  6  7  2  0  0  0  0
  6 27  1  0  0  0  0
  7  8  1  0  0  0  0
  7 28  1  0  0  0  0
  8  9  2  0  0  0  0
  8 29  1  0  0  0  0
  9 10  1  0  0  0  0
  9 30  1  0  0  0  0
 10 11  1  0  0  0  0
 11 12  1  0  0  0  0
 12 13  1  0  0  0  0
 12 31  1  0  0  0  0
 12 32  1  0  0  0  0
 13 14  1  0  0  0  0
 13 15  1  0  0  0  0
 13 33  1  0  0  0  0
 14 34  1  0  0  0  0
 15 16  1  0  0  0  0
 15 35  1  0  0  0  0
 15 36  1  0  0  0  0
 16 17  1  0  0  0  0
 17 23  1  0  0  0  0
 17 18  2  0  0  0  0
 18 19  1  0  0  0  0
 18 37  1  0  0  0  0
 19 20  2  0  0  0  0
 19 38  1  0  0  0  0
 20 21  1  0  0  0  0
 20 22  1  0  0  0  0
 22 23  2  0  0  0  0
 22 39  1  0  0  0  0
 23 40  1  0  0  0  0
M  END
> <s_m_source_file>
AV-unprocessed.smi

> <i_m_source_file_index>
2193

> <i_lp_mmshare_version>
43012

> <i_f3d_flags>
0

> <s_epik_input>
W2NIXTFbY0hdW2NIXVtjSF1jKGMxMiluKGMobjIpW0NIMl1bT0hdKVtDSDJdW0NASF0oW09IXSlbQ0gyXU9jM1tjSF1bY0hdYyhGKVtjSF1bY0hdMw==

> <s_epik_cmdline>
J2VwaWtfcHl0aG9uJywgJy1waCcsICc3LjAnLCAnLXRuJywgJzgnLCAnLW1hJywgJzIwMCcsICctbWV0YWxfYmluZGluZycsICctaW1hZScsICc8aW5maWxlLm1hZT4nLCAnLW9tYWUnLCAnPG91dGZpbGUubWFlPic=

> <r_lp_tautomer_probability>
1

> <r_epik_Ionization_Penalty>
0.0549747

> <r_epik_Ionization_Penalty_Charging>
0

> <r_epik_Ionization_Penalty_Neutral>
0.0549747

> <r_epik_State_Penalty>
0.0472568

> <r_epik_Charging_Adjusted_Penalty>
0.0472568

> <i_epik_Tot_Q>
0

> <i_epik_Tot_abs_Q>
0

> <r_epik_Metal_State_Penalty>
4.91905e-05

> <b_epik_Metal_Only>
0

> <s_lp_Force_Field>
OPLS_2005

> <r_lp_Energy>
14.6926

> <b_lp_Chiralities_Consistent>
1

> <s_lp_Variant>
AV-unprocessed.smi:2193-2

> <Gold.Version>
5.8.1

> <Gold.Id.Protein>
6NUR|6NUR_protein|mol2

> <Gold.PLP.Fitness>
52.2232

> <Gold.PLP.PLP>
-49.1738

> <Gold.PLP.part.hbond>
-2.0000

> <Gold.PLP.part.metal>
0.0000

> <Gold.PLP.part.buried>
-5.6840

> <Gold.PLP.part.nonpolar>
-40.5766

> <Gold.PLP.part.repulsive>
0.0570

> <Gold.PLP.ligand.clash>
0.0000

> <Gold.PLP.ligand.torsion>
1.5259

> <Gold.PLP.Chemscore.Hbond>
1.9920

> <Gold.PLP.Chemscore.CHOScore>
0.0000

> <Gold.PLP.Chemscore.Metal>
0.0000

> <Gold.Chemscore.Hbonds>
donor molecule, donor type, donor heavy atom, donor atom, acceptor molecule, acceptor atom, score
      P1  H  6896  6908       L1    14  0.78
      P1  H  7989  7998       L1     1  0.91

> <Gold.PLP.Chemscore.Internal.Correction>
0.1251

> <Gold.Rescore>
     Score         DG    S(hbond)    S(metal)    S(lipo)     H(rot)  DE(clash)    DE(int)     intcor
     16.07     -18.32       1.92        0.00     125.46       3.22       0.04       2.21       ----

> <Gold.Chemscore.Fitness>
16.0707

> <Gold.Chemscore.DG>
-18.3195

> <Gold.Chemscore.ZeroCoef>
-5.4800

> <Gold.Chemscore.Hbond>
1.9171

> <Gold.Chemscore.Metal>
0.0000

> <Gold.Chemscore.Lipo>
125.4596

> <Gold.Chemscore.Internal_Hbond>
0.0000

> <Gold.Chemscore.DEClash>
0.0424

> <Gold.Chemscore.DEInternal>
2.2063

> <Gold.Chemscore.Rot>
3.2196

> <Gold.Chemscore.Internal.Correction>
   9.000000E+99

> <Gold.Chemscore.Hbonds>
donor molecule, donor type, donor heavy atom, donor atom, acceptor molecule, acceptor atom, score
      P1  H  6896  6908       L1    14  0.75
      P1  H  7989  7998       L1     1  0.36

> <Gold.Chemscore.Hbond.Weighted>
-6.4030

> <Gold.Chemscore.Metal.Weighted>
-0.0000

> <Gold.Chemscore.Lipo.Weighted>
-14.6788

> <Gold.Chemscore.Internal_Hbond.Weighted>
0.0000

> <Gold.Chemscore.DEClash.Weighted>
0.0424

> <Gold.Chemscore.DEInternal.Weighted>
2.2063

> <Gold.Chemscore.Rot.Weighted>
8.2422

> <Gold.Chemscore.Internal.Correction.Weighted>
   9.000000E+99

> <Gold.Protein.RotatedTorsions>
[ 6907 6896 6895 6894 ] final -126.42 input  -60.11 | X-H torsion
[ 7974 7965 7964 7962 ] final  -95.74 input  175.53 | X-H torsion
[ 8008 7997 7996 7995 ] final  -30.92 input   59.86 | X-H torsion
[ 10167 10162 10161 10158 ] final  -99.60 input  -65.29 | X-H torsion
[ 10718 10713 10712 10709 ] final  123.64 input   66.30 | X-H torsion
[ 10763 10752 10751 10750 ] final   77.31 input  -60.55 | X-H torsion
[ 11005 11000 10999 10996 ] final   18.08 input  -57.11 | X-H torsion

> <Gold.Protein.ActiveResidues>
 VAL166  LYS551  ARG553  GLY616  TRP617  ASP618  TYR619  PRO620  LYS621  CYS622 
 ASP623  PHE694  ASN695  SER759  ASP760  ASP761  ALA762  ILE779  LEU786  VAL792 
 PHE793  MET794  SER795  GLU796  ALA797  LYS798  CYS799  TRP800  GLU811  SER814 

> <Gold.Protein.RotatedAtoms>
  150.8968  133.7171  159.2889 H   0  0  0  0  0  0  0  0  0  0  0  0  # atno 6907 bound_to 6896
  151.4703  135.1044  159.9759 H   0  0  0  0  0  0  0  0  0  0  0  0  # atno 6908 bound_to 6896
  152.4853  133.8309  159.7158 H   0  0  0  0  0  0  0  0  0  0  0  0  # atno 6909 bound_to 6896
  145.3560  140.9484  143.2527 H   0  0  0  0  0  0  0  0  0  0  0  0  # atno 7974 bound_to 7965
  154.4232  140.1778  156.1484 H   0  0  0  0  0  0  0  0  0  0  0  0  # atno 8008 bound_to 7997
  155.9935  140.3366  155.6751 H   0  0  0  0  0  0  0  0  0  0  0  0  # atno 8009 bound_to 7997
  155.6340  140.0673  157.2630 H   0  0  0  0  0  0  0  0  0  0  0  0  # atno 8010 bound_to 7997
  140.2607  143.3409  152.0628 H   0  0  0  0  0  0  0  0  0  0  0  0  # atno 10167 bound_to 10162
  157.5649  131.1087  150.8473 H   0  0  0  0  0  0  0  0  0  0  0  0  # atno 10718 bound_to 10713
  153.0789  135.4919  154.8462 H   0  0  0  0  0  0  0  0  0  0  0  0  # atno 10763 bound_to 10752
  154.7124  135.3022  154.9178 H   0  0  0  0  0  0  0  0  0  0  0  0  # atno 10764 bound_to 10752
  153.9868  135.6783  153.4805 H   0  0  0  0  0  0  0  0  0  0  0  0  # atno 10765 bound_to 10752
  140.4288  134.1442  155.7679 H   0  0  0  0  0  0  0  0  0  0  0  0  # atno 11005 bound_to 11000
  144.8682  139.5077  143.6780 LP  0  0  0  0  0  0  0  0  0  0  0  0  # atno 17320 bound_to 7965
  146.2948  139.7244  142.9135 LP  0  0  0  0  0  0  0  0  0  0  0  0  # atno 17321 bound_to 7965
  139.5017  144.6720  151.6219 LP  0  0  0  0  0  0  0  0  0  0  0  0  # atno 17342 bound_to 10162
  140.5968  143.9682  150.6359 LP  0  0  0  0  0  0  0  0  0  0  0  0  # atno 17343 bound_to 10162
  156.8960  130.5230  149.5284 LP  0  0  0  0  0  0  0  0  0  0  0  0  # atno 17370 bound_to 10713
  156.0698  130.5733  150.9360 LP  0  0  0  0  0  0  0  0  0  0  0  0  # atno 17371 bound_to 10713
  141.1754  133.8524  157.1438 LP  0  0  0  0  0  0  0  0  0  0  0  0  # atno 17394 bound_to 11000
  140.0149  134.9972  157.0472 LP  0  0  0  0  0  0  0  0  0  0  0  0  # atno 17395 bound_to 11000

$$$$
