AV-unprocessed.smi:1033|AV-procd|sdf|4492|dock6
  -GOLD-   22720 2473D 1   1.00000     0.00000
 Structure written by MMmdl.
 56 58  0  0  0  0  0  0  0  0  2 V2000
  152.9248  142.7633  161.4281 C   0  0  0  0  0  0  0  0  0  0  0  0
  152.3527  142.5062  160.0452 C   0  0  0  0  0  0  0  0  0  0  0  0
  152.7797  141.3673  159.3257 C   0  0  0  0  0  0  0  0  0  0  0  0
  152.2769  141.0960  158.0345 C   0  0  0  0  0  0  0  0  0  0  0  0
  152.5560  140.0595  157.1604 N   0  0  0  0  0  0  0  0  0  0  0  0
  151.7843  140.3680  156.1227 C   0  0  0  0  0  0  0  0  0  0  0  0
  151.0389  141.4857  156.2192 N   0  0  0  0  0  0  0  0  0  0  0  0
  150.1419  142.0250  155.2123 C   0  0  0  0  0  0  0  0  0  0  0  0
  149.2178  140.9452  154.6168 C   0  0  2  0  0  0  0  0  0  0  0  0
  149.9653  140.1159  153.7477 O   0  0  0  0  0  0  0  0  0  0  0  0
  148.0483  141.5596  153.8223 C   0  0  0  0  0  0  0  0  0  0  0  0
  147.1432  142.3722  154.6744 N   0  3  0  0  0  0  0  0  0  0  0  0
  146.7640  141.6761  155.9307 C   0  0  0  0  0  0  0  0  0  0  0  0
  145.8978  142.5973  156.8152 C   0  0  0  0  0  0  0  0  0  0  0  0
  144.6951  143.0851  156.1399 N   0  0  0  0  0  0  0  0  0  0  0  0
  143.6775  142.0388  155.9652 C   0  0  0  0  0  0  0  0  0  0  0  0
  142.2261  142.5142  155.7293 C   0  0  1  0  0  0  0  0  0  0  0  0
  141.6036  143.2831  156.9053 C   0  0  0  0  0  0  0  0  0  0  0  0
  142.1352  143.2705  154.5392 O   0  0  0  0  0  0  0  0  0  0  0  0
  145.1010  143.7627  154.9061 C   0  0  0  0  0  0  0  0  0  0  0  0
  145.9339  142.8697  153.9660 C   0  0  0  0  0  0  0  0  0  0  0  0
  151.3276  142.0025  157.4782 C   0  0  0  0  0  0  0  0  0  0  0  0
  150.8912  143.1362  158.1862 C   0  0  0  0  0  0  0  0  0  0  0  0
  151.4042  143.3927  159.4749 C   0  0  0  0  0  0  0  0  0  0  0  0
  150.9300  144.6221  160.2297 C   0  0  0  0  0  0  0  0  0  0  0  0
  153.6394  141.9908  161.7138 H   0  0  0  0  0  0  0  0  0  0  0  0
  152.1302  142.7763  162.1744 H   0  0  0  0  0  0  0  0  0  0  0  0
  153.4419  143.7227  161.4547 H   0  0  0  0  0  0  0  0  0  0  0  0
  153.5026  140.6921  159.7597 H   0  0  0  0  0  0  0  0  0  0  0  0
  151.7639  139.7489  155.2377 H   0  0  0  0  0  0  0  0  0  0  0  0
  149.5476  142.8146  155.6744 H   0  0  0  0  0  0  0  0  0  0  0  0
  150.7368  142.5006  154.4310 H   0  0  0  0  0  0  0  0  0  0  0  0
  148.8405  140.3308  155.4334 H   0  0  0  0  0  0  0  0  0  0  0  0
  149.5807  140.1607  152.8847 H   0  0  0  0  0  0  0  0  0  0  0  0
  148.4216  142.1755  153.0027 H   0  0  0  0  0  0  0  0  0  0  0  0
  147.4817  140.7489  153.3608 H   0  0  0  0  0  0  0  0  0  0  0  0
  146.2391  140.7483  155.6998 H   0  0  0  0  0  0  0  0  0  0  0  0
  147.6647  141.3989  156.4795 H   0  0  0  0  0  0  0  0  0  0  0  0
  145.6233  142.0784  157.7345 H   0  0  0  0  0  0  0  0  0  0  0  0
  146.4993  143.4521  157.1276 H   0  0  0  0  0  0  0  0  0  0  0  0
  143.9660  141.3386  155.1815 H   0  0  0  0  0  0  0  0  0  0  0  0
  143.6582  141.4463  156.8811 H   0  0  0  0  0  0  0  0  0  0  0  0
  141.6172  141.6260  155.5565 H   0  0  0  0  0  0  0  0  0  0  0  0
  141.6563  142.6994  157.8245 H   0  0  0  0  0  0  0  0  0  0  0  0
  140.5529  143.5039  156.7146 H   0  0  0  0  0  0  0  0  0  0  0  0
  142.1101  144.2319  157.0838 H   0  0  0  0  0  0  0  0  0  0  0  0
  142.2620  142.6909  153.8039 H   0  0  0  0  0  0  0  0  0  0  0  0
  144.2325  144.1544  154.3793 H   0  0  0  0  0  0  0  0  0  0  0  0
  145.6943  144.6401  155.1668 H   0  0  0  0  0  0  0  0  0  0  0  0
  146.2196  143.4552  153.0933 H   0  0  0  0  0  0  0  0  0  0  0  0
  145.3412  142.0310  153.5990 H   0  0  0  0  0  0  0  0  0  0  0  0
  150.1711  143.8055  157.7389 H   0  0  0  0  0  0  0  0  0  0  0  0
  150.2074  145.1934  159.6462 H   0  0  0  0  0  0  0  0  0  0  0  0
  151.7698  145.2792  160.4573 H   0  0  0  0  0  0  0  0  0  0  0  0
  150.4510  144.3345  161.1660 H   0  0  0  0  0  0  0  0  0  0  0  0
  147.6748  143.1844  154.9548 H   0  0  0  0  0  0  0  0  0  0  0  0
  1  2  1  0  0  0  0
  1 26  1  0  0  0  0
  1 27  1  0  0  0  0
  1 28  1  0  0  0  0
  2 24  1  0  0  0  0
  2  3  2  0  0  0  0
  3  4  1  0  0  0  0
  3 29  1  0  0  0  0
  4 22  2  0  0  0  0
  4  5  1  0  0  0  0
  5  6  2  0  0  0  0
  6  7  1  0  0  0  0
  6 30  1  0  0  0  0
  7  8  1  0  0  0  0
  7 22  1  0  0  0  0
  8  9  1  0  0  0  0
  8 31  1  0  0  0  0
  8 32  1  0  0  0  0
  9 10  1  0  0  0  0
  9 11  1  0  0  0  0
  9 33  1  0  0  0  0
 10 34  1  0  0  0  0
 11 12  1  0  0  0  0
 11 35  1  0  0  0  0
 11 36  1  0  0  0  0
 12 21  1  0  0  0  0
 12 13  1  0  0  0  0
 12 56  1  0  0  0  0
 13 14  1  0  0  0  0
 13 37  1  0  0  0  0
 13 38  1  0  0  0  0
 14 15  1  0  0  0  0
 14 39  1  0  0  0  0
 14 40  1  0  0  0  0
 15 16  1  0  0  0  0
 15 20  1  0  0  0  0
 16 17  1  0  0  0  0
 16 41  1  0  0  0  0
 16 42  1  0  0  0  0
 17 18  1  0  0  0  0
 17 19  1  0  0  0  0
 17 43  1  0  0  0  0
 18 44  1  0  0  0  0
 18 45  1  0  0  0  0
 18 46  1  0  0  0  0
 19 47  1  0  0  0  0
 20 21  1  0  0  0  0
 20 48  1  0  0  0  0
 20 49  1  0  0  0  0
 21 50  1  0  0  0  0
 21 51  1  0  0  0  0
 22 23  1  0  0  0  0
 23 24  2  0  0  0  0
 23 52  1  0  0  0  0
 24 25  1  0  0  0  0
 25 53  1  0  0  0  0
 25 54  1  0  0  0  0
 25 55  1  0  0  0  0
M  CHG  1  12   1
M  END
> <s_m_source_file>
AV-unprocessed.smi

> <i_m_source_file_index>
1033

> <i_lp_mmshare_version>
43012

> <i_f3d_flags>
0

> <s_epik_input>
W0NIM11jKFtjSF0xKWMoW0NIM10pW2NIXWMoYzEyKW4oW2NIXW4yKVtDSDJdW0NASF0oW09IXSlbQ0gyXU4zW0NIMl1bQ0gyXU4oW0NIMl1bQ0gyXTMpW0NIMl1bQ0BIXShbQ0gzXSlbT0hd

> <s_epik_cmdline>
J2VwaWtfcHl0aG9uJywgJy1waCcsICc3LjAnLCAnLXRuJywgJzgnLCAnLW1hJywgJzIwMCcsICctbWV0YWxfYmluZGluZycsICctaW1hZScsICc8aW5maWxlLm1hZT4nLCAnLW9tYWUnLCAnPG91dGZpbGUubWFlPic=

> <r_epik_Ionization_Penalty>
0.131893

> <r_epik_Ionization_Penalty_Charging>
0.00208556

> <r_epik_Ionization_Penalty_Neutral>
0.129808

> <r_epik_State_Penalty>
0.452125

> <r_epik_Charging_Adjusted_Penalty>
0.454211

> <i_epik_Tot_Q>
1

> <i_epik_Tot_abs_Q>
1

> <r_epik_Metal_State_Penalty>
0.376389

> <b_epik_Metal_Only>
0

> <s_lp_Force_Field>
OPLS_2005

> <r_lp_Energy>
36.4064

> <b_lp_Chiralities_Consistent>
1

> <s_lp_Variant>
AV-unprocessed.smi:1033-3

> <Gold.Version>
5.8.1

> <Gold.Id.Protein>
6NUR|6NUR_protein|mol2

> <Gold.PLP.Fitness>
64.9001

> <Gold.PLP.PLP>
-48.2217

> <Gold.PLP.part.hbond>
-4.9956

> <Gold.PLP.part.metal>
0.0000

> <Gold.PLP.part.buried>
-5.6106

> <Gold.PLP.part.nonpolar>
-36.5415

> <Gold.PLP.part.repulsive>
0.2282

> <Gold.PLP.ligand.clash>
0.0000

> <Gold.PLP.ligand.torsion>
0.4657

> <Gold.PLP.Chemscore.Hbond>
5.8000

> <Gold.PLP.Chemscore.CHOScore>
0.0000

> <Gold.PLP.Chemscore.Metal>
0.0000

> <Gold.Chemscore.Hbonds>
donor molecule, donor type, donor heavy atom, donor atom, acceptor molecule, acceptor atom, score
      L1  H    10    34       P1  7957  1.00
      L1  H    12    56       P1  8028  1.95
      L1  H    19    47       P1 10174  0.99
      P1  H  7989  7998       L1    10  0.75
      P1  H  7997  8008       L1     5  1.00

> <Gold.PLP.Chemscore.Internal.Correction>
0.2098

> <Gold.Rescore>
     Score         DG    S(hbond)    S(metal)    S(lipo)     H(rot)  DE(clash)    DE(int)     intcor
     18.94     -22.28       3.22        0.00     118.65       3.07       1.90       1.44       ----

> <Gold.Chemscore.Fitness>
18.9412

> <Gold.Chemscore.DG>
-22.2773

> <Gold.Chemscore.ZeroCoef>
-5.4800

> <Gold.Chemscore.Hbond>
3.2219

> <Gold.Chemscore.Metal>
0.0000

> <Gold.Chemscore.Lipo>
118.6543

> <Gold.Chemscore.Internal_Hbond>
0.0000

> <Gold.Chemscore.DEClash>
1.8984

> <Gold.Chemscore.DEInternal>
1.4378

> <Gold.Chemscore.Rot>
3.0650

> <Gold.Chemscore.Internal.Correction>
   9.000000E+99

> <Gold.Chemscore.Hbonds>
donor molecule, donor type, donor heavy atom, donor atom, acceptor molecule, acceptor atom, score
      L1  H    10    34       P1  7957  0.98
      L1  H    12    56       P1  8028  0.51
      L1  H    19    47       P1 10174  0.90
      P1  H  7989  7998       L1    10  0.18
      P1  H  7997  8008       L1     5  0.56

> <Gold.Chemscore.Hbond.Weighted>
-10.7612

> <Gold.Chemscore.Metal.Weighted>
-0.0000

> <Gold.Chemscore.Lipo.Weighted>
-13.8826

> <Gold.Chemscore.Internal_Hbond.Weighted>
0.0000

> <Gold.Chemscore.DEClash.Weighted>
1.8984

> <Gold.Chemscore.DEInternal.Weighted>
1.4378

> <Gold.Chemscore.Rot.Weighted>
7.8465

> <Gold.Chemscore.Internal.Correction.Weighted>
   9.000000E+99

> <Gold.Protein.RotatedTorsions>
[ 6907 6896 6895 6894 ] final -120.27 input  -60.11 | X-H torsion
[ 7974 7965 7964 7962 ] final   31.43 input  175.53 | X-H torsion
[ 8008 7997 7996 7995 ] final  -65.15 input   59.86 | X-H torsion
[ 10167 10162 10161 10158 ] final   21.72 input  -65.29 | X-H torsion
[ 10718 10713 10712 10709 ] final -144.58 input   66.30 | X-H torsion
[ 10763 10752 10751 10750 ] final  140.83 input  -60.55 | X-H torsion
[ 11005 11000 10999 10996 ] final  -52.76 input  -57.11 | X-H torsion

> <Gold.Protein.ActiveResidues>
 VAL166  LYS551  ARG553  GLY616  TRP617  ASP618  TYR619  PRO620  LYS621  CYS622 
 ASP623  PHE694  ASN695  SER759  ASP760  ASP761  ALA762  ILE779  LEU786  VAL792 
 PHE793  MET794  SER795  GLU796  ALA797  LYS798  CYS799  TRP800  GLU811  SER814 

> <Gold.Protein.RotatedAtoms>
  150.8378  133.7985  159.3072 H   0  0  0  0  0  0  0  0  0  0  0  0  # atno 6907 bound_to 6896
  151.5695  135.1061  160.0001 H   0  0  0  0  0  0  0  0  0  0  0  0  # atno 6908 bound_to 6896
  152.4447  133.7472  159.6730 H   0  0  0  0  0  0  0  0  0  0  0  0  # atno 6909 bound_to 6896
  146.1550  139.6657  142.9072 H   0  0  0  0  0  0  0  0  0  0  0  0  # atno 7974 bound_to 7965
  154.4654  140.0939  156.7006 H   0  0  0  0  0  0  0  0  0  0  0  0  # atno 8008 bound_to 7997
  155.4873  140.3469  155.4331 H   0  0  0  0  0  0  0  0  0  0  0  0  # atno 8009 bound_to 7997
  156.0947  140.1406  156.9535 H   0  0  0  0  0  0  0  0  0  0  0  0  # atno 8010 bound_to 7997
  140.5405  143.9685  150.6516 H   0  0  0  0  0  0  0  0  0  0  0  0  # atno 10167 bound_to 10162
  156.3718  130.7792  151.1974 H   0  0  0  0  0  0  0  0  0  0  0  0  # atno 10718 bound_to 10713
  153.9292  135.2992  155.3446 H   0  0  0  0  0  0  0  0  0  0  0  0  # atno 10763 bound_to 10752
  154.7535  135.4969  153.9336 H   0  0  0  0  0  0  0  0  0  0  0  0  # atno 10764 bound_to 10752
  153.1100  135.6757  153.9621 H   0  0  0  0  0  0  0  0  0  0  0  0  # atno 10765 bound_to 10752
  141.0941  133.6627  156.4072 H   0  0  0  0  0  0  0  0  0  0  0  0  # atno 11005 bound_to 11000
  145.4730  141.0436  143.2688 LP  0  0  0  0  0  0  0  0  0  0  0  0  # atno 17320 bound_to 7965
  144.7952  139.6248  143.7096 LP  0  0  0  0  0  0  0  0  0  0  0  0  # atno 17321 bound_to 7965
  140.3085  143.3214  152.0902 LP  0  0  0  0  0  0  0  0  0  0  0  0  # atno 17342 bound_to 10162
  139.4987  144.6652  151.6374 LP  0  0  0  0  0  0  0  0  0  0  0  0  # atno 17343 bound_to 10162
  157.7484  131.0370  150.4434 LP  0  0  0  0  0  0  0  0  0  0  0  0  # atno 17370 bound_to 10713
  156.4663  130.4043  149.6545 LP  0  0  0  0  0  0  0  0  0  0  0  0  # atno 17371 bound_to 10713
  140.5182  134.6329  157.5309 LP  0  0  0  0  0  0  0  0  0  0  0  0  # atno 17394 bound_to 11000
  139.9773  134.7194  155.9925 LP  0  0  0  0  0  0  0  0  0  0  0  0  # atno 17395 bound_to 11000

$$$$
