AV-unprocessed.smi:3245|AV-procd|sdf|12405|dock7
  -GOLD-   2272018283D 1   1.00000     0.00000
 Structure written by MMmdl.
 35 36  0  0  0  0  0  0  0  0  1 V2000
  152.5526  139.8259  158.3567 C   0  0  0  0  0  0  0  0  0  0  0  0
  151.0755  140.1861  158.6164 C   0  0  1  0  0  0  0  0  0  0  0  0
  150.6242  141.4416  157.8411 C   0  0  0  0  0  0  0  0  0  0  0  0
  151.3099  142.6489  158.2663 N   0  0  0  0  0  0  0  0  0  0  0  0
  151.6085  143.7719  157.5236 C   0  0  0  0  0  0  0  0  0  0  0  0
  152.2516  144.6473  158.3511 C   0  0  0  0  0  0  0  0  0  0  0  0
  152.2946  143.9635  159.5982 C   0  0  0  0  0  0  0  0  0  0  0  0
  151.7264  142.7696  159.5458 N   0  0  0  0  0  0  0  0  0  0  0  0
  150.2074  139.0876  158.2103 N   0  0  0  0  0  0  0  0  0  0  0  0
  150.5291  137.8456  158.9003 C   0  0  0  0  0  0  0  0  0  0  0  0
  151.4207  136.9603  158.0111 C   0  0  0  0  0  0  0  0  0  0  0  0
  150.6527  136.2865  156.9574 N   0  0  0  0  0  0  0  0  0  0  0  0
  149.5795  135.5151  157.1776 C   0  0  0  0  0  0  0  0  0  0  0  0
  149.0695  135.2294  158.2606 O   0  0  0  0  0  0  0  0  0  0  0  0
  149.0572  135.0278  155.8437 C   0  0  0  0  0  0  0  0  0  0  0  0
  150.0167  135.6659  154.9687 N   0  0  0  0  0  0  0  0  0  0  0  0
  150.9223  136.3866  155.6426 C   0  0  0  0  0  0  0  0  0  0  0  0
  151.8384  137.0289  155.1312 O   0  0  0  0  0  0  0  0  0  0  0  0
  153.2159  140.6387  158.6521 H   0  0  0  0  0  0  0  0  0  0  0  0
  152.7297  139.6230  157.3000 H   0  0  0  0  0  0  0  0  0  0  0  0
  152.8664  138.9483  158.9205 H   0  0  0  0  0  0  0  0  0  0  0  0
  150.9317  140.3761  159.6812 H   0  0  0  0  0  0  0  0  0  0  0  0
  150.7984  141.3092  156.7721 H   0  0  0  0  0  0  0  0  0  0  0  0
  149.5517  141.6000  157.9644 H   0  0  0  0  0  0  0  0  0  0  0  0
  151.3445  143.8526  156.4793 H   0  0  0  0  0  0  0  0  0  0  0  0
  152.6321  145.6270  158.1034 H   0  0  0  0  0  0  0  0  0  0  0  0
  152.7178  144.2975  160.5341 H   0  0  0  0  0  0  0  0  0  0  0  0
  149.2474  139.3287  158.4118 H   0  0  0  0  0  0  0  0  0  0  0  0
  151.0221  138.0383  159.8526 H   0  0  0  0  0  0  0  0  0  0  0  0
  149.6010  137.3174  159.1213 H   0  0  0  0  0  0  0  0  0  0  0  0
  152.1859  137.5812  157.5427 H   0  0  0  0  0  0  0  0  0  0  0  0
  151.9678  136.2384  158.6202 H   0  0  0  0  0  0  0  0  0  0  0  0
  149.1008  133.9411  155.7652 H   0  0  0  0  0  0  0  0  0  0  0  0
  148.0428  135.3809  155.6551 H   0  0  0  0  0  0  0  0  0  0  0  0
  149.9913  135.5738  153.9634 H   0  0  0  0  0  0  0  0  0  0  0  0
  1  2  1  0  0  0  0
  1 19  1  0  0  0  0
  1 20  1  0  0  0  0
  1 21  1  0  0  0  0
  2  3  1  0  0  0  0
  2  9  1  0  0  0  0
  2 22  1  0  0  0  0
  3  4  1  0  0  0  0
  3 23  1  0  0  0  0
  3 24  1  0  0  0  0
  4  8  1  0  0  0  0
  4  5  1  0  0  0  0
  5  6  2  0  0  0  0
  5 25  1  0  0  0  0
  6  7  1  0  0  0  0
  6 26  1  0  0  0  0
  7  8  2  0  0  0  0
  7 27  1  0  0  0  0
  9 10  1  0  0  0  0
  9 28  1  0  0  0  0
 10 11  1  0  0  0  0
 10 29  1  0  0  0  0
 10 30  1  0  0  0  0
 11 12  1  0  0  0  0
 11 31  1  0  0  0  0
 11 32  1  0  0  0  0
 12 17  1  0  0  0  0
 12 13  1  0  0  0  0
 13 14  2  0  0  0  0
 13 15  1  0  0  0  0
 15 16  1  0  0  0  0
 15 33  1  0  0  0  0
 15 34  1  0  0  0  0
 16 17  1  0  0  0  0
 16 35  1  0  0  0  0
 17 18  2  0  0  0  0
M  END
> <s_m_source_file>
AV-unprocessed.smi

> <i_m_source_file_index>
3245

> <i_lp_mmshare_version>
43012

> <i_f3d_flags>
0

> <s_epik_input>
bjFbY0hdW2NIXVtjSF1uMVtDSDJdW0NAQEhdKFtDSDNdKVtOSF1bQ0gyXVtDSDJdTjJDKD1PKVtDSDJdW05IXUMyPU8=

> <s_epik_cmdline>
J2VwaWtfcHl0aG9uJywgJy1waCcsICc3LjAnLCAnLXRuJywgJzgnLCAnLW1hJywgJzIwMCcsICctbWV0YWxfYmluZGluZycsICctaW1hZScsICc8aW5maWxlLm1hZT4nLCAnLW9tYWUnLCAnPG91dGZpbGUubWFlPic=

> <r_lp_tautomer_probability>
1

> <r_epik_Ionization_Penalty>
2.14948

> <r_epik_Ionization_Penalty_Charging>
0

> <r_epik_Ionization_Penalty_Neutral>
2.14948

> <r_epik_State_Penalty>
2.28912

> <r_epik_Charging_Adjusted_Penalty>
2.28912

> <i_epik_Tot_Q>
0

> <i_epik_Tot_abs_Q>
0

> <r_epik_Metal_State_Penalty>
2.36471

> <b_epik_Metal_Only>
0

> <s_lp_Force_Field>
OPLS_2005

> <r_lp_Energy>
25.1449

> <b_lp_Chiralities_Consistent>
1

> <s_lp_Variant>
AV-unprocessed.smi:3245-4

> <Gold.Version>
5.8.1

> <Gold.Id.Protein>
6NUR|6NUR_protein|mol2

> <Gold.PLP.Fitness>
39.0261

> <Gold.PLP.PLP>
-28.4243

> <Gold.PLP.part.hbond>
-3.0000

> <Gold.PLP.part.metal>
0.0000

> <Gold.PLP.part.buried>
-3.8605

> <Gold.PLP.part.nonpolar>
-22.1451

> <Gold.PLP.part.repulsive>
0.1925

> <Gold.PLP.ligand.clash>
0.0000

> <Gold.PLP.ligand.torsion>
0.7482

> <Gold.PLP.Chemscore.Hbond>
3.0000

> <Gold.PLP.Chemscore.CHOScore>
1.0000

> <Gold.PLP.Chemscore.Metal>
0.0000

> <Gold.Chemscore.Hbonds>
donor molecule, donor type, donor heavy atom, donor atom, acceptor molecule, acceptor atom, score
      L1  H    16    35       P1  7948  0.06
      P1  H  6896  6907       L1    14  0.68
      P1  H 10752 10764       L1    18  0.85
      L1  C     5    25       P1  8028  0.47

> <Gold.PLP.Chemscore.Internal.Correction>
0.0983

> <Gold.Rescore>
     Score         DG    S(hbond)    S(metal)    S(lipo)     H(rot)  DE(clash)    DE(int)     intcor
     11.81     -12.61       1.94        0.00      63.76       2.66       0.00       0.80       ----

> <Gold.Chemscore.Fitness>
11.8114

> <Gold.Chemscore.DG>
-12.6130

> <Gold.Chemscore.ZeroCoef>
-5.4800

> <Gold.Chemscore.Hbond>
1.9415

> <Gold.Chemscore.Metal>
0.0000

> <Gold.Chemscore.Lipo>
63.7633

> <Gold.Chemscore.Internal_Hbond>
0.0000

> <Gold.Chemscore.DEClash>
0.0009

> <Gold.Chemscore.DEInternal>
0.8007

> <Gold.Chemscore.Rot>
2.6609

> <Gold.Chemscore.Internal.Correction>
   9.000000E+99

> <Gold.Chemscore.Hbonds>
donor molecule, donor type, donor heavy atom, donor atom, acceptor molecule, acceptor atom, score
      L1  H    16    35       P1  7948  0.01
      P1  H  6896  6907       L1    14  0.37
      P1  H 10752 10764       L1    18  0.38

> <Gold.Chemscore.Hbond.Weighted>
-6.4845

> <Gold.Chemscore.Metal.Weighted>
-0.0000

> <Gold.Chemscore.Lipo.Weighted>
-7.4603

> <Gold.Chemscore.Internal_Hbond.Weighted>
0.0000

> <Gold.Chemscore.DEClash.Weighted>
0.0009

> <Gold.Chemscore.DEInternal.Weighted>
0.8007

> <Gold.Chemscore.Rot.Weighted>
6.8118

> <Gold.Chemscore.Internal.Correction.Weighted>
   9.000000E+99

> <Gold.Protein.RotatedTorsions>
[ 6907 6896 6895 6894 ] final  -88.58 input  -60.11 | X-H torsion
[ 7974 7965 7964 7962 ] final   49.70 input  175.53 | X-H torsion
[ 8008 7997 7996 7995 ] final -172.48 input   59.86 | X-H torsion
[ 10167 10162 10161 10158 ] final  -31.44 input  -65.29 | X-H torsion
[ 10718 10713 10712 10709 ] final   67.21 input   66.30 | X-H torsion
[ 10763 10752 10751 10750 ] final  -78.33 input  -60.55 | X-H torsion
[ 11005 11000 10999 10996 ] final  103.26 input  -57.11 | X-H torsion

> <Gold.Protein.ActiveResidues>
 VAL166  LYS551  ARG553  GLY616  TRP617  ASP618  TYR619  PRO620  LYS621  CYS622 
 ASP623  PHE694  ASN695  SER759  ASP760  ASP761  ALA762  ILE779  LEU786  VAL792 
 PHE793  MET794  SER795  GLU796  ALA797  LYS798  CYS799  TRP800  GLU811  SER814 

> <Gold.Protein.RotatedAtoms>
  150.6869  134.2720  159.4591 H   0  0  0  0  0  0  0  0  0  0  0  0  # atno 6907 bound_to 6896
  152.0641  134.9573  160.0584 H   0  0  0  0  0  0  0  0  0  0  0  0  # atno 6908 bound_to 6896
  152.0988  133.4204  159.4614 H   0  0  0  0  0  0  0  0  0  0  0  0  # atno 6909 bound_to 6896
  146.0083  139.4515  142.9972 H   0  0  0  0  0  0  0  0  0  0  0  0  # atno 7974 bound_to 7965
  155.9451  140.1116  157.1023 H   0  0  0  0  0  0  0  0  0  0  0  0  # atno 8008 bound_to 7997
  154.4097  140.1211  156.5045 H   0  0  0  0  0  0  0  0  0  0  0  0  # atno 8009 bound_to 7997
  155.6912  140.3472  155.4897 H   0  0  0  0  0  0  0  0  0  0  0  0  # atno 8010 bound_to 7997
  140.7236  143.3771  151.1670 H   0  0  0  0  0  0  0  0  0  0  0  0  # atno 10167 bound_to 10162
  157.6216  130.9309  150.0212 H   0  0  0  0  0  0  0  0  0  0  0  0  # atno 10718 bound_to 10713
  154.5244  135.5734  153.6707 H   0  0  0  0  0  0  0  0  0  0  0  0  # atno 10763 bound_to 10752
  152.9924  135.6189  154.2711 H   0  0  0  0  0  0  0  0  0  0  0  0  # atno 10764 bound_to 10752
  154.2634  135.2855  155.2748 H   0  0  0  0  0  0  0  0  0  0  0  0  # atno 10765 bound_to 10752
  139.8782  134.9256  156.5182 H   0  0  0  0  0  0  0  0  0  0  0  0  # atno 11005 bound_to 11000
  145.7381  141.0018  143.1315 LP  0  0  0  0  0  0  0  0  0  0  0  0  # atno 17320 bound_to 7965
  144.6944  139.9066  143.7461 LP  0  0  0  0  0  0  0  0  0  0  0  0  # atno 17321 bound_to 7965
  139.7353  143.9009  152.3033 LP  0  0  0  0  0  0  0  0  0  0  0  0  # atno 17342 bound_to 10162
  139.8812  144.7017  150.8876 LP  0  0  0  0  0  0  0  0  0  0  0  0  # atno 17343 bound_to 10162
  156.1365  130.3642  149.9649 LP  0  0  0  0  0  0  0  0  0  0  0  0  # atno 17370 bound_to 10713
  156.7699  130.9182  151.3644 LP  0  0  0  0  0  0  0  0  0  0  0  0  # atno 17371 bound_to 10713
  140.8470  133.8161  155.9131 LP  0  0  0  0  0  0  0  0  0  0  0  0  # atno 17394 bound_to 11000
  140.9182  134.2175  157.4943 LP  0  0  0  0  0  0  0  0  0  0  0  0  # atno 17395 bound_to 11000

$$$$
