AV-unprocessed.smi:590|AV-procd|sdf|3008|dock5
  -GOLD-   2262023513D 1   1.00000     0.00000
 Structure written by MMmdl.
 41 42  0  0  0  0  0  0  0  0  1 V2000
  152.7092  138.4599  154.5127 C   0  0  0  0  0  0  0  0  0  0  0  0
  151.4607  137.6916  154.8387 C   0  0  0  0  0  0  0  0  0  0  0  0
  151.5398  136.3998  155.1116 N   0  0  0  0  0  0  0  0  0  0  0  0
  150.2292  135.9801  155.3591 O   0  0  0  0  0  0  0  0  0  0  0  0
  149.4028  137.0482  155.2210 C   0  0  0  0  0  0  0  0  0  0  0  0
  147.9480  136.8039  155.4388 C   0  0  0  0  0  0  0  0  0  0  0  0
  150.1191  138.1666  154.8948 C   0  0  0  0  0  0  0  0  0  0  0  0
  149.6167  139.5649  154.6464 C   0  0  0  0  0  0  0  0  0  0  0  0
  150.3504  140.5447  155.5620 C   0  0  0  0  0  0  0  0  0  0  0  0
  151.5358  140.8055  155.3573 O   0  0  0  0  0  0  0  0  0  0  0  0
  149.6352  141.0753  156.5669 N   0  0  0  0  0  0  0  0  0  0  0  0
  150.1346  142.0245  157.5581 C   0  0  0  0  0  0  0  0  0  0  0  0
  151.6042  141.7549  157.9379 C   0  0  0  0  0  0  0  0  0  0  0  0
  152.0513  142.4383  159.2219 C   0  0  0  0  0  0  0  0  0  0  0  0
  151.8576  143.7553  159.4314 C   0  0  0  0  0  0  0  0  0  0  0  0
  152.2598  144.4866  160.6999 C   0  0  0  0  0  0  0  0  0  0  0  0
  152.5812  143.5233  161.8546 C   0  0  0  0  0  0  0  0  0  0  0  0
  153.4283  142.3410  161.3690 C   0  0  0  0  0  0  0  0  0  0  0  0
  152.7017  141.5435  160.2715 C   0  0  0  0  0  0  0  0  0  0  0  0
  152.7438  139.4003  155.0628 H   0  0  0  0  0  0  0  0  0  0  0  0
  152.7528  138.6959  153.4494 H   0  0  0  0  0  0  0  0  0  0  0  0
  153.6083  137.8969  154.7651 H   0  0  0  0  0  0  0  0  0  0  0  0
  147.3496  137.3748  154.7285 H   0  0  0  0  0  0  0  0  0  0  0  0
  147.6541  137.1015  156.4451 H   0  0  0  0  0  0  0  0  0  0  0  0
  147.7035  135.7492  155.3118 H   0  0  0  0  0  0  0  0  0  0  0  0
  149.7825  139.8700  153.6126 H   0  0  0  0  0  0  0  0  0  0  0  0
  148.5406  139.6342  154.8109 H   0  0  0  0  0  0  0  0  0  0  0  0
  148.6679  140.7986  156.6527 H   0  0  0  0  0  0  0  0  0  0  0  0
  150.0567  143.0217  157.1245 H   0  0  0  0  0  0  0  0  0  0  0  0
  149.4977  142.0373  158.4434 H   0  0  0  0  0  0  0  0  0  0  0  0
  151.7557  140.6786  158.0318 H   0  0  0  0  0  0  0  0  0  0  0  0
  152.2589  142.0812  157.1293 H   0  0  0  0  0  0  0  0  0  0  0  0
  151.4032  144.3602  158.6605 H   0  0  0  0  0  0  0  0  0  0  0  0
  153.1298  145.1026  160.4703 H   0  0  0  0  0  0  0  0  0  0  0  0
  151.4586  145.1648  160.9945 H   0  0  0  0  0  0  0  0  0  0  0  0
  153.0958  144.0574  162.6539 H   0  0  0  0  0  0  0  0  0  0  0  0
  151.6521  143.1452  162.2832 H   0  0  0  0  0  0  0  0  0  0  0  0
  154.3752  142.7163  160.9777 H   0  0  0  0  0  0  0  0  0  0  0  0
  153.6779  141.6843  162.2028 H   0  0  0  0  0  0  0  0  0  0  0  0
  151.9209  140.9254  160.7153 H   0  0  0  0  0  0  0  0  0  0  0  0
  153.4093  140.8622  159.8004 H   0  0  0  0  0  0  0  0  0  0  0  0
  1  2  1  0  0  0  0
  1 20  1  0  0  0  0
  1 21  1  0  0  0  0
  1 22  1  0  0  0  0
  2  7  1  0  0  0  0
  2  3  2  0  0  0  0
  3  4  1  0  0  0  0
  4  5  1  0  0  0  0
  5  6  1  0  0  0  0
  5  7  2  0  0  0  0
  6 23  1  0  0  0  0
  6 24  1  0  0  0  0
  6 25  1  0  0  0  0
  7  8  1  0  0  0  0
  8  9  1  0  0  0  0
  8 26  1  0  0  0  0
  8 27  1  0  0  0  0
  9 10  2  0  0  0  0
  9 11  1  0  0  0  0
 11 12  1  0  0  0  0
 11 28  1  0  0  0  0
 12 13  1  0  0  0  0
 12 29  1  0  0  0  0
 12 30  1  0  0  0  0
 13 14  1  0  0  0  0
 13 31  1  0  0  0  0
 13 32  1  0  0  0  0
 14 19  1  0  0  0  0
 14 15  2  0  0  0  0
 15 16  1  0  0  0  0
 15 33  1  0  0  0  0
 16 17  1  0  0  0  0
 16 34  1  0  0  0  0
 16 35  1  0  0  0  0
 17 18  1  0  0  0  0
 17 36  1  0  0  0  0
 17 37  1  0  0  0  0
 18 19  1  0  0  0  0
 18 38  1  0  0  0  0
 18 39  1  0  0  0  0
 19 40  1  0  0  0  0
 19 41  1  0  0  0  0
M  END
> <s_m_source_file>
AV-unprocessed.smi

> <i_m_source_file_index>
590

> <i_lp_mmshare_version>
43012

> <i_f3d_flags>
0

> <s_epik_input>
W0NIM11jMW5vYyhbQ0gzXSljMVtDSDJdQyg9TylbTkhdW0NIMl1bQ0gyXUMyPVtDSF1bQ0gyXVtDSDJdW0NIMl1bQ0gyXTI=

> <s_epik_cmdline>
J2VwaWtfcHl0aG9uJywgJy1waCcsICc3LjAnLCAnLXRuJywgJzgnLCAnLW1hJywgJzIwMCcsICctbWV0YWxfYmluZGluZycsICctaW1hZScsICc8aW5maWxlLm1hZT4nLCAnLW9tYWUnLCAnPG91dGZpbGUubWFlPic=

> <r_lp_tautomer_probability>
1

> <r_epik_Ionization_Penalty>
1.93189e-08

> <r_epik_Ionization_Penalty_Charging>
0

> <r_epik_Ionization_Penalty_Neutral>
1.93189e-08

> <r_epik_State_Penalty>
-0

> <r_epik_Charging_Adjusted_Penalty>
0

> <i_epik_Tot_Q>
0

> <i_epik_Tot_abs_Q>
0

> <r_epik_Metal_State_Penalty>
-0

> <b_epik_Metal_Only>
0

> <s_lp_Force_Field>
OPLS_2005

> <r_lp_Energy>
2.22272

> <b_lp_Chiralities_Consistent>
1

> <s_lp_Variant>
AV-unprocessed.smi:590-1

> <Gold.Version>
5.8.1

> <Gold.Id.Protein>
6NUR|6NUR_protein|mol2

> <Gold.PLP.Fitness>
44.3523

> <Gold.PLP.PLP>
-40.1912

> <Gold.PLP.part.hbond>
-2.0000

> <Gold.PLP.part.metal>
0.0000

> <Gold.PLP.part.buried>
-4.4132

> <Gold.PLP.part.nonpolar>
-34.1496

> <Gold.PLP.part.repulsive>
0.2780

> <Gold.PLP.ligand.clash>
0.0000

> <Gold.PLP.ligand.torsion>
0.4411

> <Gold.PLP.Chemscore.Hbond>
1.6720

> <Gold.PLP.Chemscore.CHOScore>
0.0000

> <Gold.PLP.Chemscore.Metal>
0.0000

> <Gold.Chemscore.Hbonds>
donor molecule, donor type, donor heavy atom, donor atom, acceptor molecule, acceptor atom, score
      P1  H  7989  7998       L1    10  0.67
      P1  H 10752 10763       L1     3  1.00

> <Gold.PLP.Chemscore.Internal.Correction>
0.0274

> <Gold.Rescore>
     Score         DG    S(hbond)    S(metal)    S(lipo)     H(rot)  DE(clash)    DE(int)     intcor
     16.46     -20.06       1.66        0.00     111.16       1.55       0.15       3.45       ----

> <Gold.Chemscore.Fitness>
16.4603

> <Gold.Chemscore.DG>
-20.0570

> <Gold.Chemscore.ZeroCoef>
-5.4800

> <Gold.Chemscore.Hbond>
1.6578

> <Gold.Chemscore.Metal>
0.0000

> <Gold.Chemscore.Lipo>
111.1641

> <Gold.Chemscore.Internal_Hbond>
0.0000

> <Gold.Chemscore.DEClash>
0.1461

> <Gold.Chemscore.DEInternal>
3.4506

> <Gold.Chemscore.Rot>
1.5493

> <Gold.Chemscore.Internal.Correction>
   9.000000E+99

> <Gold.Chemscore.Hbonds>
donor molecule, donor type, donor heavy atom, donor atom, acceptor molecule, acceptor atom, score
      P1  H  7989  7998       L1    10  0.30
      P1  H 10752 10763       L1     3  0.94

> <Gold.Chemscore.Hbond.Weighted>
-5.5371

> <Gold.Chemscore.Metal.Weighted>
-0.0000

> <Gold.Chemscore.Lipo.Weighted>
-13.0062

> <Gold.Chemscore.Internal_Hbond.Weighted>
0.0000

> <Gold.Chemscore.DEClash.Weighted>
0.1461

> <Gold.Chemscore.DEInternal.Weighted>
3.4506

> <Gold.Chemscore.Rot.Weighted>
3.9663

> <Gold.Chemscore.Internal.Correction.Weighted>
   9.000000E+99

> <Gold.Protein.RotatedTorsions>
[ 6907 6896 6895 6894 ] final  -98.72 input  -60.11 | X-H torsion
[ 7974 7965 7964 7962 ] final -124.35 input  175.53 | X-H torsion
[ 8008 7997 7996 7995 ] final  -10.08 input   59.86 | X-H torsion
[ 10167 10162 10161 10158 ] final   98.84 input  -65.29 | X-H torsion
[ 10718 10713 10712 10709 ] final -141.63 input   66.30 | X-H torsion
[ 10763 10752 10751 10750 ] final   59.19 input  -60.55 | X-H torsion
[ 11005 11000 10999 10996 ] final  -44.40 input  -57.11 | X-H torsion

> <Gold.Protein.ActiveResidues>
 VAL166  LYS551  ARG553  GLY616  TRP617  ASP618  TYR619  PRO620  LYS621  CYS622 
 ASP623  PHE694  ASN695  SER759  ASP760  ASP761  ALA762  ILE779  LEU786  VAL792 
 PHE793  MET794  SER795  GLU796  ALA797  LYS798  CYS799  TRP800  GLU811  SER814 

> <Gold.Protein.RotatedAtoms>
  150.7056  134.1150  159.4013 H   0  0  0  0  0  0  0  0  0  0  0  0  # atno 6907 bound_to 6896
  151.9137  135.0326  160.0526 H   0  0  0  0  0  0  0  0  0  0  0  0  # atno 6908 bound_to 6896
  152.2314  133.5026  159.5255 H   0  0  0  0  0  0  0  0  0  0  0  0  # atno 6909 bound_to 6896
  145.0090  140.7889  143.4450 H   0  0  0  0  0  0  0  0  0  0  0  0  # atno 7974 bound_to 7965
  154.5587  140.2338  155.8370 H   0  0  0  0  0  0  0  0  0  0  0  0  # atno 8008 bound_to 7997
  156.2010  140.3052  155.9487 H   0  0  0  0  0  0  0  0  0  0  0  0  # atno 8009 bound_to 7997
  155.2931  140.0427  157.3015 H   0  0  0  0  0  0  0  0  0  0  0  0  # atno 8010 bound_to 7997
  139.7672  144.6935  151.0207 H   0  0  0  0  0  0  0  0  0  0  0  0  # atno 10167 bound_to 10162
  156.3363  130.7613  151.1741 H   0  0  0  0  0  0  0  0  0  0  0  0  # atno 10718 bound_to 10713
  152.9888  135.5580  154.5673 H   0  0  0  0  0  0  0  0  0  0  0  0  # atno 10763 bound_to 10752
  154.5080  135.2801  155.1368 H   0  0  0  0  0  0  0  0  0  0  0  0  # atno 10764 bound_to 10752
  154.2771  135.6352  153.5385 H   0  0  0  0  0  0  0  0  0  0  0  0  # atno 10765 bound_to 10752
  141.0448  133.6765  156.2867 H   0  0  0  0  0  0  0  0  0  0  0  0  # atno 11005 bound_to 11000
  145.2049  139.2233  143.5173 LP  0  0  0  0  0  0  0  0  0  0  0  0  # atno 17320 bound_to 7965
  146.3466  140.1874  142.8589 LP  0  0  0  0  0  0  0  0  0  0  0  0  # atno 17321 bound_to 7965
  140.7811  143.4629  151.0252 LP  0  0  0  0  0  0  0  0  0  0  0  0  # atno 17342 bound_to 10162
  139.8314  143.7686  152.3180 LP  0  0  0  0  0  0  0  0  0  0  0  0  # atno 17343 bound_to 10162
  157.7439  131.0467  150.4907 LP  0  0  0  0  0  0  0  0  0  0  0  0  # atno 17370 bound_to 10713
  156.5081  130.4133  149.6316 LP  0  0  0  0  0  0  0  0  0  0  0  0  # atno 17371 bound_to 10713
  140.6167  134.5403  157.5541 LP  0  0  0  0  0  0  0  0  0  0  0  0  # atno 17394 bound_to 11000
  139.9303  134.7976  156.0949 LP  0  0  0  0  0  0  0  0  0  0  0  0  # atno 17395 bound_to 11000

$$$$
