AV-unprocessed.smi:3329|AV-procd|sdf|12795|dock7
  -GOLD-   2272019153D 1   1.00000     0.00000
 Structure written by MMmdl.
 42 43  0  0  0  0  0  0  0  0  2 V2000
  145.3699  132.5556  150.6306 C   0  0  0  0  0  0  0  0  0  0  0  0
  145.1854  133.9833  151.0580 C   0  0  0  0  0  0  0  0  0  0  0  0
  143.9616  134.6780  151.2740 C   0  0  0  0  0  0  0  0  0  0  0  0
  144.1429  135.9344  151.6474 N   0  0  0  0  0  0  0  0  0  0  0  0
  145.4834  136.0856  151.6850 N   0  0  0  0  0  0  0  0  0  0  0  0
  146.0556  137.3672  152.0582 C   0  0  0  0  0  0  0  0  0  0  0  0
  146.3415  137.4680  153.5662 C   0  0  0  0  0  0  0  0  0  0  0  0
  147.6569  138.0863  153.8244 N   0  3  0  0  0  0  0  0  0  0  0  0
  147.6737  139.5575  153.6953 C   0  0  0  0  0  0  0  0  0  0  0  0
  148.8960  140.1833  154.3699 C   0  0  0  0  0  0  0  0  0  0  0  0
  149.5045  141.1081  153.8315 O   0  0  0  0  0  0  0  0  0  0  0  0
  149.2454  139.6597  155.5562 N   0  0  0  0  0  0  0  0  0  0  0  0
  150.3742  140.0698  156.3933 C   0  0  1  0  0  0  0  0  0  0  0  0
  150.3181  139.1981  157.6586 C   0  0  0  0  0  0  0  0  0  0  0  0
  151.6511  139.7904  155.7048 C   0  0  0  0  0  0  0  0  0  0  0  0
  152.6527  139.5718  155.1681 N   0  0  0  0  0  0  0  0  0  0  0  0
  150.3005  141.5411  156.8102 C   0  0  0  0  0  0  0  0  0  0  0  0
  151.0693  142.1142  157.9824 C   0  0  0  0  0  0  0  0  0  0  0  0
  149.5668  141.9792  158.0592 C   0  0  0  0  0  0  0  0  0  0  0  0
  146.1374  134.9257  151.3266 C   0  0  0  0  0  0  0  0  0  0  0  0
  145.1136  132.4152  149.5804 H   0  0  0  0  0  0  0  0  0  0  0  0
  144.7418  131.8779  151.2091 H   0  0  0  0  0  0  0  0  0  0  0  0
  146.4005  132.2228  150.7572 H   0  0  0  0  0  0  0  0  0  0  0  0
  142.9523  134.3076  151.1712 H   0  0  0  0  0  0  0  0  0  0  0  0
  146.9722  137.5222  151.4872 H   0  0  0  0  0  0  0  0  0  0  0  0
  145.3613  138.1521  151.7552 H   0  0  0  0  0  0  0  0  0  0  0  0
  145.5666  138.0664  154.0468 H   0  0  0  0  0  0  0  0  0  0  0  0
  146.3078  136.4788  154.0249 H   0  0  0  0  0  0  0  0  0  0  0  0
  147.9407  137.8491  154.7647 H   0  0  0  0  0  0  0  0  0  0  0  0
  147.6685  139.8293  152.6387 H   0  0  0  0  0  0  0  0  0  0  0  0
  146.7706  139.9710  154.1465 H   0  0  0  0  0  0  0  0  0  0  0  0
  148.6840  138.9000  155.9131 H   0  0  0  0  0  0  0  0  0  0  0  0
  151.1461  139.4249  158.3315 H   0  0  0  0  0  0  0  0  0  0  0  0
  150.3808  138.1371  157.4131 H   0  0  0  0  0  0  0  0  0  0  0  0
  149.3919  139.3559  158.2130 H   0  0  0  0  0  0  0  0  0  0  0  0
  150.1877  142.2117  155.9599 H   0  0  0  0  0  0  0  0  0  0  0  0
  151.6634  141.4400  158.5956 H   0  0  0  0  0  0  0  0  0  0  0  0
  151.4781  143.1162  157.8694 H   0  0  0  0  0  0  0  0  0  0  0  0
  148.9771  142.8915  157.9994 H   0  0  0  0  0  0  0  0  0  0  0  0
  149.1663  141.2104  158.7167 H   0  0  0  0  0  0  0  0  0  0  0  0
  147.2153  134.8648  151.2950 H   0  0  0  0  0  0  0  0  0  0  0  0
  148.3319  137.7002  153.1799 H   0  0  0  0  0  0  0  0  0  0  0  0
  1  2  1  0  0  0  0
  1 21  1  0  0  0  0
  1 22  1  0  0  0  0
  1 23  1  0  0  0  0
  2 20  2  0  0  0  0
  2  3  1  0  0  0  0
  3  4  2  0  0  0  0
  3 24  1  0  0  0  0
  4  5  1  0  0  0  0
  5  6  1  0  0  0  0
  5 20  1  0  0  0  0
  6  7  1  0  0  0  0
  6 25  1  0  0  0  0
  6 26  1  0  0  0  0
  7  8  1  0  0  0  0
  7 27  1  0  0  0  0
  7 28  1  0  0  0  0
  8  9  1  0  0  0  0
  8 29  1  0  0  0  0
  8 42  1  0  0  0  0
  9 10  1  0  0  0  0
  9 30  1  0  0  0  0
  9 31  1  0  0  0  0
 10 11  2  0  0  0  0
 10 12  1  0  0  0  0
 12 13  1  0  0  0  0
 12 32  1  0  0  0  0
 13 14  1  0  0  0  0
 13 15  1  0  0  0  0
 13 17  1  0  0  0  0
 14 33  1  0  0  0  0
 14 34  1  0  0  0  0
 14 35  1  0  0  0  0
 15 16  3  0  0  0  0
 17 19  1  0  0  0  0
 17 18  1  0  0  0  0
 17 36  1  0  0  0  0
 18 19  1  0  0  0  0
 18 37  1  0  0  0  0
 18 38  1  0  0  0  0
 19 39  1  0  0  0  0
 19 40  1  0  0  0  0
 20 41  1  0  0  0  0
M  CHG  1   8   1
M  END
> <s_m_source_file>
AV-unprocessed.smi

> <i_m_source_file_index>
3329

> <i_lp_mmshare_version>
43012

> <i_f3d_flags>
0

> <s_epik_input>
W0NIM11jMVtjSF1ubihbY0hdMSlbQ0gyXVtDSDJdW05IXVtDSDJdQyg9TylbTkhdW0NAQF0oW0NIM10pKEMjTilbQ0hdMltDSDJdW0NIMl0y

> <s_epik_cmdline>
J2VwaWtfcHl0aG9uJywgJy1waCcsICc3LjAnLCAnLXRuJywgJzgnLCAnLW1hJywgJzIwMCcsICctbWV0YWxfYmluZGluZycsICctaW1hZScsICc8aW5maWxlLm1hZT4nLCAnLW9tYWUnLCAnPG91dGZpbGUubWFlPic=

> <r_lp_tautomer_probability>
1

> <r_epik_Ionization_Penalty>
0.350291

> <r_epik_Ionization_Penalty_Charging>
0.350239

> <r_epik_Ionization_Penalty_Neutral>
5.12768e-05

> <r_epik_State_Penalty>
0.347656

> <r_epik_Charging_Adjusted_Penalty>
0.697895

> <i_epik_Tot_Q>
1

> <i_epik_Tot_abs_Q>
1

> <r_epik_Metal_State_Penalty>
0.371739

> <b_epik_Metal_Only>
0

> <s_lp_Force_Field>
OPLS_2005

> <r_lp_Energy>
10.54

> <b_lp_Chiralities_Consistent>
1

> <s_lp_Variant>
AV-unprocessed.smi:3329-1

> <Gold.Version>
5.8.1

> <Gold.Id.Protein>
6NUR|6NUR_protein|mol2

> <Gold.PLP.Fitness>
48.3057

> <Gold.PLP.PLP>
-32.1218

> <Gold.PLP.part.hbond>
-4.9726

> <Gold.PLP.part.metal>
0.0000

> <Gold.PLP.part.buried>
-2.7533

> <Gold.PLP.part.nonpolar>
-26.2848

> <Gold.PLP.part.repulsive>
2.0424

> <Gold.PLP.ligand.clash>
0.0000

> <Gold.PLP.ligand.torsion>
1.8927

> <Gold.PLP.Chemscore.Hbond>
4.1369

> <Gold.PLP.Chemscore.CHOScore>
1.9831

> <Gold.PLP.Chemscore.Metal>
0.0000

> <Gold.Chemscore.Hbonds>
donor molecule, donor type, donor heavy atom, donor atom, acceptor molecule, acceptor atom, score
      L1  H     8    42       P1  7948  1.85
      P1  H  7989  7998       L1    11  0.25
      P1  H  7997  8008       L1    16  0.98
      P1  H  8011  8017       L1    11  0.91
      L1  C     3    24       P1 10186  1.00
      L1  C    20    41       P1  7948  1.00

> <Gold.PLP.Chemscore.Internal.Correction>
1.6094

> <Gold.Rescore>
     Score         DG    S(hbond)    S(metal)    S(lipo)     H(rot)  DE(clash)    DE(int)     intcor
     13.25     -16.64       2.86        0.00      66.27       2.40       1.56       1.83       ----

> <Gold.Chemscore.Fitness>
13.2456

> <Gold.Chemscore.DG>
-16.6429

> <Gold.Chemscore.ZeroCoef>
-5.4800

> <Gold.Chemscore.Hbond>
2.8581

> <Gold.Chemscore.Metal>
0.0000

> <Gold.Chemscore.Lipo>
66.2728

> <Gold.Chemscore.Internal_Hbond>
0.0000

> <Gold.Chemscore.DEClash>
1.5626

> <Gold.Chemscore.DEInternal>
1.8348

> <Gold.Chemscore.Rot>
2.3972

> <Gold.Chemscore.Internal.Correction>
   9.000000E+99

> <Gold.Chemscore.Hbonds>
donor molecule, donor type, donor heavy atom, donor atom, acceptor molecule, acceptor atom, score
      L1  H     8    42       P1  7948  0.85
      P1  H  7989  7998       L1    11  0.24
      P1  H  7997  8008       L1    16  0.92
      P1  H  8011  8017       L1    11  0.84

> <Gold.Chemscore.Hbond.Weighted>
-9.5459

> <Gold.Chemscore.Metal.Weighted>
-0.0000

> <Gold.Chemscore.Lipo.Weighted>
-7.7539

> <Gold.Chemscore.Internal_Hbond.Weighted>
0.0000

> <Gold.Chemscore.DEClash.Weighted>
1.5626

> <Gold.Chemscore.DEInternal.Weighted>
1.8348

> <Gold.Chemscore.Rot.Weighted>
6.1369

> <Gold.Chemscore.Internal.Correction.Weighted>
   9.000000E+99

> <Gold.Protein.RotatedTorsions>
[ 6907 6896 6895 6894 ] final -178.21 input  -60.11 | X-H torsion
[ 7974 7965 7964 7962 ] final  -65.51 input  175.53 | X-H torsion
[ 8008 7997 7996 7995 ] final  -14.69 input   59.86 | X-H torsion
[ 10167 10162 10161 10158 ] final  170.12 input  -65.29 | X-H torsion
[ 10718 10713 10712 10709 ] final  -34.57 input   66.30 | X-H torsion
[ 10763 10752 10751 10750 ] final  -13.82 input  -60.55 | X-H torsion
[ 11005 11000 10999 10996 ] final    7.69 input  -57.11 | X-H torsion

> <Gold.Protein.ActiveResidues>
 VAL166  LYS551  ARG553  GLY616  TRP617  ASP618  TYR619  PRO620  LYS621  CYS622 
 ASP623  PHE694  ASN695  SER759  ASP760  ASP761  ALA762  ILE779  LEU786  VAL792 
 PHE793  MET794  SER795  GLU796  ALA797  LYS798  CYS799  TRP800  GLU811  SER814 

> <Gold.Protein.RotatedAtoms>
  151.6335  133.3330  159.3113 H   0  0  0  0  0  0  0  0  0  0  0  0  # atno 6907 bound_to 6896
  150.8044  134.7163  159.6642 H   0  0  0  0  0  0  0  0  0  0  0  0  # atno 6908 bound_to 6896
  152.4139  134.6081  160.0069 H   0  0  0  0  0  0  0  0  0  0  0  0  # atno 6909 bound_to 6896
  145.7533  140.8897  143.0468 H   0  0  0  0  0  0  0  0  0  0  0  0  # atno 7974 bound_to 7965
  154.5190  140.2216  155.9011 H   0  0  0  0  0  0  0  0  0  0  0  0  # atno 8008 bound_to 7997
  156.1640  140.3136  155.8822 H   0  0  0  0  0  0  0  0  0  0  0  0  # atno 8009 bound_to 7997
  155.3693  140.0465  157.3036 H   0  0  0  0  0  0  0  0  0  0  0  0  # atno 8010 bound_to 7997
  139.5010  144.3631  151.9804 H   0  0  0  0  0  0  0  0  0  0  0  0  # atno 10167 bound_to 10162
  156.3490  130.4305  149.7721 H   0  0  0  0  0  0  0  0  0  0  0  0  # atno 10718 bound_to 10713
  153.5190  135.7016  153.5741 H   0  0  0  0  0  0  0  0  0  0  0  0  # atno 10763 bound_to 10752
  153.3799  135.3923  155.1849 H   0  0  0  0  0  0  0  0  0  0  0  0  # atno 10764 bound_to 10752
  154.8696  135.3832  154.4677 H   0  0  0  0  0  0  0  0  0  0  0  0  # atno 10765 bound_to 10752
  140.5454  134.0334  155.7918 H   0  0  0  0  0  0  0  0  0  0  0  0  # atno 11005 bound_to 11000
  144.6845  139.9622  143.7480 LP  0  0  0  0  0  0  0  0  0  0  0  0  # atno 17320 bound_to 7965
  146.0335  139.3356  143.0740 LP  0  0  0  0  0  0  0  0  0  0  0  0  # atno 17321 bound_to 7965
  140.3067  144.3585  150.6045 LP  0  0  0  0  0  0  0  0  0  0  0  0  # atno 17342 bound_to 10162
  140.5831  143.2171  151.7392 LP  0  0  0  0  0  0  0  0  0  0  0  0  # atno 17343 bound_to 10162
  156.4929  130.8093  151.3102 LP  0  0  0  0  0  0  0  0  0  0  0  0  # atno 17370 bound_to 10713
  157.7458  130.9969  150.2799 LP  0  0  0  0  0  0  0  0  0  0  0  0  # atno 17371 bound_to 10713
  141.1203  133.9473  157.2743 LP  0  0  0  0  0  0  0  0  0  0  0  0  # atno 17394 bound_to 11000
  139.9482  135.0180  156.8916 LP  0  0  0  0  0  0  0  0  0  0  0  0  # atno 17395 bound_to 11000

$$$$
