AV-unprocessed.smi:2881|AV-procd|sdf|11058|dock7
  -GOLD-   2272015533D 1   1.00000     0.00000
 Structure written by MMmdl.
 40 42  0  0  0  0  0  0  0  0  1 V2000
  153.2932  142.5936  162.9585 C   0  0  0  0  0  0  0  0  0  0  0  0
  152.5179  143.1317  161.8040 C   0  0  0  0  0  0  0  0  0  0  0  0
  152.4632  142.7416  160.4959 C   0  0  0  0  0  0  0  0  0  0  0  0
  151.5332  143.6422  159.8962 C   0  0  0  0  0  0  0  0  0  0  0  0
  151.0577  143.6661  158.4666 C   0  0  0  0  0  0  0  0  0  0  0  0
  150.3036  142.3750  158.1422 C   0  0  0  0  0  0  0  0  0  0  0  0
  150.4861  141.3654  158.8216 O   0  0  0  0  0  0  0  0  0  0  0  0
  149.4763  142.4189  157.0858 N   0  0  0  0  0  0  0  0  0  0  0  0
  148.7532  141.2823  156.5182 C   0  0  1  0  0  0  0  0  0  0  0  0
  147.8251  141.7608  155.3811 C   0  0  2  0  0  0  0  0  0  0  0  0
  146.8205  140.6434  155.0461 C   0  0  0  0  0  0  0  0  0  0  0  0
  147.7050  139.6011  154.3356 C   0  0  0  0  0  0  0  0  0  0  0  0
  149.0990  140.2590  154.3609 C   0  0  1  0  0  0  0  0  0  0  0  0
  148.7433  141.7272  154.1653 C   0  0  0  0  0  0  0  0  0  0  0  0
  149.6562  140.2284  155.8057 C   0  0  1  0  0  0  0  0  0  0  0  0
  151.1820  140.4747  155.8781 C   0  0  0  0  0  0  0  0  0  0  0  0
  151.8548  139.7050  154.9042 O   0  0  0  0  0  0  0  0  0  0  0  0
  151.0578  144.5260  160.7630 N   0  0  0  0  0  0  0  0  0  0  0  0
  151.6628  144.2033  161.9208 N   0  0  0  0  0  0  0  0  0  0  0  0
  151.4862  144.7179  162.7719 H   0  0  0  0  0  0  0  0  0  0  0  0
  152.9955  141.5679  163.1764 H   0  0  0  0  0  0  0  0  0  0  0  0
  153.1314  143.1894  163.8573 H   0  0  0  0  0  0  0  0  0  0  0  0
  154.3614  142.5963  162.7406 H   0  0  0  0  0  0  0  0  0  0  0  0
  153.0003  141.9259  160.0347 H   0  0  0  0  0  0  0  0  0  0  0  0
  150.4093  144.5251  158.2886 H   0  0  0  0  0  0  0  0  0  0  0  0
  151.9022  143.7658  157.7840 H   0  0  0  0  0  0  0  0  0  0  0  0
  149.3872  143.2981  156.5971 H   0  0  0  0  0  0  0  0  0  0  0  0
  148.1596  140.8091  157.3029 H   0  0  0  0  0  0  0  0  0  0  0  0
  147.3476  142.7228  155.5721 H   0  0  0  0  0  0  0  0  0  0  0  0
  146.3315  140.2414  155.9339 H   0  0  0  0  0  0  0  0  0  0  0  0
  146.0436  141.0086  154.3733 H   0  0  0  0  0  0  0  0  0  0  0  0
  147.6921  138.6320  154.8354 H   0  0  0  0  0  0  0  0  0  0  0  0
  147.3670  139.4502  153.3096 H   0  0  0  0  0  0  0  0  0  0  0  0
  149.7767  139.8497  153.6113 H   0  0  0  0  0  0  0  0  0  0  0  0
  148.2242  141.9253  153.2260 H   0  0  0  0  0  0  0  0  0  0  0  0
  149.5987  142.3996  154.2462 H   0  0  0  0  0  0  0  0  0  0  0  0
  149.4669  139.2488  156.2480 H   0  0  0  0  0  0  0  0  0  0  0  0
  151.4282  141.5267  155.7326 H   0  0  0  0  0  0  0  0  0  0  0  0
  151.5720  140.1817  156.8531 H   0  0  0  0  0  0  0  0  0  0  0  0
  152.3168  139.0060  155.3413 H   0  0  0  0  0  0  0  0  0  0  0  0
  1  2  1  0  0  0  0
  1 21  1  0  0  0  0
  1 22  1  0  0  0  0
  1 23  1  0  0  0  0
  2 19  1  0  0  0  0
  2  3  2  0  0  0  0
  3  4  1  0  0  0  0
  3 24  1  0  0  0  0
  4  5  1  0  0  0  0
  4 18  2  0  0  0  0
  5  6  1  0  0  0  0
  5 25  1  0  0  0  0
  5 26  1  0  0  0  0
  6  7  2  0  0  0  0
  6  8  1  0  0  0  0
  8  9  1  0  0  0  0
  8 27  1  0  0  0  0
  9 15  1  0  0  0  0
  9 10  1  0  0  0  0
  9 28  1  0  0  0  0
 10 14  1  0  0  0  0
 10 11  1  0  0  0  0
 10 29  1  0  0  0  0
 11 12  1  0  0  0  0
 11 30  1  0  0  0  0
 11 31  1  0  0  0  0
 12 13  1  0  0  0  0
 12 32  1  0  0  0  0
 12 33  1  0  0  0  0
 13 14  1  0  0  0  0
 13 15  1  0  0  0  0
 13 34  1  0  0  0  0
 14 35  1  0  0  0  0
 14 36  1  0  0  0  0
 15 16  1  0  0  0  0
 15 37  1  0  0  0  0
 16 17  1  0  0  0  0
 16 38  1  0  0  0  0
 16 39  1  0  0  0  0
 17 40  1  0  0  0  0
 18 19  1  0  0  0  0
 19 20  1  0  0  0  0
M  END
> <s_m_source_file>
AV-unprocessed.smi

> <i_m_source_file_index>
2881

> <i_lp_mmshare_version>
43012

> <i_f3d_flags>
0

> <s_epik_input>
W0NIM11jMVtjSF1jKG5bbkhdMSlbQ0gyXUMoPU8pW05IXVtDQEhdKFtDQEBIXTIzKVtDQEhdKFtDSDJdW09IXSlbQ0BASF0oW0NIMl0zKVtDSDJdW0NIMl0y

> <s_epik_cmdline>
J2VwaWtfcHl0aG9uJywgJy1waCcsICc3LjAnLCAnLXRuJywgJzgnLCAnLW1hJywgJzIwMCcsICctbWV0YWxfYmluZGluZycsICctaW1hZScsICc8aW5maWxlLm1hZT4nLCAnLW9tYWUnLCAnPG91dGZpbGUubWFlPic=

> <r_lp_tautomer_probability>
0.5

> <r_epik_Ionization_Penalty>
9.4349e-05

> <r_epik_Ionization_Penalty_Charging>
0

> <r_epik_Ionization_Penalty_Neutral>
9.4349e-05

> <r_epik_State_Penalty>
0.41068

> <r_epik_Charging_Adjusted_Penalty>
0.41068

> <i_epik_Tot_Q>
0

> <i_epik_Tot_abs_Q>
0

> <r_epik_Metal_State_Penalty>
0.4107

> <b_epik_Metal_Only>
0

> <s_lp_Force_Field>
OPLS_2005

> <r_lp_Energy>
47.5678

> <b_lp_Chiralities_Consistent>
1

> <s_lp_Variant>
AV-unprocessed.smi:2881-4

> <Gold.Version>
5.8.1

> <Gold.Id.Protein>
6NUR|6NUR_protein|mol2

> <Gold.PLP.Fitness>
44.5939

> <Gold.PLP.PLP>
-39.7450

> <Gold.PLP.part.hbond>
-4.0731

> <Gold.PLP.part.metal>
0.0000

> <Gold.PLP.part.buried>
-5.1926

> <Gold.PLP.part.nonpolar>
-30.8883

> <Gold.PLP.part.repulsive>
0.2563

> <Gold.PLP.ligand.clash>
0.0000

> <Gold.PLP.ligand.torsion>
0.4765

> <Gold.PLP.Chemscore.Hbond>
1.9272

> <Gold.PLP.Chemscore.CHOScore>
0.0000

> <Gold.PLP.Chemscore.Metal>
0.0000

> <Gold.Chemscore.Hbonds>
donor molecule, donor type, donor heavy atom, donor atom, acceptor molecule, acceptor atom, score
      L1  H     8    27       P1  8028  1.00
      P1  H  7989  7998       L1    17  0.89

> <Gold.PLP.Chemscore.Internal.Correction>
0.0202

> <Gold.Rescore>
     Score         DG    S(hbond)    S(metal)    S(lipo)     H(rot)  DE(clash)    DE(int)     intcor
     14.84     -16.69       1.83        0.00      93.30       2.28       0.01       1.84       ----

> <Gold.Chemscore.Fitness>
14.8428

> <Gold.Chemscore.DG>
-16.6946

> <Gold.Chemscore.ZeroCoef>
-5.4800

> <Gold.Chemscore.Hbond>
1.8335

> <Gold.Chemscore.Metal>
0.0000

> <Gold.Chemscore.Lipo>
93.2975

> <Gold.Chemscore.Internal_Hbond>
0.0000

> <Gold.Chemscore.DEClash>
0.0106

> <Gold.Chemscore.DEInternal>
1.8412

> <Gold.Chemscore.Rot>
2.2755

> <Gold.Chemscore.Internal.Correction>
   9.000000E+99

> <Gold.Chemscore.Hbonds>
donor molecule, donor type, donor heavy atom, donor atom, acceptor molecule, acceptor atom, score
      L1  H     8    27       P1  8028  1.00
      P1  H  7989  7998       L1    17  0.17

> <Gold.Chemscore.Hbond.Weighted>
-6.1240

> <Gold.Chemscore.Metal.Weighted>
-0.0000

> <Gold.Chemscore.Lipo.Weighted>
-10.9158

> <Gold.Chemscore.Internal_Hbond.Weighted>
0.0000

> <Gold.Chemscore.DEClash.Weighted>
0.0106

> <Gold.Chemscore.DEInternal.Weighted>
1.8412

> <Gold.Chemscore.Rot.Weighted>
5.8252

> <Gold.Chemscore.Internal.Correction.Weighted>
   9.000000E+99

> <Gold.Protein.RotatedTorsions>
[ 6907 6896 6895 6894 ] final  -89.89 input  -60.11 | X-H torsion
[ 7974 7965 7964 7962 ] final  -76.99 input  175.53 | X-H torsion
[ 8008 7997 7996 7995 ] final   89.05 input   59.86 | X-H torsion
[ 10167 10162 10161 10158 ] final  -15.01 input  -65.29 | X-H torsion
[ 10718 10713 10712 10709 ] final  128.97 input   66.30 | X-H torsion
[ 10763 10752 10751 10750 ] final  173.16 input  -60.55 | X-H torsion
[ 11005 11000 10999 10996 ] final  -24.60 input  -57.11 | X-H torsion

> <Gold.Protein.ActiveResidues>
 VAL166  LYS551  ARG553  GLY616  TRP617  ASP618  TYR619  PRO620  LYS621  CYS622 
 ASP623  PHE694  ASN695  SER759  ASP760  ASP761  ALA762  ILE779  LEU786  VAL792 
 PHE793  MET794  SER795  GLU796  ALA797  LYS798  CYS799  TRP800  GLU811  SER814 

> <Gold.Protein.RotatedAtoms>
  150.6877  134.2517  159.4513 H   0  0  0  0  0  0  0  0  0  0  0  0  # atno 6907 bound_to 6896
  152.0454  134.9683  160.0583 H   0  0  0  0  0  0  0  0  0  0  0  0  # atno 6908 bound_to 6896
  152.1168  133.4296  159.4694 H   0  0  0  0  0  0  0  0  0  0  0  0  # atno 6909 bound_to 6896
  145.6056  140.9399  143.1217 H   0  0  0  0  0  0  0  0  0  0  0  0  # atno 7974 bound_to 7965
  155.9953  140.3365  155.6792 H   0  0  0  0  0  0  0  0  0  0  0  0  # atno 8008 bound_to 7997
  155.6365  140.0690  157.2650 H   0  0  0  0  0  0  0  0  0  0  0  0  # atno 8009 bound_to 7997
  154.4232  140.1750  156.1515 H   0  0  0  0  0  0  0  0  0  0  0  0  # atno 8010 bound_to 7997
  140.7211  143.5262  150.9574 H   0  0  0  0  0  0  0  0  0  0  0  0  # atno 10167 bound_to 10162
  157.5196  131.1098  150.9173 H   0  0  0  0  0  0  0  0  0  0  0  0  # atno 10718 bound_to 10713
  154.4362  135.2761  155.1879 H   0  0  0  0  0  0  0  0  0  0  0  0  # atno 10763 bound_to 10752
  154.3764  135.6097  153.5771 H   0  0  0  0  0  0  0  0  0  0  0  0  # atno 10764 bound_to 10752
  152.9838  135.5870  154.4681 H   0  0  0  0  0  0  0  0  0  0  0  0  # atno 10765 bound_to 10752
  140.8860  133.7621  156.0361 H   0  0  0  0  0  0  0  0  0  0  0  0  # atno 11005 bound_to 11000
  144.7291  139.7780  143.7354 LP  0  0  0  0  0  0  0  0  0  0  0  0  # atno 17320 bound_to 7965
  146.1543  139.4636  143.0028 LP  0  0  0  0  0  0  0  0  0  0  0  0  # atno 17321 bound_to 7965
  139.8981  143.6870  152.3135 LP  0  0  0  0  0  0  0  0  0  0  0  0  # atno 17342 bound_to 10162
  139.7209  144.7602  151.0956 LP  0  0  0  0  0  0  0  0  0  0  0  0  # atno 17343 bound_to 10162
  156.9788  130.5519  149.5295 LP  0  0  0  0  0  0  0  0  0  0  0  0  # atno 17370 bound_to 10713
  156.0344  130.5433  150.8617 LP  0  0  0  0  0  0  0  0  0  0  0  0  # atno 17371 bound_to 10713
  140.8404  134.3073  157.5315 LP  0  0  0  0  0  0  0  0  0  0  0  0  # atno 17394 bound_to 11000
  139.8724  134.9413  156.3793 LP  0  0  0  0  0  0  0  0  0  0  0  0  # atno 17395 bound_to 11000

$$$$
