AV-unprocessed.smi:1291|AV-procd|sdf|5394|dock6
  -GOLD-   22720 4553D 1   1.00000     0.00000
 Structure written by MMmdl.
 44 46  0  0  0  0  0  0  0  0  2 V2000
  151.0913  139.8371  155.0701 O   0  0  0  0  0  0  0  0  0  0  0  0
  150.1431  140.5858  155.8003 C   0  0  0  0  0  0  0  0  0  0  0  0
  150.7636  141.4341  156.8641 C   0  0  0  0  0  0  0  0  0  0  0  0
  150.6477  142.7878  156.9797 N   0  3  0  0  0  0  0  0  0  0  0  0
  151.3548  143.2311  158.0974 C   0  0  0  0  0  0  0  0  0  0  0  0
  151.5300  144.5104  158.6157 C   0  0  0  0  0  0  0  0  0  0  0  0
  152.3187  144.6185  159.7799 C   0  0  0  0  0  0  0  0  0  0  0  0
  152.8991  143.4831  160.3814 C   0  0  0  0  0  0  0  0  0  0  0  0
  152.7149  142.1913  159.8460 C   0  0  0  0  0  0  0  0  0  0  0  0
  151.9309  142.0920  158.6963 C   0  0  0  0  0  0  0  0  0  0  0  0
  151.5378  141.0068  157.9031 N   0  0  0  0  0  0  0  0  0  0  0  0
  151.9723  139.6479  158.2657 C   0  0  0  0  0  0  0  0  0  0  0  0
  150.7975  138.7271  158.6543 C   0  0  1  0  0  0  0  0  0  0  0  0
  150.2111  138.1133  157.5241 O   0  0  0  0  0  0  0  0  0  0  0  0
  151.1793  137.6427  159.6746 C   0  0  0  0  0  0  0  0  0  0  0  0
  150.1719  136.6443  159.7212 O   0  0  0  0  0  0  0  0  0  0  0  0
  148.9887  137.0814  160.3670 C   0  0  0  0  0  0  0  0  0  0  0  0
  148.1925  135.9076  160.9030 C   0  0  0  0  0  0  0  0  0  0  0  0
  147.9033  134.8120  160.0625 C   0  0  0  0  0  0  0  0  0  0  0  0
  147.1588  133.7207  160.5513 C   0  0  0  0  0  0  0  0  0  0  0  0
  146.7007  133.7205  161.8828 C   0  0  0  0  0  0  0  0  0  0  0  0
  146.9842  134.8137  162.7241 C   0  0  0  0  0  0  0  0  0  0  0  0
  147.7267  135.9070  162.2363 C   0  0  0  0  0  0  0  0  0  0  0  0
  147.9869  136.9555  163.0539 F   0  0  0  0  0  0  0  0  0  0  0  0
  150.7761  138.9494  154.9898 H   0  0  0  0  0  0  0  0  0  0  0  0
  149.5895  141.2258  155.1132 H   0  0  0  0  0  0  0  0  0  0  0  0
  149.4284  139.8966  156.2501 H   0  0  0  0  0  0  0  0  0  0  0  0
  151.0879  145.3817  158.1551 H   0  0  0  0  0  0  0  0  0  0  0  0
  152.4831  145.5918  160.2195 H   0  0  0  0  0  0  0  0  0  0  0  0
  153.4993  143.6048  161.2714 H   0  0  0  0  0  0  0  0  0  0  0  0
  153.1701  141.3303  160.3130 H   0  0  0  0  0  0  0  0  0  0  0  0
  152.5543  139.2304  157.4441 H   0  0  0  0  0  0  0  0  0  0  0  0
  152.6627  139.7397  159.1049 H   0  0  0  0  0  0  0  0  0  0  0  0
  150.0127  139.3388  159.1005 H   0  0  0  0  0  0  0  0  0  0  0  0
  150.8545  137.5502  157.1224 H   0  0  0  0  0  0  0  0  0  0  0  0
  152.1214  137.1822  159.3731 H   0  0  0  0  0  0  0  0  0  0  0  0
  151.3373  138.0812  160.6613 H   0  0  0  0  0  0  0  0  0  0  0  0
  149.2415  137.7514  161.1904 H   0  0  0  0  0  0  0  0  0  0  0  0
  148.3699  137.6532  159.6736 H   0  0  0  0  0  0  0  0  0  0  0  0
  148.2504  134.8062  159.0396 H   0  0  0  0  0  0  0  0  0  0  0  0
  146.9379  132.8841  159.9047 H   0  0  0  0  0  0  0  0  0  0  0  0
  146.1304  132.8839  162.2582 H   0  0  0  0  0  0  0  0  0  0  0  0
  146.6301  134.8153  163.7444 H   0  0  0  0  0  0  0  0  0  0  0  0
  150.1223  143.3627  156.3334 H   0  0  0  0  0  0  0  0  0  0  0  0
  1  2  1  0  0  0  0
  1 25  1  0  0  0  0
  2  3  1  0  0  0  0
  2 26  1  0  0  0  0
  2 27  1  0  0  0  0
  3 11  1  0  0  0  0
  3  4  2  0  0  0  0
  4  5  1  0  0  0  0
  4 44  1  0  0  0  0
  5 10  2  0  0  0  0
  5  6  1  0  0  0  0
  6  7  2  0  0  0  0
  6 28  1  0  0  0  0
  7  8  1  0  0  0  0
  7 29  1  0  0  0  0
  8  9  2  0  0  0  0
  8 30  1  0  0  0  0
  9 10  1  0  0  0  0
  9 31  1  0  0  0  0
 10 11  1  0  0  0  0
 11 12  1  0  0  0  0
 12 13  1  0  0  0  0
 12 32  1  0  0  0  0
 12 33  1  0  0  0  0
 13 14  1  0  0  0  0
 13 15  1  0  0  0  0
 13 34  1  0  0  0  0
 14 35  1  0  0  0  0
 15 16  1  0  0  0  0
 15 36  1  0  0  0  0
 15 37  1  0  0  0  0
 16 17  1  0  0  0  0
 17 18  1  0  0  0  0
 17 38  1  0  0  0  0
 17 39  1  0  0  0  0
 18 23  1  0  0  0  0
 18 19  2  0  0  0  0
 19 20  1  0  0  0  0
 19 40  1  0  0  0  0
 20 21  2  0  0  0  0
 20 41  1  0  0  0  0
 21 22  1  0  0  0  0
 21 42  1  0  0  0  0
 22 23  2  0  0  0  0
 22 43  1  0  0  0  0
 23 24  1  0  0  0  0
M  CHG  1   4   1
M  END
> <s_m_source_file>
AV-unprocessed.smi

> <i_m_source_file_index>
1291

> <i_lp_mmshare_version>
43012

> <i_f3d_flags>
0

> <s_epik_input>
W2NIXTFbY0hdW2NIXVtjSF1jKGMxMiluKGMobjIpW0NIMl1bT0hdKVtDSDJdW0NASF0oW09IXSlbQ0gyXU9bQ0gyXWMzW2NIXVtjSF1bY0hdW2NIXWMzRg==

> <s_epik_cmdline>
J2VwaWtfcHl0aG9uJywgJy1waCcsICc3LjAnLCAnLXRuJywgJzgnLCAnLW1hJywgJzIwMCcsICctbWV0YWxfYmluZGluZycsICctaW1hZScsICc8aW5maWxlLm1hZT4nLCAnLW9tYWUnLCAnPG91dGZpbGUubWFlPic=

> <r_epik_Ionization_Penalty>
1.34314

> <r_epik_Ionization_Penalty_Charging>
1.34228

> <r_epik_Ionization_Penalty_Neutral>
0.000856861

> <r_epik_State_Penalty>
1.41963

> <r_epik_Charging_Adjusted_Penalty>
2.76191

> <i_epik_Tot_Q>
1

> <i_epik_Tot_abs_Q>
1

> <r_epik_Metal_State_Penalty>
5.45585

> <b_epik_Metal_Only>
0

> <s_lp_Force_Field>
OPLS_2005

> <r_lp_Energy>
19.0817

> <b_lp_Chiralities_Consistent>
1

> <s_lp_Variant>
AV-unprocessed.smi:1291-4

> <Gold.Version>
5.8.1

> <Gold.Id.Protein>
6NUR|6NUR_protein|mol2

> <Gold.PLP.Fitness>
63.6992

> <Gold.PLP.PLP>
-53.0578

> <Gold.PLP.part.hbond>
-3.0000

> <Gold.PLP.part.metal>
0.0000

> <Gold.PLP.part.buried>
-3.8664

> <Gold.PLP.part.nonpolar>
-46.7012

> <Gold.PLP.part.repulsive>
0.0449

> <Gold.PLP.ligand.clash>
0.0000

> <Gold.PLP.ligand.torsion>
0.7728

> <Gold.PLP.Chemscore.Hbond>
4.0000

> <Gold.PLP.Chemscore.CHOScore>
0.0000

> <Gold.PLP.Chemscore.Metal>
0.0000

> <Gold.Chemscore.Hbonds>
donor molecule, donor type, donor heavy atom, donor atom, acceptor molecule, acceptor atom, score
      L1  H     4    44       P1  8028  2.00
      P1  H  6896  6907       L1    16  1.00
      P1  H  7989  7998       L1     1  1.00

> <Gold.PLP.Chemscore.Internal.Correction>
0.1871

> <Gold.Rescore>
     Score         DG    S(hbond)    S(metal)    S(lipo)     H(rot)  DE(clash)    DE(int)     intcor
     18.63     -20.87       2.78        0.00     127.32       3.44       0.35       1.89       ----

> <Gold.Chemscore.Fitness>
18.6349

> <Gold.Chemscore.DG>
-20.8735

> <Gold.Chemscore.ZeroCoef>
-5.4800

> <Gold.Chemscore.Hbond>
2.7818

> <Gold.Chemscore.Metal>
0.0000

> <Gold.Chemscore.Lipo>
127.3228

> <Gold.Chemscore.Internal_Hbond>
0.0000

> <Gold.Chemscore.DEClash>
0.3510

> <Gold.Chemscore.DEInternal>
1.8877

> <Gold.Chemscore.Rot>
3.4353

> <Gold.Chemscore.Internal.Correction>
   9.000000E+99

> <Gold.Chemscore.Hbonds>
donor molecule, donor type, donor heavy atom, donor atom, acceptor molecule, acceptor atom, score
      L1  H     4    44       P1  8028  0.98
      P1  H  6896  6907       L1    16  0.70
      P1  H  7989  7998       L1     1  0.68

> <Gold.Chemscore.Hbond.Weighted>
-9.2912

> <Gold.Chemscore.Metal.Weighted>
-0.0000

> <Gold.Chemscore.Lipo.Weighted>
-14.8968

> <Gold.Chemscore.Internal_Hbond.Weighted>
0.0000

> <Gold.Chemscore.DEClash.Weighted>
0.3510

> <Gold.Chemscore.DEInternal.Weighted>
1.8877

> <Gold.Chemscore.Rot.Weighted>
8.7944

> <Gold.Chemscore.Internal.Correction.Weighted>
   9.000000E+99

> <Gold.Protein.RotatedTorsions>
[ 6907 6896 6895 6894 ] final  -38.61 input  -60.11 | X-H torsion
[ 7974 7965 7964 7962 ] final  152.22 input  175.53 | X-H torsion
[ 8008 7997 7996 7995 ] final  -33.69 input   59.86 | X-H torsion
[ 10167 10162 10161 10158 ] final  161.11 input  -65.29 | X-H torsion
[ 10718 10713 10712 10709 ] final  -98.42 input   66.30 | X-H torsion
[ 10763 10752 10751 10750 ] final -170.46 input  -60.55 | X-H torsion
[ 11005 11000 10999 10996 ] final   97.91 input  -57.11 | X-H torsion

> <Gold.Protein.ActiveResidues>
 VAL166  LYS551  ARG553  GLY616  TRP617  ASP618  TYR619  PRO620  LYS621  CYS622 
 ASP623  PHE694  ASN695  SER759  ASP760  ASP761  ALA762  ILE779  LEU786  VAL792 
 PHE793  MET794  SER795  GLU796  ALA797  LYS798  CYS799  TRP800  GLU811  SER814 

> <Gold.Protein.RotatedAtoms>
  151.0004  134.9317  159.7950 H   0  0  0  0  0  0  0  0  0  0  0  0  # atno 6907 bound_to 6896
  152.5276  134.3162  159.9141 H   0  0  0  0  0  0  0  0  0  0  0  0  # atno 6908 bound_to 6896
  151.3168  133.4015  159.2685 H   0  0  0  0  0  0  0  0  0  0  0  0  # atno 6909 bound_to 6896
  144.8237  139.6641  143.6089 H   0  0  0  0  0  0  0  0  0  0  0  0  # atno 7974 bound_to 7965
  154.4141  140.1704  156.1929 H   0  0  0  0  0  0  0  0  0  0  0  0  # atno 8008 bound_to 7997
  155.9588  140.3395  155.6449 H   0  0  0  0  0  0  0  0  0  0  0  0  # atno 8009 bound_to 7997
  155.6775  140.0719  157.2488 H   0  0  0  0  0  0  0  0  0  0  0  0  # atno 8010 bound_to 7997
  139.4846  144.4568  151.8757 H   0  0  0  0  0  0  0  0  0  0  0  0  # atno 10167 bound_to 10162
  156.0107  130.5237  150.6521 H   0  0  0  0  0  0  0  0  0  0  0  0  # atno 10718 bound_to 10713
  154.6412  135.2899  155.0101 H   0  0  0  0  0  0  0  0  0  0  0  0  # atno 10763 bound_to 10752
  154.1226  135.6545  153.4910 H   0  0  0  0  0  0  0  0  0  0  0  0  # atno 10764 bound_to 10752
  153.0328  135.5291  154.7280 H   0  0  0  0  0  0  0  0  0  0  0  0  # atno 10765 bound_to 10752
  139.8774  134.9023  156.4377 H   0  0  0  0  0  0  0  0  0  0  0  0  # atno 11005 bound_to 11000
  146.2543  139.6267  142.9406 LP  0  0  0  0  0  0  0  0  0  0  0  0  # atno 17320 bound_to 7965
  145.5048  141.0437  143.2521 LP  0  0  0  0  0  0  0  0  0  0  0  0  # atno 17321 bound_to 7965
  140.4028  144.2471  150.5892 LP  0  0  0  0  0  0  0  0  0  0  0  0  # atno 17342 bound_to 10162
  140.5041  143.2309  151.8635 LP  0  0  0  0  0  0  0  0  0  0  0  0  # atno 17343 bound_to 10162
  157.4280  131.0845  151.1066 LP  0  0  0  0  0  0  0  0  0  0  0  0  # atno 17370 bound_to 10713
  157.1648  130.6241  149.5622 LP  0  0  0  0  0  0  0  0  0  0  0  0  # atno 17371 bound_to 10713
  140.9022  133.7771  155.9693 LP  0  0  0  0  0  0  0  0  0  0  0  0  # atno 17394 bound_to 11000
  140.8639  134.2808  157.5222 LP  0  0  0  0  0  0  0  0  0  0  0  0  # atno 17395 bound_to 11000

$$$$
