AV-unprocessed.smi:534|AV-procd|sdf|2857|dock2
  -GOLD-   2262023343D 1   1.00000     0.00000
 Structure written by MMmdl.
 39 40  0  0  0  0  0  0  0  0  2 V2000
  145.4932  143.2003  161.8899 C   0  0  0  0  0  0  0  0  0  0  0  0
  146.5841  142.9357  161.0262 O   0  0  0  0  0  0  0  0  0  0  0  0
  146.3351  143.3516  159.6932 C   0  0  0  0  0  0  0  0  0  0  0  0
  145.6122  142.2251  158.9452 C   0  0  0  0  0  0  0  0  0  0  0  0
  146.1914  142.0035  157.6345 N   0  0  0  0  0  0  0  0  0  0  0  0
  147.4408  141.5421  157.2387 C   0  0  0  0  0  0  0  0  0  0  0  0
  148.4257  141.2145  158.0764 N   0  0  0  0  0  0  0  0  0  0  0  0
  149.4515  140.8565  157.2120 C   0  0  0  0  0  0  0  0  0  0  0  0
  149.0681  140.9811  155.9123 C   0  0  0  0  0  0  0  0  0  0  0  0
  149.9510  140.6997  154.7603 C   0  0  0  0  0  0  0  0  0  0  0  0
  149.5541  140.8481  153.6060 O   0  0  0  0  0  0  0  0  0  0  0  0
  151.1963  140.2839  155.1546 N   0  5  0  0  0  0  0  0  0  0  0  0
  151.6276  140.1392  156.4562 C   0  0  0  0  0  0  0  0  0  0  0  0
  152.7698  139.7639  156.7243 O   0  0  0  0  0  0  0  0  0  0  0  0
  150.7744  140.4180  157.4922 N   0  0  0  0  0  0  0  0  0  0  0  0
  151.2066  140.2768  158.8856 C   0  0  0  0  0  0  0  0  0  0  0  0
  147.7428  141.4223  155.9225 N   0  0  0  0  0  0  0  0  0  0  0  0
  146.8793  141.7188  154.7829 C   0  0  0  0  0  0  0  0  0  0  0  0
  146.3847  140.4395  154.0924 C   0  0  0  0  0  0  0  0  0  0  0  0
  146.8138  140.4320  152.7397 O   0  0  0  0  0  0  0  0  0  0  0  0
  146.8174  139.1337  152.1751 C   0  0  0  0  0  0  0  0  0  0  0  0
  145.7420  142.8809  162.9017 H   0  0  0  0  0  0  0  0  0  0  0  0
  144.6023  142.6554  161.5751 H   0  0  0  0  0  0  0  0  0  0  0  0
  145.2611  144.2655  161.9194 H   0  0  0  0  0  0  0  0  0  0  0  0
  145.7414  144.2675  159.6735 H   0  0  0  0  0  0  0  0  0  0  0  0
  147.2841  143.5683  159.2007 H   0  0  0  0  0  0  0  0  0  0  0  0
  145.6850  141.2972  159.5132 H   0  0  0  0  0  0  0  0  0  0  0  0
  144.5514  142.4529  158.8401 H   0  0  0  0  0  0  0  0  0  0  0  0
  145.6279  142.3693  156.8805 H   0  0  0  0  0  0  0  0  0  0  0  0
  151.5697  139.2659  159.0753 H   0  0  0  0  0  0  0  0  0  0  0  0
  150.4029  140.4684  159.5961 H   0  0  0  0  0  0  0  0  0  0  0  0
  152.0134  140.9768  159.1058 H   0  0  0  0  0  0  0  0  0  0  0  0
  146.0390  142.3261  155.1164 H   0  0  0  0  0  0  0  0  0  0  0  0
  147.4207  142.3417  154.0707 H   0  0  0  0  0  0  0  0  0  0  0  0
  146.7711  139.5616  154.6126 H   0  0  0  0  0  0  0  0  0  0  0  0
  145.2959  140.3918  154.1369 H   0  0  0  0  0  0  0  0  0  0  0  0
  147.1477  139.1872  151.1379 H   0  0  0  0  0  0  0  0  0  0  0  0
  145.8193  138.6943  152.1894 H   0  0  0  0  0  0  0  0  0  0  0  0
  147.4998  138.4731  152.7116 H   0  0  0  0  0  0  0  0  0  0  0  0
  1  2  1  0  0  0  0
  1 22  1  0  0  0  0
  1 23  1  0  0  0  0
  1 24  1  0  0  0  0
  2  3  1  0  0  0  0
  3  4  1  0  0  0  0
  3 25  1  0  0  0  0
  3 26  1  0  0  0  0
  4  5  1  0  0  0  0
  4 27  1  0  0  0  0
  4 28  1  0  0  0  0
  5  6  1  0  0  0  0
  5 29  1  0  0  0  0
  6 17  1  0  0  0  0
  6  7  2  0  0  0  0
  7  8  1  0  0  0  0
  8 15  1  0  0  0  0
  8  9  2  0  0  0  0
  9 10  1  0  0  0  0
  9 17  1  0  0  0  0
 10 11  2  0  0  0  0
 10 12  1  0  0  0  0
 12 13  1  0  0  0  0
 13 14  2  0  0  0  0
 13 15  1  0  0  0  0
 15 16  1  0  0  0  0
 16 30  1  0  0  0  0
 16 31  1  0  0  0  0
 16 32  1  0  0  0  0
 17 18  1  0  0  0  0
 18 19  1  0  0  0  0
 18 33  1  0  0  0  0
 18 34  1  0  0  0  0
 19 20  1  0  0  0  0
 19 35  1  0  0  0  0
 19 36  1  0  0  0  0
 20 21  1  0  0  0  0
 21 37  1  0  0  0  0
 21 38  1  0  0  0  0
 21 39  1  0  0  0  0
M  CHG  1  12  -1
M  END
> <s_m_source_file>
AV-unprocessed.smi

> <i_m_source_file_index>
534

> <i_lp_mmshare_version>
43012

> <i_f3d_flags>
0

> <s_epik_input>
W0NIM11PW0NIMl1bQ0gyXVtOSF1jKG4xKW4oW0NIMl1bQ0gyXU9bQ0gzXSljKGMxMiljKD1PKVtuSF1jKD1PKW4yW0NIM10=

> <s_epik_cmdline>
J2VwaWtfcHl0aG9uJywgJy1waCcsICc3LjAnLCAnLXRuJywgJzgnLCAnLW1hJywgJzIwMCcsICctbWV0YWxfYmluZGluZycsICctaW1hZScsICc8aW5maWxlLm1hZT4nLCAnLW9tYWUnLCAnPG91dGZpbGUubWFlPic=

> <r_lp_tautomer_probability>
1

> <r_epik_Ionization_Penalty>
5.88862

> <r_epik_Ionization_Penalty_Charging>
1.42184e-08

> <r_epik_Ionization_Penalty_Neutral>
5.88862

> <r_epik_State_Penalty>
5.88846

> <r_epik_Charging_Adjusted_Penalty>
5.88846

> <i_epik_Tot_Q>
-1

> <i_epik_Tot_abs_Q>
1

> <r_epik_Metal_State_Penalty>
1.85033

> <b_epik_Metal_Only>
1

> <s_lp_Force_Field>
OPLS_2005

> <r_lp_Energy>
24.5539

> <b_lp_Chiralities_Consistent>
1

> <s_lp_Variant>
AV-unprocessed.smi:534-2

> <Gold.Version>
5.8.1

> <Gold.Id.Protein>
6NUR|6NUR_protein|mol2

> <Gold.PLP.Fitness>
35.7373

> <Gold.PLP.PLP>
-26.7047

> <Gold.PLP.part.hbond>
-6.1594

> <Gold.PLP.part.metal>
0.0000

> <Gold.PLP.part.buried>
-2.7656

> <Gold.PLP.part.nonpolar>
-22.4139

> <Gold.PLP.part.repulsive>
4.1371

> <Gold.PLP.ligand.clash>
0.0000

> <Gold.PLP.ligand.torsion>
1.1375

> <Gold.PLP.Chemscore.Hbond>
3.7488

> <Gold.PLP.Chemscore.CHOScore>
0.0000

> <Gold.PLP.Chemscore.Metal>
0.0000

> <Gold.Chemscore.Hbonds>
donor molecule, donor type, donor heavy atom, donor atom, acceptor molecule, acceptor atom, score
      P1  H  6933  6944       L1     2  0.90
      P1  H  6934  6946       L1     2  0.68
      P1  H  7989  7998       L1    12  0.10
      P1  H  7997  8010       L1    14  1.00
      P1  H  8011  8017       L1    11  0.99

> <Gold.PLP.Chemscore.Internal.Correction>
0.0613

> <Gold.Rescore>
     Score         DG    S(hbond)    S(metal)    S(lipo)     H(rot)  DE(clash)    DE(int)     intcor
     10.14     -14.63       3.10        0.00      42.15       2.40       3.18       1.30       ----

> <Gold.Chemscore.Fitness>
10.1404

> <Gold.Chemscore.DG>
-14.6279

> <Gold.Chemscore.ZeroCoef>
-5.4800

> <Gold.Chemscore.Hbond>
3.1031

> <Gold.Chemscore.Metal>
0.0000

> <Gold.Chemscore.Lipo>
42.1513

> <Gold.Chemscore.Internal_Hbond>
0.0000

> <Gold.Chemscore.DEClash>
3.1840

> <Gold.Chemscore.DEInternal>
1.3035

> <Gold.Chemscore.Rot>
2.4016

> <Gold.Chemscore.Internal.Correction>
   9.000000E+99

> <Gold.Chemscore.Hbonds>
donor molecule, donor type, donor heavy atom, donor atom, acceptor molecule, acceptor atom, score
      P1  H  6933  6944       L1     2  0.78
      P1  H  6934  6946       L1     2  0.17
      P1  H  7997  8010       L1    14  0.99
      P1  H  8011  8017       L1    11  0.91

> <Gold.Chemscore.Hbond.Weighted>
-10.3643

> <Gold.Chemscore.Metal.Weighted>
-0.0000

> <Gold.Chemscore.Lipo.Weighted>
-4.9317

> <Gold.Chemscore.Internal_Hbond.Weighted>
0.0000

> <Gold.Chemscore.DEClash.Weighted>
3.1840

> <Gold.Chemscore.DEInternal.Weighted>
1.3035

> <Gold.Chemscore.Rot.Weighted>
6.1481

> <Gold.Chemscore.Internal.Correction.Weighted>
   9.000000E+99

> <Gold.Protein.RotatedTorsions>
[ 6907 6896 6895 6894 ] final   96.21 input  -60.11 | X-H torsion
[ 7974 7965 7964 7962 ] final  -81.00 input  175.53 | X-H torsion
[ 8008 7997 7996 7995 ] final   60.43 input   59.86 | X-H torsion
[ 10167 10162 10161 10158 ] final  -13.34 input  -65.29 | X-H torsion
[ 10718 10713 10712 10709 ] final  139.52 input   66.30 | X-H torsion
[ 10763 10752 10751 10750 ] final  -65.11 input  -60.55 | X-H torsion
[ 11005 11000 10999 10996 ] final   87.27 input  -57.11 | X-H torsion

> <Gold.Protein.ActiveResidues>
 VAL166  LYS551  ARG553  GLY616  TRP617  ASP618  TYR619  PRO620  LYS621  CYS622 
 ASP623  PHE694  ASN695  SER759  ASP760  ASP761  ALA762  ILE779  LEU786  VAL792 
 PHE793  MET794  SER795  GLU796  ALA797  LYS798  CYS799  TRP800  GLU811  SER814 

> <Gold.Protein.RotatedAtoms>
  152.5437  134.0921  159.8281 H   0  0  0  0  0  0  0  0  0  0  0  0  # atno 6907 bound_to 6896
  151.1009  133.5237  159.2617 H   0  0  0  0  0  0  0  0  0  0  0  0  # atno 6908 bound_to 6896
  151.1992  135.0444  159.8919 H   0  0  0  0  0  0  0  0  0  0  0  0  # atno 6909 bound_to 6896
  145.5524  140.9494  143.1492 H   0  0  0  0  0  0  0  0  0  0  0  0  # atno 7974 bound_to 7965
  155.5823  140.3491  155.4543 H   0  0  0  0  0  0  0  0  0  0  0  0  # atno 8008 bound_to 7997
  156.0364  140.1286  157.0228 H   0  0  0  0  0  0  0  0  0  0  0  0  # atno 8009 bound_to 7997
  154.4373  140.1033  156.6159 H   0  0  0  0  0  0  0  0  0  0  0  0  # atno 8010 bound_to 7997
  140.7180  143.5436  150.9381 H   0  0  0  0  0  0  0  0  0  0  0  0  # atno 10167 bound_to 10162
  157.4135  131.1030  151.0429 H   0  0  0  0  0  0  0  0  0  0  0  0  # atno 10718 bound_to 10713
  154.3402  135.6158  153.5593 H   0  0  0  0  0  0  0  0  0  0  0  0  # atno 10763 bound_to 10752
  152.9805  135.5768  154.4861 H   0  0  0  0  0  0  0  0  0  0  0  0  # atno 10764 bound_to 10752
  154.4564  135.2854  155.1721 H   0  0  0  0  0  0  0  0  0  0  0  0  # atno 10765 bound_to 10752
  139.8923  134.8411  156.2837 H   0  0  0  0  0  0  0  0  0  0  0  0  # atno 11005 bound_to 11000
  144.7523  139.7163  143.7268 LP  0  0  0  0  0  0  0  0  0  0  0  0  # atno 17320 bound_to 7965
  146.1907  139.5146  142.9807 LP  0  0  0  0  0  0  0  0  0  0  0  0  # atno 17321 bound_to 7965
  139.9159  143.6664  152.3106 LP  0  0  0  0  0  0  0  0  0  0  0  0  # atno 17342 bound_to 10162
  139.7063  144.7627  151.1187 LP  0  0  0  0  0  0  0  0  0  0  0  0  # atno 17343 bound_to 10162
  157.1385  130.6133  149.5549 LP  0  0  0  0  0  0  0  0  0  0  0  0  # atno 17370 bound_to 10713
  155.9858  130.4889  150.7048 LP  0  0  0  0  0  0  0  0  0  0  0  0  # atno 17371 bound_to 10713
  141.0022  133.7145  156.0978 LP  0  0  0  0  0  0  0  0  0  0  0  0  # atno 17394 bound_to 11000
  140.7482  134.4074  157.5545 LP  0  0  0  0  0  0  0  0  0  0  0  0  # atno 17395 bound_to 11000

$$$$
