AV-unprocessed.smi:2468|AV-procd|sdf|9731|dock3
  -GOLD-   2272013373D 1   1.00000     0.00000
 Structure written by MMmdl.
 32 33  0  0  0  0  0  0  0  0  1 V2000
  151.4807  145.3341  159.5867 C   0  0  0  0  0  0  0  0  0  0  0  0
  152.0192  143.9556  159.9218 C   0  0  0  0  0  0  0  0  0  0  0  0
  152.5880  143.8310  161.1408 N   0  0  0  0  0  0  0  0  0  0  0  0
  153.0743  142.6235  161.4935 C   0  0  0  0  0  0  0  0  0  0  0  0
  153.0244  141.4931  160.6557 C   0  0  0  0  0  0  0  0  0  0  0  0
  152.4443  141.6235  159.3709 C   0  0  0  0  0  0  0  0  0  0  0  0
  152.3260  140.5467  158.4483 N   0  0  0  0  0  0  0  0  0  0  0  0
  152.6980  139.2614  158.5908 C   0  0  0  0  0  0  0  0  0  0  0  0
  153.2048  138.7872  159.6076 O   0  0  0  0  0  0  0  0  0  0  0  0
  152.4525  138.3630  157.3666 C   0  0  2  0  0  0  0  0  0  0  0  0
  153.1867  138.9166  156.2728 O   0  0  0  0  0  0  0  0  0  0  0  0
  152.3127  139.2853  155.2090 C   0  0  0  0  0  0  0  0  0  0  0  0
  150.9310  139.4012  155.8413 C   0  0  0  0  0  0  0  0  0  0  0  0
  150.9900  138.2936  156.8734 C   0  0  2  0  0  0  0  0  0  0  0  0
  149.8798  138.3516  157.9387 C   0  0  0  0  0  0  0  0  0  0  0  0
  151.9176  142.8843  159.0033 C   0  0  0  0  0  0  0  0  0  0  0  0
  151.1684  143.1146  157.4584 Cl  0  0  0  0  0  0  0  0  0  0  0  0
  151.9324  145.7066  158.6671 H   0  0  0  0  0  0  0  0  0  0  0  0
  151.6936  146.0521  160.3799 H   0  0  0  0  0  0  0  0  0  0  0  0
  150.3998  145.2945  159.4492 H   0  0  0  0  0  0  0  0  0  0  0  0
  153.5114  142.5535  162.4785 H   0  0  0  0  0  0  0  0  0  0  0  0
  153.4174  140.5568  161.0196 H   0  0  0  0  0  0  0  0  0  0  0  0
  151.9853  140.8035  157.5329 H   0  0  0  0  0  0  0  0  0  0  0  0
  152.8220  137.3567  157.5716 H   0  0  0  0  0  0  0  0  0  0  0  0
  152.6343  140.2102  154.7298 H   0  0  0  0  0  0  0  0  0  0  0  0
  152.3218  138.4934  154.4589 H   0  0  0  0  0  0  0  0  0  0  0  0
  150.8115  140.3740  156.3197 H   0  0  0  0  0  0  0  0  0  0  0  0
  150.1235  139.2726  155.1200 H   0  0  0  0  0  0  0  0  0  0  0  0
  150.8769  137.3454  156.3447 H   0  0  0  0  0  0  0  0  0  0  0  0
  149.8597  139.3085  158.4603 H   0  0  0  0  0  0  0  0  0  0  0  0
  150.0110  137.5653  158.6826 H   0  0  0  0  0  0  0  0  0  0  0  0
  148.9003  138.2126  157.4809 H   0  0  0  0  0  0  0  0  0  0  0  0
  1  2  1  0  0  0  0
  1 18  1  0  0  0  0
  1 19  1  0  0  0  0
  1 20  1  0  0  0  0
  2 16  1  0  0  0  0
  2  3  2  0  0  0  0
  3  4  1  0  0  0  0
  4  5  2  0  0  0  0
  4 21  1  0  0  0  0
  5  6  1  0  0  0  0
  5 22  1  0  0  0  0
  6  7  1  0  0  0  0
  6 16  2  0  0  0  0
  7  8  1  0  0  0  0
  7 23  1  0  0  0  0
  8  9  2  0  0  0  0
  8 10  1  0  0  0  0
 10 14  1  0  0  0  0
 10 11  1  0  0  0  0
 10 24  1  0  0  0  0
 11 12  1  0  0  0  0
 12 13  1  0  0  0  0
 12 25  1  0  0  0  0
 12 26  1  0  0  0  0
 13 14  1  0  0  0  0
 13 27  1  0  0  0  0
 13 28  1  0  0  0  0
 14 15  1  0  0  0  0
 14 29  1  0  0  0  0
 15 30  1  0  0  0  0
 15 31  1  0  0  0  0
 15 32  1  0  0  0  0
 16 17  1  0  0  0  0
M  END
> <s_m_source_file>
AV-unprocessed.smi

> <i_m_source_file_index>
2468

> <i_lp_mmshare_version>
43012

> <i_f3d_flags>
0

> <s_epik_input>
W0NIM11jMW5bY0hdW2NIXWMoYzFDbClbTkhdQyg9TylbQ0BASF0yT1tDSDJdW0NIMl1bQ0BIXTJbQ0gzXQ==

> <s_epik_cmdline>
J2VwaWtfcHl0aG9uJywgJy1waCcsICc3LjAnLCAnLXRuJywgJzgnLCAnLW1hJywgJzIwMCcsICctbWV0YWxfYmluZGluZycsICctaW1hZScsICc8aW5maWxlLm1hZT4nLCAnLW9tYWUnLCAnPG91dGZpbGUubWFlPic=

> <r_epik_Ionization_Penalty>
0.000361027

> <r_epik_Ionization_Penalty_Charging>
0

> <r_epik_Ionization_Penalty_Neutral>
0.000361027

> <r_epik_State_Penalty>
0.000217849

> <r_epik_Charging_Adjusted_Penalty>
0.000217849

> <i_epik_Tot_Q>
0

> <i_epik_Tot_abs_Q>
0

> <r_epik_Metal_State_Penalty>
-0

> <b_epik_Metal_Only>
0

> <s_lp_Force_Field>
OPLS_2005

> <r_lp_Energy>
25.639

> <b_lp_Chiralities_Consistent>
1

> <s_lp_Variant>
AV-unprocessed.smi:2468-3

> <Gold.Version>
5.8.1

> <Gold.Id.Protein>
6NUR|6NUR_protein|mol2

> <Gold.PLP.Fitness>
36.8404

> <Gold.PLP.PLP>
-33.8451

> <Gold.PLP.part.hbond>
-0.9354

> <Gold.PLP.part.metal>
0.0000

> <Gold.PLP.part.buried>
-4.0752

> <Gold.PLP.part.nonpolar>
-29.5952

> <Gold.PLP.part.repulsive>
0.2060

> <Gold.PLP.ligand.clash>
0.0000

> <Gold.PLP.ligand.torsion>
0.0078

> <Gold.PLP.Chemscore.Hbond>
1.0000

> <Gold.PLP.Chemscore.CHOScore>
0.0000

> <Gold.PLP.Chemscore.Metal>
0.0000

> <Gold.Chemscore.Hbonds>
donor molecule, donor type, donor heavy atom, donor atom, acceptor molecule, acceptor atom, score
      P1  H  7997  8008       L1    11  1.00

> <Gold.PLP.Chemscore.Internal.Correction>
0.0109

> <Gold.Rescore>
     Score         DG    S(hbond)    S(metal)    S(lipo)     H(rot)  DE(clash)    DE(int)     intcor
     16.36     -17.68       0.92        0.00      99.99       1.00       0.03       1.28       ----

> <Gold.Chemscore.Fitness>
16.3617

> <Gold.Chemscore.DG>
-17.6756

> <Gold.Chemscore.ZeroCoef>
-5.4800

> <Gold.Chemscore.Hbond>
0.9153

> <Gold.Chemscore.Metal>
0.0000

> <Gold.Chemscore.Lipo>
99.9877

> <Gold.Chemscore.Internal_Hbond>
0.0000

> <Gold.Chemscore.DEClash>
0.0310

> <Gold.Chemscore.DEInternal>
1.2830

> <Gold.Chemscore.Rot>
1.0000

> <Gold.Chemscore.Internal.Correction>
   9.000000E+99

> <Gold.Chemscore.Hbonds>
donor molecule, donor type, donor heavy atom, donor atom, acceptor molecule, acceptor atom, score
      P1  H  7997  8008       L1    11  0.81

> <Gold.Chemscore.Hbond.Weighted>
-3.0571

> <Gold.Chemscore.Metal.Weighted>
-0.0000

> <Gold.Chemscore.Lipo.Weighted>
-11.6986

> <Gold.Chemscore.Internal_Hbond.Weighted>
0.0000

> <Gold.Chemscore.DEClash.Weighted>
0.0310

> <Gold.Chemscore.DEInternal.Weighted>
1.2830

> <Gold.Chemscore.Rot.Weighted>
2.5600

> <Gold.Chemscore.Internal.Correction.Weighted>
   9.000000E+99

> <Gold.Protein.RotatedTorsions>
[ 6907 6896 6895 6894 ] final   72.16 input  -60.11 | X-H torsion
[ 7974 7965 7964 7962 ] final  132.40 input  175.53 | X-H torsion
[ 8008 7997 7996 7995 ] final  -57.17 input   59.86 | X-H torsion
[ 10167 10162 10161 10158 ] final  159.39 input  -65.29 | X-H torsion
[ 10718 10713 10712 10709 ] final -118.71 input   66.30 | X-H torsion
[ 10763 10752 10751 10750 ] final  -40.39 input  -60.55 | X-H torsion
[ 11005 11000 10999 10996 ] final  -30.89 input  -57.11 | X-H torsion

> <Gold.Protein.ActiveResidues>
 VAL166  LYS551  ARG553  GLY616  TRP617  ASP618  TYR619  PRO620  LYS621  CYS622 
 ASP623  PHE694  ASN695  SER759  ASP760  ASP761  ALA762  ILE779  LEU786  VAL792 
 PHE793  MET794  SER795  GLU796  ALA797  LYS798  CYS799  TRP800  GLU811  SER814 

> <Gold.Protein.RotatedAtoms>
  152.4852  134.4613  159.9605 H   0  0  0  0  0  0  0  0  0  0  0  0  # atno 6907 bound_to 6896
  151.4611  133.3586  159.2817 H   0  0  0  0  0  0  0  0  0  0  0  0  # atno 6908 bound_to 6896
  150.8956  134.8389  159.7385 H   0  0  0  0  0  0  0  0  0  0  0  0  # atno 6909 bound_to 6896
  144.9972  139.4347  143.5310 H   0  0  0  0  0  0  0  0  0  0  0  0  # atno 7974 bound_to 7965
  154.4258  140.1113  156.5755 H   0  0  0  0  0  0  0  0  0  0  0  0  # atno 8008 bound_to 7997
  155.6167  140.3494  155.4620 H   0  0  0  0  0  0  0  0  0  0  0  0  # atno 8009 bound_to 7997
  156.0057  140.1208  157.0493 H   0  0  0  0  0  0  0  0  0  0  0  0  # atno 8010 bound_to 7997
  139.4832  144.4734  151.8544 H   0  0  0  0  0  0  0  0  0  0  0  0  # atno 10167 bound_to 10162
  156.1126  130.6261  150.9325 H   0  0  0  0  0  0  0  0  0  0  0  0  # atno 10718 bound_to 10713
  153.9451  135.6757  153.4744 H   0  0  0  0  0  0  0  0  0  0  0  0  # atno 10763 bound_to 10752
  153.0912  135.4874  154.8690 H   0  0  0  0  0  0  0  0  0  0  0  0  # atno 10764 bound_to 10752
  154.7356  135.3148  154.8776 H   0  0  0  0  0  0  0  0  0  0  0  0  # atno 10765 bound_to 10752
  140.9422  133.7272  156.1093 H   0  0  0  0  0  0  0  0  0  0  0  0  # atno 11005 bound_to 11000
  146.3444  139.9340  142.8750 LP  0  0  0  0  0  0  0  0  0  0  0  0  # atno 17320 bound_to 7965
  145.2203  140.9932  143.4049 LP  0  0  0  0  0  0  0  0  0  0  0  0  # atno 17321 bound_to 7965
  140.4205  144.2249  150.5887 LP  0  0  0  0  0  0  0  0  0  0  0  0  # atno 17342 bound_to 10162
  140.4878  143.2357  151.8862 LP  0  0  0  0  0  0  0  0  0  0  0  0  # atno 17343 bound_to 10162
  157.6308  131.0921  150.8444 LP  0  0  0  0  0  0  0  0  0  0  0  0  # atno 17370 bound_to 10713
  156.8552  130.5094  149.5308 LP  0  0  0  0  0  0  0  0  0  0  0  0  # atno 17371 bound_to 10713
  140.7719  134.3823  157.5506 LP  0  0  0  0  0  0  0  0  0  0  0  0  # atno 17394 bound_to 11000
  139.8823  134.9027  156.2839 LP  0  0  0  0  0  0  0  0  0  0  0  0  # atno 17395 bound_to 11000

$$$$
