AV-unprocessed.smi:1005|AV-procd|sdf|4367|dock6
  -GOLD-   22720 2273D 1   1.00000     0.00000
 Structure written by MMmdl.
 57 59  0  0  0  0  0  0  0  0  3 V2000
  152.9510  143.4186  161.4994 C   0  0  0  0  0  0  0  0  0  0  0  0
  152.4807  142.8604  160.1679 C   0  0  0  0  0  0  0  0  0  0  0  0
  152.8785  141.5583  159.7894 C   0  0  0  0  0  0  0  0  0  0  0  0
  152.4617  141.0024  158.5602 C   0  0  0  0  0  0  0  0  0  0  0  0
  152.7240  139.7649  157.9978 N   0  0  0  0  0  0  0  0  0  0  0  0
  152.0561  139.8441  156.8509 C   0  0  0  0  0  0  0  0  0  0  0  0
  151.3866  140.9866  156.6043 N   0  0  0  0  0  0  0  0  0  0  0  0
  150.5899  141.2957  155.4296 C   0  0  0  0  0  0  0  0  0  0  0  0
  149.0764  141.2819  155.7209 C   0  0  1  0  0  0  0  0  0  0  0  0
  148.7272  142.4370  156.4600 O   0  0  0  0  0  0  0  0  0  0  0  0
  148.2456  141.2598  154.4218 C   0  0  0  0  0  0  0  0  0  0  0  0
  146.7840  141.3600  154.6703 N   0  3  1  0  0  0  0  0  0  0  0  0
  146.3693  140.6623  155.9100 C   0  0  0  0  0  0  0  0  0  0  0  0
  144.8430  140.7334  156.0794 C   0  0  0  0  0  0  0  0  0  0  0  0
  144.4258  142.0934  156.0774 O   0  0  0  0  0  0  0  0  0  0  0  0
  144.7327  142.7535  154.8536 C   0  0  1  0  0  0  0  0  0  0  0  0
  144.1713  144.1862  154.9295 C   0  0  0  0  0  0  0  0  0  0  0  0
  143.9156  144.7809  153.5920 N   0  3  0  0  0  0  0  0  0  0  0  0
  145.1414  144.9540  152.7780 C   0  0  0  0  0  0  0  0  0  0  0  0
  143.1466  146.0420  153.6834 C   0  0  0  0  0  0  0  0  0  0  0  0
  146.2632  142.7497  154.6633 C   0  0  0  0  0  0  0  0  0  0  0  0
  151.6302  141.7914  157.7126 C   0  0  0  0  0  0  0  0  0  0  0  0
  151.2298  143.0890  158.0771 C   0  0  0  0  0  0  0  0  0  0  0  0
  151.6534  143.6284  159.3097 C   0  0  0  0  0  0  0  0  0  0  0  0
  151.2132  145.0294  159.6951 C   0  0  0  0  0  0  0  0  0  0  0  0
  153.5995  142.7138  162.0207 H   0  0  0  0  0  0  0  0  0  0  0  0
  152.0993  143.6312  162.1461 H   0  0  0  0  0  0  0  0  0  0  0  0
  153.5120  144.3413  161.3502 H   0  0  0  0  0  0  0  0  0  0  0  0
  153.5088  140.9731  160.4431 H   0  0  0  0  0  0  0  0  0  0  0  0
  152.0514  139.0225  156.1496 H   0  0  0  0  0  0  0  0  0  0  0  0
  150.9005  142.2677  155.0438 H   0  0  0  0  0  0  0  0  0  0  0  0
  150.8282  140.5649  154.6557 H   0  0  0  0  0  0  0  0  0  0  0  0
  148.8531  140.4069  156.3305 H   0  0  0  0  0  0  0  0  0  0  0  0
  149.2036  143.1746  156.1079 H   0  0  0  0  0  0  0  0  0  0  0  0
  148.5619  142.0975  153.7978 H   0  0  0  0  0  0  0  0  0  0  0  0
  148.4550  140.3561  153.8474 H   0  0  0  0  0  0  0  0  0  0  0  0
  146.6841  139.6186  155.8730 H   0  0  0  0  0  0  0  0  0  0  0  0
  146.8634  141.1172  156.7703 H   0  0  0  0  0  0  0  0  0  0  0  0
  144.3357  140.1828  155.2856 H   0  0  0  0  0  0  0  0  0  0  0  0
  144.5476  140.2745  157.0233 H   0  0  0  0  0  0  0  0  0  0  0  0
  144.2769  142.2154  154.0220 H   0  0  0  0  0  0  0  0  0  0  0  0
  143.2399  144.1576  155.4974 H   0  0  0  0  0  0  0  0  0  0  0  0
  144.8496  144.8347  155.4861 H   0  0  0  0  0  0  0  0  0  0  0  0
  145.8442  145.6298  153.2672 H   0  0  0  0  0  0  0  0  0  0  0  0
  144.8959  145.3727  151.8014 H   0  0  0  0  0  0  0  0  0  0  0  0
  145.6459  144.0051  152.6011 H   0  0  0  0  0  0  0  0  0  0  0  0
  143.7057  146.8021  154.2307 H   0  0  0  0  0  0  0  0  0  0  0  0
  142.1968  145.8810  154.1942 H   0  0  0  0  0  0  0  0  0  0  0  0
  142.9221  146.4319  152.6899 H   0  0  0  0  0  0  0  0  0  0  0  0
  146.7453  143.3238  155.4566 H   0  0  0  0  0  0  0  0  0  0  0  0
  146.5069  143.2404  153.7219 H   0  0  0  0  0  0  0  0  0  0  0  0
  150.5994  143.6635  157.4147 H   0  0  0  0  0  0  0  0  0  0  0  0
  150.5551  145.4614  158.9407 H   0  0  0  0  0  0  0  0  0  0  0  0
  152.0779  145.6849  159.8002 H   0  0  0  0  0  0  0  0  0  0  0  0
  150.6718  145.0150  160.6414 H   0  0  0  0  0  0  0  0  0  0  0  0
  143.3218  144.1316  153.0955 H   0  0  0  0  0  0  0  0  0  0  0  0
  146.3384  140.8697  153.9072 H   0  0  0  0  0  0  0  0  0  0  0  0
  1  2  1  0  0  0  0
  1 26  1  0  0  0  0
  1 27  1  0  0  0  0
  1 28  1  0  0  0  0
  2 24  1  0  0  0  0
  2  3  2  0  0  0  0
  3  4  1  0  0  0  0
  3 29  1  0  0  0  0
  4 22  2  0  0  0  0
  4  5  1  0  0  0  0
  5  6  2  0  0  0  0
  6  7  1  0  0  0  0
  6 30  1  0  0  0  0
  7  8  1  0  0  0  0
  7 22  1  0  0  0  0
  8  9  1  0  0  0  0
  8 31  1  0  0  0  0
  8 32  1  0  0  0  0
  9 10  1  0  0  0  0
  9 11  1  0  0  0  0
  9 33  1  0  0  0  0
 10 34  1  0  0  0  0
 11 12  1  0  0  0  0
 11 35  1  0  0  0  0
 11 36  1  0  0  0  0
 12 21  1  0  0  0  0
 12 13  1  0  0  0  0
 12 57  1  0  0  0  0
 13 14  1  0  0  0  0
 13 37  1  0  0  0  0
 13 38  1  0  0  0  0
 14 15  1  0  0  0  0
 14 39  1  0  0  0  0
 14 40  1  0  0  0  0
 15 16  1  0  0  0  0
 16 17  1  0  0  0  0
 16 21  1  0  0  0  0
 16 41  1  0  0  0  0
 17 18  1  0  0  0  0
 17 42  1  0  0  0  0
 17 43  1  0  0  0  0
 18 19  1  0  0  0  0
 18 20  1  0  0  0  0
 18 56  1  0  0  0  0
 19 44  1  0  0  0  0
 19 45  1  0  0  0  0
 19 46  1  0  0  0  0
 20 47  1  0  0  0  0
 20 48  1  0  0  0  0
 20 49  1  0  0  0  0
 21 50  1  0  0  0  0
 21 51  1  0  0  0  0
 22 23  1  0  0  0  0
 23 24  2  0  0  0  0
 23 52  1  0  0  0  0
 24 25  1  0  0  0  0
 25 53  1  0  0  0  0
 25 54  1  0  0  0  0
 25 55  1  0  0  0  0
M  CHG  1  12   1
M  CHG  1  18   1
M  END
> <s_m_source_file>
AV-unprocessed.smi

> <i_m_source_file_index>
1005

> <i_lp_mmshare_version>
43012

> <i_f3d_flags>
0

> <s_epik_input>
W0NIM11jKFtjSF0xKWMoW0NIM10pW2NIXWMoYzEyKW4oW2NIXW4yKVtDSDJdW0NASF0oW09IXSlbQ0gyXU4zW0NIMl1bQ0gyXU9bQ0BIXShbQ0gyXTMpW0NIMl1OKFtDSDNdKVtDSDNd

> <s_epik_cmdline>
J2VwaWtfcHl0aG9uJywgJy1waCcsICc3LjAnLCAnLXRuJywgJzgnLCAnLW1hJywgJzIwMCcsICctbWV0YWxfYmluZGluZycsICctaW1hZScsICc8aW5maWxlLm1hZT4nLCAnLW9tYWUnLCAnPG91dGZpbGUubWFlPic=

> <r_epik_Ionization_Penalty>
1.0968

> <r_epik_Ionization_Penalty_Charging>
1.0096

> <r_epik_Ionization_Penalty_Neutral>
0.0871956

> <r_epik_State_Penalty>
1.31185

> <r_epik_Charging_Adjusted_Penalty>
2.32145

> <i_epik_Tot_Q>
2

> <i_epik_Tot_abs_Q>
2

> <r_epik_Metal_State_Penalty>
1.22442

> <b_epik_Metal_Only>
0

> <s_lp_Force_Field>
OPLS_2005

> <r_lp_Energy>
33.8035

> <b_lp_Chiralities_Consistent>
1

> <s_lp_Variant>
AV-unprocessed.smi:1005-6

> <Gold.Version>
5.8.1

> <Gold.Id.Protein>
6NUR|6NUR_protein|mol2

> <Gold.PLP.Fitness>
57.5716

> <Gold.PLP.PLP>
-47.7921

> <Gold.PLP.part.hbond>
-3.0000

> <Gold.PLP.part.metal>
0.0000

> <Gold.PLP.part.buried>
-5.3306

> <Gold.PLP.part.nonpolar>
-39.2784

> <Gold.PLP.part.repulsive>
0.1964

> <Gold.PLP.ligand.clash>
0.0000

> <Gold.PLP.ligand.torsion>
0.8924

> <Gold.PLP.Chemscore.Hbond>
3.8151

> <Gold.PLP.Chemscore.CHOScore>
0.0000

> <Gold.PLP.Chemscore.Metal>
0.0000

> <Gold.Chemscore.Hbonds>
donor molecule, donor type, donor heavy atom, donor atom, acceptor molecule, acceptor atom, score
      L1  H    10    34       P1  8028  0.75
      L1  H    18    56       P1 10174  2.00
      P1  H  7997  8009       L1     5  0.51

> <Gold.PLP.Chemscore.Internal.Correction>
0.1189

> <Gold.Rescore>
     Score         DG    S(hbond)    S(metal)    S(lipo)     H(rot)  DE(clash)    DE(int)     intcor
     19.26     -20.46       1.88        0.00     128.74       2.48       0.25       0.95       ----

> <Gold.Chemscore.Fitness>
19.2610

> <Gold.Chemscore.DG>
-20.4637

> <Gold.Chemscore.ZeroCoef>
-5.4800

> <Gold.Chemscore.Hbond>
1.8782

> <Gold.Chemscore.Metal>
0.0000

> <Gold.Chemscore.Lipo>
128.7415

> <Gold.Chemscore.Internal_Hbond>
0.0000

> <Gold.Chemscore.DEClash>
0.2493

> <Gold.Chemscore.DEInternal>
0.9535

> <Gold.Chemscore.Rot>
2.4814

> <Gold.Chemscore.Internal.Correction>
   9.000000E+99

> <Gold.Chemscore.Hbonds>
donor molecule, donor type, donor heavy atom, donor atom, acceptor molecule, acceptor atom, score
      L1  H    10    34       P1  8028  0.74
      L1  H    18    56       P1 10174  0.96
      P1  H  7997  8009       L1     5  0.02

> <Gold.Chemscore.Hbond.Weighted>
-6.2733

> <Gold.Chemscore.Metal.Weighted>
-0.0000

> <Gold.Chemscore.Lipo.Weighted>
-15.0628

> <Gold.Chemscore.Internal_Hbond.Weighted>
0.0000

> <Gold.Chemscore.DEClash.Weighted>
0.2493

> <Gold.Chemscore.DEInternal.Weighted>
0.9535

> <Gold.Chemscore.Rot.Weighted>
6.3524

> <Gold.Chemscore.Internal.Correction.Weighted>
   9.000000E+99

> <Gold.Protein.RotatedTorsions>
[ 6907 6896 6895 6894 ] final -165.12 input  -60.11 | X-H torsion
[ 7974 7965 7964 7962 ] final   -4.17 input  175.53 | X-H torsion
[ 8008 7997 7996 7995 ] final  147.02 input   59.86 | X-H torsion
[ 10167 10162 10161 10158 ] final   26.88 input  -65.29 | X-H torsion
[ 10718 10713 10712 10709 ] final -169.07 input   66.30 | X-H torsion
[ 10763 10752 10751 10750 ] final -122.92 input  -60.55 | X-H torsion
[ 11005 11000 10999 10996 ] final -174.41 input  -57.11 | X-H torsion

> <Gold.Protein.ActiveResidues>
 VAL166  LYS551  ARG553  GLY616  TRP617  ASP618  TYR619  PRO620  LYS621  CYS622 
 ASP623  PHE694  ASN695  SER759  ASP760  ASP761  ALA762  ILE779  LEU786  VAL792 
 PHE793  MET794  SER795  GLU796  ALA797  LYS798  CYS799  TRP800  GLU811  SER814 

> <Gold.Protein.RotatedAtoms>
  151.4227  133.3693  159.2757 H   0  0  0  0  0  0  0  0  0  0  0  0  # atno 6907 bound_to 6896
  150.9282  134.8699  159.7544 H   0  0  0  0  0  0  0  0  0  0  0  0  # atno 6908 bound_to 6896
  152.5015  134.4170  159.9520 H   0  0  0  0  0  0  0  0  0  0  0  0  # atno 6909 bound_to 6896
  146.2377  140.1831  142.8332 H   0  0  0  0  0  0  0  0  0  0  0  0  # atno 7974 bound_to 7965
  156.2837  140.2166  156.5471 H   0  0  0  0  0  0  0  0  0  0  0  0  # atno 8008 bound_to 7997
  154.7322  140.0494  157.0759 H   0  0  0  0  0  0  0  0  0  0  0  0  # atno 8009 bound_to 7997
  155.0339  140.3138  155.4751 H   0  0  0  0  0  0  0  0  0  0  0  0  # atno 8010 bound_to 7997
  140.4985  144.0353  150.6323 H   0  0  0  0  0  0  0  0  0  0  0  0  # atno 10167 bound_to 10162
  156.7062  130.9215  151.3085 H   0  0  0  0  0  0  0  0  0  0  0  0  # atno 10718 bound_to 10713
  154.8698  135.4116  154.2860 H   0  0  0  0  0  0  0  0  0  0  0  0  # atno 10763 bound_to 10752
  153.3744  135.7009  153.6619 H   0  0  0  0  0  0  0  0  0  0  0  0  # atno 10764 bound_to 10752
  153.5467  135.3637  155.2713 H   0  0  0  0  0  0  0  0  0  0  0  0  # atno 10765 bound_to 10752
  140.4749  134.6130  157.4896 H   0  0  0  0  0  0  0  0  0  0  0  0  # atno 11005 bound_to 11000
  144.9918  140.8554  143.5335 LP  0  0  0  0  0  0  0  0  0  0  0  0  # atno 17320 bound_to 7965
  145.1838  139.2337  143.5278 LP  0  0  0  0  0  0  0  0  0  0  0  0  # atno 17321 bound_to 7965
  140.3642  143.2891  152.0350 LP  0  0  0  0  0  0  0  0  0  0  0  0  # atno 17342 bound_to 10162
  139.4866  144.6279  151.7127 LP  0  0  0  0  0  0  0  0  0  0  0  0  # atno 17343 bound_to 10162
  157.6954  130.9276  150.0630 LP  0  0  0  0  0  0  0  0  0  0  0  0  # atno 17370 bound_to 10713
  156.1694  130.3646  149.9187 LP  0  0  0  0  0  0  0  0  0  0  0  0  # atno 17371 bound_to 10713
  139.9862  134.7057  155.9769 LP  0  0  0  0  0  0  0  0  0  0  0  0  # atno 17394 bound_to 11000
  141.1559  133.6543  156.4161 LP  0  0  0  0  0  0  0  0  0  0  0  0  # atno 17395 bound_to 11000

$$$$
