AV-unprocessed.smi:1966|AV-procd|sdf|7951|dock6
  -GOLD-   2272010123D 1   1.00000     0.00000
 Structure written by MMmdl.
 53 54  0  0  0  0  0  0  0  0  1 V2000
  148.5498  134.0016  153.9667 C   0  0  0  0  0  0  0  0  0  0  0  0
  147.4189  134.8323  154.5630 C   0  0  0  0  0  0  0  0  0  0  0  0
  146.6992  134.3580  155.4415 O   0  0  0  0  0  0  0  0  0  0  0  0
  147.2735  136.0737  154.0733 N   0  0  0  0  0  0  0  0  0  0  0  0
  146.2666  137.0464  154.5052 C   0  0  1  0  0  0  0  0  0  0  0  0
  146.9202  138.0415  155.4854 C   0  0  0  0  0  0  0  0  0  0  0  0
  146.3027  138.4140  156.4837 O   0  0  0  0  0  0  0  0  0  0  0  0
  148.1656  138.4374  155.1622 N   0  0  0  0  0  0  0  0  0  0  0  0
  149.0359  139.3265  155.8502 C   0  0  0  0  0  0  0  0  0  0  0  0
  150.2539  139.8271  155.3334 C   0  0  0  0  0  0  0  0  0  0  0  0
  151.0146  140.7154  156.1181 C   0  0  0  0  0  0  0  0  0  0  0  0
  150.5403  141.0930  157.3964 C   0  0  0  0  0  0  0  0  0  0  0  0
  151.2892  141.9813  158.1990 N   0  0  0  0  0  0  0  0  0  0  0  0
  151.9153  141.4552  159.4088 C   0  0  0  0  0  0  0  0  0  0  0  0
  152.9591  142.4489  159.9485 C   0  0  2  0  0  0  0  0  0  0  0  0
  153.5421  141.9922  161.2900 C   0  0  0  0  0  0  0  0  0  0  0  0
  152.3504  143.7249  160.1424 O   0  0  0  0  0  0  0  0  0  0  0  0
  151.7511  144.2866  158.9725 C   0  0  1  0  0  0  0  0  0  0  0  0
  152.8002  144.7571  157.9493 C   0  0  0  0  0  0  0  0  0  0  0  0
  150.7137  143.3109  158.3822 C   0  0  0  0  0  0  0  0  0  0  0  0
  149.3696  140.6160  157.8853 N   0  0  0  0  0  0  0  0  0  0  0  0
  148.6441  139.7650  157.1305 C   0  0  0  0  0  0  0  0  0  0  0  0
  145.7297  137.8043  153.2547 C   0  0  0  0  0  0  0  0  0  0  0  0
  144.9168  136.9020  152.3030 C   0  0  0  0  0  0  0  0  0  0  0  0
  146.8654  138.4777  152.4590 C   0  0  0  0  0  0  0  0  0  0  0  0
  149.5037  134.5174  154.0815 H   0  0  0  0  0  0  0  0  0  0  0  0
  148.3753  133.8290  152.9045 H   0  0  0  0  0  0  0  0  0  0  0  0
  148.6239  133.0336  154.4632 H   0  0  0  0  0  0  0  0  0  0  0  0
  147.9176  136.3776  153.3578 H   0  0  0  0  0  0  0  0  0  0  0  0
  145.4410  136.5256  154.9952 H   0  0  0  0  0  0  0  0  0  0  0  0
  148.5182  138.0887  154.2826 H   0  0  0  0  0  0  0  0  0  0  0  0
  150.6202  139.5606  154.3549 H   0  0  0  0  0  0  0  0  0  0  0  0
  151.9542  141.0849  155.7355 H   0  0  0  0  0  0  0  0  0  0  0  0
  151.1451  141.2712  160.1592 H   0  0  0  0  0  0  0  0  0  0  0  0
  152.4014  140.5014  159.1991 H   0  0  0  0  0  0  0  0  0  0  0  0
  153.7807  142.5382  159.2376 H   0  0  0  0  0  0  0  0  0  0  0  0
  154.0275  141.0206  161.1966 H   0  0  0  0  0  0  0  0  0  0  0  0
  152.7646  141.9066  162.0497 H   0  0  0  0  0  0  0  0  0  0  0  0
  154.2859  142.7020  161.6530 H   0  0  0  0  0  0  0  0  0  0  0  0
  151.2157  145.1765  159.3045 H   0  0  0  0  0  0  0  0  0  0  0  0
  152.3243  145.2954  157.1294 H   0  0  0  0  0  0  0  0  0  0  0  0
  153.3529  143.9266  157.5108 H   0  0  0  0  0  0  0  0  0  0  0  0
  153.5199  145.4320  158.4127 H   0  0  0  0  0  0  0  0  0  0  0  0
  150.3207  143.7209  157.4530 H   0  0  0  0  0  0  0  0  0  0  0  0
  149.8675  143.2222  159.0647 H   0  0  0  0  0  0  0  0  0  0  0  0
  147.7186  139.4207  157.5682 H   0  0  0  0  0  0  0  0  0  0  0  0
  145.0628  138.5998  153.5925 H   0  0  0  0  0  0  0  0  0  0  0  0
  145.5082  136.0495  151.9673 H   0  0  0  0  0  0  0  0  0  0  0  0
  144.5992  137.4525  151.4170 H   0  0  0  0  0  0  0  0  0  0  0  0
  144.0118  136.5168  152.7727 H   0  0  0  0  0  0  0  0  0  0  0  0
  147.5966  137.7438  152.1185 H   0  0  0  0  0  0  0  0  0  0  0  0
  147.3940  139.2242  153.0519 H   0  0  0  0  0  0  0  0  0  0  0  0
  146.4773  138.9909  151.5787 H   0  0  0  0  0  0  0  0  0  0  0  0
  1  2  1  0  0  0  0
  1 26  1  0  0  0  0
  1 27  1  0  0  0  0
  1 28  1  0  0  0  0
  2  3  2  0  0  0  0
  2  4  1  0  0  0  0
  4  5  1  0  0  0  0
  4 29  1  0  0  0  0
  5  6  1  0  0  0  0
  5 23  1  0  0  0  0
  5 30  1  0  0  0  0
  6  7  2  0  0  0  0
  6  8  1  0  0  0  0
  8  9  1  0  0  0  0
  8 31  1  0  0  0  0
  9 22  1  0  0  0  0
  9 10  2  0  0  0  0
 10 11  1  0  0  0  0
 10 32  1  0  0  0  0
 11 12  2  0  0  0  0
 11 33  1  0  0  0  0
 12 13  1  0  0  0  0
 12 21  1  0  0  0  0
 13 20  1  0  0  0  0
 13 14  1  0  0  0  0
 14 15  1  0  0  0  0
 14 34  1  0  0  0  0
 14 35  1  0  0  0  0
 15 16  1  0  0  0  0
 15 17  1  0  0  0  0
 15 36  1  0  0  0  0
 16 37  1  0  0  0  0
 16 38  1  0  0  0  0
 16 39  1  0  0  0  0
 17 18  1  0  0  0  0
 18 19  1  0  0  0  0
 18 20  1  0  0  0  0
 18 40  1  0  0  0  0
 19 41  1  0  0  0  0
 19 42  1  0  0  0  0
 19 43  1  0  0  0  0
 20 44  1  0  0  0  0
 20 45  1  0  0  0  0
 21 22  2  0  0  0  0
 22 46  1  0  0  0  0
 23 24  1  0  0  0  0
 23 25  1  0  0  0  0
 23 47  1  0  0  0  0
 24 48  1  0  0  0  0
 24 49  1  0  0  0  0
 24 50  1  0  0  0  0
 25 51  1  0  0  0  0
 25 52  1  0  0  0  0
 25 53  1  0  0  0  0
M  END
> <s_m_source_file>
AV-unprocessed.smi

> <i_m_source_file_index>
1966

> <i_lp_mmshare_version>
43012

> <i_f3d_flags>
0

> <s_epik_input>
W0NIM11DKD1PKVtOSF1bQ0BASF0oW0NIXShbQ0gzXSlbQ0gzXSlDKD1PKVtOSF1jMVtjSF1bY0hdYyhuW2NIXTEpTjJbQ0gyXVtDQEBIXShbQ0gzXSlPW0NAQEhdKFtDSDNdKVtDSDJdMg==

> <s_epik_cmdline>
J2VwaWtfcHl0aG9uJywgJy1waCcsICc3LjAnLCAnLXRuJywgJzgnLCAnLW1hJywgJzIwMCcsICctbWV0YWxfYmluZGluZycsICctaW1hZScsICc8aW5maWxlLm1hZT4nLCAnLW9tYWUnLCAnPG91dGZpbGUubWFlPic=

> <r_lp_tautomer_probability>
1

> <r_epik_Ionization_Penalty>
0.000679699

> <r_epik_Ionization_Penalty_Charging>
0

> <r_epik_Ionization_Penalty_Neutral>
0.000679699

> <r_epik_State_Penalty>
0.000430485

> <r_epik_Charging_Adjusted_Penalty>
0.000430485

> <i_epik_Tot_Q>
0

> <i_epik_Tot_abs_Q>
0

> <r_epik_Metal_State_Penalty>
-0

> <b_epik_Metal_Only>
0

> <s_lp_Force_Field>
OPLS_2005

> <r_lp_Energy>
28.9115

> <b_lp_Chiralities_Consistent>
1

> <s_lp_Variant>
AV-unprocessed.smi:1966-4

> <Gold.Version>
5.8.1

> <Gold.Id.Protein>
6NUR|6NUR_protein|mol2

> <Gold.PLP.Fitness>
38.6730

> <Gold.PLP.PLP>
-37.3745

> <Gold.PLP.part.hbond>
-1.0000

> <Gold.PLP.part.metal>
0.0000

> <Gold.PLP.part.buried>
-3.0789

> <Gold.PLP.part.nonpolar>
-33.4337

> <Gold.PLP.part.repulsive>
0.0921

> <Gold.PLP.ligand.clash>
0.0014

> <Gold.PLP.ligand.torsion>
1.0315

> <Gold.PLP.Chemscore.Hbond>
1.0000

> <Gold.PLP.Chemscore.CHOScore>
0.0000

> <Gold.PLP.Chemscore.Metal>
0.0000

> <Gold.Chemscore.Hbonds>
donor molecule, donor type, donor heavy atom, donor atom, acceptor molecule, acceptor atom, score
      L1  H     4    29       P1  7948  1.00

> <Gold.PLP.Chemscore.Internal.Correction>
0.3630

> <Gold.Rescore>
     Score         DG    S(hbond)    S(metal)    S(lipo)     H(rot)  DE(clash)    DE(int)     intcor
     13.81     -17.67       1.00        0.00     112.46       1.68       0.28       3.58       ----

> <Gold.Chemscore.Fitness>
13.8146

> <Gold.Chemscore.DG>
-17.6722

> <Gold.Chemscore.ZeroCoef>
-5.4800

> <Gold.Chemscore.Hbond>
0.9955

> <Gold.Chemscore.Metal>
0.0000

> <Gold.Chemscore.Lipo>
112.4570

> <Gold.Chemscore.Internal_Hbond>
0.0000

> <Gold.Chemscore.DEClash>
0.2795

> <Gold.Chemscore.DEInternal>
3.5781

> <Gold.Chemscore.Rot>
1.6759

> <Gold.Chemscore.Internal.Correction>
   9.000000E+99

> <Gold.Chemscore.Hbonds>
donor molecule, donor type, donor heavy atom, donor atom, acceptor molecule, acceptor atom, score
      L1  H     4    29       P1  7948  0.99

> <Gold.Chemscore.Hbond.Weighted>
-3.3249

> <Gold.Chemscore.Metal.Weighted>
-0.0000

> <Gold.Chemscore.Lipo.Weighted>
-13.1575

> <Gold.Chemscore.Internal_Hbond.Weighted>
0.0000

> <Gold.Chemscore.DEClash.Weighted>
0.2795

> <Gold.Chemscore.DEInternal.Weighted>
3.5781

> <Gold.Chemscore.Rot.Weighted>
4.2902

> <Gold.Chemscore.Internal.Correction.Weighted>
   9.000000E+99

> <Gold.Protein.RotatedTorsions>
[ 6907 6896 6895 6894 ] final  138.65 input  -60.11 | X-H torsion
[ 7974 7965 7964 7962 ] final -159.13 input  175.53 | X-H torsion
[ 8008 7997 7996 7995 ] final  -75.70 input   59.86 | X-H torsion
[ 10167 10162 10161 10158 ] final -152.56 input  -65.29 | X-H torsion
[ 10718 10713 10712 10709 ] final   70.09 input   66.30 | X-H torsion
[ 10763 10752 10751 10750 ] final  127.90 input  -60.55 | X-H torsion
[ 11005 11000 10999 10996 ] final   89.07 input  -57.11 | X-H torsion

> <Gold.Protein.ActiveResidues>
 VAL166  LYS551  ARG553  GLY616  TRP617  ASP618  TYR619  PRO620  LYS621  CYS622 
 ASP623  PHE694  ASN695  SER759  ASP760  ASP761  ALA762  ILE779  LEU786  VAL792 
 PHE793  MET794  SER795  GLU796  ALA797  LYS798  CYS799  TRP800  GLU811  SER814 

> <Gold.Protein.RotatedAtoms>
  152.2642  133.5324  159.5399 H   0  0  0  0  0  0  0  0  0  0  0  0  # atno 6907 bound_to 6896
  150.7136  134.0788  159.3899 H   0  0  0  0  0  0  0  0  0  0  0  0  # atno 6908 bound_to 6896
  151.8705  135.0491  160.0529 H   0  0  0  0  0  0  0  0  0  0  0  0  # atno 6909 bound_to 6896
  144.7477  140.3729  143.6072 H   0  0  0  0  0  0  0  0  0  0  0  0  # atno 7974 bound_to 7965
  154.5440  140.0739  156.8557 H   0  0  0  0  0  0  0  0  0  0  0  0  # atno 8008 bound_to 7997
  155.3124  140.3391  155.4225 H   0  0  0  0  0  0  0  0  0  0  0  0  # atno 8009 bound_to 7997
  156.1901  140.1683  156.8096 H   0  0  0  0  0  0  0  0  0  0  0  0  # atno 8010 bound_to 7997
  139.7171  143.9016  152.2490 H   0  0  0  0  0  0  0  0  0  0  0  0  # atno 10167 bound_to 10162
  157.6381  130.9459  150.0604 H   0  0  0  0  0  0  0  0  0  0  0  0  # atno 10718 bound_to 10713
  153.7168  135.3259  155.3258 H   0  0  0  0  0  0  0  0  0  0  0  0  # atno 10763 bound_to 10752
  154.8368  135.4490  154.1258 H   0  0  0  0  0  0  0  0  0  0  0  0  # atno 10764 bound_to 10752
  153.2367  135.6966  153.7908 H   0  0  0  0  0  0  0  0  0  0  0  0  # atno 10765 bound_to 10752
  139.8883  134.8528  156.3090 H   0  0  0  0  0  0  0  0  0  0  0  0  # atno 11005 bound_to 11000
  145.7059  139.1672  143.2566 LP  0  0  0  0  0  0  0  0  0  0  0  0  # atno 17320 bound_to 7965
  146.1382  140.7093  142.9379 LP  0  0  0  0  0  0  0  0  0  0  0  0  # atno 17321 bound_to 7965
  139.8901  144.6970  150.8780 LP  0  0  0  0  0  0  0  0  0  0  0  0  # atno 17342 bound_to 10162
  140.7746  143.3593  151.1860 LP  0  0  0  0  0  0  0  0  0  0  0  0  # atno 17343 bound_to 10162
  156.1638  130.3644  149.9261 LP  0  0  0  0  0  0  0  0  0  0  0  0  # atno 17370 bound_to 10713
  156.7253  130.9022  151.3621 LP  0  0  0  0  0  0  0  0  0  0  0  0  # atno 17371 bound_to 10713
  140.9863  133.7236  156.0746 LP  0  0  0  0  0  0  0  0  0  0  0  0  # atno 17394 bound_to 11000
  140.7684  134.3860  157.5512 LP  0  0  0  0  0  0  0  0  0  0  0  0  # atno 17395 bound_to 11000

$$$$
