AV-unprocessed.smi:2108|AV-procd|sdf|8604|dock1
  -GOLD-   2272011343D 1   1.00000     0.00000
 Structure written by MMmdl.
 35 36  0  0  0  0  0  0  0  0  1 V2000
  150.9344  139.4566  154.4596 O   0  0  0  0  0  0  0  0  0  0  0  0
  152.0118  139.3706  155.4569 S   0  0  0  0  0  0  0  0  0  0  0  0
  153.3545  138.8928  155.0925 O   0  0  0  0  0  0  0  0  0  0  0  0
  152.1769  140.9081  156.2233 N   0  0  0  0  0  0  0  0  0  0  0  0
  151.0130  141.5334  156.8519 C   0  0  0  0  0  0  0  0  0  0  0  0
  151.1942  141.5961  158.3738 C   0  0  0  0  0  0  0  0  0  0  0  0
  151.2335  143.0247  158.8832 C   0  0  0  0  0  0  0  0  0  0  0  0
  152.2991  143.4713  159.6935 C   0  0  0  0  0  0  0  0  0  0  0  0
  152.2802  144.8020  160.1539 C   0  0  0  0  0  0  0  0  0  0  0  0
  151.2012  145.6303  159.7890 C   0  0  0  0  0  0  0  0  0  0  0  0
  150.1849  145.0886  158.9771 C   0  0  0  0  0  0  0  0  0  0  0  0
  150.1932  143.8138  158.5307 N   0  0  0  0  0  0  0  0  0  0  0  0
  151.4377  138.4388  156.7996 N   0  0  0  0  0  0  0  0  0  0  0  0
  152.0968  138.6488  158.0981 C   0  0  0  0  0  0  0  0  0  0  0  0
  151.2979  137.9863  159.2323 C   0  0  0  0  0  0  0  0  0  0  0  0
  151.0789  136.6144  158.9404 O   0  0  0  0  0  0  0  0  0  0  0  0
  150.3092  136.4506  157.7588 C   0  0  0  0  0  0  0  0  0  0  0  0
  151.0623  137.0354  156.5534 C   0  0  0  0  0  0  0  0  0  0  0  0
  152.7731  141.5536  155.7058 H   0  0  0  0  0  0  0  0  0  0  0  0
  150.8809  142.5359  156.4435 H   0  0  0  0  0  0  0  0  0  0  0  0
  150.1187  140.9609  156.6032 H   0  0  0  0  0  0  0  0  0  0  0  0
  150.3828  141.0607  158.8690 H   0  0  0  0  0  0  0  0  0  0  0  0
  152.1173  141.0911  158.6629 H   0  0  0  0  0  0  0  0  0  0  0  0
  153.1104  142.8097  159.9606 H   0  0  0  0  0  0  0  0  0  0  0  0
  153.0775  145.1796  160.7769 H   0  0  0  0  0  0  0  0  0  0  0  0
  151.1529  146.6561  160.1239 H   0  0  0  0  0  0  0  0  0  0  0  0
  149.3419  145.6947  158.6799 H   0  0  0  0  0  0  0  0  0  0  0  0
  153.1045  138.2341  158.0537 H   0  0  0  0  0  0  0  0  0  0  0  0
  152.1965  139.7163  158.2944 H   0  0  0  0  0  0  0  0  0  0  0  0
  151.8471  138.0648  160.1707 H   0  0  0  0  0  0  0  0  0  0  0  0
  150.3439  138.4949  159.3812 H   0  0  0  0  0  0  0  0  0  0  0  0
  150.1233  135.3878  157.6033 H   0  0  0  0  0  0  0  0  0  0  0  0
  149.3351  136.9287  157.8750 H   0  0  0  0  0  0  0  0  0  0  0  0
  150.4413  136.9627  155.6610 H   0  0  0  0  0  0  0  0  0  0  0  0
  151.9670  136.4576  156.3607 H   0  0  0  0  0  0  0  0  0  0  0  0
  1  2  2  0  0  0  0
  2  3  2  0  0  0  0
  2  4  1  0  0  0  0
  2 13  1  0  0  0  0
  4  5  1  0  0  0  0
  4 19  1  0  0  0  0
  5  6  1  0  0  0  0
  5 20  1  0  0  0  0
  5 21  1  0  0  0  0
  6  7  1  0  0  0  0
  6 22  1  0  0  0  0
  6 23  1  0  0  0  0
  7 12  1  0  0  0  0
  7  8  2  0  0  0  0
  8  9  1  0  0  0  0
  8 24  1  0  0  0  0
  9 10  2  0  0  0  0
  9 25  1  0  0  0  0
 10 11  1  0  0  0  0
 10 26  1  0  0  0  0
 11 12  2  0  0  0  0
 11 27  1  0  0  0  0
 13 18  1  0  0  0  0
 13 14  1  0  0  0  0
 14 15  1  0  0  0  0
 14 28  1  0  0  0  0
 14 29  1  0  0  0  0
 15 16  1  0  0  0  0
 15 30  1  0  0  0  0
 15 31  1  0  0  0  0
 16 17  1  0  0  0  0
 17 18  1  0  0  0  0
 17 32  1  0  0  0  0
 17 33  1  0  0  0  0
 18 34  1  0  0  0  0
 18 35  1  0  0  0  0
M  END
> <s_m_source_file>
AV-unprocessed.smi

> <i_m_source_file_index>
2108

> <i_lp_mmshare_version>
43012

> <i_f3d_flags>
0

> <s_epik_input>
W0NIMl0xW0NIMl1PW0NIMl1bQ0gyXU4xUyg9TykoPU8pW05IXVtDSDJdW0NIMl1jMltjSF1bY0hdW2NIXVtjSF1uMg==

> <s_epik_cmdline>
J2VwaWtfcHl0aG9uJywgJy1waCcsICc3LjAnLCAnLXRuJywgJzgnLCAnLW1hJywgJzIwMCcsICctbWV0YWxfYmluZGluZycsICctaW1hZScsICc8aW5maWxlLm1hZT4nLCAnLW9tYWUnLCAnPG91dGZpbGUubWFlPic=

> <r_epik_Ionization_Penalty>
0.085378

> <r_epik_Ionization_Penalty_Charging>
0

> <r_epik_Ionization_Penalty_Neutral>
0.085378

> <r_epik_State_Penalty>
0.0441186

> <r_epik_Charging_Adjusted_Penalty>
0.0441186

> <i_epik_Tot_Q>
0

> <i_epik_Tot_abs_Q>
0

> <r_epik_Metal_State_Penalty>
0.24397

> <b_epik_Metal_Only>
0

> <s_lp_Force_Field>
OPLS_2005

> <r_lp_Energy>
7.91242

> <b_lp_Chiralities_Consistent>
1

> <s_lp_Variant>
AV-unprocessed.smi:2108-1

> <Gold.Version>
5.8.1

> <Gold.Id.Protein>
6NUR|6NUR_protein|mol2

> <Gold.PLP.Fitness>
39.8705

> <Gold.PLP.PLP>
-29.4651

> <Gold.PLP.part.hbond>
-3.8682

> <Gold.PLP.part.metal>
0.0000

> <Gold.PLP.part.buried>
-3.0305

> <Gold.PLP.part.nonpolar>
-22.3976

> <Gold.PLP.part.repulsive>
0.2772

> <Gold.PLP.ligand.clash>
0.0000

> <Gold.PLP.ligand.torsion>
1.2183

> <Gold.PLP.Chemscore.Hbond>
2.9920

> <Gold.PLP.Chemscore.CHOScore>
1.0000

> <Gold.PLP.Chemscore.Metal>
0.0000

> <Gold.Chemscore.Hbonds>
donor molecule, donor type, donor heavy atom, donor atom, acceptor molecule, acceptor atom, score
      P1  H  6896  6909       L1    16  0.93
      P1  H  7989  7998       L1     1  0.85
      P1  H  7997  8009       L1     3  1.00
      L1  C    11    27       P1  8029  0.97

> <Gold.PLP.Chemscore.Internal.Correction>
0.8659

> <Gold.Rescore>
     Score         DG    S(hbond)    S(metal)    S(lipo)     H(rot)  DE(clash)    DE(int)     intcor
     14.89     -17.71       2.24        0.00      80.92       1.84       1.52       1.29       ----

> <Gold.Chemscore.Fitness>
14.8898

> <Gold.Chemscore.DG>
-17.7086

> <Gold.Chemscore.ZeroCoef>
-5.4800

> <Gold.Chemscore.Hbond>
2.2357

> <Gold.Chemscore.Metal>
0.0000

> <Gold.Chemscore.Lipo>
80.9154

> <Gold.Chemscore.Internal_Hbond>
0.0000

> <Gold.Chemscore.DEClash>
1.5247

> <Gold.Chemscore.DEInternal>
1.2941

> <Gold.Chemscore.Rot>
1.8382

> <Gold.Chemscore.Internal.Correction>
   9.000000E+99

> <Gold.Chemscore.Hbonds>
donor molecule, donor type, donor heavy atom, donor atom, acceptor molecule, acceptor atom, score
      P1  H  6896  6909       L1    16  0.59
      P1  H  7989  7998       L1     1  0.15
      P1  H  7997  8009       L1     3  0.39

> <Gold.Chemscore.Hbond.Weighted>
-7.4671

> <Gold.Chemscore.Metal.Weighted>
-0.0000

> <Gold.Chemscore.Lipo.Weighted>
-9.4671

> <Gold.Chemscore.Internal_Hbond.Weighted>
0.0000

> <Gold.Chemscore.DEClash.Weighted>
1.5247

> <Gold.Chemscore.DEInternal.Weighted>
1.2941

> <Gold.Chemscore.Rot.Weighted>
4.7057

> <Gold.Chemscore.Internal.Correction.Weighted>
   9.000000E+99

> <Gold.Protein.RotatedTorsions>
[ 6907 6896 6895 6894 ] final   88.37 input  -60.11 | X-H torsion
[ 7974 7965 7964 7962 ] final -104.37 input  175.53 | X-H torsion
[ 8008 7997 7996 7995 ] final -133.22 input   59.86 | X-H torsion
[ 10167 10162 10161 10158 ] final -174.15 input  -65.29 | X-H torsion
[ 10718 10713 10712 10709 ] final  -20.26 input   66.30 | X-H torsion
[ 10763 10752 10751 10750 ] final  160.25 input  -60.55 | X-H torsion
[ 11005 11000 10999 10996 ] final  120.43 input  -57.11 | X-H torsion

> <Gold.Protein.ActiveResidues>
 VAL166  LYS551  ARG553  GLY616  TRP617  ASP618  TYR619  PRO620  LYS621  CYS622 
 ASP623  PHE694  ASN695  SER759  ASP760  ASP761  ALA762  ILE779  LEU786  VAL792 
 PHE793  MET794  SER795  GLU796  ALA797  LYS798  CYS799  TRP800  GLU811  SER814 

> <Gold.Protein.RotatedAtoms>
  152.5424  134.2132  159.8757 H   0  0  0  0  0  0  0  0  0  0  0  0  # atno 6907 bound_to 6896
  151.2113  133.4547  159.2606 H   0  0  0  0  0  0  0  0  0  0  0  0  # atno 6908 bound_to 6896
  151.0894  134.9919  159.8451 H   0  0  0  0  0  0  0  0  0  0  0  0  # atno 6909 bound_to 6896
  145.2440  140.9215  143.3133 H   0  0  0  0  0  0  0  0  0  0  0  0  # atno 7974 bound_to 7965
  155.3418  140.0472  157.3045 H   0  0  0  0  0  0  0  0  0  0  0  0  # atno 8008 bound_to 7997
  154.5273  140.2245  155.8832 H   0  0  0  0  0  0  0  0  0  0  0  0  # atno 8009 bound_to 7997
  156.1752  140.3086  155.9053 H   0  0  0  0  0  0  0  0  0  0  0  0  # atno 8010 bound_to 7997
  139.5650  144.1778  152.1298 H   0  0  0  0  0  0  0  0  0  0  0  0  # atno 10167 bound_to 10162
  156.5343  130.4663  149.6531 H   0  0  0  0  0  0  0  0  0  0  0  0  # atno 10718 bound_to 10713
  154.2445  135.2773  155.2841 H   0  0  0  0  0  0  0  0  0  0  0  0  # atno 10763 bound_to 10752
  154.5517  135.5673  153.6931 H   0  0  0  0  0  0  0  0  0  0  0  0  # atno 10764 bound_to 10752
  152.9993  135.6276  154.2590 H   0  0  0  0  0  0  0  0  0  0  0  0  # atno 10765 bound_to 10752
  139.9185  134.9634  156.7806 H   0  0  0  0  0  0  0  0  0  0  0  0  # atno 11005 bound_to 11000
  144.9563  139.4028  143.6378 LP  0  0  0  0  0  0  0  0  0  0  0  0  # atno 17320 bound_to 7965
  146.3321  139.8595  142.8859 LP  0  0  0  0  0  0  0  0  0  0  0  0  # atno 17321 bound_to 7965
  140.1299  144.5297  150.6809 LP  0  0  0  0  0  0  0  0  0  0  0  0  # atno 17342 bound_to 10162
  140.6932  143.2388  151.5072 LP  0  0  0  0  0  0  0  0  0  0  0  0  # atno 17343 bound_to 10162
  156.3030  130.7187  151.2063 LP  0  0  0  0  0  0  0  0  0  0  0  0  # atno 17370 bound_to 10713
  157.7416  131.0501  150.5083 LP  0  0  0  0  0  0  0  0  0  0  0  0  # atno 17371 bound_to 10713
  140.6547  133.9699  155.7773 LP  0  0  0  0  0  0  0  0  0  0  0  0  # atno 17394 bound_to 11000
  141.0684  134.0242  157.3561 LP  0  0  0  0  0  0  0  0  0  0  0  0  # atno 17395 bound_to 11000

$$$$
