AV-unprocessed.smi:25|AV-procd|sdf|180|dock1
  -GOLD-   2262015443D 1   1.00000     0.00000
 Structure written by MMmdl.
 47 50  0  0  0  0  0  0  0  0  1 V2000
  149.6403  142.1452  157.9367 C   0  0  0  0  0  0  0  0  0  0  0  0
  151.1611  142.2466  157.7043 C   0  0  1  0  0  0  0  0  0  0  0  0
  151.8594  143.0004  158.8585 C   0  0  0  0  0  0  0  0  0  0  0  0
  152.7402  141.9535  159.4667 C   0  0  0  0  0  0  0  0  0  0  0  0
  153.5297  142.1075  160.6195 C   0  0  0  0  0  0  0  0  0  0  0  0
  154.2819  141.0036  161.0675 C   0  0  0  0  0  0  0  0  0  0  0  0
  154.2249  139.7775  160.3692 C   0  0  0  0  0  0  0  0  0  0  0  0
  153.4248  139.6410  159.2135 C   0  0  0  0  0  0  0  0  0  0  0  0
  152.6830  140.7563  158.7543 C   0  0  0  0  0  0  0  0  0  0  0  0
  151.8028  140.9127  157.6401 N   0  0  0  0  0  0  0  0  0  0  0  0
  151.6293  140.1154  156.5496 C   0  0  0  0  0  0  0  0  0  0  0  0
  150.9334  140.4835  155.6000 O   0  0  0  0  0  0  0  0  0  0  0  0
  152.3161  138.7399  156.4453 C   0  0  0  0  0  0  0  0  0  0  0  0
  151.4250  137.5997  156.7637 N   0  0  0  0  0  0  0  0  0  0  0  0
  151.2791  136.5617  155.8087 C   0  0  0  0  0  0  0  0  0  0  0  0
  151.8693  136.5996  154.7281 O   0  0  0  0  0  0  0  0  0  0  0  0
  150.4049  135.4620  156.2009 C   0  0  0  0  0  0  0  0  0  0  0  0
  150.2134  134.4315  155.3600 F   0  0  0  0  0  0  0  0  0  0  0  0
  149.7875  135.4592  157.3998 C   0  0  0  0  0  0  0  0  0  0  0  0
  149.9370  136.4793  158.3211 N   0  0  0  0  0  0  0  0  0  0  0  0
  149.2430  136.4323  159.6641 C   0  0  2  0  0  0  0  0  0  0  0  0
  148.5943  135.0599  159.8773 C   0  0  0  0  0  0  0  0  0  0  0  0
  147.1767  135.3081  159.4091 C   0  0  0  0  0  0  0  0  0  0  0  0
  146.9586  136.7524  159.8454 C   0  0  0  0  0  0  0  0  0  0  0  0
  148.2231  137.3897  159.6845 O   0  0  0  0  0  0  0  0  0  0  0  0
  150.7796  137.5722  158.0236 C   0  0  0  0  0  0  0  0  0  0  0  0
  150.9573  138.4721  158.8475 O   0  0  0  0  0  0  0  0  0  0  0  0
  149.1956  143.1359  158.0343 H   0  0  0  0  0  0  0  0  0  0  0  0
  149.4172  141.5901  158.8484 H   0  0  0  0  0  0  0  0  0  0  0  0
  149.1324  141.6453  157.1123 H   0  0  0  0  0  0  0  0  0  0  0  0
  151.3440  142.7909  156.7760 H   0  0  0  0  0  0  0  0  0  0  0  0
  152.4691  143.8250  158.4874 H   0  0  0  0  0  0  0  0  0  0  0  0
  151.1594  143.3920  159.5977 H   0  0  0  0  0  0  0  0  0  0  0  0
  153.5559  143.0467  161.1522 H   0  0  0  0  0  0  0  0  0  0  0  0
  154.8966  141.0926  161.9510 H   0  0  0  0  0  0  0  0  0  0  0  0
  154.7961  138.9330  160.7257 H   0  0  0  0  0  0  0  0  0  0  0  0
  153.4093  138.6772  158.7383 H   0  0  0  0  0  0  0  0  0  0  0  0
  152.7216  138.6222  155.4401 H   0  0  0  0  0  0  0  0  0  0  0  0
  153.1740  138.7319  157.1175 H   0  0  0  0  0  0  0  0  0  0  0  0
  149.1584  134.6152  157.6394 H   0  0  0  0  0  0  0  0  0  0  0  0
  149.9983  136.6868  160.4093 H   0  0  0  0  0  0  0  0  0  0  0  0
  149.1096  134.2654  159.3360 H   0  0  0  0  0  0  0  0  0  0  0  0
  148.6096  134.8297  160.9433 H   0  0  0  0  0  0  0  0  0  0  0  0
  147.1171  135.2262  158.3233 H   0  0  0  0  0  0  0  0  0  0  0  0
  146.4538  134.6176  159.8443 H   0  0  0  0  0  0  0  0  0  0  0  0
  146.1811  137.2534  159.2686 H   0  0  0  0  0  0  0  0  0  0  0  0
  146.6797  136.7917  160.8990 H   0  0  0  0  0  0  0  0  0  0  0  0
  1  2  1  0  0  0  0
  1 28  1  0  0  0  0
  1 29  1  0  0  0  0
  1 30  1  0  0  0  0
  2 10  1  0  0  0  0
  2  3  1  0  0  0  0
  2 31  1  0  0  0  0
  3  4  1  0  0  0  0
  3 32  1  0  0  0  0
  3 33  1  0  0  0  0
  4  9  2  0  0  0  0
  4  5  1  0  0  0  0
  5  6  2  0  0  0  0
  5 34  1  0  0  0  0
  6  7  1  0  0  0  0
  6 35  1  0  0  0  0
  7  8  2  0  0  0  0
  7 36  1  0  0  0  0
  8  9  1  0  0  0  0
  8 37  1  0  0  0  0
  9 10  1  0  0  0  0
 10 11  1  0  0  0  0
 11 12  2  0  0  0  0
 11 13  1  0  0  0  0
 13 14  1  0  0  0  0
 13 38  1  0  0  0  0
 13 39  1  0  0  0  0
 14 26  1  0  0  0  0
 14 15  1  0  0  0  0
 15 16  2  0  0  0  0
 15 17  1  0  0  0  0
 17 18  1  0  0  0  0
 17 19  2  0  0  0  0
 19 20  1  0  0  0  0
 19 40  1  0  0  0  0
 20 21  1  0  0  0  0
 20 26  1  0  0  0  0
 21 25  1  0  0  0  0
 21 22  1  0  0  0  0
 21 41  1  0  0  0  0
 22 23  1  0  0  0  0
 22 42  1  0  0  0  0
 22 43  1  0  0  0  0
 23 24  1  0  0  0  0
 23 44  1  0  0  0  0
 23 45  1  0  0  0  0
 24 25  1  0  0  0  0
 24 46  1  0  0  0  0
 24 47  1  0  0  0  0
 26 27  2  0  0  0  0
M  END
> <s_m_source_file>
AV-unprocessed.smi

> <i_m_source_file_index>
25

> <i_lp_mmshare_version>
43012

> <i_f3d_flags>
0

> <s_epik_input>
W2NIXTFbY0hdW2NIXVtjSF1jKGMxMilOKFtDQEhdKFtDSDNdKVtDSDJdMilDKD1PKVtDSDJdbjNjKD1PKWMoRilbY0hdbihjMz1PKVtDQEBIXTRbQ0gyXVtDSDJdW0NIMl1PNA==

> <s_epik_cmdline>
J2VwaWtfcHl0aG9uJywgJy1waCcsICc3LjAnLCAnLXRuJywgJzgnLCAnLW1hJywgJzIwMCcsICctbWV0YWxfYmluZGluZycsICctaW1hZScsICc8aW5maWxlLm1hZT4nLCAnLW9tYWUnLCAnPG91dGZpbGUubWFlPic=

> <r_lp_tautomer_probability>
1

> <r_epik_Ionization_Penalty>
1.67943e-06

> <r_epik_Ionization_Penalty_Charging>
3.79603e-09

> <r_epik_Ionization_Penalty_Neutral>
1.67563e-06

> <r_epik_State_Penalty>
-0

> <r_epik_Charging_Adjusted_Penalty>
3.79603e-09

> <i_epik_Tot_Q>
0

> <i_epik_Tot_abs_Q>
0

> <r_epik_Metal_State_Penalty>
-0

> <b_epik_Metal_Only>
0

> <s_epik_Chemistry_Notes>
This compound contains an acetal/aminal-like group ( X-CH(R)-Y where X, Y are N, S, or O) that may be acid/base labile, releasing an aldehyde.

> <s_lp_Force_Field>
OPLS_2005

> <r_lp_Energy>
55.2786

> <b_lp_Chiralities_Consistent>
1

> <s_lp_Variant>
AV-unprocessed.smi:25-2

> <Gold.Version>
5.8.1

> <Gold.Id.Protein>
6NUR|6NUR_protein|mol2

> <Gold.PLP.Fitness>
49.0257

> <Gold.PLP.PLP>
-43.7651

> <Gold.PLP.part.hbond>
-2.9491

> <Gold.PLP.part.metal>
0.0000

> <Gold.PLP.part.buried>
-5.5508

> <Gold.PLP.part.nonpolar>
-35.9946

> <Gold.PLP.part.repulsive>
0.1745

> <Gold.PLP.ligand.clash>
0.0000

> <Gold.PLP.ligand.torsion>
0.5175

> <Gold.PLP.Chemscore.Hbond>
2.0838

> <Gold.PLP.Chemscore.CHOScore>
0.0000

> <Gold.PLP.Chemscore.Metal>
0.0000

> <Gold.Chemscore.Hbonds>
donor molecule, donor type, donor heavy atom, donor atom, acceptor molecule, acceptor atom, score
      P1  H  6934  6947       L1    25  0.03
      P1  H  7989  7998       L1    12  0.44
      P1  H 10752 10765       L1    16  0.91

> <Gold.PLP.Chemscore.Internal.Correction>
0.0441

> <Gold.Rescore>
     Score         DG    S(hbond)    S(metal)    S(lipo)     H(rot)  DE(clash)    DE(int)     intcor
     16.33     -19.18       1.85        0.00      98.24       1.55       0.06       2.78       ----

> <Gold.Chemscore.Fitness>
16.3321

> <Gold.Chemscore.DG>
-19.1751

> <Gold.Chemscore.ZeroCoef>
-5.4800

> <Gold.Chemscore.Hbond>
1.8461

> <Gold.Chemscore.Metal>
0.0000

> <Gold.Chemscore.Lipo>
98.2416

> <Gold.Chemscore.Internal_Hbond>
0.0000

> <Gold.Chemscore.DEClash>
0.0592

> <Gold.Chemscore.DEInternal>
2.7839

> <Gold.Chemscore.Rot>
1.5489

> <Gold.Chemscore.Internal.Correction>
   9.000000E+99

> <Gold.Chemscore.Hbonds>
donor molecule, donor type, donor heavy atom, donor atom, acceptor molecule, acceptor atom, score
      P1  H  7989  7998       L1    12  0.43
      P1  H 10752 10765       L1    16  0.85

> <Gold.Chemscore.Hbond.Weighted>
-6.1660

> <Gold.Chemscore.Metal.Weighted>
-0.0000

> <Gold.Chemscore.Lipo.Weighted>
-11.4943

> <Gold.Chemscore.Internal_Hbond.Weighted>
0.0000

> <Gold.Chemscore.DEClash.Weighted>
0.0592

> <Gold.Chemscore.DEInternal.Weighted>
2.7839

> <Gold.Chemscore.Rot.Weighted>
3.9651

> <Gold.Chemscore.Internal.Correction.Weighted>
   9.000000E+99

> <Gold.Protein.RotatedTorsions>
[ 6907 6896 6895 6894 ] final   41.71 input  -60.11 | X-H torsion
[ 7974 7965 7964 7962 ] final  132.66 input  175.53 | X-H torsion
[ 8008 7997 7996 7995 ] final -133.15 input   59.86 | X-H torsion
[ 10167 10162 10161 10158 ] final  -73.59 input  -65.29 | X-H torsion
[ 10718 10713 10712 10709 ] final  109.22 input   66.30 | X-H torsion
[ 10763 10752 10751 10750 ] final  159.80 input  -60.55 | X-H torsion
[ 11005 11000 10999 10996 ] final  134.25 input  -57.11 | X-H torsion

> <Gold.Protein.ActiveResidues>
 VAL166  LYS551  ARG553  GLY616  TRP617  ASP618  TYR619  PRO620  LYS621  CYS622 
 ASP623  PHE694  ASN695  SER759  ASP760  ASP761  ALA762  ILE779  LEU786  VAL792 
 PHE793  MET794  SER795  GLU796  ALA797  LYS798  CYS799  TRP800  GLU811  SER814 

> <Gold.Protein.RotatedAtoms>
  152.1987  134.8607  160.0509 H   0  0  0  0  0  0  0  0  0  0  0  0  # atno 6907 bound_to 6896
  151.9468  133.3649  159.3993 H   0  0  0  0  0  0  0  0  0  0  0  0  # atno 6908 bound_to 6896
  150.6950  134.4305  159.5290 H   0  0  0  0  0  0  0  0  0  0  0  0  # atno 6909 bound_to 6896
  144.9946  139.4373  143.5322 H   0  0  0  0  0  0  0  0  0  0  0  0  # atno 7974 bound_to 7965
  155.3406  140.0472  157.3045 H   0  0  0  0  0  0  0  0  0  0  0  0  # atno 8008 bound_to 7997
  154.5279  140.2247  155.8822 H   0  0  0  0  0  0  0  0  0  0  0  0  # atno 8009 bound_to 7997
  156.1758  140.3085  155.9063 H   0  0  0  0  0  0  0  0  0  0  0  0  # atno 8010 bound_to 7997
  140.5097  143.2347  151.7613 H   0  0  0  0  0  0  0  0  0  0  0  0  # atno 10167 bound_to 10162
  157.6551  131.0909  150.6421 H   0  0  0  0  0  0  0  0  0  0  0  0  # atno 10718 bound_to 10713
  154.2374  135.2776  155.2867 H   0  0  0  0  0  0  0  0  0  0  0  0  # atno 10763 bound_to 10752
  154.5573  135.5657  153.6979 H   0  0  0  0  0  0  0  0  0  0  0  0  # atno 10764 bound_to 10752
  153.0007  135.6289  154.2517 H   0  0  0  0  0  0  0  0  0  0  0  0  # atno 10765 bound_to 10752
  139.9903  134.9517  156.9840 H   0  0  0  0  0  0  0  0  0  0  0  0  # atno 11005 bound_to 11000
  146.3439  139.9297  142.8755 LP  0  0  0  0  0  0  0  0  0  0  0  0  # atno 17320 bound_to 7965
  145.2238  140.9946  143.4030 LP  0  0  0  0  0  0  0  0  0  0  0  0  # atno 17321 bound_to 7965
  139.4893  144.4407  151.9767 LP  0  0  0  0  0  0  0  0  0  0  0  0  # atno 17342 bound_to 10162
  140.3499  144.3101  150.5951 LP  0  0  0  0  0  0  0  0  0  0  0  0  # atno 17343 bound_to 10162
  156.6728  130.4544  149.5651 LP  0  0  0  0  0  0  0  0  0  0  0  0  # atno 17370 bound_to 10713
  156.1985  130.6605  151.1141 LP  0  0  0  0  0  0  0  0  0  0  0  0  # atno 17371 bound_to 10713
  140.4922  134.1182  155.7235 LP  0  0  0  0  0  0  0  0  0  0  0  0  # atno 17394 bound_to 11000
  141.1560  133.8882  157.1976 LP  0  0  0  0  0  0  0  0  0  0  0  0  # atno 17395 bound_to 11000

$$$$
