AV-unprocessed.smi:2184|AV-procd|sdf|8873|dock3
  -GOLD-   2272012 73D 1   1.00000     0.00000
 Structure written by MMmdl.
 47 48  0  0  0  0  0  0  0  0  1 V2000
  149.2424  132.4110  153.8094 C   0  0  0  0  0  0  0  0  0  0  0  0
  148.4852  133.9092  154.4962 S   0  0  0  0  0  0  0  0  0  0  0  0
  149.9525  134.7859  155.1158 C   0  0  2  0  0  0  0  0  0  0  0  0
  150.4668  134.1184  156.4012 C   0  0  0  0  0  0  0  0  0  0  0  0
  149.6757  136.2782  155.3375 C   0  0  0  0  0  0  0  0  0  0  0  0
  149.7578  136.7673  156.4645 O   0  0  0  0  0  0  0  0  0  0  0  0
  149.3373  136.9906  154.2532 N   0  0  0  0  0  0  0  0  0  0  0  0
  149.0195  138.4135  154.2664 C   0  0  0  0  0  0  0  0  0  0  0  0
  149.8336  139.2368  155.2551 C   0  0  0  0  0  0  0  0  0  0  0  0
  151.2456  139.2515  155.2668 C   0  0  0  0  0  0  0  0  0  0  0  0
  151.9135  140.0422  156.2213 C   0  0  0  0  0  0  0  0  0  0  0  0
  151.1559  140.8031  157.1428 C   0  0  0  0  0  0  0  0  0  0  0  0
  151.8058  141.6050  158.1062 N   0  0  0  0  0  0  0  0  0  0  0  0
  151.8846  141.1037  159.4769 C   0  0  0  0  0  0  0  0  0  0  0  0
  152.8737  141.9355  160.3167 C   0  0  1  0  0  0  0  0  0  0  0  0
  154.3500  141.6352  160.0012 C   0  0  0  0  0  0  0  0  0  0  0  0
  152.5699  143.3273  160.2023 O   0  0  0  0  0  0  0  0  0  0  0  0
  152.5495  143.8263  158.8657 C   0  0  2  0  0  0  0  0  0  0  0  0
  152.2083  145.3190  158.9226 C   0  0  0  0  0  0  0  0  0  0  0  0
  151.5239  143.0350  158.0346 C   0  0  0  0  0  0  0  0  0  0  0  0
  149.8005  140.7801  157.1333 N   0  0  0  0  0  0  0  0  0  0  0  0
  149.1651  140.0209  156.2162 C   0  0  0  0  0  0  0  0  0  0  0  0
  148.4695  131.7463  153.4235 H   0  0  0  0  0  0  0  0  0  0  0  0
  149.8023  131.8790  154.5784 H   0  0  0  0  0  0  0  0  0  0  0  0
  149.9192  132.6588  152.9921 H   0  0  0  0  0  0  0  0  0  0  0  0
  150.7324  134.6838  154.3595 H   0  0  0  0  0  0  0  0  0  0  0  0
  151.3424  134.6362  156.7952 H   0  0  0  0  0  0  0  0  0  0  0  0
  150.7572  133.0847  156.2117 H   0  0  0  0  0  0  0  0  0  0  0  0
  149.7048  134.1077  157.1817 H   0  0  0  0  0  0  0  0  0  0  0  0
  149.2890  136.5157  153.3637 H   0  0  0  0  0  0  0  0  0  0  0  0
  149.1764  138.8204  153.2664 H   0  0  0  0  0  0  0  0  0  0  0  0
  147.9617  138.5424  154.5009 H   0  0  0  0  0  0  0  0  0  0  0  0
  151.8234  138.6689  154.5652 H   0  0  0  0  0  0  0  0  0  0  0  0
  152.9930  140.0442  156.2445 H   0  0  0  0  0  0  0  0  0  0  0  0
  150.8912  141.1553  159.9250 H   0  0  0  0  0  0  0  0  0  0  0  0
  152.1876  140.0558  159.4864 H   0  0  0  0  0  0  0  0  0  0  0  0
  152.7176  141.6765  161.3641 H   0  0  0  0  0  0  0  0  0  0  0  0
  154.5891  140.5967  160.2308 H   0  0  0  0  0  0  0  0  0  0  0  0
  155.0106  142.2649  160.5973 H   0  0  0  0  0  0  0  0  0  0  0  0
  154.5899  141.7964  158.9505 H   0  0  0  0  0  0  0  0  0  0  0  0
  153.5390  143.7247  158.4192 H   0  0  0  0  0  0  0  0  0  0  0  0
  152.1903  145.7561  157.9239 H   0  0  0  0  0  0  0  0  0  0  0  0
  152.9462  145.8646  159.5109 H   0  0  0  0  0  0  0  0  0  0  0  0
  151.2313  145.4835  159.3781 H   0  0  0  0  0  0  0  0  0  0  0  0
  151.5404  143.4002  157.0087 H   0  0  0  0  0  0  0  0  0  0  0  0
  150.5168  143.2103  158.4156 H   0  0  0  0  0  0  0  0  0  0  0  0
  148.0859  140.0400  156.2522 H   0  0  0  0  0  0  0  0  0  0  0  0
  1  2  1  0  0  0  0
  1 23  1  0  0  0  0
  1 24  1  0  0  0  0
  1 25  1  0  0  0  0
  2  3  1  0  0  0  0
  3  4  1  0  0  0  0
  3  5  1  0  0  0  0
  3 26  1  0  0  0  0
  4 27  1  0  0  0  0
  4 28  1  0  0  0  0
  4 29  1  0  0  0  0
  5  6  2  0  0  0  0
  5  7  1  0  0  0  0
  7  8  1  0  0  0  0
  7 30  1  0  0  0  0
  8  9  1  0  0  0  0
  8 31  1  0  0  0  0
  8 32  1  0  0  0  0
  9 22  1  0  0  0  0
  9 10  2  0  0  0  0
 10 11  1  0  0  0  0
 10 33  1  0  0  0  0
 11 12  2  0  0  0  0
 11 34  1  0  0  0  0
 12 13  1  0  0  0  0
 12 21  1  0  0  0  0
 13 20  1  0  0  0  0
 13 14  1  0  0  0  0
 14 15  1  0  0  0  0
 14 35  1  0  0  0  0
 14 36  1  0  0  0  0
 15 16  1  0  0  0  0
 15 17  1  0  0  0  0
 15 37  1  0  0  0  0
 16 38  1  0  0  0  0
 16 39  1  0  0  0  0
 16 40  1  0  0  0  0
 17 18  1  0  0  0  0
 18 19  1  0  0  0  0
 18 20  1  0  0  0  0
 18 41  1  0  0  0  0
 19 42  1  0  0  0  0
 19 43  1  0  0  0  0
 19 44  1  0  0  0  0
 20 45  1  0  0  0  0
 20 46  1  0  0  0  0
 21 22  2  0  0  0  0
 22 47  1  0  0  0  0
M  END
> <s_m_source_file>
AV-unprocessed.smi

> <i_m_source_file_index>
2184

> <i_lp_mmshare_version>
43012

> <i_f3d_flags>
0

> <s_epik_input>
W0NIM11TW0NASF0oW0NIM10pQyg9TylbTkhdW0NIMl1jMVtjSF1bY0hdYyhuW2NIXTEpTjJbQ0gyXVtDQEBIXShbQ0gzXSlPW0NAQEhdKFtDSDNdKVtDSDJdMg==

> <s_epik_cmdline>
J2VwaWtfcHl0aG9uJywgJy1waCcsICc3LjAnLCAnLXRuJywgJzgnLCAnLW1hJywgJzIwMCcsICctbWV0YWxfYmluZGluZycsICctaW1hZScsICc8aW5maWxlLm1hZT4nLCAnLW9tYWUnLCAnPG91dGZpbGUubWFlPic=

> <r_lp_tautomer_probability>
1

> <r_epik_Ionization_Penalty>
0.00551702

> <r_epik_Ionization_Penalty_Charging>
0

> <r_epik_Ionization_Penalty_Neutral>
0.00551702

> <r_epik_State_Penalty>
0.00403758

> <r_epik_Charging_Adjusted_Penalty>
0.00403758

> <i_epik_Tot_Q>
0

> <i_epik_Tot_abs_Q>
0

> <r_epik_Metal_State_Penalty>
-0

> <b_epik_Metal_Only>
0

> <s_lp_Force_Field>
OPLS_2005

> <r_lp_Energy>
19.1656

> <b_lp_Chiralities_Consistent>
1

> <s_lp_Variant>
AV-unprocessed.smi:2184-5

> <Gold.Version>
5.8.1

> <Gold.Id.Protein>
6NUR|6NUR_protein|mol2

> <Gold.PLP.Fitness>
44.1899

> <Gold.PLP.PLP>
-42.0328

> <Gold.PLP.part.hbond>
-0.9426

> <Gold.PLP.part.metal>
0.0000

> <Gold.PLP.part.buried>
-6.1126

> <Gold.PLP.part.nonpolar>
-36.3334

> <Gold.PLP.part.repulsive>
0.0640

> <Gold.PLP.ligand.clash>
0.0000

> <Gold.PLP.ligand.torsion>
0.6065

> <Gold.PLP.Chemscore.Hbond>
1.0000

> <Gold.PLP.Chemscore.CHOScore>
0.0000

> <Gold.PLP.Chemscore.Metal>
0.0000

> <Gold.Chemscore.Hbonds>
donor molecule, donor type, donor heavy atom, donor atom, acceptor molecule, acceptor atom, score
      L1  H     7    30       P1  7948  1.00

> <Gold.PLP.Chemscore.Internal.Correction>
0.3701

> <Gold.Rescore>
     Score         DG    S(hbond)    S(metal)    S(lipo)     H(rot)  DE(clash)    DE(int)     intcor
     15.76     -17.80       0.96        0.00     112.80       1.59       0.02       2.02       ----

> <Gold.Chemscore.Fitness>
15.7632

> <Gold.Chemscore.DG>
-17.8037

> <Gold.Chemscore.ZeroCoef>
-5.4800

> <Gold.Chemscore.Hbond>
0.9605

> <Gold.Chemscore.Metal>
0.0000

> <Gold.Chemscore.Lipo>
112.8040

> <Gold.Chemscore.Internal_Hbond>
0.0000

> <Gold.Chemscore.DEClash>
0.0237

> <Gold.Chemscore.DEInternal>
2.0168

> <Gold.Chemscore.Rot>
1.5947

> <Gold.Chemscore.Internal.Correction>
   9.000000E+99

> <Gold.Chemscore.Hbonds>
donor molecule, donor type, donor heavy atom, donor atom, acceptor molecule, acceptor atom, score
      L1  H     7    30       P1  7948  0.85

> <Gold.Chemscore.Hbond.Weighted>
-3.2080

> <Gold.Chemscore.Metal.Weighted>
-0.0000

> <Gold.Chemscore.Lipo.Weighted>
-13.1981

> <Gold.Chemscore.Internal_Hbond.Weighted>
0.0000

> <Gold.Chemscore.DEClash.Weighted>
0.0237

> <Gold.Chemscore.DEInternal.Weighted>
2.0168

> <Gold.Chemscore.Rot.Weighted>
4.0824

> <Gold.Chemscore.Internal.Correction.Weighted>
   9.000000E+99

> <Gold.Protein.RotatedTorsions>
[ 6907 6896 6895 6894 ] final   68.13 input  -60.11 | X-H torsion
[ 7974 7965 7964 7962 ] final -160.59 input  175.53 | X-H torsion
[ 8008 7997 7996 7995 ] final   80.52 input   59.86 | X-H torsion
[ 10167 10162 10161 10158 ] final   72.38 input  -65.29 | X-H torsion
[ 10718 10713 10712 10709 ] final -104.67 input   66.30 | X-H torsion
[ 10763 10752 10751 10750 ] final -147.47 input  -60.55 | X-H torsion
[ 11005 11000 10999 10996 ] final  103.63 input  -57.11 | X-H torsion

> <Gold.Protein.ActiveResidues>
 VAL166  LYS551  ARG553  GLY616  TRP617  ASP618  TYR619  PRO620  LYS621  CYS622 
 ASP623  PHE694  ASN695  SER759  ASP760  ASP761  ALA762  ILE779  LEU786  VAL792 
 PHE793  MET794  SER795  GLU796  ALA797  LYS798  CYS799  TRP800  GLU811  SER814 

> <Gold.Protein.RotatedAtoms>
  152.4599  134.5207  159.9781 H   0  0  0  0  0  0  0  0  0  0  0  0  # atno 6907 bound_to 6896
  151.5258  133.3452  159.2917 H   0  0  0  0  0  0  0  0  0  0  0  0  # atno 6908 bound_to 6896
  150.8558  134.7926  159.7107 H   0  0  0  0  0  0  0  0  0  0  0  0  # atno 6909 bound_to 6896
  144.7421  140.3519  143.6114 H   0  0  0  0  0  0  0  0  0  0  0  0  # atno 7974 bound_to 7965
  155.8846  140.3442  155.5912 H   0  0  0  0  0  0  0  0  0  0  0  0  # atno 8008 bound_to 7997
  155.7680  140.0841  157.2141 H   0  0  0  0  0  0  0  0  0  0  0  0  # atno 8009 bound_to 7997
  154.4027  140.1523  156.2897 H   0  0  0  0  0  0  0  0  0  0  0  0  # atno 8010 bound_to 7997
  140.0359  144.5428  150.7471 H   0  0  0  0  0  0  0  0  0  0  0  0  # atno 10167 bound_to 10162
  156.0314  130.5526  150.7430 H   0  0  0  0  0  0  0  0  0  0  0  0  # atno 10718 bound_to 10713
  154.8284  135.3359  154.6823 H   0  0  0  0  0  0  0  0  0  0  0  0  # atno 10763 bound_to 10752
  153.7446  135.6943  153.4963 H   0  0  0  0  0  0  0  0  0  0  0  0  # atno 10764 bound_to 10752
  153.2219  135.4446  155.0450 H   0  0  0  0  0  0  0  0  0  0  0  0  # atno 10765 bound_to 10752
  139.8785  134.9270  156.5239 H   0  0  0  0  0  0  0  0  0  0  0  0  # atno 11005 bound_to 11000
  145.7267  139.1724  143.2454 LP  0  0  0  0  0  0  0  0  0  0  0  0  # atno 17320 bound_to 7965
  146.1237  140.7276  142.9445 LP  0  0  0  0  0  0  0  0  0  0  0  0  # atno 17321 bound_to 7965
  140.7281  143.2659  151.4048 LP  0  0  0  0  0  0  0  0  0  0  0  0  # atno 17342 bound_to 10162
  139.6045  144.1225  152.2234 LP  0  0  0  0  0  0  0  0  0  0  0  0  # atno 17343 bound_to 10162
  157.4994  131.0917  151.0333 LP  0  0  0  0  0  0  0  0  0  0  0  0  # atno 17370 bound_to 10713
  157.0718  130.5867  149.5404 LP  0  0  0  0  0  0  0  0  0  0  0  0  # atno 17371 bound_to 10713
  140.8430  133.8190  155.9094 LP  0  0  0  0  0  0  0  0  0  0  0  0  # atno 17394 bound_to 11000
  140.9219  134.2131  157.4921 LP  0  0  0  0  0  0  0  0  0  0  0  0  # atno 17395 bound_to 11000

$$$$
