AV-unprocessed.smi:3096|AV-procd|sdf|11797|dock1
  -GOLD-   2272017173D 1   1.00000     0.00000
 Structure written by MMmdl.
 33 33  0  0  0  0  0  0  0  0  2 V2000
  151.2775  139.3490  155.9382 C   0  0  0  0  0  0  0  0  0  0  0  0
  151.0682  139.1570  154.6241 C   0  0  0  0  0  0  0  0  0  0  0  0
  149.8174  138.5885  153.9689 C   0  0  0  0  0  0  0  0  0  0  0  0
  148.7167  139.5661  153.9312 N   0  0  0  0  0  0  0  0  0  0  0  0
  147.4632  139.3333  153.4931 C   0  0  0  0  0  0  0  0  0  0  0  0
  146.5441  140.3177  153.5278 N   0  3  0  0  0  0  0  0  0  0  0  0
  146.7720  141.6818  154.0195 C   0  0  0  0  0  0  0  0  0  0  0  0
  147.1299  138.1185  153.0170 N   0  0  0  0  0  0  0  0  0  0  0  0
  145.8166  137.7185  152.4942 C   0  0  0  0  0  0  0  0  0  0  0  0
  145.9537  136.7299  151.3261 C   0  0  0  0  0  0  0  0  0  0  0  0
  145.0995  135.5676  151.4893 N   0  0  0  0  0  0  0  0  0  0  0  0
  144.7646  134.6126  150.5529 C   0  0  0  0  0  0  0  0  0  0  0  0
  143.9444  133.7107  151.1681 C   0  0  0  0  0  0  0  0  0  0  0  0
  143.8334  134.2059  152.4972 C   0  0  0  0  0  0  0  0  0  0  0  0
  144.5262  135.3173  152.6870 N   0  0  0  0  0  0  0  0  0  0  0  0
  150.5357  139.1021  156.6834 H   0  0  0  0  0  0  0  0  0  0  0  0
  152.2116  139.7632  156.2882 H   0  0  0  0  0  0  0  0  0  0  0  0
  151.8578  139.4295  153.9390 H   0  0  0  0  0  0  0  0  0  0  0  0
  150.0588  138.2873  152.9495 H   0  0  0  0  0  0  0  0  0  0  0  0
  149.4978  137.6942  154.5044 H   0  0  0  0  0  0  0  0  0  0  0  0
  148.9328  140.4903  154.2765 H   0  0  0  0  0  0  0  0  0  0  0  0
  145.8581  142.2696  153.9343 H   0  0  0  0  0  0  0  0  0  0  0  0
  147.5532  142.1709  153.4374 H   0  0  0  0  0  0  0  0  0  0  0  0
  147.0751  141.6637  155.0664 H   0  0  0  0  0  0  0  0  0  0  0  0
  147.8516  137.4120  152.9807 H   0  0  0  0  0  0  0  0  0  0  0  0
  145.2563  137.2466  153.3017 H   0  0  0  0  0  0  0  0  0  0  0  0
  145.2578  138.6038  152.1890 H   0  0  0  0  0  0  0  0  0  0  0  0
  145.7138  137.2160  150.3790 H   0  0  0  0  0  0  0  0  0  0  0  0
  146.9868  136.3897  151.2471 H   0  0  0  0  0  0  0  0  0  0  0  0
  145.1340  134.6529  149.5387 H   0  0  0  0  0  0  0  0  0  0  0  0
  143.4925  132.8310  150.7346 H   0  0  0  0  0  0  0  0  0  0  0  0
  143.2745  133.7931  153.3241 H   0  0  0  0  0  0  0  0  0  0  0  0
  145.6148  140.1135  153.1889 H   0  0  0  0  0  0  0  0  0  0  0  0
  1  2  2  0  0  0  0
  1 16  1  0  0  0  0
  1 17  1  0  0  0  0
  2  3  1  0  0  0  0
  2 18  1  0  0  0  0
  3  4  1  0  0  0  0
  3 19  1  0  0  0  0
  3 20  1  0  0  0  0
  4  5  1  0  0  0  0
  4 21  1  0  0  0  0
  5  6  2  0  0  0  0
  5  8  1  0  0  0  0
  6  7  1  0  0  0  0
  6 33  1  0  0  0  0
  7 22  1  0  0  0  0
  7 23  1  0  0  0  0
  7 24  1  0  0  0  0
  8  9  1  0  0  0  0
  8 25  1  0  0  0  0
  9 10  1  0  0  0  0
  9 26  1  0  0  0  0
  9 27  1  0  0  0  0
 10 11  1  0  0  0  0
 10 28  1  0  0  0  0
 10 29  1  0  0  0  0
 11 15  1  0  0  0  0
 11 12  1  0  0  0  0
 12 13  2  0  0  0  0
 12 30  1  0  0  0  0
 13 14  1  0  0  0  0
 13 31  1  0  0  0  0
 14 15  2  0  0  0  0
 14 32  1  0  0  0  0
M  CHG  1   6   1
M  END
> <s_m_source_file>
AV-unprocessed.smi

> <i_m_source_file_index>
3096

> <i_lp_mmshare_version>
43012

> <i_f3d_flags>
0

> <s_epik_input>
W0NIMl09W0NIXVtDSDJdW05IXS9DKD1OL1tDSDNdKVtOSF1bQ0gyXVtDSDJdbjFbY0hdW2NIXVtjSF1uMQ==

> <s_epik_cmdline>
J2VwaWtfcHl0aG9uJywgJy1waCcsICc3LjAnLCAnLXRuJywgJzgnLCAnLW1hJywgJzIwMCcsICctbWV0YWxfYmluZGluZycsICctaW1hZScsICc8aW5maWxlLm1hZT4nLCAnLW9tYWUnLCAnPG91dGZpbGUubWFlPic=

> <r_lp_tautomer_probability>
1

> <r_epik_Ionization_Penalty>
5.14269e-05

> <r_epik_Ionization_Penalty_Charging>
1.55211e-07

> <r_epik_Ionization_Penalty_Neutral>
5.12717e-05

> <r_epik_State_Penalty>
-0

> <r_epik_Charging_Adjusted_Penalty>
1.55211e-07

> <i_epik_Tot_Q>
1

> <i_epik_Tot_abs_Q>
1

> <r_epik_Metal_State_Penalty>
-0

> <b_epik_Metal_Only>
0

> <s_epik_Chemistry_Notes>
This compound has an imine and may undergo hydrolysis.

> <s_lp_Force_Field>
OPLS_2005

> <r_lp_Energy>
6.72739

> <b_lp_Chiralities_Consistent>
1

> <s_lp_Variant>
AV-unprocessed.smi:3096-2

> <Gold.Version>
5.8.1

> <Gold.Id.Protein>
6NUR|6NUR_protein|mol2

> <Gold.PLP.Fitness>
43.1598

> <Gold.PLP.PLP>
-27.1342

> <Gold.PLP.part.hbond>
-3.0000

> <Gold.PLP.part.metal>
0.0000

> <Gold.PLP.part.buried>
0.7591

> <Gold.PLP.part.nonpolar>
-25.8197

> <Gold.PLP.part.repulsive>
0.2064

> <Gold.PLP.ligand.clash>
0.0000

> <Gold.PLP.ligand.torsion>
0.7899

> <Gold.PLP.Chemscore.Hbond>
3.8880

> <Gold.PLP.Chemscore.CHOScore>
1.9723

> <Gold.PLP.Chemscore.Metal>
0.0000

> <Gold.Chemscore.Hbonds>
donor molecule, donor type, donor heavy atom, donor atom, acceptor molecule, acceptor atom, score
      L1  H     6    33       P1 10175  1.69
      L1  H     8    25       P1  7948  1.86
      L1  C    12    30       P1  7921  1.00
      L1  C    14    32       P1 10957  0.91

> <Gold.PLP.Chemscore.Internal.Correction>
0.0246

> <Gold.Rescore>
     Score         DG    S(hbond)    S(metal)    S(lipo)     H(rot)  DE(clash)    DE(int)     intcor
     13.01     -13.80       1.88        0.00      58.93       1.89       0.06       0.74       ----

> <Gold.Chemscore.Fitness>
13.0113

> <Gold.Chemscore.DG>
-13.8038

> <Gold.Chemscore.ZeroCoef>
-5.4800

> <Gold.Chemscore.Hbond>
1.8756

> <Gold.Chemscore.Metal>
0.0000

> <Gold.Chemscore.Lipo>
58.9333

> <Gold.Chemscore.Internal_Hbond>
0.0000

> <Gold.Chemscore.DEClash>
0.0575

> <Gold.Chemscore.DEInternal>
0.7350

> <Gold.Chemscore.Rot>
1.8891

> <Gold.Chemscore.Internal.Correction>
   9.000000E+99

> <Gold.Chemscore.Hbonds>
donor molecule, donor type, donor heavy atom, donor atom, acceptor molecule, acceptor atom, score
      L1  H     6    33       P1 10175  0.81
      L1  H     8    25       P1  7948  0.90

> <Gold.Chemscore.Hbond.Weighted>
-6.2646

> <Gold.Chemscore.Metal.Weighted>
-0.0000

> <Gold.Chemscore.Lipo.Weighted>
-6.8952

> <Gold.Chemscore.Internal_Hbond.Weighted>
0.0000

> <Gold.Chemscore.DEClash.Weighted>
0.0575

> <Gold.Chemscore.DEInternal.Weighted>
0.7350

> <Gold.Chemscore.Rot.Weighted>
4.8361

> <Gold.Chemscore.Internal.Correction.Weighted>
   9.000000E+99

> <Gold.Protein.RotatedTorsions>
[ 6907 6896 6895 6894 ] final  -43.61 input  -60.11 | X-H torsion
[ 7974 7965 7964 7962 ] final  -26.46 input  175.53 | X-H torsion
[ 8008 7997 7996 7995 ] final  -20.26 input   59.86 | X-H torsion
[ 10167 10162 10161 10158 ] final -158.02 input  -65.29 | X-H torsion
[ 10718 10713 10712 10709 ] final  179.27 input   66.30 | X-H torsion
[ 10763 10752 10751 10750 ] final  178.48 input  -60.55 | X-H torsion
[ 11005 11000 10999 10996 ] final -168.20 input  -57.11 | X-H torsion

> <Gold.Protein.ActiveResidues>
 VAL166  LYS551  ARG553  GLY616  TRP617  ASP618  TYR619  PRO620  LYS621  CYS622 
 ASP623  PHE694  ASN695  SER759  ASP760  ASP761  ALA762  ILE779  LEU786  VAL792 
 PHE793  MET794  SER795  GLU796  ALA797  LYS798  CYS799  TRP800  GLU811  SER814 

> <Gold.Protein.RotatedAtoms>
  150.9420  134.8829  159.7618 H   0  0  0  0  0  0  0  0  0  0  0  0  # atno 6907 bound_to 6896
  152.5084  134.3928  159.9399 H   0  0  0  0  0  0  0  0  0  0  0  0  # atno 6908 bound_to 6896
  151.3948  133.3737  159.2760 H   0  0  0  0  0  0  0  0  0  0  0  0  # atno 6909 bound_to 6896
  146.1424  140.5023  142.8646 H   0  0  0  0  0  0  0  0  0  0  0  0  # atno 7974 bound_to 7965
  154.4782  140.2067  155.9828 H   0  0  0  0  0  0  0  0  0  0  0  0  # atno 8008 bound_to 7997
  156.1122  140.3227  155.8059 H   0  0  0  0  0  0  0  0  0  0  0  0  # atno 8009 bound_to 7997
  155.4614  140.0524  157.2981 H   0  0  0  0  0  0  0  0  0  0  0  0  # atno 8010 bound_to 7997
  139.6725  143.9721  152.2292 H   0  0  0  0  0  0  0  0  0  0  0  0  # atno 10167 bound_to 10162
  156.8782  130.9807  151.3065 H   0  0  0  0  0  0  0  0  0  0  0  0  # atno 10718 bound_to 10713
  154.5082  135.2787  155.1365 H   0  0  0  0  0  0  0  0  0  0  0  0  # atno 10763 bound_to 10752
  154.2971  135.6255  153.5413 H   0  0  0  0  0  0  0  0  0  0  0  0  # atno 10764 bound_to 10752
  152.9914  135.5688  154.5541 H   0  0  0  0  0  0  0  0  0  0  0  0  # atno 10765 bound_to 10752
  140.5446  134.5488  157.5108 H   0  0  0  0  0  0  0  0  0  0  0  0  # atno 11005 bound_to 11000
  144.7807  140.5834  143.6607 LP  0  0  0  0  0  0  0  0  0  0  0  0  # atno 17320 bound_to 7965
  145.5017  139.1483  143.3654 LP  0  0  0  0  0  0  0  0  0  0  0  0  # atno 17321 bound_to 7965
  139.9489  144.6633  150.8192 LP  0  0  0  0  0  0  0  0  0  0  0  0  # atno 17342 bound_to 10162
  140.7623  143.3195  151.2654 LP  0  0  0  0  0  0  0  0  0  0  0  0  # atno 17343 bound_to 10162
  157.6156  130.8616  149.9022 LP  0  0  0  0  0  0  0  0  0  0  0  0  # atno 17370 bound_to 10713
  156.0691  130.3688  150.0815 LP  0  0  0  0  0  0  0  0  0  0  0  0  # atno 17371 bound_to 10713
  139.9486  134.7657  156.0502 LP  0  0  0  0  0  0  0  0  0  0  0  0  # atno 17394 bound_to 11000
  141.1207  133.6614  156.3208 LP  0  0  0  0  0  0  0  0  0  0  0  0  # atno 17395 bound_to 11000

$$$$
