AV-unprocessed.smi:3068|AV-procd|sdf|11704|dock9
  -GOLD-   2272017103D 1   1.00000     0.00000
 Structure written by MMmdl.
 40 42  0  0  0  0  0  0  0  0  2 V2000
  153.0965  139.0204  155.1514 N   0  0  0  0  0  0  0  0  0  0  0  0
  152.2006  139.6760  155.4782 C   0  0  0  0  0  0  0  0  0  0  0  0
  151.0736  140.5030  155.8903 C   0  0  0  0  0  0  0  0  0  0  0  0
  151.2340  141.2307  157.0197 N   0  0  0  0  0  0  0  0  0  0  0  0
  150.1952  141.9977  157.4140 C   0  0  0  0  0  0  0  0  0  0  0  0
  148.9919  142.0418  156.6834 C   0  0  0  0  0  0  0  0  0  0  0  0
  148.8227  141.3195  155.5553 N   0  0  0  0  0  0  0  0  0  0  0  0
  149.8590  140.5443  155.1486 C   0  0  0  0  0  0  0  0  0  0  0  0
  149.6949  139.7853  153.9764 N   0  0  0  0  0  0  0  0  0  0  0  0
  149.0784  138.4668  154.0148 C   0  0  0  0  0  0  0  0  0  0  0  0
  147.5844  138.5519  154.3853 C   0  0  2  0  0  0  0  0  0  0  0  0
  146.9025  137.1731  154.4649 C   0  0  0  0  0  0  0  0  0  0  0  0
  146.7293  136.5773  153.1189 N   0  3  1  0  0  0  0  0  0  0  0  0
  146.1067  135.2301  153.1789 C   0  0  0  0  0  0  0  0  0  0  0  0
  146.0168  134.5963  151.7817 C   0  0  0  0  0  0  0  0  0  0  0  0
  145.2526  135.5113  150.8170 C   0  0  0  0  0  0  0  0  0  0  0  0
  145.9011  136.9016  150.7907 C   0  0  0  0  0  0  0  0  0  0  0  0
  146.0030  137.5024  152.2073 C   0  0  2  0  0  0  0  0  0  0  0  0
  146.7047  138.8735  152.1765 C   0  0  0  0  0  0  0  0  0  0  0  0
  146.8468  139.3902  153.4953 O   0  0  0  0  0  0  0  0  0  0  0  0
  150.3246  142.5772  158.3160 H   0  0  0  0  0  0  0  0  0  0  0  0
  148.1641  142.6564  157.0047 H   0  0  0  0  0  0  0  0  0  0  0  0
  150.1089  140.1043  153.1115 H   0  0  0  0  0  0  0  0  0  0  0  0
  149.2166  137.9620  153.0587 H   0  0  0  0  0  0  0  0  0  0  0  0
  149.6023  137.8678  154.7608 H   0  0  0  0  0  0  0  0  0  0  0  0
  147.5172  139.0099  155.3730 H   0  0  0  0  0  0  0  0  0  0  0  0
  147.4855  136.5022  155.0972 H   0  0  0  0  0  0  0  0  0  0  0  0
  145.9238  137.2778  154.9356 H   0  0  0  0  0  0  0  0  0  0  0  0
  146.6941  134.5854  153.8336 H   0  0  0  0  0  0  0  0  0  0  0  0
  145.1110  135.3066  153.6194 H   0  0  0  0  0  0  0  0  0  0  0  0
  147.0204  134.4105  151.3965 H   0  0  0  0  0  0  0  0  0  0  0  0
  145.5235  133.6259  151.8437 H   0  0  0  0  0  0  0  0  0  0  0  0
  145.2437  135.0802  149.8153 H   0  0  0  0  0  0  0  0  0  0  0  0
  144.2114  135.5944  151.1312 H   0  0  0  0  0  0  0  0  0  0  0  0
  146.8956  136.8281  150.3478 H   0  0  0  0  0  0  0  0  0  0  0  0
  145.3239  137.5633  150.1441 H   0  0  0  0  0  0  0  0  0  0  0  0
  144.9945  137.6416  152.6015 H   0  0  0  0  0  0  0  0  0  0  0  0
  147.6750  138.8111  151.6832 H   0  0  0  0  0  0  0  0  0  0  0  0
  146.1131  139.5813  151.5952 H   0  0  0  0  0  0  0  0  0  0  0  0
  147.6544  136.4539  152.7323 H   0  0  0  0  0  0  0  0  0  0  0  0
  1  2  3  0  0  0  0
  2  3  1  0  0  0  0
  3  8  1  0  0  0  0
  3  4  2  0  0  0  0
  4  5  1  0  0  0  0
  5  6  2  0  0  0  0
  5 21  1  0  0  0  0
  6  7  1  0  0  0  0
  6 22  1  0  0  0  0
  7  8  2  0  0  0  0
  8  9  1  0  0  0  0
  9 10  1  0  0  0  0
  9 23  1  0  0  0  0
 10 11  1  0  0  0  0
 10 24  1  0  0  0  0
 10 25  1  0  0  0  0
 11 20  1  0  0  0  0
 11 12  1  0  0  0  0
 11 26  1  0  0  0  0
 12 13  1  0  0  0  0
 12 27  1  0  0  0  0
 12 28  1  0  0  0  0
 13 18  1  0  0  0  0
 13 14  1  0  0  0  0
 13 40  1  0  0  0  0
 14 15  1  0  0  0  0
 14 29  1  0  0  0  0
 14 30  1  0  0  0  0
 15 16  1  0  0  0  0
 15 31  1  0  0  0  0
 15 32  1  0  0  0  0
 16 17  1  0  0  0  0
 16 33  1  0  0  0  0
 16 34  1  0  0  0  0
 17 18  1  0  0  0  0
 17 35  1  0  0  0  0
 17 36  1  0  0  0  0
 18 19  1  0  0  0  0
 18 37  1  0  0  0  0
 19 20  1  0  0  0  0
 19 38  1  0  0  0  0
 19 39  1  0  0  0  0
M  CHG  1  13   1
M  END
> <s_m_source_file>
AV-unprocessed.smi

> <i_m_source_file_index>
3068

> <i_lp_mmshare_version>
43012

> <i_f3d_flags>
0

> <s_epik_input>
TiNDYzFuW2NIXVtjSF1uYzFbTkhdW0NIMl1bQ0BIXShbQ0gyXTIpT1tDSDJdW0NAQEhdKE4yMylbQ0gyXVtDSDJdW0NIMl1bQ0gyXTM=

> <s_epik_cmdline>
J2VwaWtfcHl0aG9uJywgJy1waCcsICc3LjAnLCAnLXRuJywgJzgnLCAnLW1hJywgJzIwMCcsICctbWV0YWxfYmluZGluZycsICctaW1hZScsICc8aW5maWxlLm1hZT4nLCAnLW9tYWUnLCAnPG91dGZpbGUubWFlPic=

> <r_epik_Ionization_Penalty>
0.0804321

> <r_epik_Ionization_Penalty_Charging>
0.0803403

> <r_epik_Ionization_Penalty_Neutral>
9.17277e-05

> <r_epik_State_Penalty>
0.0711481

> <r_epik_Charging_Adjusted_Penalty>
0.151488

> <i_epik_Tot_Q>
1

> <i_epik_Tot_abs_Q>
1

> <r_epik_Metal_State_Penalty>
0.0711481

> <b_epik_Metal_Only>
0

> <s_lp_Force_Field>
OPLS_2005

> <r_lp_Energy>
40.024

> <b_lp_Chiralities_Consistent>
1

> <s_lp_Variant>
AV-unprocessed.smi:3068-7

> <Gold.Version>
5.8.1

> <Gold.Id.Protein>
6NUR|6NUR_protein|mol2

> <Gold.PLP.Fitness>
39.4710

> <Gold.PLP.PLP>
-28.8756

> <Gold.PLP.part.hbond>
-3.0000

> <Gold.PLP.part.metal>
0.0000

> <Gold.PLP.part.buried>
3.1675

> <Gold.PLP.part.nonpolar>
-30.3400

> <Gold.PLP.part.repulsive>
0.5394

> <Gold.PLP.ligand.clash>
0.0000

> <Gold.PLP.ligand.torsion>
0.7759

> <Gold.PLP.Chemscore.Hbond>
3.7360

> <Gold.PLP.Chemscore.CHOScore>
0.3110

> <Gold.PLP.Chemscore.Metal>
0.0000

> <Gold.Chemscore.Hbonds>
donor molecule, donor type, donor heavy atom, donor atom, acceptor molecule, acceptor atom, score
      L1  H     9    23       P1  7957  0.74
      L1  H    13    40       P1  7948  2.00
      P1  H  7997  8010       L1     1  0.94
      L1  C     6    22       P1  8028  0.30

> <Gold.PLP.Chemscore.Internal.Correction>
0.0062

> <Gold.Rescore>
     Score         DG    S(hbond)    S(metal)    S(lipo)     H(rot)  DE(clash)    DE(int)     intcor
     15.19     -17.53       2.49        0.00      60.81       1.32       1.59       0.76       ----

> <Gold.Chemscore.Fitness>
15.1894

> <Gold.Chemscore.DG>
-17.5337

> <Gold.Chemscore.ZeroCoef>
-5.4800

> <Gold.Chemscore.Hbond>
2.4900

> <Gold.Chemscore.Metal>
0.0000

> <Gold.Chemscore.Lipo>
60.8080

> <Gold.Chemscore.Internal_Hbond>
0.0000

> <Gold.Chemscore.DEClash>
1.5880

> <Gold.Chemscore.DEInternal>
0.7563

> <Gold.Chemscore.Rot>
1.3193

> <Gold.Chemscore.Internal.Correction>
   9.000000E+99

> <Gold.Chemscore.Hbonds>
donor molecule, donor type, donor heavy atom, donor atom, acceptor molecule, acceptor atom, score
      L1  H     9    23       P1  7957  0.70
      L1  H    13    40       P1  7948  0.97
      P1  H  7997  8010       L1     1  0.20

> <Gold.Chemscore.Hbond.Weighted>
-8.3165

> <Gold.Chemscore.Metal.Weighted>
-0.0000

> <Gold.Chemscore.Lipo.Weighted>
-7.1145

> <Gold.Chemscore.Internal_Hbond.Weighted>
0.0000

> <Gold.Chemscore.DEClash.Weighted>
1.5880

> <Gold.Chemscore.DEInternal.Weighted>
0.7563

> <Gold.Chemscore.Rot.Weighted>
3.3774

> <Gold.Chemscore.Internal.Correction.Weighted>
   9.000000E+99

> <Gold.Protein.RotatedTorsions>
[ 6907 6896 6895 6894 ] final   78.65 input  -60.11 | X-H torsion
[ 7974 7965 7964 7962 ] final -155.74 input  175.53 | X-H torsion
[ 8008 7997 7996 7995 ] final  118.37 input   59.86 | X-H torsion
[ 10167 10162 10161 10158 ] final -143.74 input  -65.29 | X-H torsion
[ 10718 10713 10712 10709 ] final  135.53 input   66.30 | X-H torsion
[ 10763 10752 10751 10750 ] final -154.43 input  -60.55 | X-H torsion
[ 11005 11000 10999 10996 ] final -167.99 input  -57.11 | X-H torsion

> <Gold.Protein.ActiveResidues>
 VAL166  LYS551  ARG553  GLY616  TRP617  ASP618  TYR619  PRO620  LYS621  CYS622 
 ASP623  PHE694  ASN695  SER759  ASP760  ASP761  ALA762  ILE779  LEU786  VAL792 
 PHE793  MET794  SER795  GLU796  ALA797  LYS798  CYS799  TRP800  GLU811  SER814 

> <Gold.Protein.RotatedAtoms>
  152.5168  134.3631  159.9291 H   0  0  0  0  0  0  0  0  0  0  0  0  # atno 6907 bound_to 6896
  151.3584  133.3892  159.2695 H   0  0  0  0  0  0  0  0  0  0  0  0  # atno 6908 bound_to 6896
  150.9671  134.9069  159.7824 H   0  0  0  0  0  0  0  0  0  0  0  0  # atno 6909 bound_to 6896
  144.7625  140.4207  143.5966 H   0  0  0  0  0  0  0  0  0  0  0  0  # atno 7974 bound_to 7965
  156.2543  140.2876  156.0824 H   0  0  0  0  0  0  0  0  0  0  0  0  # atno 8008 bound_to 7997
  155.1552  140.0398  157.2847 H   0  0  0  0  0  0  0  0  0  0  0  0  # atno 8009 bound_to 7997
  154.6432  140.2527  155.7305 H   0  0  0  0  0  0  0  0  0  0  0  0  # atno 8010 bound_to 7997
  139.7965  143.7893  152.2654 H   0  0  0  0  0  0  0  0  0  0  0  0  # atno 10167 bound_to 10162
  157.4560  131.1070  150.9976 H   0  0  0  0  0  0  0  0  0  0  0  0  # atno 10718 bound_to 10713
  154.7859  135.3190  154.7887 H   0  0  0  0  0  0  0  0  0  0  0  0  # atno 10763 bound_to 10752
  153.8587  135.6855  153.4789 H   0  0  0  0  0  0  0  0  0  0  0  0  # atno 10764 bound_to 10752
  153.1510  135.4699  154.9576 H   0  0  0  0  0  0  0  0  0  0  0  0  # atno 10765 bound_to 10752
  140.5470  134.5465  157.5113 H   0  0  0  0  0  0  0  0  0  0  0  0  # atno 11005 bound_to 11000
  145.6572  139.1575  143.2828 LP  0  0  0  0  0  0  0  0  0  0  0  0  # atno 17320 bound_to 7965
  146.1703  140.6656  142.9236 LP  0  0  0  0  0  0  0  0  0  0  0  0  # atno 17321 bound_to 7965
  139.8000  144.7378  150.9838 LP  0  0  0  0  0  0  0  0  0  0  0  0  # atno 17342 bound_to 10162
  140.7820  143.4355  151.0630 LP  0  0  0  0  0  0  0  0  0  0  0  0  # atno 17343 bound_to 10162
  157.0790  130.5895  149.5417 LP  0  0  0  0  0  0  0  0  0  0  0  0  # atno 17370 bound_to 10713
  156.0008  130.5086  150.7654 LP  0  0  0  0  0  0  0  0  0  0  0  0  # atno 17371 bound_to 10713
  139.9474  134.7677  156.0529 LP  0  0  0  0  0  0  0  0  0  0  0  0  # atno 17394 bound_to 11000
  141.1194  133.6617  156.3175 LP  0  0  0  0  0  0  0  0  0  0  0  0  # atno 17395 bound_to 11000

$$$$
