AV-unprocessed.smi:2345|AV-procd|sdf|9364|dock2
  -GOLD-   2272012583D 1   1.00000     0.00000
 Structure written by MMmdl.
 37 38  0  0  0  0  0  0  0  0  1 V2000
  151.4801  138.1156  154.0794 C   0  0  0  0  0  0  0  0  0  0  0  0
  150.6918  139.4211  154.2086 C   0  0  0  0  0  0  0  0  0  0  0  0
  148.9603  139.2027  153.7134 S   0  0  0  0  0  0  0  0  0  0  0  0
  148.2966  140.8545  154.0804 C   0  0  1  0  0  0  0  0  0  0  0  0
  147.0255  141.1547  153.2815 C   0  0  0  0  0  0  0  0  0  0  0  0
  146.2957  142.2005  154.1173 C   0  0  0  0  0  0  0  0  0  0  0  0
  146.5443  141.7649  155.5615 C   0  0  0  0  0  0  0  0  0  0  0  0
  147.9058  141.0407  155.5626 C   0  0  2  0  0  0  0  0  0  0  0  0
  148.9195  141.8199  156.2697 N   0  0  0  0  0  0  0  0  0  0  0  0
  149.7570  141.3326  157.1954 C   0  0  0  0  0  0  0  0  0  0  0  0
  149.7505  140.1582  157.5637 O   0  0  0  0  0  0  0  0  0  0  0  0
  150.5966  142.2843  157.6374 N   0  0  0  0  0  0  0  0  0  0  0  0
  151.6285  142.1799  158.6100 C   0  0  0  0  0  0  0  0  0  0  0  0
  152.1696  140.9535  159.0672 C   0  0  0  0  0  0  0  0  0  0  0  0
  153.1794  140.9862  160.0499 C   0  0  0  0  0  0  0  0  0  0  0  0
  153.6567  142.1279  160.5891 N   0  0  0  0  0  0  0  0  0  0  0  0
  153.1288  143.2942  160.1612 C   0  0  0  0  0  0  0  0  0  0  0  0
  152.1169  143.3731  159.1835 C   0  0  0  0  0  0  0  0  0  0  0  0
  151.6278  144.5781  158.8019 F   0  0  0  0  0  0  0  0  0  0  0  0
  152.5177  138.2571  154.3822 H   0  0  0  0  0  0  0  0  0  0  0  0
  151.4797  137.7569  153.0498 H   0  0  0  0  0  0  0  0  0  0  0  0
  151.0527  137.3344  154.7085 H   0  0  0  0  0  0  0  0  0  0  0  0
  150.7273  139.7743  155.2392 H   0  0  0  0  0  0  0  0  0  0  0  0
  151.1453  140.1928  153.5864 H   0  0  0  0  0  0  0  0  0  0  0  0
  149.0481  141.5933  153.7962 H   0  0  0  0  0  0  0  0  0  0  0  0
  147.2385  141.5005  152.2696 H   0  0  0  0  0  0  0  0  0  0  0  0
  146.4071  140.2591  153.2042 H   0  0  0  0  0  0  0  0  0  0  0  0
  146.7391  143.1823  153.9466 H   0  0  0  0  0  0  0  0  0  0  0  0
  145.2345  142.2662  153.8760 H   0  0  0  0  0  0  0  0  0  0  0  0
  146.4995  142.6085  156.2519 H   0  0  0  0  0  0  0  0  0  0  0  0
  145.7662  141.0637  155.8659 H   0  0  0  0  0  0  0  0  0  0  0  0
  147.7869  140.0668  156.0416 H   0  0  0  0  0  0  0  0  0  0  0  0
  148.9952  142.7962  156.0243 H   0  0  0  0  0  0  0  0  0  0  0  0
  150.5297  143.1814  157.1792 H   0  0  0  0  0  0  0  0  0  0  0  0
  151.8280  139.9986  158.6994 H   0  0  0  0  0  0  0  0  0  0  0  0
  153.6115  140.0672  160.4175 H   0  0  0  0  0  0  0  0  0  0  0  0
  153.5236  144.1922  160.6131 H   0  0  0  0  0  0  0  0  0  0  0  0
  1  2  1  0  0  0  0
  1 20  1  0  0  0  0
  1 21  1  0  0  0  0
  1 22  1  0  0  0  0
  2  3  1  0  0  0  0
  2 23  1  0  0  0  0
  2 24  1  0  0  0  0
  3  4  1  0  0  0  0
  4  8  1  0  0  0  0
  4  5  1  0  0  0  0
  4 25  1  0  0  0  0
  5  6  1  0  0  0  0
  5 26  1  0  0  0  0
  5 27  1  0  0  0  0
  6  7  1  0  0  0  0
  6 28  1  0  0  0  0
  6 29  1  0  0  0  0
  7  8  1  0  0  0  0
  7 30  1  0  0  0  0
  7 31  1  0  0  0  0
  8  9  1  0  0  0  0
  8 32  1  0  0  0  0
  9 10  1  0  0  0  0
  9 33  1  0  0  0  0
 10 11  2  0  0  0  0
 10 12  1  0  0  0  0
 12 13  1  0  0  0  0
 12 34  1  0  0  0  0
 13 18  1  0  0  0  0
 13 14  2  0  0  0  0
 14 15  1  0  0  0  0
 14 35  1  0  0  0  0
 15 16  2  0  0  0  0
 15 36  1  0  0  0  0
 16 17  1  0  0  0  0
 17 18  2  0  0  0  0
 17 37  1  0  0  0  0
 18 19  1  0  0  0  0
M  END
> <s_m_source_file>
AV-unprocessed.smi

> <i_m_source_file_index>
2345

> <i_lp_mmshare_version>
43012

> <i_f3d_flags>
0

> <s_epik_input>
W0NIM11bQ0gyXVNbQ0BASF0xW0NIMl1bQ0gyXVtDSDJdW0NASF0xW05IXUMoPU8pW05IXWMyW2NIXVtjSF1uW2NIXWMyRg==

> <s_epik_cmdline>
J2VwaWtfcHl0aG9uJywgJy1waCcsICc3LjAnLCAnLXRuJywgJzgnLCAnLW1hJywgJzIwMCcsICctbWV0YWxfYmluZGluZycsICctaW1hZScsICc8aW5maWxlLm1hZT4nLCAnLW9tYWUnLCAnPG91dGZpbGUubWFlPic=

> <r_epik_Ionization_Penalty>
0.00333745

> <r_epik_Ionization_Penalty_Charging>
0

> <r_epik_Ionization_Penalty_Neutral>
0.00333745

> <r_epik_State_Penalty>
0.00233401

> <r_epik_Charging_Adjusted_Penalty>
0.00233401

> <i_epik_Tot_Q>
0

> <i_epik_Tot_abs_Q>
0

> <r_epik_Metal_State_Penalty>
-0

> <b_epik_Metal_Only>
0

> <s_lp_Force_Field>
OPLS_2005

> <r_lp_Energy>
20.2483

> <b_lp_Chiralities_Consistent>
1

> <s_lp_Variant>
AV-unprocessed.smi:2345-4

> <Gold.Version>
5.8.1

> <Gold.Id.Protein>
6NUR|6NUR_protein|mol2

> <Gold.PLP.Fitness>
43.9826

> <Gold.PLP.PLP>
-41.8089

> <Gold.PLP.part.hbond>
-1.0000

> <Gold.PLP.part.metal>
0.0000

> <Gold.PLP.part.buried>
-5.5926

> <Gold.PLP.part.nonpolar>
-35.3889

> <Gold.PLP.part.repulsive>
0.0891

> <Gold.PLP.ligand.clash>
0.0000

> <Gold.PLP.ligand.torsion>
0.4185

> <Gold.PLP.Chemscore.Hbond>
1.0000

> <Gold.PLP.Chemscore.CHOScore>
0.0000

> <Gold.PLP.Chemscore.Metal>
0.0000

> <Gold.Chemscore.Hbonds>
donor molecule, donor type, donor heavy atom, donor atom, acceptor molecule, acceptor atom, score
      L1  H     9    33       P1  8028  1.00

> <Gold.PLP.Chemscore.Internal.Correction>
0.0106

> <Gold.Rescore>
     Score         DG    S(hbond)    S(metal)    S(lipo)     H(rot)  DE(clash)    DE(int)     intcor
     16.45     -17.23       1.02        0.00     100.81       1.35       0.05       0.73       ----

> <Gold.Chemscore.Fitness>
16.4485

> <Gold.Chemscore.DG>
-17.2304

> <Gold.Chemscore.ZeroCoef>
-5.4800

> <Gold.Chemscore.Hbond>
1.0194

> <Gold.Chemscore.Metal>
0.0000

> <Gold.Chemscore.Lipo>
100.8130

> <Gold.Chemscore.Internal_Hbond>
0.0000

> <Gold.Chemscore.DEClash>
0.0529

> <Gold.Chemscore.DEInternal>
0.7291

> <Gold.Chemscore.Rot>
1.3475

> <Gold.Chemscore.Internal.Correction>
   9.000000E+99

> <Gold.Chemscore.Hbonds>
donor molecule, donor type, donor heavy atom, donor atom, acceptor molecule, acceptor atom, score
      L1  H     9    33       P1  8028  0.99

> <Gold.Chemscore.Hbond.Weighted>
-3.4049

> <Gold.Chemscore.Metal.Weighted>
-0.0000

> <Gold.Chemscore.Lipo.Weighted>
-11.7951

> <Gold.Chemscore.Internal_Hbond.Weighted>
0.0000

> <Gold.Chemscore.DEClash.Weighted>
0.0529

> <Gold.Chemscore.DEInternal.Weighted>
0.7291

> <Gold.Chemscore.Rot.Weighted>
3.4496

> <Gold.Chemscore.Internal.Correction.Weighted>
   9.000000E+99

> <Gold.Protein.RotatedTorsions>
[ 6907 6896 6895 6894 ] final   10.24 input  -60.11 | X-H torsion
[ 7974 7965 7964 7962 ] final  137.23 input  175.53 | X-H torsion
[ 8008 7997 7996 7995 ] final -177.86 input   59.86 | X-H torsion
[ 10167 10162 10161 10158 ] final  -79.90 input  -65.29 | X-H torsion
[ 10718 10713 10712 10709 ] final  102.77 input   66.30 | X-H torsion
[ 10763 10752 10751 10750 ] final  144.14 input  -60.55 | X-H torsion
[ 11005 11000 10999 10996 ] final -104.51 input  -57.11 | X-H torsion

> <Gold.Protein.ActiveResidues>
 VAL166  LYS551  ARG553  GLY616  TRP617  ASP618  TYR619  PRO620  LYS621  CYS622 
 ASP623  PHE694  ASN695  SER759  ASP760  ASP761  ALA762  ILE779  LEU786  VAL792 
 PHE793  MET794  SER795  GLU796  ALA797  LYS798  CYS799  TRP800  GLU811  SER814 

> <Gold.Protein.RotatedAtoms>
  151.7350  135.0866  160.0306 H   0  0  0  0  0  0  0  0  0  0  0  0  # atno 6907 bound_to 6896
  152.3516  133.6182  159.5957 H   0  0  0  0  0  0  0  0  0  0  0  0  # atno 6908 bound_to 6896
  150.7544  133.9481  159.3519 H   0  0  0  0  0  0  0  0  0  0  0  0  # atno 6909 bound_to 6896
  144.9488  139.4843  143.5536 H   0  0  0  0  0  0  0  0  0  0  0  0  # atno 7974 bound_to 7965
  156.0120  140.1242  157.0445 H   0  0  0  0  0  0  0  0  0  0  0  0  # atno 8008 bound_to 7997
  154.4279  140.1086  156.5912 H   0  0  0  0  0  0  0  0  0  0  0  0  # atno 8009 bound_to 7997
  155.6067  140.3471  155.4612 H   0  0  0  0  0  0  0  0  0  0  0  0  # atno 8010 bound_to 7997
  140.4552  143.2470  151.8431 H   0  0  0  0  0  0  0  0  0  0  0  0  # atno 10167 bound_to 10162
  157.6792  131.0761  150.5453 H   0  0  0  0  0  0  0  0  0  0  0  0  # atno 10718 bound_to 10713
  153.9839  135.2938  155.3418 H   0  0  0  0  0  0  0  0  0  0  0  0  # atno 10763 bound_to 10752
  154.7253  135.5091  153.8879 H   0  0  0  0  0  0  0  0  0  0  0  0  # atno 10764 bound_to 10752
  153.0841  135.6688  154.0099 H   0  0  0  0  0  0  0  0  0  0  0  0  # atno 10765 bound_to 10752
  141.1097  133.8730  157.1620 H   0  0  0  0  0  0  0  0  0  0  0  0  # atno 11005 bound_to 11000
  146.3313  139.8558  142.8865 LP  0  0  0  0  0  0  0  0  0  0  0  0  # atno 17320 bound_to 7965
  145.2877  141.0158  143.3681 LP  0  0  0  0  0  0  0  0  0  0  0  0  # atno 17321 bound_to 7965
  139.4800  144.5073  151.8980 LP  0  0  0  0  0  0  0  0  0  0  0  0  # atno 17342 bound_to 10162
  140.4160  144.2306  150.5888 LP  0  0  0  0  0  0  0  0  0  0  0  0  # atno 17343 bound_to 10162
  156.5759  130.4292  149.5998 LP  0  0  0  0  0  0  0  0  0  0  0  0  # atno 17370 bound_to 10713
  156.2701  130.7012  151.1807 LP  0  0  0  0  0  0  0  0  0  0  0  0  # atno 17371 bound_to 10713
  139.9984  135.0037  157.0135 LP  0  0  0  0  0  0  0  0  0  0  0  0  # atno 17394 bound_to 11000
  140.4809  134.1291  155.7217 LP  0  0  0  0  0  0  0  0  0  0  0  0  # atno 17395 bound_to 11000

$$$$
