AV-unprocessed.smi:3348|AV-procd|sdf|12929|dock10
  -GOLD-   2272019353D 1   1.00000     0.00000
 Structure written by MMmdl.
 46 47  0  0  0  0  0  0  0  0  1 V2000
  146.2968  135.2077  153.3669 C   0  0  0  0  0  0  0  0  0  0  0  0
  145.7227  136.0452  152.2157 C   0  0  2  0  0  0  0  0  0  0  0  0
  145.9539  135.3168  150.8692 C   0  0  0  0  0  0  0  0  0  0  0  0
  145.7284  133.8836  150.9180 N   0  0  0  0  0  0  0  0  0  0  0  0
  144.5261  133.2073  150.9519 C   0  0  0  0  0  0  0  0  0  0  0  0
  144.8123  131.8728  150.9907 C   0  0  0  0  0  0  0  0  0  0  0  0
  146.2347  131.8315  150.9697 C   0  0  0  0  0  0  0  0  0  0  0  0
  146.7805  133.0364  150.9230 N   0  0  0  0  0  0  0  0  0  0  0  0
  146.3467  137.3717  152.2346 N   0  0  0  0  0  0  0  0  0  0  0  0
  146.1935  138.1161  153.4847 C   0  0  0  0  0  0  0  0  0  0  0  0
  147.2188  139.2485  153.5770 C   0  0  0  0  0  0  0  0  0  0  0  0
  148.3941  138.7182  154.1717 O   0  0  0  0  0  0  0  0  0  0  0  0
  149.4516  139.6518  154.3460 C   0  0  1  0  0  0  0  0  0  0  0  0
  148.9274  140.8994  155.0884 C   0  0  0  0  0  0  0  0  0  0  0  0
  150.0651  141.8725  155.4318 C   0  0  0  0  0  0  0  0  0  0  0  0
  151.1618  141.1726  156.2463 C   0  0  0  0  0  0  0  0  0  0  0  0
  151.6943  139.9370  155.5052 C   0  0  0  0  0  0  0  0  0  0  0  0
  150.5640  138.9478  155.1565 C   0  0  2  0  0  0  0  0  0  0  0  0
  151.1240  137.7241  154.4121 C   0  0  0  0  0  0  0  0  0  0  0  0
  145.8264  134.2250  153.4095 H   0  0  0  0  0  0  0  0  0  0  0  0
  146.1271  135.6923  154.3288 H   0  0  0  0  0  0  0  0  0  0  0  0
  147.3713  135.0573  153.2538 H   0  0  0  0  0  0  0  0  0  0  0  0
  144.6506  136.1419  152.3936 H   0  0  0  0  0  0  0  0  0  0  0  0
  145.3122  135.7417  150.0958 H   0  0  0  0  0  0  0  0  0  0  0  0
  146.9796  135.4758  150.5336 H   0  0  0  0  0  0  0  0  0  0  0  0
  143.5789  133.7266  150.9546 H   0  0  0  0  0  0  0  0  0  0  0  0
  144.1119  131.0518  151.0292 H   0  0  0  0  0  0  0  0  0  0  0  0
  146.8824  130.9673  150.9867 H   0  0  0  0  0  0  0  0  0  0  0  0
  147.3345  137.2882  152.0165 H   0  0  0  0  0  0  0  0  0  0  0  0
  145.1939  138.5291  153.5976 H   0  0  0  0  0  0  0  0  0  0  0  0
  146.3348  137.4336  154.3232 H   0  0  0  0  0  0  0  0  0  0  0  0
  147.4523  139.6038  152.5724 H   0  0  0  0  0  0  0  0  0  0  0  0
  146.8201  140.0925  154.1403 H   0  0  0  0  0  0  0  0  0  0  0  0
  149.8602  139.9446  153.3766 H   0  0  0  0  0  0  0  0  0  0  0  0
  148.1824  141.4195  154.4872 H   0  0  0  0  0  0  0  0  0  0  0  0
  148.4235  140.5928  156.0060 H   0  0  0  0  0  0  0  0  0  0  0  0
  150.4917  142.2758  154.5126 H   0  0  0  0  0  0  0  0  0  0  0  0
  149.6717  142.7226  155.9901 H   0  0  0  0  0  0  0  0  0  0  0  0
  151.9778  141.8679  156.4454 H   0  0  0  0  0  0  0  0  0  0  0  0
  150.7646  140.8746  157.2176 H   0  0  0  0  0  0  0  0  0  0  0  0
  152.2014  140.2532  154.5923 H   0  0  0  0  0  0  0  0  0  0  0  0
  152.4468  139.4415  156.1196 H   0  0  0  0  0  0  0  0  0  0  0  0
  150.1288  138.5943  156.0927 H   0  0  0  0  0  0  0  0  0  0  0  0
  151.5574  138.0081  153.4527 H   0  0  0  0  0  0  0  0  0  0  0  0
  150.3459  136.9854  154.2188 H   0  0  0  0  0  0  0  0  0  0  0  0
  151.9019  137.2313  154.9959 H   0  0  0  0  0  0  0  0  0  0  0  0
  1  2  1  0  0  0  0
  1 20  1  0  0  0  0
  1 21  1  0  0  0  0
  1 22  1  0  0  0  0
  2  3  1  0  0  0  0
  2  9  1  0  0  0  0
  2 23  1  0  0  0  0
  3  4  1  0  0  0  0
  3 24  1  0  0  0  0
  3 25  1  0  0  0  0
  4  8  1  0  0  0  0
  4  5  1  0  0  0  0
  5  6  2  0  0  0  0
  5 26  1  0  0  0  0
  6  7  1  0  0  0  0
  6 27  1  0  0  0  0
  7  8  2  0  0  0  0
  7 28  1  0  0  0  0
  9 10  1  0  0  0  0
  9 29  1  0  0  0  0
 10 11  1  0  0  0  0
 10 30  1  0  0  0  0
 10 31  1  0  0  0  0
 11 12  1  0  0  0  0
 11 32  1  0  0  0  0
 11 33  1  0  0  0  0
 12 13  1  0  0  0  0
 13 18  1  0  0  0  0
 13 14  1  0  0  0  0
 13 34  1  0  0  0  0
 14 15  1  0  0  0  0
 14 35  1  0  0  0  0
 14 36  1  0  0  0  0
 15 16  1  0  0  0  0
 15 37  1  0  0  0  0
 15 38  1  0  0  0  0
 16 17  1  0  0  0  0
 16 39  1  0  0  0  0
 16 40  1  0  0  0  0
 17 18  1  0  0  0  0
 17 41  1  0  0  0  0
 17 42  1  0  0  0  0
 18 19  1  0  0  0  0
 18 43  1  0  0  0  0
 19 44  1  0  0  0  0
 19 45  1  0  0  0  0
 19 46  1  0  0  0  0
M  END
> <s_m_source_file>
AV-unprocessed.smi

> <i_m_source_file_index>
3348

> <i_lp_mmshare_version>
43012

> <i_f3d_flags>
0

> <s_epik_input>
bjFbY0hdW2NIXVtjSF1uMVtDSDJdW0NAQEhdKFtDSDNdKVtOSF1bQ0gyXVtDSDJdT1tDQEBIXTJbQ0gyXVtDSDJdW0NIMl1bQ0gyXVtDQEhdMltDSDNd

> <s_epik_cmdline>
J2VwaWtfcHl0aG9uJywgJy1waCcsICc3LjAnLCAnLXRuJywgJzgnLCAnLW1hJywgJzIwMCcsICctbWV0YWxfYmluZGluZycsICctaW1hZScsICc8aW5maWxlLm1hZT4nLCAnLW9tYWUnLCAnPG91dGZpbGUubWFlPic=

> <r_lp_tautomer_probability>
1

> <r_epik_Ionization_Penalty>
2.46945

> <r_epik_Ionization_Penalty_Charging>
0

> <r_epik_Ionization_Penalty_Neutral>
2.46945

> <r_epik_State_Penalty>
2.6322

> <r_epik_Charging_Adjusted_Penalty>
2.6322

> <i_epik_Tot_Q>
0

> <i_epik_Tot_abs_Q>
0

> <r_epik_Metal_State_Penalty>
2.63217

> <b_epik_Metal_Only>
0

> <s_lp_Force_Field>
OPLS_2005

> <r_lp_Energy>
18.1963

> <b_lp_Chiralities_Consistent>
1

> <s_lp_Variant>
AV-unprocessed.smi:3348-15

> <Gold.Version>
5.8.1

> <Gold.Id.Protein>
6NUR|6NUR_protein|mol2

> <Gold.PLP.Fitness>
43.7559

> <Gold.PLP.PLP>
-36.3975

> <Gold.PLP.part.hbond>
-1.0000

> <Gold.PLP.part.metal>
0.0000

> <Gold.PLP.part.buried>
-4.4165

> <Gold.PLP.part.nonpolar>
-31.5098

> <Gold.PLP.part.repulsive>
0.3945

> <Gold.PLP.ligand.clash>
0.0000

> <Gold.PLP.ligand.torsion>
0.6340

> <Gold.PLP.Chemscore.Hbond>
1.0000

> <Gold.PLP.Chemscore.CHOScore>
1.8427

> <Gold.PLP.Chemscore.Metal>
0.0000

> <Gold.Chemscore.Hbonds>
donor molecule, donor type, donor heavy atom, donor atom, acceptor molecule, acceptor atom, score
      L1  H     9    29       P1  7948  1.00
      L1  C     7    28       P1 10747  0.95

> <Gold.PLP.Chemscore.Internal.Correction>
0.0982

> <Gold.Rescore>
     Score         DG    S(hbond)    S(metal)    S(lipo)     H(rot)  DE(clash)    DE(int)     intcor
     15.33     -15.75       0.99        0.00      97.17       1.72       0.13       0.29       ----

> <Gold.Chemscore.Fitness>
15.3338

> <Gold.Chemscore.DG>
-15.7511

> <Gold.Chemscore.ZeroCoef>
-5.4800

> <Gold.Chemscore.Hbond>
0.9926

> <Gold.Chemscore.Metal>
0.0000

> <Gold.Chemscore.Lipo>
97.1674

> <Gold.Chemscore.Internal_Hbond>
0.0000

> <Gold.Chemscore.DEClash>
0.1294

> <Gold.Chemscore.DEInternal>
0.2880

> <Gold.Chemscore.Rot>
1.7237

> <Gold.Chemscore.Internal.Correction>
   9.000000E+99

> <Gold.Chemscore.Hbonds>
donor molecule, donor type, donor heavy atom, donor atom, acceptor molecule, acceptor atom, score
      L1  H     9    29       P1  7948  0.96

> <Gold.Chemscore.Hbond.Weighted>
-3.3151

> <Gold.Chemscore.Metal.Weighted>
-0.0000

> <Gold.Chemscore.Lipo.Weighted>
-11.3686

> <Gold.Chemscore.Internal_Hbond.Weighted>
0.0000

> <Gold.Chemscore.DEClash.Weighted>
0.1294

> <Gold.Chemscore.DEInternal.Weighted>
0.2880

> <Gold.Chemscore.Rot.Weighted>
4.4126

> <Gold.Chemscore.Internal.Correction.Weighted>
   9.000000E+99

> <Gold.Protein.RotatedTorsions>
[ 6907 6896 6895 6894 ] final   70.72 input  -60.11 | X-H torsion
[ 7974 7965 7964 7962 ] final  168.02 input  175.53 | X-H torsion
[ 8008 7997 7996 7995 ] final -155.31 input   59.86 | X-H torsion
[ 10167 10162 10161 10158 ] final  -40.00 input  -65.29 | X-H torsion
[ 10718 10713 10712 10709 ] final   36.23 input   66.30 | X-H torsion
[ 10763 10752 10751 10750 ] final  -88.10 input  -60.55 | X-H torsion
[ 11005 11000 10999 10996 ] final   95.59 input  -57.11 | X-H torsion

> <Gold.Protein.ActiveResidues>
 VAL166  LYS551  ARG553  GLY616  TRP617  ASP618  TYR619  PRO620  LYS621  CYS622 
 ASP623  PHE694  ASN695  SER759  ASP760  ASP761  ALA762  ILE779  LEU786  VAL792 
 PHE793  MET794  SER795  GLU796  ALA797  LYS798  CYS799  TRP800  GLU811  SER814 

> <Gold.Protein.RotatedAtoms>
  152.4766  134.4827  159.9670 H   0  0  0  0  0  0  0  0  0  0  0  0  # atno 6907 bound_to 6896
  151.4841  133.3533  159.2851 H   0  0  0  0  0  0  0  0  0  0  0  0  # atno 6908 bound_to 6896
  150.8810  134.8227  159.7286 H   0  0  0  0  0  0  0  0  0  0  0  0  # atno 6909 bound_to 6896
  144.7403  139.8847  143.6399 H   0  0  0  0  0  0  0  0  0  0  0  0  # atno 7974 bound_to 7965
  155.6999  140.0765  157.2414 H   0  0  0  0  0  0  0  0  0  0  0  0  # atno 8008 bound_to 7997
  154.4075  140.1649  156.2232 H   0  0  0  0  0  0  0  0  0  0  0  0  # atno 8009 bound_to 7997
  155.9377  140.3387  155.6304 H   0  0  0  0  0  0  0  0  0  0  0  0  # atno 8010 bound_to 7997
  140.7047  143.3179  151.2863 H   0  0  0  0  0  0  0  0  0  0  0  0  # atno 10167 bound_to 10162
  157.3323  130.7504  149.6856 H   0  0  0  0  0  0  0  0  0  0  0  0  # atno 10718 bound_to 10713
  154.6409  135.5389  153.7788 H   0  0  0  0  0  0  0  0  0  0  0  0  # atno 10763 bound_to 10752
  153.0333  135.6459  154.1162 H   0  0  0  0  0  0  0  0  0  0  0  0  # atno 10764 bound_to 10752
  154.1086  135.2928  155.3215 H   0  0  0  0  0  0  0  0  0  0  0  0  # atno 10765 bound_to 10752
  139.8788  134.8907  156.4033 H   0  0  0  0  0  0  0  0  0  0  0  0  # atno 11005 bound_to 11000
  146.1186  139.4200  143.0243 LP  0  0  0  0  0  0  0  0  0  0  0  0  # atno 17320 bound_to 7965
  145.7338  141.0033  143.1337 LP  0  0  0  0  0  0  0  0  0  0  0  0  # atno 17321 bound_to 7965
  139.6624  144.0165  152.2701 LP  0  0  0  0  0  0  0  0  0  0  0  0  # atno 17342 bound_to 10162
  139.9737  144.6476  150.7965 LP  0  0  0  0  0  0  0  0  0  0  0  0  # atno 17343 bound_to 10162
  155.9697  130.4191  150.4361 LP  0  0  0  0  0  0  0  0  0  0  0  0  # atno 17370 bound_to 10713
  157.2395  131.0522  151.2445 LP  0  0  0  0  0  0  0  0  0  0  0  0  # atno 17371 bound_to 10713
  140.9251  133.7618  155.9955 LP  0  0  0  0  0  0  0  0  0  0  0  0  # atno 17394 bound_to 11000
  140.8395  134.3084  157.5319 LP  0  0  0  0  0  0  0  0  0  0  0  0  # atno 17395 bound_to 11000

$$$$
