AV-unprocessed.smi:1414|AV-procd|sdf|5762|dock5
  -GOLD-   22720 5403D 1   1.00000     0.00000
 Structure written by MMmdl.
 45 46  0  0  0  0  0  0  0  0  1 V2000
  147.4570  136.2439  160.7524 C   0  0  0  0  0  0  0  0  0  0  0  0
  148.6035  136.4127  159.7494 C   0  0  1  0  0  0  0  0  0  0  0  0
  148.3123  135.6986  158.4210 C   0  0  0  0  0  0  0  0  0  0  0  0
  149.3538  135.9878  157.4251 N   0  0  0  0  0  0  0  0  0  0  0  0
  150.2880  134.7097  156.7110 S   0  0  0  0  0  0  0  0  0  0  0  0
  151.6407  135.2411  156.4845 O   0  0  0  0  0  0  0  0  0  0  0  0
  150.1035  133.5045  157.5345 O   0  0  0  0  0  0  0  0  0  0  0  0
  149.4978  134.4510  155.0595 C   0  0  0  0  0  0  0  0  0  0  0  0
  149.7020  133.0189  154.5350 C   0  0  0  0  0  0  0  0  0  0  0  0
  149.0317  132.8020  153.2573 N   0  0  0  0  0  0  0  0  0  0  0  0
  147.7105  132.8687  153.0429 C   0  0  0  0  0  0  0  0  0  0  0  0
  146.8906  133.1393  153.9188 O   0  0  0  0  0  0  0  0  0  0  0  0
  147.4109  132.5810  151.7650 N   0  0  0  0  0  0  0  0  0  0  0  0
  146.1337  132.5799  151.1432 C   0  0  0  0  0  0  0  0  0  0  0  0
  145.0287  133.0367  151.8905 C   0  0  0  0  0  0  0  0  0  0  0  0
  143.7503  133.0240  151.3009 C   0  0  0  0  0  0  0  0  0  0  0  0
  143.6251  132.5422  149.9834 C   0  0  0  0  0  0  0  0  0  0  0  0
  144.6693  132.0862  149.2600 N   0  0  0  0  0  0  0  0  0  0  0  0
  145.8933  132.1039  149.8304 C   0  0  0  0  0  0  0  0  0  0  0  0
  149.7474  137.4012  157.2875 C   0  0  0  0  0  0  0  0  0  0  0  0
  149.8593  138.1292  158.6447 C   0  0  2  0  0  0  0  0  0  0  0  0
  151.2148  137.9402  159.3422 C   0  0  0  0  0  0  0  0  0  0  0  0
  148.7716  137.8044  159.5073 O   0  0  0  0  0  0  0  0  0  0  0  0
  147.2871  135.1914  160.9804 H   0  0  0  0  0  0  0  0  0  0  0  0
  146.5259  136.6565  160.3628 H   0  0  0  0  0  0  0  0  0  0  0  0
  147.6814  136.7545  161.6891 H   0  0  0  0  0  0  0  0  0  0  0  0
  149.5032  135.9965  160.2019 H   0  0  0  0  0  0  0  0  0  0  0  0
  148.2327  134.6239  158.5839 H   0  0  0  0  0  0  0  0  0  0  0  0
  147.3538  136.0289  158.0192 H   0  0  0  0  0  0  0  0  0  0  0  0
  148.4449  134.7236  155.1224 H   0  0  0  0  0  0  0  0  0  0  0  0
  149.9685  135.1547  154.3729 H   0  0  0  0  0  0  0  0  0  0  0  0
  150.7629  132.8338  154.3681 H   0  0  0  0  0  0  0  0  0  0  0  0
  149.3710  132.2844  155.2693 H   0  0  0  0  0  0  0  0  0  0  0  0
  149.6242  132.5691  152.4736 H   0  0  0  0  0  0  0  0  0  0  0  0
  148.1782  132.2784  151.1830 H   0  0  0  0  0  0  0  0  0  0  0  0
  145.1567  133.3974  152.9008 H   0  0  0  0  0  0  0  0  0  0  0  0
  142.8856  133.3739  151.8453 H   0  0  0  0  0  0  0  0  0  0  0  0
  142.6596  132.5168  149.5003 H   0  0  0  0  0  0  0  0  0  0  0  0
  146.6840  131.7027  149.2157 H   0  0  0  0  0  0  0  0  0  0  0  0
  150.6798  137.4894  156.7300 H   0  0  0  0  0  0  0  0  0  0  0  0
  148.9841  137.8936  156.6847 H   0  0  0  0  0  0  0  0  0  0  0  0
  149.7696  139.1974  158.4450 H   0  0  0  0  0  0  0  0  0  0  0  0
  152.0301  138.3062  158.7178 H   0  0  0  0  0  0  0  0  0  0  0  0
  151.4151  136.8947  159.5576 H   0  0  0  0  0  0  0  0  0  0  0  0
  151.2490  138.4875  160.2842 H   0  0  0  0  0  0  0  0  0  0  0  0
  1  2  1  0  0  0  0
  1 24  1  0  0  0  0
  1 25  1  0  0  0  0
  1 26  1  0  0  0  0
  2 23  1  0  0  0  0
  2  3  1  0  0  0  0
  2 27  1  0  0  0  0
  3  4  1  0  0  0  0
  3 28  1  0  0  0  0
  3 29  1  0  0  0  0
  4  5  1  0  0  0  0
  4 20  1  0  0  0  0
  5  6  2  0  0  0  0
  5  7  2  0  0  0  0
  5  8  1  0  0  0  0
  8  9  1  0  0  0  0
  8 30  1  0  0  0  0
  8 31  1  0  0  0  0
  9 10  1  0  0  0  0
  9 32  1  0  0  0  0
  9 33  1  0  0  0  0
 10 11  1  0  0  0  0
 10 34  1  0  0  0  0
 11 12  2  0  0  0  0
 11 13  1  0  0  0  0
 13 14  1  0  0  0  0
 13 35  1  0  0  0  0
 14 19  1  0  0  0  0
 14 15  2  0  0  0  0
 15 16  1  0  0  0  0
 15 36  1  0  0  0  0
 16 17  2  0  0  0  0
 16 37  1  0  0  0  0
 17 18  1  0  0  0  0
 17 38  1  0  0  0  0
 18 19  2  0  0  0  0
 19 39  1  0  0  0  0
 20 21  1  0  0  0  0
 20 40  1  0  0  0  0
 20 41  1  0  0  0  0
 21 22  1  0  0  0  0
 21 23  1  0  0  0  0
 21 42  1  0  0  0  0
 22 43  1  0  0  0  0
 22 44  1  0  0  0  0
 22 45  1  0  0  0  0
M  END
> <s_m_source_file>
AV-unprocessed.smi

> <i_m_source_file_index>
1414

> <i_lp_mmshare_version>
43012

> <i_f3d_flags>
0

> <s_epik_input>
W0NIM11bQ0BASF0xW0NIMl1OKFtDSDJdW0NASF0oTzEpW0NIM10pUyg9TykoPU8pW0NIMl1bQ0gyXVtOSF1DKD1PKVtOSF1jMltjSF1bY0hdW2NIXW5bY0hdMg==

> <s_epik_cmdline>
J2VwaWtfcHl0aG9uJywgJy1waCcsICc3LjAnLCAnLXRuJywgJzgnLCAnLW1hJywgJzIwMCcsICctbWV0YWxfYmluZGluZycsICctaW1hZScsICc8aW5maWxlLm1hZT4nLCAnLW9tYWUnLCAnPG91dGZpbGUubWFlPic=

> <r_epik_Ionization_Penalty>
0.00437531

> <r_epik_Ionization_Penalty_Charging>
0

> <r_epik_Ionization_Penalty_Neutral>
0.00437531

> <r_epik_State_Penalty>
0.00312896

> <r_epik_Charging_Adjusted_Penalty>
0.00312896

> <i_epik_Tot_Q>
0

> <i_epik_Tot_abs_Q>
0

> <r_epik_Metal_State_Penalty>
-0

> <b_epik_Metal_Only>
0

> <s_lp_Force_Field>
OPLS_2005

> <r_lp_Energy>
7.0755

> <b_lp_Chiralities_Consistent>
1

> <s_lp_Variant>
AV-unprocessed.smi:1414-3

> <Gold.Version>
5.8.1

> <Gold.Id.Protein>
6NUR|6NUR_protein|mol2

> <Gold.PLP.Fitness>
51.7935

> <Gold.PLP.PLP>
-38.2795

> <Gold.PLP.part.hbond>
-5.1781

> <Gold.PLP.part.metal>
0.0000

> <Gold.PLP.part.buried>
-5.7954

> <Gold.PLP.part.nonpolar>
-27.7893

> <Gold.PLP.part.repulsive>
0.2656

> <Gold.PLP.ligand.clash>
0.0000

> <Gold.PLP.ligand.torsion>
1.5485

> <Gold.PLP.Chemscore.Hbond>
3.0000

> <Gold.PLP.Chemscore.CHOScore>
1.8270

> <Gold.PLP.Chemscore.Metal>
0.0000

> <Gold.Chemscore.Hbonds>
donor molecule, donor type, donor heavy atom, donor atom, acceptor molecule, acceptor atom, score
      L1  H    13    35       P1 10747  0.94
      P1  H  6896  6907       L1     7  1.00
      P1  H 10752 10765       L1     6  0.81
      L1  C    17    38       P1 10186  0.89
      L1  C    17    38       P1 10952  0.22
      L1  C    19    39       P1 10747  0.63

> <Gold.PLP.Chemscore.Internal.Correction>
2.1299

> <Gold.Rescore>
     Score         DG    S(hbond)    S(metal)    S(lipo)     H(rot)  DE(clash)    DE(int)     intcor
     17.04     -20.05       2.91        0.00      75.68       1.57       0.02       2.99       ----

> <Gold.Chemscore.Fitness>
17.0351

> <Gold.Chemscore.DG>
-20.0482

> <Gold.Chemscore.ZeroCoef>
-5.4800

> <Gold.Chemscore.Hbond>
2.9130

> <Gold.Chemscore.Metal>
0.0000

> <Gold.Chemscore.Lipo>
75.6830

> <Gold.Chemscore.Internal_Hbond>
0.0000

> <Gold.Chemscore.DEClash>
0.0208

> <Gold.Chemscore.DEInternal>
2.9923

> <Gold.Chemscore.Rot>
1.5687

> <Gold.Chemscore.Internal.Correction>
   9.000000E+99

> <Gold.Chemscore.Hbonds>
donor molecule, donor type, donor heavy atom, donor atom, acceptor molecule, acceptor atom, score
      L1  H    13    35       P1 10747  0.92
      P1  H  6896  6907       L1     7  0.81
      P1  H  6934  6947       L1    23  0.01
      P1  H 10752 10765       L1     6  0.78

> <Gold.Chemscore.Hbond.Weighted>
-9.7293

> <Gold.Chemscore.Metal.Weighted>
-0.0000

> <Gold.Chemscore.Lipo.Weighted>
-8.8549

> <Gold.Chemscore.Internal_Hbond.Weighted>
0.0000

> <Gold.Chemscore.DEClash.Weighted>
0.0208

> <Gold.Chemscore.DEInternal.Weighted>
2.9923

> <Gold.Chemscore.Rot.Weighted>
4.0160

> <Gold.Chemscore.Internal.Correction.Weighted>
   9.000000E+99

> <Gold.Protein.RotatedTorsions>
[ 6907 6896 6895 6894 ] final -127.36 input  -60.11 | X-H torsion
[ 7974 7965 7964 7962 ] final  -48.92 input  175.53 | X-H torsion
[ 8008 7997 7996 7995 ] final -152.45 input   59.86 | X-H torsion
[ 10167 10162 10161 10158 ] final  -50.32 input  -65.29 | X-H torsion
[ 10718 10713 10712 10709 ] final  120.26 input   66.30 | X-H torsion
[ 10763 10752 10751 10750 ] final -135.34 input  -60.55 | X-H torsion
[ 11005 11000 10999 10996 ] final    7.00 input  -57.11 | X-H torsion

> <Gold.Protein.ActiveResidues>
 VAL166  LYS551  ARG553  GLY616  TRP617  ASP618  TYR619  PRO620  LYS621  CYS622 
 ASP623  PHE694  ASN695  SER759  ASP760  ASP761  ALA762  ILE779  LEU786  VAL792 
 PHE793  MET794  SER795  GLU796  ALA797  LYS798  CYS799  TRP800  GLU811  SER814 

> <Gold.Protein.RotatedAtoms>
  150.9065  133.7051  159.2865 H   0  0  0  0  0  0  0  0  0  0  0  0  # atno 6907 bound_to 6896
  151.4552  135.1032  159.9719 H   0  0  0  0  0  0  0  0  0  0  0  0  # atno 6908 bound_to 6896
  152.4906  133.8442  159.7223 H   0  0  0  0  0  0  0  0  0  0  0  0  # atno 6909 bound_to 6896
  145.9460  140.7617  142.9528 H   0  0  0  0  0  0  0  0  0  0  0  0  # atno 7974 bound_to 7965
  155.6554  140.0716  157.2572 H   0  0  0  0  0  0  0  0  0  0  0  0  # atno 8008 bound_to 7997
  154.4153  140.1726  156.1769 H   0  0  0  0  0  0  0  0  0  0  0  0  # atno 8009 bound_to 7997
  155.9742  140.3359  155.6606 H   0  0  0  0  0  0  0  0  0  0  0  0  # atno 8010 bound_to 7997
  140.6643  143.2662  151.4342 H   0  0  0  0  0  0  0  0  0  0  0  0  # atno 10167 bound_to 10162
  157.5904  131.1065  150.8010 H   0  0  0  0  0  0  0  0  0  0  0  0  # atno 10718 bound_to 10713
  154.8704  135.3706  154.4882 H   0  0  0  0  0  0  0  0  0  0  0  0  # atno 10763 bound_to 10752
  153.5530  135.7024  153.5587 H   0  0  0  0  0  0  0  0  0  0  0  0  # atno 10764 bound_to 10752
  153.3697  135.4024  155.1743 H   0  0  0  0  0  0  0  0  0  0  0  0  # atno 10765 bound_to 10752
  140.5532  134.0263  155.7944 H   0  0  0  0  0  0  0  0  0  0  0  0  # atno 11005 bound_to 11000
  144.6787  140.2358  143.7350 LP  0  0  0  0  0  0  0  0  0  0  0  0  # atno 17320 bound_to 7965
  145.8235  139.2054  143.1924 LP  0  0  0  0  0  0  0  0  0  0  0  0  # atno 17321 bound_to 7965
  139.5887  144.1548  152.2061 LP  0  0  0  0  0  0  0  0  0  0  0  0  # atno 17342 bound_to 10162
  140.0895  144.5632  150.7064 LP  0  0  0  0  0  0  0  0  0  0  0  0  # atno 17343 bound_to 10162
  156.8434  130.5055  149.5319 LP  0  0  0  0  0  0  0  0  0  0  0  0  # atno 17370 bound_to 10713
  156.0958  130.5931  150.9810 LP  0  0  0  0  0  0  0  0  0  0  0  0  # atno 17371 bound_to 10713
  141.1159  133.9541  157.2823 LP  0  0  0  0  0  0  0  0  0  0  0  0  # atno 17394 bound_to 11000
  139.9445  135.0186  156.8809 LP  0  0  0  0  0  0  0  0  0  0  0  0  # atno 17395 bound_to 11000

$$$$
