AV-unprocessed.smi:3072|AV-procd|sdf|11718|dock3
  -GOLD-   2272017123D 1   1.00000     0.00000
 Structure written by MMmdl.
 25 26  0  0  0  0  0  0  0  0  2 V2000
  151.3561  139.3676  155.1525 C   0  0  0  0  0  0  0  0  0  0  0  0
  151.8862  138.2297  154.7333 N   0  0  0  0  0  0  0  0  0  0  0  0
  151.0202  137.8004  153.7975 N   0  0  0  0  0  0  0  0  0  0  0  0
  149.9553  138.6523  153.6237 C   0  0  0  0  0  0  0  0  0  0  0  0
  150.1331  139.6929  154.4940 C   0  0  0  0  0  0  0  0  0  0  0  0
  149.2621  140.9015  154.7243 C   0  0  1  0  0  0  0  0  0  0  0  0
  148.0197  140.8824  153.8128 C   0  0  0  0  0  0  0  0  0  0  0  0
  147.1250  142.0996  154.0948 C   0  0  0  0  0  0  0  0  0  0  0  0
  146.7571  142.1787  155.5857 C   0  0  0  0  0  0  0  0  0  0  0  0
  147.9752  142.1900  156.4244 N   0  3  0  0  0  0  0  0  0  0  0  0
  148.8385  141.0090  156.2039 C   0  0  0  0  0  0  0  0  0  0  0  0
  151.1678  136.9373  153.2935 H   0  0  0  0  0  0  0  0  0  0  0  0
  151.8709  139.9232  155.9225 H   0  0  0  0  0  0  0  0  0  0  0  0
  149.1723  138.4494  152.9078 H   0  0  0  0  0  0  0  0  0  0  0  0
  149.8310  141.8006  154.4814 H   0  0  0  0  0  0  0  0  0  0  0  0
  148.3206  140.8780  152.7645 H   0  0  0  0  0  0  0  0  0  0  0  0
  147.4477  139.9679  153.9766 H   0  0  0  0  0  0  0  0  0  0  0  0
  147.6429  143.0122  153.7962 H   0  0  0  0  0  0  0  0  0  0  0  0
  146.2199  142.0456  153.4892 H   0  0  0  0  0  0  0  0  0  0  0  0
  146.1779  143.0805  155.7857 H   0  0  0  0  0  0  0  0  0  0  0  0
  146.1335  141.3295  155.8688 H   0  0  0  0  0  0  0  0  0  0  0  0
  148.5066  143.0212  156.2077 H   0  0  0  0  0  0  0  0  0  0  0  0
  148.2999  140.1137  156.5177 H   0  0  0  0  0  0  0  0  0  0  0  0
  149.7166  141.0932  156.8450 H   0  0  0  0  0  0  0  0  0  0  0  0
  147.7039  142.2210  157.3968 H   0  0  0  0  0  0  0  0  0  0  0  0
  1  5  1  0  0  0  0
  1  2  2  0  0  0  0
  1 13  1  0  0  0  0
  2  3  1  0  0  0  0
  3 12  1  0  0  0  0
  3  4  1  0  0  0  0
  4  5  2  0  0  0  0
  4 14  1  0  0  0  0
  5  6  1  0  0  0  0
  6 11  1  0  0  0  0
  6  7  1  0  0  0  0
  6 15  1  0  0  0  0
  7  8  1  0  0  0  0
  7 16  1  0  0  0  0
  7 17  1  0  0  0  0
  8  9  1  0  0  0  0
  8 18  1  0  0  0  0
  8 19  1  0  0  0  0
  9 10  1  0  0  0  0
  9 20  1  0  0  0  0
  9 21  1  0  0  0  0
 10 11  1  0  0  0  0
 10 22  1  0  0  0  0
 10 25  1  0  0  0  0
 11 23  1  0  0  0  0
 11 24  1  0  0  0  0
M  CHG  1  10   1
M  END
> <s_m_source_file>
AV-unprocessed.smi

> <i_m_source_file_index>
3072

> <i_lp_mmshare_version>
43012

> <i_f3d_flags>
0

> <s_epik_input>
W2NIXTFbbkhdbltjSF1jMVtDQEBIXTJbQ0gyXVtDSDJdW0NIMl1bTkhdW0NIMl0y

> <s_epik_cmdline>
J2VwaWtfcHl0aG9uJywgJy1waCcsICc3LjAnLCAnLXRuJywgJzgnLCAnLW1hJywgJzIwMCcsICctbWV0YWxfYmluZGluZycsICctaW1hZScsICc8aW5maWxlLm1hZT4nLCAnLW9tYWUnLCAnPG91dGZpbGUubWFlPic=

> <r_lp_tautomer_probability>
1

> <r_epik_Ionization_Penalty>
0.000160186

> <r_epik_Ionization_Penalty_Charging>
0.000157527

> <r_epik_Ionization_Penalty_Neutral>
2.65916e-06

> <r_epik_State_Penalty>
-0

> <r_epik_Charging_Adjusted_Penalty>
0.000157527

> <i_epik_Tot_Q>
1

> <i_epik_Tot_abs_Q>
1

> <r_epik_Metal_State_Penalty>
-0

> <b_epik_Metal_Only>
0

> <s_lp_Force_Field>
OPLS_2005

> <r_lp_Energy>
12.3326

> <b_lp_Chiralities_Consistent>
1

> <s_lp_Variant>
AV-unprocessed.smi:3072-2

> <Gold.Version>
5.8.1

> <Gold.Id.Protein>
6NUR|6NUR_protein|mol2

> <Gold.PLP.Fitness>
33.1225

> <Gold.PLP.PLP>
-20.4686

> <Gold.PLP.part.hbond>
-2.5002

> <Gold.PLP.part.metal>
0.0000

> <Gold.PLP.part.buried>
2.9985

> <Gold.PLP.part.nonpolar>
-19.8393

> <Gold.PLP.part.repulsive>
0.2143

> <Gold.PLP.ligand.clash>
0.0000

> <Gold.PLP.ligand.torsion>
0.0133

> <Gold.PLP.Chemscore.Hbond>
2.9357

> <Gold.PLP.Chemscore.CHOScore>
1.2870

> <Gold.PLP.Chemscore.Metal>
0.0000

> <Gold.Chemscore.Hbonds>
donor molecule, donor type, donor heavy atom, donor atom, acceptor molecule, acceptor atom, score
      L1  H     3    12       P1  7949  0.94
      L1  H    10    22       P1  8028  2.00
      L1  C     4    14       P1  7948  0.81
      L1  C     4    14       P1  7957  0.47

> <Gold.PLP.Chemscore.Internal.Correction>
0.0123

> <Gold.Rescore>
     Score         DG    S(hbond)    S(metal)    S(lipo)     H(rot)  DE(clash)    DE(int)     intcor
     10.88     -11.27       0.63        0.00      53.25       1.00       0.38       0.01       ----

> <Gold.Chemscore.Fitness>
10.8805

> <Gold.Chemscore.DG>
-11.2665

> <Gold.Chemscore.ZeroCoef>
-5.4800

> <Gold.Chemscore.Hbond>
0.6335

> <Gold.Chemscore.Metal>
0.0000

> <Gold.Chemscore.Lipo>
53.2523

> <Gold.Chemscore.Internal_Hbond>
0.0000

> <Gold.Chemscore.DEClash>
0.3795

> <Gold.Chemscore.DEInternal>
0.0065

> <Gold.Chemscore.Rot>
1.0000

> <Gold.Chemscore.Internal.Correction>
   9.000000E+99

> <Gold.Chemscore.Hbonds>
donor molecule, donor type, donor heavy atom, donor atom, acceptor molecule, acceptor atom, score
      L1  H     3    12       P1  7949  0.42
      L1  H    10    22       P1  8028  0.92

> <Gold.Chemscore.Hbond.Weighted>
-2.1160

> <Gold.Chemscore.Metal.Weighted>
-0.0000

> <Gold.Chemscore.Lipo.Weighted>
-6.2305

> <Gold.Chemscore.Internal_Hbond.Weighted>
0.0000

> <Gold.Chemscore.DEClash.Weighted>
0.3795

> <Gold.Chemscore.DEInternal.Weighted>
0.0065

> <Gold.Chemscore.Rot.Weighted>
2.5600

> <Gold.Chemscore.Internal.Correction.Weighted>
   9.000000E+99

> <Gold.Protein.RotatedTorsions>
[ 6907 6896 6895 6894 ] final   50.86 input  -60.11 | X-H torsion
[ 7974 7965 7964 7962 ] final  164.61 input  175.53 | X-H torsion
[ 8008 7997 7996 7995 ] final   11.54 input   59.86 | X-H torsion
[ 10167 10162 10161 10158 ] final  -17.22 input  -65.29 | X-H torsion
[ 10718 10713 10712 10709 ] final -127.42 input   66.30 | X-H torsion
[ 10763 10752 10751 10750 ] final  107.69 input  -60.55 | X-H torsion
[ 11005 11000 10999 10996 ] final   89.81 input  -57.11 | X-H torsion

> <Gold.Protein.ActiveResidues>
 VAL166  LYS551  ARG553  GLY616  TRP617  ASP618  TYR619  PRO620  LYS621  CYS622 
 ASP623  PHE694  ASN695  SER759  ASP760  ASP761  ALA762  ILE779  LEU786  VAL792 
 PHE793  MET794  SER795  GLU796  ALA797  LYS798  CYS799  TRP800  GLU811  SER814 

> <Gold.Protein.RotatedAtoms>
  152.3065  134.7549  160.0346 H   0  0  0  0  0  0  0  0  0  0  0  0  # atno 6907 bound_to 6896
  151.8045  133.3368  159.3545 H   0  0  0  0  0  0  0  0  0  0  0  0  # atno 6908 bound_to 6896
  150.7299  134.5652  159.5907 H   0  0  0  0  0  0  0  0  0  0  0  0  # atno 6909 bound_to 6896
  144.7538  139.8351  143.6357 H   0  0  0  0  0  0  0  0  0  0  0  0  # atno 7974 bound_to 7965
  154.8084  140.2864  155.5871 H   0  0  0  0  0  0  0  0  0  0  0  0  # atno 8008 bound_to 7997
  156.2985  140.2573  156.2896 H   0  0  0  0  0  0  0  0  0  0  0  0  # atno 8009 bound_to 7997
  154.9476  140.0380  157.2117 H   0  0  0  0  0  0  0  0  0  0  0  0  # atno 8010 bound_to 7997
  140.7244  143.5037  150.9837 H   0  0  0  0  0  0  0  0  0  0  0  0  # atno 10167 bound_to 10162
  156.1856  130.6761  151.0360 H   0  0  0  0  0  0  0  0  0  0  0  0  # atno 10718 bound_to 10713
  153.4102  135.3836  155.2045 H   0  0  0  0  0  0  0  0  0  0  0  0  # atno 10763 bound_to 10752
  154.8737  135.3792  154.4510 H   0  0  0  0  0  0  0  0  0  0  0  0  # atno 10764 bound_to 10752
  153.5017  135.7088  153.5890 H   0  0  0  0  0  0  0  0  0  0  0  0  # atno 10765 bound_to 10752
  139.8868  134.8575  156.3195 H   0  0  0  0  0  0  0  0  0  0  0  0  # atno 11005 bound_to 11000
  146.1522  139.4608  143.0041 LP  0  0  0  0  0  0  0  0  0  0  0  0  # atno 17320 bound_to 7965
  145.6852  141.0180  143.1585 LP  0  0  0  0  0  0  0  0  0  0  0  0  # atno 17321 bound_to 7965
  139.8747  143.7147  152.3163 LP  0  0  0  0  0  0  0  0  0  0  0  0  # atno 17342 bound_to 10162
  139.7408  144.7560  151.0655 LP  0  0  0  0  0  0  0  0  0  0  0  0  # atno 17343 bound_to 10162
  157.6896  131.0814  150.7144 LP  0  0  0  0  0  0  0  0  0  0  0  0  # atno 17370 bound_to 10713
  156.7201  130.4678  149.5525 LP  0  0  0  0  0  0  0  0  0  0  0  0  # atno 17371 bound_to 10713
  140.9796  133.7275  156.0653 LP  0  0  0  0  0  0  0  0  0  0  0  0  # atno 17394 bound_to 11000
  140.7766  134.3772  157.5496 LP  0  0  0  0  0  0  0  0  0  0  0  0  # atno 17395 bound_to 11000

$$$$
