AV-unprocessed.smi:2339|AV-procd|sdf|9340|dock1
  -GOLD-   2272012563D 1   1.00000     0.00000
 Structure written by MMmdl.
 49 52  0  0  0  0  0  0  0  0  1 V2000
  148.3045  131.3528  160.7560 C   0  0  0  0  0  0  0  0  0  0  0  0
  147.5626  132.3962  159.9136 C   0  0  0  0  0  0  0  0  0  0  0  0
  147.6080  133.7162  160.5263 N   0  0  0  0  0  0  0  0  0  0  0  0
  146.9353  133.9848  161.7137 C   0  0  0  0  0  0  0  0  0  0  0  0
  146.8849  135.1990  162.2942 C   0  0  0  0  0  0  0  0  0  0  0  0
  147.5727  136.3370  161.6522 C   0  0  0  0  0  0  0  0  0  0  0  0
  147.5458  137.4599  162.1557 O   0  0  0  0  0  0  0  0  0  0  0  0
  148.2888  136.0515  160.3807 C   0  0  0  0  0  0  0  0  0  0  0  0
  148.9477  137.1391  159.7845 N   0  0  0  0  0  0  0  0  0  0  0  0
  149.0255  137.4934  158.4855 C   0  0  0  0  0  0  0  0  0  0  0  0
  148.4699  136.9159  157.5541 O   0  0  0  0  0  0  0  0  0  0  0  0
  149.7953  138.5727  158.2648 N   0  0  0  0  0  0  0  0  0  0  0  0
  150.0900  139.2157  156.9840 C   0  0  2  0  0  0  0  0  0  0  0  0
  151.2169  138.5044  156.2338 C   0  0  1  0  0  0  0  0  0  0  0  0
  151.2898  137.6990  154.9860 C   0  0  0  0  0  0  0  0  0  0  0  0
  152.5336  138.3847  154.3611 C   0  0  0  0  0  0  0  0  0  0  0  0
  152.7862  139.5604  155.1684 O   0  0  0  0  0  0  0  0  0  0  0  0
  151.5172  139.8883  155.6969 C   0  0  2  0  0  0  0  0  0  0  0  0
  151.0961  140.4276  157.0776 C   0  0  0  0  0  0  0  0  0  0  0  0
  152.1426  140.4875  158.2013 C   0  0  0  0  0  0  0  0  0  0  0  0
  151.6048  141.4500  159.2586 C   0  0  0  0  0  0  0  0  0  0  0  0
  150.7263  142.4413  158.4960 C   0  0  0  0  0  0  0  0  0  0  0  0
  150.5011  141.8360  157.1047 C   0  0  0  0  0  0  0  0  0  0  0  0
  148.2613  134.7796  159.9068 C   0  0  0  0  0  0  0  0  0  0  0  0
  148.2588  130.3712  160.2843 H   0  0  0  0  0  0  0  0  0  0  0  0
  147.8663  131.2653  161.7506 H   0  0  0  0  0  0  0  0  0  0  0  0
  149.3559  131.6170  160.8737 H   0  0  0  0  0  0  0  0  0  0  0  0
  147.9978  132.4439  158.9146 H   0  0  0  0  0  0  0  0  0  0  0  0
  146.5236  132.0930  159.7797 H   0  0  0  0  0  0  0  0  0  0  0  0
  146.4480  133.1265  162.1535 H   0  0  0  0  0  0  0  0  0  0  0  0
  146.3524  135.3598  163.2201 H   0  0  0  0  0  0  0  0  0  0  0  0
  149.4490  137.7283  160.4333 H   0  0  0  0  0  0  0  0  0  0  0  0
  150.2218  138.9957  159.0765 H   0  0  0  0  0  0  0  0  0  0  0  0
  149.2116  139.4000  156.3581 H   0  0  0  0  0  0  0  0  0  0  0  0
  151.9796  138.1547  156.9360 H   0  0  0  0  0  0  0  0  0  0  0  0
  151.4473  136.6370  155.1749 H   0  0  0  0  0  0  0  0  0  0  0  0
  150.4001  137.8239  154.3672 H   0  0  0  0  0  0  0  0  0  0  0  0
  153.4093  137.7354  154.3787 H   0  0  0  0  0  0  0  0  0  0  0  0
  152.3416  138.6673  153.3251 H   0  0  0  0  0  0  0  0  0  0  0  0
  150.8372  140.2158  154.9021 H   0  0  0  0  0  0  0  0  0  0  0  0
  152.3669  139.5182  158.6459 H   0  0  0  0  0  0  0  0  0  0  0  0
  153.0828  140.8748  157.8064 H   0  0  0  0  0  0  0  0  0  0  0  0
  150.9959  140.9019  159.9780 H   0  0  0  0  0  0  0  0  0  0  0  0
  152.4031  141.9420  159.8152 H   0  0  0  0  0  0  0  0  0  0  0  0
  149.7830  142.6052  159.0182 H   0  0  0  0  0  0  0  0  0  0  0  0
  151.2216  143.4089  158.4086 H   0  0  0  0  0  0  0  0  0  0  0  0
  150.9916  142.4624  156.3588 H   0  0  0  0  0  0  0  0  0  0  0  0
  149.4421  141.8311  156.8488 H   0  0  0  0  0  0  0  0  0  0  0  0
  148.7610  134.4774  159.0007 H   0  0  0  0  0  0  0  0  0  0  0  0
  1  2  1  0  0  0  0
  1 25  1  0  0  0  0
  1 26  1  0  0  0  0
  1 27  1  0  0  0  0
  2  3  1  0  0  0  0
  2 28  1  0  0  0  0
  2 29  1  0  0  0  0
  3 24  1  0  0  0  0
  3  4  1  0  0  0  0
  4  5  2  0  0  0  0
  4 30  1  0  0  0  0
  5  6  1  0  0  0  0
  5 31  1  0  0  0  0
  6  7  2  0  0  0  0
  6  8  1  0  0  0  0
  8  9  1  0  0  0  0
  8 24  2  0  0  0  0
  9 10  1  0  0  0  0
  9 32  1  0  0  0  0
 10 11  2  0  0  0  0
 10 12  1  0  0  0  0
 12 13  1  0  0  0  0
 12 33  1  0  0  0  0
 13 19  1  0  0  0  0
 13 14  1  0  0  0  0
 13 34  1  0  0  0  0
 14 18  1  0  0  0  0
 14 15  1  0  0  0  0
 14 35  1  0  0  0  0
 15 16  1  0  0  0  0
 15 36  1  0  0  0  0
 15 37  1  0  0  0  0
 16 17  1  0  0  0  0
 16 38  1  0  0  0  0
 16 39  1  0  0  0  0
 17 18  1  0  0  0  0
 18 19  1  0  0  0  0
 18 40  1  0  0  0  0
 19 23  1  0  0  0  0
 19 20  1  0  0  0  0
 20 21  1  0  0  0  0
 20 41  1  0  0  0  0
 20 42  1  0  0  0  0
 21 22  1  0  0  0  0
 21 43  1  0  0  0  0
 21 44  1  0  0  0  0
 22 23  1  0  0  0  0
 22 45  1  0  0  0  0
 22 46  1  0  0  0  0
 23 47  1  0  0  0  0
 23 48  1  0  0  0  0
 24 49  1  0  0  0  0
M  END
> <s_m_source_file>
AV-unprocessed.smi

> <i_m_source_file_index>
2339

> <i_lp_mmshare_version>
43012

> <i_f3d_flags>
0

> <s_epik_input>
W0NIM11bQ0gyXW4xW2NIXVtjSF1jKD1PKWMoW2NIXTEpW05IXUMoPU8pW05IXVtDQEBIXTJbQ0BASF0oW0NIMl1bQ0gyXU8zKVtDQEBIXTNDMjRbQ0gyXVtDSDJdW0NIMl1bQ0gyXTQ=

> <s_epik_cmdline>
J2VwaWtfcHl0aG9uJywgJy1waCcsICc3LjAnLCAnLXRuJywgJzgnLCAnLW1hJywgJzIwMCcsICctbWV0YWxfYmluZGluZycsICctaW1hZScsICc8aW5maWxlLm1hZT4nLCAnLW9tYWUnLCAnPG91dGZpbGUubWFlPic=

> <r_lp_tautomer_probability>
1

> <r_epik_Ionization_Penalty>
0.00145966

> <r_epik_Ionization_Penalty_Charging>
0.00143969

> <r_epik_Ionization_Penalty_Neutral>
1.99697e-05

> <r_epik_State_Penalty>
0.000961843

> <r_epik_Charging_Adjusted_Penalty>
0.00240153

> <i_epik_Tot_Q>
0

> <i_epik_Tot_abs_Q>
0

> <r_epik_Metal_State_Penalty>
-0

> <b_epik_Metal_Only>
0

> <s_lp_Force_Field>
OPLS_2005

> <r_lp_Energy>
78.6194

> <b_lp_Chiralities_Consistent>
1

> <s_lp_Variant>
AV-unprocessed.smi:2339-5

> <Gold.Version>
5.8.1

> <Gold.Id.Protein>
6NUR|6NUR_protein|mol2

> <Gold.PLP.Fitness>
47.2257

> <Gold.PLP.PLP>
-40.9323

> <Gold.PLP.part.hbond>
-3.7878

> <Gold.PLP.part.metal>
0.0000

> <Gold.PLP.part.buried>
-4.8940

> <Gold.PLP.part.nonpolar>
-32.6713

> <Gold.PLP.part.repulsive>
0.9060

> <Gold.PLP.ligand.clash>
0.0000

> <Gold.PLP.ligand.torsion>
0.5321

> <Gold.PLP.Chemscore.Hbond>
2.3552

> <Gold.PLP.Chemscore.CHOScore>
0.0000

> <Gold.PLP.Chemscore.Metal>
0.0000

> <Gold.Chemscore.Hbonds>
donor molecule, donor type, donor heavy atom, donor atom, acceptor molecule, acceptor atom, score
      P1  H  6931  6943       L1     7  0.78
      P1  H  6934  6947       L1     7  0.54
      P1  H  7997  8008       L1    17  1.00

> <Gold.PLP.Chemscore.Internal.Correction>
0.2919

> <Gold.Rescore>
     Score         DG    S(hbond)    S(metal)    S(lipo)     H(rot)  DE(clash)    DE(int)     intcor
     21.39     -22.01       2.51        0.00      95.12       1.17       0.09       0.53       ----

> <Gold.Chemscore.Fitness>
21.3923

> <Gold.Chemscore.DG>
-22.0064

> <Gold.Chemscore.ZeroCoef>
-5.4800

> <Gold.Chemscore.Hbond>
2.5105

> <Gold.Chemscore.Metal>
0.0000

> <Gold.Chemscore.Lipo>
95.1173

> <Gold.Chemscore.Internal_Hbond>
0.0000

> <Gold.Chemscore.DEClash>
0.0853

> <Gold.Chemscore.DEInternal>
0.5289

> <Gold.Chemscore.Rot>
1.1670

> <Gold.Chemscore.Internal.Correction>
   9.000000E+99

> <Gold.Chemscore.Hbonds>
donor molecule, donor type, donor heavy atom, donor atom, acceptor molecule, acceptor atom, score
      P1  H  6931  6943       L1     7  0.61
      P1  H  6934  6947       L1     7  0.50
      P1  H  7997  8008       L1    17  0.96

> <Gold.Chemscore.Hbond.Weighted>
-8.3852

> <Gold.Chemscore.Metal.Weighted>
-0.0000

> <Gold.Chemscore.Lipo.Weighted>
-11.1287

> <Gold.Chemscore.Internal_Hbond.Weighted>
0.0000

> <Gold.Chemscore.DEClash.Weighted>
0.0853

> <Gold.Chemscore.DEInternal.Weighted>
0.5289

> <Gold.Chemscore.Rot.Weighted>
2.9874

> <Gold.Chemscore.Internal.Correction.Weighted>
   9.000000E+99

> <Gold.Protein.RotatedTorsions>
[ 6907 6896 6895 6894 ] final  125.88 input  -60.11 | X-H torsion
[ 7974 7965 7964 7962 ] final    5.01 input  175.53 | X-H torsion
[ 8008 7997 7996 7995 ] final  -28.98 input   59.86 | X-H torsion
[ 10167 10162 10161 10158 ] final  148.81 input  -65.29 | X-H torsion
[ 10718 10713 10712 10709 ] final  -19.34 input   66.30 | X-H torsion
[ 10763 10752 10751 10750 ] final  173.19 input  -60.55 | X-H torsion
[ 11005 11000 10999 10996 ] final   48.40 input  -57.11 | X-H torsion

> <Gold.Protein.ActiveResidues>
 VAL166  LYS551  ARG553  GLY616  TRP617  ASP618  TYR619  PRO620  LYS621  CYS622 
 ASP623  PHE694  ASN695  SER759  ASP760  ASP761  ALA762  ILE779  LEU786  VAL792 
 PHE793  MET794  SER795  GLU796  ALA797  LYS798  CYS799  TRP800  GLU811  SER814 

> <Gold.Protein.RotatedAtoms>
  152.3953  133.6737  159.6270 H   0  0  0  0  0  0  0  0  0  0  0  0  # atno 6907 bound_to 6896
  150.7853  133.8885  159.3315 H   0  0  0  0  0  0  0  0  0  0  0  0  # atno 6908 bound_to 6896
  151.6663  135.0984  160.0240 H   0  0  0  0  0  0  0  0  0  0  0  0  # atno 6909 bound_to 6896
  146.2442  140.0449  142.8379 H   0  0  0  0  0  0  0  0  0  0  0  0  # atno 7974 bound_to 7965
  154.4309  140.1830  156.1175 H   0  0  0  0  0  0  0  0  0  0  0  0  # atno 8008 bound_to 7997
  156.0169  140.3345  155.6973 H   0  0  0  0  0  0  0  0  0  0  0  0  # atno 8009 bound_to 7997
  155.6032  140.0642  157.2718 H   0  0  0  0  0  0  0  0  0  0  0  0  # atno 8010 bound_to 7997
  139.4870  144.5650  151.7161 H   0  0  0  0  0  0  0  0  0  0  0  0  # atno 10167 bound_to 10162
  156.5471  130.4692  149.6470 H   0  0  0  0  0  0  0  0  0  0  0  0  # atno 10718 bound_to 10713
  154.4365  135.2761  155.1876 H   0  0  0  0  0  0  0  0  0  0  0  0  # atno 10763 bound_to 10752
  154.3760  135.6098  153.5769 H   0  0  0  0  0  0  0  0  0  0  0  0  # atno 10764 bound_to 10752
  152.9838  135.5869  154.4686 H   0  0  0  0  0  0  0  0  0  0  0  0  # atno 10765 bound_to 10752
  140.1194  134.4850  155.8610 H   0  0  0  0  0  0  0  0  0  0  0  0  # atno 11005 bound_to 11000
  145.1036  140.9361  143.4698 LP  0  0  0  0  0  0  0  0  0  0  0  0  # atno 17320 bound_to 7965
  145.0647  139.3078  143.5862 LP  0  0  0  0  0  0  0  0  0  0  0  0  # atno 17321 bound_to 7965
  140.5227  144.0854  150.6027 LP  0  0  0  0  0  0  0  0  0  0  0  0  # atno 17342 bound_to 10162
  140.3817  143.2799  152.0162 LP  0  0  0  0  0  0  0  0  0  0  0  0  # atno 17343 bound_to 10162
  156.2918  130.7128  151.1979 LP  0  0  0  0  0  0  0  0  0  0  0  0  # atno 17370 bound_to 10713
  157.7394  131.0529  150.5230 LP  0  0  0  0  0  0  0  0  0  0  0  0  # atno 17371 bound_to 10713
  141.2148  133.6755  156.6859 LP  0  0  0  0  0  0  0  0  0  0  0  0  # atno 17394 bound_to 11000
  140.2985  134.8183  157.4078 LP  0  0  0  0  0  0  0  0  0  0  0  0  # atno 17395 bound_to 11000

$$$$
