AV-unprocessed.smi:1122|AV-procd|sdf|4828|dock1
  -GOLD-   22720 3393D 1   1.00000     0.00000
 Structure written by MMmdl.
 38 39  0  0  0  0  0  0  0  0  1 V2000
  151.9710  138.9073  155.6914 C   0  0  0  0  0  0  0  0  0  0  0  0
  151.7860  138.4800  154.2334 C   0  0  0  0  0  0  0  0  0  0  0  0
  150.3929  138.3385  153.9735 O   0  0  0  0  0  0  0  0  0  0  0  0
  149.5773  139.4475  154.0962 C   0  0  0  0  0  0  0  0  0  0  0  0
  150.1208  140.6006  154.5604 N   0  0  0  0  0  0  0  0  0  0  0  0
  149.3274  141.6851  154.6743 C   0  0  0  0  0  0  0  0  0  0  0  0
  147.9636  141.6808  154.3290 C   0  0  0  0  0  0  0  0  0  0  0  0
  147.3971  140.4859  153.8482 C   0  0  0  0  0  0  0  0  0  0  0  0
  148.2139  139.3342  153.7367 C   0  0  0  0  0  0  0  0  0  0  0  0
  147.7545  138.0792  153.2487 N   0  0  0  0  0  0  0  0  0  0  0  0
  146.5185  137.5546  153.2983 C   0  0  0  0  0  0  0  0  0  0  0  0
  145.5335  138.0942  153.8014 O   0  0  0  0  0  0  0  0  0  0  0  0
  146.4905  136.3373  152.7381 N   0  0  0  0  0  0  0  0  0  0  0  0
  145.3129  135.4824  152.6266 C   0  0  0  0  0  0  0  0  0  0  0  0
  145.3995  134.5370  151.4158 C   0  0  1  0  0  0  0  0  0  0  0  0
  146.5218  133.4995  151.4773 C   0  0  0  0  0  0  0  0  0  0  0  0
  145.9836  132.4162  150.5719 C   0  0  0  0  0  0  0  0  0  0  0  0
  144.4984  132.4341  150.9198 C   0  0  0  0  0  0  0  0  0  0  0  0
  144.2003  133.7747  151.3023 O   0  0  0  0  0  0  0  0  0  0  0  0
  153.0279  139.0204  155.9332 H   0  0  0  0  0  0  0  0  0  0  0  0
  151.5496  138.1672  156.3721 H   0  0  0  0  0  0  0  0  0  0  0  0
  151.4793  139.8609  155.8852 H   0  0  0  0  0  0  0  0  0  0  0  0
  152.2227  139.2310  153.5732 H   0  0  0  0  0  0  0  0  0  0  0  0
  152.3035  137.5349  154.0614 H   0  0  0  0  0  0  0  0  0  0  0  0
  149.7950  142.5849  155.0458 H   0  0  0  0  0  0  0  0  0  0  0  0
  147.3661  142.5751  154.4264 H   0  0  0  0  0  0  0  0  0  0  0  0
  146.3567  140.4844  153.5636 H   0  0  0  0  0  0  0  0  0  0  0  0
  148.4729  137.4806  152.8682 H   0  0  0  0  0  0  0  0  0  0  0  0
  147.3507  135.9724  152.3562 H   0  0  0  0  0  0  0  0  0  0  0  0
  145.1490  134.9165  153.5452 H   0  0  0  0  0  0  0  0  0  0  0  0
  144.4462  136.1340  152.5130 H   0  0  0  0  0  0  0  0  0  0  0  0
  145.5000  135.1178  150.4973 H   0  0  0  0  0  0  0  0  0  0  0  0
  147.4854  133.8915  151.1506 H   0  0  0  0  0  0  0  0  0  0  0  0
  146.6347  133.1123  152.4911 H   0  0  0  0  0  0  0  0  0  0  0  0
  146.1301  132.6943  149.5273 H   0  0  0  0  0  0  0  0  0  0  0  0
  146.4501  131.4448  150.7375 H   0  0  0  0  0  0  0  0  0  0  0  0
  143.8731  132.1077  150.0885 H   0  0  0  0  0  0  0  0  0  0  0  0
  144.2988  131.7812  151.7703 H   0  0  0  0  0  0  0  0  0  0  0  0
  1  2  1  0  0  0  0
  1 20  1  0  0  0  0
  1 21  1  0  0  0  0
  1 22  1  0  0  0  0
  2  3  1  0  0  0  0
  2 23  1  0  0  0  0
  2 24  1  0  0  0  0
  3  4  1  0  0  0  0
  4  9  1  0  0  0  0
  4  5  2  0  0  0  0
  5  6  1  0  0  0  0
  6  7  2  0  0  0  0
  6 25  1  0  0  0  0
  7  8  1  0  0  0  0
  7 26  1  0  0  0  0
  8  9  2  0  0  0  0
  8 27  1  0  0  0  0
  9 10  1  0  0  0  0
 10 11  1  0  0  0  0
 10 28  1  0  0  0  0
 11 12  2  0  0  0  0
 11 13  1  0  0  0  0
 13 14  1  0  0  0  0
 13 29  1  0  0  0  0
 14 15  1  0  0  0  0
 14 30  1  0  0  0  0
 14 31  1  0  0  0  0
 15 19  1  0  0  0  0
 15 16  1  0  0  0  0
 15 32  1  0  0  0  0
 16 17  1  0  0  0  0
 16 33  1  0  0  0  0
 16 34  1  0  0  0  0
 17 18  1  0  0  0  0
 17 35  1  0  0  0  0
 17 36  1  0  0  0  0
 18 19  1  0  0  0  0
 18 37  1  0  0  0  0
 18 38  1  0  0  0  0
M  END
> <s_m_source_file>
AV-unprocessed.smi

> <i_m_source_file_index>
1122

> <i_lp_mmshare_version>
43012

> <i_f3d_flags>
0

> <s_epik_input>
W0NIM11bQ0gyXU9jMW5bY0hdW2NIXVtjSF1jMVtOSF1DKD1PKVtOSF1bQ0gyXVtDQEBIXTJbQ0gyXVtDSDJdW0NIMl1PMg==

> <s_epik_cmdline>
J2VwaWtfcHl0aG9uJywgJy1waCcsICc3LjAnLCAnLXRuJywgJzgnLCAnLW1hJywgJzIwMCcsICctbWV0YWxfYmluZGluZycsICctaW1hZScsICc8aW5maWxlLm1hZT4nLCAnLW9tYWUnLCAnPG91dGZpbGUubWFlPic=

> <r_lp_tautomer_probability>
1

> <r_epik_Ionization_Penalty>
0.000110193

> <r_epik_Ionization_Penalty_Charging>
0

> <r_epik_Ionization_Penalty_Neutral>
0.000110193

> <r_epik_State_Penalty>
-0

> <r_epik_Charging_Adjusted_Penalty>
0

> <i_epik_Tot_Q>
0

> <i_epik_Tot_abs_Q>
0

> <r_epik_Metal_State_Penalty>
-0

> <b_epik_Metal_Only>
0

> <s_lp_Force_Field>
OPLS_2005

> <r_lp_Energy>
19.7185

> <b_lp_Chiralities_Consistent>
1

> <s_lp_Variant>
AV-unprocessed.smi:1122-2

> <Gold.Version>
5.8.1

> <Gold.Id.Protein>
6NUR|6NUR_protein|mol2

> <Gold.PLP.Fitness>
44.1192

> <Gold.PLP.PLP>
-33.1373

> <Gold.PLP.part.hbond>
-3.0928

> <Gold.PLP.part.metal>
0.0000

> <Gold.PLP.part.buried>
-2.8170

> <Gold.PLP.part.nonpolar>
-28.4567

> <Gold.PLP.part.repulsive>
1.0898

> <Gold.PLP.ligand.clash>
0.0000

> <Gold.PLP.ligand.torsion>
0.3793

> <Gold.PLP.Chemscore.Hbond>
2.9120

> <Gold.PLP.Chemscore.CHOScore>
0.9847

> <Gold.PLP.Chemscore.Metal>
0.0000

> <Gold.Chemscore.Hbonds>
donor molecule, donor type, donor heavy atom, donor atom, acceptor molecule, acceptor atom, score
      L1  H    10    28       P1  7948  1.00
      L1  H    13    29       P1  7948  1.00
      P1  H  7989  7998       L1     5  0.85
      L1  C     6    25       P1  8028  1.00

> <Gold.PLP.Chemscore.Internal.Correction>
0.0505

> <Gold.Rescore>
     Score         DG    S(hbond)    S(metal)    S(lipo)     H(rot)  DE(clash)    DE(int)     intcor
     13.99     -16.84       2.19        0.00      70.02       1.61       0.22       2.63       ----

> <Gold.Chemscore.Fitness>
13.9936

> <Gold.Chemscore.DG>
-16.8417

> <Gold.Chemscore.ZeroCoef>
-5.4800

> <Gold.Chemscore.Hbond>
2.1854

> <Gold.Chemscore.Metal>
0.0000

> <Gold.Chemscore.Lipo>
70.0186

> <Gold.Chemscore.Internal_Hbond>
0.0000

> <Gold.Chemscore.DEClash>
0.2199

> <Gold.Chemscore.DEInternal>
2.6282

> <Gold.Chemscore.Rot>
1.6131

> <Gold.Chemscore.Internal.Correction>
   9.000000E+99

> <Gold.Chemscore.Hbonds>
donor molecule, donor type, donor heavy atom, donor atom, acceptor molecule, acceptor atom, score
      L1  H    10    28       P1  7948  0.96
      L1  H    13    29       P1  7948  0.94
      P1  H  7989  7998       L1     5  0.36

> <Gold.Chemscore.Hbond.Weighted>
-7.2992

> <Gold.Chemscore.Metal.Weighted>
-0.0000

> <Gold.Chemscore.Lipo.Weighted>
-8.1922

> <Gold.Chemscore.Internal_Hbond.Weighted>
0.0000

> <Gold.Chemscore.DEClash.Weighted>
0.2199

> <Gold.Chemscore.DEInternal.Weighted>
2.6282

> <Gold.Chemscore.Rot.Weighted>
4.1296

> <Gold.Chemscore.Internal.Correction.Weighted>
   9.000000E+99

> <Gold.Protein.RotatedTorsions>
[ 6907 6896 6895 6894 ] final  -39.09 input  -60.11 | X-H torsion
[ 7974 7965 7964 7962 ] final  179.58 input  175.53 | X-H torsion
[ 8008 7997 7996 7995 ] final -147.62 input   59.86 | X-H torsion
[ 10167 10162 10161 10158 ] final  164.09 input  -65.29 | X-H torsion
[ 10718 10713 10712 10709 ] final  121.38 input   66.30 | X-H torsion
[ 10763 10752 10751 10750 ] final  118.30 input  -60.55 | X-H torsion
[ 11005 11000 10999 10996 ] final -140.91 input  -57.11 | X-H torsion

> <Gold.Protein.ActiveResidues>
 VAL166  LYS551  ARG553  GLY616  TRP617  ASP618  TYR619  PRO620  LYS621  CYS622 
 ASP623  PHE694  ASN695  SER759  ASP760  ASP761  ALA762  ILE779  LEU786  VAL792 
 PHE793  MET794  SER795  GLU796  ALA797  LYS798  CYS799  TRP800  GLU811  SER814 

> <Gold.Protein.RotatedAtoms>
  150.9946  134.9273  159.7918 H   0  0  0  0  0  0  0  0  0  0  0  0  # atno 6907 bound_to 6896
  152.5261  134.3236  159.9167 H   0  0  0  0  0  0  0  0  0  0  0  0  # atno 6908 bound_to 6896
  151.3242  133.3986  159.2691 H   0  0  0  0  0  0  0  0  0  0  0  0  # atno 6909 bound_to 6896
  144.7144  140.0569  143.6433 H   0  0  0  0  0  0  0  0  0  0  0  0  # atno 7974 bound_to 7965
  155.5784  140.0641  157.2789 H   0  0  0  0  0  0  0  0  0  0  0  0  # atno 8008 bound_to 7997
  154.4340  140.1856  156.0998 H   0  0  0  0  0  0  0  0  0  0  0  0  # atno 8009 bound_to 7997
  156.0323  140.3305  155.7157 H   0  0  0  0  0  0  0  0  0  0  0  0  # atno 8010 bound_to 7997
  139.4883  144.4271  151.9116 H   0  0  0  0  0  0  0  0  0  0  0  0  # atno 10167 bound_to 10162
  157.5822  131.1073  150.8165 H   0  0  0  0  0  0  0  0  0  0  0  0  # atno 10718 bound_to 10713
  153.5655  135.3512  155.2816 H   0  0  0  0  0  0  0  0  0  0  0  0  # atno 10763 bound_to 10752
  154.8689  135.4147  154.2783 H   0  0  0  0  0  0  0  0  0  0  0  0  # atno 10764 bound_to 10752
  153.3538  135.7056  153.6837 H   0  0  0  0  0  0  0  0  0  0  0  0  # atno 10765 bound_to 10752
  140.8376  134.2441  157.4826 H   0  0  0  0  0  0  0  0  0  0  0  0  # atno 11005 bound_to 11000
  145.9896  139.3005  143.0992 LP  0  0  0  0  0  0  0  0  0  0  0  0  # atno 17320 bound_to 7965
  145.8917  140.9299  143.0548 LP  0  0  0  0  0  0  0  0  0  0  0  0  # atno 17321 bound_to 7965
  140.3717  144.2847  150.5919 LP  0  0  0  0  0  0  0  0  0  0  0  0  # atno 17342 bound_to 10162
  140.5313  143.2243  151.8234 LP  0  0  0  0  0  0  0  0  0  0  0  0  # atno 17343 bound_to 10162
  156.8608  130.5112  149.5304 LP  0  0  0  0  0  0  0  0  0  0  0  0  # atno 17370 bound_to 10713
  156.0868  130.5865  150.9663 LP  0  0  0  0  0  0  0  0  0  0  0  0  # atno 17371 bound_to 10713
  139.8704  134.9619  156.4410 LP  0  0  0  0  0  0  0  0  0  0  0  0  # atno 17394 bound_to 11000
  140.8930  133.7834  155.9593 LP  0  0  0  0  0  0  0  0  0  0  0  0  # atno 17395 bound_to 11000

$$$$
