AV-unprocessed.smi:34|AV-procd|sdf|224|dock3
  -GOLD-   2262015543D 1   1.00000     0.00000
 Structure written by MMmdl.
 55 59  0  0  0  0  0  0  0  0  1 V2000
  152.9295  140.1031  158.3411 O   0  0  0  0  0  0  0  0  0  0  0  0
  152.1852  140.9973  157.9381 C   0  0  0  0  0  0  0  0  0  0  0  0
  151.2701  140.8004  156.8273 N   0  0  0  0  0  0  0  0  0  0  0  0
  151.1291  139.7066  156.0422 C   0  0  0  0  0  0  0  0  0  0  0  0
  151.0530  139.7852  154.6875 N   0  0  0  0  0  0  0  0  0  0  0  0
  150.9156  138.6756  153.9559 C   0  0  0  0  0  0  0  0  0  0  0  0
  150.8351  137.4093  154.3692 N   0  0  0  0  0  0  0  0  0  0  0  0
  150.9120  137.3211  155.7282 C   0  0  0  0  0  0  0  0  0  0  0  0
  151.0582  138.4149  156.6264 C   0  0  0  0  0  0  0  0  0  0  0  0
  151.0982  137.9476  157.9338 N   0  0  0  0  0  0  0  0  0  0  0  0
  150.9779  136.6528  157.8105 C   0  0  0  0  0  0  0  0  0  0  0  0
  150.8643  136.1906  156.5182 N   0  0  0  0  0  0  0  0  0  0  0  0
  150.7080  134.7764  156.0649 C   0  0  1  0  0  0  0  0  0  0  0  0
  150.4820  133.9887  157.1904 O   0  0  0  0  0  0  0  0  0  0  0  0
  149.6325  132.9159  156.8169 C   0  0  1  0  0  0  0  0  0  0  0  0
  148.9860  132.2744  158.0506 C   0  0  0  0  0  0  0  0  0  0  0  0
  148.5761  133.2975  158.9429 O   0  0  0  0  0  0  0  0  0  0  0  0
  147.7555  133.0080  159.9712 C   0  0  0  0  0  0  0  0  0  0  0  0
  147.3636  131.8687  160.2322 O   0  0  0  0  0  0  0  0  0  0  0  0
  147.3670  134.2129  160.7599 C   0  0  0  0  0  0  0  0  0  0  0  0
  146.5584  134.0572  161.9100 C   0  0  0  0  0  0  0  0  0  0  0  0
  146.1729  135.1767  162.6728 C   0  0  0  0  0  0  0  0  0  0  0  0
  146.5923  136.4656  162.2956 C   0  0  0  0  0  0  0  0  0  0  0  0
  147.3977  136.6337  161.1541 C   0  0  0  0  0  0  0  0  0  0  0  0
  147.7833  135.5154  160.3894 C   0  0  0  0  0  0  0  0  0  0  0  0
  148.6440  133.5779  155.8545 C   0  0  1  0  0  0  0  0  0  0  0  0
  147.6654  134.1903  156.5233 F   0  0  0  0  0  0  0  0  0  0  0  0
  149.4936  134.6173  155.1314 C   0  0  2  0  0  0  0  0  0  0  0  0
  149.8665  134.1253  153.8597 O   0  0  0  0  0  0  0  0  0  0  0  0
  152.1138  142.3324  158.6208 C   0  0  0  0  0  0  0  0  0  0  0  0
  151.6278  143.4595  157.9203 C   0  0  0  0  0  0  0  0  0  0  0  0
  151.5435  144.7132  158.5569 C   0  0  0  0  0  0  0  0  0  0  0  0
  151.9376  144.8490  159.9013 C   0  0  0  0  0  0  0  0  0  0  0  0
  152.4112  143.7290  160.6105 C   0  0  0  0  0  0  0  0  0  0  0  0
  152.4954  142.4747  159.9752 C   0  0  0  0  0  0  0  0  0  0  0  0
  150.6794  141.5866  156.5984 H   0  0  0  0  0  0  0  0  0  0  0  0
  150.8625  138.8234  152.8874 H   0  0  0  0  0  0  0  0  0  0  0  0
  150.9696  135.9943  158.6669 H   0  0  0  0  0  0  0  0  0  0  0  0
  151.6596  134.5161  155.5985 H   0  0  0  0  0  0  0  0  0  0  0  0
  150.2202  132.1762  156.2697 H   0  0  0  0  0  0  0  0  0  0  0  0
  148.1381  131.6538  157.7562 H   0  0  0  0  0  0  0  0  0  0  0  0
  149.7064  131.6322  158.5589 H   0  0  0  0  0  0  0  0  0  0  0  0
  146.2232  133.0776  162.2186 H   0  0  0  0  0  0  0  0  0  0  0  0
  145.5542  135.0455  163.5483 H   0  0  0  0  0  0  0  0  0  0  0  0
  146.2967  137.3239  162.8808 H   0  0  0  0  0  0  0  0  0  0  0  0
  147.7210  137.6223  160.8638 H   0  0  0  0  0  0  0  0  0  0  0  0
  148.4017  135.6801  159.5192 H   0  0  0  0  0  0  0  0  0  0  0  0
  148.1622  132.8624  155.1867 H   0  0  0  0  0  0  0  0  0  0  0  0
  148.9597  135.5611  155.0085 H   0  0  0  0  0  0  0  0  0  0  0  0
  149.4717  133.2752  153.7387 H   0  0  0  0  0  0  0  0  0  0  0  0
  151.3208  143.3717  156.8881 H   0  0  0  0  0  0  0  0  0  0  0  0
  151.1751  145.5706  158.0132 H   0  0  0  0  0  0  0  0  0  0  0  0
  151.8725  145.8103  160.3892 H   0  0  0  0  0  0  0  0  0  0  0  0
  152.7079  143.8310  161.6439 H   0  0  0  0  0  0  0  0  0  0  0  0
  152.8521  141.6266  160.5417 H   0  0  0  0  0  0  0  0  0  0  0  0
  1  2  2  0  0  0  0
  2  3  1  0  0  0  0
  2 30  1  0  0  0  0
  3  4  1  0  0  0  0
  3 36  1  0  0  0  0
  4  9  1  0  0  0  0
  4  5  2  0  0  0  0
  5  6  1  0  0  0  0
  6  7  2  0  0  0  0
  6 37  1  0  0  0  0
  7  8  1  0  0  0  0
  8 12  1  0  0  0  0
  8  9  2  0  0  0  0
  9 10  1  0  0  0  0
 10 11  2  0  0  0  0
 11 12  1  0  0  0  0
 11 38  1  0  0  0  0
 12 13  1  0  0  0  0
 13 28  1  0  0  0  0
 13 14  1  0  0  0  0
 13 39  1  0  0  0  0
 14 15  1  0  0  0  0
 15 16  1  0  0  0  0
 15 26  1  0  0  0  0
 15 40  1  0  0  0  0
 16 17  1  0  0  0  0
 16 41  1  0  0  0  0
 16 42  1  0  0  0  0
 17 18  1  0  0  0  0
 18 19  2  0  0  0  0
 18 20  1  0  0  0  0
 20 25  1  0  0  0  0
 20 21  2  0  0  0  0
 21 22  1  0  0  0  0
 21 43  1  0  0  0  0
 22 23  2  0  0  0  0
 22 44  1  0  0  0  0
 23 24  1  0  0  0  0
 23 45  1  0  0  0  0
 24 25  2  0  0  0  0
 24 46  1  0  0  0  0
 25 47  1  0  0  0  0
 26 27  1  0  0  0  0
 26 28  1  0  0  0  0
 26 48  1  0  0  0  0
 28 29  1  0  0  0  0
 28 49  1  0  0  0  0
 29 50  1  0  0  0  0
 30 35  1  0  0  0  0
 30 31  2  0  0  0  0
 31 32  1  0  0  0  0
 31 51  1  0  0  0  0
 32 33  2  0  0  0  0
 32 52  1  0  0  0  0
 33 34  1  0  0  0  0
 33 53  1  0  0  0  0
 34 35  2  0  0  0  0
 34 54  1  0  0  0  0
 35 55  1  0  0  0  0
M  END
> <s_m_source_file>
AV-unprocessed.smi

> <i_m_source_file_index>
34

> <i_lp_mmshare_version>
43012

> <i_f3d_flags>
0

> <s_epik_input>
W2NIXTFbY0hdW2NIXVtjSF1bY0hdYzFDKD1PKVtOSF1jKG5bY0hdbjIpYyhjMjMpbltjSF1uM1tDQEBIXTRPW0NASF0oW0NAQEhdKEYpW0NASF00W09IXSlbQ0gyXU9DKD1PKWM1W2NIXVtjSF1bY0hdW2NIXVtjSF01

> <s_epik_cmdline>
J2VwaWtfcHl0aG9uJywgJy1waCcsICc3LjAnLCAnLXRuJywgJzgnLCAnLW1hJywgJzIwMCcsICctbWV0YWxfYmluZGluZycsICctaW1hZScsICc8aW5maWxlLm1hZT4nLCAnLW9tYWUnLCAnPG91dGZpbGUubWFlPic=

> <r_lp_tautomer_probability>
1

> <r_epik_Ionization_Penalty>
0.00257489

> <r_epik_Ionization_Penalty_Charging>
0

> <r_epik_Ionization_Penalty_Neutral>
0.00257489

> <r_epik_State_Penalty>
0.00519398

> <r_epik_Charging_Adjusted_Penalty>
0.00519398

> <i_epik_Tot_Q>
0

> <i_epik_Tot_abs_Q>
0

> <r_epik_Metal_State_Penalty>
0.335891

> <b_epik_Metal_Only>
0

> <s_epik_Chemistry_Notes>
This compound has an ester and may undergo hydrolysis at high or low pH. This compound contains an acetal/aminal-like group ( X-CH(R)-Y where X, Y are N, S, or O) that may be acid/base labile, releasing an aldehyde.

> <s_lp_Force_Field>
OPLS_2005

> <r_lp_Energy>
46.9795

> <b_lp_Chiralities_Consistent>
1

> <s_lp_Variant>
AV-unprocessed.smi:34-10

> <Gold.Version>
5.8.1

> <Gold.Id.Protein>
6NUR|6NUR_protein|mol2

> <Gold.PLP.Fitness>
67.0065

> <Gold.PLP.PLP>
-57.6572

> <Gold.PLP.part.hbond>
-5.0287

> <Gold.PLP.part.metal>
0.0000

> <Gold.PLP.part.buried>
-6.6112

> <Gold.PLP.part.nonpolar>
-47.0202

> <Gold.PLP.part.repulsive>
0.3835

> <Gold.PLP.ligand.clash>
0.0000

> <Gold.PLP.ligand.torsion>
0.9621

> <Gold.PLP.Chemscore.Hbond>
2.6777

> <Gold.PLP.Chemscore.CHOScore>
1.0000

> <Gold.PLP.Chemscore.Metal>
0.0000

> <Gold.Chemscore.Hbonds>
donor molecule, donor type, donor heavy atom, donor atom, acceptor molecule, acceptor atom, score
      P1  H  6896  6908       L1    14  0.63
      P1  H  7989  7998       L1     5  1.00
      P1  H  7997  8008       L1     1  0.80
      L1  C     6    37       P1  7957  0.84

> <Gold.PLP.Chemscore.Internal.Correction>
0.2405

> <Gold.Rescore>
     Score         DG    S(hbond)    S(metal)    S(lipo)     H(rot)  DE(clash)    DE(int)     intcor
     16.43     -21.96       2.23        0.00     136.62       2.72       1.07       4.46       ----

> <Gold.Chemscore.Fitness>
16.4307

> <Gold.Chemscore.DG>
-21.9578

> <Gold.Chemscore.ZeroCoef>
-5.4800

> <Gold.Chemscore.Hbond>
2.2335

> <Gold.Chemscore.Metal>
0.0000

> <Gold.Chemscore.Lipo>
136.6231

> <Gold.Chemscore.Internal_Hbond>
0.0000

> <Gold.Chemscore.DEClash>
1.0663

> <Gold.Chemscore.DEInternal>
4.4608

> <Gold.Chemscore.Rot>
2.7215

> <Gold.Chemscore.Internal.Correction>
   9.000000E+99

> <Gold.Chemscore.Hbonds>
donor molecule, donor type, donor heavy atom, donor atom, acceptor molecule, acceptor atom, score
      P1  H  6896  6908       L1    14  0.34
      P1  H  7989  7998       L1     5  0.26
      P1  H  7997  8008       L1     1  0.41

> <Gold.Chemscore.Hbond.Weighted>
-7.4599

> <Gold.Chemscore.Metal.Weighted>
-0.0000

> <Gold.Chemscore.Lipo.Weighted>
-15.9849

> <Gold.Chemscore.Internal_Hbond.Weighted>
0.0000

> <Gold.Chemscore.DEClash.Weighted>
1.0663

> <Gold.Chemscore.DEInternal.Weighted>
4.4608

> <Gold.Chemscore.Rot.Weighted>
6.9670

> <Gold.Chemscore.Internal.Correction.Weighted>
   9.000000E+99

> <Gold.Protein.RotatedTorsions>
[ 6907 6896 6895 6894 ] final  113.98 input  -60.11 | X-H torsion
[ 7974 7965 7964 7962 ] final -161.57 input  175.53 | X-H torsion
[ 8008 7997 7996 7995 ] final  -83.68 input   59.86 | X-H torsion
[ 10167 10162 10161 10158 ] final   84.47 input  -65.29 | X-H torsion
[ 10718 10713 10712 10709 ] final  -90.00 input   66.30 | X-H torsion
[ 10763 10752 10751 10750 ] final   16.51 input  -60.55 | X-H torsion
[ 11005 11000 10999 10996 ] final  -95.99 input  -57.11 | X-H torsion

> <Gold.Protein.ActiveResidues>
 VAL166  LYS551  ARG553  GLY616  TRP617  ASP618  TYR619  PRO620  LYS621  CYS622 
 ASP623  PHE694  ASN695  SER759  ASP760  ASP761  ALA762  ILE779  LEU786  VAL792 
 PHE793  MET794  SER795  GLU796  ALA797  LYS798  CYS799  TRP800  GLU811  SER814 

> <Gold.Protein.RotatedAtoms>
  152.4829  133.8300  159.7097 H   0  0  0  0  0  0  0  0  0  0  0  0  # atno 6907 bound_to 6896
  150.8893  133.7256  159.2916 H   0  0  0  0  0  0  0  0  0  0  0  0  # atno 6908 bound_to 6896
  151.4734  135.1051  159.9810 H   0  0  0  0  0  0  0  0  0  0  0  0  # atno 6909 bound_to 6896
  144.7387  140.3379  143.6140 H   0  0  0  0  0  0  0  0  0  0  0  0  # atno 7974 bound_to 7965
  154.6217  140.0615  156.9623 H   0  0  0  0  0  0  0  0  0  0  0  0  # atno 8008 bound_to 7997
  155.1807  140.3299  155.4357 H   0  0  0  0  0  0  0  0  0  0  0  0  # atno 8009 bound_to 7997
  156.2435  140.1898  156.6903 H   0  0  0  0  0  0  0  0  0  0  0  0  # atno 8010 bound_to 7997
  139.9077  144.6291  150.8570 H   0  0  0  0  0  0  0  0  0  0  0  0  # atno 10167 bound_to 10162
  155.9986  130.4893  150.5256 H   0  0  0  0  0  0  0  0  0  0  0  0  # atno 10718 bound_to 10713
  153.1424  135.6762  153.9006 H   0  0  0  0  0  0  0  0  0  0  0  0  # atno 10763 bound_to 10752
  153.8459  135.3099  155.3430 H   0  0  0  0  0  0  0  0  0  0  0  0  # atno 10764 bound_to 10752
  154.7798  135.4894  153.9905 H   0  0  0  0  0  0  0  0  0  0  0  0  # atno 10765 bound_to 10752
  141.1425  133.8065  157.0510 H   0  0  0  0  0  0  0  0  0  0  0  0  # atno 11005 bound_to 11000
  145.7405  139.1762  143.2379 LP  0  0  0  0  0  0  0  0  0  0  0  0  # atno 17320 bound_to 7965
  146.1138  140.7395  142.9490 LP  0  0  0  0  0  0  0  0  0  0  0  0  # atno 17321 bound_to 7965
  140.7692  143.3389  151.2251 LP  0  0  0  0  0  0  0  0  0  0  0  0  # atno 17342 bound_to 10162
  139.6969  143.9597  152.2887 LP  0  0  0  0  0  0  0  0  0  0  0  0  # atno 17343 bound_to 10162
  157.3212  131.0682  151.1930 LP  0  0  0  0  0  0  0  0  0  0  0  0  # atno 17370 bound_to 10713
  157.2843  130.6765  149.6082 LP  0  0  0  0  0  0  0  0  0  0  0  0  # atno 17371 bound_to 10713
  140.0632  134.9743  157.1340 LP  0  0  0  0  0  0  0  0  0  0  0  0  # atno 17394 bound_to 11000
  140.3819  134.2278  155.7170 LP  0  0  0  0  0  0  0  0  0  0  0  0  # atno 17395 bound_to 11000

$$$$
