AV-unprocessed.smi:1006|AV-procd|sdf|4394|dock3
  -GOLD-   22720 2323D 1   1.00000     0.00000
 Structure written by MMmdl.
 46 48  0  0  0  0  0  0  0  0  2 V2000
  147.9511  137.2542  163.8030 C   0  0  0  0  0  0  0  0  0  0  0  0
  147.8882  136.2786  162.6471 C   0  0  0  0  0  0  0  0  0  0  0  0
  147.4540  134.9468  162.8268 C   0  0  0  0  0  0  0  0  0  0  0  0
  147.4362  134.1349  161.6732 C   0  0  0  0  0  0  0  0  0  0  0  0
  147.0247  132.8066  161.7431 N   0  0  0  0  0  0  0  0  0  0  0  0
  147.8102  134.6068  160.4645 N   0  0  0  0  0  0  0  0  0  0  0  0
  148.2044  135.8819  160.4241 C   0  0  0  0  0  0  0  0  0  0  0  0
  148.6608  136.5109  158.8301 S   0  0  0  0  0  0  0  0  0  0  0  0
  149.8621  137.7594  159.3645 C   0  0  0  0  0  0  0  0  0  0  0  0
  150.5596  138.4611  158.1845 C   0  0  2  0  0  0  0  0  0  0  0  0
  151.2631  137.5057  157.4171 O   0  0  0  0  0  0  0  0  0  0  0  0
  151.5607  139.5533  158.6131 C   0  0  0  0  0  0  0  0  0  0  0  0
  151.1892  140.8919  158.1333 N   0  0  0  0  0  0  0  0  0  0  0  0
  150.5106  141.2499  157.0096 C   0  0  0  0  0  0  0  0  0  0  0  0
  150.4032  142.6072  157.0091 N   0  3  0  0  0  0  0  0  0  0  0  0
  151.0213  143.1246  158.1493 C   0  0  0  0  0  0  0  0  0  0  0  0
  151.1654  144.4346  158.5905 C   0  0  0  0  0  0  0  0  0  0  0  0
  151.8454  144.6323  159.8134 C   0  0  0  0  0  0  0  0  0  0  0  0
  152.0148  146.0517  160.3280 C   0  0  0  0  0  0  0  0  0  0  0  0
  152.3574  143.5327  160.5497 C   0  0  0  0  0  0  0  0  0  0  0  0
  153.0772  143.7548  161.8690 C   0  0  0  0  0  0  0  0  0  0  0  0
  152.2082  142.2088  160.0792 C   0  0  0  0  0  0  0  0  0  0  0  0
  151.5317  142.0302  158.8743 C   0  0  0  0  0  0  0  0  0  0  0  0
  148.2644  136.7485  161.4369 N   0  0  0  0  0  0  0  0  0  0  0  0
  147.6200  136.7871  164.7308 H   0  0  0  0  0  0  0  0  0  0  0  0
  147.3110  138.1150  163.6077 H   0  0  0  0  0  0  0  0  0  0  0  0
  148.9722  137.6088  163.9452 H   0  0  0  0  0  0  0  0  0  0  0  0
  147.1540  134.5706  163.7941 H   0  0  0  0  0  0  0  0  0  0  0  0
  146.7300  132.3912  162.6150 H   0  0  0  0  0  0  0  0  0  0  0  0
  147.1050  132.1914  160.9465 H   0  0  0  0  0  0  0  0  0  0  0  0
  149.3192  138.4852  159.9691 H   0  0  0  0  0  0  0  0  0  0  0  0
  150.5961  137.2853  160.0172 H   0  0  0  0  0  0  0  0  0  0  0  0
  149.8021  138.9109  157.5412 H   0  0  0  0  0  0  0  0  0  0  0  0
  152.0401  137.2492  157.8901 H   0  0  0  0  0  0  0  0  0  0  0  0
  151.6793  139.5794  159.6965 H   0  0  0  0  0  0  0  0  0  0  0  0
  152.5479  139.3320  158.2050 H   0  0  0  0  0  0  0  0  0  0  0  0
  150.1231  140.5778  156.2573 H   0  0  0  0  0  0  0  0  0  0  0  0
  150.7696  145.2662  158.0261 H   0  0  0  0  0  0  0  0  0  0  0  0
  153.0701  146.2848  160.4722 H   0  0  0  0  0  0  0  0  0  0  0  0
  151.4981  146.1768  161.2803 H   0  0  0  0  0  0  0  0  0  0  0  0
  151.6066  146.7813  159.6277 H   0  0  0  0  0  0  0  0  0  0  0  0
  153.3787  142.8103  162.3231 H   0  0  0  0  0  0  0  0  0  0  0  0
  152.4288  144.2708  162.5775 H   0  0  0  0  0  0  0  0  0  0  0  0
  153.9750  144.3546  161.7190 H   0  0  0  0  0  0  0  0  0  0  0  0
  152.5969  141.3744  160.6439 H   0  0  0  0  0  0  0  0  0  0  0  0
  149.9374  143.1385  156.2845 H   0  0  0  0  0  0  0  0  0  0  0  0
  1  2  1  0  0  0  0
  1 25  1  0  0  0  0
  1 26  1  0  0  0  0
  1 27  1  0  0  0  0
  2 24  1  0  0  0  0
  2  3  2  0  0  0  0
  3  4  1  0  0  0  0
  3 28  1  0  0  0  0
  4  5  1  0  0  0  0
  4  6  2  0  0  0  0
  5 29  1  0  0  0  0
  5 30  1  0  0  0  0
  6  7  1  0  0  0  0
  7  8  1  0  0  0  0
  7 24  2  0  0  0  0
  8  9  1  0  0  0  0
  9 10  1  0  0  0  0
  9 31  1  0  0  0  0
  9 32  1  0  0  0  0
 10 11  1  0  0  0  0
 10 12  1  0  0  0  0
 10 33  1  0  0  0  0
 11 34  1  0  0  0  0
 12 13  1  0  0  0  0
 12 35  1  0  0  0  0
 12 36  1  0  0  0  0
 13 23  1  0  0  0  0
 13 14  1  0  0  0  0
 14 15  2  0  0  0  0
 14 37  1  0  0  0  0
 15 16  1  0  0  0  0
 15 46  1  0  0  0  0
 16 23  2  0  0  0  0
 16 17  1  0  0  0  0
 17 18  2  0  0  0  0
 17 38  1  0  0  0  0
 18 19  1  0  0  0  0
 18 20  1  0  0  0  0
 19 39  1  0  0  0  0
 19 40  1  0  0  0  0
 19 41  1  0  0  0  0
 20 21  1  0  0  0  0
 20 22  2  0  0  0  0
 21 42  1  0  0  0  0
 21 43  1  0  0  0  0
 21 44  1  0  0  0  0
 22 23  1  0  0  0  0
 22 45  1  0  0  0  0
M  CHG  1  15   1
M  END
> <s_m_source_file>
AV-unprocessed.smi

> <i_m_source_file_index>
1006

> <i_lp_mmshare_version>
43012

> <i_f3d_flags>
0

> <s_epik_input>
W0NIM11jMVtjSF1jKFtOSDJdKW5jKG4xKVNbQ0gyXVtDQEhdKFtPSF0pW0NIMl1uKFtjSF1uMiljKGMyMylbY0hdYyhbQ0gzXSljKFtjSF0zKVtDSDNd

> <s_epik_cmdline>
J2VwaWtfcHl0aG9uJywgJy1waCcsICc3LjAnLCAnLXRuJywgJzgnLCAnLW1hJywgJzIwMCcsICctbWV0YWxfYmluZGluZycsICctaW1hZScsICc8aW5maWxlLm1hZT4nLCAnLW9tYWUnLCAnPG91dGZpbGUubWFlPic=

> <r_epik_Ionization_Penalty>
1.4378

> <r_epik_Ionization_Penalty_Charging>
1.06724

> <r_epik_Ionization_Penalty_Neutral>
0.370564

> <r_epik_State_Penalty>
1.48666

> <r_epik_Charging_Adjusted_Penalty>
2.5539

> <i_epik_Tot_Q>
1

> <i_epik_Tot_abs_Q>
1

> <r_epik_Metal_State_Penalty>
1.38026

> <b_epik_Metal_Only>
0

> <s_lp_Force_Field>
OPLS_2005

> <r_lp_Energy>
8.71661

> <b_lp_Chiralities_Consistent>
1

> <s_lp_Variant>
AV-unprocessed.smi:1006-5

> <Gold.Version>
5.8.1

> <Gold.Id.Protein>
6NUR|6NUR_protein|mol2

> <Gold.PLP.Fitness>
55.6362

> <Gold.PLP.PLP>
-50.0534

> <Gold.PLP.part.hbond>
-2.0000

> <Gold.PLP.part.metal>
0.0000

> <Gold.PLP.part.buried>
-4.7430

> <Gold.PLP.part.nonpolar>
-44.5196

> <Gold.PLP.part.repulsive>
0.0438

> <Gold.PLP.ligand.clash>
0.0000

> <Gold.PLP.ligand.torsion>
1.5029

> <Gold.PLP.Chemscore.Hbond>
2.8520

> <Gold.PLP.Chemscore.CHOScore>
0.0000

> <Gold.PLP.Chemscore.Metal>
0.0000

> <Gold.Chemscore.Hbonds>
donor molecule, donor type, donor heavy atom, donor atom, acceptor molecule, acceptor atom, score
      L1  H    15    46       P1  8028  2.00
      P1  H  6931  6943       L1    24  1.00

> <Gold.PLP.Chemscore.Internal.Correction>
0.0325

> <Gold.Rescore>
     Score         DG    S(hbond)    S(metal)    S(lipo)     H(rot)  DE(clash)    DE(int)     intcor
     14.86     -16.69       1.06        0.00     128.88       2.89       0.36       1.47       ----

> <Gold.Chemscore.Fitness>
14.8596

> <Gold.Chemscore.DG>
-16.6875

> <Gold.Chemscore.ZeroCoef>
-5.4800

> <Gold.Chemscore.Hbond>
1.0569

> <Gold.Chemscore.Metal>
0.0000

> <Gold.Chemscore.Lipo>
128.8759

> <Gold.Chemscore.Internal_Hbond>
0.0000

> <Gold.Chemscore.DEClash>
0.3566

> <Gold.Chemscore.DEInternal>
1.4712

> <Gold.Chemscore.Rot>
2.8910

> <Gold.Chemscore.Internal.Correction>
   9.000000E+99

> <Gold.Chemscore.Hbonds>
donor molecule, donor type, donor heavy atom, donor atom, acceptor molecule, acceptor atom, score
      L1  H    15    46       P1  8028  0.92
      P1  H  6931  6943       L1    24  0.26

> <Gold.Chemscore.Hbond.Weighted>
-3.5299

> <Gold.Chemscore.Metal.Weighted>
-0.0000

> <Gold.Chemscore.Lipo.Weighted>
-15.0785

> <Gold.Chemscore.Internal_Hbond.Weighted>
0.0000

> <Gold.Chemscore.DEClash.Weighted>
0.3566

> <Gold.Chemscore.DEInternal.Weighted>
1.4712

> <Gold.Chemscore.Rot.Weighted>
7.4009

> <Gold.Chemscore.Internal.Correction.Weighted>
   9.000000E+99

> <Gold.Protein.RotatedTorsions>
[ 6907 6896 6895 6894 ] final  -56.71 input  -60.11 | X-H torsion
[ 7974 7965 7964 7962 ] final  100.51 input  175.53 | X-H torsion
[ 8008 7997 7996 7995 ] final  100.10 input   59.86 | X-H torsion
[ 10167 10162 10161 10158 ] final   61.96 input  -65.29 | X-H torsion
[ 10718 10713 10712 10709 ] final  -97.26 input   66.30 | X-H torsion
[ 10763 10752 10751 10750 ] final -123.81 input  -60.55 | X-H torsion
[ 11005 11000 10999 10996 ] final  -85.99 input  -57.11 | X-H torsion

> <Gold.Protein.ActiveResidues>
 VAL166  LYS551  ARG553  GLY616  TRP617  ASP618  TYR619  PRO620  LYS621  CYS622 
 ASP623  PHE694  ASN695  SER759  ASP760  ASP761  ALA762  ILE779  LEU786  VAL792 
 PHE793  MET794  SER795  GLU796  ALA797  LYS798  CYS799  TRP800  GLU811  SER814 

> <Gold.Protein.RotatedAtoms>
  150.8145  134.7319  159.6717 H   0  0  0  0  0  0  0  0  0  0  0  0  # atno 6907 bound_to 6896
  152.4264  134.5857  159.9970 H   0  0  0  0  0  0  0  0  0  0  0  0  # atno 6908 bound_to 6896
  151.6058  133.3314  159.3093 H   0  0  0  0  0  0  0  0  0  0  0  0  # atno 6909 bound_to 6896
  145.3846  139.2373  143.3385 H   0  0  0  0  0  0  0  0  0  0  0  0  # atno 7974 bound_to 7965
  156.1170  140.3218  155.8153 H   0  0  0  0  0  0  0  0  0  0  0  0  # atno 8008 bound_to 7997
  155.4573  140.0537  157.3012 H   0  0  0  0  0  0  0  0  0  0  0  0  # atno 8009 bound_to 7997
  154.4800  140.2049  155.9801 H   0  0  0  0  0  0  0  0  0  0  0  0  # atno 8010 bound_to 7997
  140.1491  144.4480  150.6769 H   0  0  0  0  0  0  0  0  0  0  0  0  # atno 10167 bound_to 10162
  156.0080  130.5187  150.6349 H   0  0  0  0  0  0  0  0  0  0  0  0  # atno 10718 bound_to 10713
  154.8714  135.4085  154.3004 H   0  0  0  0  0  0  0  0  0  0  0  0  # atno 10763 bound_to 10752
  153.3864  135.7013  153.6532 H   0  0  0  0  0  0  0  0  0  0  0  0  # atno 10764 bound_to 10752
  153.5333  135.3663  155.2657 H   0  0  0  0  0  0  0  0  0  0  0  0  # atno 10765 bound_to 10752
  141.1635  133.7429  156.9096 H   0  0  0  0  0  0  0  0  0  0  0  0  # atno 11005 bound_to 11000
  146.2826  140.4519  142.8770 LP  0  0  0  0  0  0  0  0  0  0  0  0  # atno 17320 bound_to 7965
  144.8483  140.6963  143.6184 LP  0  0  0  0  0  0  0  0  0  0  0  0  # atno 17321 bound_to 7965
  140.6713  143.2287  151.5617 LP  0  0  0  0  0  0  0  0  0  0  0  0  # atno 17342 bound_to 10162
  139.5434  144.2585  152.1396 LP  0  0  0  0  0  0  0  0  0  0  0  0  # atno 17343 bound_to 10162
  157.4140  131.0827  151.1194 LP  0  0  0  0  0  0  0  0  0  0  0  0  # atno 17370 bound_to 10713
  157.1817  130.6312  149.5674 LP  0  0  0  0  0  0  0  0  0  0  0  0  # atno 17371 bound_to 10713
  140.1526  134.9220  157.2612 LP  0  0  0  0  0  0  0  0  0  0  0  0  # atno 17394 bound_to 11000
  140.2705  134.3466  155.7375 LP  0  0  0  0  0  0  0  0  0  0  0  0  # atno 17395 bound_to 11000

$$$$
