AV-unprocessed.smi:2566|AV-procd|sdf|10073|dock9
  -GOLD-   2272014103D 1   1.00000     0.00000
 Structure written by MMmdl.
 21 22  0  0  0  0  0  0  0  0  2 V2000
  151.3651  140.2874  157.5256 C   0  0  0  0  0  0  0  0  0  0  0  0
  150.1651  140.3348  156.9557 N   0  0  0  0  0  0  0  0  0  0  0  0
  150.4982  140.1922  155.6412 C   0  0  0  0  0  0  0  0  0  0  0  0
  149.4881  140.1318  154.5377 C   0  0  1  0  0  0  0  0  0  0  0  0
  149.4025  138.7311  153.9019 C   0  0  0  0  0  0  0  0  0  0  0  0
  148.3264  138.7028  152.8920 N   0  3  0  0  0  0  0  0  0  0  0  0
  147.0366  139.1370  153.4650 C   0  0  0  0  0  0  0  0  0  0  0  0
  147.1879  140.5162  154.1316 C   0  0  0  0  0  0  0  0  0  0  0  0
  148.2249  140.4709  155.1066 O   0  0  0  0  0  0  0  0  0  0  0  0
  151.7923  140.0315  155.3874 N   0  0  0  0  0  0  0  0  0  0  0  0
  152.3860  140.1077  156.6558 O   0  0  0  0  0  0  0  0  0  0  0  0
  151.5397  140.3736  158.5880 H   0  0  0  0  0  0  0  0  0  0  0  0
  149.7510  140.8737  153.7807 H   0  0  0  0  0  0  0  0  0  0  0  0
  150.3481  138.4613  153.4305 H   0  0  0  0  0  0  0  0  0  0  0  0
  149.1949  137.9785  154.6642 H   0  0  0  0  0  0  0  0  0  0  0  0
  148.5730  139.3285  152.1382 H   0  0  0  0  0  0  0  0  0  0  0  0
  146.2835  139.1709  152.6775 H   0  0  0  0  0  0  0  0  0  0  0  0
  146.7040  138.3999  154.1971 H   0  0  0  0  0  0  0  0  0  0  0  0
  147.4063  141.2856  153.3892 H   0  0  0  0  0  0  0  0  0  0  0  0
  146.2561  140.8013  154.6204 H   0  0  0  0  0  0  0  0  0  0  0  0
  148.2337  137.7662  152.5248 H   0  0  0  0  0  0  0  0  0  0  0  0
  1 11  1  0  0  0  0
  1  2  2  0  0  0  0
  1 12  1  0  0  0  0
  2  3  1  0  0  0  0
  3  4  1  0  0  0  0
  3 10  2  0  0  0  0
  4  9  1  0  0  0  0
  4  5  1  0  0  0  0
  4 13  1  0  0  0  0
  5  6  1  0  0  0  0
  5 14  1  0  0  0  0
  5 15  1  0  0  0  0
  6  7  1  0  0  0  0
  6 16  1  0  0  0  0
  6 21  1  0  0  0  0
  7  8  1  0  0  0  0
  7 17  1  0  0  0  0
  7 18  1  0  0  0  0
  8  9  1  0  0  0  0
  8 19  1  0  0  0  0
  8 20  1  0  0  0  0
 10 11  1  0  0  0  0
M  CHG  1   6   1
M  END
> <s_m_source_file>
AV-unprocessed.smi

> <i_m_source_file_index>
2566

> <i_lp_mmshare_version>
43012

> <i_f3d_flags>
0

> <s_epik_input>
bjFvW2NIXW5jMVtDQEBIXTJbQ0gyXVtOSF1bQ0gyXVtDSDJdTzI=

> <s_epik_cmdline>
J2VwaWtfcHl0aG9uJywgJy1waCcsICc3LjAnLCAnLXRuJywgJzgnLCAnLW1hJywgJzIwMCcsICctbWV0YWxfYmluZGluZycsICctaW1hZScsICc8aW5maWxlLm1hZT4nLCAnLW9tYWUnLCAnPG91dGZpbGUubWFlPic=

> <r_lp_tautomer_probability>
1

> <r_epik_Ionization_Penalty>
0.157575

> <r_epik_Ionization_Penalty_Charging>
0.157575

> <r_epik_Ionization_Penalty_Neutral>
8.82756e-14

> <r_epik_State_Penalty>
0.146877

> <r_epik_Charging_Adjusted_Penalty>
0.304452

> <i_epik_Tot_Q>
1

> <i_epik_Tot_abs_Q>
1

> <r_epik_Metal_State_Penalty>
0.146877

> <b_epik_Metal_Only>
0

> <s_lp_Force_Field>
OPLS_2005

> <r_lp_Energy>
9.76896

> <b_lp_Chiralities_Consistent>
1

> <s_lp_Variant>
AV-unprocessed.smi:2566-2

> <Gold.Version>
5.8.1

> <Gold.Id.Protein>
6NUR|6NUR_protein|mol2

> <Gold.PLP.Fitness>
29.4203

> <Gold.PLP.PLP>
-15.7626

> <Gold.PLP.part.hbond>
-3.9486

> <Gold.PLP.part.metal>
0.0000

> <Gold.PLP.part.buried>
-0.4740

> <Gold.PLP.part.nonpolar>
-11.6662

> <Gold.PLP.part.repulsive>
0.1728

> <Gold.PLP.ligand.clash>
0.0000

> <Gold.PLP.ligand.torsion>
0.1194

> <Gold.PLP.Chemscore.Hbond>
4.6272

> <Gold.PLP.Chemscore.CHOScore>
0.0000

> <Gold.PLP.Chemscore.Metal>
0.0000

> <Gold.Chemscore.Hbonds>
donor molecule, donor type, donor heavy atom, donor atom, acceptor molecule, acceptor atom, score
      L1  H     6    16       P1  7957  1.00
      L1  H     6    21       P1  7948  2.00
      P1  H  7989  7998       L1    10  0.58
      P1  H  7997  8009       L1    11  1.00

> <Gold.PLP.Chemscore.Internal.Correction>
0.0151

> <Gold.Rescore>
     Score         DG    S(hbond)    S(metal)    S(lipo)     H(rot)  DE(clash)    DE(int)     intcor
     15.05     -15.14       2.80        0.00      24.55       1.00       0.03       0.06       ----

> <Gold.Chemscore.Fitness>
15.0515

> <Gold.Chemscore.DG>
-15.1385

> <Gold.Chemscore.ZeroCoef>
-5.4800

> <Gold.Chemscore.Hbond>
2.7982

> <Gold.Chemscore.Metal>
0.0000

> <Gold.Chemscore.Lipo>
24.5523

> <Gold.Chemscore.Internal_Hbond>
0.0000

> <Gold.Chemscore.DEClash>
0.0311

> <Gold.Chemscore.DEInternal>
0.0559

> <Gold.Chemscore.Rot>
1.0000

> <Gold.Chemscore.Internal.Correction>
   9.000000E+99

> <Gold.Chemscore.Hbonds>
donor molecule, donor type, donor heavy atom, donor atom, acceptor molecule, acceptor atom, score
      L1  H     6    16       P1  7957  0.95
      L1  H     6    21       P1  7948  0.94
      P1  H  7989  7998       L1    10  0.06
      P1  H  7997  8009       L1    11  0.41

> <Gold.Chemscore.Hbond.Weighted>
-9.3458

> <Gold.Chemscore.Metal.Weighted>
-0.0000

> <Gold.Chemscore.Lipo.Weighted>
-2.8726

> <Gold.Chemscore.Internal_Hbond.Weighted>
0.0000

> <Gold.Chemscore.DEClash.Weighted>
0.0311

> <Gold.Chemscore.DEInternal.Weighted>
0.0559

> <Gold.Chemscore.Rot.Weighted>
2.5600

> <Gold.Chemscore.Internal.Correction.Weighted>
   9.000000E+99

> <Gold.Protein.RotatedTorsions>
[ 6907 6896 6895 6894 ] final   39.22 input  -60.11 | X-H torsion
[ 7974 7965 7964 7962 ] final -143.56 input  175.53 | X-H torsion
[ 8008 7997 7996 7995 ] final -156.65 input   59.86 | X-H torsion
[ 10167 10162 10161 10158 ] final  129.48 input  -65.29 | X-H torsion
[ 10718 10713 10712 10709 ] final   38.52 input   66.30 | X-H torsion
[ 10763 10752 10751 10750 ] final  168.56 input  -60.55 | X-H torsion
[ 11005 11000 10999 10996 ] final  121.40 input  -57.11 | X-H torsion

> <Gold.Protein.ActiveResidues>
 VAL166  LYS551  ARG553  GLY616  TRP617  ASP618  TYR619  PRO620  LYS621  CYS622 
 ASP623  PHE694  ASN695  SER759  ASP760  ASP761  ALA762  ILE779  LEU786  VAL792 
 PHE793  MET794  SER795  GLU796  ALA797  LYS798  CYS799  TRP800  GLU811  SER814 

> <Gold.Protein.RotatedAtoms>
  152.1667  134.8868  160.0537 H   0  0  0  0  0  0  0  0  0  0  0  0  # atno 6907 bound_to 6896
  151.9843  133.3763  159.4128 H   0  0  0  0  0  0  0  0  0  0  0  0  # atno 6908 bound_to 6896
  150.6895  134.3928  159.5128 H   0  0  0  0  0  0  0  0  0  0  0  0  # atno 6909 bound_to 6896
  144.8361  140.5820  143.5483 H   0  0  0  0  0  0  0  0  0  0  0  0  # atno 7974 bound_to 7965
  155.7204  140.0789  157.2333 H   0  0  0  0  0  0  0  0  0  0  0  0  # atno 8008 bound_to 7997
  154.4046  140.1613  156.2450 H   0  0  0  0  0  0  0  0  0  0  0  0  # atno 8009 bound_to 7997
  155.9201  140.3398  155.6169 H   0  0  0  0  0  0  0  0  0  0  0  0  # atno 8010 bound_to 7997
  139.5476  144.6786  151.4425 H   0  0  0  0  0  0  0  0  0  0  0  0  # atno 10167 bound_to 10162
  157.3598  130.7643  149.7039 H   0  0  0  0  0  0  0  0  0  0  0  0  # atno 10718 bound_to 10713
  154.3704  135.2753  155.2269 H   0  0  0  0  0  0  0  0  0  0  0  0  # atno 10763 bound_to 10752
  154.4419  135.5952  153.6138 H   0  0  0  0  0  0  0  0  0  0  0  0  # atno 10764 bound_to 10752
  152.9838  135.6021  154.3934 H   0  0  0  0  0  0  0  0  0  0  0  0  # atno 10765 bound_to 10752
  139.9224  134.9638  156.7953 H   0  0  0  0  0  0  0  0  0  0  0  0  # atno 11005 bound_to 11000
  145.4792  139.1497  143.3771 LP  0  0  0  0  0  0  0  0  0  0  0  0  # atno 17320 bound_to 7965
  146.2659  140.4928  142.8834 LP  0  0  0  0  0  0  0  0  0  0  0  0  # atno 17321 bound_to 7965
  140.6729  143.8255  150.7021 LP  0  0  0  0  0  0  0  0  0  0  0  0  # atno 17342 bound_to 10162
  140.1684  143.4215  152.2018 LP  0  0  0  0  0  0  0  0  0  0  0  0  # atno 17343 bound_to 10162
  155.9735  130.4117  150.3994 LP  0  0  0  0  0  0  0  0  0  0  0  0  # atno 17370 bound_to 10713
  157.2069  131.0451  151.2620 LP  0  0  0  0  0  0  0  0  0  0  0  0  # atno 17371 bound_to 10713
  140.6434  133.9798  155.7718 LP  0  0  0  0  0  0  0  0  0  0  0  0  # atno 17394 bound_to 11000
  141.0756  134.0139  157.3462 LP  0  0  0  0  0  0  0  0  0  0  0  0  # atno 17395 bound_to 11000

$$$$
