AV-unprocessed.smi:2397|AV-procd|sdf|9494|dock6
  -GOLD-   2272013123D 1   1.00000     0.00000
 Structure written by MMmdl.
 36 37  0  0  0  0  0  0  0  0  1 V2000
  153.9687  140.9122  160.6504 C   0  0  0  0  0  0  0  0  0  0  0  0
  153.4022  142.2323  160.1046 C   0  0  0  0  0  0  0  0  0  0  0  0
  152.8307  143.1402  161.2049 C   0  0  0  0  0  0  0  0  0  0  0  0
  152.3996  142.0004  158.9817 C   0  0  0  0  0  0  0  0  0  0  0  0
  151.9350  143.0825  158.3498 N   0  0  0  0  0  0  0  0  0  0  0  0
  151.0412  142.8741  157.3601 C   0  0  0  0  0  0  0  0  0  0  0  0
  150.6100  141.5796  157.0081 C   0  0  0  0  0  0  0  0  0  0  0  0
  151.1599  140.5048  157.7418 C   0  0  0  0  0  0  0  0  0  0  0  0
  150.7797  139.1786  157.4428 N   0  0  0  0  0  0  0  0  0  0  0  0
  150.3109  138.5005  158.6507 C   0  0  0  0  0  0  0  0  0  0  0  0
  150.0359  137.0161  158.3776 C   0  0  0  0  0  0  0  0  0  0  0  0
  149.0993  136.9096  157.3162 O   0  0  0  0  0  0  0  0  0  0  0  0
  149.6233  137.4433  156.1072 C   0  0  0  0  0  0  0  0  0  0  0  0
  149.9322  138.9530  156.2553 C   0  0  2  0  0  0  0  0  0  0  0  0
  150.4980  139.4438  154.9045 C   0  0  0  0  0  0  0  0  0  0  0  0
  149.7366  139.3278  153.8112 N   0  0  0  0  0  0  0  0  0  0  0  0
  151.6306  139.9184  154.8517 O   0  0  0  0  0  0  0  0  0  0  0  0
  152.0645  140.7323  158.7244 N   0  0  0  0  0  0  0  0  0  0  0  0
  154.4295  140.3252  159.8555 H   0  0  0  0  0  0  0  0  0  0  0  0
  153.1879  140.3023  161.1060 H   0  0  0  0  0  0  0  0  0  0  0  0
  154.7300  141.0960  161.4090 H   0  0  0  0  0  0  0  0  0  0  0  0
  154.2481  142.7717  159.6746 H   0  0  0  0  0  0  0  0  0  0  0  0
  152.5054  144.0962  160.7939 H   0  0  0  0  0  0  0  0  0  0  0  0
  153.5788  143.3468  161.9706 H   0  0  0  0  0  0  0  0  0  0  0  0
  151.9726  142.6802  161.6963 H   0  0  0  0  0  0  0  0  0  0  0  0
  150.6647  143.7462  156.8463 H   0  0  0  0  0  0  0  0  0  0  0  0
  149.8899  141.4232  156.2185 H   0  0  0  0  0  0  0  0  0  0  0  0
  151.0453  138.5810  159.4531 H   0  0  0  0  0  0  0  0  0  0  0  0
  149.3993  138.9852  159.0051 H   0  0  0  0  0  0  0  0  0  0  0  0
  150.9557  136.4830  158.1314 H   0  0  0  0  0  0  0  0  0  0  0  0
  149.6199  136.5411  159.2661 H   0  0  0  0  0  0  0  0  0  0  0  0
  150.5156  136.8835  155.8194 H   0  0  0  0  0  0  0  0  0  0  0  0
  148.8856  137.2808  155.3202 H   0  0  0  0  0  0  0  0  0  0  0  0
  148.9833  139.4670  156.4199 H   0  0  0  0  0  0  0  0  0  0  0  0
  150.0872  139.6459  152.9193 H   0  0  0  0  0  0  0  0  0  0  0  0
  148.8132  138.9258  153.8831 H   0  0  0  0  0  0  0  0  0  0  0  0
  1  2  1  0  0  0  0
  1 19  1  0  0  0  0
  1 20  1  0  0  0  0
  1 21  1  0  0  0  0
  2  3  1  0  0  0  0
  2  4  1  0  0  0  0
  2 22  1  0  0  0  0
  3 23  1  0  0  0  0
  3 24  1  0  0  0  0
  3 25  1  0  0  0  0
  4 18  1  0  0  0  0
  4  5  2  0  0  0  0
  5  6  1  0  0  0  0
  6  7  2  0  0  0  0
  6 26  1  0  0  0  0
  7  8  1  0  0  0  0
  7 27  1  0  0  0  0
  8  9  1  0  0  0  0
  8 18  2  0  0  0  0
  9 14  1  0  0  0  0
  9 10  1  0  0  0  0
 10 11  1  0  0  0  0
 10 28  1  0  0  0  0
 10 29  1  0  0  0  0
 11 12  1  0  0  0  0
 11 30  1  0  0  0  0
 11 31  1  0  0  0  0
 12 13  1  0  0  0  0
 13 14  1  0  0  0  0
 13 32  1  0  0  0  0
 13 33  1  0  0  0  0
 14 15  1  0  0  0  0
 14 34  1  0  0  0  0
 15 16  1  0  0  0  0
 15 17  2  0  0  0  0
 16 35  1  0  0  0  0
 16 36  1  0  0  0  0
M  END
> <s_m_source_file>
AV-unprocessed.smi

> <i_m_source_file_index>
2397

> <i_lp_mmshare_version>
43012

> <i_f3d_flags>
0

> <s_epik_input>
W0NIM11bQ0hdKFtDSDNdKWMxbltjSF1bY0hdYyhuMSlOMltDSDJdW0NIMl1PW0NIMl1bQ0BIXTJDKD1PKVtOSDJd

> <s_epik_cmdline>
J2VwaWtfcHl0aG9uJywgJy1waCcsICc3LjAnLCAnLXRuJywgJzgnLCAnLW1hJywgJzIwMCcsICctbWV0YWxfYmluZGluZycsICctaW1hZScsICc8aW5maWxlLm1hZT4nLCAnLW9tYWUnLCAnPG91dGZpbGUubWFlPic=

> <r_lp_tautomer_probability>
1

> <r_epik_Ionization_Penalty>
0.0323151

> <r_epik_Ionization_Penalty_Charging>
0

> <r_epik_Ionization_Penalty_Neutral>
0.0323151

> <r_epik_State_Penalty>
0.0267324

> <r_epik_Charging_Adjusted_Penalty>
0.0267324

> <i_epik_Tot_Q>
0

> <i_epik_Tot_abs_Q>
0

> <r_epik_Metal_State_Penalty>
0.0253461

> <b_epik_Metal_Only>
0

> <s_lp_Force_Field>
OPLS_2005

> <r_lp_Energy>
6.15108

> <b_lp_Chiralities_Consistent>
1

> <s_lp_Variant>
AV-unprocessed.smi:2397-2

> <Gold.Version>
5.8.1

> <Gold.Id.Protein>
6NUR|6NUR_protein|mol2

> <Gold.PLP.Fitness>
39.0827

> <Gold.PLP.PLP>
-30.4327

> <Gold.PLP.part.hbond>
-2.0000

> <Gold.PLP.part.metal>
0.0000

> <Gold.PLP.part.buried>
-6.0251

> <Gold.PLP.part.nonpolar>
-23.1684

> <Gold.PLP.part.repulsive>
0.2099

> <Gold.PLP.ligand.clash>
0.0049

> <Gold.PLP.ligand.torsion>
0.1486

> <Gold.PLP.Chemscore.Hbond>
1.8960

> <Gold.PLP.Chemscore.CHOScore>
1.0000

> <Gold.PLP.Chemscore.Metal>
0.0000

> <Gold.Chemscore.Hbonds>
donor molecule, donor type, donor heavy atom, donor atom, acceptor molecule, acceptor atom, score
      L1  H    16    35       P1  7957  0.90
      P1  H  7989  7998       L1    17  1.00
      L1  C     6    26       P1  8028  1.00

> <Gold.PLP.Chemscore.Internal.Correction>
0.2641

> <Gold.Rescore>
     Score         DG    S(hbond)    S(metal)    S(lipo)     H(rot)  DE(clash)    DE(int)     intcor
     13.00     -14.26       1.98        0.00      56.62       1.74       0.02       1.24       ----

> <Gold.Chemscore.Fitness>
13.0029

> <Gold.Chemscore.DG>
-14.2604

> <Gold.Chemscore.ZeroCoef>
-5.4800

> <Gold.Chemscore.Hbond>
1.9812

> <Gold.Chemscore.Metal>
0.0000

> <Gold.Chemscore.Lipo>
56.6170

> <Gold.Chemscore.Internal_Hbond>
0.0000

> <Gold.Chemscore.DEClash>
0.0174

> <Gold.Chemscore.DEInternal>
1.2400

> <Gold.Chemscore.Rot>
1.7426

> <Gold.Chemscore.Internal.Correction>
   9.000000E+99

> <Gold.Chemscore.Hbonds>
donor molecule, donor type, donor heavy atom, donor atom, acceptor molecule, acceptor atom, score
      L1  H    16    35       P1  7957  0.87
      P1  H  7989  7998       L1    17  0.54

> <Gold.Chemscore.Hbond.Weighted>
-6.6172

> <Gold.Chemscore.Metal.Weighted>
-0.0000

> <Gold.Chemscore.Lipo.Weighted>
-6.6242

> <Gold.Chemscore.Internal_Hbond.Weighted>
0.0000

> <Gold.Chemscore.DEClash.Weighted>
0.0174

> <Gold.Chemscore.DEInternal.Weighted>
1.2400

> <Gold.Chemscore.Rot.Weighted>
4.4610

> <Gold.Chemscore.Internal.Correction.Weighted>
   9.000000E+99

> <Gold.Protein.RotatedTorsions>
[ 6907 6896 6895 6894 ] final  -29.13 input  -60.11 | X-H torsion
[ 7974 7965 7964 7962 ] final   53.21 input  175.53 | X-H torsion
[ 8008 7997 7996 7995 ] final   44.06 input   59.86 | X-H torsion
[ 10167 10162 10161 10158 ] final   31.69 input  -65.29 | X-H torsion
[ 10718 10713 10712 10709 ] final   77.77 input   66.30 | X-H torsion
[ 10763 10752 10751 10750 ] final   64.86 input  -60.55 | X-H torsion
[ 11005 11000 10999 10996 ] final   -4.54 input  -57.11 | X-H torsion

> <Gold.Protein.ActiveResidues>
 VAL166  LYS551  ARG553  GLY616  TRP617  ASP618  TYR619  PRO620  LYS621  CYS622 
 ASP623  PHE694  ASN695  SER759  ASP760  ASP761  ALA762  ILE779  LEU786  VAL792 
 PHE793  MET794  SER795  GLU796  ALA797  LYS798  CYS799  TRP800  GLU811  SER814 

> <Gold.Protein.RotatedAtoms>
  151.1233  135.0091  159.8548 H   0  0  0  0  0  0  0  0  0  0  0  0  # atno 6907 bound_to 6896
  152.5448  134.1696  159.8601 H   0  0  0  0  0  0  0  0  0  0  0  0  # atno 6908 bound_to 6896
  151.1756  133.4712  159.2627 H   0  0  0  0  0  0  0  0  0  0  0  0  # atno 6909 bound_to 6896
  145.9734  139.4171  143.0176 H   0  0  0  0  0  0  0  0  0  0  0  0  # atno 7974 bound_to 7965
  155.3130  140.3392  155.4243 H   0  0  0  0  0  0  0  0  0  0  0  0  # atno 8008 bound_to 7997
  156.1946  140.1710  156.8062 H   0  0  0  0  0  0  0  0  0  0  0  0  # atno 8009 bound_to 7997
  154.5483  140.0710  156.8609 H   0  0  0  0  0  0  0  0  0  0  0  0  # atno 8010 bound_to 7997
  140.4566  144.0969  150.6203 H   0  0  0  0  0  0  0  0  0  0  0  0  # atno 10167 bound_to 10162
  157.6722  130.9837  150.1689 H   0  0  0  0  0  0  0  0  0  0  0  0  # atno 10718 bound_to 10713
  153.0072  135.5378  154.6576 H   0  0  0  0  0  0  0  0  0  0  0  0  # atno 10763 bound_to 10752
  154.5792  135.2848  155.0752 H   0  0  0  0  0  0  0  0  0  0  0  0  # atno 10764 bound_to 10752
  154.1887  135.6504  153.5106 H   0  0  0  0  0  0  0  0  0  0  0  0  # atno 10765 bound_to 10752
  140.6814  133.9150  155.8558 H   0  0  0  0  0  0  0  0  0  0  0  0  # atno 11005 bound_to 11000
  145.7873  140.9830  143.1068 LP  0  0  0  0  0  0  0  0  0  0  0  0  # atno 17320 bound_to 7965
  144.6842  139.9638  143.7481 LP  0  0  0  0  0  0  0  0  0  0  0  0  # atno 17321 bound_to 7965
  140.4144  143.2641  151.9793 LP  0  0  0  0  0  0  0  0  0  0  0  0  # atno 17342 bound_to 10162
  139.4802  144.5887  151.7809 LP  0  0  0  0  0  0  0  0  0  0  0  0  # atno 17343 bound_to 10162
  156.2448  130.3694  149.8297 LP  0  0  0  0  0  0  0  0  0  0  0  0  # atno 17370 bound_to 10713
  156.6087  130.8577  151.3449 LP  0  0  0  0  0  0  0  0  0  0  0  0  # atno 17371 bound_to 10713
  141.0314  134.0750  157.4009 LP  0  0  0  0  0  0  0  0  0  0  0  0  # atno 17394 bound_to 11000
  139.8950  135.0139  156.6982 LP  0  0  0  0  0  0  0  0  0  0  0  0  # atno 17395 bound_to 11000

$$$$
