AV-unprocessed.smi:16|AV-procd|sdf|95|dock5
  -GOLD-   2262015243D 1   1.00000     0.00000
 Structure written by MMmdl.
 59 63  0  0  0  0  0  0  0  0  1 V2000
  140.0252  142.2579  157.2504 C   0  0  0  0  0  0  0  0  0  0  0  0
  140.7189  141.0808  157.9538 C   0  0  0  0  0  0  0  0  0  0  0  0
  140.0688  139.8028  157.6657 N   0  0  0  0  0  0  0  0  0  0  0  0
  138.6590  139.8947  158.0527 C   0  0  0  0  0  0  0  0  0  0  0  0
  137.9593  138.5378  157.8656 C   0  0  0  0  0  0  0  0  0  0  0  0
  138.0628  138.0463  156.4165 C   0  0  1  0  0  0  0  0  0  0  0  0
  137.2561  138.8672  155.5746 O   0  0  0  0  0  0  0  0  0  0  0  0
  137.2641  138.4175  154.2242 C   0  0  0  0  0  0  0  0  0  0  0  0
  138.6944  138.4774  153.6651 C   0  0  0  0  0  0  0  0  0  0  0  0
  139.6079  137.7336  154.5324 N   0  0  0  0  0  0  0  0  0  0  0  0
  140.8446  137.4361  154.0517 C   0  0  0  0  0  0  0  0  0  0  0  0
  141.8298  138.3729  154.1072 N   0  0  0  0  0  0  0  0  0  0  0  0
  143.0531  138.0991  153.6461 C   0  0  0  0  0  0  0  0  0  0  0  0
  143.5033  136.9708  153.0961 N   0  0  0  0  0  0  0  0  0  0  0  0
  142.5223  136.0258  153.0327 C   0  0  0  0  0  0  0  0  0  0  0  0
  141.1773  136.1747  153.4781 C   0  0  0  0  0  0  0  0  0  0  0  0
  140.4660  135.0092  153.2159 N   0  0  0  0  0  0  0  0  0  0  0  0
  141.3394  134.2175  152.6564 C   0  0  0  0  0  0  0  0  0  0  0  0
  142.6066  134.7389  152.5298 N   0  0  0  0  0  0  0  0  0  0  0  0
  143.7348  134.1111  151.9065 C   0  0  0  0  0  0  0  0  0  0  0  0
  144.2511  134.5715  150.5390 C   0  0  0  0  0  0  0  0  0  0  0  0
  144.6821  133.1186  150.2302 C   0  0  0  0  0  0  0  0  0  0  0  0
  144.4660  132.6238  148.7867 C   0  0  0  0  0  0  0  0  0  0  0  0
  143.0991  132.4652  148.4636 O   0  0  0  0  0  0  0  0  0  0  0  0
  146.1431  132.8020  150.6037 C   0  0  0  0  0  0  0  0  0  0  0  0
  146.3147  131.4359  150.9224 O   0  0  0  0  0  0  0  0  0  0  0  0
  143.6249  132.7158  151.2844 C   0  0  0  0  0  0  0  0  0  0  0  0
  139.5322  138.0961  155.9500 C   0  0  1  0  0  0  0  0  0  0  0  0
  140.1575  139.4816  156.2377 C   0  0  0  0  0  0  0  0  0  0  0  0
  137.6898  137.0217  156.3668 H   0  0  0  0  0  0  0  0  0  0  0  0
  140.0763  137.3607  156.5401 H   0  0  0  0  0  0  0  0  0  0  0  0
  140.6081  143.1704  157.3753 H   0  0  0  0  0  0  0  0  0  0  0  0
  139.0328  142.4560  157.6537 H   0  0  0  0  0  0  0  0  0  0  0  0
  139.9263  142.0759  156.1799 H   0  0  0  0  0  0  0  0  0  0  0  0
  141.7474  141.0418  157.5923 H   0  0  0  0  0  0  0  0  0  0  0  0
  140.7731  141.2494  159.0303 H   0  0  0  0  0  0  0  0  0  0  0  0
  138.5841  140.1880  159.1005 H   0  0  0  0  0  0  0  0  0  0  0  0
  138.1560  140.6670  157.4684 H   0  0  0  0  0  0  0  0  0  0  0  0
  138.4162  137.8035  158.5304 H   0  0  0  0  0  0  0  0  0  0  0  0
  136.9127  138.6106  158.1618 H   0  0  0  0  0  0  0  0  0  0  0  0
  136.8676  137.4027  154.1653 H   0  0  0  0  0  0  0  0  0  0  0  0
  136.6036  139.0519  153.6333 H   0  0  0  0  0  0  0  0  0  0  0  0
  138.7050  138.0568  152.6587 H   0  0  0  0  0  0  0  0  0  0  0  0
  139.0226  139.5143  153.5839 H   0  0  0  0  0  0  0  0  0  0  0  0
  143.7742  138.8985  153.7304 H   0  0  0  0  0  0  0  0  0  0  0  0
  141.0791  133.2250  152.3183 H   0  0  0  0  0  0  0  0  0  0  0  0
  144.5348  134.1373  152.6483 H   0  0  0  0  0  0  0  0  0  0  0  0
  143.4490  134.9394  149.8972 H   0  0  0  0  0  0  0  0  0  0  0  0
  145.0687  135.2914  150.5866 H   0  0  0  0  0  0  0  0  0  0  0  0
  144.9004  133.3201  148.0686 H   0  0  0  0  0  0  0  0  0  0  0  0
  144.9523  131.6613  148.6254 H   0  0  0  0  0  0  0  0  0  0  0  0
  142.6366  133.2469  148.7244 H   0  0  0  0  0  0  0  0  0  0  0  0
  146.8206  133.0588  149.7886 H   0  0  0  0  0  0  0  0  0  0  0  0
  146.4692  133.3865  151.4641 H   0  0  0  0  0  0  0  0  0  0  0  0
  147.1677  131.1619  150.6215 H   0  0  0  0  0  0  0  0  0  0  0  0
  143.9208  131.9048  151.9506 H   0  0  0  0  0  0  0  0  0  0  0  0
  142.6360  132.5282  150.8628 H   0  0  0  0  0  0  0  0  0  0  0  0
  139.6650  140.2604  155.6538 H   0  0  0  0  0  0  0  0  0  0  0  0
  141.2008  139.4637  155.9255 H   0  0  0  0  0  0  0  0  0  0  0  0
  1  2  1  0  0  0  0
  1 32  1  0  0  0  0
  1 33  1  0  0  0  0
  1 34  1  0  0  0  0
  2  3  1  0  0  0  0
  2 35  1  0  0  0  0
  2 36  1  0  0  0  0
  3 29  1  0  0  0  0
  3  4  1  0  0  0  0
  4  5  1  0  0  0  0
  4 37  1  0  0  0  0
  4 38  1  0  0  0  0
  5  6  1  0  0  0  0
  5 39  1  0  0  0  0
  5 40  1  0  0  0  0
  6 30  1  0  0  0  0
  6 28  1  0  0  0  0
  6  7  1  0  0  0  0
  7  8  1  0  0  0  0
  8  9  1  0  0  0  0
  8 41  1  0  0  0  0
  8 42  1  0  0  0  0
  9 10  1  0  0  0  0
  9 43  1  0  0  0  0
  9 44  1  0  0  0  0
 10 11  1  0  0  0  0
 10 28  1  0  0  0  0
 11 16  1  0  0  0  0
 11 12  2  0  0  0  0
 12 13  1  0  0  0  0
 13 14  2  0  0  0  0
 13 45  1  0  0  0  0
 14 15  1  0  0  0  0
 15 19  1  0  0  0  0
 15 16  2  0  0  0  0
 16 17  1  0  0  0  0
 17 18  2  0  0  0  0
 18 19  1  0  0  0  0
 18 46  1  0  0  0  0
 19 20  1  0  0  0  0
 20 27  1  0  0  0  0
 20 21  1  0  0  0  0
 20 47  1  0  0  0  0
 21 22  1  0  0  0  0
 21 48  1  0  0  0  0
 21 49  1  0  0  0  0
 22 23  1  0  0  0  0
 22 25  1  0  0  0  0
 22 27  1  0  0  0  0
 23 24  1  0  0  0  0
 23 50  1  0  0  0  0
 23 51  1  0  0  0  0
 24 52  1  0  0  0  0
 25 26  1  0  0  0  0
 25 53  1  0  0  0  0
 25 54  1  0  0  0  0
 26 55  1  0  0  0  0
 27 56  1  0  0  0  0
 27 57  1  0  0  0  0
 28 31  1  0  0  0  0
 28 29  1  0  0  0  0
 29 58  1  0  0  0  0
 29 59  1  0  0  0  0
M  END
> <s_m_source_file>
AV-unprocessed.smi

> <i_m_source_file_index>
16

> <i_lp_mmshare_version>
43012

> <i_f3d_flags>
0

> <s_epik_input>
W0NIM11bQ0gyXU4oW0NIMl1bQ0gyXTEpW0NIMl1bQ0BASF0oW0NAQEhdMTIpTihbQ0gyXVtDSDJdTzIpYyhuW2NIXW4zKWMoYzM0KW5bY0hdbjRbQ0hdKFtDSDJdNSlbQ0gyXUM1KFtDSDJdW09IXSlbQ0gyXVtPSF0=

> <s_epik_cmdline>
J2VwaWtfcHl0aG9uJywgJy1waCcsICc3LjAnLCAnLXRuJywgJzgnLCAnLW1hJywgJzIwMCcsICctbWV0YWxfYmluZGluZycsICctaW1hZScsICc8aW5maWxlLm1hZT4nLCAnLW9tYWUnLCAnPG91dGZpbGUubWFlPic=

> <r_lp_tautomer_probability>
1

> <r_epik_Ionization_Penalty>
2.27341

> <r_epik_Ionization_Penalty_Charging>
0

> <r_epik_Ionization_Penalty_Neutral>
2.27341

> <r_epik_State_Penalty>
2.41121

> <r_epik_Charging_Adjusted_Penalty>
2.41121

> <i_epik_Tot_Q>
0

> <i_epik_Tot_abs_Q>
0

> <r_epik_Metal_State_Penalty>
2.40177

> <b_epik_Metal_Only>
0

> <s_lp_Force_Field>
OPLS_2005

> <r_lp_Energy>
57.2914

> <b_lp_Chiralities_Consistent>
1

> <s_lp_Variant>
AV-unprocessed.smi:16-9

> <Gold.Version>
5.8.1

> <Gold.Id.Protein>
6NUR|6NUR_protein|mol2

> <Gold.PLP.Fitness>
53.4715

> <Gold.PLP.PLP>
-42.4662

> <Gold.PLP.part.hbond>
-5.1247

> <Gold.PLP.part.metal>
0.0000

> <Gold.PLP.part.buried>
-5.1753

> <Gold.PLP.part.nonpolar>
-33.8939

> <Gold.PLP.part.repulsive>
0.6351

> <Gold.PLP.ligand.clash>
0.0000

> <Gold.PLP.ligand.torsion>
0.9978

> <Gold.PLP.Chemscore.Hbond>
2.9197

> <Gold.PLP.Chemscore.CHOScore>
1.0990

> <Gold.PLP.Chemscore.Metal>
0.0000

> <Gold.Chemscore.Hbonds>
donor molecule, donor type, donor heavy atom, donor atom, acceptor molecule, acceptor atom, score
      L1  H    24    52       P1 10186  0.68
      L1  H    26    55       P1 10747  1.00
      P1  H 10785 10796       L1    24  0.13
      L1  C    13    45       P1 10175  0.70

> <Gold.PLP.Chemscore.Internal.Correction>
0.9450

> <Gold.Rescore>
     Score         DG    S(hbond)    S(metal)    S(lipo)     H(rot)  DE(clash)    DE(int)     intcor
     11.04     -13.49       2.01        0.00      82.65       3.28       0.90       1.54       ----

> <Gold.Chemscore.Fitness>
11.0450

> <Gold.Chemscore.DG>
-13.4879

> <Gold.Chemscore.ZeroCoef>
-5.4800

> <Gold.Chemscore.Hbond>
2.0147

> <Gold.Chemscore.Metal>
0.0000

> <Gold.Chemscore.Lipo>
82.6462

> <Gold.Chemscore.Internal_Hbond>
0.0000

> <Gold.Chemscore.DEClash>
0.8993

> <Gold.Chemscore.DEInternal>
1.5436

> <Gold.Chemscore.Rot>
3.2776

> <Gold.Chemscore.Internal.Correction>
   9.000000E+99

> <Gold.Chemscore.Hbonds>
donor molecule, donor type, donor heavy atom, donor atom, acceptor molecule, acceptor atom, score
      L1  H    24    52       P1 10186  0.66
      L1  H    26    55       P1 10747  1.00
      P1  H 10785 10796       L1    24  0.01

> <Gold.Chemscore.Hbond.Weighted>
-6.7290

> <Gold.Chemscore.Metal.Weighted>
-0.0000

> <Gold.Chemscore.Lipo.Weighted>
-9.6696

> <Gold.Chemscore.Internal_Hbond.Weighted>
0.0000

> <Gold.Chemscore.DEClash.Weighted>
0.8993

> <Gold.Chemscore.DEInternal.Weighted>
1.5436

> <Gold.Chemscore.Rot.Weighted>
8.3907

> <Gold.Chemscore.Internal.Correction.Weighted>
   9.000000E+99

> <Gold.Protein.RotatedTorsions>
[ 6907 6896 6895 6894 ] final -123.57 input  -60.11 | X-H torsion
[ 7974 7965 7964 7962 ] final  -21.19 input  175.53 | X-H torsion
[ 8008 7997 7996 7995 ] final   36.79 input   59.86 | X-H torsion
[ 10167 10162 10161 10158 ] final -161.54 input  -65.29 | X-H torsion
[ 10718 10713 10712 10709 ] final  -43.05 input   66.30 | X-H torsion
[ 10763 10752 10751 10750 ] final -142.05 input  -60.55 | X-H torsion
[ 11005 11000 10999 10996 ] final   23.99 input  -57.11 | X-H torsion

> <Gold.Protein.ActiveResidues>
 VAL166  LYS551  ARG553  GLY616  TRP617  ASP618  TYR619  PRO620  LYS621  CYS622 
 ASP623  PHE694  ASN695  SER759  ASP760  ASP761  ALA762  ILE779  LEU786  VAL792 
 PHE793  MET794  SER795  GLU796  ALA797  LYS798  CYS799  TRP800  GLU811  SER814 

> <Gold.Protein.RotatedAtoms>
  150.8684  133.7541  159.2969 H   0  0  0  0  0  0  0  0  0  0  0  0  # atno 6907 bound_to 6896
  151.5161  135.1064  159.9876 H   0  0  0  0  0  0  0  0  0  0  0  0  # atno 6908 bound_to 6896
  152.4677  133.7915  159.6960 H   0  0  0  0  0  0  0  0  0  0  0  0  # atno 6909 bound_to 6896
  146.1747  140.4306  142.8518 H   0  0  0  0  0  0  0  0  0  0  0  0  # atno 7974 bound_to 7965
  155.1931  140.3309  155.4355 H   0  0  0  0  0  0  0  0  0  0  0  0  # atno 8008 bound_to 7997
  156.2435  140.1907  156.6973 H   0  0  0  0  0  0  0  0  0  0  0  0  # atno 8009 bound_to 7997
  154.6192  140.0598  156.9579 H   0  0  0  0  0  0  0  0  0  0  0  0  # atno 8010 bound_to 7997
  139.6457  144.0176  152.2125 H   0  0  0  0  0  0  0  0  0  0  0  0  # atno 10167 bound_to 10162
  156.2531  130.4190  149.8627 H   0  0  0  0  0  0  0  0  0  0  0  0  # atno 10718 bound_to 10713
  154.8523  135.3507  154.5965 H   0  0  0  0  0  0  0  0  0  0  0  0  # atno 10763 bound_to 10752
  153.6574  135.6991  153.5193 H   0  0  0  0  0  0  0  0  0  0  0  0  # atno 10764 bound_to 10752
  153.2845  135.4253  155.1067 H   0  0  0  0  0  0  0  0  0  0  0  0  # atno 10765 bound_to 10752
  140.3636  134.2098  155.7670 H   0  0  0  0  0  0  0  0  0  0  0  0  # atno 11005 bound_to 11000
  144.8217  140.6561  143.6348 LP  0  0  0  0  0  0  0  0  0  0  0  0  # atno 17320 bound_to 7965
  145.4245  139.1558  143.4056 LP  0  0  0  0  0  0  0  0  0  0  0  0  # atno 17321 bound_to 7965
  139.9877  144.6383  150.7842 LP  0  0  0  0  0  0  0  0  0  0  0  0  # atno 17342 bound_to 10162
  140.7513  143.2971  151.3176 LP  0  0  0  0  0  0  0  0  0  0  0  0  # atno 17343 bound_to 10162
  156.6168  130.8610  151.3466 LP  0  0  0  0  0  0  0  0  0  0  0  0  # atno 17370 bound_to 10713
  157.7222  130.9574  150.1486 LP  0  0  0  0  0  0  0  0  0  0  0  0  # atno 17371 bound_to 10713
  141.1976  133.8054  157.0618 LP  0  0  0  0  0  0  0  0  0  0  0  0  # atno 17394 bound_to 11000
  140.0607  134.9756  157.1299 LP  0  0  0  0  0  0  0  0  0  0  0  0  # atno 17395 bound_to 11000

$$$$
