AV-unprocessed.smi:910|AV-procd|sdf|4133|dock4
  -GOLD-   22720 2 33D 1   1.00000     0.00000
 Structure written by MMmdl.
 45 46  0  0  0  0  0  0  0  0  2 V2000
  145.3225  134.7366  162.6139 C   0  0  0  0  0  0  0  0  0  0  0  0
  146.4695  135.0034  161.6915 C   0  0  0  0  0  0  0  0  0  0  0  0
  147.1036  136.2347  161.6405 N   0  0  0  0  0  0  0  0  0  0  0  0
  148.0701  136.1088  160.7288 C   0  0  0  0  0  0  0  0  0  0  0  0
  148.9472  137.0589  160.3674 N   0  5  0  0  0  0  0  0  0  0  0  0
  149.6056  136.9411  159.1923 C   0  0  0  0  0  0  0  0  0  0  0  0
  149.5738  135.9683  158.4347 O   0  0  0  0  0  0  0  0  0  0  0  0
  150.3670  138.0026  158.8887 N   0  0  0  0  0  0  0  0  0  0  0  0
  151.2889  138.0969  157.7601 C   0  0  0  0  0  0  0  0  0  0  0  0
  151.2751  139.5086  157.1530 C   0  0  0  0  0  0  0  0  0  0  0  0
  152.1577  140.3335  157.8984 O   0  0  0  0  0  0  0  0  0  0  0  0
  151.6252  140.8962  159.0905 C   0  0  1  0  0  0  0  0  0  0  0  0
  152.7313  141.0865  160.1526 C   0  0  0  0  0  0  0  0  0  0  0  0
  153.8040  142.0851  159.6866 C   0  0  0  0  0  0  0  0  0  0  0  0
  153.1809  143.4338  159.2981 C   0  0  0  0  0  0  0  0  0  0  0  0
  152.0688  143.2580  158.2519 C   0  0  0  0  0  0  0  0  0  0  0  0
  150.9927  142.2584  158.7261 C   0  0  1  0  0  0  0  0  0  0  0  0
  149.8580  142.1126  157.7001 C   0  0  0  0  0  0  0  0  0  0  0  0
  148.0885  134.8661  160.1687 O   0  0  0  0  0  0  0  0  0  0  0  0
  147.0790  134.1782  160.7850 C   0  0  0  0  0  0  0  0  0  0  0  0
  146.8524  132.7606  160.3831 C   0  0  0  0  0  0  0  0  0  0  0  0
  144.3757  135.0135  162.1501 H   0  0  0  0  0  0  0  0  0  0  0  0
  145.4179  135.3052  163.5393 H   0  0  0  0  0  0  0  0  0  0  0  0
  145.2654  133.6812  162.8803 H   0  0  0  0  0  0  0  0  0  0  0  0
  150.3554  138.7786  159.5339 H   0  0  0  0  0  0  0  0  0  0  0  0
  152.3003  137.8099  158.0527 H   0  0  0  0  0  0  0  0  0  0  0  0
  150.9682  137.3747  157.0095 H   0  0  0  0  0  0  0  0  0  0  0  0
  151.6065  139.4754  156.1145 H   0  0  0  0  0  0  0  0  0  0  0  0
  150.2573  139.8976  157.1562 H   0  0  0  0  0  0  0  0  0  0  0  0
  150.8471  140.2402  159.4848 H   0  0  0  0  0  0  0  0  0  0  0  0
  152.2801  141.4549  161.0746 H   0  0  0  0  0  0  0  0  0  0  0  0
  153.1977  140.1370  160.4117 H   0  0  0  0  0  0  0  0  0  0  0  0
  154.5435  142.2318  160.4739 H   0  0  0  0  0  0  0  0  0  0  0  0
  154.3433  141.6732  158.8339 H   0  0  0  0  0  0  0  0  0  0  0  0
  152.7724  143.9161  160.1869 H   0  0  0  0  0  0  0  0  0  0  0  0
  153.9530  144.0994  158.9108 H   0  0  0  0  0  0  0  0  0  0  0  0
  151.6125  144.2255  158.0416 H   0  0  0  0  0  0  0  0  0  0  0  0
  152.5061  142.9158  157.3128 H   0  0  0  0  0  0  0  0  0  0  0  0
  150.5460  142.6651  159.6346 H   0  0  0  0  0  0  0  0  0  0  0  0
  150.2280  141.7352  156.7463 H   0  0  0  0  0  0  0  0  0  0  0  0
  149.3758  143.0719  157.5111 H   0  0  0  0  0  0  0  0  0  0  0  0
  149.0926  141.4235  158.0573 H   0  0  0  0  0  0  0  0  0  0  0  0
  147.1087  132.0838  161.1981 H   0  0  0  0  0  0  0  0  0  0  0  0
  147.4619  132.4960  159.5188 H   0  0  0  0  0  0  0  0  0  0  0  0
  145.8067  132.5966  160.1223 H   0  0  0  0  0  0  0  0  0  0  0  0
  1 22  1  0  0  0  0
  1 23  1  0  0  0  0
  1 24  1  0  0  0  0
  1  2  1  0  0  0  0
  2  3  1  0  0  0  0
  2 20  2  0  0  0  0
  3  4  2  0  0  0  0
  4 19  1  0  0  0  0
  4  5  1  0  0  0  0
  5  6  1  0  0  0  0
  6  8  1  0  0  0  0
  6  7  2  0  0  0  0
  8  9  1  0  0  0  0
  8 25  1  0  0  0  0
  9 10  1  0  0  0  0
  9 26  1  0  0  0  0
  9 27  1  0  0  0  0
 10 11  1  0  0  0  0
 10 28  1  0  0  0  0
 10 29  1  0  0  0  0
 11 12  1  0  0  0  0
 12 17  1  0  0  0  0
 12 13  1  0  0  0  0
 12 30  1  0  0  0  0
 13 14  1  0  0  0  0
 13 31  1  0  0  0  0
 13 32  1  0  0  0  0
 14 15  1  0  0  0  0
 14 33  1  0  0  0  0
 14 34  1  0  0  0  0
 15 16  1  0  0  0  0
 15 35  1  0  0  0  0
 15 36  1  0  0  0  0
 16 17  1  0  0  0  0
 16 37  1  0  0  0  0
 16 38  1  0  0  0  0
 17 18  1  0  0  0  0
 17 39  1  0  0  0  0
 18 40  1  0  0  0  0
 18 41  1  0  0  0  0
 18 42  1  0  0  0  0
 19 20  1  0  0  0  0
 20 21  1  0  0  0  0
 21 43  1  0  0  0  0
 21 44  1  0  0  0  0
 21 45  1  0  0  0  0
M  CHG  1   5  -1
M  END
> <s_m_source_file>
AV-unprocessed.smi

> <i_m_source_file_index>
910

> <i_lp_mmshare_version>
43012

> <i_f3d_flags>
0

> <s_epik_input>
W0NIM11jMW5jKG9jMVtDSDNdKVtOSF1DKD1PKVtOSF1bQ0gyXVtDSDJdT1tDQEBIXTJbQ0gyXVtDSDJdW0NIMl1bQ0gyXVtDQEhdMltDSDNd

> <s_epik_cmdline>
J2VwaWtfcHl0aG9uJywgJy1waCcsICc3LjAnLCAnLXRuJywgJzgnLCAnLW1hJywgJzIwMCcsICctbWV0YWxfYmluZGluZycsICctaW1hZScsICc8aW5maWxlLm1hZT4nLCAnLW9tYWUnLCAnPG91dGZpbGUubWFlPic=

> <r_lp_tautomer_probability>
0.107061

> <r_epik_Ionization_Penalty>
10.1763

> <r_epik_Ionization_Penalty_Charging>
7.13067

> <r_epik_Ionization_Penalty_Neutral>
3.04564

> <r_epik_State_Penalty>
5.57927

> <r_epik_Charging_Adjusted_Penalty>
12.7099

> <i_epik_Tot_Q>
-1

> <i_epik_Tot_abs_Q>
1

> <r_epik_Metal_State_Penalty>
1.52303

> <b_epik_Metal_Only>
1

> <s_lp_Force_Field>
OPLS_2005

> <r_lp_Energy>
4.58121

> <b_lp_Chiralities_Consistent>
1

> <s_lp_Variant>
AV-unprocessed.smi:910-18

> <Gold.Version>
5.8.1

> <Gold.Id.Protein>
6NUR|6NUR_protein|mol2

> <Gold.PLP.Fitness>
40.9208

> <Gold.PLP.PLP>
-35.6157

> <Gold.PLP.part.hbond>
-2.0000

> <Gold.PLP.part.metal>
0.0000

> <Gold.PLP.part.buried>
-6.3834

> <Gold.PLP.part.nonpolar>
-29.1910

> <Gold.PLP.part.repulsive>
0.1960

> <Gold.PLP.ligand.clash>
0.0000

> <Gold.PLP.ligand.torsion>
0.8836

> <Gold.PLP.Chemscore.Hbond>
2.3120

> <Gold.PLP.Chemscore.CHOScore>
0.0000

> <Gold.PLP.Chemscore.Metal>
0.0000

> <Gold.Chemscore.Hbonds>
donor molecule, donor type, donor heavy atom, donor atom, acceptor molecule, acceptor atom, score
      P1  H  6896  6908       L1     7  0.80
      P1  H  6931  6943       L1     5  1.28

> <Gold.PLP.Chemscore.Internal.Correction>
0.1362

> <Gold.Rescore>
     Score         DG    S(hbond)    S(metal)    S(lipo)     H(rot)  DE(clash)    DE(int)     intcor
     15.42     -18.28       1.67        0.00      97.15       1.62       0.01       2.85       ----

> <Gold.Chemscore.Fitness>
15.4183

> <Gold.Chemscore.DG>
-18.2793

> <Gold.Chemscore.ZeroCoef>
-5.4800

> <Gold.Chemscore.Hbond>
1.6683

> <Gold.Chemscore.Metal>
0.0000

> <Gold.Chemscore.Lipo>
97.1488

> <Gold.Chemscore.Internal_Hbond>
0.0000

> <Gold.Chemscore.DEClash>
0.0149

> <Gold.Chemscore.DEInternal>
2.8461

> <Gold.Chemscore.Rot>
1.6169

> <Gold.Chemscore.Internal.Correction>
   9.000000E+99

> <Gold.Chemscore.Hbonds>
donor molecule, donor type, donor heavy atom, donor atom, acceptor molecule, acceptor atom, score
      P1  H  6896  6908       L1     7  0.27
      P1  H  6931  6943       L1     5  0.35

> <Gold.Chemscore.Hbond.Weighted>
-5.5722

> <Gold.Chemscore.Metal.Weighted>
-0.0000

> <Gold.Chemscore.Lipo.Weighted>
-11.3664

> <Gold.Chemscore.Internal_Hbond.Weighted>
0.0000

> <Gold.Chemscore.DEClash.Weighted>
0.0149

> <Gold.Chemscore.DEInternal.Weighted>
2.8461

> <Gold.Chemscore.Rot.Weighted>
4.1393

> <Gold.Chemscore.Internal.Correction.Weighted>
   9.000000E+99

> <Gold.Protein.RotatedTorsions>
[ 6907 6896 6895 6894 ] final  164.52 input  -60.11 | X-H torsion
[ 7974 7965 7964 7962 ] final   47.65 input  175.53 | X-H torsion
[ 8008 7997 7996 7995 ] final  -16.70 input   59.86 | X-H torsion
[ 10167 10162 10161 10158 ] final   38.63 input  -65.29 | X-H torsion
[ 10718 10713 10712 10709 ] final   -2.73 input   66.30 | X-H torsion
[ 10763 10752 10751 10750 ] final -115.75 input  -60.55 | X-H torsion
[ 11005 11000 10999 10996 ] final  -72.04 input  -57.11 | X-H torsion

> <Gold.Protein.ActiveResidues>
 VAL166  LYS551  ARG553  GLY616  TRP617  ASP618  TYR619  PRO620  LYS621  CYS622 
 ASP623  PHE694  ASN695  SER759  ASP760  ASP761  ALA762  ILE779  LEU786  VAL792 
 PHE793  MET794  SER795  GLU796  ALA797  LYS798  CYS799  TRP800  GLU811  SER814 

> <Gold.Protein.RotatedAtoms>
  151.9086  133.3555  159.3855 H   0  0  0  0  0  0  0  0  0  0  0  0  # atno 6907 bound_to 6896
  150.7063  134.4755  159.5455 H   0  0  0  0  0  0  0  0  0  0  0  0  # atno 6908 bound_to 6896
  152.2357  134.8278  160.0518 H   0  0  0  0  0  0  0  0  0  0  0  0  # atno 6909 bound_to 6896
  146.0278  139.4727  142.9857 H   0  0  0  0  0  0  0  0  0  0  0  0  # atno 7974 bound_to 7965
  154.5033  140.2162  155.9302 H   0  0  0  0  0  0  0  0  0  0  0  0  # atno 8008 bound_to 7997
  156.1462  140.3170  155.8541 H   0  0  0  0  0  0  0  0  0  0  0  0  # atno 8009 bound_to 7997
  155.4027  140.0485  157.3026 H   0  0  0  0  0  0  0  0  0  0  0  0  # atno 8010 bound_to 7997
  140.3918  144.1842  150.6131 H   0  0  0  0  0  0  0  0  0  0  0  0  # atno 10167 bound_to 10162
  156.7865  130.5347  149.5742 H   0  0  0  0  0  0  0  0  0  0  0  0  # atno 10718 bound_to 10713
  154.8493  135.4370  154.1713 H   0  0  0  0  0  0  0  0  0  0  0  0  # atno 10763 bound_to 10752
  153.2826  135.6955  153.7377 H   0  0  0  0  0  0  0  0  0  0  0  0  # atno 10764 bound_to 10752
  153.6575  135.3440  155.3092 H   0  0  0  0  0  0  0  0  0  0  0  0  # atno 10765 bound_to 10752
  141.1602  133.6835  156.6998 H   0  0  0  0  0  0  0  0  0  0  0  0  # atno 11005 bound_to 11000
  145.7090  141.0112  143.1463 LP  0  0  0  0  0  0  0  0  0  0  0  0  # atno 17320 bound_to 7965
  144.7017  139.8735  143.7442 LP  0  0  0  0  0  0  0  0  0  0  0  0  # atno 17321 bound_to 7965
  140.4831  143.2372  151.8926 LP  0  0  0  0  0  0  0  0  0  0  0  0  # atno 17342 bound_to 10162
  139.4788  144.5247  151.8751 LP  0  0  0  0  0  0  0  0  0  0  0  0  # atno 17343 bound_to 10162
  156.1186  130.6093  151.0158 LP  0  0  0  0  0  0  0  0  0  0  0  0  # atno 17370 bound_to 10713
  157.6621  131.0879  150.7813 LP  0  0  0  0  0  0  0  0  0  0  0  0  # atno 17371 bound_to 10713
  140.2967  134.8196  157.4063 LP  0  0  0  0  0  0  0  0  0  0  0  0  # atno 17394 bound_to 11000
  140.1298  134.5110  155.8115 LP  0  0  0  0  0  0  0  0  0  0  0  0  # atno 17395 bound_to 11000

$$$$
