AV-unprocessed.smi:2328|AV-procd|sdf|9300|dock5
  -GOLD-   2272012523D 1   1.00000     0.00000
 Structure written by MMmdl.
 40 40  0  0  0  0  0  0  0  0  1 V2000
  149.6551  138.3440  158.3229 C   0  0  0  0  0  0  0  0  0  0  0  0
  150.2339  137.8416  156.9874 C   0  0  0  0  0  0  0  0  0  0  0  0
  149.8798  138.6885  155.7173 C   0  0  1  0  0  0  0  0  0  0  0  0
  150.0995  140.1262  155.9925 N   0  0  0  0  0  0  0  0  0  0  0  0
  151.1944  140.8550  156.2976 C   0  0  0  0  0  0  0  0  0  0  0  0
  152.2871  140.2973  156.3858 O   0  0  0  0  0  0  0  0  0  0  0  0
  151.1045  142.3736  156.5341 C   0  0  0  0  0  0  0  0  0  0  0  0
  151.5129  142.7423  157.9504 C   0  0  0  0  0  0  0  0  0  0  0  0
  151.8222  144.0744  158.2953 C   0  0  0  0  0  0  0  0  0  0  0  0
  152.1997  144.3612  159.6212 C   0  0  0  0  0  0  0  0  0  0  0  0
  152.2506  143.3012  160.5483 C   0  0  0  0  0  0  0  0  0  0  0  0
  151.9545  142.0225  160.2302 N   0  0  0  0  0  0  0  0  0  0  0  0
  151.5941  141.7560  158.9567 C   0  0  0  0  0  0  0  0  0  0  0  0
  150.7360  138.2011  154.5100 C   0  0  0  0  0  0  0  0  0  0  0  0
  150.5525  136.9572  154.0510 N   0  0  0  0  0  0  0  0  0  0  0  0
  151.5608  138.9477  153.9857 O   0  0  0  0  0  0  0  0  0  0  0  0
  148.3505  138.5388  155.3672 C   0  0  0  0  0  0  0  0  0  0  0  0
  147.9161  139.1514  154.0165 C   0  0  0  0  0  0  0  0  0  0  0  0
  147.3916  139.0420  156.4722 C   0  0  0  0  0  0  0  0  0  0  0  0
  149.9893  137.7081  159.1429 H   0  0  0  0  0  0  0  0  0  0  0  0
  148.5661  138.3233  158.3266 H   0  0  0  0  0  0  0  0  0  0  0  0
  149.9757  139.3600  158.5517 H   0  0  0  0  0  0  0  0  0  0  0  0
  151.3132  137.7641  157.1040 H   0  0  0  0  0  0  0  0  0  0  0  0
  149.9207  136.8068  156.8549 H   0  0  0  0  0  0  0  0  0  0  0  0
  149.2481  140.6677  155.9605 H   0  0  0  0  0  0  0  0  0  0  0  0
  151.7543  142.8822  155.8215 H   0  0  0  0  0  0  0  0  0  0  0  0
  150.0983  142.7542  156.3766 H   0  0  0  0  0  0  0  0  0  0  0  0
  151.7755  144.8625  157.5581 H   0  0  0  0  0  0  0  0  0  0  0  0
  152.4458  145.3694  159.9204 H   0  0  0  0  0  0  0  0  0  0  0  0
  152.5364  143.4857  161.5733 H   0  0  0  0  0  0  0  0  0  0  0  0
  151.3660  140.7241  158.7330 H   0  0  0  0  0  0  0  0  0  0  0  0
  151.0974  136.6251  153.2684 H   0  0  0  0  0  0  0  0  0  0  0  0
  149.8688  136.3563  154.4880 H   0  0  0  0  0  0  0  0  0  0  0  0
  148.1451  137.4712  155.2889 H   0  0  0  0  0  0  0  0  0  0  0  0
  148.0882  140.2268  153.9771 H   0  0  0  0  0  0  0  0  0  0  0  0
  146.8507  138.9929  153.8475 H   0  0  0  0  0  0  0  0  0  0  0  0
  148.4291  138.6952  153.1713 H   0  0  0  0  0  0  0  0  0  0  0  0
  147.4436  140.1238  156.5939 H   0  0  0  0  0  0  0  0  0  0  0  0
  147.5971  138.5863  157.4405 H   0  0  0  0  0  0  0  0  0  0  0  0
  146.3577  138.7983  156.2258 H   0  0  0  0  0  0  0  0  0  0  0  0
  1  2  1  0  0  0  0
  1 20  1  0  0  0  0
  1 21  1  0  0  0  0
  1 22  1  0  0  0  0
  2  3  1  0  0  0  0
  2 23  1  0  0  0  0
  2 24  1  0  0  0  0
  3  4  1  0  0  0  0
  3 14  1  0  0  0  0
  3 17  1  0  0  0  0
  4  5  1  0  0  0  0
  4 25  1  0  0  0  0
  5  6  2  0  0  0  0
  5  7  1  0  0  0  0
  7  8  1  0  0  0  0
  7 26  1  0  0  0  0
  7 27  1  0  0  0  0
  8 13  1  0  0  0  0
  8  9  2  0  0  0  0
  9 10  1  0  0  0  0
  9 28  1  0  0  0  0
 10 11  2  0  0  0  0
 10 29  1  0  0  0  0
 11 12  1  0  0  0  0
 11 30  1  0  0  0  0
 12 13  2  0  0  0  0
 13 31  1  0  0  0  0
 14 15  1  0  0  0  0
 14 16  2  0  0  0  0
 15 32  1  0  0  0  0
 15 33  1  0  0  0  0
 17 18  1  0  0  0  0
 17 19  1  0  0  0  0
 17 34  1  0  0  0  0
 18 35  1  0  0  0  0
 18 36  1  0  0  0  0
 18 37  1  0  0  0  0
 19 38  1  0  0  0  0
 19 39  1  0  0  0  0
 19 40  1  0  0  0  0
M  END
> <s_m_source_file>
AV-unprocessed.smi

> <i_m_source_file_index>
2328

> <i_lp_mmshare_version>
43012

> <i_f3d_flags>
0

> <s_epik_input>
W0NIM11bQ0gyXVtDQEBdKEMoPU8pW05IMl0pKFtDSF0oW0NIM10pW0NIM10pW05IXUMoPU8pW0NIMl1jMVtjSF1bY0hdW2NIXW5bY0hdMQ==

> <s_epik_cmdline>
J2VwaWtfcHl0aG9uJywgJy1waCcsICc3LjAnLCAnLXRuJywgJzgnLCAnLW1hJywgJzIwMCcsICctbWV0YWxfYmluZGluZycsICctaW1hZScsICc8aW5maWxlLm1hZT4nLCAnLW9tYWUnLCAnPG91dGZpbGUubWFlPic=

> <r_epik_Ionization_Penalty>
0.00378489

> <r_epik_Ionization_Penalty_Charging>
0

> <r_epik_Ionization_Penalty_Neutral>
0.00378489

> <r_epik_State_Penalty>
0.00269972

> <r_epik_Charging_Adjusted_Penalty>
0.00269972

> <i_epik_Tot_Q>
0

> <i_epik_Tot_abs_Q>
0

> <r_epik_Metal_State_Penalty>
-0

> <b_epik_Metal_Only>
0

> <s_lp_Force_Field>
OPLS_2005

> <r_lp_Energy>
14.3821

> <b_lp_Chiralities_Consistent>
1

> <s_lp_Variant>
AV-unprocessed.smi:2328-1

> <Gold.Version>
5.8.1

> <Gold.Id.Protein>
6NUR|6NUR_protein|mol2

> <Gold.PLP.Fitness>
37.3322

> <Gold.PLP.PLP>
-29.2432

> <Gold.PLP.part.hbond>
-4.4919

> <Gold.PLP.part.metal>
0.0000

> <Gold.PLP.part.buried>
-1.7274

> <Gold.PLP.part.nonpolar>
-22.8770

> <Gold.PLP.part.repulsive>
0.3110

> <Gold.PLP.ligand.clash>
0.0000

> <Gold.PLP.ligand.torsion>
0.4428

> <Gold.PLP.Chemscore.Hbond>
2.9273

> <Gold.PLP.Chemscore.CHOScore>
0.0000

> <Gold.PLP.Chemscore.Metal>
0.0000

> <Gold.Chemscore.Hbonds>
donor molecule, donor type, donor heavy atom, donor atom, acceptor molecule, acceptor atom, score
      L1  H    15    32       P1  7949  0.99
      P1  H  7989  7998       L1    16  0.91
      P1  H  7997  8010       L1     6  0.96

> <Gold.PLP.Chemscore.Internal.Correction>
0.1928

> <Gold.Rescore>
     Score         DG    S(hbond)    S(metal)    S(lipo)     H(rot)  DE(clash)    DE(int)     intcor
     12.01     -15.68       2.11        0.00      76.97       2.29       0.19       3.48       ----

> <Gold.Chemscore.Fitness>
12.0082

> <Gold.Chemscore.DG>
-15.6790

> <Gold.Chemscore.ZeroCoef>
-5.4800

> <Gold.Chemscore.Hbond>
2.1142

> <Gold.Chemscore.Metal>
0.0000

> <Gold.Chemscore.Lipo>
76.9695

> <Gold.Chemscore.Internal_Hbond>
0.0000

> <Gold.Chemscore.DEClash>
0.1947

> <Gold.Chemscore.DEInternal>
3.4761

> <Gold.Chemscore.Rot>
2.2921

> <Gold.Chemscore.Internal.Correction>
   9.000000E+99

> <Gold.Chemscore.Hbonds>
donor molecule, donor type, donor heavy atom, donor atom, acceptor molecule, acceptor atom, score
      L1  H    15    32       P1  7949  0.37
      P1  H  7989  7998       L1    16  0.87
      P1  H  7997  8010       L1     6  0.87

> <Gold.Chemscore.Hbond.Weighted>
-7.0613

> <Gold.Chemscore.Metal.Weighted>
-0.0000

> <Gold.Chemscore.Lipo.Weighted>
-9.0054

> <Gold.Chemscore.Internal_Hbond.Weighted>
0.0000

> <Gold.Chemscore.DEClash.Weighted>
0.1947

> <Gold.Chemscore.DEInternal.Weighted>
3.4761

> <Gold.Chemscore.Rot.Weighted>
5.8677

> <Gold.Chemscore.Internal.Correction.Weighted>
   9.000000E+99

> <Gold.Protein.RotatedTorsions>
[ 6907 6896 6895 6894 ] final    3.96 input  -60.11 | X-H torsion
[ 7974 7965 7964 7962 ] final  146.67 input  175.53 | X-H torsion
[ 8008 7997 7996 7995 ] final   77.58 input   59.86 | X-H torsion
[ 10167 10162 10161 10158 ] final   34.73 input  -65.29 | X-H torsion
[ 10718 10713 10712 10709 ] final   -5.67 input   66.30 | X-H torsion
[ 10763 10752 10751 10750 ] final  128.10 input  -60.55 | X-H torsion
[ 11005 11000 10999 10996 ] final   25.51 input  -57.11 | X-H torsion

> <Gold.Protein.ActiveResidues>
 VAL166  LYS551  ARG553  GLY616  TRP617  ASP618  TYR619  PRO620  LYS621  CYS622 
 ASP623  PHE694  ASN695  SER759  ASP760  ASP761  ALA762  ILE779  LEU786  VAL792 
 PHE793  MET794  SER795  GLU796  ALA797  LYS798  CYS799  TRP800  GLU811  SER814 

> <Gold.Protein.RotatedAtoms>
  151.6335  135.1020  160.0126 H   0  0  0  0  0  0  0  0  0  0  0  0  # atno 6907 bound_to 6896
  152.4093  133.6934  159.6392 H   0  0  0  0  0  0  0  0  0  0  0  0  # atno 6908 bound_to 6896
  150.7985  133.8570  159.3262 H   0  0  0  0  0  0  0  0  0  0  0  0  # atno 6909 bound_to 6896
  144.8652  139.5934  143.5912 H   0  0  0  0  0  0  0  0  0  0  0  0  # atno 7974 bound_to 7965
  155.8436  140.3461  155.5648 H   0  0  0  0  0  0  0  0  0  0  0  0  # atno 8008 bound_to 7997
  155.8114  140.0899  157.1921 H   0  0  0  0  0  0  0  0  0  0  0  0  # atno 8009 bound_to 7997
  154.4005  140.1447  156.3378 H   0  0  0  0  0  0  0  0  0  0  0  0  # atno 8010 bound_to 7997
  140.4288  144.1355  150.6156 H   0  0  0  0  0  0  0  0  0  0  0  0  # atno 10167 bound_to 10162
  156.7431  130.5216  149.5820 H   0  0  0  0  0  0  0  0  0  0  0  0  # atno 10718 bound_to 10713
  153.7201  135.3254  155.3265 H   0  0  0  0  0  0  0  0  0  0  0  0  # atno 10763 bound_to 10752
  154.8358  135.4497  154.1226 H   0  0  0  0  0  0  0  0  0  0  0  0  # atno 10764 bound_to 10752
  153.2344  135.6963  153.7933 H   0  0  0  0  0  0  0  0  0  0  0  0  # atno 10765 bound_to 10752
  140.3470  134.2270  155.7684 H   0  0  0  0  0  0  0  0  0  0  0  0  # atno 11005 bound_to 11000
  146.2890  139.7086  142.9174 LP  0  0  0  0  0  0  0  0  0  0  0  0  # atno 17320 bound_to 7965
  145.4235  141.0409  143.2950 LP  0  0  0  0  0  0  0  0  0  0  0  0  # atno 17321 bound_to 7965
  140.4451  143.2510  151.9422 LP  0  0  0  0  0  0  0  0  0  0  0  0  # atno 17342 bound_to 10162
  139.4784  144.5617  151.8229 LP  0  0  0  0  0  0  0  0  0  0  0  0  # atno 17343 bound_to 10162
  156.1451  130.6271  151.0520 LP  0  0  0  0  0  0  0  0  0  0  0  0  # atno 17370 bound_to 10713
  157.6810  131.0838  150.7370 LP  0  0  0  0  0  0  0  0  0  0  0  0  # atno 17371 bound_to 10713
  141.2023  133.7942  157.0399 LP  0  0  0  0  0  0  0  0  0  0  0  0  # atno 17394 bound_to 11000
  140.0734  134.9689  157.1505 LP  0  0  0  0  0  0  0  0  0  0  0  0  # atno 17395 bound_to 11000

$$$$
