AV-unprocessed.smi:193|AV-procd|sdf|1506|dock6
  -GOLD-   2262019333D 1   1.00000     0.00000
 Structure written by MMmdl.
 62 66  0  0  0  0  0  0  0  0  2 V2000
  144.8753  138.0865  154.7424 C   0  0  0  0  0  0  0  0  0  0  0  0
  146.0720  137.1282  154.8424 C   0  0  2  0  0  0  0  0  0  0  0  0
  147.3740  137.8275  154.4045 C   0  0  0  0  0  0  0  0  0  0  0  0
  148.5424  137.2733  155.0870 N   0  0  0  0  0  0  0  0  0  0  0  0
  149.5521  138.1630  155.1806 C   0  0  0  0  0  0  0  0  0  0  0  0
  150.8079  137.7111  154.9460 N   0  0  0  0  0  0  0  0  0  0  0  0
  151.8440  138.5513  155.0347 C   0  0  0  0  0  0  0  0  0  0  0  0
  151.8414  139.8517  155.3382 N   0  0  0  0  0  0  0  0  0  0  0  0
  150.5767  140.3057  155.5736 C   0  0  0  0  0  0  0  0  0  0  0  0
  149.3829  139.5342  155.5189 C   0  0  0  0  0  0  0  0  0  0  0  0
  148.2851  140.3304  155.8214 N   0  0  0  0  0  0  0  0  0  0  0  0
  148.8011  141.5102  156.0363 C   0  0  0  0  0  0  0  0  0  0  0  0
  150.1696  141.5865  155.9036 N   0  0  0  0  0  0  0  0  0  0  0  0
  150.9965  142.7697  156.0847 C   0  0  0  0  0  0  0  0  0  0  0  0
  151.1597  143.2016  157.5630 C   0  0  0  0  0  0  0  0  0  0  0  0
  149.8700  143.5014  158.0694 O   0  0  0  0  0  0  0  0  0  0  0  0
  151.7537  142.0481  158.3960 C   0  0  0  0  0  0  0  0  0  0  0  0
  152.0964  142.4839  159.8318 C   0  0  0  0  0  0  0  0  0  0  0  0
  152.9725  143.6039  159.8034 O   0  0  0  0  0  0  0  0  0  0  0  0
  152.3834  144.7469  159.1955 C   0  0  0  0  0  0  0  0  0  0  0  0
  152.0512  144.4529  157.7219 C   0  0  0  0  0  0  0  0  0  0  0  0
  149.0114  135.9306  154.7528 C   0  0  0  0  0  0  0  0  0  0  0  0
  147.9218  134.8531  154.8597 C   0  0  0  0  0  0  0  0  0  0  0  0
  146.9579  134.9932  153.7423 N   0  3  1  0  0  0  0  0  0  0  0  0
  146.5706  133.6952  153.1418 C   0  0  2  0  0  0  0  0  0  0  0  0
  147.3681  133.3288  151.9098 C   0  0  0  0  0  0  0  0  0  0  0  0
  145.9335  133.7861  151.7655 C   0  0  2  0  0  0  0  0  0  0  0  0
  145.6225  135.0969  151.0656 C   0  0  0  0  0  0  0  0  0  0  0  0
  145.7712  135.8303  154.0570 C   0  0  0  0  0  0  0  0  0  0  0  0
  144.7090  138.4108  153.7146 H   0  0  0  0  0  0  0  0  0  0  0  0
  145.0322  138.9783  155.3501 H   0  0  0  0  0  0  0  0  0  0  0  0
  143.9600  137.6098  155.0942 H   0  0  0  0  0  0  0  0  0  0  0  0
  146.1687  136.8774  155.9002 H   0  0  0  0  0  0  0  0  0  0  0  0
  147.5013  137.7682  153.3225 H   0  0  0  0  0  0  0  0  0  0  0  0
  147.3052  138.8900  154.6466 H   0  0  0  0  0  0  0  0  0  0  0  0
  152.8139  138.1205  154.8339 H   0  0  0  0  0  0  0  0  0  0  0  0
  148.1945  142.3659  156.2956 H   0  0  0  0  0  0  0  0  0  0  0  0
  151.9723  142.5748  155.6371 H   0  0  0  0  0  0  0  0  0  0  0  0
  150.5557  143.5817  155.5050 H   0  0  0  0  0  0  0  0  0  0  0  0
  149.4082  144.0173  157.4263 H   0  0  0  0  0  0  0  0  0  0  0  0
  151.0707  141.1976  158.4154 H   0  0  0  0  0  0  0  0  0  0  0  0
  152.6679  141.6934  157.9181 H   0  0  0  0  0  0  0  0  0  0  0  0
  151.1949  142.7255  160.3966 H   0  0  0  0  0  0  0  0  0  0  0  0
  152.5894  141.6677  160.3598 H   0  0  0  0  0  0  0  0  0  0  0  0
  151.4915  145.0473  159.7471 H   0  0  0  0  0  0  0  0  0  0  0  0
  153.0865  145.5777  159.2583 H   0  0  0  0  0  0  0  0  0  0  0  0
  152.9861  144.2971  157.1821 H   0  0  0  0  0  0  0  0  0  0  0  0
  151.5800  145.3277  157.2722 H   0  0  0  0  0  0  0  0  0  0  0  0
  149.4396  135.9220  153.7495 H   0  0  0  0  0  0  0  0  0  0  0  0
  149.8223  135.6728  155.4361 H   0  0  0  0  0  0  0  0  0  0  0  0
  148.4168  133.8835  154.7932 H   0  0  0  0  0  0  0  0  0  0  0  0
  147.4229  134.8635  155.8298 H   0  0  0  0  0  0  0  0  0  0  0  0
  146.2756  132.9160  153.8423 H   0  0  0  0  0  0  0  0  0  0  0  0
  148.1525  134.0100  151.5837 H   0  0  0  0  0  0  0  0  0  0  0  0
  147.5717  132.2737  151.7382 H   0  0  0  0  0  0  0  0  0  0  0  0
  145.2098  133.0048  151.5408 H   0  0  0  0  0  0  0  0  0  0  0  0
  146.4026  135.8386  151.2399 H   0  0  0  0  0  0  0  0  0  0  0  0
  144.6722  135.4965  151.4199 H   0  0  0  0  0  0  0  0  0  0  0  0
  145.5446  134.9327  149.9906 H   0  0  0  0  0  0  0  0  0  0  0  0
  145.0502  135.2368  154.6213 H   0  0  0  0  0  0  0  0  0  0  0  0
  145.2867  136.0798  153.1129 H   0  0  0  0  0  0  0  0  0  0  0  0
  147.4643  135.4836  153.0188 H   0  0  0  0  0  0  0  0  0  0  0  0
  1  2  1  0  0  0  0
  1 30  1  0  0  0  0
  1 31  1  0  0  0  0
  1 32  1  0  0  0  0
  2 29  1  0  0  0  0
  2  3  1  0  0  0  0
  2 33  1  0  0  0  0
  3  4  1  0  0  0  0
  3 34  1  0  0  0  0
  3 35  1  0  0  0  0
  4  5  1  0  0  0  0
  4 22  1  0  0  0  0
  5 10  1  0  0  0  0
  5  6  2  0  0  0  0
  6  7  1  0  0  0  0
  7  8  2  0  0  0  0
  7 36  1  0  0  0  0
  8  9  1  0  0  0  0
  9 13  1  0  0  0  0
  9 10  2  0  0  0  0
 10 11  1  0  0  0  0
 11 12  2  0  0  0  0
 12 13  1  0  0  0  0
 12 37  1  0  0  0  0
 13 14  1  0  0  0  0
 14 15  1  0  0  0  0
 14 38  1  0  0  0  0
 14 39  1  0  0  0  0
 15 21  1  0  0  0  0
 15 16  1  0  0  0  0
 15 17  1  0  0  0  0
 16 40  1  0  0  0  0
 17 18  1  0  0  0  0
 17 41  1  0  0  0  0
 17 42  1  0  0  0  0
 18 19  1  0  0  0  0
 18 43  1  0  0  0  0
 18 44  1  0  0  0  0
 19 20  1  0  0  0  0
 20 21  1  0  0  0  0
 20 45  1  0  0  0  0
 20 46  1  0  0  0  0
 21 47  1  0  0  0  0
 21 48  1  0  0  0  0
 22 23  1  0  0  0  0
 22 49  1  0  0  0  0
 22 50  1  0  0  0  0
 23 24  1  0  0  0  0
 23 51  1  0  0  0  0
 23 52  1  0  0  0  0
 24 25  1  0  0  0  0
 24 29  1  0  0  0  0
 24 62  1  0  0  0  0
 25 27  1  0  0  0  0
 25 26  1  0  0  0  0
 25 53  1  0  0  0  0
 26 27  1  0  0  0  0
 26 54  1  0  0  0  0
 26 55  1  0  0  0  0
 27 28  1  0  0  0  0
 27 56  1  0  0  0  0
 28 57  1  0  0  0  0
 28 58  1  0  0  0  0
 28 59  1  0  0  0  0
 29 60  1  0  0  0  0
 29 61  1  0  0  0  0
M  CHG  1  24   1
M  END
> <s_m_source_file>
AV-unprocessed.smi

> <i_m_source_file_index>
193

> <i_lp_mmshare_version>
43012

> <i_f3d_flags>
0

> <s_epik_input>
W0NIM11bQ0BASF0xW0NIMl1bQ0BIXTFOKFtDSDJdMilbQ0gyXVtDSDJdTihbQ0gyXVtDQEhdMltDSDNdKWMobltjSF1uMyljKGMzNCluW2NIXW40W0NIMl1DNShbT0hdKVtDSDJdW0NIMl1PW0NIMl1bQ0gyXTU=

> <s_epik_cmdline>
J2VwaWtfcHl0aG9uJywgJy1waCcsICc3LjAnLCAnLXRuJywgJzgnLCAnLW1hJywgJzIwMCcsICctbWV0YWxfYmluZGluZycsICctaW1hZScsICc8aW5maWxlLm1hZT4nLCAnLW9tYWUnLCAnPG91dGZpbGUubWFlPic=

> <r_lp_tautomer_probability>
1

> <r_epik_Ionization_Penalty>
0.0540825

> <r_epik_Ionization_Penalty_Charging>
0.0538476

> <r_epik_Ionization_Penalty_Neutral>
0.000234891

> <r_epik_State_Penalty>
0.0200719

> <r_epik_Charging_Adjusted_Penalty>
0.0739194

> <i_epik_Tot_Q>
1

> <i_epik_Tot_abs_Q>
1

> <r_epik_Metal_State_Penalty>
0.0199414

> <b_epik_Metal_Only>
0

> <s_lp_Force_Field>
OPLS_2005

> <r_lp_Energy>
59.2238

> <b_lp_Chiralities_Consistent>
1

> <s_lp_Variant>
AV-unprocessed.smi:193-11

> <Gold.Version>
5.8.1

> <Gold.Id.Protein>
6NUR|6NUR_protein|mol2

> <Gold.PLP.Fitness>
51.9980

> <Gold.PLP.PLP>
-40.5348

> <Gold.PLP.part.hbond>
-3.1501

> <Gold.PLP.part.metal>
0.0000

> <Gold.PLP.part.buried>
-3.6307

> <Gold.PLP.part.nonpolar>
-34.3111

> <Gold.PLP.part.repulsive>
0.2873

> <Gold.PLP.ligand.clash>
0.0000

> <Gold.PLP.ligand.torsion>
1.0586

> <Gold.PLP.Chemscore.Hbond>
3.1448

> <Gold.PLP.Chemscore.CHOScore>
0.8427

> <Gold.PLP.Chemscore.Metal>
0.0000

> <Gold.Chemscore.Hbonds>
donor molecule, donor type, donor heavy atom, donor atom, acceptor molecule, acceptor atom, score
      L1  H    16    40       P1  8028  1.00
      L1  H    24    62       P1  7948  2.00
      P1  H  7989  7998       L1     8  0.19
      L1  C    12    37       P1  8028  0.84

> <Gold.PLP.Chemscore.Internal.Correction>
1.6178

> <Gold.Rescore>
     Score         DG    S(hbond)    S(metal)    S(lipo)     H(rot)  DE(clash)    DE(int)     intcor
     14.46     -16.25       1.30        0.00     103.14       2.20       0.76       1.04       ----

> <Gold.Chemscore.Fitness>
14.4588

> <Gold.Chemscore.DG>
-16.2541

> <Gold.Chemscore.ZeroCoef>
-5.4800

> <Gold.Chemscore.Hbond>
1.3005

> <Gold.Chemscore.Metal>
0.0000

> <Gold.Chemscore.Lipo>
103.1357

> <Gold.Chemscore.Internal_Hbond>
0.0000

> <Gold.Chemscore.DEClash>
0.7598

> <Gold.Chemscore.DEInternal>
1.0355

> <Gold.Chemscore.Rot>
2.2018

> <Gold.Chemscore.Internal.Correction>
   9.000000E+99

> <Gold.Chemscore.Hbonds>
donor molecule, donor type, donor heavy atom, donor atom, acceptor molecule, acceptor atom, score
      L1  H    16    40       P1  8028  0.25
      L1  H    24    62       P1  7948  0.94

> <Gold.Chemscore.Hbond.Weighted>
-4.3438

> <Gold.Chemscore.Metal.Weighted>
-0.0000

> <Gold.Chemscore.Lipo.Weighted>
-12.0669

> <Gold.Chemscore.Internal_Hbond.Weighted>
0.0000

> <Gold.Chemscore.DEClash.Weighted>
0.7598

> <Gold.Chemscore.DEInternal.Weighted>
1.0355

> <Gold.Chemscore.Rot.Weighted>
5.6366

> <Gold.Chemscore.Internal.Correction.Weighted>
   9.000000E+99

> <Gold.Protein.RotatedTorsions>
[ 6907 6896 6895 6894 ] final   79.44 input  -60.11 | X-H torsion
[ 7974 7965 7964 7962 ] final -135.10 input  175.53 | X-H torsion
[ 8008 7997 7996 7995 ] final  -42.10 input   59.86 | X-H torsion
[ 10167 10162 10161 10158 ] final  106.84 input  -65.29 | X-H torsion
[ 10718 10713 10712 10709 ] final   -2.20 input   66.30 | X-H torsion
[ 10763 10752 10751 10750 ] final  -34.91 input  -60.55 | X-H torsion
[ 11005 11000 10999 10996 ] final   -6.20 input  -57.11 | X-H torsion

> <Gold.Protein.ActiveResidues>
 VAL166  LYS551  ARG553  GLY616  TRP617  ASP618  TYR619  PRO620  LYS621  CYS622 
 ASP623  PHE694  ASN695  SER759  ASP760  ASP761  ALA762  ILE779  LEU786  VAL792 
 PHE793  MET794  SER795  GLU796  ALA797  LYS798  CYS799  TRP800  GLU811  SER814 

> <Gold.Protein.RotatedAtoms>
  152.5198  134.3510  159.9250 H   0  0  0  0  0  0  0  0  0  0  0  0  # atno 6907 bound_to 6896
  151.3461  133.3937  159.2683 H   0  0  0  0  0  0  0  0  0  0  0  0  # atno 6908 bound_to 6896
  150.9764  134.9146  159.7876 H   0  0  0  0  0  0  0  0  0  0  0  0  # atno 6909 bound_to 6896
  144.9043  140.6813  143.5065 H   0  0  0  0  0  0  0  0  0  0  0  0  # atno 7974 bound_to 7965
  154.4000  140.1482  156.3300 H   0  0  0  0  0  0  0  0  0  0  0  0  # atno 8008 bound_to 7997
  155.8452  140.3460  155.5636 H   0  0  0  0  0  0  0  0  0  0  0  0  # atno 8009 bound_to 7997
  155.8044  140.0875  157.1930 H   0  0  0  0  0  0  0  0  0  0  0  0  # atno 8010 bound_to 7997
  139.6976  144.7099  151.1240 H   0  0  0  0  0  0  0  0  0  0  0  0  # atno 10167 bound_to 10162
  156.7943  130.5372  149.5731 H   0  0  0  0  0  0  0  0  0  0  0  0  # atno 10718 bound_to 10713
  153.8544  135.6846  153.4789 H   0  0  0  0  0  0  0  0  0  0  0  0  # atno 10763 bound_to 10752
  153.1378  135.4670  154.9447 H   0  0  0  0  0  0  0  0  0  0  0  0  # atno 10764 bound_to 10752
  154.7787  135.3262  154.7984 H   0  0  0  0  0  0  0  0  0  0  0  0  # atno 10765 bound_to 10752
  140.6994  133.9002  155.8673 H   0  0  0  0  0  0  0  0  0  0  0  0  # atno 11005 bound_to 11000
  145.3562  139.1693  143.4408 LP  0  0  0  0  0  0  0  0  0  0  0  0  # atno 17320 bound_to 7965
  146.3125  140.3619  142.8666 LP  0  0  0  0  0  0  0  0  0  0  0  0  # atno 17321 bound_to 7965
  140.7701  143.5469  150.9248 LP  0  0  0  0  0  0  0  0  0  0  0  0  # atno 17342 bound_to 10162
  139.9150  143.6675  152.3108 LP  0  0  0  0  0  0  0  0  0  0  0  0  # atno 17343 bound_to 10162
  156.1140  130.6061  151.0092 LP  0  0  0  0  0  0  0  0  0  0  0  0  # atno 17370 bound_to 10713
  157.6585  131.0885  150.7892 LP  0  0  0  0  0  0  0  0  0  0  0  0  # atno 17371 bound_to 10713
  141.0176  134.0934  157.4155 LP  0  0  0  0  0  0  0  0  0  0  0  0  # atno 17394 bound_to 11000
  139.8901  135.0109  156.6716 LP  0  0  0  0  0  0  0  0  0  0  0  0  # atno 17395 bound_to 11000

$$$$
