AV-unprocessed.smi:2768|AV-procd|sdf|10655|dock10
  -GOLD-   2272015103D 1   1.00000     0.00000
 Structure written by MMmdl.
 34 35  0  0  0  0  0  0  0  0  2 V2000
  152.7704  140.1157  154.9083 O   0  0  0  0  0  0  0  0  0  0  0  0
  151.7905  139.8110  155.5983 C   0  0  0  0  0  0  0  0  0  0  0  0
  151.4434  140.2282  156.8502 N   0  5  0  0  0  0  0  0  0  0  0  0
  152.2067  141.2010  157.6354 C   0  0  1  0  0  0  0  0  0  0  0  0
  151.2418  142.2112  158.3078 C   0  0  0  0  0  0  0  0  0  0  0  0
  151.9524  143.1865  159.2796 C   0  0  0  0  0  0  0  0  0  0  0  0
  152.7508  142.4519  160.3767 C   0  0  0  0  0  0  0  0  0  0  0  0
  153.7268  141.4525  159.7217 C   0  0  0  0  0  0  0  0  0  0  0  0
  153.0156  140.4773  158.7465 C   0  0  2  0  0  0  0  0  0  0  0  0
  153.9902  139.6428  158.1536 O   0  0  0  0  0  0  0  0  0  0  0  0
  150.7579  138.8313  155.0002 C   0  0  0  0  0  0  0  0  0  0  0  0
  151.2856  138.2777  153.9054 F   0  0  0  0  0  0  0  0  0  0  0  0
  150.4987  137.8387  155.8594 F   0  0  0  0  0  0  0  0  0  0  0  0
  149.4759  139.5708  154.6216 C   0  0  0  0  0  0  0  0  0  0  0  0
  148.4075  138.8892  153.9943 C   0  0  0  0  0  0  0  0  0  0  0  0
  147.2487  139.6136  153.6551 C   0  0  0  0  0  0  0  0  0  0  0  0
  147.1966  140.9886  153.9520 C   0  0  0  0  0  0  0  0  0  0  0  0
  148.3128  141.5805  154.5750 C   0  0  0  0  0  0  0  0  0  0  0  0
  149.4276  140.8949  154.9050 N   0  0  0  0  0  0  0  0  0  0  0  0
  152.9090  141.7636  157.0172 H   0  0  0  0  0  0  0  0  0  0  0  0
  152.3415  139.8421  159.3235 H   0  0  0  0  0  0  0  0  0  0  0  0
  150.7165  142.7849  157.5431 H   0  0  0  0  0  0  0  0  0  0  0  0
  150.4723  141.6686  158.8596 H   0  0  0  0  0  0  0  0  0  0  0  0
  152.6209  143.8480  158.7246 H   0  0  0  0  0  0  0  0  0  0  0  0
  151.2114  143.8365  159.7455 H   0  0  0  0  0  0  0  0  0  0  0  0
  153.2938  143.1654  160.9968 H   0  0  0  0  0  0  0  0  0  0  0  0
  152.0651  141.9173  161.0353 H   0  0  0  0  0  0  0  0  0  0  0  0
  154.5104  142.0066  159.1998 H   0  0  0  0  0  0  0  0  0  0  0  0
  154.2345  140.8840  160.5019 H   0  0  0  0  0  0  0  0  0  0  0  0
  153.8078  138.7561  158.4277 H   0  0  0  0  0  0  0  0  0  0  0  0
  148.4773  137.8348  153.7716 H   0  0  0  0  0  0  0  0  0  0  0  0
  146.4149  139.1233  153.1744 H   0  0  0  0  0  0  0  0  0  0  0  0
  146.3239  141.5757  153.7073 H   0  0  0  0  0  0  0  0  0  0  0  0
  148.3091  142.6330  154.8169 H   0  0  0  0  0  0  0  0  0  0  0  0
  1  2  2  0  0  0  0
  2  3  1  0  0  0  0
  2 11  1  0  0  0  0
  3  4  1  0  0  0  0
  4 20  1  0  0  0  0
  4  9  1  0  0  0  0
  4  5  1  0  0  0  0
  5  6  1  0  0  0  0
  5 22  1  0  0  0  0
  5 23  1  0  0  0  0
  6  7  1  0  0  0  0
  6 24  1  0  0  0  0
  6 25  1  0  0  0  0
  7  8  1  0  0  0  0
  7 26  1  0  0  0  0
  7 27  1  0  0  0  0
  8  9  1  0  0  0  0
  8 28  1  0  0  0  0
  8 29  1  0  0  0  0
  9 21  1  0  0  0  0
  9 10  1  0  0  0  0
 10 30  1  0  0  0  0
 11 12  1  0  0  0  0
 11 13  1  0  0  0  0
 11 14  1  0  0  0  0
 14 19  1  0  0  0  0
 14 15  2  0  0  0  0
 15 16  1  0  0  0  0
 15 31  1  0  0  0  0
 16 17  2  0  0  0  0
 16 32  1  0  0  0  0
 17 18  1  0  0  0  0
 17 33  1  0  0  0  0
 18 19  2  0  0  0  0
 18 34  1  0  0  0  0
M  CHG  1   3  -1
M  END
> <s_m_source_file>
AV-unprocessed.smi

> <i_m_source_file_index>
2768

> <i_lp_mmshare_version>
43012

> <i_f3d_flags>
0

> <s_epik_input>
bjFbY0hdW2NIXVtjSF1bY0hdYzFDKEYpKEYpQyg9TylbTkhdW0NAQEhdMltDSDJdW0NIMl1bQ0gyXVtDSDJdW0NASF0yW09IXQ==

> <s_epik_cmdline>
J2VwaWtfcHl0aG9uJywgJy1waCcsICc3LjAnLCAnLXRuJywgJzgnLCAnLW1hJywgJzIwMCcsICctbWV0YWxfYmluZGluZycsICctaW1hZScsICc8aW5maWxlLm1hZT4nLCAnLW9tYWUnLCAnPG91dGZpbGUubWFlPic=

> <r_lp_tautomer_probability>
1

> <r_epik_Ionization_Penalty>
5.70553

> <r_epik_Ionization_Penalty_Charging>
5.70553

> <r_epik_Ionization_Penalty_Neutral>
5.5493e-06

> <r_epik_State_Penalty>
5.70549

> <r_epik_Charging_Adjusted_Penalty>
11.411

> <i_epik_Tot_Q>
-1

> <i_epik_Tot_abs_Q>
1

> <r_epik_Metal_State_Penalty>
1.6859

> <b_epik_Metal_Only>
1

> <s_lp_Force_Field>
OPLS_2005

> <r_lp_Energy>
26.4517

> <b_lp_Chiralities_Consistent>
1

> <s_lp_Variant>
AV-unprocessed.smi:2768-8

> <Gold.Version>
5.8.1

> <Gold.Id.Protein>
6NUR|6NUR_protein|mol2

> <Gold.PLP.Fitness>
47.9797

> <Gold.PLP.PLP>
-39.6960

> <Gold.PLP.part.hbond>
-3.2785

> <Gold.PLP.part.metal>
0.0000

> <Gold.PLP.part.buried>
-4.1730

> <Gold.PLP.part.nonpolar>
-31.5936

> <Gold.PLP.part.repulsive>
0.1358

> <Gold.PLP.ligand.clash>
0.0000

> <Gold.PLP.ligand.torsion>
0.5781

> <Gold.PLP.Chemscore.Hbond>
2.1347

> <Gold.PLP.Chemscore.CHOScore>
1.0000

> <Gold.PLP.Chemscore.Metal>
0.0000

> <Gold.Chemscore.Hbonds>
donor molecule, donor type, donor heavy atom, donor atom, acceptor molecule, acceptor atom, score
      P1  H  7989  7998       L1     1  0.28
      P1  H  7997  8008       L1    10  0.60
      P1  H  7997  8009       L1     1  1.00
      L1  C    18    34       P1  8028  1.00

> <Gold.PLP.Chemscore.Internal.Correction>
0.0360

> <Gold.Rescore>
     Score         DG    S(hbond)    S(metal)    S(lipo)     H(rot)  DE(clash)    DE(int)     intcor
     15.29     -17.24       1.75        0.00      93.23       1.95       0.07       1.88       ----

> <Gold.Chemscore.Fitness>
15.2879

> <Gold.Chemscore.DG>
-17.2427

> <Gold.Chemscore.ZeroCoef>
-5.4800

> <Gold.Chemscore.Hbond>
1.7507

> <Gold.Chemscore.Metal>
0.0000

> <Gold.Chemscore.Lipo>
93.2312

> <Gold.Chemscore.Internal_Hbond>
0.0000

> <Gold.Chemscore.DEClash>
0.0743

> <Gold.Chemscore.DEInternal>
1.8805

> <Gold.Chemscore.Rot>
1.9503

> <Gold.Chemscore.Internal.Correction>
   9.000000E+99

> <Gold.Chemscore.Hbonds>
donor molecule, donor type, donor heavy atom, donor atom, acceptor molecule, acceptor atom, score
      P1  H  7989  7998       L1     1  0.03
      P1  H  7997  8008       L1    10  0.59
      P1  H  7997  8009       L1     1  0.92

> <Gold.Chemscore.Hbond.Weighted>
-5.8474

> <Gold.Chemscore.Metal.Weighted>
-0.0000

> <Gold.Chemscore.Lipo.Weighted>
-10.9081

> <Gold.Chemscore.Internal_Hbond.Weighted>
0.0000

> <Gold.Chemscore.DEClash.Weighted>
0.0743

> <Gold.Chemscore.DEInternal.Weighted>
1.8805

> <Gold.Chemscore.Rot.Weighted>
4.9928

> <Gold.Chemscore.Internal.Correction.Weighted>
   9.000000E+99

> <Gold.Protein.RotatedTorsions>
[ 6907 6896 6895 6894 ] final  -23.41 input  -60.11 | X-H torsion
[ 7974 7965 7964 7962 ] final   98.88 input  175.53 | X-H torsion
[ 8008 7997 7996 7995 ] final -117.72 input   59.86 | X-H torsion
[ 10167 10162 10161 10158 ] final -147.01 input  -65.29 | X-H torsion
[ 10718 10713 10712 10709 ] final   64.32 input   66.30 | X-H torsion
[ 10763 10752 10751 10750 ] final  -38.52 input  -60.55 | X-H torsion
[ 11005 11000 10999 10996 ] final -150.76 input  -57.11 | X-H torsion

> <Gold.Protein.ActiveResidues>
 VAL166  LYS551  ARG553  GLY616  TRP617  ASP618  TYR619  PRO620  LYS621  CYS622 
 ASP623  PHE694  ASN695  SER759  ASP760  ASP761  ALA762  ILE779  LEU786  VAL792 
 PHE793  MET794  SER795  GLU796  ALA797  LYS798  CYS799  TRP800  GLU811  SER814 

> <Gold.Protein.RotatedAtoms>
  151.2044  135.0455  159.8885 H   0  0  0  0  0  0  0  0  0  0  0  0  # atno 6907 bound_to 6896
  152.5430  134.0815  159.8247 H   0  0  0  0  0  0  0  0  0  0  0  0  # atno 6908 bound_to 6896
  151.0959  133.5232  159.2644 H   0  0  0  0  0  0  0  0  0  0  0  0  # atno 6909 bound_to 6896
  145.4062  139.2340  143.3273 H   0  0  0  0  0  0  0  0  0  0  0  0  # atno 7974 bound_to 7965
  155.0882  140.0395  157.2660 H   0  0  0  0  0  0  0  0  0  0  0  0  # atno 8008 bound_to 7997
  154.6853  140.2641  155.6842 H   0  0  0  0  0  0  0  0  0  0  0  0  # atno 8009 bound_to 7997
  156.2709  140.2770  156.1411 H   0  0  0  0  0  0  0  0  0  0  0  0  # atno 8010 bound_to 7997
  139.7661  143.8306  152.2616 H   0  0  0  0  0  0  0  0  0  0  0  0  # atno 10167 bound_to 10162
  157.6031  130.9153  149.9830 H   0  0  0  0  0  0  0  0  0  0  0  0  # atno 10718 bound_to 10713
  153.9143  135.6789  153.4750 H   0  0  0  0  0  0  0  0  0  0  0  0  # atno 10763 bound_to 10752
  153.1062  135.4804  154.8952 H   0  0  0  0  0  0  0  0  0  0  0  0  # atno 10764 bound_to 10752
  154.7511  135.3185  154.8511 H   0  0  0  0  0  0  0  0  0  0  0  0  # atno 10765 bound_to 10752
  140.7368  134.3559  157.5156 H   0  0  0  0  0  0  0  0  0  0  0  0  # atno 11005 bound_to 11000
  146.2727  140.4767  142.8808 LP  0  0  0  0  0  0  0  0  0  0  0  0  # atno 17320 bound_to 7965
  144.8340  140.6752  143.6272 LP  0  0  0  0  0  0  0  0  0  0  0  0  # atno 17321 bound_to 7965
  139.8326  144.7247  150.9431 LP  0  0  0  0  0  0  0  0  0  0  0  0  # atno 17342 bound_to 10162
  140.7811  143.4056  151.1077 LP  0  0  0  0  0  0  0  0  0  0  0  0  # atno 17343 bound_to 10162
  156.1110  130.3650  150.0049 LP  0  0  0  0  0  0  0  0  0  0  0  0  # atno 17370 bound_to 10713
  156.8147  130.9337  151.3643 LP  0  0  0  0  0  0  0  0  0  0  0  0  # atno 17371 bound_to 10713
  139.8814  134.9054  156.2900 LP  0  0  0  0  0  0  0  0  0  0  0  0  # atno 17394 bound_to 11000
  140.9872  133.7231  156.0760 LP  0  0  0  0  0  0  0  0  0  0  0  0  # atno 17395 bound_to 11000

$$$$
