AV-unprocessed.smi:2095|AV-procd|sdf|8557|dock2
  -GOLD-   2272011283D 1   1.00000     0.00000
 Structure written by MMmdl.
 42 43  0  0  0  0  0  0  0  0  2 V2000
  145.9420  132.5266  150.2788 C   0  0  0  0  0  0  0  0  0  0  0  0
  146.1315  133.8990  150.9401 C   0  0  1  0  0  0  0  0  0  0  0  0
  144.9293  134.8218  150.6741 C   0  0  0  0  0  0  0  0  0  0  0  0
  145.1308  136.1764  151.3665 C   0  0  0  0  0  0  0  0  0  0  0  0
  145.4053  135.9940  152.8679 C   0  0  0  0  0  0  0  0  0  0  0  0
  146.5742  135.1012  153.0856 N   0  3  1  0  0  0  0  0  0  0  0  0
  147.0481  135.0781  154.5002 C   0  0  2  0  0  0  0  0  0  0  0  0
  146.1574  134.1600  155.3595 C   0  0  0  0  0  0  0  0  0  0  0  0
  147.2152  136.4923  155.1141 C   0  0  0  0  0  0  0  0  0  0  0  0
  148.2509  137.2630  154.4364 N   0  0  0  0  0  0  0  0  0  0  0  0
  148.7586  138.4231  154.8800 C   0  0  0  0  0  0  0  0  0  0  0  0
  148.4448  138.9335  155.9550 O   0  0  0  0  0  0  0  0  0  0  0  0
  149.7488  139.1297  153.9553 C   0  0  0  0  0  0  0  0  0  0  0  0
  151.1068  138.7231  154.2623 N   0  0  0  0  0  0  0  0  0  0  0  0
  151.7088  137.5361  154.1668 C   0  0  0  0  0  0  0  0  0  0  0  0
  152.9641  137.5902  154.5850 N   0  0  0  0  0  0  0  0  0  0  0  0
  153.1160  138.9158  154.9561 N   0  0  0  0  0  0  0  0  0  0  0  0
  152.0170  139.5932  154.7675 N   0  0  0  0  0  0  0  0  0  0  0  0
  146.3734  133.7665  152.4570 C   0  0  0  0  0  0  0  0  0  0  0  0
  145.0667  132.0118  150.6760 H   0  0  0  0  0  0  0  0  0  0  0  0
  146.8088  131.8863  150.4458 H   0  0  0  0  0  0  0  0  0  0  0  0
  145.8092  132.6251  149.2010 H   0  0  0  0  0  0  0  0  0  0  0  0
  147.0161  134.3580  150.4956 H   0  0  0  0  0  0  0  0  0  0  0  0
  144.7954  134.9697  149.6019 H   0  0  0  0  0  0  0  0  0  0  0  0
  144.0135  134.3560  151.0408 H   0  0  0  0  0  0  0  0  0  0  0  0
  145.9655  136.7039  150.9027 H   0  0  0  0  0  0  0  0  0  0  0  0
  144.2504  136.8035  151.2218 H   0  0  0  0  0  0  0  0  0  0  0  0
  145.5917  136.9707  153.3158 H   0  0  0  0  0  0  0  0  0  0  0  0
  144.5238  135.5818  153.3606 H   0  0  0  0  0  0  0  0  0  0  0  0
  148.0291  134.6011  154.4868 H   0  0  0  0  0  0  0  0  0  0  0  0
  146.6039  133.9784  156.3377 H   0  0  0  0  0  0  0  0  0  0  0  0
  146.0217  133.1878  154.8849 H   0  0  0  0  0  0  0  0  0  0  0  0
  145.1706  134.5904  155.5287 H   0  0  0  0  0  0  0  0  0  0  0  0
  146.2772  137.0480  155.0887 H   0  0  0  0  0  0  0  0  0  0  0  0
  147.5057  136.4232  156.1625 H   0  0  0  0  0  0  0  0  0  0  0  0
  148.5687  136.9167  153.5422 H   0  0  0  0  0  0  0  0  0  0  0  0
  149.5331  138.8821  152.9149 H   0  0  0  0  0  0  0  0  0  0  0  0
  149.6605  140.2126  154.0569 H   0  0  0  0  0  0  0  0  0  0  0  0
  151.2288  136.6393  153.8034 H   0  0  0  0  0  0  0  0  0  0  0  0
  145.5243  133.2618  152.9197 H   0  0  0  0  0  0  0  0  0  0  0  0
  147.2479  133.1386  152.6257 H   0  0  0  0  0  0  0  0  0  0  0  0
  147.3278  135.5334  152.5703 H   0  0  0  0  0  0  0  0  0  0  0  0
  1  2  1  0  0  0  0
  1 20  1  0  0  0  0
  1 21  1  0  0  0  0
  1 22  1  0  0  0  0
  2 19  1  0  0  0  0
  2  3  1  0  0  0  0
  2 23  1  0  0  0  0
  3  4  1  0  0  0  0
  3 24  1  0  0  0  0
  3 25  1  0  0  0  0
  4  5  1  0  0  0  0
  4 26  1  0  0  0  0
  4 27  1  0  0  0  0
  5  6  1  0  0  0  0
  5 28  1  0  0  0  0
  5 29  1  0  0  0  0
  6  7  1  0  0  0  0
  6 19  1  0  0  0  0
  6 42  1  0  0  0  0
  7  8  1  0  0  0  0
  7  9  1  0  0  0  0
  7 30  1  0  0  0  0
  8 31  1  0  0  0  0
  8 32  1  0  0  0  0
  8 33  1  0  0  0  0
  9 10  1  0  0  0  0
  9 34  1  0  0  0  0
  9 35  1  0  0  0  0
 10 11  1  0  0  0  0
 10 36  1  0  0  0  0
 11 12  2  0  0  0  0
 11 13  1  0  0  0  0
 13 14  1  0  0  0  0
 13 37  1  0  0  0  0
 13 38  1  0  0  0  0
 14 18  1  0  0  0  0
 14 15  1  0  0  0  0
 15 16  2  0  0  0  0
 15 39  1  0  0  0  0
 16 17  1  0  0  0  0
 17 18  2  0  0  0  0
 19 40  1  0  0  0  0
 19 41  1  0  0  0  0
M  CHG  1   6   1
M  END
> <s_m_source_file>
AV-unprocessed.smi

> <i_m_source_file_index>
2095

> <i_lp_mmshare_version>
43012

> <i_f3d_flags>
0

> <s_epik_input>
W0NIM11bQ0BASF0xW0NIMl1bQ0gyXVtDSDJdTihbQ0gyXTEpW0NASF0oW0NIM10pW0NIMl1bTkhdQyg9TylbQ0gyXW4yW2NIXW5ubjI=

> <s_epik_cmdline>
J2VwaWtfcHl0aG9uJywgJy1waCcsICc3LjAnLCAnLXRuJywgJzgnLCAnLW1hJywgJzIwMCcsICctbWV0YWxfYmluZGluZycsICctaW1hZScsICc8aW5maWxlLm1hZT4nLCAnLW9tYWUnLCAnPG91dGZpbGUubWFlPic=

> <r_lp_tautomer_probability>
1

> <r_epik_Ionization_Penalty>
0.00268321

> <r_epik_Ionization_Penalty_Charging>
0.00267875

> <r_epik_Ionization_Penalty_Neutral>
4.46125e-06

> <r_epik_State_Penalty>
0.00186642

> <r_epik_Charging_Adjusted_Penalty>
0.00454517

> <i_epik_Tot_Q>
1

> <i_epik_Tot_abs_Q>
1

> <r_epik_Metal_State_Penalty>
-0

> <b_epik_Metal_Only>
0

> <s_lp_Force_Field>
OPLS_2005

> <r_lp_Energy>
21.2581

> <b_lp_Chiralities_Consistent>
1

> <s_lp_Variant>
AV-unprocessed.smi:2095-4

> <Gold.Version>
5.8.1

> <Gold.Id.Protein>
6NUR|6NUR_protein|mol2

> <Gold.PLP.Fitness>
45.4256

> <Gold.PLP.PLP>
-29.6073

> <Gold.PLP.part.hbond>
-5.1491

> <Gold.PLP.part.metal>
0.0000

> <Gold.PLP.part.buried>
-3.4920

> <Gold.PLP.part.nonpolar>
-21.4754

> <Gold.PLP.part.repulsive>
0.0930

> <Gold.PLP.ligand.clash>
0.0000

> <Gold.PLP.ligand.torsion>
0.6383

> <Gold.PLP.Chemscore.Hbond>
4.6500

> <Gold.PLP.Chemscore.CHOScore>
1.0000

> <Gold.PLP.Chemscore.Metal>
0.0000

> <Gold.Chemscore.Hbonds>
donor molecule, donor type, donor heavy atom, donor atom, acceptor molecule, acceptor atom, score
      L1  H     6    42       P1  7948  2.00
      L1  H    10    36       P1  7948  1.00
      P1  H  7989  7998       L1    18  0.58
      P1  H  7997  8008       L1    17  0.91
      P1  H 10752 10765       L1    16  0.04
      L1  C    15    39       P1  7949  0.89

> <Gold.PLP.Chemscore.Internal.Correction>
0.1450

> <Gold.Rescore>
     Score         DG    S(hbond)    S(metal)    S(lipo)     H(rot)  DE(clash)    DE(int)     intcor
     14.03     -14.77       3.08        0.00      49.37       2.64       0.07       0.66       ----

> <Gold.Chemscore.Fitness>
14.0332

> <Gold.Chemscore.DG>
-14.7684

> <Gold.Chemscore.ZeroCoef>
-5.4800

> <Gold.Chemscore.Hbond>
3.0779

> <Gold.Chemscore.Metal>
0.0000

> <Gold.Chemscore.Lipo>
49.3743

> <Gold.Chemscore.Internal_Hbond>
0.0000

> <Gold.Chemscore.DEClash>
0.0740

> <Gold.Chemscore.DEInternal>
0.6612

> <Gold.Chemscore.Rot>
2.6439

> <Gold.Chemscore.Internal.Correction>
   9.000000E+99

> <Gold.Chemscore.Hbonds>
donor molecule, donor type, donor heavy atom, donor atom, acceptor molecule, acceptor atom, score
      L1  H     6    42       P1  7948  1.00
      L1  H    10    36       P1  7948  1.00
      P1  H  7989  7998       L1    18  0.05
      P1  H  7997  8008       L1    17  0.57

> <Gold.Chemscore.Hbond.Weighted>
-10.2801

> <Gold.Chemscore.Metal.Weighted>
-0.0000

> <Gold.Chemscore.Lipo.Weighted>
-5.7768

> <Gold.Chemscore.Internal_Hbond.Weighted>
0.0000

> <Gold.Chemscore.DEClash.Weighted>
0.0740

> <Gold.Chemscore.DEInternal.Weighted>
0.6612

> <Gold.Chemscore.Rot.Weighted>
6.7685

> <Gold.Chemscore.Internal.Correction.Weighted>
   9.000000E+99

> <Gold.Protein.RotatedTorsions>
[ 6907 6896 6895 6894 ] final  110.83 input  -60.11 | X-H torsion
[ 7974 7965 7964 7962 ] final  -61.88 input  175.53 | X-H torsion
[ 8008 7997 7996 7995 ] final  -14.02 input   59.86 | X-H torsion
[ 10167 10162 10161 10158 ] final -168.34 input  -65.29 | X-H torsion
[ 10718 10713 10712 10709 ] final   31.32 input   66.30 | X-H torsion
[ 10763 10752 10751 10750 ] final  110.69 input  -60.55 | X-H torsion
[ 11005 11000 10999 10996 ] final  170.62 input  -57.11 | X-H torsion

> <Gold.Protein.ActiveResidues>
 VAL166  LYS551  ARG553  GLY616  TRP617  ASP618  TYR619  PRO620  LYS621  CYS622 
 ASP623  PHE694  ASN695  SER759  ASP760  ASP761  ALA762  ILE779  LEU786  VAL792 
 PHE793  MET794  SER795  GLU796  ALA797  LYS798  CYS799  TRP800  GLU811  SER814 

> <Gold.Protein.RotatedAtoms>
  152.5000  133.8744  159.7314 H   0  0  0  0  0  0  0  0  0  0  0  0  # atno 6907 bound_to 6896
  150.9223  133.6857  159.2836 H   0  0  0  0  0  0  0  0  0  0  0  0  # atno 6908 bound_to 6896
  151.4230  135.1004  159.9672 H   0  0  0  0  0  0  0  0  0  0  0  0  # atno 6909 bound_to 6896
  145.7981  140.8671  143.0245 H   0  0  0  0  0  0  0  0  0  0  0  0  # atno 7974 bound_to 7965
  154.5245  140.2234  155.8916 H   0  0  0  0  0  0  0  0  0  0  0  0  # atno 8008 bound_to 7997
  156.1698  140.3124  155.8917 H   0  0  0  0  0  0  0  0  0  0  0  0  # atno 8009 bound_to 7997
  155.3582  140.0459  157.3037 H   0  0  0  0  0  0  0  0  0  0  0  0  # atno 8010 bound_to 7997
  139.5991  144.1048  152.1723 H   0  0  0  0  0  0  0  0  0  0  0  0  # atno 10167 bound_to 10162
  157.2710  130.7208  149.6504 H   0  0  0  0  0  0  0  0  0  0  0  0  # atno 10718 bound_to 10713
  153.4525  135.3740  155.2292 H   0  0  0  0  0  0  0  0  0  0  0  0  # atno 10763 bound_to 10752
  154.8756  135.3889  154.4021 H   0  0  0  0  0  0  0  0  0  0  0  0  # atno 10764 bound_to 10752
  153.4582  135.7086  153.6130 H   0  0  0  0  0  0  0  0  0  0  0  0  # atno 10765 bound_to 10752
  140.3103  134.7522  157.3986 H   0  0  0  0  0  0  0  0  0  0  0  0  # atno 11005 bound_to 11000
  144.6772  140.0220  143.7483 LP  0  0  0  0  0  0  0  0  0  0  0  0  # atno 17320 bound_to 7965
  145.9907  139.3012  143.0987 LP  0  0  0  0  0  0  0  0  0  0  0  0  # atno 17321 bound_to 7965
  140.0640  144.5833  150.7241 LP  0  0  0  0  0  0  0  0  0  0  0  0  # atno 17342 bound_to 10162
  140.7236  143.2613  151.4197 LP  0  0  0  0  0  0  0  0  0  0  0  0  # atno 17343 bound_to 10162
  155.9663  130.4367  150.5147 LP  0  0  0  0  0  0  0  0  0  0  0  0  # atno 17370 bound_to 10713
  157.3071  131.0656  151.2027 LP  0  0  0  0  0  0  0  0  0  0  0  0  # atno 17371 bound_to 10713
  140.1031  134.5446  155.8334 LP  0  0  0  0  0  0  0  0  0  0  0  0  # atno 17394 bound_to 11000
  141.2109  133.6701  156.6547 LP  0  0  0  0  0  0  0  0  0  0  0  0  # atno 17395 bound_to 11000

$$$$
