AV-unprocessed.smi:1452|AV-procd|sdf|5909|dock5
  -GOLD-   22720 5593D 1   1.00000     0.00000
 Structure written by MMmdl.
 40 42  0  0  0  0  0  0  0  0  2 V2000
  145.0058  136.7477  152.9695 O   0  0  0  0  0  0  0  0  0  0  0  0
  146.1370  136.6587  152.4958 C   0  0  0  0  0  0  0  0  0  0  0  0
  146.4848  135.6209  151.7060 N   0  0  0  0  0  0  0  0  0  0  0  0
  145.7377  134.4907  151.2606 C   0  0  0  0  0  0  0  0  0  0  0  0
  146.5244  133.4103  150.8009 C   0  0  0  0  0  0  0  0  0  0  0  0
  145.8951  132.2455  150.3211 C   0  0  0  0  0  0  0  0  0  0  0  0
  144.4902  132.1907  150.3084 C   0  0  0  0  0  0  0  0  0  0  0  0
  143.7794  133.3099  150.7777 C   0  0  0  0  0  0  0  0  0  0  0  0
  144.3812  134.4273  151.2382 N   0  0  0  0  0  0  0  0  0  0  0  0
  147.0954  137.5718  152.7250 N   0  0  0  0  0  0  0  0  0  0  0  0
  146.9715  138.7466  153.5844 C   0  0  2  0  0  0  0  0  0  0  0  0
  146.8035  140.0540  152.7855 C   0  0  0  0  0  0  0  0  0  0  0  0
  147.7041  141.0664  153.5002 C   0  0  0  0  0  0  0  0  0  0  0  0
  148.8059  140.2336  153.9959 N   0  3  1  0  0  0  0  0  0  0  0  0
  149.7593  140.8247  154.9565 C   0  0  0  0  0  0  0  0  0  0  0  0
  150.9114  139.8218  155.1806 C   0  0  0  0  0  0  0  0  0  0  0  0
  150.3975  138.4183  155.5747 C   0  0  0  0  0  0  0  0  0  0  0  0
  149.3104  137.9128  154.6022 C   0  0  0  0  0  0  0  0  0  0  0  0
  148.2067  138.9801  154.4850 C   0  0  2  0  0  0  0  0  0  0  0  0
  147.4065  135.6951  151.3000 H   0  0  0  0  0  0  0  0  0  0  0  0
  147.6033  133.4687  150.8143 H   0  0  0  0  0  0  0  0  0  0  0  0
  146.4810  131.4100  149.9678 H   0  0  0  0  0  0  0  0  0  0  0  0
  143.9712  131.3152  149.9469 H   0  0  0  0  0  0  0  0  0  0  0  0
  142.6996  133.3099  150.7829 H   0  0  0  0  0  0  0  0  0  0  0  0
  147.9940  137.4181  152.2894 H   0  0  0  0  0  0  0  0  0  0  0  0
  146.0957  138.6319  154.2261 H   0  0  0  0  0  0  0  0  0  0  0  0
  147.1565  139.9206  151.7615 H   0  0  0  0  0  0  0  0  0  0  0  0
  145.7656  140.3847  152.7340 H   0  0  0  0  0  0  0  0  0  0  0  0
  148.0555  141.8585  152.8386 H   0  0  0  0  0  0  0  0  0  0  0  0
  147.1788  141.5218  154.3413 H   0  0  0  0  0  0  0  0  0  0  0  0
  150.1485  141.7628  154.5596 H   0  0  0  0  0  0  0  0  0  0  0  0
  149.2538  141.0543  155.8959 H   0  0  0  0  0  0  0  0  0  0  0  0
  151.4960  139.7401  154.2633 H   0  0  0  0  0  0  0  0  0  0  0  0
  151.5926  140.1991  155.9440 H   0  0  0  0  0  0  0  0  0  0  0  0
  151.2270  137.7113  155.6094 H   0  0  0  0  0  0  0  0  0  0  0  0
  149.9862  138.4574  156.5843 H   0  0  0  0  0  0  0  0  0  0  0  0
  149.7502  137.7093  153.6247 H   0  0  0  0  0  0  0  0  0  0  0  0
  148.8969  136.9723  154.9676 H   0  0  0  0  0  0  0  0  0  0  0  0
  147.8205  139.1724  155.4886 H   0  0  0  0  0  0  0  0  0  0  0  0
  149.3418  139.9834  153.1772 H   0  0  0  0  0  0  0  0  0  0  0  0
  1  2  2  0  0  0  0
  2  3  1  0  0  0  0
  2 10  1  0  0  0  0
  3  4  1  0  0  0  0
  3 20  1  0  0  0  0
  4  9  1  0  0  0  0
  4  5  2  0  0  0  0
  5  6  1  0  0  0  0
  5 21  1  0  0  0  0
  6  7  2  0  0  0  0
  6 22  1  0  0  0  0
  7  8  1  0  0  0  0
  7 23  1  0  0  0  0
  8  9  2  0  0  0  0
  8 24  1  0  0  0  0
 10 11  1  0  0  0  0
 10 25  1  0  0  0  0
 11 19  1  0  0  0  0
 11 12  1  0  0  0  0
 11 26  1  0  0  0  0
 12 13  1  0  0  0  0
 12 27  1  0  0  0  0
 12 28  1  0  0  0  0
 13 14  1  0  0  0  0
 13 29  1  0  0  0  0
 13 30  1  0  0  0  0
 14 19  1  0  0  0  0
 14 15  1  0  0  0  0
 14 40  1  0  0  0  0
 15 16  1  0  0  0  0
 15 31  1  0  0  0  0
 15 32  1  0  0  0  0
 16 17  1  0  0  0  0
 16 33  1  0  0  0  0
 16 34  1  0  0  0  0
 17 18  1  0  0  0  0
 17 35  1  0  0  0  0
 17 36  1  0  0  0  0
 18 19  1  0  0  0  0
 18 37  1  0  0  0  0
 18 38  1  0  0  0  0
 19 39  1  0  0  0  0
M  CHG  1  14   1
M  END
> <s_m_source_file>
AV-unprocessed.smi

> <i_m_source_file_index>
1452

> <i_lp_mmshare_version>
43012

> <i_f3d_flags>
0

> <s_epik_input>
W0NIMl0xW0NIMl1bQ0gyXVtDSDJdW0NASF0oTjEyKVtDQEBIXShbQ0gyXVtDSDJdMilbTkhdQyg9TylbTkhdYzNbY0hdW2NIXVtjSF1bY0hdbjM=

> <s_epik_cmdline>
J2VwaWtfcHl0aG9uJywgJy1waCcsICc3LjAnLCAnLXRuJywgJzgnLCAnLW1hJywgJzIwMCcsICctbWV0YWxfYmluZGluZycsICctaW1hZScsICc8aW5maWxlLm1hZT4nLCAnLW9tYWUnLCAnPG91dGZpbGUubWFlPic=

> <r_epik_Ionization_Penalty>
0.00100813

> <r_epik_Ionization_Penalty_Charging>
0.000974069

> <r_epik_Ionization_Penalty_Neutral>
3.40643e-05

> <r_epik_State_Penalty>
0.000633842

> <r_epik_Charging_Adjusted_Penalty>
0.00160791

> <i_epik_Tot_Q>
1

> <i_epik_Tot_abs_Q>
1

> <r_epik_Metal_State_Penalty>
-0

> <b_epik_Metal_Only>
0

> <s_lp_Force_Field>
OPLS_2005

> <r_lp_Energy>
45.6992

> <b_lp_Chiralities_Consistent>
1

> <s_lp_Variant>
AV-unprocessed.smi:1452-7

> <Gold.Version>
5.8.1

> <Gold.Id.Protein>
6NUR|6NUR_protein|mol2

> <Gold.PLP.Fitness>
40.6348

> <Gold.PLP.PLP>
-30.4712

> <Gold.PLP.part.hbond>
-2.6243

> <Gold.PLP.part.metal>
0.0000

> <Gold.PLP.part.buried>
0.5324

> <Gold.PLP.part.nonpolar>
-28.1784

> <Gold.PLP.part.repulsive>
0.5683

> <Gold.PLP.ligand.clash>
0.0000

> <Gold.PLP.ligand.torsion>
0.2945

> <Gold.PLP.Chemscore.Hbond>
2.5840

> <Gold.PLP.Chemscore.CHOScore>
1.0000

> <Gold.PLP.Chemscore.Metal>
0.0000

> <Gold.Chemscore.Hbonds>
donor molecule, donor type, donor heavy atom, donor atom, acceptor molecule, acceptor atom, score
      L1  H     3    20       P1  7948  0.75
      L1  H    10    25       P1  7948  0.83
      L1  H    14    40       P1  7957  0.99
      L1  C     8    24       P1 10186  1.00

> <Gold.PLP.Chemscore.Internal.Correction>
0.0006

> <Gold.Rescore>
     Score         DG    S(hbond)    S(metal)    S(lipo)     H(rot)  DE(clash)    DE(int)     intcor
     19.43     -21.36       2.67        0.00      81.31       1.00       0.47       1.46       ----

> <Gold.Chemscore.Fitness>
19.4336

> <Gold.Chemscore.DG>
-21.3597

> <Gold.Chemscore.ZeroCoef>
-5.4800

> <Gold.Chemscore.Hbond>
2.6727

> <Gold.Chemscore.Metal>
0.0000

> <Gold.Chemscore.Lipo>
81.3055

> <Gold.Chemscore.Internal_Hbond>
0.0000

> <Gold.Chemscore.DEClash>
0.4703

> <Gold.Chemscore.DEInternal>
1.4558

> <Gold.Chemscore.Rot>
1.0000

> <Gold.Chemscore.Internal.Correction>
   9.000000E+99

> <Gold.Chemscore.Hbonds>
donor molecule, donor type, donor heavy atom, donor atom, acceptor molecule, acceptor atom, score
      L1  H     3    20       P1  7948  0.68
      L1  H    10    25       P1  7948  0.80
      L1  H    14    40       P1  7957  0.87

> <Gold.Chemscore.Hbond.Weighted>
-8.9269

> <Gold.Chemscore.Metal.Weighted>
-0.0000

> <Gold.Chemscore.Lipo.Weighted>
-9.5127

> <Gold.Chemscore.Internal_Hbond.Weighted>
0.0000

> <Gold.Chemscore.DEClash.Weighted>
0.4703

> <Gold.Chemscore.DEInternal.Weighted>
1.4558

> <Gold.Chemscore.Rot.Weighted>
2.5600

> <Gold.Chemscore.Internal.Correction.Weighted>
   9.000000E+99

> <Gold.Protein.RotatedTorsions>
[ 6907 6896 6895 6894 ] final  -53.83 input  -60.11 | X-H torsion
[ 7974 7965 7964 7962 ] final   65.16 input  175.53 | X-H torsion
[ 8008 7997 7996 7995 ] final  -80.52 input   59.86 | X-H torsion
[ 10167 10162 10161 10158 ] final -145.11 input  -65.29 | X-H torsion
[ 10718 10713 10712 10709 ] final  159.65 input   66.30 | X-H torsion
[ 10763 10752 10751 10750 ] final  -24.25 input  -60.55 | X-H torsion
[ 11005 11000 10999 10996 ] final  145.87 input  -57.11 | X-H torsion

> <Gold.Protein.ActiveResidues>
 VAL166  LYS551  ARG553  GLY616  TRP617  ASP618  TYR619  PRO620  LYS621  CYS622 
 ASP623  PHE694  ASN695  SER759  ASP760  ASP761  ALA762  ILE779  LEU786  VAL792 
 PHE793  MET794  SER795  GLU796  ALA797  LYS798  CYS799  TRP800  GLU811  SER814 

> <Gold.Protein.RotatedAtoms>
  150.8392  134.7677  159.6917 H   0  0  0  0  0  0  0  0  0  0  0  0  # atno 6907 bound_to 6896
  152.4483  134.5445  159.9858 H   0  0  0  0  0  0  0  0  0  0  0  0  # atno 6908 bound_to 6896
  151.5589  133.3368  159.3003 H   0  0  0  0  0  0  0  0  0  0  0  0  # atno 6909 bound_to 6896
  145.8417  139.3199  143.0927 H   0  0  0  0  0  0  0  0  0  0  0  0  # atno 7974 bound_to 7965
  154.5892  140.0661  156.9214 H   0  0  0  0  0  0  0  0  0  0  0  0  # atno 8008 bound_to 7997
  155.2326  140.3338  155.4283 H   0  0  0  0  0  0  0  0  0  0  0  0  # atno 8009 bound_to 7997
  156.2244  140.1812  156.7384 H   0  0  0  0  0  0  0  0  0  0  0  0  # atno 8010 bound_to 7997
  139.7836  143.8066  152.2642 H   0  0  0  0  0  0  0  0  0  0  0  0  # atno 10167 bound_to 10162
  157.1612  131.0588  151.2231 H   0  0  0  0  0  0  0  0  0  0  0  0  # atno 10718 bound_to 10713
  153.6808  135.6967  153.5118 H   0  0  0  0  0  0  0  0  0  0  0  0  # atno 10763 bound_to 10752
  153.2486  135.4282  155.0773 H   0  0  0  0  0  0  0  0  0  0  0  0  # atno 10764 bound_to 10752
  154.8400  135.3525  154.6352 H   0  0  0  0  0  0  0  0  0  0  0  0  # atno 10765 bound_to 10752
  140.0747  134.9132  157.1403 H   0  0  0  0  0  0  0  0  0  0  0  0  # atno 11005 bound_to 11000
  145.9458  140.8946  143.0284 LP  0  0  0  0  0  0  0  0  0  0  0  0  # atno 17320 bound_to 7965
  144.6733  140.1611  143.7422 LP  0  0  0  0  0  0  0  0  0  0  0  0  # atno 17321 bound_to 7965
  139.8136  144.7325  150.9665 LP  0  0  0  0  0  0  0  0  0  0  0  0  # atno 17342 bound_to 10162
  140.7819  143.4227  151.0817 LP  0  0  0  0  0  0  0  0  0  0  0  0  # atno 17343 bound_to 10162
  157.4130  130.7396  149.6854 LP  0  0  0  0  0  0  0  0  0  0  0  0  # atno 17370 bound_to 10713
  155.9753  130.4090  150.3857 LP  0  0  0  0  0  0  0  0  0  0  0  0  # atno 17371 bound_to 10713
  140.3575  134.2530  155.7191 LP  0  0  0  0  0  0  0  0  0  0  0  0  # atno 17394 bound_to 11000
  141.2025  133.7936  157.0388 LP  0  0  0  0  0  0  0  0  0  0  0  0  # atno 17395 bound_to 11000

$$$$
