AV-unprocessed.smi:2049|AV-procd|sdf|8323|dock4
  -GOLD-   2272010593D 1   1.00000     0.00000
 Structure written by MMmdl.
 50 52  0  0  0  0  0  0  0  0  1 V2000
  150.9530  140.1190  158.6939 O   0  0  0  0  0  0  0  0  0  0  0  0
  150.9514  141.0692  157.9111 C   0  0  0  0  0  0  0  0  0  0  0  0
  152.0683  142.1184  157.9646 C   0  0  0  0  0  0  0  0  0  0  0  0
  152.2460  142.6722  159.3160 N   0  0  0  0  0  0  0  0  0  0  0  0
  152.7887  141.8291  160.3002 C   0  0  0  0  0  0  0  0  0  0  0  0
  152.9851  142.2696  161.5511 C   0  0  0  0  0  0  0  0  0  0  0  0
  152.6041  143.6622  161.8205 C   0  0  0  0  0  0  0  0  0  0  0  0
  152.1126  144.4347  160.9248 N   0  0  0  0  0  0  0  0  0  0  0  0
  151.9099  143.9708  159.6112 C   0  0  0  0  0  0  0  0  0  0  0  0
  151.4421  144.7094  158.7436 O   0  0  0  0  0  0  0  0  0  0  0  0
  150.0075  141.2616  156.9785 N   0  0  0  0  0  0  0  0  0  0  0  0
  148.9050  140.3522  156.6687 C   0  0  0  0  0  0  0  0  0  0  0  0
  148.8537  139.9671  155.1505 C   0  0  0  0  0  0  0  0  0  0  0  0
  149.8835  138.9161  154.8612 N   0  0  0  0  0  0  0  0  0  0  0  0
  149.6740  137.6398  155.5604 C   0  0  0  0  0  0  0  0  0  0  0  0
  150.6681  136.5561  155.1121 C   0  0  0  0  0  0  0  0  0  0  0  0
  151.9969  137.0129  155.3229 O   0  0  0  0  0  0  0  0  0  0  0  0
  152.2699  138.2118  154.6100 C   0  0  0  0  0  0  0  0  0  0  0  0
  151.2876  139.3144  155.0422 C   0  0  0  0  0  0  0  0  0  0  0  0
  147.4114  139.4448  154.8295 C   0  0  0  0  0  0  0  0  0  0  0  0
  146.2917  140.4917  154.9843 C   0  0  0  0  0  0  0  0  0  0  0  0
  146.5788  141.7312  154.1285 C   0  0  0  0  0  0  0  0  0  0  0  0
  147.9611  142.3156  154.4465 C   0  0  0  0  0  0  0  0  0  0  0  0
  149.0751  141.2596  154.3027 C   0  0  0  0  0  0  0  0  0  0  0  0
  153.0086  141.6874  157.6148 H   0  0  0  0  0  0  0  0  0  0  0  0
  151.8285  142.9065  157.2497 H   0  0  0  0  0  0  0  0  0  0  0  0
  153.0338  140.8282  159.9759 H   0  0  0  0  0  0  0  0  0  0  0  0
  153.3994  141.6767  162.3529 H   0  0  0  0  0  0  0  0  0  0  0  0
  152.7685  144.0012  162.8464 H   0  0  0  0  0  0  0  0  0  0  0  0
  150.0962  142.0738  156.3854 H   0  0  0  0  0  0  0  0  0  0  0  0
  148.9537  139.4782  157.3152 H   0  0  0  0  0  0  0  0  0  0  0  0
  147.9806  140.8392  156.9766 H   0  0  0  0  0  0  0  0  0  0  0  0
  149.7732  137.7800  156.6368 H   0  0  0  0  0  0  0  0  0  0  0  0
  148.6738  137.2507  155.3834 H   0  0  0  0  0  0  0  0  0  0  0  0
  150.5124  135.6402  155.6821 H   0  0  0  0  0  0  0  0  0  0  0  0
  150.5205  136.3080  154.0599 H   0  0  0  0  0  0  0  0  0  0  0  0
  153.2959  138.5190  154.8131 H   0  0  0  0  0  0  0  0  0  0  0  0
  152.1971  138.0300  153.5365 H   0  0  0  0  0  0  0  0  0  0  0  0
  151.5316  140.1907  154.4478 H   0  0  0  0  0  0  0  0  0  0  0  0
  151.4813  139.5675  156.0842 H   0  0  0  0  0  0  0  0  0  0  0  0
  147.3416  139.1240  153.7928 H   0  0  0  0  0  0  0  0  0  0  0  0
  147.1773  138.5625  155.4254 H   0  0  0  0  0  0  0  0  0  0  0  0
  145.3422  140.0525  154.6770 H   0  0  0  0  0  0  0  0  0  0  0  0
  146.1566  140.7763  156.0265 H   0  0  0  0  0  0  0  0  0  0  0  0
  146.5314  141.4631  153.0723 H   0  0  0  0  0  0  0  0  0  0  0  0
  145.8075  142.4846  154.2911 H   0  0  0  0  0  0  0  0  0  0  0  0
  148.1642  143.1509  153.7757 H   0  0  0  0  0  0  0  0  0  0  0  0
  147.9629  142.7360  155.4518 H   0  0  0  0  0  0  0  0  0  0  0  0
  150.0245  141.7283  154.5615 H   0  0  0  0  0  0  0  0  0  0  0  0
  149.1460  141.0067  153.2455 H   0  0  0  0  0  0  0  0  0  0  0  0
  1  2  2  0  0  0  0
  2  3  1  0  0  0  0
  2 11  1  0  0  0  0
  3  4  1  0  0  0  0
  3 25  1  0  0  0  0
  3 26  1  0  0  0  0
  4  9  1  0  0  0  0
  4  5  1  0  0  0  0
  5  6  2  0  0  0  0
  5 27  1  0  0  0  0
  6  7  1  0  0  0  0
  6 28  1  0  0  0  0
  7  8  2  0  0  0  0
  7 29  1  0  0  0  0
  8  9  1  0  0  0  0
  9 10  2  0  0  0  0
 11 12  1  0  0  0  0
 11 30  1  0  0  0  0
 12 13  1  0  0  0  0
 12 31  1  0  0  0  0
 12 32  1  0  0  0  0
 13 24  1  0  0  0  0
 13 14  1  0  0  0  0
 13 20  1  0  0  0  0
 14 19  1  0  0  0  0
 14 15  1  0  0  0  0
 15 16  1  0  0  0  0
 15 33  1  0  0  0  0
 15 34  1  0  0  0  0
 16 17  1  0  0  0  0
 16 35  1  0  0  0  0
 16 36  1  0  0  0  0
 17 18  1  0  0  0  0
 18 19  1  0  0  0  0
 18 37  1  0  0  0  0
 18 38  1  0  0  0  0
 19 39  1  0  0  0  0
 19 40  1  0  0  0  0
 20 21  1  0  0  0  0
 20 41  1  0  0  0  0
 20 42  1  0  0  0  0
 21 22  1  0  0  0  0
 21 43  1  0  0  0  0
 21 44  1  0  0  0  0
 22 23  1  0  0  0  0
 22 45  1  0  0  0  0
 22 46  1  0  0  0  0
 23 24  1  0  0  0  0
 23 47  1  0  0  0  0
 23 48  1  0  0  0  0
 24 49  1  0  0  0  0
 24 50  1  0  0  0  0
M  END
> <s_m_source_file>
AV-unprocessed.smi

> <i_m_source_file_index>
2049

> <i_lp_mmshare_version>
43012

> <i_f3d_flags>
0

> <s_epik_input>
Tz1jMW5bY0hdW2NIXVtjSF1uMVtDSDJdQyg9TylbTkhdW0NIMl1DMihbQ0gyXVtDSDJdW0NIMl1bQ0gyXVtDSDJdMilOM1tDSDJdW0NIMl1PW0NIMl1bQ0gyXTM=

> <s_epik_cmdline>
J2VwaWtfcHl0aG9uJywgJy1waCcsICc3LjAnLCAnLXRuJywgJzgnLCAnLW1hJywgJzIwMCcsICctbWV0YWxfYmluZGluZycsICctaW1hZScsICc8aW5maWxlLm1hZT4nLCAnLW9tYWUnLCAnPG91dGZpbGUubWFlPic=

> <r_lp_tautomer_probability>
1

> <r_epik_Ionization_Penalty>
0.421133

> <r_epik_Ionization_Penalty_Charging>
1.67008e-08

> <r_epik_Ionization_Penalty_Neutral>
0.421133

> <r_epik_State_Penalty>
0.421833

> <r_epik_Charging_Adjusted_Penalty>
0.421833

> <i_epik_Tot_Q>
0

> <i_epik_Tot_abs_Q>
0

> <r_epik_Metal_State_Penalty>
0.421832

> <b_epik_Metal_Only>
0

> <s_lp_Force_Field>
OPLS_2005

> <r_lp_Energy>
55.5371

> <b_lp_Chiralities_Consistent>
1

> <s_lp_Variant>
AV-unprocessed.smi:2049-2

> <Gold.Version>
5.8.1

> <Gold.Id.Protein>
6NUR|6NUR_protein|mol2

> <Gold.PLP.Fitness>
45.3221

> <Gold.PLP.PLP>
-43.0948

> <Gold.PLP.part.hbond>
-1.0000

> <Gold.PLP.part.metal>
0.0000

> <Gold.PLP.part.buried>
-4.9668

> <Gold.PLP.part.nonpolar>
-37.5821

> <Gold.PLP.part.repulsive>
0.4712

> <Gold.PLP.ligand.clash>
0.0000

> <Gold.PLP.ligand.torsion>
0.4153

> <Gold.PLP.Chemscore.Hbond>
0.9920

> <Gold.PLP.Chemscore.CHOScore>
0.0000

> <Gold.PLP.Chemscore.Metal>
0.0000

> <Gold.Chemscore.Hbonds>
donor molecule, donor type, donor heavy atom, donor atom, acceptor molecule, acceptor atom, score
      P1  H 10752 10763       L1    17  0.98

> <Gold.PLP.Chemscore.Internal.Correction>
0.0820

> <Gold.Rescore>
     Score         DG    S(hbond)    S(metal)    S(lipo)     H(rot)  DE(clash)    DE(int)     intcor
     12.14     -12.89       0.02        0.00     105.64       1.95       0.05       0.70       ----

> <Gold.Chemscore.Fitness>
12.1445

> <Gold.Chemscore.DG>
-12.8909

> <Gold.Chemscore.ZeroCoef>
-5.4800

> <Gold.Chemscore.Hbond>
0.0151

> <Gold.Chemscore.Metal>
0.0000

> <Gold.Chemscore.Lipo>
105.6450

> <Gold.Chemscore.Internal_Hbond>
0.0000

> <Gold.Chemscore.DEClash>
0.0503

> <Gold.Chemscore.DEInternal>
0.6960

> <Gold.Chemscore.Rot>
1.9531

> <Gold.Chemscore.Internal.Correction>
   9.000000E+99

> <Gold.Chemscore.Hbonds>
donor molecule, donor type, donor heavy atom, donor atom, acceptor molecule, acceptor atom, score
      P1  H 10752 10763       L1    17  0.23

> <Gold.Chemscore.Hbond.Weighted>
-0.0504

> <Gold.Chemscore.Metal.Weighted>
-0.0000

> <Gold.Chemscore.Lipo.Weighted>
-12.3605

> <Gold.Chemscore.Internal_Hbond.Weighted>
0.0000

> <Gold.Chemscore.DEClash.Weighted>
0.0503

> <Gold.Chemscore.DEInternal.Weighted>
0.6960

> <Gold.Chemscore.Rot.Weighted>
5.0000

> <Gold.Chemscore.Internal.Correction.Weighted>
   9.000000E+99

> <Gold.Protein.RotatedTorsions>
[ 6907 6896 6895 6894 ] final  -46.49 input  -60.11 | X-H torsion
[ 7974 7965 7964 7962 ] final  -65.08 input  175.53 | X-H torsion
[ 8008 7997 7996 7995 ] final  -55.30 input   59.86 | X-H torsion
[ 10167 10162 10161 10158 ] final  116.22 input  -65.29 | X-H torsion
[ 10718 10713 10712 10709 ] final -127.21 input   66.30 | X-H torsion
[ 10763 10752 10751 10750 ] final   65.18 input  -60.55 | X-H torsion
[ 11005 11000 10999 10996 ] final  -40.37 input  -57.11 | X-H torsion

> <Gold.Protein.ActiveResidues>
 VAL166  LYS551  ARG553  GLY616  TRP617  ASP618  TYR619  PRO620  LYS621  CYS622 
 ASP623  PHE694  ASN695  SER759  ASP760  ASP761  ALA762  ILE779  LEU786  VAL792 
 PHE793  MET794  SER795  GLU796  ALA797  LYS798  CYS799  TRP800  GLU811  SER814 

> <Gold.Protein.RotatedAtoms>
  150.9107  134.8524  159.7423 H   0  0  0  0  0  0  0  0  0  0  0  0  # atno 6907 bound_to 6896
  152.4943  134.4363  159.9539 H   0  0  0  0  0  0  0  0  0  0  0  0  # atno 6908 bound_to 6896
  151.4406  133.3605  159.2816 H   0  0  0  0  0  0  0  0  0  0  0  0  # atno 6909 bound_to 6896
  145.7588  140.8872  143.0441 H   0  0  0  0  0  0  0  0  0  0  0  0  # atno 7974 bound_to 7965
  154.4190  140.1156  156.5455 H   0  0  0  0  0  0  0  0  0  0  0  0  # atno 8008 bound_to 7997
  155.6464  140.3496  155.4713 H   0  0  0  0  0  0  0  0  0  0  0  0  # atno 8009 bound_to 7997
  155.9829  140.1164  157.0700 H   0  0  0  0  0  0  0  0  0  0  0  0  # atno 8010 bound_to 7997
  139.6262  144.7108  151.2529 H   0  0  0  0  0  0  0  0  0  0  0  0  # atno 10167 bound_to 10162
  156.1836  130.6749  151.0336 H   0  0  0  0  0  0  0  0  0  0  0  0  # atno 10718 bound_to 10713
  153.0086  135.5366  154.6627 H   0  0  0  0  0  0  0  0  0  0  0  0  # atno 10763 bound_to 10752
  154.5832  135.2852  155.0714 H   0  0  0  0  0  0  0  0  0  0  0  0  # atno 10764 bound_to 10752
  154.1835  135.6512  153.5093 H   0  0  0  0  0  0  0  0  0  0  0  0  # atno 10765 bound_to 10752
  141.0170  133.6881  156.2312 H   0  0  0  0  0  0  0  0  0  0  0  0  # atno 11005 bound_to 11000
  144.6835  139.9693  143.7482 LP  0  0  0  0  0  0  0  0  0  0  0  0  # atno 17320 bound_to 7965
  146.0285  139.3313  143.0770 LP  0  0  0  0  0  0  0  0  0  0  0  0  # atno 17321 bound_to 7965
  140.7412  143.6564  150.8203 LP  0  0  0  0  0  0  0  0  0  0  0  0  # atno 17342 bound_to 10162
  140.0182  143.5570  152.2811 LP  0  0  0  0  0  0  0  0  0  0  0  0  # atno 17343 bound_to 10162
  157.6884  131.0817  150.7177 LP  0  0  0  0  0  0  0  0  0  0  0  0  # atno 17370 bound_to 10713
  156.7233  130.4687  149.5517 LP  0  0  0  0  0  0  0  0  0  0  0  0  # atno 17371 bound_to 10713
  140.6638  134.4939  157.5584 LP  0  0  0  0  0  0  0  0  0  0  0  0  # atno 17394 bound_to 11000
  139.9123  134.8319  156.1486 LP  0  0  0  0  0  0  0  0  0  0  0  0  # atno 17395 bound_to 11000

$$$$
