AV-unprocessed.smi:670|AV-procd|sdf|3265|dock10
  -GOLD-   22720 0213D 1   1.00000     0.00000
 Structure written by MMmdl.
 44 45  0  0  0  0  0  0  0  0  2 V2000
  150.2550  141.8261  156.7660 C   0  0  0  0  0  0  0  0  0  0  0  0
  150.6167  142.4649  158.1170 C   0  0  2  0  0  0  0  0  0  0  0  0
  151.1774  143.8868  157.9129 C   0  0  0  0  0  0  0  0  0  0  0  0
  151.5512  144.5493  159.2473 C   0  0  0  0  0  0  0  0  0  0  0  0
  152.5478  143.6844  160.0314 C   0  0  0  0  0  0  0  0  0  0  0  0
  151.9955  142.2682  160.2493 C   0  0  0  0  0  0  0  0  0  0  0  0
  151.6136  141.5933  158.9143 C   0  0  1  0  0  0  0  0  0  0  0  0
  150.9859  140.3454  159.1804 O   0  0  0  0  0  0  0  0  0  0  0  0
  151.7994  139.2091  158.9267 C   0  0  0  0  0  0  0  0  0  0  0  0
  151.0585  138.2749  157.9645 C   0  0  0  0  0  0  0  0  0  0  0  0
  149.6993  138.0386  158.4299 N   0  0  0  0  0  0  0  0  0  0  0  0
  149.1456  136.8277  158.5825 C   0  0  0  0  0  0  0  0  0  0  0  0
  149.7471  135.7799  158.3402 O   0  0  0  0  0  0  0  0  0  0  0  0
  147.6886  136.8213  159.0726 C   0  0  0  0  0  0  0  0  0  0  0  0
  147.4788  136.1033  160.3385 N   0  0  0  0  0  0  0  0  0  0  0  0
  147.5368  136.9608  161.5191 N   0  5  0  0  0  0  0  0  0  0  0  0
  147.3529  136.4096  162.7481 C   0  0  0  0  0  0  0  0  0  0  0  0
  147.3784  137.0693  163.7848 O   0  0  0  0  0  0  0  0  0  0  0  0
  147.1212  134.9769  162.8277 C   0  0  0  0  0  0  0  0  0  0  0  0
  147.0925  134.2061  161.7226 C   0  0  0  0  0  0  0  0  0  0  0  0
  147.2865  134.7537  160.3854 C   0  0  0  0  0  0  0  0  0  0  0  0
  147.2764  134.0534  159.3727 O   0  0  0  0  0  0  0  0  0  0  0  0
  151.1362  141.7098  156.1341 H   0  0  0  0  0  0  0  0  0  0  0  0
  149.5349  142.4389  156.2234 H   0  0  0  0  0  0  0  0  0  0  0  0
  149.8084  140.8405  156.8989 H   0  0  0  0  0  0  0  0  0  0  0  0
  149.6982  142.5483  158.7002 H   0  0  0  0  0  0  0  0  0  0  0  0
  152.0580  143.8467  157.2701 H   0  0  0  0  0  0  0  0  0  0  0  0
  150.4451  144.5056  157.3930 H   0  0  0  0  0  0  0  0  0  0  0  0
  151.9777  145.5363  159.0661 H   0  0  0  0  0  0  0  0  0  0  0  0
  150.6514  144.7051  159.8436 H   0  0  0  0  0  0  0  0  0  0  0  0
  153.4930  143.6298  159.4895 H   0  0  0  0  0  0  0  0  0  0  0  0
  152.7677  144.1499  160.9925 H   0  0  0  0  0  0  0  0  0  0  0  0
  152.7361  141.6734  160.7833 H   0  0  0  0  0  0  0  0  0  0  0  0
  151.1183  142.3183  160.8956 H   0  0  0  0  0  0  0  0  0  0  0  0
  152.5085  141.4460  158.3061 H   0  0  0  0  0  0  0  0  0  0  0  0
  152.7400  139.5288  158.4764 H   0  0  0  0  0  0  0  0  0  0  0  0
  152.0425  138.6798  159.8484 H   0  0  0  0  0  0  0  0  0  0  0  0
  151.0381  138.7041  156.9617 H   0  0  0  0  0  0  0  0  0  0  0  0
  151.5856  137.3219  157.8981 H   0  0  0  0  0  0  0  0  0  0  0  0
  149.1368  138.8509  158.6378 H   0  0  0  0  0  0  0  0  0  0  0  0
  147.3452  137.8515  159.1806 H   0  0  0  0  0  0  0  0  0  0  0  0
  147.0707  136.3895  158.2832 H   0  0  0  0  0  0  0  0  0  0  0  0
  146.9710  134.5202  163.7949 H   0  0  0  0  0  0  0  0  0  0  0  0
  146.9193  133.1456  161.8289 H   0  0  0  0  0  0  0  0  0  0  0  0
  1  2  1  0  0  0  0
  1 23  1  0  0  0  0
  1 24  1  0  0  0  0
  1 25  1  0  0  0  0
  2  7  1  0  0  0  0
  2  3  1  0  0  0  0
  2 26  1  0  0  0  0
  3  4  1  0  0  0  0
  3 27  1  0  0  0  0
  3 28  1  0  0  0  0
  4  5  1  0  0  0  0
  4 29  1  0  0  0  0
  4 30  1  0  0  0  0
  5  6  1  0  0  0  0
  5 31  1  0  0  0  0
  5 32  1  0  0  0  0
  6  7  1  0  0  0  0
  6 33  1  0  0  0  0
  6 34  1  0  0  0  0
  7  8  1  0  0  0  0
  7 35  1  0  0  0  0
  8  9  1  0  0  0  0
  9 10  1  0  0  0  0
  9 36  1  0  0  0  0
  9 37  1  0  0  0  0
 10 11  1  0  0  0  0
 10 38  1  0  0  0  0
 10 39  1  0  0  0  0
 11 12  1  0  0  0  0
 11 40  1  0  0  0  0
 12 13  2  0  0  0  0
 12 14  1  0  0  0  0
 14 41  1  0  0  0  0
 14 42  1  0  0  0  0
 14 15  1  0  0  0  0
 15 16  1  0  0  0  0
 15 21  1  0  0  0  0
 16 17  1  0  0  0  0
 17 18  2  0  0  0  0
 17 19  1  0  0  0  0
 19 43  1  0  0  0  0
 19 20  2  0  0  0  0
 20 44  1  0  0  0  0
 20 21  1  0  0  0  0
 21 22  2  0  0  0  0
M  CHG  1  16  -1
M  END
> <s_m_source_file>
AV-unprocessed.smi

> <i_m_source_file_index>
670

> <i_lp_mmshare_version>
43012

> <i_f3d_flags>
0

> <s_epik_input>
W0NIM11bQ0BASF0xW0NIMl1bQ0gyXVtDSDJdW0NIMl1bQ0BIXTFPW0NIMl1bQ0gyXVtOSF1DKD1PKVtDSDJdbjJbbkhdYyg9TylbY0hdW2NIXWMyPU8=

> <s_epik_cmdline>
J2VwaWtfcHl0aG9uJywgJy1waCcsICc3LjAnLCAnLXRuJywgJzgnLCAnLW1hJywgJzIwMCcsICctbWV0YWxfYmluZGluZycsICctaW1hZScsICc8aW5maWxlLm1hZT4nLCAnLW9tYWUnLCAnPG91dGZpbGUubWFlPic=

> <r_lp_tautomer_probability>
1

> <r_epik_Ionization_Penalty>
0.0975638

> <r_epik_Ionization_Penalty_Charging>
0.0975637

> <r_epik_Ionization_Penalty_Neutral>
2.78599e-08

> <r_epik_State_Penalty>
0.0343507

> <r_epik_Charging_Adjusted_Penalty>
0.131914

> <i_epik_Tot_Q>
-1

> <i_epik_Tot_abs_Q>
1

> <r_epik_Metal_State_Penalty>
0.0343507

> <b_epik_Metal_Only>
0

> <s_lp_Force_Field>
OPLS_2005

> <r_lp_Energy>
26.6339

> <b_lp_Chiralities_Consistent>
1

> <s_lp_Variant>
AV-unprocessed.smi:670-1

> <Gold.Version>
5.8.1

> <Gold.Id.Protein>
6NUR|6NUR_protein|mol2

> <Gold.PLP.Fitness>
57.1784

> <Gold.PLP.PLP>
-47.1663

> <Gold.PLP.part.hbond>
-4.1849

> <Gold.PLP.part.metal>
0.0000

> <Gold.PLP.part.buried>
-4.0278

> <Gold.PLP.part.nonpolar>
-39.7469

> <Gold.PLP.part.repulsive>
0.2044

> <Gold.PLP.ligand.clash>
0.0000

> <Gold.PLP.ligand.torsion>
1.4343

> <Gold.PLP.Chemscore.Hbond>
4.2762

> <Gold.PLP.Chemscore.CHOScore>
0.0000

> <Gold.PLP.Chemscore.Metal>
0.0000

> <Gold.Chemscore.Hbonds>
donor molecule, donor type, donor heavy atom, donor atom, acceptor molecule, acceptor atom, score
      P1  H  6896  6909       L1    13  1.00
      P1  H  6931  6943       L1    16  2.00
      P1  H  6934  6947       L1    16  1.14

> <Gold.PLP.Chemscore.Internal.Correction>
0.0521

> <Gold.Rescore>
     Score         DG    S(hbond)    S(metal)    S(lipo)     H(rot)  DE(clash)    DE(int)     intcor
     14.95     -16.69       1.72        0.00     100.21       2.45       0.16       1.59       ----

> <Gold.Chemscore.Fitness>
14.9480

> <Gold.Chemscore.DG>
-16.6928

> <Gold.Chemscore.ZeroCoef>
-5.4800

> <Gold.Chemscore.Hbond>
1.7239

> <Gold.Chemscore.Metal>
0.0000

> <Gold.Chemscore.Lipo>
100.2081

> <Gold.Chemscore.Internal_Hbond>
0.0000

> <Gold.Chemscore.DEClash>
0.1576

> <Gold.Chemscore.DEInternal>
1.5872

> <Gold.Chemscore.Rot>
2.4490

> <Gold.Chemscore.Internal.Correction>
   9.000000E+99

> <Gold.Chemscore.Hbonds>
donor molecule, donor type, donor heavy atom, donor atom, acceptor molecule, acceptor atom, score
      P1  H  6896  6909       L1    13  0.94
      P1  H  6931  6943       L1    16  0.28
      P1  H  6934  6947       L1    16  0.42

> <Gold.Chemscore.Hbond.Weighted>
-5.7579

> <Gold.Chemscore.Metal.Weighted>
-0.0000

> <Gold.Chemscore.Lipo.Weighted>
-11.7243

> <Gold.Chemscore.Internal_Hbond.Weighted>
0.0000

> <Gold.Chemscore.DEClash.Weighted>
0.1576

> <Gold.Chemscore.DEInternal.Weighted>
1.5872

> <Gold.Chemscore.Rot.Weighted>
6.2694

> <Gold.Chemscore.Internal.Correction.Weighted>
   9.000000E+99

> <Gold.Protein.RotatedTorsions>
[ 6907 6896 6895 6894 ] final   43.94 input  -60.11 | X-H torsion
[ 7974 7965 7964 7962 ] final   38.61 input  175.53 | X-H torsion
[ 8008 7997 7996 7995 ] final  -13.31 input   59.86 | X-H torsion
[ 10167 10162 10161 10158 ] final  155.49 input  -65.29 | X-H torsion
[ 10718 10713 10712 10709 ] final  111.30 input   66.30 | X-H torsion
[ 10763 10752 10751 10750 ] final  -88.91 input  -60.55 | X-H torsion
[ 11005 11000 10999 10996 ] final    4.30 input  -57.11 | X-H torsion

> <Gold.Protein.ActiveResidues>
 VAL166  LYS551  ARG553  GLY616  TRP617  ASP618  TYR619  PRO620  LYS621  CYS622 
 ASP623  PHE694  ASN695  SER759  ASP760  ASP761  ALA762  ILE779  LEU786  VAL792 
 PHE793  MET794  SER795  GLU796  ALA797  LYS798  CYS799  TRP800  GLU811  SER814 

> <Gold.Protein.RotatedAtoms>
  152.2264  134.8364  160.0479 H   0  0  0  0  0  0  0  0  0  0  0  0  # atno 6907 bound_to 6896
  151.9129  133.3560  159.3878 H   0  0  0  0  0  0  0  0  0  0  0  0  # atno 6908 bound_to 6896
  150.7013  134.4639  159.5438 H   0  0  0  0  0  0  0  0  0  0  0  0  # atno 6909 bound_to 6896
  146.1048  139.5751  142.9390 H   0  0  0  0  0  0  0  0  0  0  0  0  # atno 7974 bound_to 7965
  154.5303  140.2253  155.8817 H   0  0  0  0  0  0  0  0  0  0  0  0  # atno 8008 bound_to 7997
  156.1756  140.3112  155.9017 H   0  0  0  0  0  0  0  0  0  0  0  0  # atno 8009 bound_to 7997
  155.3466  140.0453  157.3036 H   0  0  0  0  0  0  0  0  0  0  0  0  # atno 8010 bound_to 7997
  139.4821  144.5093  151.8049 H   0  0  0  0  0  0  0  0  0  0  0  0  # atno 10167 bound_to 10162
  157.6451  131.0948  150.6729 H   0  0  0  0  0  0  0  0  0  0  0  0  # atno 10718 bound_to 10713
  154.6497  135.5360  153.7886 H   0  0  0  0  0  0  0  0  0  0  0  0  # atno 10763 bound_to 10752
  153.0379  135.6479  154.1036 H   0  0  0  0  0  0  0  0  0  0  0  0  # atno 10764 bound_to 10752
  154.0954  135.2937  155.3243 H   0  0  0  0  0  0  0  0  0  0  0  0  # atno 10765 bound_to 10752
  140.5834  133.9991  155.8057 H   0  0  0  0  0  0  0  0  0  0  0  0  # atno 11005 bound_to 11000
  145.5782  141.0386  143.2137 LP  0  0  0  0  0  0  0  0  0  0  0  0  # atno 17320 bound_to 7965
  144.7462  139.7314  143.7291 LP  0  0  0  0  0  0  0  0  0  0  0  0  # atno 17321 bound_to 7965
  140.4595  144.1742  150.5905 LP  0  0  0  0  0  0  0  0  0  0  0  0  # atno 17342 bound_to 10162
  140.4500  143.2491  151.9360 LP  0  0  0  0  0  0  0  0  0  0  0  0  # atno 17343 bound_to 10162
  156.7047  130.4634  149.5563 LP  0  0  0  0  0  0  0  0  0  0  0  0  # atno 17370 bound_to 10713
  156.1771  130.6475  151.0907 LP  0  0  0  0  0  0  0  0  0  0  0  0  # atno 17371 bound_to 10713
  141.0981  133.9811  157.3125 LP  0  0  0  0  0  0  0  0  0  0  0  0  # atno 17394 bound_to 11000
  139.9307  135.0200  156.8389 LP  0  0  0  0  0  0  0  0  0  0  0  0  # atno 17395 bound_to 11000

$$$$
