AV-unprocessed.smi:2959|AV-procd|sdf|11309|dock6
  -GOLD-   2272016203D 1   1.00000     0.00000
 Structure written by MMmdl.
 45 47  0  0  0  0  0  0  0  0  1 V2000
  150.8221  137.4311  154.1044 C   0  0  0  0  0  0  0  0  0  0  0  0
  150.9039  135.9270  154.3456 C   0  0  0  0  0  0  0  0  0  0  0  0
  151.7285  135.4756  155.1393 O   0  0  0  0  0  0  0  0  0  0  0  0
  150.0422  135.1630  153.6605 N   0  0  0  0  0  0  0  0  0  0  0  0
  149.9669  133.7098  153.7495 C   0  0  0  0  0  0  0  0  0  0  0  0
  148.6048  133.2353  154.2911 C   0  0  0  0  0  0  0  0  0  0  0  0
  147.5372  133.1318  153.2361 C   0  0  0  0  0  0  0  0  0  0  0  0
  146.9199  134.2223  152.7776 N   0  0  0  0  0  0  0  0  0  0  0  0
  146.0271  133.7094  151.8595 C   0  0  0  0  0  0  0  0  0  0  0  0
  145.0704  134.3589  151.0471 C   0  0  0  0  0  0  0  0  0  0  0  0
  144.2567  133.6142  150.1686 C   0  0  0  0  0  0  0  0  0  0  0  0
  144.3890  132.2127  150.0891 C   0  0  0  0  0  0  0  0  0  0  0  0
  145.3377  131.5470  150.8888 C   0  0  0  0  0  0  0  0  0  0  0  0
  146.1469  132.2948  151.7659 C   0  0  0  0  0  0  0  0  0  0  0  0
  147.1572  131.9582  152.6630 N   0  0  0  0  0  0  0  0  0  0  0  0
  147.6652  130.6096  152.8829 C   0  0  0  0  0  0  0  0  0  0  0  0
  146.5756  129.5347  152.7617 C   0  0  0  0  0  0  0  0  0  0  0  0
  147.0888  128.2818  153.1900 O   0  0  0  0  0  0  0  0  0  0  0  0
  147.7144  127.4800  152.2599 C   0  0  0  0  0  0  0  0  0  0  0  0
  148.2138  126.2419  152.7147 C   0  0  0  0  0  0  0  0  0  0  0  0
  148.8546  125.3535  151.8305 C   0  0  0  0  0  0  0  0  0  0  0  0
  149.0050  125.6980  150.4749 C   0  0  0  0  0  0  0  0  0  0  0  0
  148.5146  126.9315  150.0076 C   0  0  0  0  0  0  0  0  0  0  0  0
  147.8726  127.8198  150.8926 C   0  0  0  0  0  0  0  0  0  0  0  0
  151.8124  137.8340  153.8913 H   0  0  0  0  0  0  0  0  0  0  0  0
  150.4305  137.9324  154.9896 H   0  0  0  0  0  0  0  0  0  0  0  0
  150.1700  137.6663  153.2622 H   0  0  0  0  0  0  0  0  0  0  0  0
  149.3940  135.6185  153.0339 H   0  0  0  0  0  0  0  0  0  0  0  0
  150.1262  133.2919  152.7541 H   0  0  0  0  0  0  0  0  0  0  0  0
  150.7726  133.3361  154.3827 H   0  0  0  0  0  0  0  0  0  0  0  0
  148.7192  132.2582  154.7613 H   0  0  0  0  0  0  0  0  0  0  0  0
  148.2945  133.9123  155.0840 H   0  0  0  0  0  0  0  0  0  0  0  0
  144.9626  135.4321  151.1005 H   0  0  0  0  0  0  0  0  0  0  0  0
  143.5284  134.1208  149.5523 H   0  0  0  0  0  0  0  0  0  0  0  0
  143.7628  131.6492  149.4130 H   0  0  0  0  0  0  0  0  0  0  0  0
  145.4406  130.4738  150.8285 H   0  0  0  0  0  0  0  0  0  0  0  0
  148.4369  130.4186  152.1366 H   0  0  0  0  0  0  0  0  0  0  0  0
  148.1733  130.5526  153.8450 H   0  0  0  0  0  0  0  0  0  0  0  0
  145.7061  129.8216  153.3554 H   0  0  0  0  0  0  0  0  0  0  0  0
  146.2609  129.4615  151.7195 H   0  0  0  0  0  0  0  0  0  0  0  0
  148.0998  125.9678  153.7533 H   0  0  0  0  0  0  0  0  0  0  0  0
  149.2289  124.4074  152.1932 H   0  0  0  0  0  0  0  0  0  0  0  0
  149.4955  125.0174  149.7945 H   0  0  0  0  0  0  0  0  0  0  0  0
  148.6293  127.1971  148.9670 H   0  0  0  0  0  0  0  0  0  0  0  0
  147.5057  128.7541  150.4960 H   0  0  0  0  0  0  0  0  0  0  0  0
  1  2  1  0  0  0  0
  1 25  1  0  0  0  0
  1 26  1  0  0  0  0
  1 27  1  0  0  0  0
  2  3  2  0  0  0  0
  2  4  1  0  0  0  0
  4  5  1  0  0  0  0
  4 28  1  0  0  0  0
  5  6  1  0  0  0  0
  5 29  1  0  0  0  0
  5 30  1  0  0  0  0
  6  7  1  0  0  0  0
  6 31  1  0  0  0  0
  6 32  1  0  0  0  0
  7 15  1  0  0  0  0
  7  8  2  0  0  0  0
  8  9  1  0  0  0  0
  9 14  2  0  0  0  0
  9 10  1  0  0  0  0
 10 11  2  0  0  0  0
 10 33  1  0  0  0  0
 11 12  1  0  0  0  0
 11 34  1  0  0  0  0
 12 13  2  0  0  0  0
 12 35  1  0  0  0  0
 13 14  1  0  0  0  0
 13 36  1  0  0  0  0
 14 15  1  0  0  0  0
 15 16  1  0  0  0  0
 16 17  1  0  0  0  0
 16 37  1  0  0  0  0
 16 38  1  0  0  0  0
 17 18  1  0  0  0  0
 17 39  1  0  0  0  0
 17 40  1  0  0  0  0
 18 19  1  0  0  0  0
 19 24  1  0  0  0  0
 19 20  2  0  0  0  0
 20 21  1  0  0  0  0
 20 41  1  0  0  0  0
 21 22  2  0  0  0  0
 21 42  1  0  0  0  0
 22 23  1  0  0  0  0
 22 43  1  0  0  0  0
 23 24  2  0  0  0  0
 23 44  1  0  0  0  0
 24 45  1  0  0  0  0
M  END
> <s_m_source_file>
AV-unprocessed.smi

> <i_m_source_file_index>
2959

> <i_lp_mmshare_version>
43012

> <i_f3d_flags>
0

> <s_epik_input>
W0NIM11DKD1PKVtOSF1bQ0gyXVtDSDJdYyhuMSluKGMoYzEyKVtjSF1bY0hdW2NIXVtjSF0yKVtDSDJdW0NIMl1PYzNbY0hdW2NIXVtjSF1bY0hdW2NIXTM=

> <s_epik_cmdline>
J2VwaWtfcHl0aG9uJywgJy1waCcsICc3LjAnLCAnLXRuJywgJzgnLCAnLW1hJywgJzIwMCcsICctbWV0YWxfYmluZGluZycsICctaW1hZScsICc8aW5maWxlLm1hZT4nLCAnLW9tYWUnLCAnPG91dGZpbGUubWFlPic=

> <r_lp_tautomer_probability>
1

> <r_epik_Ionization_Penalty>
0.11099

> <r_epik_Ionization_Penalty_Charging>
0

> <r_epik_Ionization_Penalty_Neutral>
0.11099

> <r_epik_State_Penalty>
0.100724

> <r_epik_Charging_Adjusted_Penalty>
0.100724

> <i_epik_Tot_Q>
0

> <i_epik_Tot_abs_Q>
0

> <r_epik_Metal_State_Penalty>
0.0847

> <b_epik_Metal_Only>
0

> <s_lp_Force_Field>
OPLS_2005

> <r_lp_Energy>
14.3457

> <b_lp_Chiralities_Consistent>
1

> <s_lp_Variant>
AV-unprocessed.smi:2959-1

> <Gold.Version>
5.8.1

> <Gold.Id.Protein>
6NUR|6NUR_protein|mol2

> <Gold.PLP.Fitness>
50.0185

> <Gold.PLP.PLP>
-45.8581

> <Gold.PLP.part.hbond>
-3.0000

> <Gold.PLP.part.metal>
0.0000

> <Gold.PLP.part.buried>
-4.5547

> <Gold.PLP.part.nonpolar>
-38.6170

> <Gold.PLP.part.repulsive>
1.0404

> <Gold.PLP.ligand.clash>
0.0000

> <Gold.PLP.ligand.torsion>
0.9351

> <Gold.PLP.Chemscore.Hbond>
2.0000

> <Gold.PLP.Chemscore.CHOScore>
0.0000

> <Gold.PLP.Chemscore.Metal>
0.0000

> <Gold.Chemscore.Hbonds>
donor molecule, donor type, donor heavy atom, donor atom, acceptor molecule, acceptor atom, score
      L1  H     4    28       P1  7948  0.39
      P1  H 10752 10763       L1     3  0.50

> <Gold.PLP.Chemscore.Internal.Correction>
0.0306

> <Gold.Rescore>
     Score         DG    S(hbond)    S(metal)    S(lipo)     H(rot)  DE(clash)    DE(int)     intcor
     15.43     -17.46       1.45        0.00     107.73       2.14       0.38       1.65       ----

> <Gold.Chemscore.Fitness>
15.4307

> <Gold.Chemscore.DG>
-17.4577

> <Gold.Chemscore.ZeroCoef>
-5.4800

> <Gold.Chemscore.Hbond>
1.4491

> <Gold.Chemscore.Metal>
0.0000

> <Gold.Chemscore.Lipo>
107.7340

> <Gold.Chemscore.Internal_Hbond>
0.0000

> <Gold.Chemscore.DEClash>
0.3766

> <Gold.Chemscore.DEInternal>
1.6504

> <Gold.Chemscore.Rot>
2.1356

> <Gold.Chemscore.Internal.Correction>
   9.000000E+99

> <Gold.Chemscore.Hbonds>
donor molecule, donor type, donor heavy atom, donor atom, acceptor molecule, acceptor atom, score
      L1  H     4    28       P1  7948  0.04
      P1  H 10752 10763       L1     3  0.49

> <Gold.Chemscore.Hbond.Weighted>
-4.8400

> <Gold.Chemscore.Metal.Weighted>
-0.0000

> <Gold.Chemscore.Lipo.Weighted>
-12.6049

> <Gold.Chemscore.Internal_Hbond.Weighted>
0.0000

> <Gold.Chemscore.DEClash.Weighted>
0.3766

> <Gold.Chemscore.DEInternal.Weighted>
1.6504

> <Gold.Chemscore.Rot.Weighted>
5.4671

> <Gold.Chemscore.Internal.Correction.Weighted>
   9.000000E+99

> <Gold.Protein.RotatedTorsions>
[ 6907 6896 6895 6894 ] final   98.18 input  -60.11 | X-H torsion
[ 7974 7965 7964 7962 ] final  113.27 input  175.53 | X-H torsion
[ 8008 7997 7996 7995 ] final   75.40 input   59.86 | X-H torsion
[ 10167 10162 10161 10158 ] final -133.53 input  -65.29 | X-H torsion
[ 10718 10713 10712 10709 ] final  145.61 input   66.30 | X-H torsion
[ 10763 10752 10751 10750 ] final   84.32 input  -60.55 | X-H torsion
[ 11005 11000 10999 10996 ] final -168.52 input  -57.11 | X-H torsion

> <Gold.Protein.ActiveResidues>
 VAL166  LYS551  ARG553  GLY616  TRP617  ASP618  TYR619  PRO620  LYS621  CYS622 
 ASP623  PHE694  ASN695  SER759  ASP760  ASP761  ALA762  ILE779  LEU786  VAL792 
 PHE793  MET794  SER795  GLU796  ALA797  LYS798  CYS799  TRP800  GLU811  SER814 

> <Gold.Protein.RotatedAtoms>
  152.5413  134.0619  159.8155 H   0  0  0  0  0  0  0  0  0  0  0  0  # atno 6907 bound_to 6896
  151.0746  133.5431  159.2632 H   0  0  0  0  0  0  0  0  0  0  0  0  # atno 6908 bound_to 6896
  151.2281  135.0552  159.9031 H   0  0  0  0  0  0  0  0  0  0  0  0  # atno 6909 bound_to 6896
  145.2191  139.2870  143.4228 H   0  0  0  0  0  0  0  0  0  0  0  0  # atno 7974 bound_to 7965
  155.8124  140.3472  155.5465 H   0  0  0  0  0  0  0  0  0  0  0  0  # atno 8008 bound_to 7997
  155.8427  140.0944  157.1744 H   0  0  0  0  0  0  0  0  0  0  0  0  # atno 8009 bound_to 7997
  154.4005  140.1391  156.3736 H   0  0  0  0  0  0  0  0  0  0  0  0  # atno 8010 bound_to 7997
  139.8973  143.6650  152.2601 H   0  0  0  0  0  0  0  0  0  0  0  0  # atno 10167 bound_to 10162
  157.3432  131.0939  151.1064 H   0  0  0  0  0  0  0  0  0  0  0  0  # atno 10718 bound_to 10713
  153.1371  135.4658  154.9439 H   0  0  0  0  0  0  0  0  0  0  0  0  # atno 10763 bound_to 10752
  154.7715  135.3160  154.8182 H   0  0  0  0  0  0  0  0  0  0  0  0  # atno 10764 bound_to 10752
  153.8712  135.6903  153.4828 H   0  0  0  0  0  0  0  0  0  0  0  0  # atno 10765 bound_to 10752
  140.5411  134.5522  157.5100 H   0  0  0  0  0  0  0  0  0  0  0  0  # atno 11005 bound_to 11000
  146.3380  140.2491  142.8598 LP  0  0  0  0  0  0  0  0  0  0  0  0  # atno 17320 bound_to 7965
  144.9783  140.8435  143.5413 LP  0  0  0  0  0  0  0  0  0  0  0  0  # atno 17321 bound_to 7965
  139.7056  144.7628  151.1198 LP  0  0  0  0  0  0  0  0  0  0  0  0  # atno 17342 bound_to 10162
  140.7714  143.5398  150.9325 LP  0  0  0  0  0  0  0  0  0  0  0  0  # atno 17343 bound_to 10162
  157.2268  130.6507  149.5833 LP  0  0  0  0  0  0  0  0  0  0  0  0  # atno 17370 bound_to 10713
  155.9710  130.4611  150.6098 LP  0  0  0  0  0  0  0  0  0  0  0  0  # atno 17371 bound_to 10713
  139.9504  134.7628  156.0463 LP  0  0  0  0  0  0  0  0  0  0  0  0  # atno 17394 bound_to 11000
  141.1227  133.6608  156.3255 LP  0  0  0  0  0  0  0  0  0  0  0  0  # atno 17395 bound_to 11000

$$$$
