AV-unprocessed.smi:2191|AV-procd|sdf|8893|dock5
  -GOLD-   2272012103D 1   1.00000     0.00000
 Structure written by MMmdl.
 36 38  0  0  0  0  0  0  0  0  1 V2000
  155.4199  140.1911  159.4403 O   0  0  0  0  0  0  0  0  0  0  0  0
  154.5084  139.9471  160.4941 C   0  0  1  0  0  0  0  0  0  0  0  0
  153.8173  141.2723  160.8513 C   0  0  0  0  0  0  0  0  0  0  0  0
  153.8093  142.1097  159.7028 O   0  0  0  0  0  0  0  0  0  0  0  0
  152.9021  143.1467  159.6558 C   0  0  0  0  0  0  0  0  0  0  0  0
  152.3461  143.5651  160.8826 C   0  0  0  0  0  0  0  0  0  0  0  0
  151.4099  144.6160  160.9293 C   0  0  0  0  0  0  0  0  0  0  0  0
  151.0188  145.2626  159.7424 C   0  0  0  0  0  0  0  0  0  0  0  0
  151.5665  144.8568  158.5112 C   0  0  0  0  0  0  0  0  0  0  0  0
  152.5023  143.8048  158.4647 C   0  0  0  0  0  0  0  0  0  0  0  0
  153.4961  138.8744  160.0471 C   0  0  0  0  0  0  0  0  0  0  0  0
  153.9220  137.5273  160.3841 N   0  0  0  0  0  0  0  0  0  0  0  0
  154.1864  136.5235  159.5258 C   0  0  0  0  0  0  0  0  0  0  0  0
  154.5683  135.3607  160.0463 N   0  0  0  0  0  0  0  0  0  0  0  0
  154.5508  135.6425  161.4015 C   0  0  0  0  0  0  0  0  0  0  0  0
  154.8595  134.8243  162.5120 C   0  0  0  0  0  0  0  0  0  0  0  0
  154.7722  135.3369  163.8233 C   0  0  0  0  0  0  0  0  0  0  0  0
  154.3737  136.6714  164.0445 C   0  0  0  0  0  0  0  0  0  0  0  0
  154.0593  137.5049  162.9540 C   0  0  0  0  0  0  0  0  0  0  0  0
  154.1506  136.9909  161.6469 C   0  0  0  0  0  0  0  0  0  0  0  0
  156.2973  140.1487  159.7891 H   0  0  0  0  0  0  0  0  0  0  0  0
  155.0589  139.5750  161.3593 H   0  0  0  0  0  0  0  0  0  0  0  0
  152.8086  141.0916  161.2278 H   0  0  0  0  0  0  0  0  0  0  0  0
  154.3827  141.7745  161.6382 H   0  0  0  0  0  0  0  0  0  0  0  0
  152.6410  143.0741  161.7985 H   0  0  0  0  0  0  0  0  0  0  0  0
  150.9924  144.9255  161.8759 H   0  0  0  0  0  0  0  0  0  0  0  0
  150.3005  146.0683  159.7762 H   0  0  0  0  0  0  0  0  0  0  0  0
  151.2679  145.3529  157.5996 H   0  0  0  0  0  0  0  0  0  0  0  0
  152.8987  143.5219  157.5014 H   0  0  0  0  0  0  0  0  0  0  0  0
  152.5281  139.0507  160.5183 H   0  0  0  0  0  0  0  0  0  0  0  0
  153.3315  138.9310  158.9704 H   0  0  0  0  0  0  0  0  0  0  0  0
  154.0925  136.6545  158.4577 H   0  0  0  0  0  0  0  0  0  0  0  0
  155.1652  133.8006  162.3545 H   0  0  0  0  0  0  0  0  0  0  0  0
  155.0122  134.7024  164.6638 H   0  0  0  0  0  0  0  0  0  0  0  0
  154.3083  137.0549  165.0523 H   0  0  0  0  0  0  0  0  0  0  0  0
  153.7506  138.5262  163.1199 H   0  0  0  0  0  0  0  0  0  0  0  0
  1  2  1  0  0  0  0
  1 21  1  0  0  0  0
  2  3  1  0  0  0  0
  2 11  1  0  0  0  0
  2 22  1  0  0  0  0
  3  4  1  0  0  0  0
  3 23  1  0  0  0  0
  3 24  1  0  0  0  0
  4  5  1  0  0  0  0
  5 10  1  0  0  0  0
  5  6  2  0  0  0  0
  6  7  1  0  0  0  0
  6 25  1  0  0  0  0
  7  8  2  0  0  0  0
  7 26  1  0  0  0  0
  8  9  1  0  0  0  0
  8 27  1  0  0  0  0
  9 10  2  0  0  0  0
  9 28  1  0  0  0  0
 10 29  1  0  0  0  0
 11 12  1  0  0  0  0
 11 30  1  0  0  0  0
 11 31  1  0  0  0  0
 12 20  1  0  0  0  0
 12 13  1  0  0  0  0
 13 14  2  0  0  0  0
 13 32  1  0  0  0  0
 14 15  1  0  0  0  0
 15 20  2  0  0  0  0
 15 16  1  0  0  0  0
 16 17  2  0  0  0  0
 16 33  1  0  0  0  0
 17 18  1  0  0  0  0
 17 34  1  0  0  0  0
 18 19  2  0  0  0  0
 18 35  1  0  0  0  0
 19 20  1  0  0  0  0
 19 36  1  0  0  0  0
M  END
> <s_m_source_file>
AV-unprocessed.smi

> <i_m_source_file_index>
2191

> <i_lp_mmshare_version>
43012

> <i_f3d_flags>
0

> <s_epik_input>
W2NIXTFbY0hdW2NIXVtjSF1jKGMxMiluKFtjSF1uMilbQ0gyXVtDQEhdKFtPSF0pW0NIMl1PYzNbY0hdW2NIXVtjSF1bY0hdW2NIXTM=

> <s_epik_cmdline>
J2VwaWtfcHl0aG9uJywgJy1waCcsICc3LjAnLCAnLXRuJywgJzgnLCAnLW1hJywgJzIwMCcsICctbWV0YWxfYmluZGluZycsICctaW1hZScsICc8aW5maWxlLm1hZT4nLCAnLW9tYWUnLCAnPG91dGZpbGUubWFlPic=

> <r_lp_tautomer_probability>
1

> <r_epik_Ionization_Penalty>
0.0640132

> <r_epik_Ionization_Penalty_Charging>
0

> <r_epik_Ionization_Penalty_Neutral>
0.0640132

> <r_epik_State_Penalty>
0.0557325

> <r_epik_Charging_Adjusted_Penalty>
0.0557325

> <i_epik_Tot_Q>
0

> <i_epik_Tot_abs_Q>
0

> <r_epik_Metal_State_Penalty>
5.8435e-05

> <b_epik_Metal_Only>
0

> <s_lp_Force_Field>
OPLS_2005

> <r_lp_Energy>
16.2786

> <b_lp_Chiralities_Consistent>
1

> <s_lp_Variant>
AV-unprocessed.smi:2191-2

> <Gold.Version>
5.8.1

> <Gold.Id.Protein>
6NUR|6NUR_protein|mol2

> <Gold.PLP.Fitness>
51.3288

> <Gold.PLP.PLP>
-48.7994

> <Gold.PLP.part.hbond>
-2.0000

> <Gold.PLP.part.metal>
0.0000

> <Gold.PLP.part.buried>
-3.9149

> <Gold.PLP.part.nonpolar>
-43.7313

> <Gold.PLP.part.repulsive>
0.0000

> <Gold.PLP.ligand.clash>
0.9250

> <Gold.PLP.ligand.torsion>
1.1990

> <Gold.PLP.Chemscore.Hbond>
1.9357

> <Gold.PLP.Chemscore.CHOScore>
0.0000

> <Gold.PLP.Chemscore.Metal>
0.0000

> <Gold.Chemscore.Hbonds>
donor molecule, donor type, donor heavy atom, donor atom, acceptor molecule, acceptor atom, score
      P1  H  6896  6907       L1    14  0.35
      P1  H  7997  8010       L1     1  0.86

> <Gold.PLP.Chemscore.Internal.Correction>
0.0451

> <Gold.Rescore>
     Score         DG    S(hbond)    S(metal)    S(lipo)     H(rot)  DE(clash)    DE(int)     intcor
     19.60     -20.96       1.16        0.00     147.79       2.22       0.19       1.17       ----

> <Gold.Chemscore.Fitness>
19.5951

> <Gold.Chemscore.DG>
-20.9554

> <Gold.Chemscore.ZeroCoef>
-5.4800

> <Gold.Chemscore.Hbond>
1.1579

> <Gold.Chemscore.Metal>
0.0000

> <Gold.Chemscore.Lipo>
147.7878

> <Gold.Chemscore.Internal_Hbond>
0.0000

> <Gold.Chemscore.DEClash>
0.1927

> <Gold.Chemscore.DEInternal>
1.1676

> <Gold.Chemscore.Rot>
2.2200

> <Gold.Chemscore.Internal.Correction>
   9.000000E+99

> <Gold.Chemscore.Hbonds>
donor molecule, donor type, donor heavy atom, donor atom, acceptor molecule, acceptor atom, score
      P1  H  6896  6907       L1    14  0.01
      P1  H  7997  8010       L1     1  0.69

> <Gold.Chemscore.Hbond.Weighted>
-3.8675

> <Gold.Chemscore.Metal.Weighted>
-0.0000

> <Gold.Chemscore.Lipo.Weighted>
-17.2912

> <Gold.Chemscore.Internal_Hbond.Weighted>
0.0000

> <Gold.Chemscore.DEClash.Weighted>
0.1927

> <Gold.Chemscore.DEInternal.Weighted>
1.1676

> <Gold.Chemscore.Rot.Weighted>
5.6832

> <Gold.Chemscore.Internal.Correction.Weighted>
   9.000000E+99

> <Gold.Protein.RotatedTorsions>
[ 6907 6896 6895 6894 ] final   76.82 input  -60.11 | X-H torsion
[ 7974 7965 7964 7962 ] final  -96.28 input  175.53 | X-H torsion
[ 8008 7997 7996 7995 ] final  -14.91 input   59.86 | X-H torsion
[ 10167 10162 10161 10158 ] final  -54.70 input  -65.29 | X-H torsion
[ 10718 10713 10712 10709 ] final  -55.55 input   66.30 | X-H torsion
[ 10763 10752 10751 10750 ] final  141.30 input  -60.55 | X-H torsion
[ 11005 11000 10999 10996 ] final  124.35 input  -57.11 | X-H torsion

> <Gold.Protein.ActiveResidues>
 VAL166  LYS551  ARG553  GLY616  TRP617  ASP618  TYR619  PRO620  LYS621  CYS622 
 ASP623  PHE694  ASN695  SER759  ASP760  ASP761  ALA762  ILE779  LEU786  VAL792 
 PHE793  MET794  SER795  GLU796  ALA797  LYS798  CYS799  TRP800  GLU811  SER814 

> <Gold.Protein.RotatedAtoms>
  152.5090  134.3910  159.9383 H   0  0  0  0  0  0  0  0  0  0  0  0  # atno 6907 bound_to 6896
  151.3870  133.3795  159.2724 H   0  0  0  0  0  0  0  0  0  0  0  0  # atno 6908 bound_to 6896
  150.9461  134.8886  159.7701 H   0  0  0  0  0  0  0  0  0  0  0  0  # atno 6909 bound_to 6896
  145.3490  140.9473  143.2565 H   0  0  0  0  0  0  0  0  0  0  0  0  # atno 7974 bound_to 7965
  154.5172  140.2210  155.9043 H   0  0  0  0  0  0  0  0  0  0  0  0  # atno 8008 bound_to 7997
  156.1621  140.3140  155.8790 H   0  0  0  0  0  0  0  0  0  0  0  0  # atno 8009 bound_to 7997
  155.3730  140.0468  157.3036 H   0  0  0  0  0  0  0  0  0  0  0  0  # atno 8010 bound_to 7997
  140.6416  143.2511  151.4974 H   0  0  0  0  0  0  0  0  0  0  0  0  # atno 10167 bound_to 10162
  156.1360  130.4157  150.0186 H   0  0  0  0  0  0  0  0  0  0  0  0  # atno 10718 bound_to 10713
  153.9369  135.2984  155.3444 H   0  0  0  0  0  0  0  0  0  0  0  0  # atno 10763 bound_to 10752
  154.7497  135.4986  153.9270 H   0  0  0  0  0  0  0  0  0  0  0  0  # atno 10764 bound_to 10752
  153.1062  135.6747  153.9688 H   0  0  0  0  0  0  0  0  0  0  0  0  # atno 10765 bound_to 10752
  139.9354  134.9640  156.8396 H   0  0  0  0  0  0  0  0  0  0  0  0  # atno 11005 bound_to 11000
  144.8732  139.5008  143.6758 LP  0  0  0  0  0  0  0  0  0  0  0  0  # atno 17320 bound_to 7965
  146.2976  139.7325  142.9115 LP  0  0  0  0  0  0  0  0  0  0  0  0  # atno 17321 bound_to 7965
  139.5625  144.2121  152.1714 LP  0  0  0  0  0  0  0  0  0  0  0  0  # atno 17342 bound_to 10162
  140.1393  144.5216  150.6754 LP  0  0  0  0  0  0  0  0  0  0  0  0  # atno 17343 bound_to 10162
  156.8085  130.9316  151.3644 LP  0  0  0  0  0  0  0  0  0  0  0  0  # atno 17370 bound_to 10713
  157.6532  130.8902  149.9676 LP  0  0  0  0  0  0  0  0  0  0  0  0  # atno 17371 bound_to 10713
  140.6088  134.0102  155.7568 LP  0  0  0  0  0  0  0  0  0  0  0  0  # atno 17394 bound_to 11000
  141.0966  133.9834  157.3150 LP  0  0  0  0  0  0  0  0  0  0  0  0  # atno 17395 bound_to 11000

$$$$
