AV-unprocessed.smi:1840|AV-procd|sdf|7488|dock1
  -GOLD-   22720 9183D 1   1.00000     0.00000
 Structure written by MMmdl.
 43 44  0  0  0  0  0  0  0  0  1 V2000
  144.1904  135.4982  153.0818 C   0  0  0  0  0  0  0  0  0  0  0  0
  144.8349  136.3993  152.0114 C   0  0  2  0  0  0  0  0  0  0  0  0
  144.9411  135.7184  150.6312 C   0  0  0  0  0  0  0  0  0  0  0  0
  145.1894  134.2904  150.7178 N   0  0  0  0  0  0  0  0  0  0  0  0
  144.3374  133.2513  150.4069 C   0  0  0  0  0  0  0  0  0  0  0  0
  145.0097  132.0881  150.6510 C   0  0  0  0  0  0  0  0  0  0  0  0
  146.2807  132.5241  151.1186 C   0  0  0  0  0  0  0  0  0  0  0  0
  146.3837  133.8427  151.1622 N   0  0  0  0  0  0  0  0  0  0  0  0
  146.1673  136.8157  152.4408 N   0  0  0  0  0  0  0  0  0  0  0  0
  146.4287  137.7226  153.3929 C   0  0  0  0  0  0  0  0  0  0  0  0
  145.5631  138.3325  154.0207 O   0  0  0  0  0  0  0  0  0  0  0  0
  147.7475  137.8715  153.5829 N   0  0  0  0  0  0  0  0  0  0  0  0
  148.3771  138.7527  154.5654 C   0  0  2  0  0  0  0  0  0  0  0  0
  147.8696  140.1918  154.3470 C   0  0  0  0  0  0  0  0  0  0  0  0
  148.5462  141.1829  155.3050 C   0  0  0  0  0  0  0  0  0  0  0  0
  150.0738  141.1181  155.1736 C   0  0  0  0  0  0  0  0  0  0  0  0
  150.5868  139.6887  155.4060 C   0  0  0  0  0  0  0  0  0  0  0  0
  149.9206  138.6743  154.4542 C   0  0  1  0  0  0  0  0  0  0  0  0
  150.4581  137.2551  154.7132 C   0  0  0  0  0  0  0  0  0  0  0  0
  143.1668  135.2325  152.8173 H   0  0  0  0  0  0  0  0  0  0  0  0
  144.1502  135.9999  154.0493 H   0  0  0  0  0  0  0  0  0  0  0  0
  144.7529  134.5730  153.2104 H   0  0  0  0  0  0  0  0  0  0  0  0
  144.2127  137.2891  151.8970 H   0  0  0  0  0  0  0  0  0  0  0  0
  144.0233  135.8719  150.0612 H   0  0  0  0  0  0  0  0  0  0  0  0
  145.7468  136.1699  150.0501 H   0  0  0  0  0  0  0  0  0  0  0  0
  143.3367  133.4237  150.0390 H   0  0  0  0  0  0  0  0  0  0  0  0
  144.6485  131.0793  150.5164 H   0  0  0  0  0  0  0  0  0  0  0  0
  147.1252  131.9258  151.4276 H   0  0  0  0  0  0  0  0  0  0  0  0
  146.9495  136.3704  151.9839 H   0  0  0  0  0  0  0  0  0  0  0  0
  148.3701  137.3199  153.0114 H   0  0  0  0  0  0  0  0  0  0  0  0
  148.0976  138.4489  155.5761 H   0  0  0  0  0  0  0  0  0  0  0  0
  148.0603  140.4993  153.3178 H   0  0  0  0  0  0  0  0  0  0  0  0
  146.7883  140.2308  154.4851 H   0  0  0  0  0  0  0  0  0  0  0  0
  148.1970  142.1955  155.1012 H   0  0  0  0  0  0  0  0  0  0  0  0
  148.2562  140.9558  156.3315 H   0  0  0  0  0  0  0  0  0  0  0  0
  150.3725  141.4590  154.1813 H   0  0  0  0  0  0  0  0  0  0  0  0
  150.5369  141.7995  155.8879 H   0  0  0  0  0  0  0  0  0  0  0  0
  151.6693  139.6673  155.2749 H   0  0  0  0  0  0  0  0  0  0  0  0
  150.3970  139.4007  156.4409 H   0  0  0  0  0  0  0  0  0  0  0  0
  150.2012  138.9484  153.4358 H   0  0  0  0  0  0  0  0  0  0  0  0
  150.1742  136.9000  155.7043 H   0  0  0  0  0  0  0  0  0  0  0  0
  151.5464  137.2305  154.6504 H   0  0  0  0  0  0  0  0  0  0  0  0
  150.0775  136.5404  153.9835 H   0  0  0  0  0  0  0  0  0  0  0  0
  1  2  1  0  0  0  0
  1 20  1  0  0  0  0
  1 21  1  0  0  0  0
  1 22  1  0  0  0  0
  2  3  1  0  0  0  0
  2  9  1  0  0  0  0
  2 23  1  0  0  0  0
  3  4  1  0  0  0  0
  3 24  1  0  0  0  0
  3 25  1  0  0  0  0
  4  8  1  0  0  0  0
  4  5  1  0  0  0  0
  5  6  2  0  0  0  0
  5 26  1  0  0  0  0
  6  7  1  0  0  0  0
  6 27  1  0  0  0  0
  7  8  2  0  0  0  0
  7 28  1  0  0  0  0
  9 10  1  0  0  0  0
  9 29  1  0  0  0  0
 10 11  2  0  0  0  0
 10 12  1  0  0  0  0
 12 13  1  0  0  0  0
 12 30  1  0  0  0  0
 13 18  1  0  0  0  0
 13 14  1  0  0  0  0
 13 31  1  0  0  0  0
 14 15  1  0  0  0  0
 14 32  1  0  0  0  0
 14 33  1  0  0  0  0
 15 16  1  0  0  0  0
 15 34  1  0  0  0  0
 15 35  1  0  0  0  0
 16 17  1  0  0  0  0
 16 36  1  0  0  0  0
 16 37  1  0  0  0  0
 17 18  1  0  0  0  0
 17 38  1  0  0  0  0
 17 39  1  0  0  0  0
 18 19  1  0  0  0  0
 18 40  1  0  0  0  0
 19 41  1  0  0  0  0
 19 42  1  0  0  0  0
 19 43  1  0  0  0  0
M  END
> <s_m_source_file>
AV-unprocessed.smi

> <i_m_source_file_index>
1840

> <i_lp_mmshare_version>
43012

> <i_f3d_flags>
0

> <s_epik_input>
bjFbY0hdW2NIXVtjSF1uMVtDSDJdW0NAQEhdKFtDSDNdKVtOSF1DKD1PKVtOSF1bQ0BASF0yW0NIMl1bQ0gyXVtDSDJdW0NIMl1bQ0BIXTJbQ0gzXQ==

> <s_epik_cmdline>
J2VwaWtfcHl0aG9uJywgJy1waCcsICc3LjAnLCAnLXRuJywgJzgnLCAnLW1hJywgJzIwMCcsICctbWV0YWxfYmluZGluZycsICctaW1hZScsICc8aW5maWxlLm1hZT4nLCAnLW9tYWUnLCAnPG91dGZpbGUubWFlPic=

> <r_lp_tautomer_probability>
1

> <r_epik_Ionization_Penalty>
7.38659e-05

> <r_epik_Ionization_Penalty_Charging>
0

> <r_epik_Ionization_Penalty_Neutral>
7.38659e-05

> <r_epik_State_Penalty>
-0

> <r_epik_Charging_Adjusted_Penalty>
0

> <i_epik_Tot_Q>
0

> <i_epik_Tot_abs_Q>
0

> <r_epik_Metal_State_Penalty>
-0

> <b_epik_Metal_Only>
0

> <s_lp_Force_Field>
OPLS_2005

> <r_lp_Energy>
8.70276

> <b_lp_Chiralities_Consistent>
1

> <s_lp_Variant>
AV-unprocessed.smi:1840-1

> <Gold.Version>
5.8.1

> <Gold.Id.Protein>
6NUR|6NUR_protein|mol2

> <Gold.PLP.Fitness>
42.5907

> <Gold.PLP.PLP>
-32.0258

> <Gold.PLP.part.hbond>
-2.0000

> <Gold.PLP.part.metal>
0.0000

> <Gold.PLP.part.buried>
-3.5806

> <Gold.PLP.part.nonpolar>
-27.4728

> <Gold.PLP.part.repulsive>
0.3850

> <Gold.PLP.ligand.clash>
0.0000

> <Gold.PLP.ligand.torsion>
0.6226

> <Gold.PLP.Chemscore.Hbond>
1.9280

> <Gold.PLP.Chemscore.CHOScore>
2.0000

> <Gold.PLP.Chemscore.Metal>
0.0000

> <Gold.Chemscore.Hbonds>
donor molecule, donor type, donor heavy atom, donor atom, acceptor molecule, acceptor atom, score
      L1  H     9    29       P1  7948  0.94
      L1  H    12    30       P1  7948  1.00
      L1  C     5    26       P1 10186  0.87
      L1  C     7    28       P1 10747  1.00

> <Gold.PLP.Chemscore.Internal.Correction>
0.0260

> <Gold.Rescore>
     Score         DG    S(hbond)    S(metal)    S(lipo)     H(rot)  DE(clash)    DE(int)     intcor
     15.81     -17.32       1.94        0.00      79.83       1.56       0.03       1.48       ----

> <Gold.Chemscore.Fitness>
15.8063

> <Gold.Chemscore.DG>
-17.3198

> <Gold.Chemscore.ZeroCoef>
-5.4800

> <Gold.Chemscore.Hbond>
1.9422

> <Gold.Chemscore.Metal>
0.0000

> <Gold.Chemscore.Lipo>
79.8311

> <Gold.Chemscore.Internal_Hbond>
0.0000

> <Gold.Chemscore.DEClash>
0.0344

> <Gold.Chemscore.DEInternal>
1.4791

> <Gold.Chemscore.Rot>
1.5576

> <Gold.Chemscore.Internal.Correction>
   9.000000E+99

> <Gold.Chemscore.Hbonds>
donor molecule, donor type, donor heavy atom, donor atom, acceptor molecule, acceptor atom, score
      L1  H     9    29       P1  7948  0.88
      L1  H    12    30       P1  7948  1.00

> <Gold.Chemscore.Hbond.Weighted>
-6.4871

> <Gold.Chemscore.Metal.Weighted>
-0.0000

> <Gold.Chemscore.Lipo.Weighted>
-9.3402

> <Gold.Chemscore.Internal_Hbond.Weighted>
0.0000

> <Gold.Chemscore.DEClash.Weighted>
0.0344

> <Gold.Chemscore.DEInternal.Weighted>
1.4791

> <Gold.Chemscore.Rot.Weighted>
3.9875

> <Gold.Chemscore.Internal.Correction.Weighted>
   9.000000E+99

> <Gold.Protein.RotatedTorsions>
[ 6907 6896 6895 6894 ] final -113.16 input  -60.11 | X-H torsion
[ 7974 7965 7964 7962 ] final -102.83 input  175.53 | X-H torsion
[ 8008 7997 7996 7995 ] final   -1.59 input   59.86 | X-H torsion
[ 10167 10162 10161 10158 ] final  -19.73 input  -65.29 | X-H torsion
[ 10718 10713 10712 10709 ] final -135.20 input   66.30 | X-H torsion
[ 10763 10752 10751 10750 ] final  -56.03 input  -60.55 | X-H torsion
[ 11005 11000 10999 10996 ] final   59.12 input  -57.11 | X-H torsion

> <Gold.Protein.ActiveResidues>
 VAL166  LYS551  ARG553  GLY616  TRP617  ASP618  TYR619  PRO620  LYS621  CYS622 
 ASP623  PHE694  ASN695  SER759  ASP760  ASP761  ALA762  ILE779  LEU786  VAL792 
 PHE793  MET794  SER795  GLU796  ALA797  LYS798  CYS799  TRP800  GLU811  SER814 

> <Gold.Protein.RotatedAtoms>
  150.7809  133.8985  159.3333 H   0  0  0  0  0  0  0  0  0  0  0  0  # atno 6907 bound_to 6896
  151.6848  135.0954  160.0232 H   0  0  0  0  0  0  0  0  0  0  0  0  # atno 6908 bound_to 6896
  152.3860  133.6574  159.6235 H   0  0  0  0  0  0  0  0  0  0  0  0  # atno 6909 bound_to 6896
  145.2637  140.9277  143.3026 H   0  0  0  0  0  0  0  0  0  0  0  0  # atno 7974 bound_to 7965
  154.6451  140.2555  155.7277 H   0  0  0  0  0  0  0  0  0  0  0  0  # atno 8008 bound_to 7997
  156.2548  140.2879  156.0782 H   0  0  0  0  0  0  0  0  0  0  0  0  # atno 8009 bound_to 7997
  155.1536  140.0383  157.2817 H   0  0  0  0  0  0  0  0  0  0  0  0  # atno 8010 bound_to 7997
  140.7271  143.4791  151.0142 H   0  0  0  0  0  0  0  0  0  0  0  0  # atno 10167 bound_to 10162
  156.2636  130.7224  151.1167 H   0  0  0  0  0  0  0  0  0  0  0  0  # atno 10718 bound_to 10713
  154.2002  135.6412  153.5085 H   0  0  0  0  0  0  0  0  0  0  0  0  # atno 10763 bound_to 10752
  153.0014  135.5449  154.6324 H   0  0  0  0  0  0  0  0  0  0  0  0  # atno 10764 bound_to 10752
  154.5735  135.2919  155.0777 H   0  0  0  0  0  0  0  0  0  0  0  0  # atno 10765 bound_to 10752
  140.0327  134.5988  155.9485 H   0  0  0  0  0  0  0  0  0  0  0  0  # atno 11005 bound_to 11000
  144.9396  139.4204  143.6455 LP  0  0  0  0  0  0  0  0  0  0  0  0  # atno 17320 bound_to 7965
  146.3267  139.8349  142.8901 LP  0  0  0  0  0  0  0  0  0  0  0  0  # atno 17321 bound_to 7965
  139.8488  143.7466  152.3178 LP  0  0  0  0  0  0  0  0  0  0  0  0  # atno 17342 bound_to 10162
  139.7640  144.7497  151.0321 LP  0  0  0  0  0  0  0  0  0  0  0  0  # atno 17343 bound_to 10162
  157.7259  131.0650  150.5931 LP  0  0  0  0  0  0  0  0  0  0  0  0  # atno 17370 bound_to 10713
  156.6021  130.4357  149.5893 LP  0  0  0  0  0  0  0  0  0  0  0  0  # atno 17371 bound_to 10713
  141.1840  133.6552  156.5139 LP  0  0  0  0  0  0  0  0  0  0  0  0  # atno 17394 bound_to 11000
  140.4199  134.7197  157.4884 LP  0  0  0  0  0  0  0  0  0  0  0  0  # atno 17395 bound_to 11000

$$$$
