AV-unprocessed.smi:2217|AV-procd|sdf|8975|dock1
  -GOLD-   2272012193D 1   1.00000     0.00000
 Structure written by MMmdl.
 45 48  0  0  0  0  0  0  0  0  1 V2000
  151.0079  142.2112  156.3536 C   0  0  0  0  0  0  0  0  0  0  0  0
  150.2428  141.1776  155.5541 C   0  0  0  0  0  0  0  0  0  0  0  0
  150.8278  139.9454  155.2065 C   0  0  0  0  0  0  0  0  0  0  0  0
  150.0726  139.0236  154.4565 C   0  0  0  0  0  0  0  0  0  0  0  0
  148.7528  139.3498  154.0704 C   0  0  0  0  0  0  0  0  0  0  0  0
  148.0961  138.3419  153.3040 N   0  0  0  0  0  0  0  0  0  0  0  0
  146.7879  138.1196  153.0543 C   0  0  0  0  0  0  0  0  0  0  0  0
  145.9185  138.8543  153.5199 O   0  0  0  0  0  0  0  0  0  0  0  0
  146.5043  137.0625  152.2786 N   0  0  0  0  0  0  0  0  0  0  0  0
  145.1629  136.5997  151.9488 C   0  0  1  0  0  0  0  0  0  0  0  0
  145.1437  135.1351  151.5131 C   0  0  2  0  0  0  0  0  0  0  0  0
  144.8661  134.4367  150.2300 C   0  0  0  0  0  0  0  0  0  0  0  0
  143.9014  133.3524  150.7777 C   0  0  0  0  0  0  0  0  0  0  0  0
  143.6024  133.7392  152.1407 O   0  0  0  0  0  0  0  0  0  0  0  0
  143.7633  135.1434  152.1382 C   0  0  1  0  0  0  0  0  0  0  0  0
  144.3402  136.1041  153.1988 C   0  0  0  0  0  0  0  0  0  0  0  0
  143.3669  137.1131  153.8245 C   0  0  0  0  0  0  0  0  0  0  0  0
  143.4895  137.0264  155.3474 C   0  0  0  0  0  0  0  0  0  0  0  0
  144.8738  136.4423  155.5884 C   0  0  0  0  0  0  0  0  0  0  0  0
  145.0733  135.4924  154.4118 C   0  0  0  0  0  0  0  0  0  0  0  0
  148.2007  140.5425  154.4108 N   0  0  0  0  0  0  0  0  0  0  0  0
  148.9236  141.4260  155.1305 C   0  0  0  0  0  0  0  0  0  0  0  0
  151.8943  141.7757  156.8158 H   0  0  0  0  0  0  0  0  0  0  0  0
  150.3806  142.6237  157.1445 H   0  0  0  0  0  0  0  0  0  0  0  0
  151.3248  143.0283  155.7053 H   0  0  0  0  0  0  0  0  0  0  0  0
  151.8380  139.7073  155.5058 H   0  0  0  0  0  0  0  0  0  0  0  0
  150.5084  138.0742  154.1806 H   0  0  0  0  0  0  0  0  0  0  0  0
  148.7228  137.7119  152.8246 H   0  0  0  0  0  0  0  0  0  0  0  0
  147.2772  136.5122  151.9312 H   0  0  0  0  0  0  0  0  0  0  0  0
  144.6106  137.2619  151.2751 H   0  0  0  0  0  0  0  0  0  0  0  0
  145.8642  134.5533  152.0965 H   0  0  0  0  0  0  0  0  0  0  0  0
  144.3776  135.0914  149.5069 H   0  0  0  0  0  0  0  0  0  0  0  0
  145.7623  134.0108  149.7783 H   0  0  0  0  0  0  0  0  0  0  0  0
  142.9867  133.3114  150.1849 H   0  0  0  0  0  0  0  0  0  0  0  0
  144.3550  132.3610  150.7703 H   0  0  0  0  0  0  0  0  0  0  0  0
  142.9952  135.6203  151.5181 H   0  0  0  0  0  0  0  0  0  0  0  0
  143.6166  138.1240  153.5018 H   0  0  0  0  0  0  0  0  0  0  0  0
  142.3367  136.9363  153.5133 H   0  0  0  0  0  0  0  0  0  0  0  0
  143.3478  137.9900  155.8373 H   0  0  0  0  0  0  0  0  0  0  0  0
  142.7345  136.3414  155.7358 H   0  0  0  0  0  0  0  0  0  0  0  0
  145.6202  137.2370  155.5491 H   0  0  0  0  0  0  0  0  0  0  0  0
  144.9627  135.9449  156.5545 H   0  0  0  0  0  0  0  0  0  0  0  0
  144.6345  134.5248  154.6575 H   0  0  0  0  0  0  0  0  0  0  0  0
  146.1350  135.3153  154.2396 H   0  0  0  0  0  0  0  0  0  0  0  0
  148.4338  142.3579  155.3720 H   0  0  0  0  0  0  0  0  0  0  0  0
  1  2  1  0  0  0  0
  1 23  1  0  0  0  0
  1 24  1  0  0  0  0
  1 25  1  0  0  0  0
  2 22  1  0  0  0  0
  2  3  2  0  0  0  0
  3  4  1  0  0  0  0
  3 26  1  0  0  0  0
  4  5  2  0  0  0  0
  4 27  1  0  0  0  0
  5  6  1  0  0  0  0
  5 21  1  0  0  0  0
  6  7  1  0  0  0  0
  6 28  1  0  0  0  0
  7  8  2  0  0  0  0
  7  9  1  0  0  0  0
  9 10  1  0  0  0  0
  9 29  1  0  0  0  0
 10 16  1  0  0  0  0
 10 11  1  0  0  0  0
 10 30  1  0  0  0  0
 11 15  1  0  0  0  0
 11 12  1  0  0  0  0
 11 31  1  0  0  0  0
 12 13  1  0  0  0  0
 12 32  1  0  0  0  0
 12 33  1  0  0  0  0
 13 14  1  0  0  0  0
 13 34  1  0  0  0  0
 13 35  1  0  0  0  0
 14 15  1  0  0  0  0
 15 16  1  0  0  0  0
 15 36  1  0  0  0  0
 16 20  1  0  0  0  0
 16 17  1  0  0  0  0
 17 18  1  0  0  0  0
 17 37  1  0  0  0  0
 17 38  1  0  0  0  0
 18 19  1  0  0  0  0
 18 39  1  0  0  0  0
 18 40  1  0  0  0  0
 19 20  1  0  0  0  0
 19 41  1  0  0  0  0
 19 42  1  0  0  0  0
 20 43  1  0  0  0  0
 20 44  1  0  0  0  0
 21 22  2  0  0  0  0
 22 45  1  0  0  0  0
M  END
> <s_m_source_file>
AV-unprocessed.smi

> <i_m_source_file_index>
2217

> <i_lp_mmshare_version>
43012

> <i_f3d_flags>
0

> <s_epik_input>
W0NIM11jMVtjSF1bY0hdYyhuW2NIXTEpW05IXUMoPU8pW05IXVtDQEBIXTJbQ0BASF0oW0NIMl1bQ0gyXU8zKVtDQEhdM0MyNFtDSDJdW0NIMl1bQ0gyXVtDSDJdNA==

> <s_epik_cmdline>
J2VwaWtfcHl0aG9uJywgJy1waCcsICc3LjAnLCAnLXRuJywgJzgnLCAnLW1hJywgJzIwMCcsICctbWV0YWxfYmluZGluZycsICctaW1hZScsICc8aW5maWxlLm1hZT4nLCAnLW9tYWUnLCAnPG91dGZpbGUubWFlPic=

> <r_lp_tautomer_probability>
1

> <r_epik_Ionization_Penalty>
6.14796e-05

> <r_epik_Ionization_Penalty_Charging>
0

> <r_epik_Ionization_Penalty_Neutral>
6.14796e-05

> <r_epik_State_Penalty>
-0

> <r_epik_Charging_Adjusted_Penalty>
0

> <i_epik_Tot_Q>
0

> <i_epik_Tot_abs_Q>
0

> <r_epik_Metal_State_Penalty>
-0

> <b_epik_Metal_Only>
0

> <s_lp_Force_Field>
OPLS_2005

> <r_lp_Energy>
79.3106

> <b_lp_Chiralities_Consistent>
1

> <s_lp_Variant>
AV-unprocessed.smi:2217-8

> <Gold.Version>
5.8.1

> <Gold.Id.Protein>
6NUR|6NUR_protein|mol2

> <Gold.PLP.Fitness>
38.8221

> <Gold.PLP.PLP>
-30.0314

> <Gold.PLP.part.hbond>
-2.5310

> <Gold.PLP.part.metal>
0.0000

> <Gold.PLP.part.buried>
-1.8724

> <Gold.PLP.part.nonpolar>
-26.6930

> <Gold.PLP.part.repulsive>
1.3108

> <Gold.PLP.ligand.clash>
0.0000

> <Gold.PLP.ligand.torsion>
0.2458

> <Gold.PLP.Chemscore.Hbond>
2.0000

> <Gold.PLP.Chemscore.CHOScore>
1.0000

> <Gold.PLP.Chemscore.Metal>
0.0000

> <Gold.Chemscore.Hbonds>
donor molecule, donor type, donor heavy atom, donor atom, acceptor molecule, acceptor atom, score
      L1  H     6    28       P1  7948  1.00
      L1  H     9    29       P1  7948  1.00
      L1  C    22    45       P1  8028  1.00

> <Gold.PLP.Chemscore.Internal.Correction>
0.2821

> <Gold.Rescore>
     Score         DG    S(hbond)    S(metal)    S(lipo)     H(rot)  DE(clash)    DE(int)     intcor
     15.80     -17.50       1.93        0.00      69.57       1.00       0.33       1.37       ----

> <Gold.Chemscore.Fitness>
15.7978

> <Gold.Chemscore.DG>
-17.4973

> <Gold.Chemscore.ZeroCoef>
-5.4800

> <Gold.Chemscore.Hbond>
1.9276

> <Gold.Chemscore.Metal>
0.0000

> <Gold.Chemscore.Lipo>
69.5667

> <Gold.Chemscore.Internal_Hbond>
0.0000

> <Gold.Chemscore.DEClash>
0.3257

> <Gold.Chemscore.DEInternal>
1.3738

> <Gold.Chemscore.Rot>
1.0000

> <Gold.Chemscore.Internal.Correction>
   9.000000E+99

> <Gold.Chemscore.Hbonds>
donor molecule, donor type, donor heavy atom, donor atom, acceptor molecule, acceptor atom, score
      L1  H     6    28       P1  7948  0.94
      L1  H     9    29       P1  7948  0.94

> <Gold.Chemscore.Hbond.Weighted>
-6.4380

> <Gold.Chemscore.Metal.Weighted>
-0.0000

> <Gold.Chemscore.Lipo.Weighted>
-8.1393

> <Gold.Chemscore.Internal_Hbond.Weighted>
0.0000

> <Gold.Chemscore.DEClash.Weighted>
0.3257

> <Gold.Chemscore.DEInternal.Weighted>
1.3738

> <Gold.Chemscore.Rot.Weighted>
2.5600

> <Gold.Chemscore.Internal.Correction.Weighted>
   9.000000E+99

> <Gold.Protein.RotatedTorsions>
[ 6907 6896 6895 6894 ] final -122.39 input  -60.11 | X-H torsion
[ 7974 7965 7964 7962 ] final   15.70 input  175.53 | X-H torsion
[ 8008 7997 7996 7995 ] final    2.24 input   59.86 | X-H torsion
[ 10167 10162 10161 10158 ] final   50.14 input  -65.29 | X-H torsion
[ 10718 10713 10712 10709 ] final   28.36 input   66.30 | X-H torsion
[ 10763 10752 10751 10750 ] final  -15.64 input  -60.55 | X-H torsion
[ 11005 11000 10999 10996 ] final   34.47 input  -57.11 | X-H torsion

> <Gold.Protein.ActiveResidues>
 VAL166  LYS551  ARG553  GLY616  TRP617  ASP618  TYR619  PRO620  LYS621  CYS622 
 ASP623  PHE694  ASN695  SER759  ASP760  ASP761  ALA762  ILE779  LEU786  VAL792 
 PHE793  MET794  SER795  GLU796  ALA797  LYS798  CYS799  TRP800  GLU811  SER814 

> <Gold.Protein.RotatedAtoms>
  150.8572  133.7698  159.3004 H   0  0  0  0  0  0  0  0  0  0  0  0  # atno 6907 bound_to 6896
  151.5351  135.1067  159.9922 H   0  0  0  0  0  0  0  0  0  0  0  0  # atno 6908 bound_to 6896
  152.4599  133.7756  159.6878 H   0  0  0  0  0  0  0  0  0  0  0  0  # atno 6909 bound_to 6896
  146.2271  139.8855  142.8563 H   0  0  0  0  0  0  0  0  0  0  0  0  # atno 7974 bound_to 7965
  154.6892  140.2649  155.6829 H   0  0  0  0  0  0  0  0  0  0  0  0  # atno 8008 bound_to 7997
  156.2726  140.2794  156.1388 H   0  0  0  0  0  0  0  0  0  0  0  0  # atno 8009 bound_to 7997
  155.0920  140.0373  157.2661 H   0  0  0  0  0  0  0  0  0  0  0  0  # atno 8010 bound_to 7997
  140.2755  144.3216  150.6278 H   0  0  0  0  0  0  0  0  0  0  0  0  # atno 10167 bound_to 10162
  157.2324  130.7030  149.6319 H   0  0  0  0  0  0  0  0  0  0  0  0  # atno 10718 bound_to 10713
  153.5464  135.7012  153.5612 H   0  0  0  0  0  0  0  0  0  0  0  0  # atno 10763 bound_to 10752
  153.3555  135.3983  155.1679 H   0  0  0  0  0  0  0  0  0  0  0  0  # atno 10764 bound_to 10752
  154.8667  135.3776  154.4972 H   0  0  0  0  0  0  0  0  0  0  0  0  # atno 10765 bound_to 10752
  140.2525  134.3287  155.7885 H   0  0  0  0  0  0  0  0  0  0  0  0  # atno 11005 bound_to 11000
  145.2470  141.0030  143.3903 LP  0  0  0  0  0  0  0  0  0  0  0  0  # atno 17320 bound_to 7965
  144.9406  139.4194  143.6451 LP  0  0  0  0  0  0  0  0  0  0  0  0  # atno 17321 bound_to 7965
  140.5855  143.2170  151.7351 LP  0  0  0  0  0  0  0  0  0  0  0  0  # atno 17342 bound_to 10162
  139.4977  144.4018  152.0173 LP  0  0  0  0  0  0  0  0  0  0  0  0  # atno 17343 bound_to 10162
  155.9674  130.4484  150.5620 LP  0  0  0  0  0  0  0  0  0  0  0  0  # atno 17370 bound_to 10713
  157.3464  131.0726  151.1747 LP  0  0  0  0  0  0  0  0  0  0  0  0  # atno 17371 bound_to 10713
  141.2200  133.7362  156.9059 LP  0  0  0  0  0  0  0  0  0  0  0  0  # atno 17394 bound_to 11000
  140.1544  134.9208  157.2635 LP  0  0  0  0  0  0  0  0  0  0  0  0  # atno 17395 bound_to 11000

$$$$
