AV-unprocessed.smi:618|AV-procd|sdf|3083|dock8
  -GOLD-   22720 0 03D 1   1.00000     0.00000
 Structure written by MMmdl.
 40 42  0  0  0  0  0  0  0  0  1 V2000
  150.3154  134.5585  155.9208 O   0  0  0  0  0  0  0  0  0  0  0  0
  149.7928  135.0074  154.9012 C   0  0  0  0  0  0  0  0  0  0  0  0
  149.8033  136.3065  154.5713 N   0  0  0  0  0  0  0  0  0  0  0  0
  150.4542  137.3673  155.3330 C   0  0  0  0  0  0  0  0  0  0  0  0
  150.5821  138.6599  154.4995 C   0  0  1  0  0  0  0  0  0  0  0  0
  149.4382  139.6660  154.7722 C   0  0  0  0  0  0  0  0  0  0  0  0
  149.6335  140.3354  156.0443 N   0  0  0  0  0  0  0  0  0  0  0  0
  148.6870  141.3722  156.3849 C   0  0  0  0  0  0  0  0  0  0  0  0
  149.3680  142.1501  157.5242 C   0  0  0  0  0  0  0  0  0  0  0  0
  150.8662  141.8012  157.3863 C   0  0  0  0  0  0  0  0  0  0  0  0
  150.9090  140.9963  156.0861 C   0  0  1  0  0  0  0  0  0  0  0  0
  152.0487  139.9838  155.9214 C   0  0  0  0  0  0  0  0  0  0  0  0
  151.8612  139.2888  154.6839 O   0  0  0  0  0  0  0  0  0  0  0  0
  149.1605  134.2770  153.9671 N   0  0  0  0  0  0  0  0  0  0  0  0
  148.9481  132.8722  153.9377 C   0  0  0  0  0  0  0  0  0  0  0  0
  149.7632  131.9282  154.6084 C   0  0  0  0  0  0  0  0  0  0  0  0
  149.4374  130.5615  154.5146 C   0  0  0  0  0  0  0  0  0  0  0  0
  148.3065  130.1893  153.7622 C   0  0  0  0  0  0  0  0  0  0  0  0
  147.5129  131.0791  153.1295 N   0  0  0  0  0  0  0  0  0  0  0  0
  147.8316  132.3876  153.2238 C   0  0  0  0  0  0  0  0  0  0  0  0
  149.3480  136.5809  153.7133 H   0  0  0  0  0  0  0  0  0  0  0  0
  149.8355  137.5620  156.2094 H   0  0  0  0  0  0  0  0  0  0  0  0
  151.4218  137.0428  155.7185 H   0  0  0  0  0  0  0  0  0  0  0  0
  150.5237  138.3751  153.4484 H   0  0  0  0  0  0  0  0  0  0  0  0
  149.4151  140.4064  153.9711 H   0  0  0  0  0  0  0  0  0  0  0  0
  148.4722  139.1604  154.7567 H   0  0  0  0  0  0  0  0  0  0  0  0
  148.5268  142.0316  155.5303 H   0  0  0  0  0  0  0  0  0  0  0  0
  147.7224  140.9564  156.6775 H   0  0  0  0  0  0  0  0  0  0  0  0
  149.1872  143.2214  157.4317 H   0  0  0  0  0  0  0  0  0  0  0  0
  148.9918  141.8286  158.4960 H   0  0  0  0  0  0  0  0  0  0  0  0
  151.5032  142.6851  157.3443 H   0  0  0  0  0  0  0  0  0  0  0  0
  151.1881  141.1898  158.2303 H   0  0  0  0  0  0  0  0  0  0  0  0
  150.9656  141.7066  155.2585 H   0  0  0  0  0  0  0  0  0  0  0  0
  153.0137  140.4900  155.9039 H   0  0  0  0  0  0  0  0  0  0  0  0
  152.0705  139.2826  156.7556 H   0  0  0  0  0  0  0  0  0  0  0  0
  148.8532  134.7781  153.1463 H   0  0  0  0  0  0  0  0  0  0  0  0
  150.6163  132.2216  155.2000 H   0  0  0  0  0  0  0  0  0  0  0  0
  150.0388  129.8152  155.0124 H   0  0  0  0  0  0  0  0  0  0  0  0
  148.0285  129.1498  153.6710 H   0  0  0  0  0  0  0  0  0  0  0  0
  147.1733  133.0708  152.7066 H   0  0  0  0  0  0  0  0  0  0  0  0
  1  2  2  0  0  0  0
  2  3  1  0  0  0  0
  2 14  1  0  0  0  0
  3  4  1  0  0  0  0
  3 21  1  0  0  0  0
  4  5  1  0  0  0  0
  4 22  1  0  0  0  0
  4 23  1  0  0  0  0
  5 13  1  0  0  0  0
  5  6  1  0  0  0  0
  5 24  1  0  0  0  0
  6  7  1  0  0  0  0
  6 25  1  0  0  0  0
  6 26  1  0  0  0  0
  7 11  1  0  0  0  0
  7  8  1  0  0  0  0
  8  9  1  0  0  0  0
  8 27  1  0  0  0  0
  8 28  1  0  0  0  0
  9 10  1  0  0  0  0
  9 29  1  0  0  0  0
  9 30  1  0  0  0  0
 10 11  1  0  0  0  0
 10 31  1  0  0  0  0
 10 32  1  0  0  0  0
 11 12  1  0  0  0  0
 11 33  1  0  0  0  0
 12 13  1  0  0  0  0
 12 34  1  0  0  0  0
 12 35  1  0  0  0  0
 14 15  1  0  0  0  0
 14 36  1  0  0  0  0
 15 20  1  0  0  0  0
 15 16  2  0  0  0  0
 16 17  1  0  0  0  0
 16 37  1  0  0  0  0
 17 18  2  0  0  0  0
 17 38  1  0  0  0  0
 18 19  1  0  0  0  0
 18 39  1  0  0  0  0
 19 20  2  0  0  0  0
 20 40  1  0  0  0  0
M  END
> <s_m_source_file>
AV-unprocessed.smi

> <i_m_source_file_index>
618

> <i_lp_mmshare_version>
43012

> <i_f3d_flags>
0

> <s_epik_input>
W2NIXTFuW2NIXVtjSF1bY0hdYzFbTkhdQyg9TylbTkhdW0NIMl1bQ0BIXShbQ0gyXTIpT1tDSDJdW0NAQEhdKE4yMylbQ0gyXVtDSDJdW0NIMl0z

> <s_epik_cmdline>
J2VwaWtfcHl0aG9uJywgJy1waCcsICc3LjAnLCAnLXRuJywgJzgnLCAnLW1hJywgJzIwMCcsICctbWV0YWxfYmluZGluZycsICctaW1hZScsICc8aW5maWxlLm1hZT4nLCAnLW9tYWUnLCAnPG91dGZpbGUubWFlPic=

> <r_epik_Ionization_Penalty>
1.07277

> <r_epik_Ionization_Penalty_Charging>
0

> <r_epik_Ionization_Penalty_Neutral>
1.07277

> <r_epik_State_Penalty>
1.13623

> <r_epik_Charging_Adjusted_Penalty>
1.13623

> <i_epik_Tot_Q>
0

> <i_epik_Tot_abs_Q>
0

> <r_epik_Metal_State_Penalty>
1.13277

> <b_epik_Metal_Only>
0

> <s_lp_Force_Field>
OPLS_2005

> <r_lp_Energy>
52.4756

> <b_lp_Chiralities_Consistent>
1

> <s_lp_Variant>
AV-unprocessed.smi:618-10

> <Gold.Version>
5.8.1

> <Gold.Id.Protein>
6NUR|6NUR_protein|mol2

> <Gold.PLP.Fitness>
40.5324

> <Gold.PLP.PLP>
-33.7169

> <Gold.PLP.part.hbond>
-3.0000

> <Gold.PLP.part.metal>
0.0000

> <Gold.PLP.part.buried>
-4.4199

> <Gold.PLP.part.nonpolar>
-28.0517

> <Gold.PLP.part.repulsive>
0.2973

> <Gold.PLP.ligand.clash>
0.0000

> <Gold.PLP.ligand.torsion>
0.7730

> <Gold.PLP.Chemscore.Hbond>
2.7844

> <Gold.PLP.Chemscore.CHOScore>
0.0000

> <Gold.PLP.Chemscore.Metal>
0.0000

> <Gold.Chemscore.Hbonds>
donor molecule, donor type, donor heavy atom, donor atom, acceptor molecule, acceptor atom, score
      L1  H     3    21       P1  7948  0.96
      L1  H    14    36       P1  7948  0.90
      P1  H  7989  7998       L1    13  0.94

> <Gold.PLP.Chemscore.Internal.Correction>
0.0083

> <Gold.Rescore>
     Score         DG    S(hbond)    S(metal)    S(lipo)     H(rot)  DE(clash)    DE(int)     intcor
     14.39     -16.17       1.54        0.00      74.64       1.25       0.09       1.69       ----

> <Gold.Chemscore.Fitness>
14.3885

> <Gold.Chemscore.DG>
-16.1695

> <Gold.Chemscore.ZeroCoef>
-5.4800

> <Gold.Chemscore.Hbond>
1.5407

> <Gold.Chemscore.Metal>
0.0000

> <Gold.Chemscore.Lipo>
74.6449

> <Gold.Chemscore.Internal_Hbond>
0.0000

> <Gold.Chemscore.DEClash>
0.0949

> <Gold.Chemscore.DEInternal>
1.6860

> <Gold.Chemscore.Rot>
1.2461

> <Gold.Chemscore.Internal.Correction>
   9.000000E+99

> <Gold.Chemscore.Hbonds>
donor molecule, donor type, donor heavy atom, donor atom, acceptor molecule, acceptor atom, score
      L1  H     3    21       P1  7948  0.83
      L1  H    14    36       P1  7948  0.17
      P1  H  7989  7998       L1    13  0.06

> <Gold.Chemscore.Hbond.Weighted>
-5.1461

> <Gold.Chemscore.Metal.Weighted>
-0.0000

> <Gold.Chemscore.Lipo.Weighted>
-8.7335

> <Gold.Chemscore.Internal_Hbond.Weighted>
0.0000

> <Gold.Chemscore.DEClash.Weighted>
0.0949

> <Gold.Chemscore.DEInternal.Weighted>
1.6860

> <Gold.Chemscore.Rot.Weighted>
3.1901

> <Gold.Chemscore.Internal.Correction.Weighted>
   9.000000E+99

> <Gold.Protein.RotatedTorsions>
[ 6907 6896 6895 6894 ] final   85.17 input  -60.11 | X-H torsion
[ 7974 7965 7964 7962 ] final -113.58 input  175.53 | X-H torsion
[ 8008 7997 7996 7995 ] final   49.88 input   59.86 | X-H torsion
[ 10167 10162 10161 10158 ] final  149.12 input  -65.29 | X-H torsion
[ 10718 10713 10712 10709 ] final   14.67 input   66.30 | X-H torsion
[ 10763 10752 10751 10750 ] final  -26.11 input  -60.55 | X-H torsion
[ 11005 11000 10999 10996 ] final  -89.50 input  -57.11 | X-H torsion

> <Gold.Protein.ActiveResidues>
 VAL166  LYS551  ARG553  GLY616  TRP617  ASP618  TYR619  PRO620  LYS621  CYS622 
 ASP623  PHE694  ASN695  SER759  ASP760  ASP761  ALA762  ILE779  LEU786  VAL792 
 PHE793  MET794  SER795  GLU796  ALA797  LYS798  CYS799  TRP800  GLU811  SER814 

> <Gold.Protein.RotatedAtoms>
  152.5369  134.2628  159.8941 H   0  0  0  0  0  0  0  0  0  0  0  0  # atno 6907 bound_to 6896
  151.2587  133.4306  159.2622 H   0  0  0  0  0  0  0  0  0  0  0  0  # atno 6908 bound_to 6896
  151.0473  134.9663  159.8249 H   0  0  0  0  0  0  0  0  0  0  0  0  # atno 6909 bound_to 6896
  145.1303  140.8720  143.3762 H   0  0  0  0  0  0  0  0  0  0  0  0  # atno 7974 bound_to 7965
  155.4095  140.3441  155.4262 H   0  0  0  0  0  0  0  0  0  0  0  0  # atno 8008 bound_to 7997
  156.1457  140.1555  156.8882 H   0  0  0  0  0  0  0  0  0  0  0  0  # atno 8009 bound_to 7997
  154.5008  140.0815  156.7775 H   0  0  0  0  0  0  0  0  0  0  0  0  # atno 8010 bound_to 7997
  139.4865  144.5626  151.7203 H   0  0  0  0  0  0  0  0  0  0  0  0  # atno 10167 bound_to 10162
  157.0425  130.6237  149.5753 H   0  0  0  0  0  0  0  0  0  0  0  0  # atno 10718 bound_to 10713
  153.7106  135.6951  153.5038 H   0  0  0  0  0  0  0  0  0  0  0  0  # atno 10763 bound_to 10752
  153.2275  135.4349  155.0557 H   0  0  0  0  0  0  0  0  0  0  0  0  # atno 10764 bound_to 10752
  154.8316  135.3476  154.6643 H   0  0  0  0  0  0  0  0  0  0  0  0  # atno 10765 bound_to 10752
  141.1583  133.7634  156.9604 H   0  0  0  0  0  0  0  0  0  0  0  0  # atno 11005 bound_to 11000
  145.0643  139.3081  143.5864 LP  0  0  0  0  0  0  0  0  0  0  0  0  # atno 17320 bound_to 7965
  146.3514  140.0096  142.8668 LP  0  0  0  0  0  0  0  0  0  0  0  0  # atno 17321 bound_to 7965
  140.5199  144.0895  150.6019 LP  0  0  0  0  0  0  0  0  0  0  0  0  # atno 17342 bound_to 10162
  140.3850  143.2783  152.0127 LP  0  0  0  0  0  0  0  0  0  0  0  0  # atno 17343 bound_to 10162
  156.0033  130.5116  150.7742 LP  0  0  0  0  0  0  0  0  0  0  0  0  # atno 17370 bound_to 10713
  157.5093  131.0924  151.0218 LP  0  0  0  0  0  0  0  0  0  0  0  0  # atno 17371 bound_to 10713
  140.1197  134.9425  157.2185 LP  0  0  0  0  0  0  0  0  0  0  0  0  # atno 17394 bound_to 11000
  140.3088  134.3047  155.7271 LP  0  0  0  0  0  0  0  0  0  0  0  0  # atno 17395 bound_to 11000

$$$$
