AV-unprocessed.smi:246|AV-procd|sdf|1883|dock4
  -GOLD-   2262020533D 1   1.00000     0.00000
 Structure written by MMmdl.
 57 60  0  0  0  0  0  0  0  0  1 V2000
  146.5777  128.9675  151.4987 C   0  0  0  0  0  0  0  0  0  0  0  0
  145.9188  130.3347  151.7297 C   0  0  0  0  0  0  0  0  0  0  0  0
  146.4579  130.9988  152.8642 O   0  0  0  0  0  0  0  0  0  0  0  0
  146.6949  132.3861  152.6739 C   0  0  0  0  0  0  0  0  0  0  0  0
  147.5995  132.8904  153.8016 C   0  0  0  0  0  0  0  0  0  0  0  0
  148.8987  132.3445  153.6306 O   0  0  0  0  0  0  0  0  0  0  0  0
  149.8681  132.9027  154.5050 C   0  0  2  0  0  0  0  0  0  0  0  0
  149.3672  132.8949  155.9503 C   0  0  0  0  0  0  0  0  0  0  0  0
  150.1613  134.0221  156.6163 C   0  0  0  0  0  0  0  0  0  0  0  0
  150.4916  134.9406  155.5355 N   0  0  0  0  0  0  0  0  0  0  0  0
  150.8621  136.2302  155.7402 C   0  0  0  0  0  0  0  0  0  0  0  0
  151.0860  137.0124  154.6513 N   0  0  0  0  0  0  0  0  0  0  0  0
  151.4424  138.2915  154.7952 C   0  0  0  0  0  0  0  0  0  0  0  0
  151.6291  138.9828  155.9196 N   0  0  0  0  0  0  0  0  0  0  0  0
  151.4119  138.2065  157.0191 C   0  0  0  0  0  0  0  0  0  0  0  0
  151.0280  136.8339  157.0226 C   0  0  0  0  0  0  0  0  0  0  0  0
  150.9036  136.3912  158.3357 N   0  0  0  0  0  0  0  0  0  0  0  0
  151.1982  137.4347  159.0609 C   0  0  0  0  0  0  0  0  0  0  0  0
  151.5192  138.5679  158.3509 N   0  0  0  0  0  0  0  0  0  0  0  0
  151.8856  139.8631  158.9025 C   0  0  0  0  0  0  0  0  0  0  0  0
  151.0481  141.0355  158.3448 C   0  0  1  0  0  0  0  0  0  0  0  0
  149.8091  141.0837  159.0262 O   0  0  0  0  0  0  0  0  0  0  0  0
  151.7369  142.4099  158.4691 C   0  0  2  0  0  0  0  0  0  0  0  0
  152.1507  142.7914  159.8916 C   0  0  0  0  0  0  0  0  0  0  0  0
  152.1608  144.3131  159.8677 C   0  0  0  0  0  0  0  0  0  0  0  0
  151.4136  144.6710  158.5806 C   0  0  0  0  0  0  0  0  0  0  0  0
  150.8291  143.4518  158.1475 O   0  0  0  0  0  0  0  0  0  0  0  0
  150.1279  134.3903  154.2409 C   0  0  0  0  0  0  0  0  0  0  0  0
  150.8046  132.3437  154.4574 H   0  0  0  0  0  0  0  0  0  0  0  0
  146.0780  128.4316  150.6915 H   0  0  0  0  0  0  0  0  0  0  0  0
  146.5182  128.3487  152.3943 H   0  0  0  0  0  0  0  0  0  0  0  0
  147.6279  129.0630  151.2249 H   0  0  0  0  0  0  0  0  0  0  0  0
  145.9908  130.9614  150.8395 H   0  0  0  0  0  0  0  0  0  0  0  0
  144.8552  130.1842  151.9156 H   0  0  0  0  0  0  0  0  0  0  0  0
  147.1514  132.5898  151.7052 H   0  0  0  0  0  0  0  0  0  0  0  0
  145.7446  132.9205  152.7088 H   0  0  0  0  0  0  0  0  0  0  0  0
  147.6624  133.9787  153.7602 H   0  0  0  0  0  0  0  0  0  0  0  0
  147.1759  132.6239  154.7708 H   0  0  0  0  0  0  0  0  0  0  0  0
  148.3043  133.1405  155.9720 H   0  0  0  0  0  0  0  0  0  0  0  0
  149.4991  131.9317  156.4436 H   0  0  0  0  0  0  0  0  0  0  0  0
  149.5804  134.5022  157.4048 H   0  0  0  0  0  0  0  0  0  0  0  0
  151.0859  133.6409  157.0514 H   0  0  0  0  0  0  0  0  0  0  0  0
  151.5995  138.8400  153.8782 H   0  0  0  0  0  0  0  0  0  0  0  0
  151.1940  137.4059  160.1409 H   0  0  0  0  0  0  0  0  0  0  0  0
  151.7829  139.8159  159.9870 H   0  0  0  0  0  0  0  0  0  0  0  0
  152.9450  140.0323  158.7064 H   0  0  0  0  0  0  0  0  0  0  0  0
  150.8362  140.8352  157.2939 H   0  0  0  0  0  0  0  0  0  0  0  0
  149.1673  140.6166  158.5133 H   0  0  0  0  0  0  0  0  0  0  0  0
  152.6026  142.4752  157.8071 H   0  0  0  0  0  0  0  0  0  0  0  0
  151.4055  142.4441  160.6086 H   0  0  0  0  0  0  0  0  0  0  0  0
  153.1141  142.3669  160.1761 H   0  0  0  0  0  0  0  0  0  0  0  0
  151.6608  144.7175  160.7486 H   0  0  0  0  0  0  0  0  0  0  0  0
  153.1768  144.7095  159.8457 H   0  0  0  0  0  0  0  0  0  0  0  0
  150.6553  145.4390  158.7339 H   0  0  0  0  0  0  0  0  0  0  0  0
  152.1085  145.0253  157.8176 H   0  0  0  0  0  0  0  0  0  0  0  0
  150.9176  134.5307  153.5026 H   0  0  0  0  0  0  0  0  0  0  0  0
  149.2230  134.8849  153.8857 H   0  0  0  0  0  0  0  0  0  0  0  0
  1  2  1  0  0  0  0
  1 30  1  0  0  0  0
  1 31  1  0  0  0  0
  1 32  1  0  0  0  0
  2  3  1  0  0  0  0
  2 33  1  0  0  0  0
  2 34  1  0  0  0  0
  3  4  1  0  0  0  0
  4  5  1  0  0  0  0
  4 35  1  0  0  0  0
  4 36  1  0  0  0  0
  5  6  1  0  0  0  0
  5 37  1  0  0  0  0
  5 38  1  0  0  0  0
  6  7  1  0  0  0  0
  7 29  1  0  0  0  0
  7 28  1  0  0  0  0
  7  8  1  0  0  0  0
  8  9  1  0  0  0  0
  8 39  1  0  0  0  0
  8 40  1  0  0  0  0
  9 10  1  0  0  0  0
  9 41  1  0  0  0  0
  9 42  1  0  0  0  0
 10 11  1  0  0  0  0
 10 28  1  0  0  0  0
 11 16  1  0  0  0  0
 11 12  2  0  0  0  0
 12 13  1  0  0  0  0
 13 14  2  0  0  0  0
 13 43  1  0  0  0  0
 14 15  1  0  0  0  0
 15 19  1  0  0  0  0
 15 16  2  0  0  0  0
 16 17  1  0  0  0  0
 17 18  2  0  0  0  0
 18 19  1  0  0  0  0
 18 44  1  0  0  0  0
 19 20  1  0  0  0  0
 20 21  1  0  0  0  0
 20 45  1  0  0  0  0
 20 46  1  0  0  0  0
 21 22  1  0  0  0  0
 21 23  1  0  0  0  0
 21 47  1  0  0  0  0
 22 48  1  0  0  0  0
 23 27  1  0  0  0  0
 23 24  1  0  0  0  0
 23 49  1  0  0  0  0
 24 25  1  0  0  0  0
 24 50  1  0  0  0  0
 24 51  1  0  0  0  0
 25 26  1  0  0  0  0
 25 52  1  0  0  0  0
 25 53  1  0  0  0  0
 26 27  1  0  0  0  0
 26 54  1  0  0  0  0
 26 55  1  0  0  0  0
 28 56  1  0  0  0  0
 28 57  1  0  0  0  0
M  END
> <s_m_source_file>
AV-unprocessed.smi

> <i_m_source_file_index>
246

> <i_lp_mmshare_version>
43012

> <i_f3d_flags>
0

> <s_epik_input>
W0NIM11bQ0gyXU9bQ0gyXVtDSDJdT1tDQEhdMVtDSDJdW0NIMl1OKFtDSDJdMSljKG5bY0hdbjIpYyhjMjMpbltjSF1uM1tDSDJdW0NASF0oW09IXSlbQ0BASF00W0NIMl1bQ0gyXVtDSDJdTzQ=

> <s_epik_cmdline>
J2VwaWtfcHl0aG9uJywgJy1waCcsICc3LjAnLCAnLXRuJywgJzgnLCAnLW1hJywgJzIwMCcsICctbWV0YWxfYmluZGluZycsICctaW1hZScsICc8aW5maWxlLm1hZT4nLCAnLW9tYWUnLCAnPG91dGZpbGUubWFlPic=

> <r_lp_tautomer_probability>
1

> <r_epik_Ionization_Penalty>
0.0024631

> <r_epik_Ionization_Penalty_Charging>
0

> <r_epik_Ionization_Penalty_Neutral>
0.0024631

> <r_epik_State_Penalty>
0.00162428

> <r_epik_Charging_Adjusted_Penalty>
0.00162428

> <i_epik_Tot_Q>
0

> <i_epik_Tot_abs_Q>
0

> <r_epik_Metal_State_Penalty>
-0

> <b_epik_Metal_Only>
0

> <s_lp_Force_Field>
OPLS_2005

> <r_lp_Energy>
48.0332

> <b_lp_Chiralities_Consistent>
1

> <s_lp_Variant>
AV-unprocessed.smi:246-4

> <Gold.Version>
5.8.1

> <Gold.Id.Protein>
6NUR|6NUR_protein|mol2

> <Gold.PLP.Fitness>
50.9186

> <Gold.PLP.PLP>
-46.5809

> <Gold.PLP.part.hbond>
-2.2667

> <Gold.PLP.part.metal>
0.0000

> <Gold.PLP.part.buried>
-9.6170

> <Gold.PLP.part.nonpolar>
-36.2113

> <Gold.PLP.part.repulsive>
0.5416

> <Gold.PLP.ligand.clash>
0.0000

> <Gold.PLP.ligand.torsion>
0.7929

> <Gold.PLP.Chemscore.Hbond>
1.8480

> <Gold.PLP.Chemscore.CHOScore>
0.0000

> <Gold.PLP.Chemscore.Metal>
0.0000

> <Gold.Chemscore.Hbonds>
donor molecule, donor type, donor heavy atom, donor atom, acceptor molecule, acceptor atom, score
      P1  H  6896  6909       L1    17  0.72
      P1  H 10752 10764       L1    12  0.08

> <Gold.PLP.Chemscore.Internal.Correction>
0.3795

> <Gold.Rescore>
     Score         DG    S(hbond)    S(metal)    S(lipo)     H(rot)  DE(clash)    DE(int)     intcor
     12.58     -14.51       1.25        0.00     109.25       3.10       0.18       1.75       ----

> <Gold.Chemscore.Fitness>
12.5784

> <Gold.Chemscore.DG>
-14.5056

> <Gold.Chemscore.ZeroCoef>
-5.4800

> <Gold.Chemscore.Hbond>
1.2533

> <Gold.Chemscore.Metal>
0.0000

> <Gold.Chemscore.Lipo>
109.2493

> <Gold.Chemscore.Internal_Hbond>
0.0000

> <Gold.Chemscore.DEClash>
0.1805

> <Gold.Chemscore.DEInternal>
1.7468

> <Gold.Chemscore.Rot>
3.1026

> <Gold.Chemscore.Internal.Correction>
   9.000000E+99

> <Gold.Chemscore.Hbonds>
donor molecule, donor type, donor heavy atom, donor atom, acceptor molecule, acceptor atom, score
      P1  H  6896  6909       L1    17  0.18

> <Gold.Chemscore.Hbond.Weighted>
-4.1861

> <Gold.Chemscore.Metal.Weighted>
-0.0000

> <Gold.Chemscore.Lipo.Weighted>
-12.7822

> <Gold.Chemscore.Internal_Hbond.Weighted>
0.0000

> <Gold.Chemscore.DEClash.Weighted>
0.1805

> <Gold.Chemscore.DEInternal.Weighted>
1.7468

> <Gold.Chemscore.Rot.Weighted>
7.9426

> <Gold.Chemscore.Internal.Correction.Weighted>
   9.000000E+99

> <Gold.Protein.RotatedTorsions>
[ 6907 6896 6895 6894 ] final   80.34 input  -60.11 | X-H torsion
[ 7974 7965 7964 7962 ] final -103.49 input  175.53 | X-H torsion
[ 8008 7997 7996 7995 ] final  108.17 input   59.86 | X-H torsion
[ 10167 10162 10161 10158 ] final  -69.96 input  -65.29 | X-H torsion
[ 10718 10713 10712 10709 ] final  128.22 input   66.30 | X-H torsion
[ 10763 10752 10751 10750 ] final  -78.85 input  -60.55 | X-H torsion
[ 11005 11000 10999 10996 ] final  124.00 input  -57.11 | X-H torsion

> <Gold.Protein.ActiveResidues>
 VAL166  LYS551  ARG553  GLY616  TRP617  ASP618  TYR619  PRO620  LYS621  CYS622 
 ASP623  PHE694  ASN695  SER759  ASP760  ASP761  ALA762  ILE779  LEU786  VAL792 
 PHE793  MET794  SER795  GLU796  ALA797  LYS798  CYS799  TRP800  GLU811  SER814 

> <Gold.Protein.RotatedAtoms>
  152.5231  134.3372  159.9203 H   0  0  0  0  0  0  0  0  0  0  0  0  # atno 6907 bound_to 6896
  151.3322  133.3990  159.2671 H   0  0  0  0  0  0  0  0  0  0  0  0  # atno 6908 bound_to 6896
  150.9872  134.9232  159.7936 H   0  0  0  0  0  0  0  0  0  0  0  0  # atno 6909 bound_to 6896
  145.2553  140.9251  143.3072 H   0  0  0  0  0  0  0  0  0  0  0  0  # atno 7974 bound_to 7965
  156.1882  140.3081  155.9280 H   0  0  0  0  0  0  0  0  0  0  0  0  # atno 8008 bound_to 7997
  155.3233  140.0457  157.3057 H   0  0  0  0  0  0  0  0  0  0  0  0  # atno 8009 bound_to 7997
  154.5421  140.2264  155.8634 H   0  0  0  0  0  0  0  0  0  0  0  0  # atno 8010 bound_to 7997
  140.5390  143.2316  151.7124 H   0  0  0  0  0  0  0  0  0  0  0  0  # atno 10167 bound_to 10162
  157.5264  131.1098  150.9076 H   0  0  0  0  0  0  0  0  0  0  0  0  # atno 10718 bound_to 10713
  154.5312  135.5716  153.6760 H   0  0  0  0  0  0  0  0  0  0  0  0  # atno 10763 bound_to 10752
  152.9940  135.6205  154.2627 H   0  0  0  0  0  0  0  0  0  0  0  0  # atno 10764 bound_to 10752
  154.2553  135.2858  155.2780 H   0  0  0  0  0  0  0  0  0  0  0  0  # atno 10765 bound_to 10752
  139.9338  134.9640  156.8344 H   0  0  0  0  0  0  0  0  0  0  0  0  # atno 11005 bound_to 11000
  144.9467  139.4128  143.6422 LP  0  0  0  0  0  0  0  0  0  0  0  0  # atno 17320 bound_to 7965
  146.3291  139.8453  142.8883 LP  0  0  0  0  0  0  0  0  0  0  0  0  # atno 17321 bound_to 7965
  139.4981  144.3998  152.0193 LP  0  0  0  0  0  0  0  0  0  0  0  0  # atno 17342 bound_to 10162
  140.3106  144.3542  150.6035 LP  0  0  0  0  0  0  0  0  0  0  0  0  # atno 17343 bound_to 10162
  156.9671  130.5477  149.5288 LP  0  0  0  0  0  0  0  0  0  0  0  0  # atno 17370 bound_to 10713
  156.0390  130.5475  150.8724 LP  0  0  0  0  0  0  0  0  0  0  0  0  # atno 17371 bound_to 10713
  140.6129  134.0065  155.7585 LP  0  0  0  0  0  0  0  0  0  0  0  0  # atno 17394 bound_to 11000
  141.0942  133.9870  157.3188 LP  0  0  0  0  0  0  0  0  0  0  0  0  # atno 17395 bound_to 11000

$$$$
