AV-unprocessed.smi:1521|AV-procd|sdf|6133|dock7
  -GOLD-   22720 6273D 1   1.00000     0.00000
 Structure written by MMmdl.
 35 36  0  0  0  0  0  0  0  0  2 V2000
  149.6308  141.2966  154.0227 O   0  0  0  0  0  0  0  0  0  0  0  0
  148.9375  140.7480  154.8784 C   0  0  0  0  0  0  0  0  0  0  0  0
  147.7451  140.1961  154.6122 N   0  0  0  0  0  0  0  0  0  0  0  0
  147.1184  140.1343  153.2958 C   0  0  0  0  0  0  0  0  0  0  0  0
  146.9664  138.6824  152.8101 C   0  0  1  0  0  0  0  0  0  0  0  0
  146.1322  137.8316  153.7885 C   0  0  0  0  0  0  0  0  0  0  0  0
  145.9987  136.5146  153.2698 O   0  0  0  0  0  0  0  0  0  0  0  0
  145.3453  136.5204  152.0079 C   0  0  0  0  0  0  0  0  0  0  0  0
  146.1644  137.3711  151.0239 C   0  0  0  0  0  0  0  0  0  0  0  0
  146.2992  138.6830  151.5522 O   0  0  0  0  0  0  0  0  0  0  0  0
  149.2466  140.6019  156.1798 N   0  0  0  0  0  0  0  0  0  0  0  0
  150.3903  141.0063  156.8916 C   0  0  0  0  0  0  0  0  0  0  0  0
  150.5665  142.2262  157.4720 C   0  0  0  0  0  0  0  0  0  0  0  0
  151.7824  142.5790  158.1946 C   0  0  0  0  0  0  0  0  0  0  0  0
  151.9782  143.8974  158.9223 C   0  0  0  0  0  0  0  0  0  0  0  0
  152.8601  144.6696  158.2871 F   0  0  0  0  0  0  0  0  0  0  0  0
  150.8216  144.5557  158.9875 F   0  0  0  0  0  0  0  0  0  0  0  0
  152.4139  143.6973  160.1663 F   0  0  0  0  0  0  0  0  0  0  0  0
  152.6909  141.5394  158.2319 C   0  0  0  0  0  0  0  0  0  0  0  0
  152.6021  140.3120  157.6751 N   0  5  0  0  0  0  0  0  0  0  0  0
  151.4631  139.9947  156.9970 C   0  0  0  0  0  0  0  0  0  0  0  0
  151.3135  138.8894  156.4744 O   0  0  0  0  0  0  0  0  0  0  0  0
  147.2428  139.7661  155.3747 H   0  0  0  0  0  0  0  0  0  0  0  0
  146.1344  140.5957  153.3833 H   0  0  0  0  0  0  0  0  0  0  0  0
  147.6728  140.7297  152.5685 H   0  0  0  0  0  0  0  0  0  0  0  0
  147.9570  138.2374  152.6983 H   0  0  0  0  0  0  0  0  0  0  0  0
  146.6243  137.7771  154.7596 H   0  0  0  0  0  0  0  0  0  0  0  0
  145.1475  138.2726  153.9516 H   0  0  0  0  0  0  0  0  0  0  0  0
  145.2591  135.4964  151.6449 H   0  0  0  0  0  0  0  0  0  0  0  0
  144.3322  136.9124  152.1102 H   0  0  0  0  0  0  0  0  0  0  0  0
  147.1474  136.9306  150.8498 H   0  0  0  0  0  0  0  0  0  0  0  0
  145.6608  137.4266  150.0589 H   0  0  0  0  0  0  0  0  0  0  0  0
  148.5681  140.1113  156.7437 H   0  0  0  0  0  0  0  0  0  0  0  0
  149.8052  142.9855  157.4195 H   0  0  0  0  0  0  0  0  0  0  0  0
  153.6294  141.7199  158.7984 H   0  0  0  0  0  0  0  0  0  0  0  0
  1  2  2  0  0  0  0
  2  3  1  0  0  0  0
  2 11  1  0  0  0  0
  3  4  1  0  0  0  0
  3 23  1  0  0  0  0
  4  5  1  0  0  0  0
  4 24  1  0  0  0  0
  4 25  1  0  0  0  0
  5 10  1  0  0  0  0
  5  6  1  0  0  0  0
  5 26  1  0  0  0  0
  6  7  1  0  0  0  0
  6 27  1  0  0  0  0
  6 28  1  0  0  0  0
  7  8  1  0  0  0  0
  8  9  1  0  0  0  0
  8 29  1  0  0  0  0
  8 30  1  0  0  0  0
  9 10  1  0  0  0  0
  9 31  1  0  0  0  0
  9 32  1  0  0  0  0
 11 12  1  0  0  0  0
 11 33  1  0  0  0  0
 12 21  1  0  0  0  0
 12 13  2  0  0  0  0
 13 14  1  0  0  0  0
 13 34  1  0  0  0  0
 14 15  1  0  0  0  0
 14 19  2  0  0  0  0
 15 16  1  0  0  0  0
 15 17  1  0  0  0  0
 15 18  1  0  0  0  0
 19 20  1  0  0  0  0
 19 35  1  0  0  0  0
 20 21  1  0  0  0  0
 21 22  2  0  0  0  0
M  CHG  1  20  -1
M  END
> <s_m_source_file>
AV-unprocessed.smi

> <i_m_source_file_index>
1521

> <i_lp_mmshare_version>
43012

> <i_f3d_flags>
0

> <s_epik_input>
Tz1jMVtuSF1bY0hdYyhDKEYpKEYpRilbY0hdYzFbTkhdQyg9TylbTkhdW0NIMl1bQ0BASF0yW0NIMl1PW0NIMl1bQ0gyXU8y

> <s_epik_cmdline>
J2VwaWtfcHl0aG9uJywgJy1waCcsICc3LjAnLCAnLXRuJywgJzgnLCAnLW1hJywgJzIwMCcsICctbWV0YWxfYmluZGluZycsICctaW1hZScsICc8aW5maWxlLm1hZT4nLCAnLW9tYWUnLCAnPG91dGZpbGUubWFlPic=

> <r_lp_tautomer_probability>
1

> <r_epik_Ionization_Penalty>
3.1412

> <r_epik_Ionization_Penalty_Charging>
0.17015

> <r_epik_Ionization_Penalty_Neutral>
2.97105

> <r_epik_State_Penalty>
2.96707

> <r_epik_Charging_Adjusted_Penalty>
3.13722

> <i_epik_Tot_Q>
-1

> <i_epik_Tot_abs_Q>
1

> <r_epik_Metal_State_Penalty>
0.451298

> <b_epik_Metal_Only>
1

> <s_lp_Force_Field>
OPLS_2005

> <r_lp_Energy>
21.3

> <b_lp_Chiralities_Consistent>
1

> <s_lp_Variant>
AV-unprocessed.smi:1521-4

> <Gold.Version>
5.8.1

> <Gold.Id.Protein>
6NUR|6NUR_protein|mol2

> <Gold.PLP.Fitness>
40.2580

> <Gold.PLP.PLP>
-34.1369

> <Gold.PLP.part.hbond>
-3.0000

> <Gold.PLP.part.metal>
0.0000

> <Gold.PLP.part.buried>
-0.2369

> <Gold.PLP.part.nonpolar>
-31.7570

> <Gold.PLP.part.repulsive>
1.6750

> <Gold.PLP.ligand.clash>
0.0000

> <Gold.PLP.ligand.torsion>
1.2107

> <Gold.PLP.Chemscore.Hbond>
2.8304

> <Gold.PLP.Chemscore.CHOScore>
0.0000

> <Gold.PLP.Chemscore.Metal>
0.0000

> <Gold.Chemscore.Hbonds>
donor molecule, donor type, donor heavy atom, donor atom, acceptor molecule, acceptor atom, score
      P1  H  7989  7998       L1     1  0.28
      P1  H  7997  8008       L1    20  1.81
      P1  H  8011  8017       L1     1  0.75

> <Gold.PLP.Chemscore.Internal.Correction>
0.0513

> <Gold.Rescore>
     Score         DG    S(hbond)    S(metal)    S(lipo)     H(rot)  DE(clash)    DE(int)     intcor
     11.97     -15.12       1.21        0.00      77.69       1.36       2.09       1.06       ----

> <Gold.Chemscore.Fitness>
11.9724

> <Gold.Chemscore.DG>
-15.1172

> <Gold.Chemscore.ZeroCoef>
-5.4800

> <Gold.Chemscore.Hbond>
1.2094

> <Gold.Chemscore.Metal>
0.0000

> <Gold.Chemscore.Lipo>
77.6885

> <Gold.Chemscore.Internal_Hbond>
0.0000

> <Gold.Chemscore.DEClash>
2.0876

> <Gold.Chemscore.DEInternal>
1.0571

> <Gold.Chemscore.Rot>
1.3640

> <Gold.Chemscore.Internal.Correction>
   9.000000E+99

> <Gold.Chemscore.Hbonds>
donor molecule, donor type, donor heavy atom, donor atom, acceptor molecule, acceptor atom, score
      P1  H  7989  7998       L1     1  0.27
      P1  H  7997  8008       L1    20  0.29
      P1  H  8011  8017       L1     1  0.69

> <Gold.Chemscore.Hbond.Weighted>
-4.0394

> <Gold.Chemscore.Metal.Weighted>
-0.0000

> <Gold.Chemscore.Lipo.Weighted>
-9.0896

> <Gold.Chemscore.Internal_Hbond.Weighted>
0.0000

> <Gold.Chemscore.DEClash.Weighted>
2.0876

> <Gold.Chemscore.DEInternal.Weighted>
1.0571

> <Gold.Chemscore.Rot.Weighted>
3.4918

> <Gold.Chemscore.Internal.Correction.Weighted>
   9.000000E+99

> <Gold.Protein.RotatedTorsions>
[ 6907 6896 6895 6894 ] final  -84.42 input  -60.11 | X-H torsion
[ 7974 7965 7964 7962 ] final -110.72 input  175.53 | X-H torsion
[ 8008 7997 7996 7995 ] final  -71.99 input   59.86 | X-H torsion
[ 10167 10162 10161 10158 ] final -164.92 input  -65.29 | X-H torsion
[ 10718 10713 10712 10709 ] final  -23.14 input   66.30 | X-H torsion
[ 10763 10752 10751 10750 ] final   40.07 input  -60.55 | X-H torsion
[ 11005 11000 10999 10996 ] final   59.42 input  -57.11 | X-H torsion

> <Gold.Protein.ActiveResidues>
 VAL166  LYS551  ARG553  GLY616  TRP617  ASP618  TYR619  PRO620  LYS621  CYS622 
 ASP623  PHE694  ASN695  SER759  ASP760  ASP761  ALA762  ILE779  LEU786  VAL792 
 PHE793  MET794  SER795  GLU796  ALA797  LYS798  CYS799  TRP800  GLU811  SER814 

> <Gold.Protein.RotatedAtoms>
  150.6877  134.3361  159.4847 H   0  0  0  0  0  0  0  0  0  0  0  0  # atno 6907 bound_to 6896
  152.1220  134.9196  160.0572 H   0  0  0  0  0  0  0  0  0  0  0  0  # atno 6908 bound_to 6896
  152.0398  133.3938  159.4369 H   0  0  0  0  0  0  0  0  0  0  0  0  # atno 6909 bound_to 6896
  145.1648  140.8896  143.3570 H   0  0  0  0  0  0  0  0  0  0  0  0  # atno 7974 bound_to 7965
  154.5131  140.0805  156.8028 H   0  0  0  0  0  0  0  0  0  0  0  0  # atno 8008 bound_to 7997
  155.3742  140.3424  155.4226 H   0  0  0  0  0  0  0  0  0  0  0  0  # atno 8009 bound_to 7997
  156.1596  140.1584  156.8622 H   0  0  0  0  0  0  0  0  0  0  0  0  # atno 8010 bound_to 7997
  139.6218  144.0610  152.1939 H   0  0  0  0  0  0  0  0  0  0  0  0  # atno 10167 bound_to 10162
  156.4951  130.4575  149.6733 H   0  0  0  0  0  0  0  0  0  0  0  0  # atno 10718 bound_to 10713
  152.9947  135.6202  154.2567 H   0  0  0  0  0  0  0  0  0  0  0  0  # atno 10763 bound_to 10752
  154.2304  135.2792  155.2893 H   0  0  0  0  0  0  0  0  0  0  0  0  # atno 10764 bound_to 10752
  154.5454  135.5749  153.6933 H   0  0  0  0  0  0  0  0  0  0  0  0  # atno 10765 bound_to 10752
  140.0305  134.6019  155.9514 H   0  0  0  0  0  0  0  0  0  0  0  0  # atno 11005 bound_to 11000
  145.0294  139.3354  143.6032 LP  0  0  0  0  0  0  0  0  0  0  0  0  # atno 17320 bound_to 7965
  146.3477  139.9625  142.8715 LP  0  0  0  0  0  0  0  0  0  0  0  0  # atno 17321 bound_to 7965
  140.0254  144.6121  150.7532 LP  0  0  0  0  0  0  0  0  0  0  0  0  # atno 17342 bound_to 10162
  140.7386  143.2781  151.3682 LP  0  0  0  0  0  0  0  0  0  0  0  0  # atno 17343 bound_to 10162
  156.3388  130.7371  151.2313 LP  0  0  0  0  0  0  0  0  0  0  0  0  # atno 17370 bound_to 10713
  157.7469  131.0409  150.4622 LP  0  0  0  0  0  0  0  0  0  0  0  0  # atno 17371 bound_to 10713
  141.1828  133.6549  156.5091 LP  0  0  0  0  0  0  0  0  0  0  0  0  # atno 17394 bound_to 11000
  140.4234  134.7167  157.4902 LP  0  0  0  0  0  0  0  0  0  0  0  0  # atno 17395 bound_to 11000

$$$$
