AV-unprocessed.smi:332|AV-procd|sdf|2358|dock1
  -GOLD-   2262022273D 1   1.00000     0.00000
 Structure written by MMmdl.
 42 44  0  0  0  0  0  0  0  0  1 V2000
  149.4332  141.3933  154.6287 C   0  0  0  0  0  0  0  0  0  0  0  0
  149.6906  141.0006  156.0945 C   0  0  2  0  0  0  0  0  0  0  0  0
  150.5978  141.9789  156.6918 N   0  0  0  0  0  0  0  0  0  0  0  0
  151.0489  141.9582  157.9553 C   0  0  0  0  0  0  0  0  0  0  0  0
  150.7085  141.1118  158.7827 O   0  0  0  0  0  0  0  0  0  0  0  0
  152.0195  143.0829  158.3404 C   0  0  0  0  0  0  0  0  0  0  0  0
  152.4024  143.0502  159.7615 N   0  0  0  0  0  0  0  0  0  0  0  0
  153.0948  141.9094  160.2148 C   0  0  0  0  0  0  0  0  0  0  0  0
  153.4899  141.7792  161.4911 C   0  0  0  0  0  0  0  0  0  0  0  0
  153.1877  142.8497  162.4117 C   0  0  0  0  0  0  0  0  0  0  0  0
  152.5287  143.9467  161.9880 C   0  0  0  0  0  0  0  0  0  0  0  0
  152.0960  144.0938  160.5933 C   0  0  0  0  0  0  0  0  0  0  0  0
  151.4947  145.0929  160.1969 O   0  0  0  0  0  0  0  0  0  0  0  0
  150.2941  139.5817  156.2423 C   0  0  1  0  0  0  0  0  0  0  0  0
  149.4238  138.4658  155.6087 C   0  0  0  0  0  0  0  0  0  0  0  0
  150.4052  137.7347  154.6763 C   0  0  2  0  0  0  0  0  0  0  0  0
  151.4446  136.9706  155.5162 C   0  0  0  0  0  0  0  0  0  0  0  0
  152.3239  138.1040  156.0766 C   0  0  0  0  0  0  0  0  0  0  0  0
  151.6469  139.3697  155.5159 C   0  0  1  0  0  0  0  0  0  0  0  0
  151.2247  138.8949  154.1289 C   0  0  0  0  0  0  0  0  0  0  0  0
  148.6980  140.7429  154.1569 H   0  0  0  0  0  0  0  0  0  0  0  0
  150.3489  141.3451  154.0384 H   0  0  0  0  0  0  0  0  0  0  0  0
  149.0473  142.4109  154.5580 H   0  0  0  0  0  0  0  0  0  0  0  0
  148.7383  141.0242  156.6271 H   0  0  0  0  0  0  0  0  0  0  0  0
  150.9275  142.7170  156.0869 H   0  0  0  0  0  0  0  0  0  0  0  0
  152.9121  143.0293  157.7136 H   0  0  0  0  0  0  0  0  0  0  0  0
  151.5506  144.0353  158.0887 H   0  0  0  0  0  0  0  0  0  0  0  0
  153.2878  141.1580  159.4628 H   0  0  0  0  0  0  0  0  0  0  0  0
  154.0227  140.8985  161.8193 H   0  0  0  0  0  0  0  0  0  0  0  0
  153.4931  142.7712  163.4450 H   0  0  0  0  0  0  0  0  0  0  0  0
  152.3121  144.7379  162.6909 H   0  0  0  0  0  0  0  0  0  0  0  0
  150.4192  139.3809  157.3077 H   0  0  0  0  0  0  0  0  0  0  0  0
  148.9896  137.8029  156.3581 H   0  0  0  0  0  0  0  0  0  0  0  0
  148.6027  138.8799  155.0218 H   0  0  0  0  0  0  0  0  0  0  0  0
  149.9145  137.1201  153.9210 H   0  0  0  0  0  0  0  0  0  0  0  0
  150.9806  136.3748  156.3031 H   0  0  0  0  0  0  0  0  0  0  0  0
  152.0356  136.3000  154.8911 H   0  0  0  0  0  0  0  0  0  0  0  0
  152.3689  138.0992  157.1662 H   0  0  0  0  0  0  0  0  0  0  0  0
  153.3446  138.0145  155.7024 H   0  0  0  0  0  0  0  0  0  0  0  0
  152.3083  140.2351  155.5171 H   0  0  0  0  0  0  0  0  0  0  0  0
  152.0629  138.5762  153.5065 H   0  0  0  0  0  0  0  0  0  0  0  0
  150.6294  139.6249  153.5783 H   0  0  0  0  0  0  0  0  0  0  0  0
  1  2  1  0  0  0  0
  1 21  1  0  0  0  0
  1 22  1  0  0  0  0
  1 23  1  0  0  0  0
  2  3  1  0  0  0  0
  2 14  1  0  0  0  0
  2 24  1  0  0  0  0
  3  4  1  0  0  0  0
  3 25  1  0  0  0  0
  4  5  2  0  0  0  0
  4  6  1  0  0  0  0
  6  7  1  0  0  0  0
  6 26  1  0  0  0  0
  6 27  1  0  0  0  0
  7 12  1  0  0  0  0
  7  8  1  0  0  0  0
  8  9  2  0  0  0  0
  8 28  1  0  0  0  0
  9 10  1  0  0  0  0
  9 29  1  0  0  0  0
 10 11  2  0  0  0  0
 10 30  1  0  0  0  0
 11 12  1  0  0  0  0
 11 31  1  0  0  0  0
 12 13  2  0  0  0  0
 14 19  1  0  0  0  0
 14 15  1  0  0  0  0
 14 32  1  0  0  0  0
 15 16  1  0  0  0  0
 15 33  1  0  0  0  0
 15 34  1  0  0  0  0
 16 20  1  0  0  0  0
 16 17  1  0  0  0  0
 16 35  1  0  0  0  0
 17 18  1  0  0  0  0
 17 36  1  0  0  0  0
 17 37  1  0  0  0  0
 18 19  1  0  0  0  0
 18 38  1  0  0  0  0
 18 39  1  0  0  0  0
 19 20  1  0  0  0  0
 19 40  1  0  0  0  0
 20 41  1  0  0  0  0
 20 42  1  0  0  0  0
M  END
> <s_m_source_file>
AV-unprocessed.smi

> <i_m_source_file_index>
332

> <i_lp_mmshare_version>
43012

> <i_f3d_flags>
0

> <s_epik_input>
W0NIMl0xW0NIMl1bQ0BIXShbQ0gyXTIpW0NAQEhdKFtDSDJdW0NAQEhdMTIpW0NASF0oW0NIM10pW05IXUMoPU8pW0NIMl1uM1tjSF1bY0hdW2NIXVtjSF1jMz1P

> <s_epik_cmdline>
J2VwaWtfcHl0aG9uJywgJy1waCcsICc3LjAnLCAnLXRuJywgJzgnLCAnLW1hJywgJzIwMCcsICctbWV0YWxfYmluZGluZycsICctaW1hZScsICc8aW5maWxlLm1hZT4nLCAnLW9tYWUnLCAnPG91dGZpbGUubWFlPic=

> <r_lp_tautomer_probability>
1

> <r_epik_Ionization_Penalty>
4.05802e-07

> <r_epik_Ionization_Penalty_Charging>
3.84175e-07

> <r_epik_Ionization_Penalty_Neutral>
2.16269e-08

> <r_epik_State_Penalty>
-0

> <r_epik_Charging_Adjusted_Penalty>
3.84175e-07

> <i_epik_Tot_Q>
0

> <i_epik_Tot_abs_Q>
0

> <r_epik_Metal_State_Penalty>
-0

> <b_epik_Metal_Only>
0

> <s_lp_Force_Field>
OPLS_2005

> <r_lp_Energy>
59.8508

> <b_lp_Chiralities_Consistent>
1

> <s_lp_Variant>
AV-unprocessed.smi:332-7

> <Gold.Version>
5.8.1

> <Gold.Id.Protein>
6NUR|6NUR_protein|mol2

> <Gold.PLP.Fitness>
43.8361

> <Gold.PLP.PLP>
-43.8594

> <Gold.PLP.part.hbond>
-0.0472

> <Gold.PLP.part.metal>
0.0000

> <Gold.PLP.part.buried>
-5.2346

> <Gold.PLP.part.nonpolar>
-37.4556

> <Gold.PLP.part.repulsive>
0.2023

> <Gold.PLP.ligand.clash>
0.0000

> <Gold.PLP.ligand.torsion>
0.0288

> <Gold.PLP.Chemscore.Hbond>
0.0000

> <Gold.PLP.Chemscore.CHOScore>
0.0000

> <Gold.PLP.Chemscore.Metal>
0.0000

> <Gold.PLP.Chemscore.Internal.Correction>
0.0342

> <Gold.Rescore>
     Score         DG    S(hbond)    S(metal)    S(lipo)     H(rot)  DE(clash)    DE(int)     intcor
     14.01     -14.45       0.00        0.00     110.37       1.54       0.18       0.27       ----

> <Gold.Chemscore.Fitness>
14.0079

> <Gold.Chemscore.DG>
-14.4514

> <Gold.Chemscore.ZeroCoef>
-5.4800

> <Gold.Chemscore.Hbond>
0.0000

> <Gold.Chemscore.Metal>
0.0000

> <Gold.Chemscore.Lipo>
110.3699

> <Gold.Chemscore.Internal_Hbond>
0.0000

> <Gold.Chemscore.DEClash>
0.1779

> <Gold.Chemscore.DEInternal>
0.2655

> <Gold.Chemscore.Rot>
1.5398

> <Gold.Chemscore.Internal.Correction>
   9.000000E+99

> <Gold.Chemscore.Hbond.Weighted>
-0.0000

> <Gold.Chemscore.Metal.Weighted>
-0.0000

> <Gold.Chemscore.Lipo.Weighted>
-12.9133

> <Gold.Chemscore.Internal_Hbond.Weighted>
0.0000

> <Gold.Chemscore.DEClash.Weighted>
0.1779

> <Gold.Chemscore.DEInternal.Weighted>
0.2655

> <Gold.Chemscore.Rot.Weighted>
3.9419

> <Gold.Chemscore.Internal.Correction.Weighted>
   9.000000E+99

> <Gold.Protein.RotatedTorsions>
[ 6907 6896 6895 6894 ] final -101.37 input  -60.11 | X-H torsion
[ 7974 7965 7964 7962 ] final -177.51 input  175.53 | X-H torsion
[ 8008 7997 7996 7995 ] final   54.98 input   59.86 | X-H torsion
[ 10167 10162 10161 10158 ] final   78.91 input  -65.29 | X-H torsion
[ 10718 10713 10712 10709 ] final -115.88 input   66.30 | X-H torsion
[ 10763 10752 10751 10750 ] final   23.63 input  -60.55 | X-H torsion
[ 11005 11000 10999 10996 ] final  111.25 input  -57.11 | X-H torsion

> <Gold.Protein.ActiveResidues>
 VAL166  LYS551  ARG553  GLY616  TRP617  ASP618  TYR619  PRO620  LYS621  CYS622 
 ASP623  PHE694  ASN695  SER759  ASP760  ASP761  ALA762  ILE779  LEU786  VAL792 
 PHE793  MET794  SER795  GLU796  ALA797  LYS798  CYS799  TRP800  GLU811  SER814 

> <Gold.Protein.RotatedAtoms>
  150.7152  134.0744  159.3875 H   0  0  0  0  0  0  0  0  0  0  0  0  # atno 6907 bound_to 6896
  151.8726  135.0481  160.0490 H   0  0  0  0  0  0  0  0  0  0  0  0  # atno 6908 bound_to 6896
  152.2631  133.5279  159.5430 H   0  0  0  0  0  0  0  0  0  0  0  0  # atno 6909 bound_to 6896
  144.7128  140.1008  143.6416 H   0  0  0  0  0  0  0  0  0  0  0  0  # atno 7974 bound_to 7965
  155.4935  140.3472  155.4359 H   0  0  0  0  0  0  0  0  0  0  0  0  # atno 8008 bound_to 7997
  156.0961  140.1423  156.9557 H   0  0  0  0  0  0  0  0  0  0  0  0  # atno 8009 bound_to 7997
  154.4664  140.0916  156.7009 H   0  0  0  0  0  0  0  0  0  0  0  0  # atno 8010 bound_to 7997
  139.9659  144.5928  150.8029 H   0  0  0  0  0  0  0  0  0  0  0  0  # atno 10167 bound_to 10162
  156.0926  130.6105  150.8964 H   0  0  0  0  0  0  0  0  0  0  0  0  # atno 10718 bound_to 10713
  153.0824  135.6623  154.0019 H   0  0  0  0  0  0  0  0  0  0  0  0  # atno 10763 bound_to 10752
  153.9637  135.2971  155.3433 H   0  0  0  0  0  0  0  0  0  0  0  0  # atno 10764 bound_to 10752
  154.7225  135.5158  153.8906 H   0  0  0  0  0  0  0  0  0  0  0  0  # atno 10765 bound_to 10752
  139.8899  134.9503  156.6403 H   0  0  0  0  0  0  0  0  0  0  0  0  # atno 11005 bound_to 11000
  145.9540  139.2753  143.1195 LP  0  0  0  0  0  0  0  0  0  0  0  0  # atno 17320 bound_to 7965
  145.9293  140.9060  143.0365 LP  0  0  0  0  0  0  0  0  0  0  0  0  # atno 17321 bound_to 7965
  140.7538  143.3015  151.3069 LP  0  0  0  0  0  0  0  0  0  0  0  0  # atno 17342 bound_to 10162
  139.6518  144.0348  152.2631 LP  0  0  0  0  0  0  0  0  0  0  0  0  # atno 17343 bound_to 10162
  157.6079  131.0938  150.8847 LP  0  0  0  0  0  0  0  0  0  0  0  0  # atno 17370 bound_to 10713
  156.8992  130.5240  149.5283 LP  0  0  0  0  0  0  0  0  0  0  0  0  # atno 17371 bound_to 10713
  140.7599  133.8826  155.8410 LP  0  0  0  0  0  0  0  0  0  0  0  0  # atno 17394 bound_to 11000
  140.9931  134.1252  157.4389 LP  0  0  0  0  0  0  0  0  0  0  0  0  # atno 17395 bound_to 11000

$$$$
