AV-unprocessed.smi:1644|AV-procd|sdf|6593|dock2
  -GOLD-   22720 7293D 1   1.00000     0.00000
 Structure written by MMmdl.
 48 50  0  0  0  0  0  0  0  0  2 V2000
  145.2463  135.6955  150.7923 C   0  0  0  0  0  0  0  0  0  0  0  0
  145.2398  136.5040  152.0944 C   0  0  0  0  0  0  0  0  0  0  0  0
  146.1471  137.7432  152.0236 C   0  0  0  0  0  0  0  0  0  0  0  0
  146.2506  138.5005  153.3648 C   0  0  1  0  0  0  0  0  0  0  0  0
  147.0584  137.7748  154.3239 N   0  5  0  0  0  0  0  0  0  0  0  0
  148.1014  138.5544  154.6918 C   0  0  0  0  0  0  0  0  0  0  0  0
  148.9922  138.2614  155.4884 O   0  0  0  0  0  0  0  0  0  0  0  0
  148.0675  139.7395  154.0544 N   0  0  0  0  0  0  0  0  0  0  0  0
  149.0734  140.7990  154.1891 C   0  0  0  0  0  0  0  0  0  0  0  0
  149.0885  141.3866  155.6154 C   0  0  2  0  0  0  0  0  0  0  0  0
  147.9550  142.2182  155.7734 O   0  0  0  0  0  0  0  0  0  0  0  0
  150.3507  142.2304  155.8766 C   0  0  0  0  0  0  0  0  0  0  0  0
  151.3150  141.5356  156.7109 N   0  0  0  0  0  0  0  0  0  0  0  0
  151.9329  140.3722  156.4317 C   0  0  0  0  0  0  0  0  0  0  0  0
  152.7822  139.9000  157.3395 N   0  0  0  0  0  0  0  0  0  0  0  0
  152.7033  140.8697  158.3244 C   0  0  0  0  0  0  0  0  0  0  0  0
  153.3611  140.9651  159.5702 C   0  0  0  0  0  0  0  0  0  0  0  0
  153.1258  142.0598  160.4324 C   0  0  0  0  0  0  0  0  0  0  0  0
  153.8535  142.1201  161.7637 C   0  0  0  0  0  0  0  0  0  0  0  0
  152.2214  143.0831  160.0505 C   0  0  0  0  0  0  0  0  0  0  0  0
  151.9548  144.2705  160.9585 C   0  0  0  0  0  0  0  0  0  0  0  0
  151.5543  143.0023  158.8101 C   0  0  0  0  0  0  0  0  0  0  0  0
  151.7961  141.9077  157.9613 C   0  0  0  0  0  0  0  0  0  0  0  0
  147.0168  139.8008  153.2299 C   0  0  0  0  0  0  0  0  0  0  0  0
  146.7038  140.7236  152.4767 O   0  0  0  0  0  0  0  0  0  0  0  0
  144.6003  134.8213  150.8747 H   0  0  0  0  0  0  0  0  0  0  0  0
  146.2506  135.3455  150.5522 H   0  0  0  0  0  0  0  0  0  0  0  0
  144.8898  136.2953  149.9546 H   0  0  0  0  0  0  0  0  0  0  0  0
  144.2187  136.8114  152.3218 H   0  0  0  0  0  0  0  0  0  0  0  0
  145.5573  135.8599  152.9151 H   0  0  0  0  0  0  0  0  0  0  0  0
  147.1409  137.4522  151.6780 H   0  0  0  0  0  0  0  0  0  0  0  0
  145.7495  138.4152  151.2616 H   0  0  0  0  0  0  0  0  0  0  0  0
  145.2539  138.7280  153.7449 H   0  0  0  0  0  0  0  0  0  0  0  0
  150.0492  140.3665  153.9619 H   0  0  0  0  0  0  0  0  0  0  0  0
  148.9310  141.5818  153.4419 H   0  0  0  0  0  0  0  0  0  0  0  0
  149.0428  140.5847  156.3541 H   0  0  0  0  0  0  0  0  0  0  0  0
  148.2498  143.0758  156.0420 H   0  0  0  0  0  0  0  0  0  0  0  0
  150.8391  142.4762  154.9327 H   0  0  0  0  0  0  0  0  0  0  0  0
  150.0915  143.1788  156.3490 H   0  0  0  0  0  0  0  0  0  0  0  0
  151.7461  139.8410  155.5098 H   0  0  0  0  0  0  0  0  0  0  0  0
  154.0507  140.1858  159.8593 H   0  0  0  0  0  0  0  0  0  0  0  0
  154.5290  142.9753  161.7896 H   0  0  0  0  0  0  0  0  0  0  0  0
  154.4438  141.2198  161.9349 H   0  0  0  0  0  0  0  0  0  0  0  0
  153.1439  142.2128  162.5859 H   0  0  0  0  0  0  0  0  0  0  0  0
  151.2850  144.9896  160.4862 H   0  0  0  0  0  0  0  0  0  0  0  0
  152.8847  144.7874  161.1969 H   0  0  0  0  0  0  0  0  0  0  0  0
  151.4920  143.9416  161.8891 H   0  0  0  0  0  0  0  0  0  0  0  0
  150.8571  143.7702  158.5087 H   0  0  0  0  0  0  0  0  0  0  0  0
  1  2  1  0  0  0  0
  1 26  1  0  0  0  0
  1 27  1  0  0  0  0
  1 28  1  0  0  0  0
  2  3  1  0  0  0  0
  2 29  1  0  0  0  0
  2 30  1  0  0  0  0
  3  4  1  0  0  0  0
  3 31  1  0  0  0  0
  3 32  1  0  0  0  0
  4 24  1  0  0  0  0
  4  5  1  0  0  0  0
  4 33  1  0  0  0  0
  5  6  1  0  0  0  0
  6  7  2  0  0  0  0
  6  8  1  0  0  0  0
  8  9  1  0  0  0  0
  8 24  1  0  0  0  0
  9 10  1  0  0  0  0
  9 34  1  0  0  0  0
  9 35  1  0  0  0  0
 10 11  1  0  0  0  0
 10 12  1  0  0  0  0
 10 36  1  0  0  0  0
 11 37  1  0  0  0  0
 12 13  1  0  0  0  0
 12 38  1  0  0  0  0
 12 39  1  0  0  0  0
 13 23  1  0  0  0  0
 13 14  1  0  0  0  0
 14 15  2  0  0  0  0
 14 40  1  0  0  0  0
 15 16  1  0  0  0  0
 16 23  2  0  0  0  0
 16 17  1  0  0  0  0
 17 18  2  0  0  0  0
 17 41  1  0  0  0  0
 18 19  1  0  0  0  0
 18 20  1  0  0  0  0
 19 42  1  0  0  0  0
 19 43  1  0  0  0  0
 19 44  1  0  0  0  0
 20 21  1  0  0  0  0
 20 22  2  0  0  0  0
 21 45  1  0  0  0  0
 21 46  1  0  0  0  0
 21 47  1  0  0  0  0
 22 23  1  0  0  0  0
 22 48  1  0  0  0  0
 24 25  2  0  0  0  0
M  CHG  1   5  -1
M  END
> <s_m_source_file>
AV-unprocessed.smi

> <i_m_source_file_index>
1644

> <i_lp_mmshare_version>
43012

> <i_f3d_flags>
0

> <s_epik_input>
W0NIM11bQ0gyXVtDSDJdW0NAQEhdMVtOSF1DKD1PKU4oQzE9TylbQ0gyXVtDQEhdKFtPSF0pW0NIMl1uKFtjSF1uMiljKGMyMylbY0hdYyhbQ0gzXSljKFtjSF0zKVtDSDNd

> <s_epik_cmdline>
J2VwaWtfcHl0aG9uJywgJy1waCcsICc3LjAnLCAnLXRuJywgJzgnLCAnLW1hJywgJzIwMCcsICctbWV0YWxfYmluZGluZycsICctaW1hZScsICc8aW5maWxlLm1hZT4nLCAnLW9tYWUnLCAnPG91dGZpbGUubWFlPic=

> <r_lp_tautomer_probability>
1

> <r_epik_Ionization_Penalty>
5.95212

> <r_epik_Ionization_Penalty_Charging>
5.84419

> <r_epik_Ionization_Penalty_Neutral>
0.107924

> <r_epik_State_Penalty>
5.94088

> <r_epik_Charging_Adjusted_Penalty>
11.7851

> <i_epik_Tot_Q>
-1

> <i_epik_Tot_abs_Q>
1

> <r_epik_Metal_State_Penalty>
1.99095

> <b_epik_Metal_Only>
1

> <s_lp_Force_Field>
OPLS_2005

> <r_lp_Energy>
18.6255

> <b_lp_Chiralities_Consistent>
1

> <s_lp_Variant>
AV-unprocessed.smi:1644-10

> <Gold.Version>
5.8.1

> <Gold.Id.Protein>
6NUR|6NUR_protein|mol2

> <Gold.PLP.Fitness>
51.5588

> <Gold.PLP.PLP>
-46.9601

> <Gold.PLP.part.hbond>
-2.0000

> <Gold.PLP.part.metal>
0.0000

> <Gold.PLP.part.buried>
-2.3906

> <Gold.PLP.part.nonpolar>
-43.0648

> <Gold.PLP.part.repulsive>
0.5761

> <Gold.PLP.ligand.clash>
0.0000

> <Gold.PLP.ligand.torsion>
0.8146

> <Gold.PLP.Chemscore.Hbond>
2.0000

> <Gold.PLP.Chemscore.CHOScore>
0.0000

> <Gold.PLP.Chemscore.Metal>
0.0000

> <Gold.Chemscore.Hbonds>
donor molecule, donor type, donor heavy atom, donor atom, acceptor molecule, acceptor atom, score
      L1  H    11    37       P1  8028  1.00
      P1  H  7997  8008       L1    15  1.00

> <Gold.PLP.Chemscore.Internal.Correction>
0.2279

> <Gold.Rescore>
     Score         DG    S(hbond)    S(metal)    S(lipo)     H(rot)  DE(clash)    DE(int)     intcor
     15.02     -17.76       1.11        0.00     131.16       2.65       1.81       0.93       ----

> <Gold.Chemscore.Fitness>
15.0230

> <Gold.Chemscore.DG>
-17.7628

> <Gold.Chemscore.ZeroCoef>
-5.4800

> <Gold.Chemscore.Hbond>
1.1129

> <Gold.Chemscore.Metal>
0.0000

> <Gold.Chemscore.Lipo>
131.1638

> <Gold.Chemscore.Internal_Hbond>
0.0000

> <Gold.Chemscore.DEClash>
1.8065

> <Gold.Chemscore.DEInternal>
0.9333

> <Gold.Chemscore.Rot>
2.6486

> <Gold.Chemscore.Internal.Correction>
   9.000000E+99

> <Gold.Chemscore.Hbonds>
donor molecule, donor type, donor heavy atom, donor atom, acceptor molecule, acceptor atom, score
      L1  H    11    37       P1  8028  0.75
      P1  H  7997  8008       L1    15  0.27

> <Gold.Chemscore.Hbond.Weighted>
-3.7171

> <Gold.Chemscore.Metal.Weighted>
-0.0000

> <Gold.Chemscore.Lipo.Weighted>
-15.3462

> <Gold.Chemscore.Internal_Hbond.Weighted>
0.0000

> <Gold.Chemscore.DEClash.Weighted>
1.8065

> <Gold.Chemscore.DEInternal.Weighted>
0.9333

> <Gold.Chemscore.Rot.Weighted>
6.7804

> <Gold.Chemscore.Internal.Correction.Weighted>
   9.000000E+99

> <Gold.Protein.RotatedTorsions>
[ 6907 6896 6895 6894 ] final   42.57 input  -60.11 | X-H torsion
[ 7974 7965 7964 7962 ] final   77.26 input  175.53 | X-H torsion
[ 8008 7997 7996 7995 ] final  -62.94 input   59.86 | X-H torsion
[ 10167 10162 10161 10158 ] final  112.58 input  -65.29 | X-H torsion
[ 10718 10713 10712 10709 ] final -104.03 input   66.30 | X-H torsion
[ 10763 10752 10751 10750 ] final  -62.56 input  -60.55 | X-H torsion
[ 11005 11000 10999 10996 ] final  -35.29 input  -57.11 | X-H torsion

> <Gold.Protein.ActiveResidues>
 VAL166  LYS551  ARG553  GLY616  TRP617  ASP618  TYR619  PRO620  LYS621  CYS622 
 ASP623  PHE694  ASN695  SER759  ASP760  ASP761  ALA762  ILE779  LEU786  VAL792 
 PHE793  MET794  SER795  GLU796  ALA797  LYS798  CYS799  TRP800  GLU811  SER814 

> <Gold.Protein.RotatedAtoms>
  152.2095  134.8515  160.0498 H   0  0  0  0  0  0  0  0  0  0  0  0  # atno 6907 bound_to 6896
  151.9339  133.3613  159.3949 H   0  0  0  0  0  0  0  0  0  0  0  0  # atno 6908 bound_to 6896
  150.6973  134.4434  159.5347 H   0  0  0  0  0  0  0  0  0  0  0  0  # atno 6909 bound_to 6896
  145.6923  139.2556  143.1753 H   0  0  0  0  0  0  0  0  0  0  0  0  # atno 7974 bound_to 7965
  154.4527  140.0985  156.6664 H   0  0  0  0  0  0  0  0  0  0  0  0  # atno 8008 bound_to 7997
  155.5236  140.3479  155.4393 H   0  0  0  0  0  0  0  0  0  0  0  0  # atno 8009 bound_to 7997
  156.0713  140.1350  156.9814 H   0  0  0  0  0  0  0  0  0  0  0  0  # atno 8010 bound_to 7997
  139.6525  144.7128  151.2020 H   0  0  0  0  0  0  0  0  0  0  0  0  # atno 10167 bound_to 10162
  156.0288  130.5496  150.7338 H   0  0  0  0  0  0  0  0  0  0  0  0  # atno 10718 bound_to 10713
  154.3017  135.6233  153.5428 H   0  0  0  0  0  0  0  0  0  0  0  0  # atno 10763 bound_to 10752
  152.9839  135.5680  154.5276 H   0  0  0  0  0  0  0  0  0  0  0  0  # atno 10764 bound_to 10752
  154.4908  135.2867  155.1474 H   0  0  0  0  0  0  0  0  0  0  0  0  # atno 10765 bound_to 10752
  140.9784  133.7070  156.1642 H   0  0  0  0  0  0  0  0  0  0  0  0  # atno 11005 bound_to 11000
  146.0871  140.7698  142.9613 LP  0  0  0  0  0  0  0  0  0  0  0  0  # atno 17320 bound_to 7965
  144.6993  140.3579  143.7169 LP  0  0  0  0  0  0  0  0  0  0  0  0  # atno 17321 bound_to 7965
  140.7544  143.6126  150.8590 LP  0  0  0  0  0  0  0  0  0  0  0  0  # atno 17342 bound_to 10162
  139.9776  143.5987  152.2953 LP  0  0  0  0  0  0  0  0  0  0  0  0  # atno 17343 bound_to 10162
  157.4924  131.0912  151.0411 LP  0  0  0  0  0  0  0  0  0  0  0  0  # atno 17370 bound_to 10713
  157.0814  130.5905  149.5421 LP  0  0  0  0  0  0  0  0  0  0  0  0  # atno 17371 bound_to 10713
  140.7223  134.4345  157.5573 LP  0  0  0  0  0  0  0  0  0  0  0  0  # atno 17394 bound_to 11000
  139.8940  134.8717  156.2197 LP  0  0  0  0  0  0  0  0  0  0  0  0  # atno 17395 bound_to 11000

$$$$
