AV-unprocessed.smi:2442|AV-procd|sdf|9628|dock3
  -GOLD-   2272013263D 1   1.00000     0.00000
 Structure written by MMmdl.
 47 48  0  0  0  0  0  0  0  0  2 V2000
  151.7452  138.6745  154.1267 C   0  0  0  0  0  0  0  0  0  0  0  0
  150.4887  139.3286  154.0485 O   0  0  0  0  0  0  0  0  0  0  0  0
  149.7401  139.3063  155.2606 C   0  0  1  0  0  0  0  0  0  0  0  0
  149.8136  140.6746  155.9715 C   0  0  0  0  0  0  0  0  0  0  0  0
  149.1317  141.7815  155.1513 C   0  0  0  0  0  0  0  0  0  0  0  0
  147.6754  141.4149  154.8278 C   0  0  0  0  0  0  0  0  0  0  0  0
  147.5880  140.0579  154.1116 C   0  0  0  0  0  0  0  0  0  0  0  0
  148.2733  138.9436  154.9267 C   0  0  1  0  0  0  0  0  0  0  0  0
  148.1941  137.6781  154.2009 N   0  0  0  0  0  0  0  0  0  0  0  0
  147.6884  136.5371  154.6884 C   0  0  0  0  0  0  0  0  0  0  0  0
  147.2111  136.4184  155.8175 O   0  0  0  0  0  0  0  0  0  0  0  0
  147.7724  135.5350  153.8024 N   0  0  0  0  0  0  0  0  0  0  0  0
  147.3131  134.1733  154.0482 C   0  0  0  0  0  0  0  0  0  0  0  0
  147.2826  133.3448  152.7520 C   0  0  0  0  0  0  0  0  0  0  0  0
  145.9792  133.5198  151.9882 C   0  0  0  0  0  0  0  0  0  0  0  0
  145.5128  134.8244  151.7101 C   0  0  0  0  0  0  0  0  0  0  0  0
  144.3040  134.9947  151.0065 C   0  0  0  0  0  0  0  0  0  0  0  0
  143.6034  133.9133  150.6053 N   0  3  0  0  0  0  0  0  0  0  0  0
  144.0082  132.6483  150.8492 C   0  0  0  0  0  0  0  0  0  0  0  0
  145.2105  132.4092  151.5507 C   0  0  0  0  0  0  0  0  0  0  0  0
  145.6462  130.9782  151.8150 C   0  0  0  0  0  0  0  0  0  0  0  0
  152.2415  138.7281  153.1579 H   0  0  0  0  0  0  0  0  0  0  0  0
  151.6243  137.6208  154.3812 H   0  0  0  0  0  0  0  0  0  0  0  0
  152.4012  139.1395  154.8621 H   0  0  0  0  0  0  0  0  0  0  0  0
  150.1434  138.5392  155.9241 H   0  0  0  0  0  0  0  0  0  0  0  0
  149.3214  140.5979  156.9419 H   0  0  0  0  0  0  0  0  0  0  0  0
  150.8462  140.9501  156.1831 H   0  0  0  0  0  0  0  0  0  0  0  0
  149.1640  142.7235  155.6995 H   0  0  0  0  0  0  0  0  0  0  0  0
  149.6841  141.9447  154.2250 H   0  0  0  0  0  0  0  0  0  0  0  0
  147.0944  141.3792  155.7501 H   0  0  0  0  0  0  0  0  0  0  0  0
  147.2257  142.1914  154.2086 H   0  0  0  0  0  0  0  0  0  0  0  0
  146.5413  139.8039  153.9389 H   0  0  0  0  0  0  0  0  0  0  0  0
  148.0518  140.1383  153.1275 H   0  0  0  0  0  0  0  0  0  0  0  0
  147.7233  138.8348  155.8635 H   0  0  0  0  0  0  0  0  0  0  0  0
  148.5686  137.6713  153.2637 H   0  0  0  0  0  0  0  0  0  0  0  0
  148.1819  135.7270  152.8994 H   0  0  0  0  0  0  0  0  0  0  0  0
  147.9524  133.7002  154.7953 H   0  0  0  0  0  0  0  0  0  0  0  0
  146.3145  134.2207  154.4834 H   0  0  0  0  0  0  0  0  0  0  0  0
  148.1116  133.6431  152.1087 H   0  0  0  0  0  0  0  0  0  0  0  0
  147.4448  132.2882  152.9650 H   0  0  0  0  0  0  0  0  0  0  0  0
  146.0747  135.6888  152.0337 H   0  0  0  0  0  0  0  0  0  0  0  0
  143.8798  135.9561  150.7553 H   0  0  0  0  0  0  0  0  0  0  0  0
  143.3593  131.8689  150.4770 H   0  0  0  0  0  0  0  0  0  0  0  0
  144.8746  130.2689  151.5140 H   0  0  0  0  0  0  0  0  0  0  0  0
  145.8464  130.8215  152.8749 H   0  0  0  0  0  0  0  0  0  0  0  0
  146.5517  130.7462  151.2538 H   0  0  0  0  0  0  0  0  0  0  0  0
  142.7307  134.0574  150.0965 H   0  0  0  0  0  0  0  0  0  0  0  0
  1  2  1  0  0  0  0
  1 22  1  0  0  0  0
  1 23  1  0  0  0  0
  1 24  1  0  0  0  0
  2  3  1  0  0  0  0
  3  8  1  0  0  0  0
  3  4  1  0  0  0  0
  3 25  1  0  0  0  0
  4  5  1  0  0  0  0
  4 26  1  0  0  0  0
  4 27  1  0  0  0  0
  5  6  1  0  0  0  0
  5 28  1  0  0  0  0
  5 29  1  0  0  0  0
  6  7  1  0  0  0  0
  6 30  1  0  0  0  0
  6 31  1  0  0  0  0
  7  8  1  0  0  0  0
  7 32  1  0  0  0  0
  7 33  1  0  0  0  0
  8  9  1  0  0  0  0
  8 34  1  0  0  0  0
  9 10  1  0  0  0  0
  9 35  1  0  0  0  0
 10 11  2  0  0  0  0
 10 12  1  0  0  0  0
 12 13  1  0  0  0  0
 12 36  1  0  0  0  0
 13 14  1  0  0  0  0
 13 37  1  0  0  0  0
 13 38  1  0  0  0  0
 14 15  1  0  0  0  0
 14 39  1  0  0  0  0
 14 40  1  0  0  0  0
 15 20  1  0  0  0  0
 15 16  2  0  0  0  0
 16 17  1  0  0  0  0
 16 41  1  0  0  0  0
 17 18  2  0  0  0  0
 17 42  1  0  0  0  0
 18 19  1  0  0  0  0
 18 47  1  0  0  0  0
 19 20  2  0  0  0  0
 19 43  1  0  0  0  0
 20 21  1  0  0  0  0
 21 44  1  0  0  0  0
 21 45  1  0  0  0  0
 21 46  1  0  0  0  0
M  CHG  1  18   1
M  END
> <s_m_source_file>
AV-unprocessed.smi

> <i_m_source_file_index>
2442

> <i_lp_mmshare_version>
43012

> <i_f3d_flags>
0

> <s_epik_input>
W0NIM11PW0NAQEhdMVtDSDJdW0NIMl1bQ0gyXVtDSDJdW0NASF0xW05IXUMoPU8pW05IXVtDSDJdW0NIMl1jMltjSF1bY0hdbltjSF1jMltDSDNd

> <s_epik_cmdline>
J2VwaWtfcHl0aG9uJywgJy1waCcsICc3LjAnLCAnLXRuJywgJzgnLCAnLW1hJywgJzIwMCcsICctbWV0YWxfYmluZGluZycsICctaW1hZScsICc8aW5maWxlLm1hZT4nLCAnLW9tYWUnLCAnPG91dGZpbGUubWFlPic=

> <r_epik_Ionization_Penalty>
1.07145

> <r_epik_Ionization_Penalty_Charging>
1.0714

> <r_epik_Ionization_Penalty_Neutral>
4.9109e-05

> <r_epik_State_Penalty>
1.12601

> <r_epik_Charging_Adjusted_Penalty>
2.19741

> <i_epik_Tot_Q>
1

> <i_epik_Tot_abs_Q>
1

> <r_epik_Metal_State_Penalty>
1.2173

> <b_epik_Metal_Only>
0

> <s_lp_Force_Field>
OPLS_2005

> <r_lp_Energy>
15.5832

> <b_lp_Chiralities_Consistent>
1

> <s_lp_Variant>
AV-unprocessed.smi:2442-6

> <Gold.Version>
5.8.1

> <Gold.Id.Protein>
6NUR|6NUR_protein|mol2

> <Gold.PLP.Fitness>
45.7557

> <Gold.PLP.PLP>
-34.0809

> <Gold.PLP.part.hbond>
-3.6045

> <Gold.PLP.part.metal>
0.0000

> <Gold.PLP.part.buried>
-3.3777

> <Gold.PLP.part.nonpolar>
-27.3739

> <Gold.PLP.part.repulsive>
0.2335

> <Gold.PLP.ligand.clash>
0.0000

> <Gold.PLP.ligand.torsion>
0.9688

> <Gold.PLP.Chemscore.Hbond>
4.5220

> <Gold.PLP.Chemscore.CHOScore>
0.0000

> <Gold.PLP.Chemscore.Metal>
0.0000

> <Gold.Chemscore.Hbonds>
donor molecule, donor type, donor heavy atom, donor atom, acceptor molecule, acceptor atom, score
      L1  H     9    35       P1  7948  0.71
      L1  H    12    36       P1  7948  0.62
      L1  H    18    47       P1 10186  2.00
      P1  H  7989  7998       L1     2  0.10

> <Gold.PLP.Chemscore.Internal.Correction>
0.0463

> <Gold.Rescore>
     Score         DG    S(hbond)    S(metal)    S(lipo)     H(rot)  DE(clash)    DE(int)     intcor
     20.91     -22.22       3.24        0.00      88.44       1.72       0.24       1.07       ----

> <Gold.Chemscore.Fitness>
20.9118

> <Gold.Chemscore.DG>
-22.2194

> <Gold.Chemscore.ZeroCoef>
-5.4800

> <Gold.Chemscore.Hbond>
3.2355

> <Gold.Chemscore.Metal>
0.0000

> <Gold.Chemscore.Lipo>
88.4390

> <Gold.Chemscore.Internal_Hbond>
0.0000

> <Gold.Chemscore.DEClash>
0.2395

> <Gold.Chemscore.DEInternal>
1.0681

> <Gold.Chemscore.Rot>
1.7244

> <Gold.Chemscore.Internal.Correction>
   9.000000E+99

> <Gold.Chemscore.Hbonds>
donor molecule, donor type, donor heavy atom, donor atom, acceptor molecule, acceptor atom, score
      L1  H     9    35       P1  7948  0.66
      L1  H    12    36       P1  7948  0.60
      L1  H    18    47       P1 10186  0.98

> <Gold.Chemscore.Hbond.Weighted>
-10.8065

> <Gold.Chemscore.Metal.Weighted>
-0.0000

> <Gold.Chemscore.Lipo.Weighted>
-10.3474

> <Gold.Chemscore.Internal_Hbond.Weighted>
0.0000

> <Gold.Chemscore.DEClash.Weighted>
0.2395

> <Gold.Chemscore.DEInternal.Weighted>
1.0681

> <Gold.Chemscore.Rot.Weighted>
4.4145

> <Gold.Chemscore.Internal.Correction.Weighted>
   9.000000E+99

> <Gold.Protein.RotatedTorsions>
[ 6907 6896 6895 6894 ] final   -9.87 input  -60.11 | X-H torsion
[ 7974 7965 7964 7962 ] final   69.94 input  175.53 | X-H torsion
[ 8008 7997 7996 7995 ] final -166.35 input   59.86 | X-H torsion
[ 10167 10162 10161 10158 ] final   97.08 input  -65.29 | X-H torsion
[ 10718 10713 10712 10709 ] final  -78.06 input   66.30 | X-H torsion
[ 10763 10752 10751 10750 ] final  -16.00 input  -60.55 | X-H torsion
[ 11005 11000 10999 10996 ] final    7.15 input  -57.11 | X-H torsion

> <Gold.Protein.ActiveResidues>
 VAL166  LYS551  ARG553  GLY616  TRP617  ASP618  TYR619  PRO620  LYS621  CYS622 
 ASP623  PHE694  ASN695  SER759  ASP760  ASP761  ALA762  ILE779  LEU786  VAL792 
 PHE793  MET794  SER795  GLU796  ALA797  LYS798  CYS799  TRP800  GLU811  SER814 

> <Gold.Protein.RotatedAtoms>
  151.4109  135.0985  159.9584 H   0  0  0  0  0  0  0  0  0  0  0  0  # atno 6907 bound_to 6896
  152.5020  133.8799  159.7351 H   0  0  0  0  0  0  0  0  0  0  0  0  # atno 6908 bound_to 6896
  150.9293  133.6729  159.2842 H   0  0  0  0  0  0  0  0  0  0  0  0  # atno 6909 bound_to 6896
  145.7843  139.2903  143.1247 H   0  0  0  0  0  0  0  0  0  0  0  0  # atno 7974 bound_to 7965
  155.8626  140.0980  157.1603 H   0  0  0  0  0  0  0  0  0  0  0  0  # atno 8008 bound_to 7997
  154.3991  140.1362  156.4041 H   0  0  0  0  0  0  0  0  0  0  0  0  # atno 8009 bound_to 7997
  155.7840  140.3457  155.5315 H   0  0  0  0  0  0  0  0  0  0  0  0  # atno 8010 bound_to 7997
  139.7834  144.6880  150.9991 H   0  0  0  0  0  0  0  0  0  0  0  0  # atno 10167 bound_to 10162
  156.0128  130.4508  150.3439 H   0  0  0  0  0  0  0  0  0  0  0  0  # atno 10718 bound_to 10713
  153.5519  135.7011  153.5587 H   0  0  0  0  0  0  0  0  0  0  0  0  # atno 10763 bound_to 10752
  153.3507  135.3996  155.1644 H   0  0  0  0  0  0  0  0  0  0  0  0  # atno 10764 bound_to 10752
  154.8660  135.3765  154.5031 H   0  0  0  0  0  0  0  0  0  0  0  0  # atno 10765 bound_to 10752
  140.5514  134.0279  155.7938 H   0  0  0  0  0  0  0  0  0  0  0  0  # atno 11005 bound_to 11000
  146.0042  140.8493  143.0003 LP  0  0  0  0  0  0  0  0  0  0  0  0  # atno 17320 bound_to 7965
  144.6791  140.2396  143.7345 LP  0  0  0  0  0  0  0  0  0  0  0  0  # atno 17321 bound_to 7965
  140.7819  143.4458  151.0484 LP  0  0  0  0  0  0  0  0  0  0  0  0  # atno 17342 bound_to 10162
  139.8138  143.7914  152.3173 LP  0  0  0  0  0  0  0  0  0  0  0  0  # atno 17343 bound_to 10162
  157.1533  131.0326  151.2875 LP  0  0  0  0  0  0  0  0  0  0  0  0  # atno 17370 bound_to 10713
  157.4373  130.7524  149.7040 LP  0  0  0  0  0  0  0  0  0  0  0  0  # atno 17371 bound_to 10713
  141.1169  133.9525  157.2805 LP  0  0  0  0  0  0  0  0  0  0  0  0  # atno 17394 bound_to 11000
  139.9453  135.0185  156.8833 LP  0  0  0  0  0  0  0  0  0  0  0  0  # atno 17395 bound_to 11000

$$$$
