AV-unprocessed.smi:3154|AV-procd|sdf|12021|dock2
  -GOLD-   2272017433D 1   1.00000     0.00000
 Structure written by MMmdl.
 35 36  0  0  0  0  0  0  0  0  2 V2000
  147.2270  138.4513  154.9766 C   0  0  0  0  0  0  0  0  0  0  0  0
  148.3626  138.8730  154.0290 C   0  0  2  0  0  0  0  0  0  0  0  0
  148.6748  140.3851  154.1197 C   0  0  0  0  0  0  0  0  0  0  0  0
  149.7211  140.6927  155.0780 N   0  0  0  0  0  0  0  0  0  0  0  0
  149.7117  141.6286  156.0910 C   0  0  0  0  0  0  0  0  0  0  0  0
  150.9244  141.5625  156.7151 C   0  0  0  0  0  0  0  0  0  0  0  0
  151.6190  140.5478  155.9991 C   0  0  0  0  0  0  0  0  0  0  0  0
  150.8973  140.0323  155.0170 N   0  0  0  0  0  0  0  0  0  0  0  0
  148.0153  138.4844  152.6443 N   0  3  0  0  0  0  0  0  0  0  0  0
  146.6122  138.7369  152.2482 C   0  0  0  0  0  0  0  0  0  0  0  0
  145.7399  137.4869  152.3766 C   0  0  0  0  0  0  0  0  0  0  0  0
  144.6134  137.5551  152.8701 O   0  0  0  0  0  0  0  0  0  0  0  0
  146.2779  136.3485  151.9155 N   0  0  0  0  0  0  0  0  0  0  0  0
  145.6433  135.0700  151.9193 C   0  0  0  0  0  0  0  0  0  0  0  0
  146.3762  133.9174  151.2676 C   0  0  0  0  0  0  0  0  0  0  0  0
  145.1747  134.5165  150.5906 C   0  0  0  0  0  0  0  0  0  0  0  0
  147.4847  138.6363  156.0198 H   0  0  0  0  0  0  0  0  0  0  0  0
  147.0141  137.3859  154.8832 H   0  0  0  0  0  0  0  0  0  0  0  0
  146.3067  138.9947  154.7598 H   0  0  0  0  0  0  0  0  0  0  0  0
  149.2507  138.3088  154.3184 H   0  0  0  0  0  0  0  0  0  0  0  0
  148.9891  140.7798  153.1534 H   0  0  0  0  0  0  0  0  0  0  0  0
  147.7773  140.9367  154.4030 H   0  0  0  0  0  0  0  0  0  0  0  0
  148.8538  142.2561  156.2829 H   0  0  0  0  0  0  0  0  0  0  0  0
  151.2654  142.1510  157.5538 H   0  0  0  0  0  0  0  0  0  0  0  0
  152.6195  140.1749  156.1619 H   0  0  0  0  0  0  0  0  0  0  0  0
  148.5996  139.0192  152.0176 H   0  0  0  0  0  0  0  0  0  0  0  0
  146.1799  139.5202  152.8702 H   0  0  0  0  0  0  0  0  0  0  0  0
  146.5851  139.0862  151.2153 H   0  0  0  0  0  0  0  0  0  0  0  0
  147.2084  136.3891  151.5249 H   0  0  0  0  0  0  0  0  0  0  0  0
  145.0278  134.8188  152.7821 H   0  0  0  0  0  0  0  0  0  0  0  0
  147.3515  134.1163  150.8275 H   0  0  0  0  0  0  0  0  0  0  0  0
  146.2608  132.9324  151.7158 H   0  0  0  0  0  0  0  0  0  0  0  0
  144.2575  133.9309  150.5855 H   0  0  0  0  0  0  0  0  0  0  0  0
  145.3490  135.1149  149.6984 H   0  0  0  0  0  0  0  0  0  0  0  0
  148.2253  137.5054  152.5124 H   0  0  0  0  0  0  0  0  0  0  0  0
  1  2  1  0  0  0  0
  1 17  1  0  0  0  0
  1 18  1  0  0  0  0
  1 19  1  0  0  0  0
  2  3  1  0  0  0  0
  2  9  1  0  0  0  0
  2 20  1  0  0  0  0
  3  4  1  0  0  0  0
  3 21  1  0  0  0  0
  3 22  1  0  0  0  0
  4  8  1  0  0  0  0
  4  5  1  0  0  0  0
  5  6  2  0  0  0  0
  5 23  1  0  0  0  0
  6  7  1  0  0  0  0
  6 24  1  0  0  0  0
  7  8  2  0  0  0  0
  7 25  1  0  0  0  0
  9 10  1  0  0  0  0
  9 26  1  0  0  0  0
  9 35  1  0  0  0  0
 10 11  1  0  0  0  0
 10 27  1  0  0  0  0
 10 28  1  0  0  0  0
 11 12  2  0  0  0  0
 11 13  1  0  0  0  0
 13 14  1  0  0  0  0
 13 29  1  0  0  0  0
 14 16  1  0  0  0  0
 14 15  1  0  0  0  0
 14 30  1  0  0  0  0
 15 16  1  0  0  0  0
 15 31  1  0  0  0  0
 15 32  1  0  0  0  0
 16 33  1  0  0  0  0
 16 34  1  0  0  0  0
M  CHG  1   9   1
M  END
> <s_m_source_file>
AV-unprocessed.smi

> <i_m_source_file_index>
3154

> <i_lp_mmshare_version>
43012

> <i_f3d_flags>
0

> <s_epik_input>
bjFbY0hdW2NIXVtjSF1uMVtDSDJdW0NAQEhdKFtDSDNdKVtOSF1bQ0gyXUMoPU8pW05IXVtDSF0yW0NIMl1bQ0gyXTI=

> <s_epik_cmdline>
J2VwaWtfcHl0aG9uJywgJy1waCcsICc3LjAnLCAnLXRuJywgJzgnLCAnLW1hJywgJzIwMCcsICctbWV0YWxfYmluZGluZycsICctaW1hZScsICc8aW5maWxlLm1hZT4nLCAnLW9tYWUnLCAnPG91dGZpbGUubWFlPic=

> <r_lp_tautomer_probability>
1

> <r_epik_Ionization_Penalty>
0.12065

> <r_epik_Ionization_Penalty_Charging>
0.120646

> <r_epik_Ionization_Penalty_Neutral>
4.1343e-06

> <r_epik_State_Penalty>
0.110186

> <r_epik_Charging_Adjusted_Penalty>
0.230832

> <i_epik_Tot_Q>
1

> <i_epik_Tot_abs_Q>
1

> <r_epik_Metal_State_Penalty>
0.110197

> <b_epik_Metal_Only>
0

> <s_lp_Force_Field>
OPLS_2005

> <r_lp_Energy>
15.3848

> <b_lp_Chiralities_Consistent>
1

> <s_lp_Variant>
AV-unprocessed.smi:3154-1

> <Gold.Version>
5.8.1

> <Gold.Id.Protein>
6NUR|6NUR_protein|mol2

> <Gold.PLP.Fitness>
45.0215

> <Gold.PLP.PLP>
-29.9406

> <Gold.PLP.part.hbond>
-3.9840

> <Gold.PLP.part.metal>
0.0000

> <Gold.PLP.part.buried>
-2.8102

> <Gold.PLP.part.nonpolar>
-24.0253

> <Gold.PLP.part.repulsive>
0.4723

> <Gold.PLP.ligand.clash>
0.0000

> <Gold.PLP.ligand.torsion>
1.2602

> <Gold.PLP.Chemscore.Hbond>
4.9920

> <Gold.PLP.Chemscore.CHOScore>
0.8364

> <Gold.PLP.Chemscore.Metal>
0.0000

> <Gold.Chemscore.Hbonds>
donor molecule, donor type, donor heavy atom, donor atom, acceptor molecule, acceptor atom, score
      L1  H     9    26       P1  7957  1.00
      L1  H     9    35       P1  7948  2.00
      L1  H    13    29       P1  7948  0.94
      P1  H  7989  7998       L1     8  0.95
      L1  C     5    23       P1  8028  0.81

> <Gold.PLP.Chemscore.Internal.Correction>
0.1160

> <Gold.Rescore>
     Score         DG    S(hbond)    S(metal)    S(lipo)     H(rot)  DE(clash)    DE(int)     intcor
     17.88     -18.83       3.76        0.00      55.11       2.20       0.01       0.94       ----

> <Gold.Chemscore.Fitness>
17.8793

> <Gold.Chemscore.DG>
-18.8298

> <Gold.Chemscore.ZeroCoef>
-5.4800

> <Gold.Chemscore.Hbond>
3.7557

> <Gold.Chemscore.Metal>
0.0000

> <Gold.Chemscore.Lipo>
55.1138

> <Gold.Chemscore.Internal_Hbond>
0.0000

> <Gold.Chemscore.DEClash>
0.0066

> <Gold.Chemscore.DEInternal>
0.9439

> <Gold.Chemscore.Rot>
2.2042

> <Gold.Chemscore.Internal.Correction>
   9.000000E+99

> <Gold.Chemscore.Hbonds>
donor molecule, donor type, donor heavy atom, donor atom, acceptor molecule, acceptor atom, score
      L1  H     9    26       P1  7957  0.97
      L1  H     9    35       P1  7948  0.96
      L1  H    13    29       P1  7948  0.91
      P1  H  7989  7998       L1     8  0.07

> <Gold.Chemscore.Hbond.Weighted>
-12.5441

> <Gold.Chemscore.Metal.Weighted>
-0.0000

> <Gold.Chemscore.Lipo.Weighted>
-6.4483

> <Gold.Chemscore.Internal_Hbond.Weighted>
0.0000

> <Gold.Chemscore.DEClash.Weighted>
0.0066

> <Gold.Chemscore.DEInternal.Weighted>
0.9439

> <Gold.Chemscore.Rot.Weighted>
5.6427

> <Gold.Chemscore.Internal.Correction.Weighted>
   9.000000E+99

> <Gold.Protein.RotatedTorsions>
[ 6907 6896 6895 6894 ] final   -8.09 input  -60.11 | X-H torsion
[ 7974 7965 7964 7962 ] final -162.56 input  175.53 | X-H torsion
[ 8008 7997 7996 7995 ] final  -78.27 input   59.86 | X-H torsion
[ 10167 10162 10161 10158 ] final  -12.39 input  -65.29 | X-H torsion
[ 10718 10713 10712 10709 ] final  140.12 input   66.30 | X-H torsion
[ 10763 10752 10751 10750 ] final  133.02 input  -60.55 | X-H torsion
[ 11005 11000 10999 10996 ] final   89.90 input  -57.11 | X-H torsion

> <Gold.Protein.ActiveResidues>
 VAL166  LYS551  ARG553  GLY616  TRP617  ASP618  TYR619  PRO620  LYS621  CYS622 
 ASP623  PHE694  ASN695  SER759  ASP760  ASP761  ALA762  ILE779  LEU786  VAL792 
 PHE793  MET794  SER795  GLU796  ALA797  LYS798  CYS799  TRP800  GLU811  SER814 

> <Gold.Protein.RotatedAtoms>
  151.4392  135.1018  159.9664 H   0  0  0  0  0  0  0  0  0  0  0  0  # atno 6907 bound_to 6896
  152.4929  133.8545  159.7229 H   0  0  0  0  0  0  0  0  0  0  0  0  # atno 6908 bound_to 6896
  150.9100  133.6951  159.2884 H   0  0  0  0  0  0  0  0  0  0  0  0  # atno 6909 bound_to 6896
  144.7353  140.3235  143.6166 H   0  0  0  0  0  0  0  0  0  0  0  0  # atno 7974 bound_to 7965
  154.5674  140.0697  156.8912 H   0  0  0  0  0  0  0  0  0  0  0  0  # atno 8008 bound_to 7997
  155.2698  140.3364  155.4248 H   0  0  0  0  0  0  0  0  0  0  0  0  # atno 8009 bound_to 7997
  156.2091  140.1752  156.7720 H   0  0  0  0  0  0  0  0  0  0  0  0  # atno 8010 bound_to 7997
  140.7160  143.5537  150.9272 H   0  0  0  0  0  0  0  0  0  0  0  0  # atno 10167 bound_to 10162
  157.4068  131.1023  151.0495 H   0  0  0  0  0  0  0  0  0  0  0  0  # atno 10718 bound_to 10713
  153.8002  135.3143  155.3389 H   0  0  0  0  0  0  0  0  0  0  0  0  # atno 10763 bound_to 10752
  154.8092  135.4678  154.0474 H   0  0  0  0  0  0  0  0  0  0  0  0  # atno 10764 bound_to 10752
  153.1819  135.6895  153.8553 H   0  0  0  0  0  0  0  0  0  0  0  0  # atno 10765 bound_to 10752
  139.8866  134.8580  156.3208 H   0  0  0  0  0  0  0  0  0  0  0  0  # atno 11005 bound_to 11000
  145.7544  139.1804  143.2303 LP  0  0  0  0  0  0  0  0  0  0  0  0  # atno 17320 bound_to 7965
  146.1035  140.7515  142.9537 LP  0  0  0  0  0  0  0  0  0  0  0  0  # atno 17321 bound_to 7965
  139.9261  143.6548  152.3086 LP  0  0  0  0  0  0  0  0  0  0  0  0  # atno 17342 bound_to 10162
  139.6982  144.7638  151.1319 LP  0  0  0  0  0  0  0  0  0  0  0  0  # atno 17343 bound_to 10162
  157.1474  130.6169  149.5572 LP  0  0  0  0  0  0  0  0  0  0  0  0  # atno 17370 bound_to 10713
  155.9839  130.4860  150.6955 LP  0  0  0  0  0  0  0  0  0  0  0  0  # atno 17371 bound_to 10713
  140.9788  133.7280  156.0641 LP  0  0  0  0  0  0  0  0  0  0  0  0  # atno 17394 bound_to 11000
  140.7776  134.3762  157.5494 LP  0  0  0  0  0  0  0  0  0  0  0  0  # atno 17395 bound_to 11000

$$$$
