AV-unprocessed.smi:1116|AV-procd|sdf|4808|dock9
  -GOLD-   22720 3363D 1   1.00000     0.00000
 Structure written by MMmdl.
 36 37  0  0  0  0  0  0  0  0  1 V2000
  154.2615  140.8038  160.8528 C   0  0  0  0  0  0  0  0  0  0  0  0
  153.3000  141.8886  160.5061 C   0  0  0  0  0  0  0  0  0  0  0  0
  152.6324  141.9440  159.3507 N   0  0  0  0  0  0  0  0  0  0  0  0
  151.7893  143.0568  159.2683 C   0  0  0  0  0  0  0  0  0  0  0  0
  150.9617  143.2801  158.0388 C   0  0  0  0  0  0  0  0  0  0  0  0
  150.9853  142.0690  157.0911 C   0  0  0  0  0  0  0  0  0  0  0  0
  149.9582  142.1731  156.0607 N   0  0  0  0  0  0  0  0  0  0  0  0
  149.8079  141.3251  155.0318 C   0  0  0  0  0  0  0  0  0  0  0  0
  150.5457  140.3575  154.8438 O   0  0  0  0  0  0  0  0  0  0  0  0
  148.6379  141.6149  154.0855 C   0  0  0  0  0  0  0  0  0  0  0  0
  147.2933  141.8031  154.8157 C   0  0  0  0  0  0  0  0  0  0  0  0
  146.5519  140.4759  155.0690 C   0  0  1  0  0  0  0  0  0  0  0  0
  146.0618  139.8592  153.8478 N   0  0  0  0  0  0  0  0  0  0  0  0
  146.5748  138.6373  153.6491 C   0  0  0  0  0  0  0  0  0  0  0  0
  146.3267  137.8963  152.7011 O   0  0  0  0  0  0  0  0  0  0  0  0
  147.4034  138.3675  154.6634 N   0  0  0  0  0  0  0  0  0  0  0  0
  147.4757  139.3668  155.5409 C   0  0  0  0  0  0  0  0  0  0  0  0
  148.1625  139.4090  156.5597 O   0  0  0  0  0  0  0  0  0  0  0  0
  151.8302  143.8501  160.3879 C   0  0  0  0  0  0  0  0  0  0  0  0
  152.9305  143.2269  161.5864 S   0  0  0  0  0  0  0  0  0  0  0  0
  154.3504  140.0911  160.0323 H   0  0  0  0  0  0  0  0  0  0  0  0
  153.9191  140.2731  161.7413 H   0  0  0  0  0  0  0  0  0  0  0  0
  155.2449  141.2284  161.0546 H   0  0  0  0  0  0  0  0  0  0  0  0
  149.9332  143.5043  158.3248 H   0  0  0  0  0  0  0  0  0  0  0  0
  151.3213  144.1618  157.5072 H   0  0  0  0  0  0  0  0  0  0  0  0
  151.9540  142.0069  156.5946 H   0  0  0  0  0  0  0  0  0  0  0  0
  150.8634  141.1397  157.6506 H   0  0  0  0  0  0  0  0  0  0  0  0
  149.3091  142.9425  156.1400 H   0  0  0  0  0  0  0  0  0  0  0  0
  148.8770  142.5126  153.5143 H   0  0  0  0  0  0  0  0  0  0  0  0
  148.5560  140.7987  153.3664 H   0  0  0  0  0  0  0  0  0  0  0  0
  147.4619  142.3217  155.7615 H   0  0  0  0  0  0  0  0  0  0  0  0
  146.6467  142.4530  154.2235 H   0  0  0  0  0  0  0  0  0  0  0  0
  145.7327  140.6064  155.7773 H   0  0  0  0  0  0  0  0  0  0  0  0
  145.3997  140.3080  153.2317 H   0  0  0  0  0  0  0  0  0  0  0  0
  147.9231  137.5065  154.7498 H   0  0  0  0  0  0  0  0  0  0  0  0
  151.2818  144.7603  160.5797 H   0  0  0  0  0  0  0  0  0  0  0  0
  1  2  1  0  0  0  0
  1 21  1  0  0  0  0
  1 22  1  0  0  0  0
  1 23  1  0  0  0  0
  2 20  1  0  0  0  0
  2  3  2  0  0  0  0
  3  4  1  0  0  0  0
  4  5  1  0  0  0  0
  4 19  2  0  0  0  0
  5  6  1  0  0  0  0
  5 24  1  0  0  0  0
  5 25  1  0  0  0  0
  6  7  1  0  0  0  0
  6 26  1  0  0  0  0
  6 27  1  0  0  0  0
  7  8  1  0  0  0  0
  7 28  1  0  0  0  0
  8  9  2  0  0  0  0
  8 10  1  0  0  0  0
 10 11  1  0  0  0  0
 10 29  1  0  0  0  0
 10 30  1  0  0  0  0
 11 12  1  0  0  0  0
 11 31  1  0  0  0  0
 11 32  1  0  0  0  0
 12 17  1  0  0  0  0
 12 13  1  0  0  0  0
 12 33  1  0  0  0  0
 13 14  1  0  0  0  0
 13 34  1  0  0  0  0
 14 15  2  0  0  0  0
 14 16  1  0  0  0  0
 16 17  1  0  0  0  0
 16 35  1  0  0  0  0
 17 18  2  0  0  0  0
 19 20  1  0  0  0  0
 19 36  1  0  0  0  0
M  END
> <s_m_source_file>
AV-unprocessed.smi

> <i_m_source_file_index>
1116

> <i_lp_mmshare_version>
43012

> <i_f3d_flags>
0

> <s_epik_input>
W0NIM11jMW5jKFtjSF1zMSlbQ0gyXVtDSDJdW05IXUMoPU8pW0NIMl1bQ0gyXVtDQEBIXTJbTkhdQyg9TylbTkhdQzI9Tw==

> <s_epik_cmdline>
J2VwaWtfcHl0aG9uJywgJy1waCcsICc3LjAnLCAnLXRuJywgJzgnLCAnLW1hJywgJzIwMCcsICctbWV0YWxfYmluZGluZycsICctaW1hZScsICc8aW5maWxlLm1hZT4nLCAnLW9tYWUnLCAnPG91dGZpbGUubWFlPic=

> <r_lp_tautomer_probability>
1

> <r_epik_Ionization_Penalty>
0.00889251

> <r_epik_Ionization_Penalty_Charging>
0

> <r_epik_Ionization_Penalty_Neutral>
0.00889251

> <r_epik_State_Penalty>
0.00583796

> <r_epik_Charging_Adjusted_Penalty>
0.00583796

> <i_epik_Tot_Q>
0

> <i_epik_Tot_abs_Q>
0

> <r_epik_Metal_State_Penalty>
0.408839

> <b_epik_Metal_Only>
0

> <s_lp_Force_Field>
OPLS_2005

> <r_lp_Energy>
13.0769

> <b_lp_Chiralities_Consistent>
1

> <s_lp_Variant>
AV-unprocessed.smi:1116-2

> <Gold.Version>
5.8.1

> <Gold.Id.Protein>
6NUR|6NUR_protein|mol2

> <Gold.PLP.Fitness>
43.8301

> <Gold.PLP.PLP>
-35.7419

> <Gold.PLP.part.hbond>
-3.0000

> <Gold.PLP.part.metal>
0.0000

> <Gold.PLP.part.buried>
-4.3796

> <Gold.PLP.part.nonpolar>
-28.8109

> <Gold.PLP.part.repulsive>
0.4452

> <Gold.PLP.ligand.clash>
0.0000

> <Gold.PLP.ligand.torsion>
0.4635

> <Gold.PLP.Chemscore.Hbond>
2.9840

> <Gold.PLP.Chemscore.CHOScore>
0.0000

> <Gold.PLP.Chemscore.Metal>
0.0000

> <Gold.Chemscore.Hbonds>
donor molecule, donor type, donor heavy atom, donor atom, acceptor molecule, acceptor atom, score
      L1  H     7    28       P1  8028  0.94
      L1  H    13    34       P1 10175  1.00
      P1  H  7989  7998       L1     9  1.00

> <Gold.PLP.Chemscore.Internal.Correction>
0.0632

> <Gold.Rescore>
     Score         DG    S(hbond)    S(metal)    S(lipo)     H(rot)  DE(clash)    DE(int)     intcor
     16.31     -16.80       2.59        0.00      84.92       2.83       0.02       0.47       ----

> <Gold.Chemscore.Fitness>
16.3115

> <Gold.Chemscore.DG>
-16.8006

> <Gold.Chemscore.ZeroCoef>
-5.4800

> <Gold.Chemscore.Hbond>
2.5856

> <Gold.Chemscore.Metal>
0.0000

> <Gold.Chemscore.Lipo>
84.9211

> <Gold.Chemscore.Internal_Hbond>
0.0000

> <Gold.Chemscore.DEClash>
0.0166

> <Gold.Chemscore.DEInternal>
0.4725

> <Gold.Chemscore.Rot>
2.8324

> <Gold.Chemscore.Internal.Correction>
   9.000000E+99

> <Gold.Chemscore.Hbonds>
donor molecule, donor type, donor heavy atom, donor atom, acceptor molecule, acceptor atom, score
      L1  H     7    28       P1  8028  0.91
      L1  H    13    34       P1 10175  0.95
      P1  H  7989  7998       L1     9  0.44

> <Gold.Chemscore.Hbond.Weighted>
-8.6358

> <Gold.Chemscore.Metal.Weighted>
-0.0000

> <Gold.Chemscore.Lipo.Weighted>
-9.9358

> <Gold.Chemscore.Internal_Hbond.Weighted>
0.0000

> <Gold.Chemscore.DEClash.Weighted>
0.0166

> <Gold.Chemscore.DEInternal.Weighted>
0.4725

> <Gold.Chemscore.Rot.Weighted>
7.2510

> <Gold.Chemscore.Internal.Correction.Weighted>
   9.000000E+99

> <Gold.Protein.RotatedTorsions>
[ 6907 6896 6895 6894 ] final   75.18 input  -60.11 | X-H torsion
[ 7974 7965 7964 7962 ] final -146.05 input  175.53 | X-H torsion
[ 8008 7997 7996 7995 ] final    9.45 input   59.86 | X-H torsion
[ 10167 10162 10161 10158 ] final   85.36 input  -65.29 | X-H torsion
[ 10718 10713 10712 10709 ] final  -51.92 input   66.30 | X-H torsion
[ 10763 10752 10751 10750 ] final -143.06 input  -60.55 | X-H torsion
[ 11005 11000 10999 10996 ] final   34.49 input  -57.11 | X-H torsion

> <Gold.Protein.ActiveResidues>
 VAL166  LYS551  ARG553  GLY616  TRP617  ASP618  TYR619  PRO620  LYS621  CYS622 
 ASP623  PHE694  ASN695  SER759  ASP760  ASP761  ALA762  ILE779  LEU786  VAL792 
 PHE793  MET794  SER795  GLU796  ALA797  LYS798  CYS799  TRP800  GLU811  SER814 

> <Gold.Protein.RotatedAtoms>
  152.5013  134.4159  159.9463 H   0  0  0  0  0  0  0  0  0  0  0  0  # atno 6907 bound_to 6896
  151.4129  133.3715  159.2754 H   0  0  0  0  0  0  0  0  0  0  0  0  # atno 6908 bound_to 6896
  150.9278  134.8716  159.7591 H   0  0  0  0  0  0  0  0  0  0  0  0  # atno 6909 bound_to 6896
  144.8186  140.5506  143.5594 H   0  0  0  0  0  0  0  0  0  0  0  0  # atno 7974 bound_to 7965
  154.7802  140.2817  155.6069 H   0  0  0  0  0  0  0  0  0  0  0  0  # atno 8008 bound_to 7997
  156.2948  140.2624  156.2554 H   0  0  0  0  0  0  0  0  0  0  0  0  # atno 8009 bound_to 7997
  154.9793  140.0375  157.2260 H   0  0  0  0  0  0  0  0  0  0  0  0  # atno 8010 bound_to 7997
  139.8985  144.6343  150.8662 H   0  0  0  0  0  0  0  0  0  0  0  0  # atno 10167 bound_to 10162
  156.1667  130.4149  149.9709 H   0  0  0  0  0  0  0  0  0  0  0  0  # atno 10718 bound_to 10713
  154.8485  135.3478  154.6127 H   0  0  0  0  0  0  0  0  0  0  0  0  # atno 10763 bound_to 10752
  153.6735  135.6984  153.5144 H   0  0  0  0  0  0  0  0  0  0  0  0  # atno 10764 bound_to 10752
  153.2724  135.4289  155.0956 H   0  0  0  0  0  0  0  0  0  0  0  0  # atno 10765 bound_to 10752
  140.2523  134.3289  155.7886 H   0  0  0  0  0  0  0  0  0  0  0  0  # atno 11005 bound_to 11000
  145.5157  139.1478  143.3580 LP  0  0  0  0  0  0  0  0  0  0  0  0  # atno 17320 bound_to 7965
  146.2490  140.5298  142.8901 LP  0  0  0  0  0  0  0  0  0  0  0  0  # atno 17321 bound_to 7965
  140.7712  143.3455  151.2121 LP  0  0  0  0  0  0  0  0  0  0  0  0  # atno 17342 bound_to 10162
  139.7046  143.9476  152.2921 LP  0  0  0  0  0  0  0  0  0  0  0  0  # atno 17343 bound_to 10162
  156.7522  130.9119  151.3638 LP  0  0  0  0  0  0  0  0  0  0  0  0  # atno 17370 bound_to 10713
  157.6773  130.9106  150.0181 LP  0  0  0  0  0  0  0  0  0  0  0  0  # atno 17371 bound_to 10713
  141.2200  133.7360  156.9056 LP  0  0  0  0  0  0  0  0  0  0  0  0  # atno 17394 bound_to 11000
  140.1546  134.9207  157.2637 LP  0  0  0  0  0  0  0  0  0  0  0  0  # atno 17395 bound_to 11000

$$$$
