AV-unprocessed.smi:40|AV-procd|sdf|376|dock5
  -GOLD-   2262016223D 1   1.00000     0.00000
 Structure written by MMmdl.
 47 48  0  0  0  0  0  0  0  0  1 V2000
  151.7738  144.9796  160.6964 C   0  0  0  0  0  0  0  0  0  0  0  0
  152.3391  144.7006  159.2991 C   0  0  0  0  0  0  0  0  0  0  0  0
  152.2934  143.2107  158.9337 C   0  0  0  0  0  0  0  0  0  0  0  0
  153.2386  142.3567  159.7957 C   0  0  0  0  0  0  0  0  0  0  0  0
  153.1586  140.8576  159.4736 C   0  0  0  0  0  0  0  0  0  0  0  0
  153.9818  140.1498  160.3842 O   0  0  0  0  0  0  0  0  0  0  0  0
  154.2728  138.8509  160.1907 C   0  0  0  0  0  0  0  0  0  0  0  0
  154.3287  138.3133  159.0852 O   0  0  0  0  0  0  0  0  0  0  0  0
  154.5476  138.1812  161.4514 N   0  0  0  0  0  0  0  0  0  0  0  0
  154.8750  136.8817  161.6535 C   0  0  0  0  0  0  0  0  0  0  0  0
  155.1887  136.0747  160.6536 N   0  0  0  0  0  0  0  0  0  0  0  0
  155.5275  134.7583  160.8022 C   0  0  0  0  0  0  0  0  0  0  0  0
  155.7760  134.0803  159.8092 O   0  0  0  0  0  0  0  0  0  0  0  0
  155.5820  134.2414  162.1235 N   0  0  0  0  0  0  0  0  0  0  0  0
  155.8618  132.7750  162.4197 C   0  0  1  0  0  0  0  0  0  0  0  0
  156.7732  132.6884  163.4715 O   0  0  0  0  0  0  0  0  0  0  0  0
  156.1337  132.2839  164.6734 C   0  0  2  0  0  0  0  0  0  0  0  0
  157.1139  131.4705  165.5264 C   0  0  0  0  0  0  0  0  0  0  0  0
  154.8931  131.4923  164.2317 C   0  0  1  0  0  0  0  0  0  0  0  0
  153.8004  131.8104  165.0698 O   0  0  0  0  0  0  0  0  0  0  0  0
  154.6179  131.9408  162.7922 C   0  0  2  0  0  0  0  0  0  0  0  0
  154.4997  130.8077  161.9550 O   0  0  0  0  0  0  0  0  0  0  0  0
  155.2639  135.0796  163.1841 C   0  0  0  0  0  0  0  0  0  0  0  0
  154.9233  136.3744  163.0060 C   0  0  0  0  0  0  0  0  0  0  0  0
  154.6276  137.1594  164.0565 F   0  0  0  0  0  0  0  0  0  0  0  0
  156.3455  132.3960  161.5186 H   0  0  0  0  0  0  0  0  0  0  0  0
  155.8537  133.1807  165.2253 H   0  0  0  0  0  0  0  0  0  0  0  0
  155.0871  130.4193  164.2790 H   0  0  0  0  0  0  0  0  0  0  0  0
  153.7061  132.5293  162.6889 H   0  0  0  0  0  0  0  0  0  0  0  0
  151.8203  146.0439  160.9280 H   0  0  0  0  0  0  0  0  0  0  0  0
  152.3391  144.4478  161.4629 H   0  0  0  0  0  0  0  0  0  0  0  0
  150.7317  144.6674  160.7704 H   0  0  0  0  0  0  0  0  0  0  0  0
  151.7819  145.2773  158.5601 H   0  0  0  0  0  0  0  0  0  0  0  0
  153.3694  145.0556  159.2561 H   0  0  0  0  0  0  0  0  0  0  0  0
  151.2701  142.8543  159.0499 H   0  0  0  0  0  0  0  0  0  0  0  0
  152.5442  143.0832  157.8800 H   0  0  0  0  0  0  0  0  0  0  0  0
  154.2642  142.6972  159.6499 H   0  0  0  0  0  0  0  0  0  0  0  0
  153.0125  142.5093  160.8516 H   0  0  0  0  0  0  0  0  0  0  0  0
  152.1296  140.5036  159.5481 H   0  0  0  0  0  0  0  0  0  0  0  0
  153.4971  140.6778  158.4522 H   0  0  0  0  0  0  0  0  0  0  0  0
  154.4618  138.7713  162.2659 H   0  0  0  0  0  0  0  0  0  0  0  0
  156.6425  131.1378  166.4515 H   0  0  0  0  0  0  0  0  0  0  0  0
  157.9859  132.0679  165.7933 H   0  0  0  0  0  0  0  0  0  0  0  0
  157.4656  130.5875  164.9920 H   0  0  0  0  0  0  0  0  0  0  0  0
  153.6551  132.7441  165.0282 H   0  0  0  0  0  0  0  0  0  0  0  0
  155.2381  130.2398  162.1137 H   0  0  0  0  0  0  0  0  0  0  0  0
  155.2831  134.7015  164.1962 H   0  0  0  0  0  0  0  0  0  0  0  0
  1  2  1  0  0  0  0
  1 30  1  0  0  0  0
  1 31  1  0  0  0  0
  1 32  1  0  0  0  0
  2  3  1  0  0  0  0
  2 33  1  0  0  0  0
  2 34  1  0  0  0  0
  3  4  1  0  0  0  0
  3 35  1  0  0  0  0
  3 36  1  0  0  0  0
  4  5  1  0  0  0  0
  4 37  1  0  0  0  0
  4 38  1  0  0  0  0
  5  6  1  0  0  0  0
  5 39  1  0  0  0  0
  5 40  1  0  0  0  0
  6  7  1  0  0  0  0
  7  8  2  0  0  0  0
  7  9  1  0  0  0  0
  9 10  1  0  0  0  0
  9 41  1  0  0  0  0
 10 24  1  0  0  0  0
 10 11  2  0  0  0  0
 11 12  1  0  0  0  0
 12 13  2  0  0  0  0
 12 14  1  0  0  0  0
 14 15  1  0  0  0  0
 14 23  1  0  0  0  0
 15 26  1  0  0  0  0
 15 21  1  0  0  0  0
 15 16  1  0  0  0  0
 16 17  1  0  0  0  0
 17 27  1  0  0  0  0
 17 18  1  0  0  0  0
 17 19  1  0  0  0  0
 18 42  1  0  0  0  0
 18 43  1  0  0  0  0
 18 44  1  0  0  0  0
 19 28  1  0  0  0  0
 19 20  1  0  0  0  0
 19 21  1  0  0  0  0
 20 45  1  0  0  0  0
 21 29  1  0  0  0  0
 21 22  1  0  0  0  0
 22 46  1  0  0  0  0
 23 24  2  0  0  0  0
 23 47  1  0  0  0  0
 24 25  1  0  0  0  0
M  END
> <s_m_source_file>
AV-unprocessed.smi

> <i_m_source_file_index>
40

> <i_lp_mmshare_version>
43012

> <i_f3d_flags>
0

> <s_epik_input>
W0NIM11bQ0gyXVtDSDJdW0NIMl1bQ0gyXU9DKD1PKVtOSF1jMW5jKD1PKW4oW2NIXWMxRilbQ0BASF0yT1tDQEhdKFtDSDNdKVtDQEBIXShbT0hdKVtDQEhdMltPSF0=

> <s_epik_cmdline>
J2VwaWtfcHl0aG9uJywgJy1waCcsICc3LjAnLCAnLXRuJywgJzgnLCAnLW1hJywgJzIwMCcsICctbWV0YWxfYmluZGluZycsICctaW1hZScsICc8aW5maWxlLm1hZT4nLCAnLW9tYWUnLCAnPG91dGZpbGUubWFlPic=

> <r_lp_tautomer_probability>
1

> <r_epik_Ionization_Penalty>
2.29506e-06

> <r_epik_Ionization_Penalty_Charging>
8.26867e-09

> <r_epik_Ionization_Penalty_Neutral>
2.2868e-06

> <r_epik_State_Penalty>
-0

> <r_epik_Charging_Adjusted_Penalty>
8.26867e-09

> <i_epik_Tot_Q>
0

> <i_epik_Tot_abs_Q>
0

> <r_epik_Metal_State_Penalty>
-0

> <b_epik_Metal_Only>
0

> <s_epik_Chemistry_Notes>
This compound has an ester and may undergo hydrolysis at high or low pH. This compound contains an acetal/aminal-like group ( X-CH(R)-Y where X, Y are N, S, or O) that may be acid/base labile, releasing an aldehyde.

> <s_lp_Force_Field>
OPLS_2005

> <r_lp_Energy>
21.8092

> <b_lp_Chiralities_Consistent>
1

> <s_lp_Variant>
AV-unprocessed.smi:40-10

> <Gold.Version>
5.8.1

> <Gold.Id.Protein>
6NUR|6NUR_protein|mol2

> <Gold.PLP.Fitness>
42.5817

> <Gold.PLP.PLP>
-44.0368

> <Gold.PLP.part.hbond>
-0.4640

> <Gold.PLP.part.metal>
0.0000

> <Gold.PLP.part.buried>
-5.3879

> <Gold.PLP.part.nonpolar>
-37.2546

> <Gold.PLP.part.repulsive>
0.0178

> <Gold.PLP.ligand.clash>
0.0000

> <Gold.PLP.ligand.torsion>
0.7880

> <Gold.PLP.Chemscore.Hbond>
0.0000

> <Gold.PLP.Chemscore.CHOScore>
0.0000

> <Gold.PLP.Chemscore.Metal>
0.0000

> <Gold.PLP.Chemscore.Internal.Correction>
0.1208

> <Gold.Rescore>
     Score         DG    S(hbond)    S(metal)    S(lipo)     H(rot)  DE(clash)    DE(int)     intcor
      5.12      -7.72       0.00        0.00     100.01       3.70       0.53       2.07       ----

> <Gold.Chemscore.Fitness>
5.1207

> <Gold.Chemscore.DG>
-7.7204

> <Gold.Chemscore.ZeroCoef>
-5.4800

> <Gold.Chemscore.Hbond>
0.0000

> <Gold.Chemscore.Metal>
0.0000

> <Gold.Chemscore.Lipo>
100.0119

> <Gold.Chemscore.Internal_Hbond>
0.0000

> <Gold.Chemscore.DEClash>
0.5312

> <Gold.Chemscore.DEInternal>
2.0686

> <Gold.Chemscore.Rot>
3.6957

> <Gold.Chemscore.Internal.Correction>
   9.000000E+99

> <Gold.Chemscore.Hbond.Weighted>
-0.0000

> <Gold.Chemscore.Metal.Weighted>
-0.0000

> <Gold.Chemscore.Lipo.Weighted>
-11.7014

> <Gold.Chemscore.Internal_Hbond.Weighted>
0.0000

> <Gold.Chemscore.DEClash.Weighted>
0.5312

> <Gold.Chemscore.DEInternal.Weighted>
2.0686

> <Gold.Chemscore.Rot.Weighted>
9.4610

> <Gold.Chemscore.Internal.Correction.Weighted>
   9.000000E+99

> <Gold.Protein.RotatedTorsions>
[ 6907 6896 6895 6894 ] final  158.01 input  -60.11 | X-H torsion
[ 7974 7965 7964 7962 ] final  -86.85 input  175.53 | X-H torsion
[ 8008 7997 7996 7995 ] final   50.24 input   59.86 | X-H torsion
[ 10167 10162 10161 10158 ] final   88.39 input  -65.29 | X-H torsion
[ 10718 10713 10712 10709 ] final  151.22 input   66.30 | X-H torsion
[ 10763 10752 10751 10750 ] final    4.23 input  -60.55 | X-H torsion
[ 11005 11000 10999 10996 ] final -152.14 input  -57.11 | X-H torsion

> <Gold.Protein.ActiveResidues>
 VAL166  LYS551  ARG553  GLY616  TRP617  ASP618  TYR619  PRO620  LYS621  CYS622 
 ASP623  PHE694  ASN695  SER759  ASP760  ASP761  ALA762  ILE779  LEU786  VAL792 
 PHE793  MET794  SER795  GLU796  ALA797  LYS798  CYS799  TRP800  GLU811  SER814 

> <Gold.Protein.RotatedAtoms>
  152.0066  133.3845  159.4202 H   0  0  0  0  0  0  0  0  0  0  0  0  # atno 6907 bound_to 6896
  150.6904  134.3776  159.5029 H   0  0  0  0  0  0  0  0  0  0  0  0  # atno 6908 bound_to 6896
  152.1530  134.8972  160.0597 H   0  0  0  0  0  0  0  0  0  0  0  0  # atno 6909 bound_to 6896
  145.4744  140.9559  143.1899 H   0  0  0  0  0  0  0  0  0  0  0  0  # atno 7974 bound_to 7965
  155.4155  140.3444  155.4267 H   0  0  0  0  0  0  0  0  0  0  0  0  # atno 8008 bound_to 7997
  156.1424  140.1546  156.8931 H   0  0  0  0  0  0  0  0  0  0  0  0  # atno 8009 bound_to 7997
  154.4982  140.0822  156.7722 H   0  0  0  0  0  0  0  0  0  0  0  0  # atno 8010 bound_to 7997
  139.8677  144.6510  150.8985 H   0  0  0  0  0  0  0  0  0  0  0  0  # atno 10167 bound_to 10162
  157.2734  131.0821  151.1583 H   0  0  0  0  0  0  0  0  0  0  0  0  # atno 10718 bound_to 10713
  153.2737  135.6934  153.7455 H   0  0  0  0  0  0  0  0  0  0  0  0  # atno 10763 bound_to 10752
  153.6468  135.3383  155.3089 H   0  0  0  0  0  0  0  0  0  0  0  0  # atno 10764 bound_to 10752
  154.8472  135.4445  154.1768 H   0  0  0  0  0  0  0  0  0  0  0  0  # atno 10765 bound_to 10752
  140.7221  134.3715  157.5181 H   0  0  0  0  0  0  0  0  0  0  0  0  # atno 11005 bound_to 11000
  144.7926  139.6298  143.7106 LP  0  0  0  0  0  0  0  0  0  0  0  0  # atno 17320 bound_to 7965
  146.2378  139.5940  142.9512 LP  0  0  0  0  0  0  0  0  0  0  0  0  # atno 17321 bound_to 7965
  140.7765  143.3690  151.1685 LP  0  0  0  0  0  0  0  0  0  0  0  0  # atno 17342 bound_to 10162
  139.7313  143.9068  152.3020 LP  0  0  0  0  0  0  0  0  0  0  0  0  # atno 17343 bound_to 10162
  157.3046  130.6859  149.6182 LP  0  0  0  0  0  0  0  0  0  0  0  0  # atno 17370 bound_to 10713
  155.9663  130.4382  150.5206 LP  0  0  0  0  0  0  0  0  0  0  0  0  # atno 17371 bound_to 10713
  139.8846  134.8962  156.2696 LP  0  0  0  0  0  0  0  0  0  0  0  0  # atno 17394 bound_to 11000
  140.9994  133.7160  156.0937 LP  0  0  0  0  0  0  0  0  0  0  0  0  # atno 17395 bound_to 11000

$$$$
