AV-unprocessed.smi:72|AV-procd|sdf|700|dock2
  -GOLD-   2262017 13D 1   1.00000     0.00000
 Structure written by MMmdl.
 30 31  0  0  0  0  0  0  0  0  2 V2000
  156.8709  139.2823  160.9112 N   0  0  0  0  0  0  0  0  0  0  0  0
  155.5991  139.6620  160.5354 C   0  0  0  0  0  0  0  0  0  0  0  0
  155.3202  141.0160  160.4875 N   0  3  0  0  0  0  0  0  0  0  0  0
  154.1408  141.5492  160.1405 C   0  0  0  0  0  0  0  0  0  0  0  0
  153.1497  140.7474  159.8041 N   0  0  0  0  0  0  0  0  0  0  0  0
  151.7931  141.2774  159.4000 C   0  0  1  0  0  0  0  0  0  0  0  0
  151.7984  142.6641  159.5527 O   0  0  0  0  0  0  0  0  0  0  0  0
  151.9131  143.2926  158.2803 C   0  0  2  0  0  0  0  0  0  0  0  0
  151.4429  144.7559  158.3365 C   0  0  0  0  0  0  0  0  0  0  0  0
  150.0883  144.8075  158.7302 O   0  0  0  0  0  0  0  0  0  0  0  0
  151.0937  142.3645  157.3774 C   0  0  2  0  0  0  0  0  0  0  0  0
  149.7071  142.6210  157.5073 O   0  0  0  0  0  0  0  0  0  0  0  0
  151.4324  140.9816  157.9208 C   0  0  1  0  0  0  0  0  0  0  0  0
  152.4953  140.4258  157.1644 O   0  0  0  0  0  0  0  0  0  0  0  0
  153.3376  139.3414  159.8358 C   0  0  0  0  0  0  0  0  0  0  0  0
  152.4165  138.5854  159.5285 O   0  0  0  0  0  0  0  0  0  0  0  0
  154.6064  138.8794  160.2144 N   0  0  0  0  0  0  0  0  0  0  0  0
  151.0864  140.8561  160.1172 H   0  0  0  0  0  0  0  0  0  0  0  0
  152.9515  143.2492  157.9469 H   0  0  0  0  0  0  0  0  0  0  0  0
  151.3592  142.4816  156.3256 H   0  0  0  0  0  0  0  0  0  0  0  0
  150.5818  140.2999  157.8746 H   0  0  0  0  0  0  0  0  0  0  0  0
  157.1629  138.3172  160.9749 H   0  0  0  0  0  0  0  0  0  0  0  0
  157.6082  139.9307  161.1473 H   0  0  0  0  0  0  0  0  0  0  0  0
  154.0304  142.6250  160.1494 H   0  0  0  0  0  0  0  0  0  0  0  0
  152.0206  145.3077  159.0786 H   0  0  0  0  0  0  0  0  0  0  0  0
  151.5774  145.2572  157.3774 H   0  0  0  0  0  0  0  0  0  0  0  0
  149.5775  145.1376  158.0064 H   0  0  0  0  0  0  0  0  0  0  0  0
  149.5139  143.4503  157.0971 H   0  0  0  0  0  0  0  0  0  0  0  0
  152.1288  139.8520  156.5084 H   0  0  0  0  0  0  0  0  0  0  0  0
  156.0659  141.6504  160.7354 H   0  0  0  0  0  0  0  0  0  0  0  0
  1  2  1  0  0  0  0
  1 22  1  0  0  0  0
  1 23  1  0  0  0  0
  2 17  2  0  0  0  0
  2  3  1  0  0  0  0
  3  4  2  0  0  0  0
  3 30  1  0  0  0  0
  4  5  1  0  0  0  0
  4 24  1  0  0  0  0
  5  6  1  0  0  0  0
  5 15  1  0  0  0  0
  6 18  1  0  0  0  0
  6 13  1  0  0  0  0
  6  7  1  0  0  0  0
  7  8  1  0  0  0  0
  8 19  1  0  0  0  0
  8  9  1  0  0  0  0
  8 11  1  0  0  0  0
  9 10  1  0  0  0  0
  9 25  1  0  0  0  0
  9 26  1  0  0  0  0
 10 27  1  0  0  0  0
 11 20  1  0  0  0  0
 11 12  1  0  0  0  0
 11 13  1  0  0  0  0
 12 28  1  0  0  0  0
 13 21  1  0  0  0  0
 13 14  1  0  0  0  0
 14 29  1  0  0  0  0
 15 16  2  0  0  0  0
 15 17  1  0  0  0  0
M  CHG  1   3   1
M  END
> <s_m_source_file>
AV-unprocessed.smi

> <i_m_source_file_index>
72

> <i_lp_mmshare_version>
43012

> <i_f3d_flags>
0

> <s_epik_input>
W05IMl1jMW5bY0hdbihjKD1PKW4xKVtDQEBIXTJPW0NASF0oW0NIMl1bT0hdKVtDQEBIXShbT0hdKVtDQEhdMltPSF0=

> <s_epik_cmdline>
J2VwaWtfcHl0aG9uJywgJy1waCcsICc3LjAnLCAnLXRuJywgJzgnLCAnLW1hJywgJzIwMCcsICctbWV0YWxfYmluZGluZycsICctaW1hZScsICc8aW5maWxlLm1hZT4nLCAnLW9tYWUnLCAnPG91dGZpbGUubWFlPic=

> <r_lp_tautomer_probability>
4.77166e-05

> <r_epik_Ionization_Penalty>
0.104979

> <r_epik_Ionization_Penalty_Charging>
0.0999619

> <r_epik_Ionization_Penalty_Neutral>
0.00501745

> <r_epik_State_Penalty>
2.51541

> <r_epik_Charging_Adjusted_Penalty>
2.61537

> <i_epik_Tot_Q>
1

> <i_epik_Tot_abs_Q>
1

> <r_epik_Metal_State_Penalty>
3.53763

> <b_epik_Metal_Only>
0

> <s_epik_Chemistry_Notes>
This compound contains an acetal/aminal-like group ( X-CH(R)-Y where X, Y are N, S, or O) that may be acid/base labile, releasing an aldehyde.

> <s_lp_Force_Field>
OPLS_2005

> <r_lp_Energy>
34.8878

> <b_lp_Chiralities_Consistent>
1

> <s_lp_Variant>
AV-unprocessed.smi:72-38

> <Gold.Version>
5.8.1

> <Gold.Id.Protein>
6NUR|6NUR_protein|mol2

> <Gold.PLP.Fitness>
35.7401

> <Gold.PLP.PLP>
-27.2509

> <Gold.PLP.part.hbond>
-3.9937

> <Gold.PLP.part.metal>
0.0000

> <Gold.PLP.part.buried>
-2.9676

> <Gold.PLP.part.nonpolar>
-20.1670

> <Gold.PLP.part.repulsive>
0.0622

> <Gold.PLP.ligand.clash>
0.0000

> <Gold.PLP.ligand.torsion>
0.0602

> <Gold.PLP.Chemscore.Hbond>
2.8320

> <Gold.PLP.Chemscore.CHOScore>
0.0000

> <Gold.PLP.Chemscore.Metal>
0.0000

> <Gold.Chemscore.Hbonds>
donor molecule, donor type, donor heavy atom, donor atom, acceptor molecule, acceptor atom, score
      L1  H    10    27       P1  8029  0.90
      L1  H    12    28       P1  8028  1.00
      P1  H  7997  8010       L1    14  0.76

> <Gold.PLP.Chemscore.Internal.Correction>
0.1136

> <Gold.Rescore>
     Score         DG    S(hbond)    S(metal)    S(lipo)     H(rot)  DE(clash)    DE(int)     intcor
      4.85      -5.28       1.71        0.00      38.84       4.08       0.12       0.31       ----

> <Gold.Chemscore.Fitness>
4.8452

> <Gold.Chemscore.DG>
-5.2800

> <Gold.Chemscore.ZeroCoef>
-5.4800

> <Gold.Chemscore.Hbond>
1.7054

> <Gold.Chemscore.Metal>
0.0000

> <Gold.Chemscore.Lipo>
38.8417

> <Gold.Chemscore.Internal_Hbond>
0.0000

> <Gold.Chemscore.DEClash>
0.1214

> <Gold.Chemscore.DEInternal>
0.3134

> <Gold.Chemscore.Rot>
4.0783

> <Gold.Chemscore.Internal.Correction>
   9.000000E+99

> <Gold.Chemscore.Hbonds>
donor molecule, donor type, donor heavy atom, donor atom, acceptor molecule, acceptor atom, score
      L1  H    10    27       P1  8029  0.17
      L1  H    12    28       P1  8028  0.88
      P1  H  7997  8010       L1    14  0.14

> <Gold.Chemscore.Hbond.Weighted>
-5.6959

> <Gold.Chemscore.Metal.Weighted>
-0.0000

> <Gold.Chemscore.Lipo.Weighted>
-4.5445

> <Gold.Chemscore.Internal_Hbond.Weighted>
0.0000

> <Gold.Chemscore.DEClash.Weighted>
0.1214

> <Gold.Chemscore.DEInternal.Weighted>
0.3134

> <Gold.Chemscore.Rot.Weighted>
10.4404

> <Gold.Chemscore.Internal.Correction.Weighted>
   9.000000E+99

> <Gold.Protein.RotatedTorsions>
[ 6907 6896 6895 6894 ] final  -17.88 input  -60.11 | X-H torsion
[ 7974 7965 7964 7962 ] final -101.11 input  175.53 | X-H torsion
[ 8008 7997 7996 7995 ] final   49.72 input   59.86 | X-H torsion
[ 10167 10162 10161 10158 ] final -158.59 input  -65.29 | X-H torsion
[ 10718 10713 10712 10709 ] final  -49.93 input   66.30 | X-H torsion
[ 10763 10752 10751 10750 ] final  -28.75 input  -60.55 | X-H torsion
[ 11005 11000 10999 10996 ] final   32.00 input  -57.11 | X-H torsion

> <Gold.Protein.ActiveResidues>
 VAL166  LYS551  ARG553  GLY616  TRP617  ASP618  TYR619  PRO620  LYS621  CYS622 
 ASP623  PHE694  ASN695  SER759  ASP760  ASP761  ALA762  ILE779  LEU786  VAL792 
 PHE793  MET794  SER795  GLU796  ALA797  LYS798  CYS799  TRP800  GLU811  SER814 

> <Gold.Protein.RotatedAtoms>
  151.2866  135.0729  159.9188 H   0  0  0  0  0  0  0  0  0  0  0  0  # atno 6907 bound_to 6896
  152.5324  133.9975  159.7890 H   0  0  0  0  0  0  0  0  0  0  0  0  # atno 6908 bound_to 6896
  151.0238  133.5801  159.2699 H   0  0  0  0  0  0  0  0  0  0  0  0  # atno 6909 bound_to 6896
  145.2859  140.9339  143.2905 H   0  0  0  0  0  0  0  0  0  0  0  0  # atno 7974 bound_to 7965
  155.4069  140.3440  155.4261 H   0  0  0  0  0  0  0  0  0  0  0  0  # atno 8008 bound_to 7997
  156.1471  140.1559  156.8861 H   0  0  0  0  0  0  0  0  0  0  0  0  # atno 8009 bound_to 7997
  154.5020  140.0812  156.7799 H   0  0  0  0  0  0  0  0  0  0  0  0  # atno 8010 bound_to 7997
  139.6680  143.9795  152.2266 H   0  0  0  0  0  0  0  0  0  0  0  0  # atno 10167 bound_to 10162
  156.1847  130.4151  149.9456 H   0  0  0  0  0  0  0  0  0  0  0  0  # atno 10718 bound_to 10713
  153.7534  135.6924  153.4941 H   0  0  0  0  0  0  0  0  0  0  0  0  # atno 10763 bound_to 10752
  153.1987  135.4444  155.0239 H   0  0  0  0  0  0  0  0  0  0  0  0  # atno 10764 bound_to 10752
  154.8179  135.3407  154.7054 H   0  0  0  0  0  0  0  0  0  0  0  0  # atno 10765 bound_to 10752
  140.2780  134.3006  155.7808 H   0  0  0  0  0  0  0  0  0  0  0  0  # atno 11005 bound_to 11000
  144.9214  139.4407  143.6539 LP  0  0  0  0  0  0  0  0  0  0  0  0  # atno 17320 bound_to 7965
  146.3201  139.8076  142.8952 LP  0  0  0  0  0  0  0  0  0  0  0  0  # atno 17321 bound_to 7965
  139.9552  144.6594  150.8133 LP  0  0  0  0  0  0  0  0  0  0  0  0  # atno 17342 bound_to 10162
  140.7607  143.3157  151.2739 LP  0  0  0  0  0  0  0  0  0  0  0  0  # atno 17343 bound_to 10162
  156.7215  130.9009  151.3618 LP  0  0  0  0  0  0  0  0  0  0  0  0  # atno 17370 bound_to 10713
  157.6891  130.9215  150.0465 LP  0  0  0  0  0  0  0  0  0  0  0  0  # atno 17371 bound_to 10713
  141.2167  133.7507  156.9436 LP  0  0  0  0  0  0  0  0  0  0  0  0  # atno 17394 bound_to 11000
  140.1310  134.9355  157.2337 LP  0  0  0  0  0  0  0  0  0  0  0  0  # atno 17395 bound_to 11000

$$$$
