AV-unprocessed.smi:2445|AV-procd|sdf|9634|dock2
  -GOLD-   2272013263D 1   1.00000     0.00000
 Structure written by MMmdl.
 40 41  0  0  0  0  0  0  0  0  1 V2000
  143.8979  132.5874  148.6391 C   0  0  0  0  0  0  0  0  0  0  0  0
  144.2769  132.8187  150.0625 C   0  0  0  0  0  0  0  0  0  0  0  0
  143.4506  133.1421  151.1101 C   0  0  0  0  0  0  0  0  0  0  0  0
  144.1166  133.2930  152.3282 N   0  0  0  0  0  0  0  0  0  0  0  0
  145.4328  133.0893  152.2207 C   0  0  0  0  0  0  0  0  0  0  0  0
  146.3863  133.1845  153.3703 C   0  0  1  0  0  0  0  0  0  0  0  0
  147.8368  132.9285  152.9254 C   0  0  0  0  0  0  0  0  0  0  0  0
  146.1875  134.4945  154.1635 C   0  0  0  0  0  0  0  0  0  0  0  0
  147.2374  135.4753  153.9075 N   0  0  0  0  0  0  0  0  0  0  0  0
  147.4468  136.5831  154.6313 C   0  0  0  0  0  0  0  0  0  0  0  0
  146.7609  136.9153  155.5982 O   0  0  0  0  0  0  0  0  0  0  0  0
  148.5005  137.2774  154.1814 N   0  0  0  0  0  0  0  0  0  0  0  0
  149.0087  138.5087  154.7776 C   0  0  2  0  0  0  0  0  0  0  0  0
  148.2127  139.7170  154.3297 C   0  0  0  0  0  0  0  0  0  0  0  0
  149.2103  140.8550  154.5258 C   0  0  0  0  0  0  0  0  0  0  0  0
  150.5061  140.2796  154.3875 O   0  0  0  0  0  0  0  0  0  0  0  0
  150.4098  138.8642  154.2659 C   0  0  1  0  0  0  0  0  0  0  0  0
  151.5573  138.1886  155.0263 C   0  0  0  0  0  0  0  0  0  0  0  0
  145.9370  132.6915  150.5818 S   0  0  0  0  0  0  0  0  0  0  0  0
  142.8243  132.7101  148.4930 H   0  0  0  0  0  0  0  0  0  0  0  0
  144.1670  131.5783  148.3266 H   0  0  0  0  0  0  0  0  0  0  0  0
  144.4094  133.2926  147.9839 H   0  0  0  0  0  0  0  0  0  0  0  0
  142.3804  133.2837  151.0789 H   0  0  0  0  0  0  0  0  0  0  0  0
  146.1258  132.3652  154.0416 H   0  0  0  0  0  0  0  0  0  0  0  0
  147.9227  131.9718  152.4093 H   0  0  0  0  0  0  0  0  0  0  0  0
  148.5189  132.9003  153.7753 H   0  0  0  0  0  0  0  0  0  0  0  0
  148.1850  133.7062  152.2451 H   0  0  0  0  0  0  0  0  0  0  0  0
  145.2335  134.9502  153.8971 H   0  0  0  0  0  0  0  0  0  0  0  0
  146.1394  134.2846  155.2335 H   0  0  0  0  0  0  0  0  0  0  0  0
  147.8553  135.2882  153.1314 H   0  0  0  0  0  0  0  0  0  0  0  0
  148.9994  136.9203  153.3796 H   0  0  0  0  0  0  0  0  0  0  0  0
  148.9993  138.4624  155.8687 H   0  0  0  0  0  0  0  0  0  0  0  0
  147.9549  139.6353  153.2723 H   0  0  0  0  0  0  0  0  0  0  0  0
  147.2909  139.8579  154.8944 H   0  0  0  0  0  0  0  0  0  0  0  0
  149.0571  141.6660  153.8135 H   0  0  0  0  0  0  0  0  0  0  0  0
  149.1232  141.2682  155.5314 H   0  0  0  0  0  0  0  0  0  0  0  0
  150.4843  138.6282  153.2028 H   0  0  0  0  0  0  0  0  0  0  0  0
  151.5137  137.1043  154.9236 H   0  0  0  0  0  0  0  0  0  0  0  0
  151.5205  138.4267  156.0894 H   0  0  0  0  0  0  0  0  0  0  0  0
  152.5234  138.5179  154.6436 H   0  0  0  0  0  0  0  0  0  0  0  0
  1  2  1  0  0  0  0
  1 20  1  0  0  0  0
  1 21  1  0  0  0  0
  1 22  1  0  0  0  0
  2 19  1  0  0  0  0
  2  3  2  0  0  0  0
  3  4  1  0  0  0  0
  3 23  1  0  0  0  0
  4  5  2  0  0  0  0
  5  6  1  0  0  0  0
  5 19  1  0  0  0  0
  6  7  1  0  0  0  0
  6  8  1  0  0  0  0
  6 24  1  0  0  0  0
  7 25  1  0  0  0  0
  7 26  1  0  0  0  0
  7 27  1  0  0  0  0
  8  9  1  0  0  0  0
  8 28  1  0  0  0  0
  8 29  1  0  0  0  0
  9 10  1  0  0  0  0
  9 30  1  0  0  0  0
 10 11  2  0  0  0  0
 10 12  1  0  0  0  0
 12 13  1  0  0  0  0
 12 31  1  0  0  0  0
 13 17  1  0  0  0  0
 13 14  1  0  0  0  0
 13 32  1  0  0  0  0
 14 15  1  0  0  0  0
 14 33  1  0  0  0  0
 14 34  1  0  0  0  0
 15 16  1  0  0  0  0
 15 35  1  0  0  0  0
 15 36  1  0  0  0  0
 16 17  1  0  0  0  0
 17 18  1  0  0  0  0
 17 37  1  0  0  0  0
 18 38  1  0  0  0  0
 18 39  1  0  0  0  0
 18 40  1  0  0  0  0
M  END
> <s_m_source_file>
AV-unprocessed.smi

> <i_m_source_file_index>
2445

> <i_lp_mmshare_version>
43012

> <i_f3d_flags>
0

> <s_epik_input>
W0NIM11jMVtjSF1uYyhzMSlbQ0BIXShbQ0gzXSlbQ0gyXVtOSF1DKD1PKVtOSF1bQ0BASF0yW0NIMl1bQ0gyXU9bQ0BIXTJbQ0gzXQ==

> <s_epik_cmdline>
J2VwaWtfcHl0aG9uJywgJy1waCcsICc3LjAnLCAnLXRuJywgJzgnLCAnLW1hJywgJzIwMCcsICctbWV0YWxfYmluZGluZycsICctaW1hZScsICc8aW5maWxlLm1hZT4nLCAnLW9tYWUnLCAnPG91dGZpbGUubWFlPic=

> <r_epik_Ionization_Penalty>
0.000649483

> <r_epik_Ionization_Penalty_Charging>
0

> <r_epik_Ionization_Penalty_Neutral>
0.000649483

> <r_epik_State_Penalty>
0.000379895

> <r_epik_Charging_Adjusted_Penalty>
0.000379895

> <i_epik_Tot_Q>
0

> <i_epik_Tot_abs_Q>
0

> <r_epik_Metal_State_Penalty>
-0

> <b_epik_Metal_Only>
0

> <s_lp_Force_Field>
OPLS_2005

> <r_lp_Energy>
5.33919

> <b_lp_Chiralities_Consistent>
1

> <s_lp_Variant>
AV-unprocessed.smi:2445-2

> <Gold.Version>
5.8.1

> <Gold.Id.Protein>
6NUR|6NUR_protein|mol2

> <Gold.PLP.Fitness>
43.6448

> <Gold.PLP.PLP>
-34.0856

> <Gold.PLP.part.hbond>
-2.7835

> <Gold.PLP.part.metal>
0.0000

> <Gold.PLP.part.buried>
-3.2405

> <Gold.PLP.part.nonpolar>
-27.9179

> <Gold.PLP.part.repulsive>
0.3011

> <Gold.PLP.ligand.clash>
0.0000

> <Gold.PLP.ligand.torsion>
0.9974

> <Gold.PLP.Chemscore.Hbond>
2.8800

> <Gold.PLP.Chemscore.CHOScore>
0.9223

> <Gold.PLP.Chemscore.Metal>
0.0000

> <Gold.Chemscore.Hbonds>
donor molecule, donor type, donor heavy atom, donor atom, acceptor molecule, acceptor atom, score
      L1  H     9    30       P1  7948  0.83
      L1  H    12    31       P1  7948  1.00
      P1  H  7989  7998       L1    16  1.00
      L1  C     3    23       P1 10186  1.00

> <Gold.PLP.Chemscore.Internal.Correction>
0.1471

> <Gold.Rescore>
     Score         DG    S(hbond)    S(metal)    S(lipo)     H(rot)  DE(clash)    DE(int)     intcor
     19.53     -20.67       2.56        0.00      90.40       1.53       0.07       1.07       ----

> <Gold.Chemscore.Fitness>
19.5271

> <Gold.Chemscore.DG>
-20.6686

> <Gold.Chemscore.ZeroCoef>
-5.4800

> <Gold.Chemscore.Hbond>
2.5552

> <Gold.Chemscore.Metal>
0.0000

> <Gold.Chemscore.Lipo>
90.4047

> <Gold.Chemscore.Internal_Hbond>
0.0000

> <Gold.Chemscore.DEClash>
0.0691

> <Gold.Chemscore.DEInternal>
1.0724

> <Gold.Chemscore.Rot>
1.5325

> <Gold.Chemscore.Internal.Correction>
   9.000000E+99

> <Gold.Chemscore.Hbonds>
donor molecule, donor type, donor heavy atom, donor atom, acceptor molecule, acceptor atom, score
      L1  H     9    30       P1  7948  0.81
      L1  H    12    31       P1  7948  0.94
      P1  H  7989  7998       L1    16  0.77

> <Gold.Chemscore.Hbond.Weighted>
-8.5345

> <Gold.Chemscore.Metal.Weighted>
-0.0000

> <Gold.Chemscore.Lipo.Weighted>
-10.5773

> <Gold.Chemscore.Internal_Hbond.Weighted>
0.0000

> <Gold.Chemscore.DEClash.Weighted>
0.0691

> <Gold.Chemscore.DEInternal.Weighted>
1.0724

> <Gold.Chemscore.Rot.Weighted>
3.9233

> <Gold.Chemscore.Internal.Correction.Weighted>
   9.000000E+99

> <Gold.Protein.RotatedTorsions>
[ 6907 6896 6895 6894 ] final  -43.36 input  -60.11 | X-H torsion
[ 7974 7965 7964 7962 ] final  171.76 input  175.53 | X-H torsion
[ 8008 7997 7996 7995 ] final -138.80 input   59.86 | X-H torsion
[ 10167 10162 10161 10158 ] final -147.76 input  -65.29 | X-H torsion
[ 10718 10713 10712 10709 ] final   32.12 input   66.30 | X-H torsion
[ 10763 10752 10751 10750 ] final   25.00 input  -60.55 | X-H torsion
[ 11005 11000 10999 10996 ] final   10.76 input  -57.11 | X-H torsion

> <Gold.Protein.ActiveResidues>
 VAL166  LYS551  ARG553  GLY616  TRP617  ASP618  TYR619  PRO620  LYS621  CYS622 
 ASP623  PHE694  ASN695  SER759  ASP760  ASP761  ALA762  ILE779  LEU786  VAL792 
 PHE793  MET794  SER795  GLU796  ALA797  LYS798  CYS799  TRP800  GLU811  SER814 

> <Gold.Protein.RotatedAtoms>
  150.9448  134.8854  159.7634 H   0  0  0  0  0  0  0  0  0  0  0  0  # atno 6907 bound_to 6896
  152.5095  134.3890  159.9387 H   0  0  0  0  0  0  0  0  0  0  0  0  # atno 6908 bound_to 6896
  151.3909  133.3749  159.2755 H   0  0  0  0  0  0  0  0  0  0  0  0  # atno 6909 bound_to 6896
  144.7286  139.9397  143.6428 H   0  0  0  0  0  0  0  0  0  0  0  0  # atno 7974 bound_to 7965
  155.4343  140.0527  157.3016 H   0  0  0  0  0  0  0  0  0  0  0  0  # atno 8008 bound_to 7997
  154.4846  140.2095  155.9643 H   0  0  0  0  0  0  0  0  0  0  0  0  # atno 8009 bound_to 7997
  156.1256  140.3181  155.8277 H   0  0  0  0  0  0  0  0  0  0  0  0  # atno 8010 bound_to 7997
  139.7593  143.8401  152.2603 H   0  0  0  0  0  0  0  0  0  0  0  0  # atno 10167 bound_to 10162
  157.2812  130.7256  149.6557 H   0  0  0  0  0  0  0  0  0  0  0  0  # atno 10718 bound_to 10713
  153.0723  135.6593  154.0220 H   0  0  0  0  0  0  0  0  0  0  0  0  # atno 10763 bound_to 10752
  153.9863  135.2950  155.3417 H   0  0  0  0  0  0  0  0  0  0  0  0  # atno 10764 bound_to 10752
  154.7101  135.5208  153.8724 H   0  0  0  0  0  0  0  0  0  0  0  0  # atno 10765 bound_to 10752
  140.5108  134.0654  155.7818 H   0  0  0  0  0  0  0  0  0  0  0  0  # atno 11005 bound_to 11000
  146.0794  139.3782  143.0474 LP  0  0  0  0  0  0  0  0  0  0  0  0  # atno 17320 bound_to 7965
  145.7861  140.9835  143.1073 LP  0  0  0  0  0  0  0  0  0  0  0  0  # atno 17321 bound_to 7965
  139.8403  144.7213  150.9340 LP  0  0  0  0  0  0  0  0  0  0  0  0  # atno 17342 bound_to 10162
  140.7805  143.3990  151.1181 LP  0  0  0  0  0  0  0  0  0  0  0  0  # atno 17343 bound_to 10162
  155.9664  130.4337  150.5019 LP  0  0  0  0  0  0  0  0  0  0  0  0  # atno 17370 bound_to 10713
  157.2963  131.0636  151.2099 LP  0  0  0  0  0  0  0  0  0  0  0  0  # atno 17371 bound_to 10713
  141.1386  133.9177  157.2376 LP  0  0  0  0  0  0  0  0  0  0  0  0  # atno 17394 bound_to 11000
  139.9660  135.0142  156.9388 LP  0  0  0  0  0  0  0  0  0  0  0  0  # atno 17395 bound_to 11000

$$$$
