AV-unprocessed.smi:167|AV-procd|sdf|1395|dock5
  -GOLD-   2262019133D 1   1.00000     0.00000
 Structure written by MMmdl.
 51 55  0  0  0  0  0  0  0  0  1 V2000
  151.8641  137.3348  154.8416 O   0  0  0  0  0  0  0  0  0  0  0  0
  150.8780  138.0606  154.1393 C   0  0  0  0  0  0  0  0  0  0  0  0
  150.4005  139.2589  154.9820 C   0  0  1  0  0  0  0  0  0  0  0  0
  149.2102  140.0274  154.3716 C   0  0  0  0  0  0  0  0  0  0  0  0
  148.1963  140.0051  155.5344 C   0  0  2  0  0  0  0  0  0  0  0  0
  148.6848  140.9477  156.6483 C   0  0  0  0  0  0  0  0  0  0  0  0
  149.8260  140.1205  157.2634 C   0  0  0  0  0  0  0  0  0  0  0  0
  149.8147  138.8713  156.3635 C   0  0  1  0  0  0  0  0  0  0  0  0
  148.3874  138.6943  156.1356 N   0  0  0  0  0  0  0  0  0  0  0  0
  147.9014  137.5683  155.5459 C   0  0  0  0  0  0  0  0  0  0  0  0
  148.2264  136.3576  156.0720 N   0  0  0  0  0  0  0  0  0  0  0  0
  147.7557  135.2326  155.5277 C   0  0  0  0  0  0  0  0  0  0  0  0
  146.9647  135.0890  154.4639 N   0  0  0  0  0  0  0  0  0  0  0  0
  146.6506  136.2967  153.9141 C   0  0  0  0  0  0  0  0  0  0  0  0
  147.0741  137.5733  154.3845 C   0  0  0  0  0  0  0  0  0  0  0  0
  146.5530  138.5676  153.5650 N   0  0  0  0  0  0  0  0  0  0  0  0
  145.8499  137.9207  152.6770 C   0  0  0  0  0  0  0  0  0  0  0  0
  145.8644  136.5498  152.8024 N   0  0  0  0  0  0  0  0  0  0  0  0
  145.1666  135.5989  151.9836 C   0  0  0  0  0  0  0  0  0  0  0  0
  145.2192  134.0935  152.2675 C   0  0  0  0  0  0  0  0  0  0  0  0
  145.1487  133.8192  150.7467 C   0  0  0  0  0  0  0  0  0  0  0  0
  146.0380  132.6797  150.2113 C   0  0  0  0  0  0  0  0  0  0  0  0
  147.3308  132.6848  150.7840 O   0  0  0  0  0  0  0  0  0  0  0  0
  143.7225  133.5697  150.2209 C   0  0  0  0  0  0  0  0  0  0  0  0
  143.6501  133.7220  148.8176 O   0  0  0  0  0  0  0  0  0  0  0  0
  145.6741  135.2648  150.5803 C   0  0  0  0  0  0  0  0  0  0  0  0
  151.8317  137.5881  155.7517 H   0  0  0  0  0  0  0  0  0  0  0  0
  151.2905  138.3754  153.1816 H   0  0  0  0  0  0  0  0  0  0  0  0
  150.0436  137.3919  153.9267 H   0  0  0  0  0  0  0  0  0  0  0  0
  151.2511  139.9275  155.1242 H   0  0  0  0  0  0  0  0  0  0  0  0
  149.4759  141.0394  154.0645 H   0  0  0  0  0  0  0  0  0  0  0  0
  148.8081  139.5116  153.4984 H   0  0  0  0  0  0  0  0  0  0  0  0
  147.1743  140.2238  155.2229 H   0  0  0  0  0  0  0  0  0  0  0  0
  149.0176  141.9132  156.2658 H   0  0  0  0  0  0  0  0  0  0  0  0
  147.8998  141.1247  157.3846 H   0  0  0  0  0  0  0  0  0  0  0  0
  150.7827  140.6436  157.2604 H   0  0  0  0  0  0  0  0  0  0  0  0
  149.5912  139.8554  158.2950 H   0  0  0  0  0  0  0  0  0  0  0  0
  150.3292  138.0351  156.8337 H   0  0  0  0  0  0  0  0  0  0  0  0
  148.0549  134.3167  156.0154 H   0  0  0  0  0  0  0  0  0  0  0  0
  145.2975  138.4345  151.9040 H   0  0  0  0  0  0  0  0  0  0  0  0
  144.1267  135.9269  151.9409 H   0  0  0  0  0  0  0  0  0  0  0  0
  146.1562  133.7765  152.7257 H   0  0  0  0  0  0  0  0  0  0  0  0
  144.3694  133.7173  152.8377 H   0  0  0  0  0  0  0  0  0  0  0  0
  145.5859  131.7082  150.4130 H   0  0  0  0  0  0  0  0  0  0  0  0
  146.1600  132.7511  149.1302 H   0  0  0  0  0  0  0  0  0  0  0  0
  147.8014  131.9284  150.4679 H   0  0  0  0  0  0  0  0  0  0  0  0
  143.3781  132.5685  150.4823 H   0  0  0  0  0  0  0  0  0  0  0  0
  143.0090  134.2626  150.6672 H   0  0  0  0  0  0  0  0  0  0  0  0
  144.5205  133.8855  148.4878 H   0  0  0  0  0  0  0  0  0  0  0  0
  145.1994  135.8410  149.7854 H   0  0  0  0  0  0  0  0  0  0  0  0
  146.7608  135.3299  150.5074 H   0  0  0  0  0  0  0  0  0  0  0  0
  1  2  1  0  0  0  0
  1 27  1  0  0  0  0
  2  3  1  0  0  0  0
  2 28  1  0  0  0  0
  2 29  1  0  0  0  0
  3  8  1  0  0  0  0
  3  4  1  0  0  0  0
  3 30  1  0  0  0  0
  4  5  1  0  0  0  0
  4 31  1  0  0  0  0
  4 32  1  0  0  0  0
  5  9  1  0  0  0  0
  5  6  1  0  0  0  0
  5 33  1  0  0  0  0
  6  7  1  0  0  0  0
  6 34  1  0  0  0  0
  6 35  1  0  0  0  0
  7  8  1  0  0  0  0
  7 36  1  0  0  0  0
  7 37  1  0  0  0  0
  8  9  1  0  0  0  0
  8 38  1  0  0  0  0
  9 10  1  0  0  0  0
 10 15  1  0  0  0  0
 10 11  2  0  0  0  0
 11 12  1  0  0  0  0
 12 13  2  0  0  0  0
 12 39  1  0  0  0  0
 13 14  1  0  0  0  0
 14 18  1  0  0  0  0
 14 15  2  0  0  0  0
 15 16  1  0  0  0  0
 16 17  2  0  0  0  0
 17 18  1  0  0  0  0
 17 40  1  0  0  0  0
 18 19  1  0  0  0  0
 19 26  1  0  0  0  0
 19 20  1  0  0  0  0
 19 41  1  0  0  0  0
 20 21  1  0  0  0  0
 20 42  1  0  0  0  0
 20 43  1  0  0  0  0
 21 22  1  0  0  0  0
 21 24  1  0  0  0  0
 21 26  1  0  0  0  0
 22 23  1  0  0  0  0
 22 44  1  0  0  0  0
 22 45  1  0  0  0  0
 23 46  1  0  0  0  0
 24 25  1  0  0  0  0
 24 47  1  0  0  0  0
 24 48  1  0  0  0  0
 25 49  1  0  0  0  0
 26 50  1  0  0  0  0
 26 51  1  0  0  0  0
M  END
> <s_m_source_file>
AV-unprocessed.smi

> <i_m_source_file_index>
167

> <i_lp_mmshare_version>
43012

> <i_f3d_flags>
0

> <s_epik_input>
W09IXVtDSDJdW0NASF0oW0NIMl1bQ0BASF0xMilbQ0BIXShbQ0gyXVtDSDJdMSlOMmMobltjSF1uMyljKGMzNCluW2NIXW40W0NIXShbQ0gyXTUpW0NIMl1DNShbQ0gyXVtPSF0pW0NIMl1bT0hd

> <s_epik_cmdline>
J2VwaWtfcHl0aG9uJywgJy1waCcsICc3LjAnLCAnLXRuJywgJzgnLCAnLW1hJywgJzIwMCcsICctbWV0YWxfYmluZGluZycsICctaW1hZScsICc8aW5maWxlLm1hZT4nLCAnLW9tYWUnLCAnPG91dGZpbGUubWFlPic=

> <r_lp_tautomer_probability>
1

> <r_epik_Ionization_Penalty>
0.0047903

> <r_epik_Ionization_Penalty_Charging>
0

> <r_epik_Ionization_Penalty_Neutral>
0.0047903

> <r_epik_State_Penalty>
0.00341021

> <r_epik_Charging_Adjusted_Penalty>
0.00341021

> <i_epik_Tot_Q>
0

> <i_epik_Tot_abs_Q>
0

> <r_epik_Metal_State_Penalty>
-0

> <b_epik_Metal_Only>
0

> <s_lp_Force_Field>
OPLS_2005

> <r_lp_Energy>
89.2094

> <b_lp_Chiralities_Consistent>
1

> <s_lp_Variant>
AV-unprocessed.smi:167-4

> <Gold.Version>
5.8.1

> <Gold.Id.Protein>
6NUR|6NUR_protein|mol2

> <Gold.PLP.Fitness>
41.8287

> <Gold.PLP.PLP>
-28.6894

> <Gold.PLP.part.hbond>
-3.9032

> <Gold.PLP.part.metal>
0.0000

> <Gold.PLP.part.buried>
-1.2833

> <Gold.PLP.part.nonpolar>
-23.5183

> <Gold.PLP.part.repulsive>
0.3166

> <Gold.PLP.ligand.clash>
0.0000

> <Gold.PLP.ligand.torsion>
0.4532

> <Gold.PLP.Chemscore.Hbond>
2.9516

> <Gold.PLP.Chemscore.CHOScore>
1.5745

> <Gold.PLP.Chemscore.Metal>
0.0000

> <Gold.Chemscore.Hbonds>
donor molecule, donor type, donor heavy atom, donor atom, acceptor molecule, acceptor atom, score
      L1  H    23    46       P1 10747  1.00
      L1  H    25    49       P1  7921  0.99
      P1  H 10752 10765       L1     1  0.94
      L1  C    17    40       P1 10171  1.00
      L1  C    17    40       P1 10175  0.61

> <Gold.PLP.Chemscore.Internal.Correction>
0.4676

> <Gold.Rescore>
     Score         DG    S(hbond)    S(metal)    S(lipo)     H(rot)  DE(clash)    DE(int)     intcor
      9.02     -13.06       2.87        0.00      74.86       4.20       1.14       2.90       ----

> <Gold.Chemscore.Fitness>
9.0207

> <Gold.Chemscore.DG>
-13.0608

> <Gold.Chemscore.ZeroCoef>
-5.4800

> <Gold.Chemscore.Hbond>
2.8693

> <Gold.Chemscore.Metal>
0.0000

> <Gold.Chemscore.Lipo>
74.8645

> <Gold.Chemscore.Internal_Hbond>
0.0000

> <Gold.Chemscore.DEClash>
1.1356

> <Gold.Chemscore.DEInternal>
2.9045

> <Gold.Chemscore.Rot>
4.2038

> <Gold.Chemscore.Internal.Correction>
   9.000000E+99

> <Gold.Chemscore.Hbonds>
donor molecule, donor type, donor heavy atom, donor atom, acceptor molecule, acceptor atom, score
      L1  H    23    46       P1 10747  0.98
      L1  H    25    49       P1  7921  0.92
      P1  H 10752 10765       L1     1  0.75

> <Gold.Chemscore.Hbond.Weighted>
-9.5833

> <Gold.Chemscore.Metal.Weighted>
-0.0000

> <Gold.Chemscore.Lipo.Weighted>
-8.7591

> <Gold.Chemscore.Internal_Hbond.Weighted>
0.0000

> <Gold.Chemscore.DEClash.Weighted>
1.1356

> <Gold.Chemscore.DEInternal.Weighted>
2.9045

> <Gold.Chemscore.Rot.Weighted>
10.7617

> <Gold.Chemscore.Internal.Correction.Weighted>
   9.000000E+99

> <Gold.Protein.RotatedTorsions>
[ 6907 6896 6895 6894 ] final  147.55 input  -60.11 | X-H torsion
[ 7974 7965 7964 7962 ] final -114.66 input  175.53 | X-H torsion
[ 8008 7997 7996 7995 ] final   85.38 input   59.86 | X-H torsion
[ 10167 10162 10161 10158 ] final   85.30 input  -65.29 | X-H torsion
[ 10718 10713 10712 10709 ] final   45.86 input   66.30 | X-H torsion
[ 10763 10752 10751 10750 ] final  173.33 input  -60.55 | X-H torsion
[ 11005 11000 10999 10996 ] final   62.28 input  -57.11 | X-H torsion

> <Gold.Protein.ActiveResidues>
 VAL166  LYS551  ARG553  GLY616  TRP617  ASP618  TYR619  PRO620  LYS621  CYS622 
 ASP623  PHE694  ASN695  SER759  ASP760  ASP761  ALA762  ILE779  LEU786  VAL792 
 PHE793  MET794  SER795  GLU796  ALA797  LYS798  CYS799  TRP800  GLU811  SER814 

> <Gold.Protein.RotatedAtoms>
  152.1533  133.4535  159.4824 H   0  0  0  0  0  0  0  0  0  0  0  0  # atno 6907 bound_to 6896
  150.6898  134.2162  159.4388 H   0  0  0  0  0  0  0  0  0  0  0  0  # atno 6908 bound_to 6896
  152.0060  134.9902  160.0617 H   0  0  0  0  0  0  0  0  0  0  0  0  # atno 6909 bound_to 6896
  145.1175  140.8649  143.3833 H   0  0  0  0  0  0  0  0  0  0  0  0  # atno 7974 bound_to 7965
  155.9493  140.3402  155.6394 H   0  0  0  0  0  0  0  0  0  0  0  0  # atno 8008 bound_to 7997
  155.6941  140.0752  157.2455 H   0  0  0  0  0  0  0  0  0  0  0  0  # atno 8009 bound_to 7997
  154.4118  140.1652  156.2106 H   0  0  0  0  0  0  0  0  0  0  0  0  # atno 8010 bound_to 7997
  139.8991  144.6340  150.8656 H   0  0  0  0  0  0  0  0  0  0  0  0  # atno 10167 bound_to 10162
  157.4420  130.8087  149.7703 H   0  0  0  0  0  0  0  0  0  0  0  0  # atno 10718 bound_to 10713
  154.4385  135.2761  155.1864 H   0  0  0  0  0  0  0  0  0  0  0  0  # atno 10763 bound_to 10752
  154.3740  135.6102  153.5758 H   0  0  0  0  0  0  0  0  0  0  0  0  # atno 10764 bound_to 10752
  152.9839  135.5864  154.4709 H   0  0  0  0  0  0  0  0  0  0  0  0  # atno 10765 bound_to 10752
  140.0103  134.6307  155.9791 H   0  0  0  0  0  0  0  0  0  0  0  0  # atno 11005 bound_to 11000
  145.0777  139.2983  143.5799 LP  0  0  0  0  0  0  0  0  0  0  0  0  # atno 17320 bound_to 7965
  146.3523  140.0273  142.8653 LP  0  0  0  0  0  0  0  0  0  0  0  0  # atno 17321 bound_to 7965
  140.7710  143.3450  151.2129 LP  0  0  0  0  0  0  0  0  0  0  0  0  # atno 17342 bound_to 10162
  139.7041  143.9484  152.2919 LP  0  0  0  0  0  0  0  0  0  0  0  0  # atno 17343 bound_to 10162
  155.9952  130.3913  150.2827 LP  0  0  0  0  0  0  0  0  0  0  0  0  # atno 17370 bound_to 10713
  157.0992  131.0191  151.3092 LP  0  0  0  0  0  0  0  0  0  0  0  0  # atno 17371 bound_to 10713
  141.1706  133.6537  156.4637 LP  0  0  0  0  0  0  0  0  0  0  0  0  # atno 17394 bound_to 11000
  140.4567  134.6879  157.5066 LP  0  0  0  0  0  0  0  0  0  0  0  0  # atno 17395 bound_to 11000

$$$$
