AV-unprocessed.smi:1328|AV-procd|sdf|5481|dock8
  -GOLD-   22720 5 53D 1   1.00000     0.00000
 Structure written by MMmdl.
 38 39  0  0  0  0  0  0  0  0  1 V2000
  150.1268  140.9925  155.9821 C   0  0  0  0  0  0  0  0  0  0  0  0
  151.3392  140.1695  156.3114 C   0  0  0  0  0  0  0  0  0  0  0  0
  152.3235  140.0717  155.4334 N   0  0  0  0  0  0  0  0  0  0  0  0
  153.2855  139.2487  156.0272 O   0  0  0  0  0  0  0  0  0  0  0  0
  152.8364  138.8787  157.2534 C   0  0  0  0  0  0  0  0  0  0  0  0
  153.7251  137.9845  158.0499 C   0  0  0  0  0  0  0  0  0  0  0  0
  151.6096  139.4318  157.4990 C   0  0  0  0  0  0  0  0  0  0  0  0
  150.7421  139.2962  158.7257 C   0  0  0  0  0  0  0  0  0  0  0  0
  150.4673  137.8242  159.0543 C   0  0  0  0  0  0  0  0  0  0  0  0
  151.3946  137.0317  159.2270 O   0  0  0  0  0  0  0  0  0  0  0  0
  149.1743  137.4773  159.1520 N   0  0  0  0  0  0  0  0  0  0  0  0
  148.6711  136.1447  159.4782 C   0  0  2  0  0  0  0  0  0  0  0  0
  147.9799  135.5683  158.2330 C   0  0  0  0  0  0  0  0  0  0  0  0
  147.7205  136.2218  160.6922 C   0  0  1  0  0  0  0  0  0  0  0  0
  147.2878  134.8687  161.2538 C   0  0  0  0  0  0  0  0  0  0  0  0
  146.8399  135.2204  162.6595 C   0  0  0  0  0  0  0  0  0  0  0  0
  147.6446  136.4799  162.9919 C   0  0  0  0  0  0  0  0  0  0  0  0
  148.3727  136.8028  161.8126 O   0  0  0  0  0  0  0  0  0  0  0  0
  150.0570  141.8608  156.6372 H   0  0  0  0  0  0  0  0  0  0  0  0
  149.2147  140.4087  156.1061 H   0  0  0  0  0  0  0  0  0  0  0  0
  150.1496  141.3548  154.9535 H   0  0  0  0  0  0  0  0  0  0  0  0
  153.1447  137.3816  158.7485 H   0  0  0  0  0  0  0  0  0  0  0  0
  154.4452  138.5685  158.6229 H   0  0  0  0  0  0  0  0  0  0  0  0
  154.2779  137.3054  157.4006 H   0  0  0  0  0  0  0  0  0  0  0  0
  151.2148  139.7546  159.5950 H   0  0  0  0  0  0  0  0  0  0  0  0
  149.7936  139.8171  158.5876 H   0  0  0  0  0  0  0  0  0  0  0  0
  148.4822  138.1964  158.9997 H   0  0  0  0  0  0  0  0  0  0  0  0
  149.5080  135.4885  159.7246 H   0  0  0  0  0  0  0  0  0  0  0  0
  147.6481  134.5436  158.4006 H   0  0  0  0  0  0  0  0  0  0  0  0
  148.6588  135.5523  157.3796 H   0  0  0  0  0  0  0  0  0  0  0  0
  147.1073  136.1594  157.9533 H   0  0  0  0  0  0  0  0  0  0  0  0
  146.8394  136.8197  160.4506 H   0  0  0  0  0  0  0  0  0  0  0  0
  146.5005  134.3940  160.6677 H   0  0  0  0  0  0  0  0  0  0  0  0
  148.1388  134.1876  161.2966 H   0  0  0  0  0  0  0  0  0  0  0  0
  145.7728  135.4454  162.6722 H   0  0  0  0  0  0  0  0  0  0  0  0
  147.0217  134.4082  163.3640 H   0  0  0  0  0  0  0  0  0  0  0  0
  146.9826  137.3054  163.2559 H   0  0  0  0  0  0  0  0  0  0  0  0
  148.3347  136.3193  163.8206 H   0  0  0  0  0  0  0  0  0  0  0  0
  1  2  1  0  0  0  0
  1 19  1  0  0  0  0
  1 20  1  0  0  0  0
  1 21  1  0  0  0  0
  2  7  1  0  0  0  0
  2  3  2  0  0  0  0
  3  4  1  0  0  0  0
  4  5  1  0  0  0  0
  5  6  1  0  0  0  0
  5  7  2  0  0  0  0
  6 22  1  0  0  0  0
  6 23  1  0  0  0  0
  6 24  1  0  0  0  0
  7  8  1  0  0  0  0
  8  9  1  0  0  0  0
  8 25  1  0  0  0  0
  8 26  1  0  0  0  0
  9 10  2  0  0  0  0
  9 11  1  0  0  0  0
 11 12  1  0  0  0  0
 11 27  1  0  0  0  0
 12 13  1  0  0  0  0
 12 14  1  0  0  0  0
 12 28  1  0  0  0  0
 13 29  1  0  0  0  0
 13 30  1  0  0  0  0
 13 31  1  0  0  0  0
 14 18  1  0  0  0  0
 14 15  1  0  0  0  0
 14 32  1  0  0  0  0
 15 16  1  0  0  0  0
 15 33  1  0  0  0  0
 15 34  1  0  0  0  0
 16 17  1  0  0  0  0
 16 35  1  0  0  0  0
 16 36  1  0  0  0  0
 17 18  1  0  0  0  0
 17 37  1  0  0  0  0
 17 38  1  0  0  0  0
M  END
> <s_m_source_file>
AV-unprocessed.smi

> <i_m_source_file_index>
1328

> <i_lp_mmshare_version>
43012

> <i_f3d_flags>
0

> <s_epik_input>
W0NIM11jMW5vYyhbQ0gzXSljMVtDSDJdQyg9TylbTkhdW0NASF0oW0NIM10pW0NAQEhdMltDSDJdW0NIMl1bQ0gyXU8y

> <s_epik_cmdline>
J2VwaWtfcHl0aG9uJywgJy1waCcsICc3LjAnLCAnLXRuJywgJzgnLCAnLW1hJywgJzIwMCcsICctbWV0YWxfYmluZGluZycsICctaW1hZScsICc8aW5maWxlLm1hZT4nLCAnLW9tYWUnLCAnPG91dGZpbGUubWFlPic=

> <r_lp_tautomer_probability>
1

> <r_epik_Ionization_Penalty>
2.66156e-08

> <r_epik_Ionization_Penalty_Charging>
0

> <r_epik_Ionization_Penalty_Neutral>
2.66156e-08

> <r_epik_State_Penalty>
-0

> <r_epik_Charging_Adjusted_Penalty>
0

> <i_epik_Tot_Q>
0

> <i_epik_Tot_abs_Q>
0

> <r_epik_Metal_State_Penalty>
-0

> <b_epik_Metal_Only>
0

> <s_lp_Force_Field>
OPLS_2005

> <r_lp_Energy>
12.7116

> <b_lp_Chiralities_Consistent>
1

> <s_lp_Variant>
AV-unprocessed.smi:1328-3

> <Gold.Version>
5.8.1

> <Gold.Id.Protein>
6NUR|6NUR_protein|mol2

> <Gold.PLP.Fitness>
42.8965

> <Gold.PLP.PLP>
-31.2200

> <Gold.PLP.part.hbond>
-4.0638

> <Gold.PLP.part.metal>
0.0000

> <Gold.PLP.part.buried>
-6.3780

> <Gold.PLP.part.nonpolar>
-22.0777

> <Gold.PLP.part.repulsive>
0.2344

> <Gold.PLP.ligand.clash>
0.0000

> <Gold.PLP.ligand.torsion>
0.1216

> <Gold.PLP.Chemscore.Hbond>
3.9600

> <Gold.PLP.Chemscore.CHOScore>
0.0000

> <Gold.PLP.Chemscore.Metal>
0.0000

> <Gold.Chemscore.Hbonds>
donor molecule, donor type, donor heavy atom, donor atom, acceptor molecule, acceptor atom, score
      P1  H  6896  6907       L1    10  1.00
      P1  H  6931  6943       L1    18  1.00
      P1  H  7989  7998       L1     3  0.41
      P1  H  7997  8008       L1     4  0.69

> <Gold.PLP.Chemscore.Internal.Correction>
0.0397

> <Gold.Rescore>
     Score         DG    S(hbond)    S(metal)    S(lipo)     H(rot)  DE(clash)    DE(int)     intcor
     19.89     -21.22       3.49        0.00      68.11       1.52       0.00       1.32       ----

> <Gold.Chemscore.Fitness>
19.8924

> <Gold.Chemscore.DG>
-21.2197

> <Gold.Chemscore.ZeroCoef>
-5.4800

> <Gold.Chemscore.Hbond>
3.4883

> <Gold.Chemscore.Metal>
0.0000

> <Gold.Chemscore.Lipo>
68.1145

> <Gold.Chemscore.Internal_Hbond>
0.0000

> <Gold.Chemscore.DEClash>
0.0029

> <Gold.Chemscore.DEInternal>
1.3244

> <Gold.Chemscore.Rot>
1.5159

> <Gold.Chemscore.Internal.Correction>
   9.000000E+99

> <Gold.Chemscore.Hbonds>
donor molecule, donor type, donor heavy atom, donor atom, acceptor molecule, acceptor atom, score
      P1  H  6896  6907       L1    10  0.92
      P1  H  6931  6943       L1    18  0.77
      P1  H  7989  7998       L1     3  0.31
      P1  H  7997  8008       L1     4  0.13

> <Gold.Chemscore.Hbond.Weighted>
-11.6511

> <Gold.Chemscore.Metal.Weighted>
-0.0000

> <Gold.Chemscore.Lipo.Weighted>
-7.9694

> <Gold.Chemscore.Internal_Hbond.Weighted>
0.0000

> <Gold.Chemscore.DEClash.Weighted>
0.0029

> <Gold.Chemscore.DEInternal.Weighted>
1.3244

> <Gold.Chemscore.Rot.Weighted>
3.8807

> <Gold.Chemscore.Internal.Correction.Weighted>
   9.000000E+99

> <Gold.Protein.RotatedTorsions>
[ 6907 6896 6895 6894 ] final  -20.70 input  -60.11 | X-H torsion
[ 7974 7965 7964 7962 ] final  175.19 input  175.53 | X-H torsion
[ 8008 7997 7996 7995 ] final  -16.65 input   59.86 | X-H torsion
[ 10167 10162 10161 10158 ] final   69.40 input  -65.29 | X-H torsion
[ 10718 10713 10712 10709 ] final   93.13 input   66.30 | X-H torsion
[ 10763 10752 10751 10750 ] final  162.36 input  -60.55 | X-H torsion
[ 11005 11000 10999 10996 ] final  -70.64 input  -57.11 | X-H torsion

> <Gold.Protein.ActiveResidues>
 VAL166  LYS551  ARG553  GLY616  TRP617  ASP618  TYR619  PRO620  LYS621  CYS622 
 ASP623  PHE694  ASN695  SER759  ASP760  ASP761  ALA762  ILE779  LEU786  VAL792 
 PHE793  MET794  SER795  GLU796  ALA797  LYS798  CYS799  TRP800  GLU811  SER814 

> <Gold.Protein.RotatedAtoms>
  151.2443  135.0600  159.9036 H   0  0  0  0  0  0  0  0  0  0  0  0  # atno 6907 bound_to 6896
  152.5389  134.0401  159.8074 H   0  0  0  0  0  0  0  0  0  0  0  0  # atno 6908 bound_to 6896
  151.0599  133.5504  159.2666 H   0  0  0  0  0  0  0  0  0  0  0  0  # atno 6909 bound_to 6896
  144.7206  139.9910  143.6440 H   0  0  0  0  0  0  0  0  0  0  0  0  # atno 7974 bound_to 7965
  154.5037  140.2164  155.9295 H   0  0  0  0  0  0  0  0  0  0  0  0  # atno 8008 bound_to 7997
  156.1466  140.3169  155.8547 H   0  0  0  0  0  0  0  0  0  0  0  0  # atno 8009 bound_to 7997
  155.4019  140.0485  157.3027 H   0  0  0  0  0  0  0  0  0  0  0  0  # atno 8010 bound_to 7997
  140.0683  144.5175  150.7245 H   0  0  0  0  0  0  0  0  0  0  0  0  # atno 10167 bound_to 10162
  157.6956  131.0467  150.3987 H   0  0  0  0  0  0  0  0  0  0  0  0  # atno 10718 bound_to 10713
  154.2772  135.2764  155.2712 H   0  0  0  0  0  0  0  0  0  0  0  0  # atno 10763 bound_to 10752
  154.5249  135.5746  153.6715 H   0  0  0  0  0  0  0  0  0  0  0  0  # atno 10764 bound_to 10752
  152.9935  135.6213  154.2930 H   0  0  0  0  0  0  0  0  0  0  0  0  # atno 10765 bound_to 10752
  141.1578  133.6795  156.6784 H   0  0  0  0  0  0  0  0  0  0  0  0  # atno 11005 bound_to 11000
  146.0412  139.3423  143.0696 LP  0  0  0  0  0  0  0  0  0  0  0  0  # atno 17320 bound_to 7965
  145.8332  140.9619  143.0838 LP  0  0  0  0  0  0  0  0  0  0  0  0  # atno 17321 bound_to 7965
  140.7138  143.2527  151.4498 LP  0  0  0  0  0  0  0  0  0  0  0  0  # atno 17342 bound_to 10162
  139.5852  144.1621  152.2019 LP  0  0  0  0  0  0  0  0  0  0  0  0  # atno 17343 bound_to 10162
  156.4382  130.3986  149.6714 LP  0  0  0  0  0  0  0  0  0  0  0  0  # atno 17370 bound_to 10713
  156.3907  130.7626  151.2626 LP  0  0  0  0  0  0  0  0  0  0  0  0  # atno 17371 bound_to 10713
  140.3122  134.8077  157.4185 LP  0  0  0  0  0  0  0  0  0  0  0  0  # atno 17394 bound_to 11000
  140.1169  134.5271  155.8217 LP  0  0  0  0  0  0  0  0  0  0  0  0  # atno 17395 bound_to 11000

$$$$
