AV-unprocessed.smi:1466|AV-procd|sdf|5953|dock9
  -GOLD-   22720 6 43D 1   1.00000     0.00000
 Structure written by MMmdl.
 49 50  0  0  0  0  0  0  0  0  2 V2000
  149.4575  127.8382  154.6373 C   0  0  0  0  0  0  0  0  0  0  0  0
  148.8371  128.7911  153.7266 N   0  0  0  0  0  0  0  0  0  0  0  0
  147.9179  128.3299  152.6920 C   0  0  0  0  0  0  0  0  0  0  0  0
  149.1207  130.1684  153.8506 C   0  0  0  0  0  0  0  0  0  0  0  0
  150.0596  130.6862  154.7764 C   0  0  0  0  0  0  0  0  0  0  0  0
  150.2892  132.0759  154.8448 C   0  0  0  0  0  0  0  0  0  0  0  0
  149.5693  132.9464  153.9906 C   0  0  0  0  0  0  0  0  0  0  0  0
  149.7347  134.3577  153.9699 N   0  0  0  0  0  0  0  0  0  0  0  0
  150.4845  135.1218  154.7830 C   0  0  0  0  0  0  0  0  0  0  0  0
  151.1668  134.7056  155.7190 O   0  0  0  0  0  0  0  0  0  0  0  0
  150.3832  136.4193  154.4621 N   0  0  0  0  0  0  0  0  0  0  0  0
  151.0546  137.5063  155.1650 C   0  0  0  0  0  0  0  0  0  0  0  0
  151.0755  138.7947  154.3216 C   0  0  0  0  0  0  0  0  0  0  0  0
  150.7309  139.9703  155.1292 N   0  0  0  0  0  0  0  0  0  0  0  0
  149.4853  140.6626  154.7636 C   0  0  0  0  0  0  0  0  0  0  0  0
  148.3486  140.4863  155.7966 C   0  0  0  0  0  0  0  0  0  0  0  0
  148.7845  140.3111  157.2649 C   0  0  0  0  0  0  0  0  0  0  0  0
  149.7607  141.3849  157.7903 C   0  0  0  0  0  0  0  0  0  0  0  0
  151.0567  141.6032  156.9728 C   0  0  0  0  0  0  0  0  0  0  0  0
  151.5114  140.3806  156.1589 C   0  0  0  0  0  0  0  0  0  0  0  0
  152.5628  139.8194  156.4686 O   0  0  0  0  0  0  0  0  0  0  0  0
  148.6590  132.3794  153.0765 C   0  0  0  0  0  0  0  0  0  0  0  0
  148.4698  131.0428  153.0448 N   0  3  0  0  0  0  0  0  0  0  0  0
  149.2143  128.0811  155.6721 H   0  0  0  0  0  0  0  0  0  0  0  0
  150.5416  127.8487  154.5212 H   0  0  0  0  0  0  0  0  0  0  0  0
  149.1114  126.8227  154.4445 H   0  0  0  0  0  0  0  0  0  0  0  0
  146.9230  128.7466  152.8512 H   0  0  0  0  0  0  0  0  0  0  0  0
  147.8298  127.2433  152.6953 H   0  0  0  0  0  0  0  0  0  0  0  0
  148.2680  128.6321  151.7044 H   0  0  0  0  0  0  0  0  0  0  0  0
  150.6160  130.0385  155.4368 H   0  0  0  0  0  0  0  0  0  0  0  0
  151.0246  132.4428  155.5440 H   0  0  0  0  0  0  0  0  0  0  0  0
  149.1660  134.8519  153.2980 H   0  0  0  0  0  0  0  0  0  0  0  0
  149.7977  136.6760  153.6805 H   0  0  0  0  0  0  0  0  0  0  0  0
  150.5732  137.6783  156.1293 H   0  0  0  0  0  0  0  0  0  0  0  0
  152.0749  137.1888  155.3816 H   0  0  0  0  0  0  0  0  0  0  0  0
  152.0579  138.9245  153.8653 H   0  0  0  0  0  0  0  0  0  0  0  0
  150.3826  138.7088  153.4825 H   0  0  0  0  0  0  0  0  0  0  0  0
  149.6941  141.7235  154.6246 H   0  0  0  0  0  0  0  0  0  0  0  0
  149.1325  140.3360  153.7845 H   0  0  0  0  0  0  0  0  0  0  0  0
  147.6666  141.3336  155.7165 H   0  0  0  0  0  0  0  0  0  0  0  0
  147.7616  139.6101  155.5191 H   0  0  0  0  0  0  0  0  0  0  0  0
  147.8954  140.3054  157.8960 H   0  0  0  0  0  0  0  0  0  0  0  0
  149.2275  139.3227  157.3946 H   0  0  0  0  0  0  0  0  0  0  0  0
  149.2327  142.3361  157.8634 H   0  0  0  0  0  0  0  0  0  0  0  0
  150.0332  141.1246  158.8137 H   0  0  0  0  0  0  0  0  0  0  0  0
  150.9355  142.4499  156.2980 H   0  0  0  0  0  0  0  0  0  0  0  0
  151.8595  141.9002  157.6489 H   0  0  0  0  0  0  0  0  0  0  0  0
  148.0707  132.9524  152.3741 H   0  0  0  0  0  0  0  0  0  0  0  0
  147.7967  130.6700  152.3750 H   0  0  0  0  0  0  0  0  0  0  0  0
  1  2  1  0  0  0  0
  1 24  1  0  0  0  0
  1 25  1  0  0  0  0
  1 26  1  0  0  0  0
  2  3  1  0  0  0  0
  2  4  1  0  0  0  0
  3 27  1  0  0  0  0
  3 28  1  0  0  0  0
  3 29  1  0  0  0  0
  4 23  1  0  0  0  0
  4  5  2  0  0  0  0
  5  6  1  0  0  0  0
  5 30  1  0  0  0  0
  6  7  2  0  0  0  0
  6 31  1  0  0  0  0
  7  8  1  0  0  0  0
  7 22  1  0  0  0  0
  8  9  1  0  0  0  0
  8 32  1  0  0  0  0
  9 10  2  0  0  0  0
  9 11  1  0  0  0  0
 11 12  1  0  0  0  0
 11 33  1  0  0  0  0
 12 13  1  0  0  0  0
 12 34  1  0  0  0  0
 12 35  1  0  0  0  0
 13 14  1  0  0  0  0
 13 36  1  0  0  0  0
 13 37  1  0  0  0  0
 14 20  1  0  0  0  0
 14 15  1  0  0  0  0
 15 16  1  0  0  0  0
 15 38  1  0  0  0  0
 15 39  1  0  0  0  0
 16 17  1  0  0  0  0
 16 40  1  0  0  0  0
 16 41  1  0  0  0  0
 17 18  1  0  0  0  0
 17 42  1  0  0  0  0
 17 43  1  0  0  0  0
 18 19  1  0  0  0  0
 18 44  1  0  0  0  0
 18 45  1  0  0  0  0
 19 20  1  0  0  0  0
 19 46  1  0  0  0  0
 19 47  1  0  0  0  0
 20 21  2  0  0  0  0
 22 23  2  0  0  0  0
 22 48  1  0  0  0  0
 23 49  1  0  0  0  0
M  CHG  1  23   1
M  END
> <s_m_source_file>
AV-unprocessed.smi

> <i_m_source_file_index>
1466

> <i_lp_mmshare_version>
43012

> <i_f3d_flags>
0

> <s_epik_input>
W0NIM11OKFtDSDNdKWMxW2NIXVtjSF1jKFtjSF1uMSlbTkhdQyg9TylbTkhdW0NIMl1bQ0gyXU4yW0NIMl1bQ0gyXVtDSDJdW0NIMl1bQ0gyXUMyPU8=

> <s_epik_cmdline>
J2VwaWtfcHl0aG9uJywgJy1waCcsICc3LjAnLCAnLXRuJywgJzgnLCAnLW1hJywgJzIwMCcsICctbWV0YWxfYmluZGluZycsICctaW1hZScsICc8aW5maWxlLm1hZT4nLCAnLW9tYWUnLCAnPG91dGZpbGUubWFlPic=

> <r_lp_tautomer_probability>
0.999994

> <r_epik_Ionization_Penalty>
0.269687

> <r_epik_Ionization_Penalty_Charging>
0.269668

> <r_epik_Ionization_Penalty_Neutral>
1.89217e-05

> <r_epik_State_Penalty>
0.261755

> <r_epik_Charging_Adjusted_Penalty>
0.531423

> <i_epik_Tot_Q>
1

> <i_epik_Tot_abs_Q>
1

> <r_epik_Metal_State_Penalty>
0.546954

> <b_epik_Metal_Only>
0

> <s_lp_Force_Field>
OPLS_2005

> <r_lp_Energy>
31.5815

> <b_lp_Chiralities_Consistent>
1

> <s_lp_Variant>
AV-unprocessed.smi:1466-1

> <Gold.Version>
5.8.1

> <Gold.Id.Protein>
6NUR|6NUR_protein|mol2

> <Gold.PLP.Fitness>
47.5515

> <Gold.PLP.PLP>
-39.9938

> <Gold.PLP.part.hbond>
-5.1156

> <Gold.PLP.part.metal>
0.0000

> <Gold.PLP.part.buried>
-3.1470

> <Gold.PLP.part.nonpolar>
-32.8218

> <Gold.PLP.part.repulsive>
0.1438

> <Gold.PLP.ligand.clash>
0.0000

> <Gold.PLP.ligand.torsion>
0.4592

> <Gold.PLP.Chemscore.Hbond>
2.8216

> <Gold.PLP.Chemscore.CHOScore>
0.0000

> <Gold.PLP.Chemscore.Metal>
0.0000

> <Gold.Chemscore.Hbonds>
donor molecule, donor type, donor heavy atom, donor atom, acceptor molecule, acceptor atom, score
      L1  H     8    32       P1  7948  0.69
      L1  H    11    33       P1  7948  0.99
      P1  H  7997  8009       L1    21  1.00
      P1  H 10752 10763       L1    10  0.10

> <Gold.PLP.Chemscore.Internal.Correction>
0.0112

> <Gold.Rescore>
     Score         DG    S(hbond)    S(metal)    S(lipo)     H(rot)  DE(clash)    DE(int)     intcor
     14.12     -16.12       1.91        0.00      69.38       1.50       0.13       1.87       ----

> <Gold.Chemscore.Fitness>
14.1224

> <Gold.Chemscore.DG>
-16.1169

> <Gold.Chemscore.ZeroCoef>
-5.4800

> <Gold.Chemscore.Hbond>
1.9076

> <Gold.Chemscore.Metal>
0.0000

> <Gold.Chemscore.Lipo>
69.3822

> <Gold.Chemscore.Internal_Hbond>
0.0000

> <Gold.Chemscore.DEClash>
0.1253

> <Gold.Chemscore.DEInternal>
1.8692

> <Gold.Chemscore.Rot>
1.5047

> <Gold.Chemscore.Internal.Correction>
   9.000000E+99

> <Gold.Chemscore.Hbonds>
donor molecule, donor type, donor heavy atom, donor atom, acceptor molecule, acceptor atom, score
      L1  H     8    32       P1  7948  0.07
      L1  H    11    33       P1  7948  0.39
      L1  H    23    49       P1 10747  0.01
      P1  H  7997  8009       L1    21  1.00
      P1  H 10752 10763       L1    10  0.05

> <Gold.Chemscore.Hbond.Weighted>
-6.3713

> <Gold.Chemscore.Metal.Weighted>
-0.0000

> <Gold.Chemscore.Lipo.Weighted>
-8.1177

> <Gold.Chemscore.Internal_Hbond.Weighted>
0.0000

> <Gold.Chemscore.DEClash.Weighted>
0.1253

> <Gold.Chemscore.DEInternal.Weighted>
1.8692

> <Gold.Chemscore.Rot.Weighted>
3.8522

> <Gold.Chemscore.Internal.Correction.Weighted>
   9.000000E+99

> <Gold.Protein.RotatedTorsions>
[ 6907 6896 6895 6894 ] final  -35.21 input  -60.11 | X-H torsion
[ 7974 7965 7964 7962 ] final  118.94 input  175.53 | X-H torsion
[ 8008 7997 7996 7995 ] final -176.52 input   59.86 | X-H torsion
[ 10167 10162 10161 10158 ] final  106.75 input  -65.29 | X-H torsion
[ 10718 10713 10712 10709 ] final -170.90 input   66.30 | X-H torsion
[ 10763 10752 10751 10750 ] final  109.33 input  -60.55 | X-H torsion
[ 11005 11000 10999 10996 ] final   35.21 input  -57.11 | X-H torsion

> <Gold.Protein.ActiveResidues>
 VAL166  LYS551  ARG553  GLY616  TRP617  ASP618  TYR619  PRO620  LYS621  CYS622 
 ASP623  PHE694  ASN695  SER759  ASP760  ASP761  ALA762  ILE779  LEU786  VAL792 
 PHE793  MET794  SER795  GLU796  ALA797  LYS798  CYS799  TRP800  GLU811  SER814 

> <Gold.Protein.RotatedAtoms>
  151.0427  134.9618  159.8169 H   0  0  0  0  0  0  0  0  0  0  0  0  # atno 6907 bound_to 6896
  152.5367  134.2638  159.8955 H   0  0  0  0  0  0  0  0  0  0  0  0  # atno 6908 bound_to 6896
  151.2650  133.4240  159.2652 H   0  0  0  0  0  0  0  0  0  0  0  0  # atno 6909 bound_to 6896
  145.1491  139.3221  143.4576 H   0  0  0  0  0  0  0  0  0  0  0  0  # atno 7974 bound_to 7965
  155.9958  140.1210  157.0595 H   0  0  0  0  0  0  0  0  0  0  0  0  # atno 8008 bound_to 7997
  154.4226  140.1116  156.5697 H   0  0  0  0  0  0  0  0  0  0  0  0  # atno 8009 bound_to 7997
  155.6280  140.3472  155.4676 H   0  0  0  0  0  0  0  0  0  0  0  0  # atno 8010 bound_to 7997
  139.6983  144.7098  151.1229 H   0  0  0  0  0  0  0  0  0  0  0  0  # atno 10167 bound_to 10162
  156.7330  130.9313  151.3105 H   0  0  0  0  0  0  0  0  0  0  0  0  # atno 10718 bound_to 10713
  153.4332  135.3783  155.2183 H   0  0  0  0  0  0  0  0  0  0  0  0  # atno 10763 bound_to 10752
  154.8751  135.3845  154.4242 H   0  0  0  0  0  0  0  0  0  0  0  0  # atno 10764 bound_to 10752
  153.4778  135.7088  153.6019 H   0  0  0  0  0  0  0  0  0  0  0  0  # atno 10765 bound_to 10752
  140.2450  134.3370  155.7911 H   0  0  0  0  0  0  0  0  0  0  0  0  # atno 11005 bound_to 11000
  146.3496  140.1558  142.8591 LP  0  0  0  0  0  0  0  0  0  0  0  0  # atno 17320 bound_to 7965
  145.0450  140.8974  143.5029 LP  0  0  0  0  0  0  0  0  0  0  0  0  # atno 17321 bound_to 7965
  140.7702  143.5460  150.9258 LP  0  0  0  0  0  0  0  0  0  0  0  0  # atno 17342 bound_to 10162
  139.9141  143.6685  152.3109 LP  0  0  0  0  0  0  0  0  0  0  0  0  # atno 17343 bound_to 10162
  157.6851  130.9177  150.0365 LP  0  0  0  0  0  0  0  0  0  0  0  0  # atno 17370 bound_to 10713
  156.1516  130.3642  149.9430 LP  0  0  0  0  0  0  0  0  0  0  0  0  # atno 17371 bound_to 10713
  141.2207  133.7320  156.8946 LP  0  0  0  0  0  0  0  0  0  0  0  0  # atno 17394 bound_to 11000
  140.1615  134.9162  157.2721 LP  0  0  0  0  0  0  0  0  0  0  0  0  # atno 17395 bound_to 11000

$$$$
