AV-unprocessed.smi:332|AV-procd|sdf|2355|dock7
  -GOLD-   2262022263D 1   1.00000     0.00000
 Structure written by MMmdl.
 42 44  0  0  0  0  0  0  0  0  1 V2000
  152.9189  139.9328  158.8526 C   0  0  0  0  0  0  0  0  0  0  0  0
  152.0366  140.9802  158.1521 C   0  0  1  0  0  0  0  0  0  0  0  0
  150.8663  140.3313  157.5708 N   0  0  0  0  0  0  0  0  0  0  0  0
  150.6291  140.1508  156.2606 C   0  0  0  0  0  0  0  0  0  0  0  0
  151.4265  140.4864  155.3858 O   0  0  0  0  0  0  0  0  0  0  0  0
  149.2909  139.5126  155.8489 C   0  0  0  0  0  0  0  0  0  0  0  0
  148.2633  140.4709  155.4030 N   0  0  0  0  0  0  0  0  0  0  0  0
  147.9364  140.4596  154.0323 C   0  0  0  0  0  0  0  0  0  0  0  0
  147.0288  141.3001  153.5114 C   0  0  0  0  0  0  0  0  0  0  0  0
  146.3766  142.2343  154.3977 C   0  0  0  0  0  0  0  0  0  0  0  0
  146.6851  142.2568  155.7098 C   0  0  0  0  0  0  0  0  0  0  0  0
  147.6826  141.3452  156.2820 C   0  0  0  0  0  0  0  0  0  0  0  0
  147.9839  141.3726  157.4753 O   0  0  0  0  0  0  0  0  0  0  0  0
  151.5749  142.0918  159.1237 C   0  0  1  0  0  0  0  0  0  0  0  0
  152.7177  142.8237  159.8624 C   0  0  0  0  0  0  0  0  0  0  0  0
  152.3829  144.3095  159.6321 C   0  0  1  0  0  0  0  0  0  0  0  0
  152.7037  144.6769  158.1716 C   0  0  0  0  0  0  0  0  0  0  0  0
  151.5764  143.9763  157.3915 C   0  0  0  0  0  0  0  0  0  0  0  0
  150.7780  143.2696  158.5060 C   0  0  2  0  0  0  0  0  0  0  0  0
  150.8585  144.3006  159.6270 C   0  0  0  0  0  0  0  0  0  0  0  0
  153.8093  140.3899  159.2845 H   0  0  0  0  0  0  0  0  0  0  0  0
  153.2547  139.1676  158.1523 H   0  0  0  0  0  0  0  0  0  0  0  0
  152.3788  139.4324  159.6569 H   0  0  0  0  0  0  0  0  0  0  0  0
  152.6236  141.4344  157.3524 H   0  0  0  0  0  0  0  0  0  0  0  0
  150.1577  140.0218  158.2199 H   0  0  0  0  0  0  0  0  0  0  0  0
  149.4912  138.7933  155.0534 H   0  0  0  0  0  0  0  0  0  0  0  0
  148.9241  138.9114  156.6826 H   0  0  0  0  0  0  0  0  0  0  0  0
  148.4751  139.7359  153.4375 H   0  0  0  0  0  0  0  0  0  0  0  0
  146.7955  141.2805  152.4569 H   0  0  0  0  0  0  0  0  0  0  0  0
  145.6380  142.9185  154.0071 H   0  0  0  0  0  0  0  0  0  0  0  0
  146.1870  142.9634  156.3574 H   0  0  0  0  0  0  0  0  0  0  0  0
  150.9297  141.6289  159.8730 H   0  0  0  0  0  0  0  0  0  0  0  0
  152.7032  142.5787  160.9249 H   0  0  0  0  0  0  0  0  0  0  0  0
  153.7067  142.5704  159.4791 H   0  0  0  0  0  0  0  0  0  0  0  0
  152.8394  144.9792  160.3614 H   0  0  0  0  0  0  0  0  0  0  0  0
  152.6595  145.7564  158.0217 H   0  0  0  0  0  0  0  0  0  0  0  0
  153.6943  144.3366  157.8670 H   0  0  0  0  0  0  0  0  0  0  0  0
  150.9512  144.7143  156.8876 H   0  0  0  0  0  0  0  0  0  0  0  0
  151.9498  143.2952  156.6276 H   0  0  0  0  0  0  0  0  0  0  0  0
  149.7619  143.0042  158.2114 H   0  0  0  0  0  0  0  0  0  0  0  0
  150.4238  143.9569  160.5674 H   0  0  0  0  0  0  0  0  0  0  0  0
  150.4206  145.2647  159.3625 H   0  0  0  0  0  0  0  0  0  0  0  0
  1  2  1  0  0  0  0
  1 21  1  0  0  0  0
  1 22  1  0  0  0  0
  1 23  1  0  0  0  0
  2  3  1  0  0  0  0
  2 14  1  0  0  0  0
  2 24  1  0  0  0  0
  3  4  1  0  0  0  0
  3 25  1  0  0  0  0
  4  5  2  0  0  0  0
  4  6  1  0  0  0  0
  6  7  1  0  0  0  0
  6 26  1  0  0  0  0
  6 27  1  0  0  0  0
  7 12  1  0  0  0  0
  7  8  1  0  0  0  0
  8  9  2  0  0  0  0
  8 28  1  0  0  0  0
  9 10  1  0  0  0  0
  9 29  1  0  0  0  0
 10 11  2  0  0  0  0
 10 30  1  0  0  0  0
 11 12  1  0  0  0  0
 11 31  1  0  0  0  0
 12 13  2  0  0  0  0
 14 19  1  0  0  0  0
 14 15  1  0  0  0  0
 14 32  1  0  0  0  0
 15 16  1  0  0  0  0
 15 33  1  0  0  0  0
 15 34  1  0  0  0  0
 16 20  1  0  0  0  0
 16 17  1  0  0  0  0
 16 35  1  0  0  0  0
 17 18  1  0  0  0  0
 17 36  1  0  0  0  0
 17 37  1  0  0  0  0
 18 19  1  0  0  0  0
 18 38  1  0  0  0  0
 18 39  1  0  0  0  0
 19 20  1  0  0  0  0
 19 40  1  0  0  0  0
 20 41  1  0  0  0  0
 20 42  1  0  0  0  0
M  END
> <s_m_source_file>
AV-unprocessed.smi

> <i_m_source_file_index>
332

> <i_lp_mmshare_version>
43012

> <i_f3d_flags>
0

> <s_epik_input>
W0NIMl0xW0NIMl1bQ0BIXShbQ0gyXTIpW0NAQEhdKFtDSDJdW0NAQEhdMTIpW0NASF0oW0NIM10pW05IXUMoPU8pW0NIMl1uM1tjSF1bY0hdW2NIXVtjSF1jMz1P

> <s_epik_cmdline>
J2VwaWtfcHl0aG9uJywgJy1waCcsICc3LjAnLCAnLXRuJywgJzgnLCAnLW1hJywgJzIwMCcsICctbWV0YWxfYmluZGluZycsICctaW1hZScsICc8aW5maWxlLm1hZT4nLCAnLW9tYWUnLCAnPG91dGZpbGUubWFlPic=

> <r_lp_tautomer_probability>
1

> <r_epik_Ionization_Penalty>
4.05802e-07

> <r_epik_Ionization_Penalty_Charging>
3.84175e-07

> <r_epik_Ionization_Penalty_Neutral>
2.16269e-08

> <r_epik_State_Penalty>
-0

> <r_epik_Charging_Adjusted_Penalty>
3.84175e-07

> <i_epik_Tot_Q>
0

> <i_epik_Tot_abs_Q>
0

> <r_epik_Metal_State_Penalty>
-0

> <b_epik_Metal_Only>
0

> <s_lp_Force_Field>
OPLS_2005

> <r_lp_Energy>
59.7758

> <b_lp_Chiralities_Consistent>
1

> <s_lp_Variant>
AV-unprocessed.smi:332-4

> <Gold.Version>
5.8.1

> <Gold.Id.Protein>
6NUR|6NUR_protein|mol2

> <Gold.PLP.Fitness>
46.1765

> <Gold.PLP.PLP>
-41.5279

> <Gold.PLP.part.hbond>
-1.0000

> <Gold.PLP.part.metal>
0.0000

> <Gold.PLP.part.buried>
-5.4459

> <Gold.PLP.part.nonpolar>
-35.7394

> <Gold.PLP.part.repulsive>
0.1538

> <Gold.PLP.ligand.clash>
0.0000

> <Gold.PLP.ligand.torsion>
0.4576

> <Gold.PLP.Chemscore.Hbond>
0.8480

> <Gold.PLP.Chemscore.CHOScore>
0.9982

> <Gold.PLP.Chemscore.Metal>
0.0000

> <Gold.Chemscore.Hbonds>
donor molecule, donor type, donor heavy atom, donor atom, acceptor molecule, acceptor atom, score
      P1  H  7989  7998       L1     5  0.86
      L1  C     8    28       P1  7957  0.91

> <Gold.PLP.Chemscore.Internal.Correction>
0.0252

> <Gold.Rescore>
     Score         DG    S(hbond)    S(metal)    S(lipo)     H(rot)  DE(clash)    DE(int)     intcor
     18.58     -19.16       0.88        0.00     125.47       1.54       0.10       0.48       ----

> <Gold.Chemscore.Fitness>
18.5766

> <Gold.Chemscore.DG>
-19.1559

> <Gold.Chemscore.ZeroCoef>
-5.4800

> <Gold.Chemscore.Hbond>
0.8797

> <Gold.Chemscore.Metal>
0.0000

> <Gold.Chemscore.Lipo>
125.4682

> <Gold.Chemscore.Internal_Hbond>
0.0000

> <Gold.Chemscore.DEClash>
0.0997

> <Gold.Chemscore.DEInternal>
0.4796

> <Gold.Chemscore.Rot>
1.5398

> <Gold.Chemscore.Internal.Correction>
   9.000000E+99

> <Gold.Chemscore.Hbonds>
donor molecule, donor type, donor heavy atom, donor atom, acceptor molecule, acceptor atom, score
      P1  H  7989  7998       L1     5  0.84

> <Gold.Chemscore.Hbond.Weighted>
-2.9380

> <Gold.Chemscore.Metal.Weighted>
-0.0000

> <Gold.Chemscore.Lipo.Weighted>
-14.6798

> <Gold.Chemscore.Internal_Hbond.Weighted>
0.0000

> <Gold.Chemscore.DEClash.Weighted>
0.0997

> <Gold.Chemscore.DEInternal.Weighted>
0.4796

> <Gold.Chemscore.Rot.Weighted>
3.9419

> <Gold.Chemscore.Internal.Correction.Weighted>
   9.000000E+99

> <Gold.Protein.RotatedTorsions>
[ 6907 6896 6895 6894 ] final -126.49 input  -60.11 | X-H torsion
[ 7974 7965 7964 7962 ] final  -85.99 input  175.53 | X-H torsion
[ 8008 7997 7996 7995 ] final   86.41 input   59.86 | X-H torsion
[ 10167 10162 10161 10158 ] final -110.38 input  -65.29 | X-H torsion
[ 10718 10713 10712 10709 ] final -117.17 input   66.30 | X-H torsion
[ 10763 10752 10751 10750 ] final  169.52 input  -60.55 | X-H torsion
[ 11005 11000 10999 10996 ] final  145.21 input  -57.11 | X-H torsion

> <Gold.Protein.ActiveResidues>
 VAL166  LYS551  ARG553  GLY616  TRP617  ASP618  TYR619  PRO620  LYS621  CYS622 
 ASP623  PHE694  ASN695  SER759  ASP760  ASP761  ALA762  ILE779  LEU786  VAL792 
 PHE793  MET794  SER795  GLU796  ALA797  LYS798  CYS799  TRP800  GLU811  SER814 

> <Gold.Protein.RotatedAtoms>
  150.8974  133.7163  159.2887 H   0  0  0  0  0  0  0  0  0  0  0  0  # atno 6907 bound_to 6896
  151.4692  135.1043  159.9756 H   0  0  0  0  0  0  0  0  0  0  0  0  # atno 6908 bound_to 6896
  152.4857  133.8318  159.7163 H   0  0  0  0  0  0  0  0  0  0  0  0  # atno 6909 bound_to 6896
  145.4859  140.9555  143.1838 H   0  0  0  0  0  0  0  0  0  0  0  0  # atno 7974 bound_to 7965
  155.9624  140.3392  155.6503 H   0  0  0  0  0  0  0  0  0  0  0  0  # atno 8008 bound_to 7997
  155.6780  140.0734  157.2513 H   0  0  0  0  0  0  0  0  0  0  0  0  # atno 8009 bound_to 7997
  154.4146  140.1679  156.1939 H   0  0  0  0  0  0  0  0  0  0  0  0  # atno 8010 bound_to 7997
  140.1451  143.4246  152.1535 H   0  0  0  0  0  0  0  0  0  0  0  0  # atno 10167 bound_to 10162
  156.1015  130.6175  150.9129 H   0  0  0  0  0  0  0  0  0  0  0  0  # atno 10718 bound_to 10713
  154.3844  135.2753  155.2192 H   0  0  0  0  0  0  0  0  0  0  0  0  # atno 10763 bound_to 10752
  154.4285  135.5983  153.6057 H   0  0  0  0  0  0  0  0  0  0  0  0  # atno 10764 bound_to 10752
  152.9833  135.5990  154.4090 H   0  0  0  0  0  0  0  0  0  0  0  0  # atno 10765 bound_to 10752
  140.0694  134.9160  157.1319 H   0  0  0  0  0  0  0  0  0  0  0  0  # atno 11005 bound_to 11000
  144.7862  139.6423  143.7133 LP  0  0  0  0  0  0  0  0  0  0  0  0  # atno 17320 bound_to 7965
  146.2313  139.5819  142.9553 LP  0  0  0  0  0  0  0  0  0  0  0  0  # atno 17321 bound_to 7965
  139.5453  144.7293  151.4603 LP  0  0  0  0  0  0  0  0  0  0  0  0  # atno 17342 bound_to 10162
  140.6737  143.8237  150.7031 LP  0  0  0  0  0  0  0  0  0  0  0  0  # atno 17343 bound_to 10162
  157.6185  131.0931  150.8666 LP  0  0  0  0  0  0  0  0  0  0  0  0  # atno 17370 bound_to 10713
  156.8793  130.5173  149.5292 LP  0  0  0  0  0  0  0  0  0  0  0  0  # atno 17371 bound_to 10713
  140.3650  134.2452  155.7183 LP  0  0  0  0  0  0  0  0  0  0  0  0  # atno 17394 bound_to 11000
  141.2005  133.7984  157.0483 LP  0  0  0  0  0  0  0  0  0  0  0  0  # atno 17395 bound_to 11000

$$$$
