AV-unprocessed.smi:1762|AV-procd|sdf|7110|dock5
  -GOLD-   22720 8333D 1   1.00000     0.00000
 Structure written by MMmdl.
 53 54  0  0  0  0  0  0  0  0  2 V2000
  148.2696  135.9524  158.9944 C   0  0  0  0  0  0  0  0  0  0  0  0
  148.3768  136.1157  157.4741 C   0  0  1  0  0  0  0  0  0  0  0  0
  147.7271  137.4226  156.9853 C   0  0  0  0  0  0  0  0  0  0  0  0
  147.8949  137.6381  155.5439 N   0  0  0  0  0  0  0  0  0  0  0  0
  147.1900  138.8595  155.0605 C   0  0  1  0  0  0  0  0  0  0  0  0
  147.4734  140.1196  155.9146 C   0  0  0  0  0  0  0  0  0  0  0  0
  146.5537  140.7287  156.4602 O   0  0  0  0  0  0  0  0  0  0  0  0
  148.7533  140.5196  155.9889 N   0  0  0  0  0  0  0  0  0  0  0  0
  149.2168  141.7200  156.6783 C   0  0  0  0  0  0  0  0  0  0  0  0
  150.7367  141.9438  156.5577 C   0  0  0  0  0  0  0  0  0  0  0  0
  151.3160  142.8053  157.6659 C   0  0  0  0  0  0  0  0  0  0  0  0
  152.1465  142.2685  158.6733 C   0  0  0  0  0  0  0  0  0  0  0  0
  152.6454  143.1193  159.6817 C   0  0  0  0  0  0  0  0  0  0  0  0
  152.3028  144.4873  159.6628 C   0  0  0  0  0  0  0  0  0  0  0  0
  151.4693  144.9703  158.6338 C   0  0  0  0  0  0  0  0  0  0  0  0
  151.0118  144.1231  157.6861 N   0  3  0  0  0  0  0  0  0  0  0  0
  147.3681  139.1484  153.5306 C   0  0  0  0  0  0  0  0  0  0  0  0
  147.1994  140.6321  153.1465 C   0  0  0  0  0  0  0  0  0  0  0  0
  146.4949  138.2582  152.6254 C   0  0  0  0  0  0  0  0  0  0  0  0
  149.3336  137.5818  155.2286 C   0  0  0  0  0  0  0  0  0  0  0  0
  150.0267  136.3033  155.7416 C   0  0  2  0  0  0  0  0  0  0  0  0
  149.6890  135.0514  154.9128 C   0  0  0  0  0  0  0  0  0  0  0  0
  149.7575  136.1120  157.1283 O   0  0  0  0  0  0  0  0  0  0  0  0
  147.2275  135.9296  159.3140 H   0  0  0  0  0  0  0  0  0  0  0  0
  148.7617  136.7740  159.5157 H   0  0  0  0  0  0  0  0  0  0  0  0
  148.7372  135.0233  159.3207 H   0  0  0  0  0  0  0  0  0  0  0  0
  147.8812  135.2654  157.0050 H   0  0  0  0  0  0  0  0  0  0  0  0
  146.6736  137.3678  157.2505 H   0  0  0  0  0  0  0  0  0  0  0  0
  148.1447  138.2670  157.5366 H   0  0  0  0  0  0  0  0  0  0  0  0
  146.1219  138.6718  155.1913 H   0  0  0  0  0  0  0  0  0  0  0  0
  149.4484  139.9760  155.4975 H   0  0  0  0  0  0  0  0  0  0  0  0
  148.6876  142.5725  156.2519 H   0  0  0  0  0  0  0  0  0  0  0  0
  148.9271  141.6777  157.7294 H   0  0  0  0  0  0  0  0  0  0  0  0
  151.2459  140.9795  156.5614 H   0  0  0  0  0  0  0  0  0  0  0  0
  150.9696  142.4002  155.5944 H   0  0  0  0  0  0  0  0  0  0  0  0
  152.3975  141.2176  158.6759 H   0  0  0  0  0  0  0  0  0  0  0  0
  153.2825  142.7266  160.4607 H   0  0  0  0  0  0  0  0  0  0  0  0
  152.6742  145.1555  160.4261 H   0  0  0  0  0  0  0  0  0  0  0  0
  151.1563  146.0001  158.5406 H   0  0  0  0  0  0  0  0  0  0  0  0
  148.3861  138.8719  153.2614 H   0  0  0  0  0  0  0  0  0  0  0  0
  146.1779  140.9809  153.2921 H   0  0  0  0  0  0  0  0  0  0  0  0
  147.4461  140.7902  152.0962 H   0  0  0  0  0  0  0  0  0  0  0  0
  147.8573  141.2760  153.7300 H   0  0  0  0  0  0  0  0  0  0  0  0
  145.4371  138.5109  152.7006 H   0  0  0  0  0  0  0  0  0  0  0  0
  146.6128  137.2049  152.8803 H   0  0  0  0  0  0  0  0  0  0  0  0
  146.7781  138.3731  151.5788 H   0  0  0  0  0  0  0  0  0  0  0  0
  149.5123  137.6273  154.1546 H   0  0  0  0  0  0  0  0  0  0  0  0
  149.8317  138.4508  155.6619 H   0  0  0  0  0  0  0  0  0  0  0  0
  151.1037  136.4523  155.6609 H   0  0  0  0  0  0  0  0  0  0  0  0
  150.0241  135.1678  153.8820 H   0  0  0  0  0  0  0  0  0  0  0  0
  148.6176  134.8536  154.8844 H   0  0  0  0  0  0  0  0  0  0  0  0
  150.1824  134.1695  155.3214 H   0  0  0  0  0  0  0  0  0  0  0  0
  150.4084  144.4935  156.9512 H   0  0  0  0  0  0  0  0  0  0  0  0
  1  2  1  0  0  0  0
  1 24  1  0  0  0  0
  1 25  1  0  0  0  0
  1 26  1  0  0  0  0
  2 23  1  0  0  0  0
  2  3  1  0  0  0  0
  2 27  1  0  0  0  0
  3  4  1  0  0  0  0
  3 28  1  0  0  0  0
  3 29  1  0  0  0  0
  4  5  1  0  0  0  0
  4 20  1  0  0  0  0
  5  6  1  0  0  0  0
  5 17  1  0  0  0  0
  5 30  1  0  0  0  0
  6  7  2  0  0  0  0
  6  8  1  0  0  0  0
  8  9  1  0  0  0  0
  8 31  1  0  0  0  0
  9 10  1  0  0  0  0
  9 32  1  0  0  0  0
  9 33  1  0  0  0  0
 10 11  1  0  0  0  0
 10 34  1  0  0  0  0
 10 35  1  0  0  0  0
 11 16  1  0  0  0  0
 11 12  2  0  0  0  0
 12 13  1  0  0  0  0
 12 36  1  0  0  0  0
 13 14  2  0  0  0  0
 13 37  1  0  0  0  0
 14 15  1  0  0  0  0
 14 38  1  0  0  0  0
 15 16  2  0  0  0  0
 15 39  1  0  0  0  0
 16 53  1  0  0  0  0
 17 18  1  0  0  0  0
 17 19  1  0  0  0  0
 17 40  1  0  0  0  0
 18 41  1  0  0  0  0
 18 42  1  0  0  0  0
 18 43  1  0  0  0  0
 19 44  1  0  0  0  0
 19 45  1  0  0  0  0
 19 46  1  0  0  0  0
 20 21  1  0  0  0  0
 20 47  1  0  0  0  0
 20 48  1  0  0  0  0
 21 22  1  0  0  0  0
 21 23  1  0  0  0  0
 21 49  1  0  0  0  0
 22 50  1  0  0  0  0
 22 51  1  0  0  0  0
 22 52  1  0  0  0  0
M  CHG  1  16   1
M  END
> <s_m_source_file>
AV-unprocessed.smi

> <i_m_source_file_index>
1762

> <i_lp_mmshare_version>
43012

> <i_f3d_flags>
0

> <s_epik_input>
W0NIM11bQ0BASF0xW0NIMl1OKFtDSDJdW0NASF0oTzEpW0NIM10pW0NAQEhdKFtDSF0oW0NIM10pW0NIM10pQyg9TylbTkhdW0NIMl1bQ0gyXWMyW2NIXVtjSF1bY0hdW2NIXW4y

> <s_epik_cmdline>
J2VwaWtfcHl0aG9uJywgJy1waCcsICc3LjAnLCAnLXRuJywgJzgnLCAnLW1hJywgJzIwMCcsICctbWV0YWxfYmluZGluZycsICctaW1hZScsICc8aW5maWxlLm1hZT4nLCAnLW9tYWUnLCAnPG91dGZpbGUubWFlPic=

> <r_epik_Ionization_Penalty>
1.86475

> <r_epik_Ionization_Penalty_Charging>
1.85347

> <r_epik_Ionization_Penalty_Neutral>
0.0112771

> <r_epik_State_Penalty>
1.99714

> <r_epik_Charging_Adjusted_Penalty>
3.85061

> <i_epik_Tot_Q>
1

> <i_epik_Tot_abs_Q>
1

> <r_epik_Metal_State_Penalty>
2.02271

> <b_epik_Metal_Only>
0

> <s_lp_Force_Field>
OPLS_2005

> <r_lp_Energy>
36.5288

> <b_lp_Chiralities_Consistent>
1

> <s_lp_Variant>
AV-unprocessed.smi:1762-12

> <Gold.Version>
5.8.1

> <Gold.Id.Protein>
6NUR|6NUR_protein|mol2

> <Gold.PLP.Fitness>
39.2749

> <Gold.PLP.PLP>
-35.0649

> <Gold.PLP.part.hbond>
-1.0000

> <Gold.PLP.part.metal>
0.0000

> <Gold.PLP.part.buried>
-3.7640

> <Gold.PLP.part.nonpolar>
-30.5897

> <Gold.PLP.part.repulsive>
0.1090

> <Gold.PLP.ligand.clash>
0.0000

> <Gold.PLP.ligand.torsion>
1.0811

> <Gold.PLP.Chemscore.Hbond>
2.0000

> <Gold.PLP.Chemscore.CHOScore>
0.0000

> <Gold.PLP.Chemscore.Metal>
0.0000

> <Gold.Chemscore.Hbonds>
donor molecule, donor type, donor heavy atom, donor atom, acceptor molecule, acceptor atom, score
      L1  H    16    53       P1  8028  2.00

> <Gold.PLP.Chemscore.Internal.Correction>
0.3722

> <Gold.Rescore>
     Score         DG    S(hbond)    S(metal)    S(lipo)     H(rot)  DE(clash)    DE(int)     intcor
     16.48     -17.79       0.94        0.00     115.99       1.72       0.28       1.02       ----

> <Gold.Chemscore.Fitness>
16.4833

> <Gold.Chemscore.DG>
-17.7872

> <Gold.Chemscore.ZeroCoef>
-5.4800

> <Gold.Chemscore.Hbond>
0.9378

> <Gold.Chemscore.Metal>
0.0000

> <Gold.Chemscore.Lipo>
115.9943

> <Gold.Chemscore.Internal_Hbond>
0.0000

> <Gold.Chemscore.DEClash>
0.2812

> <Gold.Chemscore.DEInternal>
1.0227

> <Gold.Chemscore.Rot>
1.7174

> <Gold.Chemscore.Internal.Correction>
   9.000000E+99

> <Gold.Chemscore.Hbonds>
donor molecule, donor type, donor heavy atom, donor atom, acceptor molecule, acceptor atom, score
      L1  H    16    53       P1  8028  0.83

> <Gold.Chemscore.Hbond.Weighted>
-3.1324

> <Gold.Chemscore.Metal.Weighted>
-0.0000

> <Gold.Chemscore.Lipo.Weighted>
-13.5713

> <Gold.Chemscore.Internal_Hbond.Weighted>
0.0000

> <Gold.Chemscore.DEClash.Weighted>
0.2812

> <Gold.Chemscore.DEInternal.Weighted>
1.0227

> <Gold.Chemscore.Rot.Weighted>
4.3966

> <Gold.Chemscore.Internal.Correction.Weighted>
   9.000000E+99

> <Gold.Protein.RotatedTorsions>
[ 6907 6896 6895 6894 ] final  -35.16 input  -60.11 | X-H torsion
[ 7974 7965 7964 7962 ] final  -29.03 input  175.53 | X-H torsion
[ 8008 7997 7996 7995 ] final   63.13 input   59.86 | X-H torsion
[ 10167 10162 10161 10158 ] final -125.77 input  -65.29 | X-H torsion
[ 10718 10713 10712 10709 ] final -133.84 input   66.30 | X-H torsion
[ 10763 10752 10751 10750 ] final   62.35 input  -60.55 | X-H torsion
[ 11005 11000 10999 10996 ] final  -12.41 input  -57.11 | X-H torsion

> <Gold.Protein.ActiveResidues>
 VAL166  LYS551  ARG553  GLY616  TRP617  ASP618  TYR619  PRO620  LYS621  CYS622 
 ASP623  PHE694  ASN695  SER759  ASP760  ASP761  ALA762  ILE779  LEU786  VAL792 
 PHE793  MET794  SER795  GLU796  ALA797  LYS798  CYS799  TRP800  GLU811  SER814 

> <Gold.Protein.RotatedAtoms>
  151.0434  134.9622  159.8173 H   0  0  0  0  0  0  0  0  0  0  0  0  # atno 6907 bound_to 6896
  152.5368  134.2630  159.8952 H   0  0  0  0  0  0  0  0  0  0  0  0  # atno 6908 bound_to 6896
  151.2643  133.4244  159.2651 H   0  0  0  0  0  0  0  0  0  0  0  0  # atno 6909 bound_to 6896
  146.1246  140.5360  142.8720 H   0  0  0  0  0  0  0  0  0  0  0  0  # atno 7974 bound_to 7965
  155.6253  140.3496  155.4665 H   0  0  0  0  0  0  0  0  0  0  0  0  # atno 8008 bound_to 7997
  156.0047  140.1220  157.0537 H   0  0  0  0  0  0  0  0  0  0  0  0  # atno 8009 bound_to 7997
  154.4260  140.1093  156.5731 H   0  0  0  0  0  0  0  0  0  0  0  0  # atno 8010 bound_to 7997
  139.9786  143.5767  152.2387 H   0  0  0  0  0  0  0  0  0  0  0  0  # atno 10167 bound_to 10162
  156.2492  130.7142  151.1035 H   0  0  0  0  0  0  0  0  0  0  0  0  # atno 10718 bound_to 10713
  152.9980  135.5468  154.6179 H   0  0  0  0  0  0  0  0  0  0  0  0  # atno 10763 bound_to 10752
  154.5485  135.2825  155.1032 H   0  0  0  0  0  0  0  0  0  0  0  0  # atno 10764 bound_to 10752
  154.2281  135.6438  153.5219 H   0  0  0  0  0  0  0  0  0  0  0  0  # atno 10765 bound_to 10752
  140.7655  133.8481  155.9161 H   0  0  0  0  0  0  0  0  0  0  0  0  # atno 11005 bound_to 11000
  144.7629  140.5464  143.6723 LP  0  0  0  0  0  0  0  0  0  0  0  0  # atno 17320 bound_to 7965
  145.5394  139.1475  143.3455 LP  0  0  0  0  0  0  0  0  0  0  0  0  # atno 17321 bound_to 7965
  139.6427  144.7656  151.2307 LP  0  0  0  0  0  0  0  0  0  0  0  0  # atno 17342 bound_to 10162
  140.7497  143.6291  150.8440 LP  0  0  0  0  0  0  0  0  0  0  0  0  # atno 17343 bound_to 10162
  157.7207  131.0683  150.6146 LP  0  0  0  0  0  0  0  0  0  0  0  0  # atno 17370 bound_to 10713
  156.6224  130.4409  149.5817 LP  0  0  0  0  0  0  0  0  0  0  0  0  # atno 17371 bound_to 10713
  140.9623  134.1639  157.4644 LP  0  0  0  0  0  0  0  0  0  0  0  0  # atno 17394 bound_to 11000
  139.8764  134.9949  156.5718 LP  0  0  0  0  0  0  0  0  0  0  0  0  # atno 17395 bound_to 11000

$$$$
