AV-unprocessed.smi:2525|AV-procd|sdf|9931|dock7
  -GOLD-   2272013573D 1   1.00000     0.00000
 Structure written by MMmdl.
 44 45  0  0  0  0  0  0  0  0  1 V2000
  149.5852  140.4651  155.1637 C   0  0  0  0  0  0  0  0  0  0  0  0
  150.8568  140.7038  155.9954 C   0  0  0  0  0  0  0  0  0  0  0  0
  150.7937  140.3266  157.4958 C   0  0  0  0  0  0  0  0  0  0  0  0
  149.6511  141.1724  158.1282 C   0  0  0  0  0  0  0  0  0  0  0  0
  149.8955  142.6908  158.2198 C   0  0  0  0  0  0  0  0  0  0  0  0
  150.7755  138.8082  157.8439 C   0  0  2  0  0  0  0  0  0  0  0  0
  149.4571  138.2917  158.1959 N   0  0  0  0  0  0  0  0  0  0  0  0
  149.2299  137.1023  158.7719 C   0  0  0  0  0  0  0  0  0  0  0  0
  150.1245  136.3199  159.0912 O   0  0  0  0  0  0  0  0  0  0  0  0
  147.7668  136.7358  159.0223 C   0  0  0  0  0  0  0  0  0  0  0  0
  147.5617  136.3130  160.3961 N   0  0  0  0  0  0  0  0  0  0  0  0
  147.2521  135.0551  160.8729 C   0  0  0  0  0  0  0  0  0  0  0  0
  147.1899  135.2347  162.2253 C   0  0  0  0  0  0  0  0  0  0  0  0
  147.4595  136.5720  162.5115 N   0  0  0  0  0  0  0  0  0  0  0  0
  147.6807  137.2098  161.4051 N   0  0  0  0  0  0  0  0  0  0  0  0
  151.6656  139.0850  159.0618 C   0  0  1  0  0  0  0  0  0  0  0  0
  152.6629  138.0186  159.4982 C   0  0  0  0  0  0  0  0  0  0  0  0
  152.1485  140.3056  158.2605 C   0  0  2  0  0  0  0  0  0  0  0  0
  152.3794  141.4676  159.0414 O   0  0  0  0  0  0  0  0  0  0  0  0
  153.4514  141.3300  159.9572 C   0  0  0  0  0  0  0  0  0  0  0  0
  149.7792  140.6695  154.1106 H   0  0  0  0  0  0  0  0  0  0  0  0
  148.7746  141.1270  155.4688 H   0  0  0  0  0  0  0  0  0  0  0  0
  149.2338  139.4364  155.2332 H   0  0  0  0  0  0  0  0  0  0  0  0
  151.6601  140.1416  155.5186 H   0  0  0  0  0  0  0  0  0  0  0  0
  151.1255  141.7551  155.8833 H   0  0  0  0  0  0  0  0  0  0  0  0
  148.7264  141.0212  157.5699 H   0  0  0  0  0  0  0  0  0  0  0  0
  149.4324  140.8176  159.1353 H   0  0  0  0  0  0  0  0  0  0  0  0
  149.0825  143.1713  158.7643 H   0  0  0  0  0  0  0  0  0  0  0  0
  149.9351  143.1559  157.2351 H   0  0  0  0  0  0  0  0  0  0  0  0
  150.8196  142.9336  158.7416 H   0  0  0  0  0  0  0  0  0  0  0  0
  151.3051  138.1833  157.1237 H   0  0  0  0  0  0  0  0  0  0  0  0
  148.6627  138.8721  157.9693 H   0  0  0  0  0  0  0  0  0  0  0  0
  147.1230  137.5904  158.8085 H   0  0  0  0  0  0  0  0  0  0  0  0
  147.4633  135.9294  158.3532 H   0  0  0  0  0  0  0  0  0  0  0  0
  147.1129  134.1893  160.2424 H   0  0  0  0  0  0  0  0  0  0  0  0
  146.9771  134.5218  163.0082 H   0  0  0  0  0  0  0  0  0  0  0  0
  151.0612  139.4145  159.9088 H   0  0  0  0  0  0  0  0  0  0  0  0
  153.3155  137.7232  158.6763 H   0  0  0  0  0  0  0  0  0  0  0  0
  152.1504  137.1225  159.8479 H   0  0  0  0  0  0  0  0  0  0  0  0
  153.2948  138.3692  160.3129 H   0  0  0  0  0  0  0  0  0  0  0  0
  152.9910  140.0692  157.6077 H   0  0  0  0  0  0  0  0  0  0  0  0
  153.5981  142.2705  160.4879 H   0  0  0  0  0  0  0  0  0  0  0  0
  154.3821  141.0857  159.4437 H   0  0  0  0  0  0  0  0  0  0  0  0
  153.2456  140.5593  160.6992 H   0  0  0  0  0  0  0  0  0  0  0  0
  1  2  1  0  0  0  0
  1 21  1  0  0  0  0
  1 22  1  0  0  0  0
  1 23  1  0  0  0  0
  2  3  1  0  0  0  0
  2 24  1  0  0  0  0
  2 25  1  0  0  0  0
  3 18  1  0  0  0  0
  3  4  1  0  0  0  0
  3  6  1  0  0  0  0
  4  5  1  0  0  0  0
  4 26  1  0  0  0  0
  4 27  1  0  0  0  0
  5 28  1  0  0  0  0
  5 29  1  0  0  0  0
  5 30  1  0  0  0  0
  6  7  1  0  0  0  0
  6 16  1  0  0  0  0
  6 31  1  0  0  0  0
  7  8  1  0  0  0  0
  7 32  1  0  0  0  0
  8  9  2  0  0  0  0
  8 10  1  0  0  0  0
 10 11  1  0  0  0  0
 10 33  1  0  0  0  0
 10 34  1  0  0  0  0
 11 15  1  0  0  0  0
 11 12  1  0  0  0  0
 12 13  2  0  0  0  0
 12 35  1  0  0  0  0
 13 14  1  0  0  0  0
 13 36  1  0  0  0  0
 14 15  2  0  0  0  0
 16 17  1  0  0  0  0
 16 18  1  0  0  0  0
 16 37  1  0  0  0  0
 17 38  1  0  0  0  0
 17 39  1  0  0  0  0
 17 40  1  0  0  0  0
 18 19  1  0  0  0  0
 18 41  1  0  0  0  0
 19 20  1  0  0  0  0
 20 42  1  0  0  0  0
 20 43  1  0  0  0  0
 20 44  1  0  0  0  0
M  END
> <s_m_source_file>
AV-unprocessed.smi

> <i_m_source_file_index>
2525

> <i_lp_mmshare_version>
43012

> <i_f3d_flags>
0

> <s_epik_input>
W0NIM11PW0NAQEhdMVtDQEhdKFtDSDNdKVtDQEBIXShDMShbQ0gyXVtDSDNdKVtDSDJdW0NIM10pW05IXUMoPU8pW0NIMl1uMltjSF1bY0hdbm4y

> <s_epik_cmdline>
J2VwaWtfcHl0aG9uJywgJy1waCcsICc3LjAnLCAnLXRuJywgJzgnLCAnLW1hJywgJzIwMCcsICctbWV0YWxfYmluZGluZycsICctaW1hZScsICc8aW5maWxlLm1hZT4nLCAnLW9tYWUnLCAnPG91dGZpbGUubWFlPic=

> <r_lp_tautomer_probability>
1

> <r_epik_Ionization_Penalty>
1.18045e-06

> <r_epik_Ionization_Penalty_Charging>
0

> <r_epik_Ionization_Penalty_Neutral>
1.18045e-06

> <r_epik_State_Penalty>
-0

> <r_epik_Charging_Adjusted_Penalty>
0

> <i_epik_Tot_Q>
0

> <i_epik_Tot_abs_Q>
0

> <r_epik_Metal_State_Penalty>
-0

> <b_epik_Metal_Only>
0

> <s_lp_Force_Field>
OPLS_2005

> <r_lp_Energy>
27.6116

> <b_lp_Chiralities_Consistent>
1

> <s_lp_Variant>
AV-unprocessed.smi:2525-6

> <Gold.Version>
5.8.1

> <Gold.Id.Protein>
6NUR|6NUR_protein|mol2

> <Gold.PLP.Fitness>
42.0584

> <Gold.PLP.PLP>
-34.0622

> <Gold.PLP.part.hbond>
-3.2791

> <Gold.PLP.part.metal>
0.0000

> <Gold.PLP.part.buried>
-6.3421

> <Gold.PLP.part.nonpolar>
-25.3030

> <Gold.PLP.part.repulsive>
0.1280

> <Gold.PLP.ligand.clash>
0.0000

> <Gold.PLP.ligand.torsion>
0.4820

> <Gold.PLP.Chemscore.Hbond>
2.7840

> <Gold.PLP.Chemscore.CHOScore>
0.0000

> <Gold.PLP.Chemscore.Metal>
0.0000

> <Gold.Chemscore.Hbonds>
donor molecule, donor type, donor heavy atom, donor atom, acceptor molecule, acceptor atom, score
      P1  H  6896  6907       L1     9  1.00
      P1  H  6931  6943       L1    15  0.98
      P1  H  6934  6947       L1    15  0.80

> <Gold.PLP.Chemscore.Internal.Correction>
0.6082

> <Gold.Rescore>
     Score         DG    S(hbond)    S(metal)    S(lipo)     H(rot)  DE(clash)    DE(int)     intcor
     16.32     -16.80       2.32        0.00      73.78       1.98       0.01       0.47       ----

> <Gold.Chemscore.Fitness>
16.3189

> <Gold.Chemscore.DG>
-16.7975

> <Gold.Chemscore.ZeroCoef>
-5.4800

> <Gold.Chemscore.Hbond>
2.3230

> <Gold.Chemscore.Metal>
0.0000

> <Gold.Chemscore.Lipo>
73.7753

> <Gold.Chemscore.Internal_Hbond>
0.0000

> <Gold.Chemscore.DEClash>
0.0106

> <Gold.Chemscore.DEInternal>
0.4680

> <Gold.Chemscore.Rot>
1.9817

> <Gold.Chemscore.Internal.Correction>
   9.000000E+99

> <Gold.Chemscore.Hbonds>
donor molecule, donor type, donor heavy atom, donor atom, acceptor molecule, acceptor atom, score
      P1  H  6896  6907       L1     9  1.00
      P1  H  6931  6943       L1    15  0.24
      P1  H  6934  6947       L1    15  0.72

> <Gold.Chemscore.Hbond.Weighted>
-7.7589

> <Gold.Chemscore.Metal.Weighted>
-0.0000

> <Gold.Chemscore.Lipo.Weighted>
-8.6317

> <Gold.Chemscore.Internal_Hbond.Weighted>
0.0000

> <Gold.Chemscore.DEClash.Weighted>
0.0106

> <Gold.Chemscore.DEInternal.Weighted>
0.4680

> <Gold.Chemscore.Rot.Weighted>
5.0731

> <Gold.Chemscore.Internal.Correction.Weighted>
   9.000000E+99

> <Gold.Protein.RotatedTorsions>
[ 6907 6896 6895 6894 ] final  -33.12 input  -60.11 | X-H torsion
[ 7974 7965 7964 7962 ] final   -8.32 input  175.53 | X-H torsion
[ 8008 7997 7996 7995 ] final  107.25 input   59.86 | X-H torsion
[ 10167 10162 10161 10158 ] final  166.91 input  -65.29 | X-H torsion
[ 10718 10713 10712 10709 ] final  172.80 input   66.30 | X-H torsion
[ 10763 10752 10751 10750 ] final    0.69 input  -60.55 | X-H torsion
[ 11005 11000 10999 10996 ] final -150.61 input  -57.11 | X-H torsion

> <Gold.Protein.ActiveResidues>
 VAL166  LYS551  ARG553  GLY616  TRP617  ASP618  TYR619  PRO620  LYS621  CYS622 
 ASP623  PHE694  ASN695  SER759  ASP760  ASP761  ALA762  ILE779  LEU786  VAL792 
 PHE793  MET794  SER795  GLU796  ALA797  LYS798  CYS799  TRP800  GLU811  SER814 

> <Gold.Protein.RotatedAtoms>
  151.0698  134.9791  159.8302 H   0  0  0  0  0  0  0  0  0  0  0  0  # atno 6907 bound_to 6896
  152.5407  134.2313  159.8836 H   0  0  0  0  0  0  0  0  0  0  0  0  # atno 6908 bound_to 6896
  151.2337  133.4393  159.2638 H   0  0  0  0  0  0  0  0  0  0  0  0  # atno 6909 bound_to 6896
  146.2283  140.2451  142.8345 H   0  0  0  0  0  0  0  0  0  0  0  0  # atno 7974 bound_to 7965
  156.1809  140.3098  155.9146 H   0  0  0  0  0  0  0  0  0  0  0  0  # atno 8008 bound_to 7997
  155.3387  140.0464  157.3061 H   0  0  0  0  0  0  0  0  0  0  0  0  # atno 8009 bound_to 7997
  154.5341  140.2240  155.8763 H   0  0  0  0  0  0  0  0  0  0  0  0  # atno 8010 bound_to 7997
  139.4934  144.3978  151.9444 H   0  0  0  0  0  0  0  0  0  0  0  0  # atno 10167 bound_to 10162
  156.9737  131.0098  151.2899 H   0  0  0  0  0  0  0  0  0  0  0  0  # atno 10718 bound_to 10713
  153.3175  135.6967  153.7060 H   0  0  0  0  0  0  0  0  0  0  0  0  # atno 10763 bound_to 10752
  153.5914  135.3479  155.2912 H   0  0  0  0  0  0  0  0  0  0  0  0  # atno 10764 bound_to 10752
  154.8590  135.4318  154.2330 H   0  0  0  0  0  0  0  0  0  0  0  0  # atno 10765 bound_to 10752
  140.7384  134.3542  157.5152 H   0  0  0  0  0  0  0  0  0  0  0  0  # atno 11005 bound_to 11000
  144.9455  140.8123  143.5604 LP  0  0  0  0  0  0  0  0  0  0  0  0  # atno 17320 bound_to 7965
  145.2406  139.2074  143.4994 LP  0  0  0  0  0  0  0  0  0  0  0  0  # atno 17321 bound_to 7965
  140.3416  144.3196  150.5966 LP  0  0  0  0  0  0  0  0  0  0  0  0  # atno 17342 bound_to 10162
  140.5561  143.2199  151.7846 LP  0  0  0  0  0  0  0  0  0  0  0  0  # atno 17343 bound_to 10162
  157.5575  130.8223  149.8223 LP  0  0  0  0  0  0  0  0  0  0  0  0  # atno 17370 bound_to 10713
  156.0272  130.3775  150.1788 LP  0  0  0  0  0  0  0  0  0  0  0  0  # atno 17371 bound_to 10713
  139.8811  134.9065  156.2923 LP  0  0  0  0  0  0  0  0  0  0  0  0  # atno 17394 bound_to 11000
  140.9859  133.7239  156.0740 LP  0  0  0  0  0  0  0  0  0  0  0  0  # atno 17395 bound_to 11000

$$$$
