AV-unprocessed.smi:1592|AV-procd|sdf|6405|dock3
  -GOLD-   22720 7 43D 1   1.00000     0.00000
 Structure written by MMmdl.
 26 27  0  0  0  0  0  0  0  0  2 V2000
  149.8917  140.8558  157.3030 O   0  0  0  0  0  0  0  0  0  0  0  0
  150.9950  140.4585  156.9177 C   0  0  0  0  0  0  0  0  0  0  0  0
  152.1266  140.1362  157.6629 N   0  0  0  0  0  0  0  0  0  0  0  0
  152.4886  140.7767  158.7413 C   0  0  0  0  0  0  0  0  0  0  0  0
  151.7785  141.8713  159.2647 N   0  0  0  0  0  0  0  0  0  0  0  0
  152.1705  142.5493  160.3994 C   0  0  0  0  0  0  0  0  0  0  0  0
  153.2625  142.1976  161.0798 C   0  0  0  0  0  0  0  0  0  0  0  0
  154.0492  141.0762  160.6091 C   0  0  0  0  0  0  0  0  0  0  0  0
  153.7019  140.3520  159.4627 C   0  0  0  0  0  0  0  0  0  0  0  0
  154.4134  139.3902  159.0906 O   0  5  0  0  0  0  0  0  0  0  0  0
  151.2353  140.2512  155.4122 C   0  0  2  0  0  0  0  0  0  0  0  0
  150.4162  139.0835  154.8259 C   0  0  0  0  0  0  0  0  0  0  0  0
  151.4592  138.1492  154.2379 C   0  0  0  0  0  0  0  0  0  0  0  0
  152.7091  138.5005  155.0305 C   0  0  0  0  0  0  0  0  0  0  0  0
  152.6022  139.9084  155.1752 O   0  0  0  0  0  0  0  0  0  0  0  0
  151.5300  143.3719  160.6809 H   0  0  0  0  0  0  0  0  0  0  0  0
  153.5561  142.7401  161.9662 H   0  0  0  0  0  0  0  0  0  0  0  0
  154.9312  140.8002  161.1689 H   0  0  0  0  0  0  0  0  0  0  0  0
  150.9404  142.2050  158.8124 H   0  0  0  0  0  0  0  0  0  0  0  0
  151.0207  141.1816  154.8847 H   0  0  0  0  0  0  0  0  0  0  0  0
  149.8445  138.5618  155.5955 H   0  0  0  0  0  0  0  0  0  0  0  0
  149.7084  139.4208  154.0683 H   0  0  0  0  0  0  0  0  0  0  0  0
  151.1855  137.0970  154.3189 H   0  0  0  0  0  0  0  0  0  0  0  0
  151.6131  138.3817  153.1836 H   0  0  0  0  0  0  0  0  0  0  0  0
  152.6977  138.0236  156.0118 H   0  0  0  0  0  0  0  0  0  0  0  0
  153.6284  138.2160  154.5182 H   0  0  0  0  0  0  0  0  0  0  0  0
  1  2  2  0  0  0  0
  2  3  1  0  0  0  0
  2 11  1  0  0  0  0
  3  4  2  0  0  0  0
  4  9  1  0  0  0  0
  4  5  1  0  0  0  0
  5 19  1  0  0  0  0
  5  6  1  0  0  0  0
  6 16  1  0  0  0  0
  6  7  2  0  0  0  0
  7 17  1  0  0  0  0
  7  8  1  0  0  0  0
  8  9  2  0  0  0  0
  8 18  1  0  0  0  0
  9 10  1  0  0  0  0
 11 15  1  0  0  0  0
 11 12  1  0  0  0  0
 11 20  1  0  0  0  0
 12 13  1  0  0  0  0
 12 21  1  0  0  0  0
 12 22  1  0  0  0  0
 13 14  1  0  0  0  0
 13 23  1  0  0  0  0
 13 24  1  0  0  0  0
 14 15  1  0  0  0  0
 14 25  1  0  0  0  0
 14 26  1  0  0  0  0
M  CHG  1  10  -1
M  END
> <s_m_source_file>
AV-unprocessed.smi

> <i_m_source_file_index>
1592

> <i_lp_mmshare_version>
43012

> <i_f3d_flags>
0

> <s_epik_input>
TzFbQ0gyXVtDSDJdW0NIMl1bQ0BIXTFDKD1PKVtOSF1jMm5bY0hdW2NIXVtjSF1jMltPSF0=

> <s_epik_cmdline>
J2VwaWtfcHl0aG9uJywgJy1waCcsICc3LjAnLCAnLXRuJywgJzgnLCAnLW1hJywgJzIwMCcsICctbWV0YWxfYmluZGluZycsICctaW1hZScsICc8aW5maWxlLm1hZT4nLCAnLW9tYWUnLCAnPG91dGZpbGUubWFlPic=

> <r_epik_Ionization_Penalty>
0.780127

> <r_epik_Ionization_Penalty_Charging>
0.780127

> <r_epik_Ionization_Penalty_Neutral>
6.55423e-13

> <r_epik_State_Penalty>
1.4426

> <r_epik_Charging_Adjusted_Penalty>
2.22273

> <i_epik_Tot_Q>
-1

> <i_epik_Tot_abs_Q>
1

> <r_epik_Metal_State_Penalty>
1.40439

> <b_epik_Metal_Only>
0

> <s_lp_Force_Field>
OPLS_2005

> <r_lp_Energy>
49.557

> <b_lp_Chiralities_Consistent>
1

> <s_lp_Variant>
AV-unprocessed.smi:1592-5

> <Gold.Version>
5.8.1

> <Gold.Id.Protein>
6NUR|6NUR_protein|mol2

> <Gold.PLP.Fitness>
39.2916

> <Gold.PLP.PLP>
-30.9929

> <Gold.PLP.part.hbond>
-3.0000

> <Gold.PLP.part.metal>
0.0000

> <Gold.PLP.part.buried>
-1.9388

> <Gold.PLP.part.nonpolar>
-26.3218

> <Gold.PLP.part.repulsive>
0.1533

> <Gold.PLP.ligand.clash>
0.0000

> <Gold.PLP.ligand.torsion>
0.3542

> <Gold.PLP.Chemscore.Hbond>
3.0000

> <Gold.PLP.Chemscore.CHOScore>
0.0000

> <Gold.PLP.Chemscore.Metal>
0.0000

> <Gold.Chemscore.Hbonds>
donor molecule, donor type, donor heavy atom, donor atom, acceptor molecule, acceptor atom, score
      P1  H  7997  8008       L1    15  0.85
      P1  H  7997  8010       L1    10  2.00

> <Gold.PLP.Chemscore.Internal.Correction>
0.0072

> <Gold.Rescore>
     Score         DG    S(hbond)    S(metal)    S(lipo)     H(rot)  DE(clash)    DE(int)     intcor
     16.54     -16.87       1.70        0.00      70.58       1.00       0.08       0.25       ----

> <Gold.Chemscore.Fitness>
16.5374

> <Gold.Chemscore.DG>
-16.8660

> <Gold.Chemscore.ZeroCoef>
-5.4800

> <Gold.Chemscore.Hbond>
1.7032

> <Gold.Chemscore.Metal>
0.0000

> <Gold.Chemscore.Lipo>
70.5754

> <Gold.Chemscore.Internal_Hbond>
0.0000

> <Gold.Chemscore.DEClash>
0.0785

> <Gold.Chemscore.DEInternal>
0.2501

> <Gold.Chemscore.Rot>
1.0000

> <Gold.Chemscore.Internal.Correction>
   9.000000E+99

> <Gold.Chemscore.Hbonds>
donor molecule, donor type, donor heavy atom, donor atom, acceptor molecule, acceptor atom, score
      P1  H  7997  8008       L1    15  0.14
      P1  H  7997  8010       L1    10  0.42

> <Gold.Chemscore.Hbond.Weighted>
-5.6887

> <Gold.Chemscore.Metal.Weighted>
-0.0000

> <Gold.Chemscore.Lipo.Weighted>
-8.2573

> <Gold.Chemscore.Internal_Hbond.Weighted>
0.0000

> <Gold.Chemscore.DEClash.Weighted>
0.0785

> <Gold.Chemscore.DEInternal.Weighted>
0.2501

> <Gold.Chemscore.Rot.Weighted>
2.5600

> <Gold.Chemscore.Internal.Correction.Weighted>
   9.000000E+99

> <Gold.Protein.RotatedTorsions>
[ 6907 6896 6895 6894 ] final  -19.83 input  -60.11 | X-H torsion
[ 7974 7965 7964 7962 ] final   95.60 input  175.53 | X-H torsion
[ 8008 7997 7996 7995 ] final   -9.13 input   59.86 | X-H torsion
[ 10167 10162 10161 10158 ] final -157.60 input  -65.29 | X-H torsion
[ 10718 10713 10712 10709 ] final  -75.41 input   66.30 | X-H torsion
[ 10763 10752 10751 10750 ] final   -0.88 input  -60.55 | X-H torsion
[ 11005 11000 10999 10996 ] final  156.93 input  -57.11 | X-H torsion

> <Gold.Protein.ActiveResidues>
 VAL166  LYS551  ARG553  GLY616  TRP617  ASP618  TYR619  PRO620  LYS621  CYS622 
 ASP623  PHE694  ASN695  SER759  ASP760  ASP761  ALA762  ILE779  LEU786  VAL792 
 PHE793  MET794  SER795  GLU796  ALA797  LYS798  CYS799  TRP800  GLU811  SER814 

> <Gold.Protein.RotatedAtoms>
  151.2572  135.0642  159.9084 H   0  0  0  0  0  0  0  0  0  0  0  0  # atno 6907 bound_to 6896
  152.5371  134.0269  159.8017 H   0  0  0  0  0  0  0  0  0  0  0  0  # atno 6908 bound_to 6896
  151.0487  133.5593  159.2675 H   0  0  0  0  0  0  0  0  0  0  0  0  # atno 6909 bound_to 6896
  145.4500  139.2294  143.3045 H   0  0  0  0  0  0  0  0  0  0  0  0  # atno 7974 bound_to 7965
  154.5675  140.2363  155.8241 H   0  0  0  0  0  0  0  0  0  0  0  0  # atno 8008 bound_to 7997
  156.2080  140.3034  155.9628 H   0  0  0  0  0  0  0  0  0  0  0  0  # atno 8009 bound_to 7997
  155.2773  140.0421  157.3003 H   0  0  0  0  0  0  0  0  0  0  0  0  # atno 8010 bound_to 7997
  139.6758  143.9667  152.2309 H   0  0  0  0  0  0  0  0  0  0  0  0  # atno 10167 bound_to 10162
  156.0208  130.4440  150.3038 H   0  0  0  0  0  0  0  0  0  0  0  0  # atno 10718 bound_to 10713
  153.3376  135.6979  153.6894 H   0  0  0  0  0  0  0  0  0  0  0  0  # atno 10763 bound_to 10752
  153.5672  135.3523  155.2824 H   0  0  0  0  0  0  0  0  0  0  0  0  # atno 10764 bound_to 10752
  154.8630  135.4263  154.2581 H   0  0  0  0  0  0  0  0  0  0  0  0  # atno 10765 bound_to 10752
  140.1721  134.8536  157.2703 H   0  0  0  0  0  0  0  0  0  0  0  0  # atno 11005 bound_to 11000
  146.2509  140.5258  142.8893 LP  0  0  0  0  0  0  0  0  0  0  0  0  # atno 17320 bound_to 7965
  144.8067  140.6313  143.6442 LP  0  0  0  0  0  0  0  0  0  0  0  0  # atno 17321 bound_to 7965
  139.9443  144.6661  150.8235 LP  0  0  0  0  0  0  0  0  0  0  0  0  # atno 17342 bound_to 10162
  140.7635  143.3224  151.2593 LP  0  0  0  0  0  0  0  0  0  0  0  0  # atno 17343 bound_to 10162
  157.1141  131.0229  151.3036 LP  0  0  0  0  0  0  0  0  0  0  0  0  # atno 17370 bound_to 10713
  157.4681  130.7692  149.7298 LP  0  0  0  0  0  0  0  0  0  0  0  0  # atno 17371 bound_to 10713
  140.2365  134.3846  155.7499 LP  0  0  0  0  0  0  0  0  0  0  0  0  # atno 17394 bound_to 11000
  141.2218  133.7242  156.8722 LP  0  0  0  0  0  0  0  0  0  0  0  0  # atno 17395 bound_to 11000

$$$$
