AV-unprocessed.smi:2973|AV-procd|sdf|11344|dock7
  -GOLD-   2272016253D 1   1.00000     0.00000
 Structure written by MMmdl.
 50 52  0  0  0  0  0  0  0  0  2 V2000
  151.7116  138.3329  158.1311 C   0  0  0  0  0  0  0  0  0  0  0  0
  151.3432  139.8046  158.4137 C   0  0  1  0  0  0  0  0  0  0  0  0
  152.5886  140.7110  158.3046 C   0  0  0  0  0  0  0  0  0  0  0  0
  152.2662  142.1659  158.6797 C   0  0  0  0  0  0  0  0  0  0  0  0
  151.1222  142.7267  157.8234 C   0  0  0  0  0  0  0  0  0  0  0  0
  149.8693  141.8375  157.9172 C   0  0  0  0  0  0  0  0  0  0  0  0
  150.1492  140.3534  157.5697 C   0  0  2  0  0  0  0  0  0  0  0  0
  148.9465  139.5679  157.7874 N   0  0  0  0  0  0  0  0  0  0  0  0
  148.4629  139.0201  156.6662 C   0  0  0  0  0  0  0  0  0  0  0  0
  147.4471  138.3303  156.5942 O   0  0  0  0  0  0  0  0  0  0  0  0
  149.2743  139.3556  155.6481 N   0  0  0  0  0  0  0  0  0  0  0  0
  149.0505  138.9570  154.2526 C   0  0  0  0  0  0  0  0  0  0  0  0
  147.5629  138.8529  153.8887 C   0  0  0  0  0  0  0  0  0  0  0  0
  146.7358  139.6257  154.3747 O   0  0  0  0  0  0  0  0  0  0  0  0
  147.2391  137.8881  153.0149 N   0  0  0  0  0  0  0  0  0  0  0  0
  145.8905  137.6114  152.5351 C   0  0  0  0  0  0  0  0  0  0  0  0
  145.9063  136.8832  151.1802 C   0  0  0  0  0  0  0  0  0  0  0  0
  145.6498  135.3962  151.3252 C   0  0  0  0  0  0  0  0  0  0  0  0
  144.4733  134.7868  150.8378 C   0  0  0  0  0  0  0  0  0  0  0  0
  144.3003  133.3962  150.9992 C   0  0  0  0  0  0  0  0  0  0  0  0
  145.3064  132.6455  151.6424 C   0  0  0  0  0  0  0  0  0  0  0  0
  146.4624  133.3052  152.1074 C   0  0  0  0  0  0  0  0  0  0  0  0
  146.5916  134.6387  151.9330 N   0  3  0  0  0  0  0  0  0  0  0  0
  150.2842  140.1336  156.0611 C   0  0  0  0  0  0  0  0  0  0  0  0
  151.1799  140.6075  155.3621 O   0  0  0  0  0  0  0  0  0  0  0  0
  152.0902  138.1969  157.1178 H   0  0  0  0  0  0  0  0  0  0  0  0
  150.8555  137.6708  158.2601 H   0  0  0  0  0  0  0  0  0  0  0  0
  152.4876  137.9907  158.8162 H   0  0  0  0  0  0  0  0  0  0  0  0
  151.0261  139.8372  159.4574 H   0  0  0  0  0  0  0  0  0  0  0  0
  153.3747  140.3393  158.9625 H   0  0  0  0  0  0  0  0  0  0  0  0
  152.9992  140.6736  157.2954 H   0  0  0  0  0  0  0  0  0  0  0  0
  151.9913  142.2183  159.7339 H   0  0  0  0  0  0  0  0  0  0  0  0
  153.1554  142.7857  158.5621 H   0  0  0  0  0  0  0  0  0  0  0  0
  150.8802  143.7384  158.1497 H   0  0  0  0  0  0  0  0  0  0  0  0
  151.4476  142.8146  156.7870 H   0  0  0  0  0  0  0  0  0  0  0  0
  149.4699  141.8997  158.9304 H   0  0  0  0  0  0  0  0  0  0  0  0
  149.0920  142.2422  157.2665 H   0  0  0  0  0  0  0  0  0  0  0  0
  148.5188  139.4681  158.6965 H   0  0  0  0  0  0  0  0  0  0  0  0
  149.5237  139.6672  153.5725 H   0  0  0  0  0  0  0  0  0  0  0  0
  149.5379  137.9984  154.0651 H   0  0  0  0  0  0  0  0  0  0  0  0
  147.9818  137.3034  152.6587 H   0  0  0  0  0  0  0  0  0  0  0  0
  145.3456  137.0256  153.2775 H   0  0  0  0  0  0  0  0  0  0  0  0
  145.3652  138.5623  152.4427 H   0  0  0  0  0  0  0  0  0  0  0  0
  145.1521  137.3096  150.5172 H   0  0  0  0  0  0  0  0  0  0  0  0
  146.8669  137.0256  150.6831 H   0  0  0  0  0  0  0  0  0  0  0  0
  143.7130  135.3754  150.3447 H   0  0  0  0  0  0  0  0  0  0  0  0
  143.4071  132.9113  150.6334 H   0  0  0  0  0  0  0  0  0  0  0  0
  145.1931  131.5796  151.7759 H   0  0  0  0  0  0  0  0  0  0  0  0
  147.2812  132.8109  152.6096 H   0  0  0  0  0  0  0  0  0  0  0  0
  147.4366  135.0950  152.2777 H   0  0  0  0  0  0  0  0  0  0  0  0
  1  2  1  0  0  0  0
  1 26  1  0  0  0  0
  1 27  1  0  0  0  0
  1 28  1  0  0  0  0
  2  7  1  0  0  0  0
  2  3  1  0  0  0  0
  2 29  1  0  0  0  0
  3  4  1  0  0  0  0
  3 30  1  0  0  0  0
  3 31  1  0  0  0  0
  4  5  1  0  0  0  0
  4 32  1  0  0  0  0
  4 33  1  0  0  0  0
  5  6  1  0  0  0  0
  5 34  1  0  0  0  0
  5 35  1  0  0  0  0
  6  7  1  0  0  0  0
  6 36  1  0  0  0  0
  6 37  1  0  0  0  0
  7 24  1  0  0  0  0
  7  8  1  0  0  0  0
  8  9  1  0  0  0  0
  8 38  1  0  0  0  0
  9 10  2  0  0  0  0
  9 11  1  0  0  0  0
 11 12  1  0  0  0  0
 11 24  1  0  0  0  0
 12 13  1  0  0  0  0
 12 39  1  0  0  0  0
 12 40  1  0  0  0  0
 13 14  2  0  0  0  0
 13 15  1  0  0  0  0
 15 16  1  0  0  0  0
 15 41  1  0  0  0  0
 16 17  1  0  0  0  0
 16 42  1  0  0  0  0
 16 43  1  0  0  0  0
 17 18  1  0  0  0  0
 17 44  1  0  0  0  0
 17 45  1  0  0  0  0
 18 23  1  0  0  0  0
 18 19  2  0  0  0  0
 19 20  1  0  0  0  0
 19 46  1  0  0  0  0
 20 21  2  0  0  0  0
 20 47  1  0  0  0  0
 21 22  1  0  0  0  0
 21 48  1  0  0  0  0
 22 23  2  0  0  0  0
 22 49  1  0  0  0  0
 23 50  1  0  0  0  0
 24 25  2  0  0  0  0
M  CHG  1  23   1
M  END
> <s_m_source_file>
AV-unprocessed.smi

> <i_m_source_file_index>
2973

> <i_lp_mmshare_version>
43012

> <i_f3d_flags>
0

> <s_epik_input>
W0NIMl0xW0NIMl1bQ0gyXVtDSDJdW0NAQEhdKFtDSDNdKVtDQF0xMltOSF1DKD1PKU4oQzI9TylbQ0gyXUMoPU8pW05IXVtDSDJdW0NIMl1jM1tjSF1bY0hdW2NIXVtjSF1uMw==

> <s_epik_cmdline>
J2VwaWtfcHl0aG9uJywgJy1waCcsICc3LjAnLCAnLXRuJywgJzgnLCAnLW1hJywgJzIwMCcsICctbWV0YWxfYmluZGluZycsICctaW1hZScsICc8aW5maWxlLm1hZT4nLCAnLW9tYWUnLCAnPG91dGZpbGUubWFlPic=

> <r_lp_tautomer_probability>
1

> <r_epik_Ionization_Penalty>
1.90043

> <r_epik_Ionization_Penalty_Charging>
1.90039

> <r_epik_Ionization_Penalty_Neutral>
4.65525e-05

> <r_epik_State_Penalty>
2.02162

> <r_epik_Charging_Adjusted_Penalty>
3.922

> <i_epik_Tot_Q>
1

> <i_epik_Tot_abs_Q>
1

> <r_epik_Metal_State_Penalty>
2.06631

> <b_epik_Metal_Only>
0

> <s_lp_Force_Field>
OPLS_2005

> <r_lp_Energy>
22.9905

> <b_lp_Chiralities_Consistent>
1

> <s_lp_Variant>
AV-unprocessed.smi:2973-8

> <Gold.Version>
5.8.1

> <Gold.Id.Protein>
6NUR|6NUR_protein|mol2

> <Gold.PLP.Fitness>
45.8854

> <Gold.PLP.PLP>
-36.6661

> <Gold.PLP.part.hbond>
-3.0000

> <Gold.PLP.part.metal>
0.0000

> <Gold.PLP.part.buried>
-2.7840

> <Gold.PLP.part.nonpolar>
-31.7174

> <Gold.PLP.part.repulsive>
0.4046

> <Gold.PLP.ligand.clash>
0.0000

> <Gold.PLP.ligand.torsion>
1.2269

> <Gold.PLP.Chemscore.Hbond>
3.8800

> <Gold.PLP.Chemscore.CHOScore>
0.0000

> <Gold.PLP.Chemscore.Metal>
0.0000

> <Gold.Chemscore.Hbonds>
donor molecule, donor type, donor heavy atom, donor atom, acceptor molecule, acceptor atom, score
      L1  H    15    41       P1  7948  1.00
      L1  H    23    50       P1  7948  1.82
      P1  H  7989  7998       L1    25  0.86

> <Gold.PLP.Chemscore.Internal.Correction>
0.0331

> <Gold.Rescore>
     Score         DG    S(hbond)    S(metal)    S(lipo)     H(rot)  DE(clash)    DE(int)     intcor
     17.40     -19.60       2.83        0.00      82.98       1.96       0.23       1.98       ----

> <Gold.Chemscore.Fitness>
17.3953

> <Gold.Chemscore.DG>
-19.6041

> <Gold.Chemscore.ZeroCoef>
-5.4800

> <Gold.Chemscore.Hbond>
2.8270

> <Gold.Chemscore.Metal>
0.0000

> <Gold.Chemscore.Lipo>
82.9849

> <Gold.Chemscore.Internal_Hbond>
0.0000

> <Gold.Chemscore.DEClash>
0.2266

> <Gold.Chemscore.DEInternal>
1.9822

> <Gold.Chemscore.Rot>
1.9638

> <Gold.Chemscore.Internal.Correction>
   9.000000E+99

> <Gold.Chemscore.Hbonds>
donor molecule, donor type, donor heavy atom, donor atom, acceptor molecule, acceptor atom, score
      L1  H    15    41       P1  7948  1.00
      L1  H    23    50       P1  7948  0.88
      P1  H  7989  7998       L1    25  0.84

> <Gold.Chemscore.Hbond.Weighted>
-9.4423

> <Gold.Chemscore.Metal.Weighted>
-0.0000

> <Gold.Chemscore.Lipo.Weighted>
-9.7092

> <Gold.Chemscore.Internal_Hbond.Weighted>
0.0000

> <Gold.Chemscore.DEClash.Weighted>
0.2266

> <Gold.Chemscore.DEInternal.Weighted>
1.9822

> <Gold.Chemscore.Rot.Weighted>
5.0274

> <Gold.Chemscore.Internal.Correction.Weighted>
   9.000000E+99

> <Gold.Protein.RotatedTorsions>
[ 6907 6896 6895 6894 ] final -126.39 input  -60.11 | X-H torsion
[ 7974 7965 7964 7962 ] final  -45.79 input  175.53 | X-H torsion
[ 8008 7997 7996 7995 ] final -171.82 input   59.86 | X-H torsion
[ 10167 10162 10161 10158 ] final   24.75 input  -65.29 | X-H torsion
[ 10718 10713 10712 10709 ] final  138.39 input   66.30 | X-H torsion
[ 10763 10752 10751 10750 ] final  -36.42 input  -60.55 | X-H torsion
[ 11005 11000 10999 10996 ] final  143.12 input  -57.11 | X-H torsion

> <Gold.Protein.ActiveResidues>
 VAL166  LYS551  ARG553  GLY616  TRP617  ASP618  TYR619  PRO620  LYS621  CYS622 
 ASP623  PHE694  ASN695  SER759  ASP760  ASP761  ALA762  ILE779  LEU786  VAL792 
 PHE793  MET794  SER795  GLU796  ALA797  LYS798  CYS799  TRP800  GLU811  SER814 

> <Gold.Protein.RotatedAtoms>
  150.8964  133.7175  159.2890 H   0  0  0  0  0  0  0  0  0  0  0  0  # atno 6907 bound_to 6896
  151.4709  135.1044  159.9760 H   0  0  0  0  0  0  0  0  0  0  0  0  # atno 6908 bound_to 6896
  152.4851  133.8304  159.7156 H   0  0  0  0  0  0  0  0  0  0  0  0  # atno 6909 bound_to 6896
  145.9784  140.7309  142.9375 H   0  0  0  0  0  0  0  0  0  0  0  0  # atno 7974 bound_to 7965
  155.9365  140.1101  157.1090 H   0  0  0  0  0  0  0  0  0  0  0  0  # atno 8008 bound_to 7997
  154.4081  140.1227  156.4937 H   0  0  0  0  0  0  0  0  0  0  0  0  # atno 8009 bound_to 7997
  155.7015  140.3472  155.4937 H   0  0  0  0  0  0  0  0  0  0  0  0  # atno 8010 bound_to 7997
  140.5162  144.0078  150.6395 H   0  0  0  0  0  0  0  0  0  0  0  0  # atno 10167 bound_to 10162
  157.4258  131.1043  151.0304 H   0  0  0  0  0  0  0  0  0  0  0  0  # atno 10718 bound_to 10713
  153.8794  135.6823  153.4768 H   0  0  0  0  0  0  0  0  0  0  0  0  # atno 10763 bound_to 10752
  153.1242  135.4726  154.9243 H   0  0  0  0  0  0  0  0  0  0  0  0  # atno 10764 bound_to 10752
  154.7676  135.3229  154.8207 H   0  0  0  0  0  0  0  0  0  0  0  0  # atno 10765 bound_to 10752
  140.0529  134.9246  157.1049 H   0  0  0  0  0  0  0  0  0  0  0  0  # atno 11005 bound_to 11000
  144.6855  140.2867  143.7284 LP  0  0  0  0  0  0  0  0  0  0  0  0  # atno 17320 bound_to 7965
  145.7804  139.1889  143.2161 LP  0  0  0  0  0  0  0  0  0  0  0  0  # atno 17321 bound_to 7965
  140.3415  143.3017  152.0584 LP  0  0  0  0  0  0  0  0  0  0  0  0  # atno 17342 bound_to 10162
  139.4910  144.6439  151.6819 LP  0  0  0  0  0  0  0  0  0  0  0  0  # atno 17343 bound_to 10162
  157.1218  130.6065  149.5507 LP  0  0  0  0  0  0  0  0  0  0  0  0  # atno 17370 bound_to 10713
  155.9896  130.4944  150.7221 LP  0  0  0  0  0  0  0  0  0  0  0  0  # atno 17371 bound_to 10713
  140.3889  134.2206  155.7167 LP  0  0  0  0  0  0  0  0  0  0  0  0  # atno 17394 bound_to 11000
  141.1938  133.8141  157.0781 LP  0  0  0  0  0  0  0  0  0  0  0  0  # atno 17395 bound_to 11000

$$$$
