AV-unprocessed.smi:1385|AV-procd|sdf|5635|dock2
  -GOLD-   22720 5253D 1   1.00000     0.00000
 Structure written by MMmdl.
 38 39  0  0  0  0  0  0  0  0  3 V2000
  137.3685  137.2901  155.1323 C   0  0  0  0  0  0  0  0  0  0  0  0
  138.8292  137.3268  154.8386 C   0  0  0  0  0  0  0  0  0  0  0  0
  139.7447  136.7751  155.6446 N   0  0  0  0  0  0  0  0  0  0  0  0
  141.0361  136.9375  155.1626 N   0  0  0  0  0  0  0  0  0  0  0  0
  141.0556  137.6072  154.0021 C   0  0  0  0  0  0  0  0  0  0  0  0
  142.2438  137.9172  153.2893 N   0  0  0  0  0  0  0  0  0  0  0  0
  143.2614  137.0983  152.9700 C   0  0  0  0  0  0  0  0  0  0  0  0
  143.3249  135.8993  153.2423 O   0  0  0  0  0  0  0  0  0  0  0  0
  144.2231  137.7569  152.3066 N   0  0  0  0  0  0  0  0  0  0  0  0
  145.4665  137.1660  151.8124 C   0  0  2  0  0  0  0  0  0  0  0  0
  146.1378  136.2743  152.8752 C   0  0  0  0  0  0  0  0  0  0  0  0
  146.7155  137.0995  154.0388 C   0  0  0  0  0  0  0  0  0  0  0  0
  147.6643  138.1350  153.5464 N   0  3  2  0  0  0  0  0  0  0  0  0
  148.3378  138.8777  154.6409 C   0  0  0  0  0  0  0  0  0  0  0  0
  149.7425  139.3110  154.2076 C   0  0  0  0  0  0  0  0  0  0  0  0
  150.4160  138.3243  153.5862 N   0  5  0  0  0  0  0  0  0  0  0  0
  150.1206  140.4590  154.4325 O   0  0  0  0  0  0  0  0  0  0  0  0
  147.0212  139.0456  152.5650 C   0  0  0  0  0  0  0  0  0  0  0  0
  146.4455  138.2659  151.3684 C   0  0  0  0  0  0  0  0  0  0  0  0
  139.4821  138.0957  153.3971 S   0  0  0  0  0  0  0  0  0  0  0  0
  137.1956  137.1388  156.1984 H   0  0  0  0  0  0  0  0  0  0  0  0
  136.8992  136.4748  154.5817 H   0  0  0  0  0  0  0  0  0  0  0  0
  136.9024  138.2295  154.8343 H   0  0  0  0  0  0  0  0  0  0  0  0
  142.3321  138.8788  152.9958 H   0  0  0  0  0  0  0  0  0  0  0  0
  144.0833  138.7401  152.1253 H   0  0  0  0  0  0  0  0  0  0  0  0
  145.2271  136.5551  150.9400 H   0  0  0  0  0  0  0  0  0  0  0  0
  145.4346  135.5327  153.2559 H   0  0  0  0  0  0  0  0  0  0  0  0
  146.9452  135.7092  152.4076 H   0  0  0  0  0  0  0  0  0  0  0  0
  145.9108  137.5770  154.5997 H   0  0  0  0  0  0  0  0  0  0  0  0
  147.2199  136.4251  154.7311 H   0  0  0  0  0  0  0  0  0  0  0  0
  147.7844  139.7901  154.8673 H   0  0  0  0  0  0  0  0  0  0  0  0
  148.3420  138.2832  155.5573 H   0  0  0  0  0  0  0  0  0  0  0  0
  149.8825  137.5770  153.1257 H   0  0  0  0  0  0  0  0  0  0  0  0
  146.2356  139.6182  153.0606 H   0  0  0  0  0  0  0  0  0  0  0  0
  147.7534  139.7663  152.1993 H   0  0  0  0  0  0  0  0  0  0  0  0
  147.2669  137.8099  150.8140 H   0  0  0  0  0  0  0  0  0  0  0  0
  145.9563  138.9507  150.6745 H   0  0  0  0  0  0  0  0  0  0  0  0
  148.3984  137.6500  153.0500 H   0  0  0  0  0  0  0  0  0  0  0  0
  1  2  1  0  0  0  0
  1 21  1  0  0  0  0
  1 22  1  0  0  0  0
  1 23  1  0  0  0  0
  2 20  1  0  0  0  0
  2  3  2  0  0  0  0
  3  4  1  0  0  0  0
  4  5  2  0  0  0  0
  5  6  1  0  0  0  0
  5 20  1  0  0  0  0
  6  7  1  0  0  0  0
  6 24  1  0  0  0  0
  7  8  2  0  0  0  0
  7  9  1  0  0  0  0
  9 10  1  0  0  0  0
  9 25  1  0  0  0  0
 10 19  1  0  0  0  0
 10 11  1  0  0  0  0
 10 26  1  0  0  0  0
 11 12  1  0  0  0  0
 11 27  1  0  0  0  0
 11 28  1  0  0  0  0
 12 13  1  0  0  0  0
 12 29  1  0  0  0  0
 12 30  1  0  0  0  0
 13 14  1  0  0  0  0
 13 18  1  0  0  0  0
 13 38  1  0  0  0  0
 14 15  1  0  0  0  0
 14 31  1  0  0  0  0
 14 32  1  0  0  0  0
 15 16  1  0  0  0  0
 15 17  2  0  0  0  0
 16 33  1  0  0  0  0
 18 19  1  0  0  0  0
 18 34  1  0  0  0  0
 18 35  1  0  0  0  0
 19 36  1  0  0  0  0
 19 37  1  0  0  0  0
M  CHG  1  13   1
M  CHG  1  16  -1
M  END
> <s_m_source_file>
AV-unprocessed.smi

> <i_m_source_file_index>
1385

> <i_lp_mmshare_version>
43012

> <i_f3d_flags>
0

> <s_epik_input>
W0NIM11jMW5uYyhzMSlbTkhdQyg9TylbTkhdW0NIXTJbQ0gyXVtDSDJdTihbQ0gyXVtDSDJdMilbQ0gyXUMoPU8pW05IMl0=

> <s_epik_cmdline>
J2VwaWtfcHl0aG9uJywgJy1waCcsICc3LjAnLCAnLXRuJywgJzgnLCAnLW1hJywgJzIwMCcsICctbWV0YWxfYmluZGluZycsICctaW1hZScsICc8aW5maWxlLm1hZT4nLCAnLW9tYWUnLCAnPG91dGZpbGUubWFlPic=

> <r_lp_tautomer_probability>
1

> <r_epik_Ionization_Penalty>
5.73549

> <r_epik_Ionization_Penalty_Charging>
5.73152

> <r_epik_Ionization_Penalty_Neutral>
0.00396448

> <r_epik_State_Penalty>
6.57436

> <r_epik_Charging_Adjusted_Penalty>
12.3059

> <i_epik_Tot_Q>
0

> <i_epik_Tot_abs_Q>
2

> <r_epik_Metal_State_Penalty>
2.87628

> <b_epik_Metal_Only>
1

> <s_lp_Force_Field>
OPLS_2005

> <r_lp_Energy>
6.46457

> <b_lp_Chiralities_Consistent>
1

> <s_lp_Variant>
AV-unprocessed.smi:1385-8

> <Gold.Version>
5.8.1

> <Gold.Id.Protein>
6NUR|6NUR_protein|mol2

> <Gold.PLP.Fitness>
50.5326

> <Gold.PLP.PLP>
-31.7199

> <Gold.PLP.part.hbond>
-7.9066

> <Gold.PLP.part.metal>
0.0000

> <Gold.PLP.part.buried>
1.6157

> <Gold.PLP.part.nonpolar>
-25.6596

> <Gold.PLP.part.repulsive>
0.3325

> <Gold.PLP.ligand.clash>
0.0000

> <Gold.PLP.ligand.torsion>
1.0782

> <Gold.PLP.Chemscore.Hbond>
6.9760

> <Gold.PLP.Chemscore.CHOScore>
0.0000

> <Gold.PLP.Chemscore.Metal>
0.0000

> <Gold.Chemscore.Hbonds>
donor molecule, donor type, donor heavy atom, donor atom, acceptor molecule, acceptor atom, score
      L1  H     6    24       P1 10175  0.84
      L1  H     9    25       P1 10175  1.00
      L1  H    13    38       P1  7948  2.00
      L1  H    16    33       P1  7948  1.00
      P1  H  7989  7998       L1    17  0.90
      P1  H 11000 11005       L1     3  1.00

> <Gold.PLP.Chemscore.Internal.Correction>
0.0411

> <Gold.Rescore>
     Score         DG    S(hbond)    S(metal)    S(lipo)     H(rot)  DE(clash)    DE(int)     intcor
     15.62     -21.75       4.34        0.00      59.73       2.04       3.02       3.11       ----

> <Gold.Chemscore.Fitness>
15.6153

> <Gold.Chemscore.DG>
-21.7454

> <Gold.Chemscore.ZeroCoef>
-5.4800

> <Gold.Chemscore.Hbond>
4.3389

> <Gold.Chemscore.Metal>
0.0000

> <Gold.Chemscore.Lipo>
59.7263

> <Gold.Chemscore.Internal_Hbond>
0.0000

> <Gold.Chemscore.DEClash>
3.0249

> <Gold.Chemscore.DEInternal>
3.1052

> <Gold.Chemscore.Rot>
2.0369

> <Gold.Chemscore.Internal.Correction>
   9.000000E+99

> <Gold.Chemscore.Hbonds>
donor molecule, donor type, donor heavy atom, donor atom, acceptor molecule, acceptor atom, score
      L1  H     6    24       P1 10175  0.79
      L1  H     9    25       P1 10175  0.99
      L1  H    13    38       P1  7948  0.95
      L1  H    16    33       P1  7948  0.42
      P1  H  7989  7998       L1    17  0.72
      P1  H 11000 11005       L1     3  0.29

> <Gold.Chemscore.Hbond.Weighted>
-14.4919

> <Gold.Chemscore.Metal.Weighted>
-0.0000

> <Gold.Chemscore.Lipo.Weighted>
-6.9880

> <Gold.Chemscore.Internal_Hbond.Weighted>
0.0000

> <Gold.Chemscore.DEClash.Weighted>
3.0249

> <Gold.Chemscore.DEInternal.Weighted>
3.1052

> <Gold.Chemscore.Rot.Weighted>
5.2144

> <Gold.Chemscore.Internal.Correction.Weighted>
   9.000000E+99

> <Gold.Protein.RotatedTorsions>
[ 6907 6896 6895 6894 ] final   -5.99 input  -60.11 | X-H torsion
[ 7974 7965 7964 7962 ] final   -6.47 input  175.53 | X-H torsion
[ 8008 7997 7996 7995 ] final  101.23 input   59.86 | X-H torsion
[ 10167 10162 10161 10158 ] final  -66.34 input  -65.29 | X-H torsion
[ 10718 10713 10712 10709 ] final  -92.61 input   66.30 | X-H torsion
[ 10763 10752 10751 10750 ] final  -18.45 input  -60.55 | X-H torsion
[ 11005 11000 10999 10996 ] final   99.97 input  -57.11 | X-H torsion

> <Gold.Protein.ActiveResidues>
 VAL166  LYS551  ARG553  GLY616  TRP617  ASP618  TYR619  PRO620  LYS621  CYS622 
 ASP623  PHE694  ASN695  SER759  ASP760  ASP761  ALA762  ILE779  LEU786  VAL792 
 PHE793  MET794  SER795  GLU796  ALA797  LYS798  CYS799  TRP800  GLU811  SER814 

> <Gold.Protein.RotatedAtoms>
  151.4727  135.1047  159.9755 H   0  0  0  0  0  0  0  0  0  0  0  0  # atno 6907 bound_to 6896
  152.4810  133.8251  159.7084 H   0  0  0  0  0  0  0  0  0  0  0  0  # atno 6908 bound_to 6896
  150.8882  133.7218  159.2939 H   0  0  0  0  0  0  0  0  0  0  0  0  # atno 6909 bound_to 6896
  146.2330  140.2174  142.8336 H   0  0  0  0  0  0  0  0  0  0  0  0  # atno 7974 bound_to 7965
  156.1279  140.3201  155.8305 H   0  0  0  0  0  0  0  0  0  0  0  0  # atno 8008 bound_to 7997
  155.4386  140.0524  157.3029 H   0  0  0  0  0  0  0  0  0  0  0  0  # atno 8009 bound_to 7997
  154.4877  140.2079  155.9632 H   0  0  0  0  0  0  0  0  0  0  0  0  # atno 8010 bound_to 7997
  140.5664  143.2315  151.6627 H   0  0  0  0  0  0  0  0  0  0  0  0  # atno 10167 bound_to 10162
  156.0004  130.4994  150.5652 H   0  0  0  0  0  0  0  0  0  0  0  0  # atno 10718 bound_to 10713
  153.5895  135.7003  153.5429 H   0  0  0  0  0  0  0  0  0  0  0  0  # atno 10763 bound_to 10752
  153.3190  135.4079  155.1401 H   0  0  0  0  0  0  0  0  0  0  0  0  # atno 10764 bound_to 10752
  154.8603  135.3691  154.5426 H   0  0  0  0  0  0  0  0  0  0  0  0  # atno 10765 bound_to 10752
  139.8771  134.9119  156.4686 H   0  0  0  0  0  0  0  0  0  0  0  0  # atno 11005 bound_to 11000
  144.9658  140.8320  143.5485 LP  0  0  0  0  0  0  0  0  0  0  0  0  # atno 17320 bound_to 7965
  145.2150  139.2186  143.5123 LP  0  0  0  0  0  0  0  0  0  0  0  0  # atno 17321 bound_to 7965
  139.5095  144.3575  152.0594 LP  0  0  0  0  0  0  0  0  0  0  0  0  # atno 17342 bound_to 10162
  140.2707  144.3967  150.6152 LP  0  0  0  0  0  0  0  0  0  0  0  0  # atno 17343 bound_to 10162
  157.3555  131.0741  151.1679 LP  0  0  0  0  0  0  0  0  0  0  0  0  # atno 17370 bound_to 10713
  157.2481  130.6601  149.5919 LP  0  0  0  0  0  0  0  0  0  0  0  0  # atno 17371 bound_to 10713
  140.8812  133.7916  155.9469 LP  0  0  0  0  0  0  0  0  0  0  0  0  # atno 17394 bound_to 11000
  140.8852  134.2563  157.5123 LP  0  0  0  0  0  0  0  0  0  0  0  0  # atno 17395 bound_to 11000

$$$$
