AV-unprocessed.smi:1880|AV-procd|sdf|7636|dock8
  -GOLD-   22720 9363D 1   1.00000     0.00000
 Structure written by MMmdl.
 36 38  0  0  0  0  0  0  0  0  1 V2000
  144.5303  138.2627  152.6818 O   0  0  0  0  0  0  0  0  0  0  0  0
  145.7915  137.7328  153.0409 C   0  0  1  0  0  0  0  0  0  0  0  0
  145.8525  136.2697  152.5758 C   0  0  0  0  0  0  0  0  0  0  0  0
  145.7478  136.2292  151.1623 O   0  0  0  0  0  0  0  0  0  0  0  0
  144.6341  135.4734  150.7188 C   0  0  0  0  0  0  0  0  0  0  0  0
  145.0553  134.0435  150.7368 C   0  0  0  0  0  0  0  0  0  0  0  0
  144.4044  132.8676  150.4844 C   0  0  0  0  0  0  0  0  0  0  0  0
  145.3612  131.8318  150.6700 C   0  0  0  0  0  0  0  0  0  0  0  0
  146.5253  132.4537  151.0220 C   0  0  0  0  0  0  0  0  0  0  0  0
  146.3557  133.8034  151.0670 O   0  0  0  0  0  0  0  0  0  0  0  0
  146.8991  138.5878  152.3949 C   0  0  0  0  0  0  0  0  0  0  0  0
  147.4045  139.6140  153.2898 N   0  0  0  0  0  0  0  0  0  0  0  0
  146.7656  140.7342  153.6781 C   0  0  0  0  0  0  0  0  0  0  0  0
  147.4111  141.5474  154.5092 N   0  0  0  0  0  0  0  0  0  0  0  0
  148.6104  140.8773  154.6804 C   0  0  0  0  0  0  0  0  0  0  0  0
  149.7457  141.2121  155.4524 C   0  0  0  0  0  0  0  0  0  0  0  0
  150.8719  140.3631  155.4734 C   0  0  0  0  0  0  0  0  0  0  0  0
  151.9515  140.6989  156.2187 F   0  0  0  0  0  0  0  0  0  0  0  0
  150.8798  139.1681  154.7235 C   0  0  0  0  0  0  0  0  0  0  0  0
  151.9653  138.3591  154.7489 F   0  0  0  0  0  0  0  0  0  0  0  0
  149.7597  138.8132  153.9475 C   0  0  0  0  0  0  0  0  0  0  0  0
  148.6383  139.6630  153.9301 C   0  0  0  0  0  0  0  0  0  0  0  0
  144.3524  138.0254  151.7842 H   0  0  0  0  0  0  0  0  0  0  0  0
  145.8979  137.7761  154.1258 H   0  0  0  0  0  0  0  0  0  0  0  0
  146.7652  135.7819  152.9233 H   0  0  0  0  0  0  0  0  0  0  0  0
  145.0110  135.7162  152.9959 H   0  0  0  0  0  0  0  0  0  0  0  0
  143.7772  135.6268  151.3765 H   0  0  0  0  0  0  0  0  0  0  0  0
  144.3433  135.7695  149.7100 H   0  0  0  0  0  0  0  0  0  0  0  0
  143.3677  132.7661  150.1998 H   0  0  0  0  0  0  0  0  0  0  0  0
  145.2165  130.7672  150.5594 H   0  0  0  0  0  0  0  0  0  0  0  0
  147.5187  132.1050  151.2629 H   0  0  0  0  0  0  0  0  0  0  0  0
  147.7375  137.9559  152.0990 H   0  0  0  0  0  0  0  0  0  0  0  0
  146.5340  139.0646  151.4842 H   0  0  0  0  0  0  0  0  0  0  0  0
  145.7696  140.9658  153.3297 H   0  0  0  0  0  0  0  0  0  0  0  0
  149.7510  142.1245  156.0300 H   0  0  0  0  0  0  0  0  0  0  0  0
  149.7636  137.9006  153.3704 H   0  0  0  0  0  0  0  0  0  0  0  0
  1  2  1  0  0  0  0
  1 23  1  0  0  0  0
  2  3  1  0  0  0  0
  2 11  1  0  0  0  0
  2 24  1  0  0  0  0
  3  4  1  0  0  0  0
  3 25  1  0  0  0  0
  3 26  1  0  0  0  0
  4  5  1  0  0  0  0
  5  6  1  0  0  0  0
  5 27  1  0  0  0  0
  5 28  1  0  0  0  0
  6 10  1  0  0  0  0
  6  7  2  0  0  0  0
  7  8  1  0  0  0  0
  7 29  1  0  0  0  0
  8  9  2  0  0  0  0
  8 30  1  0  0  0  0
  9 10  1  0  0  0  0
  9 31  1  0  0  0  0
 11 12  1  0  0  0  0
 11 32  1  0  0  0  0
 11 33  1  0  0  0  0
 12 22  1  0  0  0  0
 12 13  1  0  0  0  0
 13 14  2  0  0  0  0
 13 34  1  0  0  0  0
 14 15  1  0  0  0  0
 15 22  2  0  0  0  0
 15 16  1  0  0  0  0
 16 17  2  0  0  0  0
 16 35  1  0  0  0  0
 17 18  1  0  0  0  0
 17 19  1  0  0  0  0
 19 20  1  0  0  0  0
 19 21  2  0  0  0  0
 21 22  1  0  0  0  0
 21 36  1  0  0  0  0
M  END
> <s_m_source_file>
AV-unprocessed.smi

> <i_m_source_file_index>
1880

> <i_lp_mmshare_version>
43012

> <i_f3d_flags>
0

> <s_epik_input>
W2NIXTFjKEYpYyhGKVtjSF1jKGMxMiluKFtjSF1uMilbQ0gyXVtDQEhdKFtPSF0pW0NIMl1PW0NIMl1jM1tjSF1bY0hdW2NIXW8z

> <s_epik_cmdline>
J2VwaWtfcHl0aG9uJywgJy1waCcsICc3LjAnLCAnLXRuJywgJzgnLCAnLW1hJywgJzIwMCcsICctbWV0YWxfYmluZGluZycsICctaW1hZScsICc8aW5maWxlLm1hZT4nLCAnLW9tYWUnLCAnPG91dGZpbGUubWFlPic=

> <r_epik_Ionization_Penalty>
0.0152348

> <r_epik_Ionization_Penalty_Charging>
0

> <r_epik_Ionization_Penalty_Neutral>
0.0152348

> <r_epik_State_Penalty>
0.0119607

> <r_epik_Charging_Adjusted_Penalty>
0.0119607

> <i_epik_Tot_Q>
0

> <i_epik_Tot_abs_Q>
0

> <r_epik_Metal_State_Penalty>
1.20821e-05

> <b_epik_Metal_Only>
0

> <s_lp_Force_Field>
OPLS_2005

> <r_lp_Energy>
7.94545

> <b_lp_Chiralities_Consistent>
1

> <s_lp_Variant>
AV-unprocessed.smi:1880-2

> <Gold.Version>
5.8.1

> <Gold.Id.Protein>
6NUR|6NUR_protein|mol2

> <Gold.PLP.Fitness>
49.2075

> <Gold.PLP.PLP>
-42.3771

> <Gold.PLP.part.hbond>
-0.7399

> <Gold.PLP.part.metal>
0.0000

> <Gold.PLP.part.buried>
-2.6110

> <Gold.PLP.part.nonpolar>
-39.8666

> <Gold.PLP.part.repulsive>
0.5721

> <Gold.PLP.ligand.clash>
0.0000

> <Gold.PLP.ligand.torsion>
1.1071

> <Gold.PLP.Chemscore.Hbond>
1.0000

> <Gold.PLP.Chemscore.CHOScore>
2.0000

> <Gold.PLP.Chemscore.Metal>
0.0000

> <Gold.Chemscore.Hbonds>
donor molecule, donor type, donor heavy atom, donor atom, acceptor molecule, acceptor atom, score
      L1  H     1    23       P1 10171  0.82
      L1  C     9    31       P1 10747  1.00
      L1  C    13    34       P1 10175  1.00

> <Gold.PLP.Chemscore.Internal.Correction>
0.0446

> <Gold.Rescore>
     Score         DG    S(hbond)    S(metal)    S(lipo)     H(rot)  DE(clash)    DE(int)     intcor
     10.27     -12.97       1.00        0.00      98.00       2.85       0.53       2.17       ----

> <Gold.Chemscore.Fitness>
10.2714

> <Gold.Chemscore.DG>
-12.9737

> <Gold.Chemscore.ZeroCoef>
-5.4800

> <Gold.Chemscore.Hbond>
0.9965

> <Gold.Chemscore.Metal>
0.0000

> <Gold.Chemscore.Lipo>
97.9976

> <Gold.Chemscore.Internal_Hbond>
0.0000

> <Gold.Chemscore.DEClash>
0.5299

> <Gold.Chemscore.DEInternal>
2.1724

> <Gold.Chemscore.Rot>
2.8518

> <Gold.Chemscore.Internal.Correction>
   9.000000E+99

> <Gold.Chemscore.Hbonds>
donor molecule, donor type, donor heavy atom, donor atom, acceptor molecule, acceptor atom, score
      L1  H     1    23       P1 10171  0.75

> <Gold.Chemscore.Hbond.Weighted>
-3.3284

> <Gold.Chemscore.Metal.Weighted>
-0.0000

> <Gold.Chemscore.Lipo.Weighted>
-11.4657

> <Gold.Chemscore.Internal_Hbond.Weighted>
0.0000

> <Gold.Chemscore.DEClash.Weighted>
0.5299

> <Gold.Chemscore.DEInternal.Weighted>
2.1724

> <Gold.Chemscore.Rot.Weighted>
7.3005

> <Gold.Chemscore.Internal.Correction.Weighted>
   9.000000E+99

> <Gold.Protein.RotatedTorsions>
[ 6907 6896 6895 6894 ] final  -85.10 input  -60.11 | X-H torsion
[ 7974 7965 7964 7962 ] final  -88.29 input  175.53 | X-H torsion
[ 8008 7997 7996 7995 ] final -101.19 input   59.86 | X-H torsion
[ 10167 10162 10161 10158 ] final   11.35 input  -65.29 | X-H torsion
[ 10718 10713 10712 10709 ] final  -78.37 input   66.30 | X-H torsion
[ 10763 10752 10751 10750 ] final  -82.32 input  -60.55 | X-H torsion
[ 11005 11000 10999 10996 ] final   51.39 input  -57.11 | X-H torsion

> <Gold.Protein.ActiveResidues>
 VAL166  LYS551  ARG553  GLY616  TRP617  ASP618  TYR619  PRO620  LYS621  CYS622 
 ASP623  PHE694  ASN695  SER759  ASP760  ASP761  ALA762  ILE779  LEU786  VAL792 
 PHE793  MET794  SER795  GLU796  ALA797  LYS798  CYS799  TRP800  GLU811  SER814 

> <Gold.Protein.RotatedAtoms>
  150.6872  134.3256  159.4805 H   0  0  0  0  0  0  0  0  0  0  0  0  # atno 6907 bound_to 6896
  152.1127  134.9260  160.0575 H   0  0  0  0  0  0  0  0  0  0  0  0  # atno 6908 bound_to 6896
  152.0496  133.3978  159.4408 H   0  0  0  0  0  0  0  0  0  0  0  0  # atno 6909 bound_to 6896
  145.4552  140.9561  143.2000 H   0  0  0  0  0  0  0  0  0  0  0  0  # atno 7974 bound_to 7965
  154.8391  140.0436  157.1529 H   0  0  0  0  0  0  0  0  0  0  0  0  # atno 8008 bound_to 7997
  154.9067  140.3008  155.5268 H   0  0  0  0  0  0  0  0  0  0  0  0  # atno 8009 bound_to 7997
  156.2991  140.2366  156.4101 H   0  0  0  0  0  0  0  0  0  0  0  0  # atno 8010 bound_to 7997
  140.6137  143.8353  150.7094 H   0  0  0  0  0  0  0  0  0  0  0  0  # atno 10167 bound_to 10162
  156.0119  130.4516  150.3486 H   0  0  0  0  0  0  0  0  0  0  0  0  # atno 10718 bound_to 10713
  154.5743  135.5595  153.7125 H   0  0  0  0  0  0  0  0  0  0  0  0  # atno 10763 bound_to 10752
  153.0059  135.6304  154.2070 H   0  0  0  0  0  0  0  0  0  0  0  0  # atno 10764 bound_to 10752
  154.2010  135.2878  155.2970 H   0  0  0  0  0  0  0  0  0  0  0  0  # atno 10765 bound_to 10752
  140.0936  134.5175  155.8828 H   0  0  0  0  0  0  0  0  0  0  0  0  # atno 11005 bound_to 11000
  144.8037  139.6092  143.7060 LP  0  0  0  0  0  0  0  0  0  0  0  0  # atno 17320 bound_to 7965
  146.2482  139.6143  142.9445 LP  0  0  0  0  0  0  0  0  0  0  0  0  # atno 17321 bound_to 7965
  140.1928  143.4023  152.1850 LP  0  0  0  0  0  0  0  0  0  0  0  0  # atno 17342 bound_to 10162
  139.5381  144.7230  151.4824 LP  0  0  0  0  0  0  0  0  0  0  0  0  # atno 17343 bound_to 10162
  157.1579  131.0337  151.2854 LP  0  0  0  0  0  0  0  0  0  0  0  0  # atno 17370 bound_to 10713
  157.4336  130.7504  149.7010 LP  0  0  0  0  0  0  0  0  0  0  0  0  # atno 17371 bound_to 10713
  141.2085  133.6675  156.6378 LP  0  0  0  0  0  0  0  0  0  0  0  0  # atno 17394 bound_to 11000
  140.3317  134.7923  157.4331 LP  0  0  0  0  0  0  0  0  0  0  0  0  # atno 17395 bound_to 11000

$$$$
