AV-unprocessed.smi:247|AV-procd|sdf|1889|dock9
  -GOLD-   2262020553D 1   1.00000     0.00000
 Structure written by MMmdl.
 61 65  0  0  0  0  0  0  0  0  1 V2000
  145.6427  136.5018  149.9190 O   0  0  0  0  0  0  0  0  0  0  0  0
  145.3002  135.9831  151.1892 C   0  0  0  0  0  0  0  0  0  0  0  0
  145.0684  134.4460  151.1878 C   0  0  0  0  0  0  0  0  0  0  0  0
  144.7043  133.9950  152.6380 C   0  0  0  0  0  0  0  0  0  0  0  0
  145.5415  134.5564  153.6890 N   0  0  0  0  0  0  0  0  0  0  0  0
  146.5604  133.9199  154.3621 C   0  0  0  0  0  0  0  0  0  0  0  0
  147.1675  134.6402  155.2651 N   0  0  0  0  0  0  0  0  0  0  0  0
  146.5355  135.8755  155.1951 C   0  0  0  0  0  0  0  0  0  0  0  0
  146.6865  137.1059  155.8929 C   0  0  0  0  0  0  0  0  0  0  0  0
  147.6152  137.2768  156.8668 N   0  0  0  0  0  0  0  0  0  0  0  0
  147.3718  136.5296  158.0899 C   0  0  0  0  0  0  0  0  0  0  0  0
  148.6613  136.6582  158.8918 C   0  0  0  0  0  0  0  0  0  0  0  0
  149.7396  136.6801  157.8106 C   0  0  0  0  0  0  0  0  0  0  0  0
  149.0528  137.2842  156.5696 C   0  0  2  0  0  0  0  0  0  0  0  0
  149.5888  138.6949  156.1901 C   0  0  2  0  0  0  0  0  0  0  0  0
  150.9190  138.6416  155.3995 C   0  0  0  0  0  0  0  0  0  0  0  0
  151.3290  139.9480  155.0108 O   0  0  0  0  0  0  0  0  0  0  0  0
  151.5924  140.8009  156.1177 C   0  0  0  0  0  0  0  0  0  0  0  0
  150.3032  141.0044  156.9246 C   0  0  0  0  0  0  0  0  0  0  0  0
  149.7476  139.6529  157.3929 C   0  0  1  0  0  0  0  0  0  0  0  0
  148.5036  139.8771  158.0260 O   0  0  0  0  0  0  0  0  0  0  0  0
  145.8590  138.1270  155.5465 N   0  0  0  0  0  0  0  0  0  0  0  0
  144.9454  137.9602  154.5864 C   0  0  0  0  0  0  0  0  0  0  0  0
  144.6914  136.8723  153.8575 N   0  0  0  0  0  0  0  0  0  0  0  0
  145.5155  135.8420  154.2030 C   0  0  0  0  0  0  0  0  0  0  0  0
  143.9551  134.0841  150.1705 C   0  0  0  0  0  0  0  0  0  0  0  0
  143.8359  132.5657  149.9479 C   0  0  0  0  0  0  0  0  0  0  0  0
  145.0850  132.0416  149.5140 O   0  0  0  0  0  0  0  0  0  0  0  0
  146.1240  132.2113  150.4707 C   0  0  0  0  0  0  0  0  0  0  0  0
  146.3583  133.7099  150.7418 C   0  0  0  0  0  0  0  0  0  0  0  0
  145.6131  135.7977  149.2892 H   0  0  0  0  0  0  0  0  0  0  0  0
  146.0969  136.2457  151.8856 H   0  0  0  0  0  0  0  0  0  0  0  0
  144.4048  136.5100  151.5189 H   0  0  0  0  0  0  0  0  0  0  0  0
  143.6728  134.2398  152.8852 H   0  0  0  0  0  0  0  0  0  0  0  0
  144.7654  132.9083  152.7098 H   0  0  0  0  0  0  0  0  0  0  0  0
  146.8361  132.8937  154.1676 H   0  0  0  0  0  0  0  0  0  0  0  0
  146.5213  136.9221  158.6473 H   0  0  0  0  0  0  0  0  0  0  0  0
  147.1717  135.4844  157.8485 H   0  0  0  0  0  0  0  0  0  0  0  0
  148.6635  137.6019  159.4383 H   0  0  0  0  0  0  0  0  0  0  0  0
  148.7944  135.8514  159.6126 H   0  0  0  0  0  0  0  0  0  0  0  0
  150.6339  137.2197  158.1237 H   0  0  0  0  0  0  0  0  0  0  0  0
  150.0444  135.6567  157.5886 H   0  0  0  0  0  0  0  0  0  0  0  0
  149.2733  136.6070  155.7447 H   0  0  0  0  0  0  0  0  0  0  0  0
  148.8466  139.1453  155.5285 H   0  0  0  0  0  0  0  0  0  0  0  0
  151.7107  138.1706  155.9848 H   0  0  0  0  0  0  0  0  0  0  0  0
  150.8031  138.0484  154.4930 H   0  0  0  0  0  0  0  0  0  0  0  0
  152.3821  140.3781  156.7411 H   0  0  0  0  0  0  0  0  0  0  0  0
  151.9577  141.7583  155.7458 H   0  0  0  0  0  0  0  0  0  0  0  0
  150.4954  141.6524  157.7806 H   0  0  0  0  0  0  0  0  0  0  0  0
  149.5674  141.5163  156.3024 H   0  0  0  0  0  0  0  0  0  0  0  0
  150.4368  139.2297  158.1237 H   0  0  0  0  0  0  0  0  0  0  0  0
  148.2213  140.7567  157.8257 H   0  0  0  0  0  0  0  0  0  0  0  0
  144.3280  138.8206  154.3738 H   0  0  0  0  0  0  0  0  0  0  0  0
  142.9944  134.5004  150.4711 H   0  0  0  0  0  0  0  0  0  0  0  0
  144.1767  134.5377  149.2041 H   0  0  0  0  0  0  0  0  0  0  0  0
  143.5012  132.0504  150.8484 H   0  0  0  0  0  0  0  0  0  0  0  0
  143.0904  132.3625  149.1793 H   0  0  0  0  0  0  0  0  0  0  0  0
  145.8873  131.6659  151.3844 H   0  0  0  0  0  0  0  0  0  0  0  0
  147.0347  131.7628  150.0733 H   0  0  0  0  0  0  0  0  0  0  0  0
  146.7437  134.1482  149.8209 H   0  0  0  0  0  0  0  0  0  0  0  0
  147.1464  133.8359  151.4850 H   0  0  0  0  0  0  0  0  0  0  0  0
  1  2  1  0  0  0  0
  1 31  1  0  0  0  0
  2  3  1  0  0  0  0
  2 32  1  0  0  0  0
  2 33  1  0  0  0  0
  3 30  1  0  0  0  0
  3  4  1  0  0  0  0
  3 26  1  0  0  0  0
  4  5  1  0  0  0  0
  4 34  1  0  0  0  0
  4 35  1  0  0  0  0
  5 25  1  0  0  0  0
  5  6  1  0  0  0  0
  6  7  2  0  0  0  0
  6 36  1  0  0  0  0
  7  8  1  0  0  0  0
  8 25  2  0  0  0  0
  8  9  1  0  0  0  0
  9 10  1  0  0  0  0
  9 22  2  0  0  0  0
 10 14  1  0  0  0  0
 10 11  1  0  0  0  0
 11 12  1  0  0  0  0
 11 37  1  0  0  0  0
 11 38  1  0  0  0  0
 12 13  1  0  0  0  0
 12 39  1  0  0  0  0
 12 40  1  0  0  0  0
 13 14  1  0  0  0  0
 13 41  1  0  0  0  0
 13 42  1  0  0  0  0
 14 15  1  0  0  0  0
 14 43  1  0  0  0  0
 15 20  1  0  0  0  0
 15 16  1  0  0  0  0
 15 44  1  0  0  0  0
 16 17  1  0  0  0  0
 16 45  1  0  0  0  0
 16 46  1  0  0  0  0
 17 18  1  0  0  0  0
 18 19  1  0  0  0  0
 18 47  1  0  0  0  0
 18 48  1  0  0  0  0
 19 20  1  0  0  0  0
 19 49  1  0  0  0  0
 19 50  1  0  0  0  0
 20 21  1  0  0  0  0
 20 51  1  0  0  0  0
 21 52  1  0  0  0  0
 22 23  1  0  0  0  0
 23 24  2  0  0  0  0
 23 53  1  0  0  0  0
 24 25  1  0  0  0  0
 26 27  1  0  0  0  0
 26 54  1  0  0  0  0
 26 55  1  0  0  0  0
 27 28  1  0  0  0  0
 27 56  1  0  0  0  0
 27 57  1  0  0  0  0
 28 29  1  0  0  0  0
 29 30  1  0  0  0  0
 29 58  1  0  0  0  0
 29 59  1  0  0  0  0
 30 60  1  0  0  0  0
 30 61  1  0  0  0  0
M  END
> <s_m_source_file>
AV-unprocessed.smi

> <i_m_source_file_index>
247

> <i_lp_mmshare_version>
43012

> <i_f3d_flags>
0

> <s_epik_input>
W0NIMl0xW0NIMl1PW0NIMl1bQ0gyXUMxKFtDSDJdW09IXSlbQ0gyXW4oW2NIXW4yKWMoYzIzKW5bY0hdbmMzTjRbQ0gyXVtDSDJdW0NIMl1bQ0BIXTRbQ0BASF01W0NIMl1PW0NIMl1bQ0gyXVtDQEhdNVtPSF0=

> <s_epik_cmdline>
J2VwaWtfcHl0aG9uJywgJy1waCcsICc3LjAnLCAnLXRuJywgJzgnLCAnLW1hJywgJzIwMCcsICctbWV0YWxfYmluZGluZycsICctaW1hZScsICc8aW5maWxlLm1hZT4nLCAnLW9tYWUnLCAnPG91dGZpbGUubWFlPic=

> <r_lp_tautomer_probability>
1

> <r_epik_Ionization_Penalty>
0.00362597

> <r_epik_Ionization_Penalty_Charging>
0

> <r_epik_Ionization_Penalty_Neutral>
0.00362597

> <r_epik_State_Penalty>
0.00241433

> <r_epik_Charging_Adjusted_Penalty>
0.00241433

> <i_epik_Tot_Q>
0

> <i_epik_Tot_abs_Q>
0

> <r_epik_Metal_State_Penalty>
-0

> <b_epik_Metal_Only>
0

> <s_lp_Force_Field>
OPLS_2005

> <r_lp_Energy>
60.2507

> <b_lp_Chiralities_Consistent>
1

> <s_lp_Variant>
AV-unprocessed.smi:247-2

> <Gold.Version>
5.8.1

> <Gold.Id.Protein>
6NUR|6NUR_protein|mol2

> <Gold.PLP.Fitness>
39.6307

> <Gold.PLP.PLP>
-31.9312

> <Gold.PLP.part.hbond>
-3.8346

> <Gold.PLP.part.metal>
0.0000

> <Gold.PLP.part.buried>
-4.9585

> <Gold.PLP.part.nonpolar>
-22.5990

> <Gold.PLP.part.repulsive>
0.3698

> <Gold.PLP.ligand.clash>
0.0000

> <Gold.PLP.ligand.torsion>
0.8083

> <Gold.PLP.Chemscore.Hbond>
2.0000

> <Gold.PLP.Chemscore.CHOScore>
1.0000

> <Gold.PLP.Chemscore.Metal>
0.0000

> <Gold.Chemscore.Hbonds>
donor molecule, donor type, donor heavy atom, donor atom, acceptor molecule, acceptor atom, score
      L1  H     1    31       P1  7921  1.00
      P1  H  7989  7998       L1    17  1.00
      L1  C    23    53       P1 10175  0.86

> <Gold.PLP.Chemscore.Internal.Correction>
0.3160

> <Gold.Rescore>
     Score         DG    S(hbond)    S(metal)    S(lipo)     H(rot)  DE(clash)    DE(int)     intcor
      9.93     -13.22       1.92        0.00      81.86       3.23       0.47       2.83       ----

> <Gold.Chemscore.Fitness>
9.9251

> <Gold.Chemscore.DG>
-13.2237

> <Gold.Chemscore.ZeroCoef>
-5.4800

> <Gold.Chemscore.Hbond>
1.9248

> <Gold.Chemscore.Metal>
0.0000

> <Gold.Chemscore.Lipo>
81.8642

> <Gold.Chemscore.Internal_Hbond>
0.0000

> <Gold.Chemscore.DEClash>
0.4693

> <Gold.Chemscore.DEInternal>
2.8293

> <Gold.Chemscore.Rot>
3.2278

> <Gold.Chemscore.Internal.Correction>
   9.000000E+99

> <Gold.Chemscore.Hbonds>
donor molecule, donor type, donor heavy atom, donor atom, acceptor molecule, acceptor atom, score
      L1  H     1    31       P1  7921  0.96
      P1  H  7989  7998       L1    17  0.65

> <Gold.Chemscore.Hbond.Weighted>
-6.4289

> <Gold.Chemscore.Metal.Weighted>
-0.0000

> <Gold.Chemscore.Lipo.Weighted>
-9.5781

> <Gold.Chemscore.Internal_Hbond.Weighted>
0.0000

> <Gold.Chemscore.DEClash.Weighted>
0.4693

> <Gold.Chemscore.DEInternal.Weighted>
2.8293

> <Gold.Chemscore.Rot.Weighted>
8.2633

> <Gold.Chemscore.Internal.Correction.Weighted>
   9.000000E+99

> <Gold.Protein.RotatedTorsions>
[ 6907 6896 6895 6894 ] final   74.10 input  -60.11 | X-H torsion
[ 7974 7965 7964 7962 ] final  132.31 input  175.53 | X-H torsion
[ 8008 7997 7996 7995 ] final   88.28 input   59.86 | X-H torsion
[ 10167 10162 10161 10158 ] final  -46.16 input  -65.29 | X-H torsion
[ 10718 10713 10712 10709 ] final  -98.59 input   66.30 | X-H torsion
[ 10763 10752 10751 10750 ] final -166.82 input  -60.55 | X-H torsion
[ 11005 11000 10999 10996 ] final  -20.17 input  -57.11 | X-H torsion

> <Gold.Protein.ActiveResidues>
 VAL166  LYS551  ARG553  GLY616  TRP617  ASP618  TYR619  PRO620  LYS621  CYS622 
 ASP623  PHE694  ASN695  SER759  ASP760  ASP761  ALA762  ILE779  LEU786  VAL792 
 PHE793  MET794  SER795  GLU796  ALA797  LYS798  CYS799  TRP800  GLU811  SER814 

> <Gold.Protein.RotatedAtoms>
  152.4958  134.4321  159.9515 H   0  0  0  0  0  0  0  0  0  0  0  0  # atno 6907 bound_to 6896
  151.4300  133.3667  159.2775 H   0  0  0  0  0  0  0  0  0  0  0  0  # atno 6908 bound_to 6896
  150.9161  134.8602  159.7517 H   0  0  0  0  0  0  0  0  0  0  0  0  # atno 6909 bound_to 6896
  144.9981  139.4339  143.5306 H   0  0  0  0  0  0  0  0  0  0  0  0  # atno 7974 bound_to 7965
  155.9858  140.3373  155.6706 H   0  0  0  0  0  0  0  0  0  0  0  0  # atno 8008 bound_to 7997
  155.6487  140.0703  157.2612 H   0  0  0  0  0  0  0  0  0  0  0  0  # atno 8009 bound_to 7997
  154.4205  140.1729  156.1639 H   0  0  0  0  0  0  0  0  0  0  0  0  # atno 8010 bound_to 7997
  140.6829  143.2844  151.3743 H   0  0  0  0  0  0  0  0  0  0  0  0  # atno 10167 bound_to 10162
  156.0111  130.5245  150.6545 H   0  0  0  0  0  0  0  0  0  0  0  0  # atno 10718 bound_to 10713
  154.6794  135.2952  154.9633 H   0  0  0  0  0  0  0  0  0  0  0  0  # atno 10763 bound_to 10752
  154.0633  135.6628  153.4818 H   0  0  0  0  0  0  0  0  0  0  0  0  # atno 10764 bound_to 10752
  153.0538  135.5157  154.7830 H   0  0  0  0  0  0  0  0  0  0  0  0  # atno 10765 bound_to 10752
  140.8438  133.7906  155.9890 H   0  0  0  0  0  0  0  0  0  0  0  0  # atno 11005 bound_to 11000
  146.3446  139.9354  142.8748 LP  0  0  0  0  0  0  0  0  0  0  0  0  # atno 17320 bound_to 7965
  145.2191  140.9927  143.4056 LP  0  0  0  0  0  0  0  0  0  0  0  0  # atno 17321 bound_to 7965
  139.6164  144.0994  152.2349 LP  0  0  0  0  0  0  0  0  0  0  0  0  # atno 17342 bound_to 10162
  140.0425  144.5996  150.7400 LP  0  0  0  0  0  0  0  0  0  0  0  0  # atno 17343 bound_to 10162
  157.4300  131.0848  151.1048 LP  0  0  0  0  0  0  0  0  0  0  0  0  # atno 17370 bound_to 10713
  157.1623  130.6231  149.5614 LP  0  0  0  0  0  0  0  0  0  0  0  0  # atno 17371 bound_to 10713
  140.8866  134.2547  157.5117 LP  0  0  0  0  0  0  0  0  0  0  0  0  # atno 17394 bound_to 11000
  139.8703  134.9641  156.4483 LP  0  0  0  0  0  0  0  0  0  0  0  0  # atno 17395 bound_to 11000

$$$$
