AV-unprocessed.smi:557|AV-procd|sdf|2915|dock4
  -GOLD-   2262023403D 1   1.00000     0.00000
 Structure written by MMmdl.
 47 49  0  0  0  0  0  0  0  0  2 V2000
  152.1504  138.3157  154.4552 C   0  0  0  0  0  0  0  0  0  0  0  0
  150.8827  139.0132  154.4752 N   0  0  0  0  0  0  0  0  0  0  0  0
  149.6187  138.5089  154.2562 C   0  0  0  0  0  0  0  0  0  0  0  0
  148.7369  139.5453  154.3814 C   0  0  0  0  0  0  0  0  0  0  0  0
  147.2410  139.5324  154.2362 C   0  0  0  0  0  0  0  0  0  0  0  0
  146.8201  139.3764  152.7689 C   0  0  0  0  0  0  0  0  0  0  0  0
  146.8399  137.9701  152.3755 N   0  0  0  0  0  0  0  0  0  0  0  0
  145.7922  137.1323  152.2985 C   0  0  0  0  0  0  0  0  0  0  0  0
  144.6492  137.4920  152.5732 O   0  0  0  0  0  0  0  0  0  0  0  0
  146.1020  135.8850  151.9061 N   0  0  0  0  0  0  0  0  0  0  0  0
  145.1486  134.7916  151.7455 C   0  0  1  0  0  0  0  0  0  0  0  0
  144.4434  134.8099  150.3777 C   0  0  0  0  0  0  0  0  0  0  0  0
  144.3061  133.3304  149.9682 C   0  0  0  0  0  0  0  0  0  0  0  0
  144.8216  132.5578  151.1142 N   0  3  1  0  0  0  0  0  0  0  0  0
  145.3243  131.1948  150.8364 C   0  0  0  0  0  0  0  0  0  0  0  0
  145.7332  130.5239  152.1631 C   0  0  0  0  0  0  0  0  0  0  0  0
  146.7229  131.3955  152.9630 C   0  0  0  0  0  0  0  0  0  0  0  0
  146.1872  132.8295  153.1380 C   0  0  0  0  0  0  0  0  0  0  0  0
  145.8234  133.4171  151.7636 C   0  0  2  0  0  0  0  0  0  0  0  0
  149.5742  140.6568  154.6840 C   0  0  0  0  0  0  0  0  0  0  0  0
  150.8565  140.3358  154.7378 N   0  0  0  0  0  0  0  0  0  0  0  0
  151.9952  137.2636  154.2154 H   0  0  0  0  0  0  0  0  0  0  0  0
  152.6268  138.3898  155.4332 H   0  0  0  0  0  0  0  0  0  0  0  0
  152.8043  138.7586  153.7033 H   0  0  0  0  0  0  0  0  0  0  0  0
  149.4524  137.4658  154.0312 H   0  0  0  0  0  0  0  0  0  0  0  0
  146.8076  138.7227  154.8246 H   0  0  0  0  0  0  0  0  0  0  0  0
  146.8141  140.4520  154.6383 H   0  0  0  0  0  0  0  0  0  0  0  0
  145.8156  139.7785  152.6257 H   0  0  0  0  0  0  0  0  0  0  0  0
  147.4951  139.9456  152.1274 H   0  0  0  0  0  0  0  0  0  0  0  0
  147.7458  137.5881  152.1437 H   0  0  0  0  0  0  0  0  0  0  0  0
  147.0696  135.6823  151.7001 H   0  0  0  0  0  0  0  0  0  0  0  0
  144.3849  134.8326  152.5253 H   0  0  0  0  0  0  0  0  0  0  0  0
  143.4738  135.3047  150.4428 H   0  0  0  0  0  0  0  0  0  0  0  0
  145.0333  135.3440  149.6315 H   0  0  0  0  0  0  0  0  0  0  0  0
  143.2749  133.0529  149.7480 H   0  0  0  0  0  0  0  0  0  0  0  0
  144.9081  133.1311  149.0802 H   0  0  0  0  0  0  0  0  0  0  0  0
  144.5468  130.6108  150.3426 H   0  0  0  0  0  0  0  0  0  0  0  0
  146.1745  131.2436  150.1543 H   0  0  0  0  0  0  0  0  0  0  0  0
  144.8420  130.3475  152.7672 H   0  0  0  0  0  0  0  0  0  0  0  0
  146.1707  129.5443  151.9682 H   0  0  0  0  0  0  0  0  0  0  0  0
  146.9173  130.9457  153.9370 H   0  0  0  0  0  0  0  0  0  0  0  0
  147.6801  131.4277  152.4407 H   0  0  0  0  0  0  0  0  0  0  0  0
  145.3114  132.8235  153.7882 H   0  0  0  0  0  0  0  0  0  0  0  0
  146.9390  133.4469  153.6299 H   0  0  0  0  0  0  0  0  0  0  0  0
  146.7157  133.4480  151.1340 H   0  0  0  0  0  0  0  0  0  0  0  0
  149.2884  141.6826  154.8635 H   0  0  0  0  0  0  0  0  0  0  0  0
  144.0569  132.4693  151.7684 H   0  0  0  0  0  0  0  0  0  0  0  0
  1  2  1  0  0  0  0
  1 22  1  0  0  0  0
  1 23  1  0  0  0  0
  1 24  1  0  0  0  0
  2 21  1  0  0  0  0
  2  3  1  0  0  0  0
  3  4  2  0  0  0  0
  3 25  1  0  0  0  0
  4  5  1  0  0  0  0
  4 20  1  0  0  0  0
  5  6  1  0  0  0  0
  5 26  1  0  0  0  0
  5 27  1  0  0  0  0
  6  7  1  0  0  0  0
  6 28  1  0  0  0  0
  6 29  1  0  0  0  0
  7  8  1  0  0  0  0
  7 30  1  0  0  0  0
  8  9  2  0  0  0  0
  8 10  1  0  0  0  0
 10 11  1  0  0  0  0
 10 31  1  0  0  0  0
 11 19  1  0  0  0  0
 11 12  1  0  0  0  0
 11 32  1  0  0  0  0
 12 13  1  0  0  0  0
 12 33  1  0  0  0  0
 12 34  1  0  0  0  0
 13 14  1  0  0  0  0
 13 35  1  0  0  0  0
 13 36  1  0  0  0  0
 14 19  1  0  0  0  0
 14 15  1  0  0  0  0
 14 47  1  0  0  0  0
 15 16  1  0  0  0  0
 15 37  1  0  0  0  0
 15 38  1  0  0  0  0
 16 17  1  0  0  0  0
 16 39  1  0  0  0  0
 16 40  1  0  0  0  0
 17 18  1  0  0  0  0
 17 41  1  0  0  0  0
 17 42  1  0  0  0  0
 18 19  1  0  0  0  0
 18 43  1  0  0  0  0
 18 44  1  0  0  0  0
 19 45  1  0  0  0  0
 20 21  2  0  0  0  0
 20 46  1  0  0  0  0
M  CHG  1  14   1
M  END
> <s_m_source_file>
AV-unprocessed.smi

> <i_m_source_file_index>
557

> <i_lp_mmshare_version>
43012

> <i_f3d_flags>
0

> <s_epik_input>
W0NIM11uMVtjSF1jKFtjSF1uMSlbQ0gyXVtDSDJdW05IXUMoPU8pW05IXVtDQEhdKFtDSDJdW0NIMl0yKVtDQEhdKE4yMylbQ0gyXVtDSDJdW0NIMl1bQ0gyXTM=

> <s_epik_cmdline>
J2VwaWtfcHl0aG9uJywgJy1waCcsICc3LjAnLCAnLXRuJywgJzgnLCAnLW1hJywgJzIwMCcsICctbWV0YWxfYmluZGluZycsICctaW1hZScsICc8aW5maWxlLm1hZT4nLCAnLW9tYWUnLCAnPG91dGZpbGUubWFlPic=

> <r_lp_tautomer_probability>
1

> <r_epik_Ionization_Penalty>
0.000956547

> <r_epik_Ionization_Penalty_Charging>
0.000435796

> <r_epik_Ionization_Penalty_Neutral>
0.000520752

> <r_epik_State_Penalty>
-0

> <r_epik_Charging_Adjusted_Penalty>
0.000435796

> <i_epik_Tot_Q>
1

> <i_epik_Tot_abs_Q>
1

> <r_epik_Metal_State_Penalty>
-0

> <b_epik_Metal_Only>
0

> <s_lp_Force_Field>
OPLS_2005

> <r_lp_Energy>
39.7592

> <b_lp_Chiralities_Consistent>
1

> <s_lp_Variant>
AV-unprocessed.smi:557-2

> <Gold.Version>
5.8.1

> <Gold.Id.Protein>
6NUR|6NUR_protein|mol2

> <Gold.PLP.Fitness>
49.8757

> <Gold.PLP.PLP>
-39.3117

> <Gold.PLP.part.hbond>
-3.0000

> <Gold.PLP.part.metal>
0.0000

> <Gold.PLP.part.buried>
-6.0995

> <Gold.PLP.part.nonpolar>
-31.3249

> <Gold.PLP.part.repulsive>
0.8439

> <Gold.PLP.ligand.clash>
0.0000

> <Gold.PLP.ligand.torsion>
0.7120

> <Gold.PLP.Chemscore.Hbond>
2.9920

> <Gold.PLP.Chemscore.CHOScore>
1.0000

> <Gold.PLP.Chemscore.Metal>
0.0000

> <Gold.Chemscore.Hbonds>
donor molecule, donor type, donor heavy atom, donor atom, acceptor molecule, acceptor atom, score
      L1  H     7    30       P1  7948  1.00
      L1  H    10    31       P1  7948  0.98
      P1  H  7989  7998       L1    21  1.00
      L1  C     3    25       P1  7948  1.00

> <Gold.PLP.Chemscore.Internal.Correction>
0.0121

> <Gold.Rescore>
     Score         DG    S(hbond)    S(metal)    S(lipo)     H(rot)  DE(clash)    DE(int)     intcor
     19.78     -20.74       2.45        0.00      95.63       1.60       0.19       0.77       ----

> <Gold.Chemscore.Fitness>
19.7830

> <Gold.Chemscore.DG>
-20.7399

> <Gold.Chemscore.ZeroCoef>
-5.4800

> <Gold.Chemscore.Hbond>
2.4465

> <Gold.Chemscore.Metal>
0.0000

> <Gold.Chemscore.Lipo>
95.6336

> <Gold.Chemscore.Internal_Hbond>
0.0000

> <Gold.Chemscore.DEClash>
0.1879

> <Gold.Chemscore.DEInternal>
0.7690

> <Gold.Chemscore.Rot>
1.6018

> <Gold.Chemscore.Internal.Correction>
   9.000000E+99

> <Gold.Chemscore.Hbonds>
donor molecule, donor type, donor heavy atom, donor atom, acceptor molecule, acceptor atom, score
      L1  H     7    30       P1  7948  0.99
      L1  H    10    31       P1  7948  0.93
      P1  H  7989  7998       L1    21  0.19

> <Gold.Chemscore.Hbond.Weighted>
-8.1714

> <Gold.Chemscore.Metal.Weighted>
-0.0000

> <Gold.Chemscore.Lipo.Weighted>
-11.1891

> <Gold.Chemscore.Internal_Hbond.Weighted>
0.0000

> <Gold.Chemscore.DEClash.Weighted>
0.1879

> <Gold.Chemscore.DEInternal.Weighted>
0.7690

> <Gold.Chemscore.Rot.Weighted>
4.1006

> <Gold.Chemscore.Internal.Correction.Weighted>
   9.000000E+99

> <Gold.Protein.RotatedTorsions>
[ 6907 6896 6895 6894 ] final   95.43 input  -60.11 | X-H torsion
[ 7974 7965 7964 7962 ] final  107.18 input  175.53 | X-H torsion
[ 8008 7997 7996 7995 ] final  -53.73 input   59.86 | X-H torsion
[ 10167 10162 10161 10158 ] final  -84.07 input  -65.29 | X-H torsion
[ 10718 10713 10712 10709 ] final  145.53 input   66.30 | X-H torsion
[ 10763 10752 10751 10750 ] final  135.12 input  -60.55 | X-H torsion
[ 11005 11000 10999 10996 ] final   95.62 input  -57.11 | X-H torsion

> <Gold.Protein.ActiveResidues>
 VAL166  LYS551  ARG553  GLY616  TRP617  ASP618  TYR619  PRO620  LYS621  CYS622 
 ASP623  PHE694  ASN695  SER759  ASP760  ASP761  ALA762  ILE779  LEU786  VAL792 
 PHE793  MET794  SER795  GLU796  ALA797  LYS798  CYS799  TRP800  GLU811  SER814 

> <Gold.Protein.RotatedAtoms>
  152.5443  134.1041  159.8330 H   0  0  0  0  0  0  0  0  0  0  0  0  # atno 6907 bound_to 6896
  151.1115  133.5162  159.2613 H   0  0  0  0  0  0  0  0  0  0  0  0  # atno 6908 bound_to 6896
  151.1879  135.0399  159.8874 H   0  0  0  0  0  0  0  0  0  0  0  0  # atno 6909 bound_to 6896
  145.2969  139.2582  143.3834 H   0  0  0  0  0  0  0  0  0  0  0  0  # atno 7974 bound_to 7965
  154.4141  140.1193  156.5201 H   0  0  0  0  0  0  0  0  0  0  0  0  # atno 8008 bound_to 7997
  155.6712  140.3496  155.4799 H   0  0  0  0  0  0  0  0  0  0  0  0  # atno 8009 bound_to 7997
  155.9632  140.1127  157.0868 H   0  0  0  0  0  0  0  0  0  0  0  0  # atno 8010 bound_to 7997
  140.4167  143.2601  151.8945 H   0  0  0  0  0  0  0  0  0  0  0  0  # atno 10167 bound_to 10162
  157.3441  131.0940  151.1057 H   0  0  0  0  0  0  0  0  0  0  0  0  # atno 10718 bound_to 10713
  153.8348  135.3099  155.3421 H   0  0  0  0  0  0  0  0  0  0  0  0  # atno 10763 bound_to 10752
  154.7958  135.4756  154.0160 H   0  0  0  0  0  0  0  0  0  0  0  0  # atno 10764 bound_to 10752
  153.1612  135.6861  153.8831 H   0  0  0  0  0  0  0  0  0  0  0  0  # atno 10765 bound_to 10752
  139.8787  134.8908  156.4038 H   0  0  0  0  0  0  0  0  0  0  0  0  # atno 11005 bound_to 11000
  146.3165  140.3474  142.8653 LP  0  0  0  0  0  0  0  0  0  0  0  0  # atno 17320 bound_to 7965
  144.9125  140.7774  143.5798 LP  0  0  0  0  0  0  0  0  0  0  0  0  # atno 17321 bound_to 7965
  139.4782  144.5480  151.8428 LP  0  0  0  0  0  0  0  0  0  0  0  0  # atno 17342 bound_to 10162
  140.4578  144.1764  150.5903 LP  0  0  0  0  0  0  0  0  0  0  0  0  # atno 17343 bound_to 10162
  157.2258  130.6502  149.5829 LP  0  0  0  0  0  0  0  0  0  0  0  0  # atno 17370 bound_to 10713
  155.9712  130.4615  150.6110 LP  0  0  0  0  0  0  0  0  0  0  0  0  # atno 17371 bound_to 10713
  140.9248  133.7620  155.9951 LP  0  0  0  0  0  0  0  0  0  0  0  0  # atno 17394 bound_to 11000
  140.8398  134.3080  157.5318 LP  0  0  0  0  0  0  0  0  0  0  0  0  # atno 17395 bound_to 11000

$$$$
