AV-unprocessed.smi:827|AV-procd|sdf|3857|dock2
  -GOLD-   22720 1303D 1   1.00000     0.00000
 Structure written by MMmdl.
 47 48  0  0  0  0  0  0  0  0  2 V2000
  141.0224  137.4819  153.1308 C   0  0  0  0  0  0  0  0  0  0  0  0
  142.4108  137.7956  153.1474 O   0  0  0  0  0  0  0  0  0  0  0  0
  143.3221  136.7567  153.1319 C   0  0  0  0  0  0  0  0  0  0  0  0
  142.8527  135.4885  153.0227 N   0  0  0  0  0  0  0  0  0  0  0  0
  143.7404  134.4734  153.0092 C   0  0  0  0  0  0  0  0  0  0  0  0
  145.1306  134.6649  153.1096 C   0  0  0  0  0  0  0  0  0  0  0  0
  145.6203  135.9790  153.2236 C   0  0  0  0  0  0  0  0  0  0  0  0
  144.7016  137.0571  153.2242 C   0  0  0  0  0  0  0  0  0  0  0  0
  145.0825  138.4223  153.3493 N   0  0  0  0  0  0  0  0  0  0  0  0
  146.2490  138.9352  153.7759 C   0  0  0  0  0  0  0  0  0  0  0  0
  147.2241  138.2830  154.1482 O   0  0  0  0  0  0  0  0  0  0  0  0
  146.2354  140.2750  153.7301 N   0  0  0  0  0  0  0  0  0  0  0  0
  147.3448  141.1334  154.1299 C   0  0  0  0  0  0  0  0  0  0  0  0
  147.2941  141.4641  155.6346 C   0  0  0  0  0  0  0  0  0  0  0  0
  148.6267  141.8176  156.1853 N   0  3  0  0  0  0  0  0  0  0  0  0
  148.6953  141.7213  157.6705 C   0  0  0  0  0  0  0  0  0  0  0  0
  150.0960  142.0858  158.1958 C   0  0  0  0  0  0  0  0  0  0  0  0
  151.0902  141.2337  157.5371 N   0  0  0  0  0  0  0  0  0  0  0  0
  151.8251  140.2692  158.1412 C   0  0  0  0  0  0  0  0  0  0  0  0
  151.7012  140.0695  159.6533 C   0  0  0  0  0  0  0  0  0  0  0  0
  152.5956  139.5360  157.5219 O   0  0  0  0  0  0  0  0  0  0  0  0
  151.1024  141.4523  156.0883 C   0  0  0  0  0  0  0  0  0  0  0  0
  149.7257  141.0739  155.5119 C   0  0  0  0  0  0  0  0  0  0  0  0
  140.4440  138.4054  153.1393 H   0  0  0  0  0  0  0  0  0  0  0  0
  140.7337  136.9024  154.0090 H   0  0  0  0  0  0  0  0  0  0  0  0
  140.7487  136.9295  152.2306 H   0  0  0  0  0  0  0  0  0  0  0  0
  143.3299  133.4785  152.9208 H   0  0  0  0  0  0  0  0  0  0  0  0
  145.8058  133.8219  153.1041 H   0  0  0  0  0  0  0  0  0  0  0  0
  146.6839  136.1293  153.3215 H   0  0  0  0  0  0  0  0  0  0  0  0
  144.4041  139.0873  153.0069 H   0  0  0  0  0  0  0  0  0  0  0  0
  145.3943  140.7320  153.4084 H   0  0  0  0  0  0  0  0  0  0  0  0
  148.2750  140.6157  153.8948 H   0  0  0  0  0  0  0  0  0  0  0  0
  147.3293  142.0366  153.5193 H   0  0  0  0  0  0  0  0  0  0  0  0
  146.5918  142.2740  155.8378 H   0  0  0  0  0  0  0  0  0  0  0  0
  146.9110  140.5874  156.1595 H   0  0  0  0  0  0  0  0  0  0  0  0
  147.9625  142.3850  158.1279 H   0  0  0  0  0  0  0  0  0  0  0  0
  148.4402  140.7063  157.9801 H   0  0  0  0  0  0  0  0  0  0  0  0
  150.3176  143.1298  157.9690 H   0  0  0  0  0  0  0  0  0  0  0  0
  150.1097  142.0165  159.2826 H   0  0  0  0  0  0  0  0  0  0  0  0
  150.6762  139.8199  159.9291 H   0  0  0  0  0  0  0  0  0  0  0  0
  152.0046  140.9698  160.1884 H   0  0  0  0  0  0  0  0  0  0  0  0
  152.3427  139.2528  159.9869 H   0  0  0  0  0  0  0  0  0  0  0  0
  151.3191  142.5023  155.8860 H   0  0  0  0  0  0  0  0  0  0  0  0
  151.8831  140.8852  155.5795 H   0  0  0  0  0  0  0  0  0  0  0  0
  149.5596  140.0015  155.6280 H   0  0  0  0  0  0  0  0  0  0  0  0
  149.7095  141.2843  154.4417 H   0  0  0  0  0  0  0  0  0  0  0  0
  148.7799  142.7893  155.9563 H   0  0  0  0  0  0  0  0  0  0  0  0
  1  2  1  0  0  0  0
  1 24  1  0  0  0  0
  1 25  1  0  0  0  0
  1 26  1  0  0  0  0
  2  3  1  0  0  0  0
  3  8  1  0  0  0  0
  3  4  2  0  0  0  0
  4  5  1  0  0  0  0
  5  6  2  0  0  0  0
  5 27  1  0  0  0  0
  6  7  1  0  0  0  0
  6 28  1  0  0  0  0
  7  8  2  0  0  0  0
  7 29  1  0  0  0  0
  8  9  1  0  0  0  0
  9 10  1  0  0  0  0
  9 30  1  0  0  0  0
 10 11  2  0  0  0  0
 10 12  1  0  0  0  0
 12 13  1  0  0  0  0
 12 31  1  0  0  0  0
 13 14  1  0  0  0  0
 13 32  1  0  0  0  0
 13 33  1  0  0  0  0
 14 15  1  0  0  0  0
 14 34  1  0  0  0  0
 14 35  1  0  0  0  0
 15 23  1  0  0  0  0
 15 16  1  0  0  0  0
 15 47  1  0  0  0  0
 16 17  1  0  0  0  0
 16 36  1  0  0  0  0
 16 37  1  0  0  0  0
 17 18  1  0  0  0  0
 17 38  1  0  0  0  0
 17 39  1  0  0  0  0
 18 19  1  0  0  0  0
 18 22  1  0  0  0  0
 19 20  1  0  0  0  0
 19 21  2  0  0  0  0
 20 40  1  0  0  0  0
 20 41  1  0  0  0  0
 20 42  1  0  0  0  0
 22 23  1  0  0  0  0
 22 43  1  0  0  0  0
 22 44  1  0  0  0  0
 23 45  1  0  0  0  0
 23 46  1  0  0  0  0
M  CHG  1  15   1
M  END
> <s_m_source_file>
AV-unprocessed.smi

> <i_m_source_file_index>
827

> <i_lp_mmshare_version>
43012

> <i_f3d_flags>
0

> <s_epik_input>
W0NIM11PYzFuW2NIXVtjSF1bY0hdYzFbTkhdQyg9TylbTkhdW0NIMl1bQ0gyXU4yW0NIMl1bQ0gyXU4oQyg9TylbQ0gzXSlbQ0gyXVtDSDJdMg==

> <s_epik_cmdline>
J2VwaWtfcHl0aG9uJywgJy1waCcsICc3LjAnLCAnLXRuJywgJzgnLCAnLW1hJywgJzIwMCcsICctbWV0YWxfYmluZGluZycsICctaW1hZScsICc8aW5maWxlLm1hZT4nLCAnLW9tYWUnLCAnPG91dGZpbGUubWFlPic=

> <r_lp_tautomer_probability>
1

> <r_epik_Ionization_Penalty>
0.63011

> <r_epik_Ionization_Penalty_Charging>
0.630034

> <r_epik_Ionization_Penalty_Neutral>
7.67152e-05

> <r_epik_State_Penalty>
0.646805

> <r_epik_Charging_Adjusted_Penalty>
1.27684

> <i_epik_Tot_Q>
1

> <i_epik_Tot_abs_Q>
1

> <r_epik_Metal_State_Penalty>
0.64681

> <b_epik_Metal_Only>
0

> <s_lp_Force_Field>
OPLS_2005

> <r_lp_Energy>
42.7203

> <b_lp_Chiralities_Consistent>
1

> <s_lp_Variant>
AV-unprocessed.smi:827-2

> <Gold.Version>
5.8.1

> <Gold.Id.Protein>
6NUR|6NUR_protein|mol2

> <Gold.PLP.Fitness>
43.8923

> <Gold.PLP.PLP>
-27.5555

> <Gold.PLP.part.hbond>
-4.0000

> <Gold.PLP.part.metal>
0.0000

> <Gold.PLP.part.buried>
-5.8536

> <Gold.PLP.part.nonpolar>
-18.8284

> <Gold.PLP.part.repulsive>
0.5097

> <Gold.PLP.ligand.clash>
0.0000

> <Gold.PLP.ligand.torsion>
0.6380

> <Gold.PLP.Chemscore.Hbond>
4.8480

> <Gold.PLP.Chemscore.CHOScore>
0.9846

> <Gold.PLP.Chemscore.Metal>
0.0000

> <Gold.Chemscore.Hbonds>
donor molecule, donor type, donor heavy atom, donor atom, acceptor molecule, acceptor atom, score
      L1  H     9    30       P1 10175  1.00
      L1  H    12    31       P1 10175  0.91
      L1  H    15    47       P1  8028  2.00
      P1  H  7997  8010       L1    21  0.96
      L1  C     5    27       P1 10957  0.81

> <Gold.PLP.Chemscore.Internal.Correction>
0.1149

> <Gold.Rescore>
     Score         DG    S(hbond)    S(metal)    S(lipo)     H(rot)  DE(clash)    DE(int)     intcor
     18.13     -20.02       3.87        0.00      54.64       1.87       0.07       1.82       ----

> <Gold.Chemscore.Fitness>
18.1285

> <Gold.Chemscore.DG>
-20.0192

> <Gold.Chemscore.ZeroCoef>
-5.4800

> <Gold.Chemscore.Hbond>
3.8749

> <Gold.Chemscore.Metal>
0.0000

> <Gold.Chemscore.Lipo>
54.6361

> <Gold.Chemscore.Internal_Hbond>
0.0000

> <Gold.Chemscore.DEClash>
0.0715

> <Gold.Chemscore.DEInternal>
1.8192

> <Gold.Chemscore.Rot>
1.8732

> <Gold.Chemscore.Internal.Correction>
   9.000000E+99

> <Gold.Chemscore.Hbonds>
donor molecule, donor type, donor heavy atom, donor atom, acceptor molecule, acceptor atom, score
      L1  H     9    30       P1 10175  1.00
      L1  H    12    31       P1 10175  0.75
      L1  H    15    47       P1  8028  0.99
      P1  H  7997  8010       L1    21  0.90

> <Gold.Chemscore.Hbond.Weighted>
-12.9423

> <Gold.Chemscore.Metal.Weighted>
-0.0000

> <Gold.Chemscore.Lipo.Weighted>
-6.3924

> <Gold.Chemscore.Internal_Hbond.Weighted>
0.0000

> <Gold.Chemscore.DEClash.Weighted>
0.0715

> <Gold.Chemscore.DEInternal.Weighted>
1.8192

> <Gold.Chemscore.Rot.Weighted>
4.7955

> <Gold.Chemscore.Internal.Correction.Weighted>
   9.000000E+99

> <Gold.Protein.RotatedTorsions>
[ 6907 6896 6895 6894 ] final   29.92 input  -60.11 | X-H torsion
[ 7974 7965 7964 7962 ] final   48.53 input  175.53 | X-H torsion
[ 8008 7997 7996 7995 ] final   48.85 input   59.86 | X-H torsion
[ 10167 10162 10161 10158 ] final -172.40 input  -65.29 | X-H torsion
[ 10718 10713 10712 10709 ] final  -42.50 input   66.30 | X-H torsion
[ 10763 10752 10751 10750 ] final  167.24 input  -60.55 | X-H torsion
[ 11005 11000 10999 10996 ] final  -73.25 input  -57.11 | X-H torsion

> <Gold.Protein.ActiveResidues>
 VAL166  LYS551  ARG553  GLY616  TRP617  ASP618  TYR619  PRO620  LYS621  CYS622 
 ASP623  PHE694  ASN695  SER759  ASP760  ASP761  ALA762  ILE779  LEU786  VAL792 
 PHE793  MET794  SER795  GLU796  ALA797  LYS798  CYS799  TRP800  GLU811  SER814 

> <Gold.Protein.RotatedAtoms>
  152.0384  134.9726  160.0573 H   0  0  0  0  0  0  0  0  0  0  0  0  # atno 6907 bound_to 6896
  152.1174  133.4329  159.4668 H   0  0  0  0  0  0  0  0  0  0  0  0  # atno 6908 bound_to 6896
  150.6847  134.2494  159.4548 H   0  0  0  0  0  0  0  0  0  0  0  0  # atno 6909 bound_to 6896
  146.0196  139.4635  142.9905 H   0  0  0  0  0  0  0  0  0  0  0  0  # atno 7974 bound_to 7965
  155.3924  140.3434  155.4252 H   0  0  0  0  0  0  0  0  0  0  0  0  # atno 8008 bound_to 7997
  156.1550  140.1582  156.8741 H   0  0  0  0  0  0  0  0  0  0  0  0  # atno 8009 bound_to 7997
  154.5086  140.0796  156.7926 H   0  0  0  0  0  0  0  0  0  0  0  0  # atno 8010 bound_to 7997
  139.5747  144.1561  152.1433 H   0  0  0  0  0  0  0  0  0  0  0  0  # atno 10167 bound_to 10162
  156.2589  130.4195  149.8565 H   0  0  0  0  0  0  0  0  0  0  0  0  # atno 10718 bound_to 10713
  154.3509  135.2753  155.2372 H   0  0  0  0  0  0  0  0  0  0  0  0  # atno 10763 bound_to 10752
  154.4602  135.5909  153.6254 H   0  0  0  0  0  0  0  0  0  0  0  0  # atno 10764 bound_to 10752
  152.9850  135.6063  154.3720 H   0  0  0  0  0  0  0  0  0  0  0  0  # atno 10765 bound_to 10752
  141.1620  133.6872  156.7183 H   0  0  0  0  0  0  0  0  0  0  0  0  # atno 11005 bound_to 11000
  145.7214  141.0073  143.1400 LP  0  0  0  0  0  0  0  0  0  0  0  0  # atno 17320 bound_to 7965
  144.6984  139.8875  143.7451 LP  0  0  0  0  0  0  0  0  0  0  0  0  # atno 17321 bound_to 7965
  140.1101  144.5464  150.6931 LP  0  0  0  0  0  0  0  0  0  0  0  0  # atno 17342 bound_to 10162
  140.7030  143.2448  151.4809 LP  0  0  0  0  0  0  0  0  0  0  0  0  # atno 17343 bound_to 10162
  156.6087  130.8577  151.3449 LP  0  0  0  0  0  0  0  0  0  0  0  0  # atno 17370 bound_to 10713
  157.7243  130.9601  150.1568 LP  0  0  0  0  0  0  0  0  0  0  0  0  # atno 17371 bound_to 10713
  140.2835  134.8297  157.3954 LP  0  0  0  0  0  0  0  0  0  0  0  0  # atno 17394 bound_to 11000
  140.1411  134.4970  155.8031 LP  0  0  0  0  0  0  0  0  0  0  0  0  # atno 17395 bound_to 11000

$$$$
