AV-unprocessed.smi:1189|AV-procd|sdf|4979|dock1
  -GOLD-   22720 3573D 1   1.00000     0.00000
 Structure written by MMmdl.
 33 34  0  0  0  0  0  0  0  0  1 V2000
  149.7625  142.0064  158.5629 O   0  0  0  0  0  0  0  0  0  0  0  0
  150.5441  142.4835  157.7387 C   0  0  0  0  0  0  0  0  0  0  0  0
  151.6209  143.4889  158.1643 C   0  0  0  0  0  0  0  0  0  0  0  0
  152.2827  143.1089  159.4015 N   0  0  0  0  0  0  0  0  0  0  0  0
  152.4162  143.8413  160.5617 C   0  0  0  0  0  0  0  0  0  0  0  0
  153.1064  143.0690  161.4510 C   0  0  0  0  0  0  0  0  0  0  0  0
  153.3559  141.8592  160.7400 C   0  0  0  0  0  0  0  0  0  0  0  0
  154.0788  140.6273  161.2181 C   0  0  0  0  0  0  0  0  0  0  0  0
  153.3073  139.5506  161.0676 F   0  0  0  0  0  0  0  0  0  0  0  0
  155.1979  140.4541  160.5148 F   0  0  0  0  0  0  0  0  0  0  0  0
  154.3905  140.7544  162.5079 F   0  0  0  0  0  0  0  0  0  0  0  0
  152.8618  141.8936  159.5093 N   0  0  0  0  0  0  0  0  0  0  0  0
  150.5095  142.1796  156.4318 N   0  0  0  0  0  0  0  0  0  0  0  0
  149.5756  141.2519  155.8007 C   0  0  0  0  0  0  0  0  0  0  0  0
  149.9299  139.7822  156.0974 C   0  0  1  0  0  0  0  0  0  0  0  0
  149.5632  138.8292  154.9780 C   0  0  0  0  0  0  0  0  0  0  0  0
  150.4152  137.6050  155.3026 C   0  0  0  0  0  0  0  0  0  0  0  0
  151.5676  138.0949  155.9825 O   0  0  0  0  0  0  0  0  0  0  0  0
  151.4232  139.4863  156.2468 C   0  0  0  0  0  0  0  0  0  0  0  0
  152.3707  143.5930  157.3779 H   0  0  0  0  0  0  0  0  0  0  0  0
  151.1612  144.4682  158.3010 H   0  0  0  0  0  0  0  0  0  0  0  0
  152.0108  144.8377  160.6570 H   0  0  0  0  0  0  0  0  0  0  0  0
  153.3887  143.3277  162.4607 H   0  0  0  0  0  0  0  0  0  0  0  0
  151.1881  142.6203  155.8278 H   0  0  0  0  0  0  0  0  0  0  0  0
  148.5818  141.4698  156.1923 H   0  0  0  0  0  0  0  0  0  0  0  0
  149.5217  141.4265  154.7245 H   0  0  0  0  0  0  0  0  0  0  0  0
  149.4164  139.4607  157.0053 H   0  0  0  0  0  0  0  0  0  0  0  0
  148.4970  138.6042  154.9376 H   0  0  0  0  0  0  0  0  0  0  0  0
  149.8607  139.2439  154.0136 H   0  0  0  0  0  0  0  0  0  0  0  0
  149.8777  136.9332  155.9727 H   0  0  0  0  0  0  0  0  0  0  0  0
  150.6895  137.0437  154.4092 H   0  0  0  0  0  0  0  0  0  0  0  0
  152.0025  140.0384  155.5055 H   0  0  0  0  0  0  0  0  0  0  0  0
  151.8050  139.7431  157.2352 H   0  0  0  0  0  0  0  0  0  0  0  0
  1  2  2  0  0  0  0
  2  3  1  0  0  0  0
  2 13  1  0  0  0  0
  3  4  1  0  0  0  0
  3 20  1  0  0  0  0
  3 21  1  0  0  0  0
  4 12  1  0  0  0  0
  4  5  1  0  0  0  0
  5  6  2  0  0  0  0
  5 22  1  0  0  0  0
  6  7  1  0  0  0  0
  6 23  1  0  0  0  0
  7  8  1  0  0  0  0
  7 12  2  0  0  0  0
  8  9  1  0  0  0  0
  8 10  1  0  0  0  0
  8 11  1  0  0  0  0
 13 14  1  0  0  0  0
 13 24  1  0  0  0  0
 14 15  1  0  0  0  0
 14 25  1  0  0  0  0
 14 26  1  0  0  0  0
 15 19  1  0  0  0  0
 15 16  1  0  0  0  0
 15 27  1  0  0  0  0
 16 17  1  0  0  0  0
 16 28  1  0  0  0  0
 16 29  1  0  0  0  0
 17 18  1  0  0  0  0
 17 30  1  0  0  0  0
 17 31  1  0  0  0  0
 18 19  1  0  0  0  0
 19 32  1  0  0  0  0
 19 33  1  0  0  0  0
M  END
> <s_m_source_file>
AV-unprocessed.smi

> <i_m_source_file_index>
1189

> <i_lp_mmshare_version>
43012

> <i_f3d_flags>
0

> <s_epik_input>
W0NIMl0xT1tDSDJdW0NIMl1bQ0BIXTFbQ0gyXVtOSF1DKD1PKVtDSDJdbjJbY0hdW2NIXWMobjIpQyhGKShGKUY=

> <s_epik_cmdline>
J2VwaWtfcHl0aG9uJywgJy1waCcsICc3LjAnLCAnLXRuJywgJzgnLCAnLW1hJywgJzIwMCcsICctbWV0YWxfYmluZGluZycsICctaW1hZScsICc8aW5maWxlLm1hZT4nLCAnLW9tYWUnLCAnPG91dGZpbGUubWFlPic=

> <r_lp_tautomer_probability>
1

> <r_epik_Ionization_Penalty>
1.26564e-07

> <r_epik_Ionization_Penalty_Charging>
0

> <r_epik_Ionization_Penalty_Neutral>
1.26564e-07

> <r_epik_State_Penalty>
-0

> <r_epik_Charging_Adjusted_Penalty>
0

> <i_epik_Tot_Q>
0

> <i_epik_Tot_abs_Q>
0

> <r_epik_Metal_State_Penalty>
-0

> <b_epik_Metal_Only>
0

> <s_lp_Force_Field>
OPLS_2005

> <r_lp_Energy>
22.0534

> <b_lp_Chiralities_Consistent>
1

> <s_lp_Variant>
AV-unprocessed.smi:1189-2

> <Gold.Version>
5.8.1

> <Gold.Id.Protein>
6NUR|6NUR_protein|mol2

> <Gold.PLP.Fitness>
43.9784

> <Gold.PLP.PLP>
-45.4911

> <Gold.PLP.part.hbond>
-1.0000

> <Gold.PLP.part.metal>
0.0000

> <Gold.PLP.part.buried>
-3.7479

> <Gold.PLP.part.nonpolar>
-40.8677

> <Gold.PLP.part.repulsive>
0.1945

> <Gold.PLP.ligand.clash>
0.0000

> <Gold.PLP.ligand.torsion>
0.7941

> <Gold.PLP.Chemscore.Hbond>
0.0000

> <Gold.PLP.Chemscore.CHOScore>
0.0000

> <Gold.PLP.Chemscore.Metal>
0.0000

> <Gold.PLP.Chemscore.Internal.Correction>
0.0755

> <Gold.Rescore>
     Score         DG    S(hbond)    S(metal)    S(lipo)     H(rot)  DE(clash)    DE(int)     intcor
      9.87     -11.10       0.00        0.00      89.35       1.89       0.03       1.19       ----

> <Gold.Chemscore.Fitness>
9.8693

> <Gold.Chemscore.DG>
-11.0950

> <Gold.Chemscore.ZeroCoef>
-5.4800

> <Gold.Chemscore.Hbond>
0.0019

> <Gold.Chemscore.Metal>
0.0000

> <Gold.Chemscore.Lipo>
89.3518

> <Gold.Chemscore.Internal_Hbond>
0.0000

> <Gold.Chemscore.DEClash>
0.0348

> <Gold.Chemscore.DEInternal>
1.1909

> <Gold.Chemscore.Rot>
1.8928

> <Gold.Chemscore.Internal.Correction>
   9.000000E+99

> <Gold.Chemscore.Hbond.Weighted>
-0.0063

> <Gold.Chemscore.Metal.Weighted>
-0.0000

> <Gold.Chemscore.Lipo.Weighted>
-10.4542

> <Gold.Chemscore.Internal_Hbond.Weighted>
0.0000

> <Gold.Chemscore.DEClash.Weighted>
0.0348

> <Gold.Chemscore.DEInternal.Weighted>
1.1909

> <Gold.Chemscore.Rot.Weighted>
4.8455

> <Gold.Chemscore.Internal.Correction.Weighted>
   9.000000E+99

> <Gold.Protein.RotatedTorsions>
[ 6907 6896 6895 6894 ] final   73.41 input  -60.11 | X-H torsion
[ 7974 7965 7964 7962 ] final   38.90 input  175.53 | X-H torsion
[ 8008 7997 7996 7995 ] final   -8.32 input   59.86 | X-H torsion
[ 10167 10162 10161 10158 ] final -117.24 input  -65.29 | X-H torsion
[ 10718 10713 10712 10709 ] final -112.83 input   66.30 | X-H torsion
[ 10763 10752 10751 10750 ] final   27.68 input  -60.55 | X-H torsion
[ 11005 11000 10999 10996 ] final -170.60 input  -57.11 | X-H torsion

> <Gold.Protein.ActiveResidues>
 VAL166  LYS551  ARG553  GLY616  TRP617  ASP618  TYR619  PRO620  LYS621  CYS622 
 ASP623  PHE694  ASN695  SER759  ASP760  ASP761  ALA762  ILE779  LEU786  VAL792 
 PHE793  MET794  SER795  GLU796  ALA797  LYS798  CYS799  TRP800  GLU811  SER814 

> <Gold.Protein.RotatedAtoms>
  152.4922  134.4425  159.9548 H   0  0  0  0  0  0  0  0  0  0  0  0  # atno 6907 bound_to 6896
  151.4411  133.3637  159.2789 H   0  0  0  0  0  0  0  0  0  0  0  0  # atno 6908 bound_to 6896
  150.9087  134.8527  159.7470 H   0  0  0  0  0  0  0  0  0  0  0  0  # atno 6909 bound_to 6896
  146.1026  139.5717  142.9404 H   0  0  0  0  0  0  0  0  0  0  0  0  # atno 7974 bound_to 7965
  154.5752  140.2384  155.8132 H   0  0  0  0  0  0  0  0  0  0  0  0  # atno 8008 bound_to 7997
  156.2138  140.3018  155.9749 H   0  0  0  0  0  0  0  0  0  0  0  0  # atno 8009 bound_to 7997
  155.2639  140.0415  157.2990 H   0  0  0  0  0  0  0  0  0  0  0  0  # atno 8010 bound_to 7997
  140.0705  143.4882  152.1982 H   0  0  0  0  0  0  0  0  0  0  0  0  # atno 10167 bound_to 10162
  156.0730  130.5941  150.8562 H   0  0  0  0  0  0  0  0  0  0  0  0  # atno 10718 bound_to 10713
  153.0540  135.6531  154.0623 H   0  0  0  0  0  0  0  0  0  0  0  0  # atno 10763 bound_to 10752
  154.0305  135.2912  155.3370 H   0  0  0  0  0  0  0  0  0  0  0  0  # atno 10764 bound_to 10752
  154.6845  135.5307  153.8374 H   0  0  0  0  0  0  0  0  0  0  0  0  # atno 10765 bound_to 10752
  140.5176  134.5741  157.5038 H   0  0  0  0  0  0  0  0  0  0  0  0  # atno 11005 bound_to 11000
  145.5824  141.0381  143.2115 LP  0  0  0  0  0  0  0  0  0  0  0  0  # atno 17320 bound_to 7965
  144.7445  139.7357  143.7298 LP  0  0  0  0  0  0  0  0  0  0  0  0  # atno 17321 bound_to 7965
  139.5839  144.7522  151.3570 LP  0  0  0  0  0  0  0  0  0  0  0  0  # atno 17342 bound_to 10162
  140.7128  143.7346  150.7598 LP  0  0  0  0  0  0  0  0  0  0  0  0  # atno 17343 bound_to 10162
  157.5810  131.0946  150.9270 LP  0  0  0  0  0  0  0  0  0  0  0  0  # atno 17370 bound_to 10713
  156.9466  130.5404  149.5281 LP  0  0  0  0  0  0  0  0  0  0  0  0  # atno 17371 bound_to 10713
  139.9624  134.7431  156.0210 LP  0  0  0  0  0  0  0  0  0  0  0  0  # atno 17394 bound_to 11000
  141.1352  133.6577  156.3573 LP  0  0  0  0  0  0  0  0  0  0  0  0  # atno 17395 bound_to 11000

$$$$
