AV-unprocessed.smi:3033|AV-procd|sdf|11575|dock10
  -GOLD-   2272016543D 1   1.00000     0.00000
 Structure written by MMmdl.
 32 33  0  0  0  0  0  0  0  0  2 V2000
  153.9099  140.6409  160.1741 C   0  0  0  0  0  0  0  0  0  0  0  0
  153.9897  142.0573  160.1080 O   0  0  0  0  0  0  0  0  0  0  0  0
  152.9111  142.7437  159.5926 C   0  0  0  0  0  0  0  0  0  0  0  0
  152.5764  144.0769  159.9390 C   0  0  0  0  0  0  0  0  0  0  0  0
  151.4585  144.7041  159.3563 C   0  0  0  0  0  0  0  0  0  0  0  0
  150.6628  144.0111  158.4259 C   0  0  0  0  0  0  0  0  0  0  0  0
  150.9785  142.6824  158.0763 C   0  0  0  0  0  0  0  0  0  0  0  0
  150.1216  141.9422  157.0604 C   0  0  2  0  0  0  0  0  0  0  0  0
  148.8403  142.5296  156.9423 O   0  0  0  0  0  0  0  0  0  0  0  0
  149.9517  140.4599  157.4560 C   0  0  0  0  0  0  0  0  0  0  0  0
  151.2208  139.7213  157.3881 N   0  0  0  0  0  0  0  0  0  0  0  0
  151.6447  139.0535  158.5490 C   0  0  0  0  0  0  0  0  0  0  0  0
  152.7892  138.3440  158.5881 C   0  0  0  0  0  0  0  0  0  0  0  0
  153.2840  137.5302  160.0297 Cl  0  0  0  0  0  0  0  0  0  0  0  0
  153.5988  138.2810  157.3727 C   0  0  0  0  0  0  0  0  0  0  0  0
  154.6517  137.6447  157.3744 O   0  0  0  0  0  0  0  0  0  0  0  0
  153.1403  138.9431  156.2701 N   0  5  0  0  0  0  0  0  0  0  0  0
  151.9723  139.6564  156.2489 C   0  0  0  0  0  0  0  0  0  0  0  0
  151.5740  140.2379  155.2389 O   0  0  0  0  0  0  0  0  0  0  0  0
  152.1024  142.0597  158.6618 C   0  0  0  0  0  0  0  0  0  0  0  0
  154.8243  140.2497  160.6201 H   0  0  0  0  0  0  0  0  0  0  0  0
  153.8122  140.2000  159.1812 H   0  0  0  0  0  0  0  0  0  0  0  0
  153.0749  140.3171  160.7970 H   0  0  0  0  0  0  0  0  0  0  0  0
  153.1626  144.6417  160.6478 H   0  0  0  0  0  0  0  0  0  0  0  0
  151.2121  145.7213  159.6224 H   0  0  0  0  0  0  0  0  0  0  0  0
  149.8115  144.5045  157.9797 H   0  0  0  0  0  0  0  0  0  0  0  0
  150.6072  142.0175  156.0865 H   0  0  0  0  0  0  0  0  0  0  0  0
  148.9111  143.2868  156.3816 H   0  0  0  0  0  0  0  0  0  0  0  0
  149.5751  140.3965  158.4787 H   0  0  0  0  0  0  0  0  0  0  0  0
  149.1793  139.9849  156.8488 H   0  0  0  0  0  0  0  0  0  0  0  0
  150.9830  139.1487  159.3977 H   0  0  0  0  0  0  0  0  0  0  0  0
  152.3536  141.0445  158.3905 H   0  0  0  0  0  0  0  0  0  0  0  0
  1  2  1  0  0  0  0
  1 21  1  0  0  0  0
  1 22  1  0  0  0  0
  1 23  1  0  0  0  0
  2  3  1  0  0  0  0
  3 20  1  0  0  0  0
  3  4  2  0  0  0  0
  4  5  1  0  0  0  0
  4 24  1  0  0  0  0
  5  6  2  0  0  0  0
  5 25  1  0  0  0  0
  6  7  1  0  0  0  0
  6 26  1  0  0  0  0
  7  8  1  0  0  0  0
  7 20  2  0  0  0  0
  8  9  1  0  0  0  0
  8 10  1  0  0  0  0
  8 27  1  0  0  0  0
  9 28  1  0  0  0  0
 10 11  1  0  0  0  0
 10 29  1  0  0  0  0
 10 30  1  0  0  0  0
 11 18  1  0  0  0  0
 11 12  1  0  0  0  0
 12 13  2  0  0  0  0
 12 31  1  0  0  0  0
 13 14  1  0  0  0  0
 13 15  1  0  0  0  0
 15 16  2  0  0  0  0
 15 17  1  0  0  0  0
 17 18  1  0  0  0  0
 18 19  2  0  0  0  0
 20 32  1  0  0  0  0
M  CHG  1  17  -1
M  END
> <s_m_source_file>
AV-unprocessed.smi

> <i_m_source_file_index>
3033

> <i_lp_mmshare_version>
43012

> <i_f3d_flags>
0

> <s_epik_input>
W0NIM11PYzFbY0hdW2NIXVtjSF1jKFtjSF0xKVtDQEhdKFtPSF0pW0NIMl1uMltjSF1jKENsKWMoPU8pW25IXWMyPU8=

> <s_epik_cmdline>
J2VwaWtfcHl0aG9uJywgJy1waCcsICc3LjAnLCAnLXRuJywgJzgnLCAnLW1hJywgJzIwMCcsICctbWV0YWxfYmluZGluZycsICctaW1hZScsICc8aW5maWxlLm1hZT4nLCAnLW9tYWUnLCAnPG91dGZpbGUubWFlPic=

> <r_lp_tautomer_probability>
1

> <r_epik_Ionization_Penalty>
1.7979

> <r_epik_Ionization_Penalty_Charging>
3.23819e-08

> <r_epik_Ionization_Penalty_Neutral>
1.7979

> <r_epik_State_Penalty>
1.91135

> <r_epik_Charging_Adjusted_Penalty>
1.91135

> <i_epik_Tot_Q>
-1

> <i_epik_Tot_abs_Q>
1

> <r_epik_Metal_State_Penalty>
0.014155

> <b_epik_Metal_Only>
0

> <s_lp_Force_Field>
OPLS_2005

> <r_lp_Energy>
24.094

> <b_lp_Chiralities_Consistent>
1

> <s_lp_Variant>
AV-unprocessed.smi:3033-3

> <Gold.Version>
5.8.1

> <Gold.Id.Protein>
6NUR|6NUR_protein|mol2

> <Gold.PLP.Fitness>
46.6752

> <Gold.PLP.PLP>
-36.7982

> <Gold.PLP.part.hbond>
-2.7704

> <Gold.PLP.part.metal>
0.0000

> <Gold.PLP.part.buried>
-5.6663

> <Gold.PLP.part.nonpolar>
-28.5924

> <Gold.PLP.part.repulsive>
0.0165

> <Gold.PLP.ligand.clash>
0.0000

> <Gold.PLP.ligand.torsion>
1.0069

> <Gold.PLP.Chemscore.Hbond>
3.9600

> <Gold.PLP.Chemscore.CHOScore>
0.0000

> <Gold.PLP.Chemscore.Metal>
0.0000

> <Gold.Chemscore.Hbonds>
donor molecule, donor type, donor heavy atom, donor atom, acceptor molecule, acceptor atom, score
      L1  H     9    28       P1  8028  1.00
      P1  H  7989  7998       L1    19  0.94
      P1  H  7997  8009       L1    17  1.40

> <Gold.PLP.Chemscore.Internal.Correction>
0.0108

> <Gold.Rescore>
     Score         DG    S(hbond)    S(metal)    S(lipo)     H(rot)  DE(clash)    DE(int)     intcor
     15.27     -18.58       2.49        0.00      94.38       2.45       0.04       3.26       ----

> <Gold.Chemscore.Fitness>
15.2725

> <Gold.Chemscore.DG>
-18.5780

> <Gold.Chemscore.ZeroCoef>
-5.4800

> <Gold.Chemscore.Hbond>
2.4925

> <Gold.Chemscore.Metal>
0.0000

> <Gold.Chemscore.Lipo>
94.3827

> <Gold.Chemscore.Internal_Hbond>
0.0000

> <Gold.Chemscore.DEClash>
0.0411

> <Gold.Chemscore.DEInternal>
3.2644

> <Gold.Chemscore.Rot>
2.4491

> <Gold.Chemscore.Internal.Correction>
   9.000000E+99

> <Gold.Chemscore.Hbonds>
donor molecule, donor type, donor heavy atom, donor atom, acceptor molecule, acceptor atom, score
      L1  H     9    28       P1  8028  0.97
      P1  H  7989  7998       L1    19  0.91
      P1  H  7997  8009       L1    17  0.04

> <Gold.Chemscore.Hbond.Weighted>
-8.3249

> <Gold.Chemscore.Metal.Weighted>
-0.0000

> <Gold.Chemscore.Lipo.Weighted>
-11.0428

> <Gold.Chemscore.Internal_Hbond.Weighted>
0.0000

> <Gold.Chemscore.DEClash.Weighted>
0.0411

> <Gold.Chemscore.DEInternal.Weighted>
3.2644

> <Gold.Chemscore.Rot.Weighted>
6.2696

> <Gold.Chemscore.Internal.Correction.Weighted>
   9.000000E+99

> <Gold.Protein.RotatedTorsions>
[ 6907 6896 6895 6894 ] final  -95.44 input  -60.11 | X-H torsion
[ 7974 7965 7964 7962 ] final  -99.10 input  175.53 | X-H torsion
[ 8008 7997 7996 7995 ] final -160.37 input   59.86 | X-H torsion
[ 10167 10162 10161 10158 ] final  -82.16 input  -65.29 | X-H torsion
[ 10718 10713 10712 10709 ] final  122.21 input   66.30 | X-H torsion
[ 10763 10752 10751 10750 ] final  -70.47 input  -60.55 | X-H torsion
[ 11005 11000 10999 10996 ] final   60.92 input  -57.11 | X-H torsion

> <Gold.Protein.ActiveResidues>
 VAL166  LYS551  ARG553  GLY616  TRP617  ASP618  TYR619  PRO620  LYS621  CYS622 
 ASP623  PHE694  ASN695  SER759  ASP760  ASP761  ALA762  ILE779  LEU786  VAL792 
 PHE793  MET794  SER795  GLU796  ALA797  LYS798  CYS799  TRP800  GLU811  SER814 

> <Gold.Protein.RotatedAtoms>
  150.6964  134.1657  159.4192 H   0  0  0  0  0  0  0  0  0  0  0  0  # atno 6907 bound_to 6896
  151.9637  135.0109  160.0558 H   0  0  0  0  0  0  0  0  0  0  0  0  # atno 6908 bound_to 6896
  152.1904  133.4734  159.5042 H   0  0  0  0  0  0  0  0  0  0  0  0  # atno 6909 bound_to 6896
  145.3119  140.9402  143.2764 H   0  0  0  0  0  0  0  0  0  0  0  0  # atno 7974 bound_to 7965
  155.7764  140.0859  157.2081 H   0  0  0  0  0  0  0  0  0  0  0  0  # atno 8008 bound_to 7997
  154.3993  140.1516  156.3059 H   0  0  0  0  0  0  0  0  0  0  0  0  # atno 8009 bound_to 7997
  155.8696  140.3426  155.5815 H   0  0  0  0  0  0  0  0  0  0  0  0  # atno 8010 bound_to 7997
  140.4345  143.2536  151.8713 H   0  0  0  0  0  0  0  0  0  0  0  0  # atno 10167 bound_to 10162
  157.5760  131.1079  150.8279 H   0  0  0  0  0  0  0  0  0  0  0  0  # atno 10718 bound_to 10713
  154.4181  135.5993  153.5993 H   0  0  0  0  0  0  0  0  0  0  0  0  # atno 10763 bound_to 10752
  152.9793  135.5945  154.3988 H   0  0  0  0  0  0  0  0  0  0  0  0  # atno 10764 bound_to 10752
  154.3810  135.2841  155.2190 H   0  0  0  0  0  0  0  0  0  0  0  0  # atno 10765 bound_to 10752
  140.0197  134.6171  155.9657 H   0  0  0  0  0  0  0  0  0  0  0  0  # atno 11005 bound_to 11000
  144.9009  139.4651  143.6633 LP  0  0  0  0  0  0  0  0  0  0  0  0  # atno 17320 bound_to 7965
  146.3114  139.7762  142.9016 LP  0  0  0  0  0  0  0  0  0  0  0  0  # atno 17321 bound_to 7965
  139.4786  144.5298  151.8683 LP  0  0  0  0  0  0  0  0  0  0  0  0  # atno 17342 bound_to 10162
  140.4389  144.2013  150.5890 LP  0  0  0  0  0  0  0  0  0  0  0  0  # atno 17343 bound_to 10162
  156.8738  130.5155  149.5295 LP  0  0  0  0  0  0  0  0  0  0  0  0  # atno 17370 bound_to 10713
  156.0804  130.5816  150.9553 LP  0  0  0  0  0  0  0  0  0  0  0  0  # atno 17371 bound_to 10713
  141.1766  133.6541  156.4853 LP  0  0  0  0  0  0  0  0  0  0  0  0  # atno 17394 bound_to 11000
  140.4408  134.7017  157.4991 LP  0  0  0  0  0  0  0  0  0  0  0  0  # atno 17395 bound_to 11000

$$$$
