AV-unprocessed.smi:3025|AV-procd|sdf|11506|dock10
  -GOLD-   2272016443D 1   1.00000     0.00000
 Structure written by MMmdl.
 42 43  0  0  0  0  0  0  0  0  2 V2000
  153.7818  142.8127  163.6391 C   0  0  0  0  0  0  0  0  0  0  0  0
  153.5061  142.4320  162.1805 C   0  0  0  0  0  0  0  0  0  0  0  0
  152.5455  143.4138  161.4882 C   0  0  0  0  0  0  0  0  0  0  0  0
  152.6046  143.3761  159.9469 C   0  0  2  0  0  0  0  0  0  0  0  0
  151.8419  144.5490  159.2938 C   0  0  0  0  0  0  0  0  0  0  0  0
  151.8924  144.4795  157.7576 C   0  0  0  0  0  0  0  0  0  0  0  0
  151.3665  143.1350  157.2119 C   0  0  2  0  0  0  0  0  0  0  0  0
  149.9031  142.9847  157.3910 N   0  3  0  0  0  0  0  0  0  0  0  0
  149.2861  141.8559  156.6636 C   0  0  0  0  0  0  0  0  0  0  0  0
  149.5353  141.9735  155.1542 C   0  0  0  0  0  0  0  0  0  0  0  0
  148.8738  140.8800  154.3811 C   0  0  0  0  0  0  0  0  0  0  0  0
  147.8611  141.1064  153.5418 N   0  0  0  0  0  0  0  0  0  0  0  0
  147.4607  139.9363  153.0022 N   0  0  0  0  0  0  0  0  0  0  0  0
  148.2879  139.0654  153.5773 C   0  0  0  0  0  0  0  0  0  0  0  0
  149.1952  139.5931  154.4535 N   0  0  0  0  0  0  0  0  0  0  0  0
  152.1107  141.9625  157.8774 C   0  0  0  0  0  0  0  0  0  0  0  0
  152.0615  142.0352  159.4139 C   0  0  0  0  0  0  0  0  0  0  0  0
  147.4331  141.9927  153.3142 H   0  0  0  0  0  0  0  0  0  0  0  0
  154.4696  142.1045  164.1017 H   0  0  0  0  0  0  0  0  0  0  0  0
  152.8635  142.8152  164.2267 H   0  0  0  0  0  0  0  0  0  0  0  0
  154.2289  143.8045  163.7096 H   0  0  0  0  0  0  0  0  0  0  0  0
  154.4546  142.3923  161.6458 H   0  0  0  0  0  0  0  0  0  0  0  0
  153.0887  141.4250  162.1473 H   0  0  0  0  0  0  0  0  0  0  0  0
  151.5297  143.1747  161.8060 H   0  0  0  0  0  0  0  0  0  0  0  0
  152.7391  144.4279  161.8405 H   0  0  0  0  0  0  0  0  0  0  0  0
  153.6527  143.4458  159.6515 H   0  0  0  0  0  0  0  0  0  0  0  0
  150.8039  144.5499  159.6289 H   0  0  0  0  0  0  0  0  0  0  0  0
  152.2659  145.5011  159.6119 H   0  0  0  0  0  0  0  0  0  0  0  0
  151.3503  145.3207  157.3263 H   0  0  0  0  0  0  0  0  0  0  0  0
  152.9278  144.6060  157.4384 H   0  0  0  0  0  0  0  0  0  0  0  0
  151.5692  143.0878  156.1409 H   0  0  0  0  0  0  0  0  0  0  0  0
  149.7326  142.8361  158.3754 H   0  0  0  0  0  0  0  0  0  0  0  0
  149.6954  140.9141  157.0290 H   0  0  0  0  0  0  0  0  0  0  0  0
  148.2129  141.8411  156.8589 H   0  0  0  0  0  0  0  0  0  0  0  0
  149.1736  142.9353  154.7876 H   0  0  0  0  0  0  0  0  0  0  0  0
  150.6057  141.9437  154.9462 H   0  0  0  0  0  0  0  0  0  0  0  0
  148.2357  138.0088  153.3592 H   0  0  0  0  0  0  0  0  0  0  0  0
  151.7015  141.0112  157.5349 H   0  0  0  0  0  0  0  0  0  0  0  0
  153.1534  141.9737  157.5567 H   0  0  0  0  0  0  0  0  0  0  0  0
  152.6398  141.2090  159.8298 H   0  0  0  0  0  0  0  0  0  0  0  0
  151.0359  141.8904  159.7563 H   0  0  0  0  0  0  0  0  0  0  0  0
  149.4516  143.8453  157.1157 H   0  0  0  0  0  0  0  0  0  0  0  0
  1  2  1  0  0  0  0
  1 19  1  0  0  0  0
  1 20  1  0  0  0  0
  1 21  1  0  0  0  0
  2  3  1  0  0  0  0
  2 22  1  0  0  0  0
  2 23  1  0  0  0  0
  3  4  1  0  0  0  0
  3 24  1  0  0  0  0
  3 25  1  0  0  0  0
  4 17  1  0  0  0  0
  4  5  1  0  0  0  0
  4 26  1  0  0  0  0
  5  6  1  0  0  0  0
  5 27  1  0  0  0  0
  5 28  1  0  0  0  0
  6  7  1  0  0  0  0
  6 29  1  0  0  0  0
  6 30  1  0  0  0  0
  7  8  1  0  0  0  0
  7 16  1  0  0  0  0
  7 31  1  0  0  0  0
  8  9  1  0  0  0  0
  8 32  1  0  0  0  0
  8 42  1  0  0  0  0
  9 10  1  0  0  0  0
  9 33  1  0  0  0  0
  9 34  1  0  0  0  0
 10 35  1  0  0  0  0
 10 36  1  0  0  0  0
 10 11  1  0  0  0  0
 11 15  2  0  0  0  0
 11 12  1  0  0  0  0
 12 18  1  0  0  0  0
 12 13  1  0  0  0  0
 13 14  2  0  0  0  0
 14 15  1  0  0  0  0
 14 37  1  0  0  0  0
 16 17  1  0  0  0  0
 16 38  1  0  0  0  0
 16 39  1  0  0  0  0
 17 40  1  0  0  0  0
 17 41  1  0  0  0  0
M  CHG  1   8   1
M  END
> <s_m_source_file>
AV-unprocessed.smi

> <i_m_source_file_index>
3025

> <i_lp_mmshare_version>
43012

> <i_f3d_flags>
0

> <s_epik_input>
W0NIM11bQ0gyXVtDSDJdW0NAQEhdMVtDSDJdW0NIMl1bQ0BIXShbQ0gyXVtDSDJdMSlbTkhdW0NIMl1bQ0gyXWMybm5bY0hdW25IXTI=

> <s_epik_cmdline>
J2VwaWtfcHl0aG9uJywgJy1waCcsICc3LjAnLCAnLXRuJywgJzgnLCAnLW1hJywgJzIwMCcsICctbWV0YWxfYmluZGluZycsICctaW1hZScsICc8aW5maWxlLm1hZT4nLCAnLW9tYWUnLCAnPG91dGZpbGUubWFlPic=

> <r_lp_tautomer_probability>
0.948284

> <r_epik_Ionization_Penalty>
0.0093758

> <r_epik_Ionization_Penalty_Charging>
0.000546397

> <r_epik_Ionization_Penalty_Neutral>
0.00882941

> <r_epik_State_Penalty>
0.401098

> <r_epik_Charging_Adjusted_Penalty>
0.401645

> <i_epik_Tot_Q>
1

> <i_epik_Tot_abs_Q>
1

> <r_epik_Metal_State_Penalty>
0.634803

> <b_epik_Metal_Only>
0

> <s_lp_Force_Field>
OPLS_2005

> <r_lp_Energy>
16.9982

> <b_lp_Chiralities_Consistent>
1

> <s_lp_Variant>
AV-unprocessed.smi:3025-2

> <Gold.Version>
5.8.1

> <Gold.Id.Protein>
6NUR|6NUR_protein|mol2

> <Gold.PLP.Fitness>
49.7779

> <Gold.PLP.PLP>
-41.1941

> <Gold.PLP.part.hbond>
-1.5418

> <Gold.PLP.part.metal>
0.0000

> <Gold.PLP.part.buried>
-4.3860

> <Gold.PLP.part.nonpolar>
-35.0651

> <Gold.PLP.part.repulsive>
0.9997

> <Gold.PLP.ligand.clash>
0.0000

> <Gold.PLP.ligand.torsion>
0.2330

> <Gold.PLP.Chemscore.Hbond>
2.0000

> <Gold.PLP.Chemscore.CHOScore>
1.0000

> <Gold.PLP.Chemscore.Metal>
0.0000

> <Gold.Chemscore.Hbonds>
donor molecule, donor type, donor heavy atom, donor atom, acceptor molecule, acceptor atom, score
      L1  H     8    42       P1  8028  1.70
      L1  C    14    37       P1  7948  1.00

> <Gold.PLP.Chemscore.Internal.Correction>
0.0500

> <Gold.Rescore>
     Score         DG    S(hbond)    S(metal)    S(lipo)     H(rot)  DE(clash)    DE(int)     intcor
     14.77     -15.08       0.98        0.00     110.22       2.56       0.09       0.21       ----

> <Gold.Chemscore.Fitness>
14.7735

> <Gold.Chemscore.DG>
-15.0783

> <Gold.Chemscore.ZeroCoef>
-5.4800

> <Gold.Chemscore.Hbond>
0.9752

> <Gold.Chemscore.Metal>
0.0000

> <Gold.Chemscore.Lipo>
110.2177

> <Gold.Chemscore.Internal_Hbond>
0.0000

> <Gold.Chemscore.DEClash>
0.0922

> <Gold.Chemscore.DEInternal>
0.2126

> <Gold.Chemscore.Rot>
2.5602

> <Gold.Chemscore.Internal.Correction>
   9.000000E+99

> <Gold.Chemscore.Hbonds>
donor molecule, donor type, donor heavy atom, donor atom, acceptor molecule, acceptor atom, score
      L1  H     8    42       P1  8028  0.55

> <Gold.Chemscore.Hbond.Weighted>
-3.2571

> <Gold.Chemscore.Metal.Weighted>
-0.0000

> <Gold.Chemscore.Lipo.Weighted>
-12.8955

> <Gold.Chemscore.Internal_Hbond.Weighted>
0.0000

> <Gold.Chemscore.DEClash.Weighted>
0.0922

> <Gold.Chemscore.DEInternal.Weighted>
0.2126

> <Gold.Chemscore.Rot.Weighted>
6.5542

> <Gold.Chemscore.Internal.Correction.Weighted>
   9.000000E+99

> <Gold.Protein.RotatedTorsions>
[ 6907 6896 6895 6894 ] final -148.51 input  -60.11 | X-H torsion
[ 7974 7965 7964 7962 ] final  -45.70 input  175.53 | X-H torsion
[ 8008 7997 7996 7995 ] final   73.69 input   59.86 | X-H torsion
[ 10167 10162 10161 10158 ] final -100.81 input  -65.29 | X-H torsion
[ 10718 10713 10712 10709 ] final -121.50 input   66.30 | X-H torsion
[ 10763 10752 10751 10750 ] final -108.11 input  -60.55 | X-H torsion
[ 11005 11000 10999 10996 ] final   43.74 input  -57.11 | X-H torsion

> <Gold.Protein.ActiveResidues>
 VAL166  LYS551  ARG553  GLY616  TRP617  ASP618  TYR619  PRO620  LYS621  CYS622 
 ASP623  PHE694  ASN695  SER759  ASP760  ASP761  ALA762  ILE779  LEU786  VAL792 
 PHE793  MET794  SER795  GLU796  ALA797  LYS798  CYS799  TRP800  GLU811  SER814 

> <Gold.Protein.RotatedAtoms>
  151.1708  133.4785  159.2593 H   0  0  0  0  0  0  0  0  0  0  0  0  # atno 6907 bound_to 6896
  151.1358  135.0154  159.8613 H   0  0  0  0  0  0  0  0  0  0  0  0  # atno 6908 bound_to 6896
  152.5461  134.1606  159.8609 H   0  0  0  0  0  0  0  0  0  0  0  0  # atno 6909 bound_to 6896
  145.9794  140.7299  142.9371 H   0  0  0  0  0  0  0  0  0  0  0  0  # atno 7974 bound_to 7965
  155.7874  140.3480  155.5330 H   0  0  0  0  0  0  0  0  0  0  0  0  # atno 8008 bound_to 7997
  155.8668  140.0980  157.1597 H   0  0  0  0  0  0  0  0  0  0  0  0  # atno 8009 bound_to 7997
  154.4015  140.1348  156.4016 H   0  0  0  0  0  0  0  0  0  0  0  0  # atno 8010 bound_to 7997
  140.2479  143.3493  152.0741 H   0  0  0  0  0  0  0  0  0  0  0  0  # atno 10167 bound_to 10162
  156.1343  130.6418  150.9671 H   0  0  0  0  0  0  0  0  0  0  0  0  # atno 10718 bound_to 10713
  154.8116  135.4650  154.0531 H   0  0  0  0  0  0  0  0  0  0  0  0  # atno 10763 bound_to 10752
  153.1958  135.6862  153.8301 H   0  0  0  0  0  0  0  0  0  0  0  0  # atno 10764 bound_to 10752
  153.7803  135.3257  155.3342 H   0  0  0  0  0  0  0  0  0  0  0  0  # atno 10765 bound_to 10752
  140.1617  134.4333  155.8313 H   0  0  0  0  0  0  0  0  0  0  0  0  # atno 11005 bound_to 11000
  144.6857  140.2883  143.7282 LP  0  0  0  0  0  0  0  0  0  0  0  0  # atno 17320 bound_to 7965
  145.7791  139.1885  143.2168 LP  0  0  0  0  0  0  0  0  0  0  0  0  # atno 17321 bound_to 7965
  139.5056  144.6797  151.6040 LP  0  0  0  0  0  0  0  0  0  0  0  0  # atno 17342 bound_to 10162
  140.6063  143.9518  150.6421 LP  0  0  0  0  0  0  0  0  0  0  0  0  # atno 17343 bound_to 10162
  157.6517  131.0896  150.8036 LP  0  0  0  0  0  0  0  0  0  0  0  0  # atno 17370 bound_to 10713
  156.8117  130.4955  149.5355 LP  0  0  0  0  0  0  0  0  0  0  0  0  # atno 17371 bound_to 10713
  141.2210  133.6916  156.7606 LP  0  0  0  0  0  0  0  0  0  0  0  0  # atno 17394 bound_to 11000
  140.2482  134.8561  157.3641 LP  0  0  0  0  0  0  0  0  0  0  0  0  # atno 17395 bound_to 11000

$$$$
