AV-unprocessed.smi:828|AV-procd|sdf|3862|dock9
  -GOLD-   22720 1313D 1   1.00000     0.00000
 Structure written by MMmdl.
 34 35  0  0  0  0  0  0  0  0  3 V2000
  146.6118  136.1578  163.1979 C   0  0  0  0  0  0  0  0  0  0  0  0
  147.3631  135.9780  161.9236 C   0  0  0  0  0  0  0  0  0  0  0  0
  147.9747  136.9872  161.2994 N   0  0  0  0  0  0  0  0  0  0  0  0
  148.6068  136.5756  160.1351 N   0  0  0  0  0  0  0  0  0  0  0  0
  148.4718  135.2631  159.8993 C   0  0  0  0  0  0  0  0  0  0  0  0
  149.0066  134.6679  158.8202 N   0  5  0  0  0  0  0  0  0  0  0  0
  148.3799  134.7471  157.6254 C   0  0  0  0  0  0  0  0  0  0  0  0
  147.1819  134.5471  157.4134 O   0  0  0  0  0  0  0  0  0  0  0  0
  149.1924  135.0882  156.6152 N   0  0  0  0  0  0  0  0  0  0  0  0
  148.8056  135.2727  155.2201 C   0  0  0  0  0  0  0  0  0  0  0  0
  148.2291  133.9800  154.6102 C   0  0  2  0  0  0  0  0  0  0  0  0
  149.2593  132.8663  154.3912 C   0  0  0  0  0  0  0  0  0  0  0  0
  148.6107  132.0096  153.3142 C   0  0  0  0  0  0  0  0  0  0  0  0
  147.9000  133.0339  152.4269 C   0  0  0  0  0  0  0  0  0  0  0  0
  147.6387  134.2237  153.2724 N   0  3  1  0  0  0  0  0  0  0  0  0
  146.2183  134.6365  153.3005 C   0  0  0  0  0  0  0  0  0  0  0  0
  147.5168  134.4237  161.1217 S   0  0  0  0  0  0  0  0  0  0  0  0
  147.3030  136.3901  164.0083 H   0  0  0  0  0  0  0  0  0  0  0  0
  146.0689  135.2470  163.4505 H   0  0  0  0  0  0  0  0  0  0  0  0
  145.8965  136.9746  163.1000 H   0  0  0  0  0  0  0  0  0  0  0  0
  150.1659  135.2342  156.8408 H   0  0  0  0  0  0  0  0  0  0  0  0
  148.0531  136.0608  155.1953 H   0  0  0  0  0  0  0  0  0  0  0  0
  149.6441  135.6381  154.6248 H   0  0  0  0  0  0  0  0  0  0  0  0
  147.4494  133.5868  155.2658 H   0  0  0  0  0  0  0  0  0  0  0  0
  150.1951  133.2806  154.0129 H   0  0  0  0  0  0  0  0  0  0  0  0
  149.4813  132.3070  155.3008 H   0  0  0  0  0  0  0  0  0  0  0  0
  149.3288  131.3983  152.7665 H   0  0  0  0  0  0  0  0  0  0  0  0
  147.8782  131.3417  153.7694 H   0  0  0  0  0  0  0  0  0  0  0  0
  148.5515  133.3393  151.6075 H   0  0  0  0  0  0  0  0  0  0  0  0
  146.9928  132.6174  151.9865 H   0  0  0  0  0  0  0  0  0  0  0  0
  145.5891  133.8521  153.7230 H   0  0  0  0  0  0  0  0  0  0  0  0
  145.8655  134.8523  152.2916 H   0  0  0  0  0  0  0  0  0  0  0  0
  146.0899  135.5386  153.8991 H   0  0  0  0  0  0  0  0  0  0  0  0
  148.1652  134.9809  152.8604 H   0  0  0  0  0  0  0  0  0  0  0  0
  1  2  1  0  0  0  0
  1 18  1  0  0  0  0
  1 19  1  0  0  0  0
  1 20  1  0  0  0  0
  2 17  1  0  0  0  0
  2  3  2  0  0  0  0
  3  4  1  0  0  0  0
  4  5  2  0  0  0  0
  5  6  1  0  0  0  0
  5 17  1  0  0  0  0
  6  7  1  0  0  0  0
  7  8  2  0  0  0  0
  7  9  1  0  0  0  0
  9 10  1  0  0  0  0
  9 21  1  0  0  0  0
 10 11  1  0  0  0  0
 10 22  1  0  0  0  0
 10 23  1  0  0  0  0
 11 15  1  0  0  0  0
 11 12  1  0  0  0  0
 11 24  1  0  0  0  0
 12 13  1  0  0  0  0
 12 25  1  0  0  0  0
 12 26  1  0  0  0  0
 13 14  1  0  0  0  0
 13 27  1  0  0  0  0
 13 28  1  0  0  0  0
 14 15  1  0  0  0  0
 14 29  1  0  0  0  0
 14 30  1  0  0  0  0
 15 16  1  0  0  0  0
 15 34  1  0  0  0  0
 16 31  1  0  0  0  0
 16 32  1  0  0  0  0
 16 33  1  0  0  0  0
M  CHG  1   6  -1
M  CHG  1  15   1
M  END
> <s_m_source_file>
AV-unprocessed.smi

> <i_m_source_file_index>
828

> <i_lp_mmshare_version>
43012

> <i_f3d_flags>
0

> <s_epik_input>
W0NIM11jMW5uYyhzMSlbTkhdQyg9TylbTkhdW0NIMl1bQ0BASF0yW0NIMl1bQ0gyXVtDSDJdTjJbQ0gzXQ==

> <s_epik_cmdline>
J2VwaWtfcHl0aG9uJywgJy1waCcsICc3LjAnLCAnLXRuJywgJzgnLCAnLW1hJywgJzIwMCcsICctbWV0YWxfYmluZGluZycsICctaW1hZScsICc8aW5maWxlLm1hZT4nLCAnLW9tYWUnLCAnPG91dGZpbGUubWFlPic=

> <r_lp_tautomer_probability>
1

> <r_epik_Ionization_Penalty>
3.94379

> <r_epik_Ionization_Penalty_Charging>
3.83377

> <r_epik_Ionization_Penalty_Neutral>
0.110023

> <r_epik_State_Penalty>
3.83036

> <r_epik_Charging_Adjusted_Penalty>
7.66413

> <i_epik_Tot_Q>
0

> <i_epik_Tot_abs_Q>
2

> <r_epik_Metal_State_Penalty>
0.575095

> <b_epik_Metal_Only>
1

> <s_lp_Force_Field>
OPLS_2005

> <r_lp_Energy>
18.3526

> <b_lp_Chiralities_Consistent>
1

> <s_lp_Variant>
AV-unprocessed.smi:828-5

> <Gold.Version>
5.8.1

> <Gold.Id.Protein>
6NUR|6NUR_protein|mol2

> <Gold.PLP.Fitness>
38.6282

> <Gold.PLP.PLP>
-23.9135

> <Gold.PLP.part.hbond>
-4.7517

> <Gold.PLP.part.metal>
0.0000

> <Gold.PLP.part.buried>
-1.6649

> <Gold.PLP.part.nonpolar>
-18.1624

> <Gold.PLP.part.repulsive>
0.0488

> <Gold.PLP.ligand.clash>
0.0000

> <Gold.PLP.ligand.torsion>
1.1859

> <Gold.PLP.Chemscore.Hbond>
5.6880

> <Gold.PLP.Chemscore.CHOScore>
0.0000

> <Gold.PLP.Chemscore.Metal>
0.0000

> <Gold.Chemscore.Hbonds>
donor molecule, donor type, donor heavy atom, donor atom, acceptor molecule, acceptor atom, score
      L1  H    15    34       P1  7948  2.00
      P1  H  6896  6909       L1     6  2.00
      P1  H  6931  6943       L1     3  1.00
      P1  H  6934  6947       L1     3  0.41

> <Gold.PLP.Chemscore.Internal.Correction>
0.0224

> <Gold.Rescore>
     Score         DG    S(hbond)    S(metal)    S(lipo)     H(rot)  DE(clash)    DE(int)     intcor
     14.10     -16.95       2.56        0.00      53.66       1.31       0.73       2.12       ----

> <Gold.Chemscore.Fitness>
14.0956

> <Gold.Chemscore.DG>
-16.9457

> <Gold.Chemscore.ZeroCoef>
-5.4800

> <Gold.Chemscore.Hbond>
2.5609

> <Gold.Chemscore.Metal>
0.0000

> <Gold.Chemscore.Lipo>
53.6615

> <Gold.Chemscore.Internal_Hbond>
0.0000

> <Gold.Chemscore.DEClash>
0.7259

> <Gold.Chemscore.DEInternal>
2.1242

> <Gold.Chemscore.Rot>
1.3149

> <Gold.Chemscore.Internal.Correction>
   9.000000E+99

> <Gold.Chemscore.Hbonds>
donor molecule, donor type, donor heavy atom, donor atom, acceptor molecule, acceptor atom, score
      L1  H    15    34       P1  7948  0.88
      P1  H  6896  6909       L1     6  0.30
      P1  H  6931  6943       L1     3  0.39
      P1  H  6934  6947       L1     3  0.25

> <Gold.Chemscore.Hbond.Weighted>
-8.5535

> <Gold.Chemscore.Metal.Weighted>
-0.0000

> <Gold.Chemscore.Lipo.Weighted>
-6.2784

> <Gold.Chemscore.Internal_Hbond.Weighted>
0.0000

> <Gold.Chemscore.DEClash.Weighted>
0.7259

> <Gold.Chemscore.DEInternal.Weighted>
2.1242

> <Gold.Chemscore.Rot.Weighted>
3.3662

> <Gold.Chemscore.Internal.Correction.Weighted>
   9.000000E+99

> <Gold.Protein.RotatedTorsions>
[ 6907 6896 6895 6894 ] final   29.98 input  -60.11 | X-H torsion
[ 7974 7965 7964 7962 ] final   12.75 input  175.53 | X-H torsion
[ 8008 7997 7996 7995 ] final -120.00 input   59.86 | X-H torsion
[ 10167 10162 10161 10158 ] final  125.80 input  -65.29 | X-H torsion
[ 10718 10713 10712 10709 ] final   87.89 input   66.30 | X-H torsion
[ 10763 10752 10751 10750 ] final  -21.53 input  -60.55 | X-H torsion
[ 11005 11000 10999 10996 ] final -139.81 input  -57.11 | X-H torsion

> <Gold.Protein.ActiveResidues>
 VAL166  LYS551  ARG553  GLY616  TRP617  ASP618  TYR619  PRO620  LYS621  CYS622 
 ASP623  PHE694  ASN695  SER759  ASP760  ASP761  ALA762  ILE779  LEU786  VAL792 
 PHE793  MET794  SER795  GLU796  ALA797  LYS798  CYS799  TRP800  GLU811  SER814 

> <Gold.Protein.RotatedAtoms>
  152.0394  134.9721  160.0573 H   0  0  0  0  0  0  0  0  0  0  0  0  # atno 6907 bound_to 6896
  152.1165  133.4325  159.4664 H   0  0  0  0  0  0  0  0  0  0  0  0  # atno 6908 bound_to 6896
  150.6846  134.2504  159.4552 H   0  0  0  0  0  0  0  0  0  0  0  0  # atno 6909 bound_to 6896
  146.2344  139.9290  142.8499 H   0  0  0  0  0  0  0  0  0  0  0  0  # atno 7974 bound_to 7965
  155.1248  140.0399  157.2759 H   0  0  0  0  0  0  0  0  0  0  0  0  # atno 8008 bound_to 7997
  154.6587  140.2586  155.7107 H   0  0  0  0  0  0  0  0  0  0  0  0  # atno 8009 bound_to 7997
  156.2609  140.2821  156.1050 H   0  0  0  0  0  0  0  0  0  0  0  0  # atno 8010 bound_to 7997
  139.5665  144.6914  151.3895 H   0  0  0  0  0  0  0  0  0  0  0  0  # atno 10167 bound_to 10162
  157.6944  131.0273  150.3191 H   0  0  0  0  0  0  0  0  0  0  0  0  # atno 10718 bound_to 10713
  153.6376  135.6986  153.5253 H   0  0  0  0  0  0  0  0  0  0  0  0  # atno 10763 bound_to 10752
  153.2809  135.4186  155.1077 H   0  0  0  0  0  0  0  0  0  0  0  0  # atno 10764 bound_to 10752
  154.8507  135.3601  154.5919 H   0  0  0  0  0  0  0  0  0  0  0  0  # atno 10765 bound_to 10752
  140.8484  134.2316  157.4774 H   0  0  0  0  0  0  0  0  0  0  0  0  # atno 11005 bound_to 11000
  145.2063  140.9876  143.4127 LP  0  0  0  0  0  0  0  0  0  0  0  0  # atno 17320 bound_to 7965
  144.9730  139.3861  143.6299 LP  0  0  0  0  0  0  0  0  0  0  0  0  # atno 17321 bound_to 7965
  140.6949  143.7773  150.7311 LP  0  0  0  0  0  0  0  0  0  0  0  0  # atno 17342 bound_to 10162
  140.1266  143.4563  152.2280 LP  0  0  0  0  0  0  0  0  0  0  0  0  # atno 17343 bound_to 10162
  156.3681  130.3858  149.7197 LP  0  0  0  0  0  0  0  0  0  0  0  0  # atno 17370 bound_to 10713
  156.4621  130.7956  151.2976 LP  0  0  0  0  0  0  0  0  0  0  0  0  # atno 17371 bound_to 10713
  139.8704  134.9671  156.4584 LP  0  0  0  0  0  0  0  0  0  0  0  0  # atno 17394 bound_to 11000
  140.8818  133.7912  155.9475 LP  0  0  0  0  0  0  0  0  0  0  0  0  # atno 17395 bound_to 11000

$$$$
