AV-unprocessed.smi:2191|AV-procd|sdf|8893|dock1
  -GOLD-   2272012103D 1   1.00000     0.00000
 Structure written by MMmdl.
 36 38  0  0  0  0  0  0  0  0  1 V2000
  150.4138  140.0400  153.9483 O   0  0  0  0  0  0  0  0  0  0  0  0
  149.9257  140.7854  155.0469 C   0  0  1  0  0  0  0  0  0  0  0  0
  148.4129  140.5419  155.1617 C   0  0  0  0  0  0  0  0  0  0  0  0
  147.7444  141.3452  154.1983 O   0  0  0  0  0  0  0  0  0  0  0  0
  146.7657  142.2123  154.6352 C   0  0  0  0  0  0  0  0  0  0  0  0
  146.0870  142.9584  153.6496 C   0  0  0  0  0  0  0  0  0  0  0  0
  145.0738  143.8696  154.0048 C   0  0  0  0  0  0  0  0  0  0  0  0
  144.7274  144.0438  155.3573 C   0  0  0  0  0  0  0  0  0  0  0  0
  145.3951  143.3049  156.3516 C   0  0  0  0  0  0  0  0  0  0  0  0
  146.4094  142.3941  155.9960 C   0  0  0  0  0  0  0  0  0  0  0  0
  150.6749  140.3530  156.3224 C   0  0  0  0  0  0  0  0  0  0  0  0
  151.1089  141.4817  157.1270 N   0  0  0  0  0  0  0  0  0  0  0  0
  150.8906  142.7867  156.8752 C   0  0  0  0  0  0  0  0  0  0  0  0
  151.3749  143.6656  157.7480 N   0  0  0  0  0  0  0  0  0  0  0  0
  151.9777  142.8339  158.6762 C   0  0  0  0  0  0  0  0  0  0  0  0
  152.6786  143.1419  159.8643 C   0  0  0  0  0  0  0  0  0  0  0  0
  153.2118  142.1117  160.6667 C   0  0  0  0  0  0  0  0  0  0  0  0
  153.0552  140.7608  160.2937 C   0  0  0  0  0  0  0  0  0  0  0  0
  152.3625  140.4295  159.1133 C   0  0  0  0  0  0  0  0  0  0  0  0
  151.8290  141.4601  158.3169 C   0  0  0  0  0  0  0  0  0  0  0  0
  149.7779  140.0860  153.2506 H   0  0  0  0  0  0  0  0  0  0  0  0
  150.1147  141.8448  154.8679 H   0  0  0  0  0  0  0  0  0  0  0  0
  148.1824  139.4823  155.0356 H   0  0  0  0  0  0  0  0  0  0  0  0
  148.0725  140.8420  156.1542 H   0  0  0  0  0  0  0  0  0  0  0  0
  146.3467  142.8307  152.6088 H   0  0  0  0  0  0  0  0  0  0  0  0
  144.5628  144.4343  153.2392 H   0  0  0  0  0  0  0  0  0  0  0  0
  143.9510  144.7426  155.6318 H   0  0  0  0  0  0  0  0  0  0  0  0
  145.1295  143.4369  157.3900 H   0  0  0  0  0  0  0  0  0  0  0  0
  146.8988  141.8469  156.7872 H   0  0  0  0  0  0  0  0  0  0  0  0
  150.0332  139.7239  156.9409 H   0  0  0  0  0  0  0  0  0  0  0  0
  151.5465  139.7493  156.0662 H   0  0  0  0  0  0  0  0  0  0  0  0
  150.3451  143.1093  156.0004 H   0  0  0  0  0  0  0  0  0  0  0  0
  152.8051  144.1730  160.1595 H   0  0  0  0  0  0  0  0  0  0  0  0
  153.7441  142.3596  161.5733 H   0  0  0  0  0  0  0  0  0  0  0  0
  153.4682  139.9785  160.9137 H   0  0  0  0  0  0  0  0  0  0  0  0
  152.2435  139.3964  158.8229 H   0  0  0  0  0  0  0  0  0  0  0  0
  1  2  1  0  0  0  0
  1 21  1  0  0  0  0
  2  3  1  0  0  0  0
  2 11  1  0  0  0  0
  2 22  1  0  0  0  0
  3  4  1  0  0  0  0
  3 23  1  0  0  0  0
  3 24  1  0  0  0  0
  4  5  1  0  0  0  0
  5 10  1  0  0  0  0
  5  6  2  0  0  0  0
  6  7  1  0  0  0  0
  6 25  1  0  0  0  0
  7  8  2  0  0  0  0
  7 26  1  0  0  0  0
  8  9  1  0  0  0  0
  8 27  1  0  0  0  0
  9 10  2  0  0  0  0
  9 28  1  0  0  0  0
 10 29  1  0  0  0  0
 11 12  1  0  0  0  0
 11 30  1  0  0  0  0
 11 31  1  0  0  0  0
 12 20  1  0  0  0  0
 12 13  1  0  0  0  0
 13 14  2  0  0  0  0
 13 32  1  0  0  0  0
 14 15  1  0  0  0  0
 15 20  2  0  0  0  0
 15 16  1  0  0  0  0
 16 17  2  0  0  0  0
 16 33  1  0  0  0  0
 17 18  1  0  0  0  0
 17 34  1  0  0  0  0
 18 19  2  0  0  0  0
 18 35  1  0  0  0  0
 19 20  1  0  0  0  0
 19 36  1  0  0  0  0
M  END
> <s_m_source_file>
AV-unprocessed.smi

> <i_m_source_file_index>
2191

> <i_lp_mmshare_version>
43012

> <i_f3d_flags>
0

> <s_epik_input>
W2NIXTFbY0hdW2NIXVtjSF1jKGMxMiluKFtjSF1uMilbQ0gyXVtDQEhdKFtPSF0pW0NIMl1PYzNbY0hdW2NIXVtjSF1bY0hdW2NIXTM=

> <s_epik_cmdline>
J2VwaWtfcHl0aG9uJywgJy1waCcsICc3LjAnLCAnLXRuJywgJzgnLCAnLW1hJywgJzIwMCcsICctbWV0YWxfYmluZGluZycsICctaW1hZScsICc8aW5maWxlLm1hZT4nLCAnLW9tYWUnLCAnPG91dGZpbGUubWFlPic=

> <r_lp_tautomer_probability>
1

> <r_epik_Ionization_Penalty>
0.0640132

> <r_epik_Ionization_Penalty_Charging>
0

> <r_epik_Ionization_Penalty_Neutral>
0.0640132

> <r_epik_State_Penalty>
0.0557325

> <r_epik_Charging_Adjusted_Penalty>
0.0557325

> <i_epik_Tot_Q>
0

> <i_epik_Tot_abs_Q>
0

> <r_epik_Metal_State_Penalty>
5.8435e-05

> <b_epik_Metal_Only>
0

> <s_lp_Force_Field>
OPLS_2005

> <r_lp_Energy>
16.2786

> <b_lp_Chiralities_Consistent>
1

> <s_lp_Variant>
AV-unprocessed.smi:2191-2

> <Gold.Version>
5.8.1

> <Gold.Id.Protein>
6NUR|6NUR_protein|mol2

> <Gold.PLP.Fitness>
48.5647

> <Gold.PLP.PLP>
-42.9401

> <Gold.PLP.part.hbond>
-1.7571

> <Gold.PLP.part.metal>
0.0000

> <Gold.PLP.part.buried>
-3.8135

> <Gold.PLP.part.nonpolar>
-37.1640

> <Gold.PLP.part.repulsive>
0.2688

> <Gold.PLP.ligand.clash>
0.0000

> <Gold.PLP.ligand.torsion>
1.2048

> <Gold.PLP.Chemscore.Hbond>
1.6534

> <Gold.PLP.Chemscore.CHOScore>
1.0000

> <Gold.PLP.Chemscore.Metal>
0.0000

> <Gold.Chemscore.Hbonds>
donor molecule, donor type, donor heavy atom, donor atom, acceptor molecule, acceptor atom, score
      L1  H     1    21       P1  7957  0.70
      P1  H  7989  7998       L1     1  1.00
      L1  C    13    32       P1  8028  1.00

> <Gold.PLP.Chemscore.Internal.Correction>
0.0737

> <Gold.Rescore>
     Score         DG    S(hbond)    S(metal)    S(lipo)     H(rot)  DE(clash)    DE(int)     intcor
     13.60     -14.86       0.92        0.00     102.57       2.22       0.07       1.19       ----

> <Gold.Chemscore.Fitness>
13.6010

> <Gold.Chemscore.DG>
-14.8570

> <Gold.Chemscore.ZeroCoef>
-5.4800

> <Gold.Chemscore.Hbond>
0.9160

> <Gold.Chemscore.Metal>
0.0000

> <Gold.Chemscore.Lipo>
102.5698

> <Gold.Chemscore.Internal_Hbond>
0.0000

> <Gold.Chemscore.DEClash>
0.0663

> <Gold.Chemscore.DEInternal>
1.1896

> <Gold.Chemscore.Rot>
2.2200

> <Gold.Chemscore.Internal.Correction>
   9.000000E+99

> <Gold.Chemscore.Hbonds>
donor molecule, donor type, donor heavy atom, donor atom, acceptor molecule, acceptor atom, score
      L1  H     1    21       P1  7957  0.68
      P1  H  7989  7998       L1     1  0.20

> <Gold.Chemscore.Hbond.Weighted>
-3.0596

> <Gold.Chemscore.Metal.Weighted>
-0.0000

> <Gold.Chemscore.Lipo.Weighted>
-12.0007

> <Gold.Chemscore.Internal_Hbond.Weighted>
0.0000

> <Gold.Chemscore.DEClash.Weighted>
0.0663

> <Gold.Chemscore.DEInternal.Weighted>
1.1896

> <Gold.Chemscore.Rot.Weighted>
5.6832

> <Gold.Chemscore.Internal.Correction.Weighted>
   9.000000E+99

> <Gold.Protein.RotatedTorsions>
[ 6907 6896 6895 6894 ] final   68.42 input  -60.11 | X-H torsion
[ 7974 7965 7964 7962 ] final  109.35 input  175.53 | X-H torsion
[ 8008 7997 7996 7995 ] final -103.17 input   59.86 | X-H torsion
[ 10167 10162 10161 10158 ] final  -53.88 input  -65.29 | X-H torsion
[ 10718 10713 10712 10709 ] final  -15.05 input   66.30 | X-H torsion
[ 10763 10752 10751 10750 ] final  179.72 input  -60.55 | X-H torsion
[ 11005 11000 10999 10996 ] final -121.29 input  -57.11 | X-H torsion

> <Gold.Protein.ActiveResidues>
 VAL166  LYS551  ARG553  GLY616  TRP617  ASP618  TYR619  PRO620  LYS621  CYS622 
 ASP623  PHE694  ASN695  SER759  ASP760  ASP761  ALA762  ILE779  LEU786  VAL792 
 PHE793  MET794  SER795  GLU796  ALA797  LYS798  CYS799  TRP800  GLU811  SER814 

> <Gold.Protein.RotatedAtoms>
  152.4619  134.5164  159.9769 H   0  0  0  0  0  0  0  0  0  0  0  0  # atno 6907 bound_to 6896
  151.5211  133.3460  159.2909 H   0  0  0  0  0  0  0  0  0  0  0  0  # atno 6908 bound_to 6896
  150.8586  134.7961  159.7127 H   0  0  0  0  0  0  0  0  0  0  0  0  # atno 6909 bound_to 6896
  145.2689  139.2674  143.3977 H   0  0  0  0  0  0  0  0  0  0  0  0  # atno 7974 bound_to 7965
  154.8672  140.0424  157.1702 H   0  0  0  0  0  0  0  0  0  0  0  0  # atno 8008 bound_to 7997
  154.8778  140.2968  155.5422 H   0  0  0  0  0  0  0  0  0  0  0  0  # atno 8009 bound_to 7997
  156.2999  140.2417  156.3776 H   0  0  0  0  0  0  0  0  0  0  0  0  # atno 8010 bound_to 7997
  140.6461  143.2536  151.4855 H   0  0  0  0  0  0  0  0  0  0  0  0  # atno 10167 bound_to 10162
  156.6073  130.4840  149.6215 H   0  0  0  0  0  0  0  0  0  0  0  0  # atno 10718 bound_to 10713
  154.5243  135.2796  155.1235 H   0  0  0  0  0  0  0  0  0  0  0  0  # atno 10763 bound_to 10752
  154.2780  135.6291  153.5340 H   0  0  0  0  0  0  0  0  0  0  0  0  # atno 10764 bound_to 10752
  152.9943  135.5644  154.5740 H   0  0  0  0  0  0  0  0  0  0  0  0  # atno 10765 bound_to 10752
  141.0081  134.0305  157.3450 H   0  0  0  0  0  0  0  0  0  0  0  0  # atno 11005 bound_to 11000
  146.3253  140.3126  142.8628 LP  0  0  0  0  0  0  0  0  0  0  0  0  # atno 17320 bound_to 7965
  144.9353  140.8019  143.5664 LP  0  0  0  0  0  0  0  0  0  0  0  0  # atno 17321 bound_to 7965
  139.5672  144.2014  152.1782 LP  0  0  0  0  0  0  0  0  0  0  0  0  # atno 17342 bound_to 10162
  140.1300  144.5297  150.6809 LP  0  0  0  0  0  0  0  0  0  0  0  0  # atno 17343 bound_to 10162
  156.2419  130.6856  151.1564 LP  0  0  0  0  0  0  0  0  0  0  0  0  # atno 17370 bound_to 10713
  157.7264  131.0647  150.5913 LP  0  0  0  0  0  0  0  0  0  0  0  0  # atno 17371 bound_to 10713
  139.9074  135.0183  156.7547 LP  0  0  0  0  0  0  0  0  0  0  0  0  # atno 17394 bound_to 11000
  140.6779  133.9501  155.7893 LP  0  0  0  0  0  0  0  0  0  0  0  0  # atno 17395 bound_to 11000

$$$$
