AV-unprocessed.smi:761|AV-procd|sdf|3632|dock6
  -GOLD-   22720 1 23D 1   1.00000     0.00000
 Structure written by MMmdl.
 34 35  0  0  0  0  0  0  0  0  4 V2000
  154.0728  140.1506  159.0576 O   0  0  0  0  0  0  0  0  0  0  0  0
  154.2226  140.8813  160.0437 C   0  0  0  0  0  0  0  0  0  0  0  0
  154.9774  140.6393  161.1492 N   0  5  0  0  0  0  0  0  0  0  0  0
  156.1781  139.8052  161.1793 C   0  0  0  0  0  0  0  0  0  0  0  0
  155.7755  138.3298  161.3724 C   0  0  0  0  0  0  0  0  0  0  0  0
  154.7563  138.1485  162.4385 N   0  3  0  0  0  0  0  0  0  0  0  0
  155.2806  138.0811  163.8379 C   0  0  0  0  0  0  0  0  0  0  0  0
  154.4080  137.0437  164.4851 C   0  0  0  0  0  0  0  0  0  0  0  0
  153.6224  136.4470  163.5963 C   0  0  0  0  0  0  0  0  0  0  0  0
  153.8460  136.9893  162.2131 C   0  0  0  0  0  0  0  0  0  0  0  0
  153.6207  142.0832  160.0939 N   0  0  0  0  0  0  0  0  0  0  0  0
  152.7118  142.6677  159.1711 C   0  0  0  0  0  0  0  0  0  0  0  0
  152.5736  144.0731  159.1854 C   0  0  0  0  0  0  0  0  0  0  0  0
  151.6634  144.6906  158.3039 C   0  0  0  0  0  0  0  0  0  0  0  0
  150.9236  143.9357  157.4635 N   0  3  0  0  0  0  0  0  0  0  0  0
  151.0088  142.5885  157.4251 C   0  0  0  0  0  0  0  0  0  0  0  0
  151.9015  141.9152  158.2834 C   0  0  0  0  0  0  0  0  0  0  0  0
  156.7705  139.8872  160.2671 H   0  0  0  0  0  0  0  0  0  0  0  0
  156.8450  140.0989  161.9903 H   0  0  0  0  0  0  0  0  0  0  0  0
  155.3585  137.9686  160.4305 H   0  0  0  0  0  0  0  0  0  0  0  0
  156.6461  137.7063  161.5823 H   0  0  0  0  0  0  0  0  0  0  0  0
  156.3212  137.7560  163.8778 H   0  0  0  0  0  0  0  0  0  0  0  0
  155.1881  139.0461  164.3366 H   0  0  0  0  0  0  0  0  0  0  0  0
  154.4527  136.8187  165.5407 H   0  0  0  0  0  0  0  0  0  0  0  0
  152.9206  135.6533  163.8066 H   0  0  0  0  0  0  0  0  0  0  0  0
  152.9124  137.3111  161.7512 H   0  0  0  0  0  0  0  0  0  0  0  0
  154.3062  136.2176  161.5939 H   0  0  0  0  0  0  0  0  0  0  0  0
  153.8885  142.6677  160.8723 H   0  0  0  0  0  0  0  0  0  0  0  0
  153.1640  144.6751  159.8613 H   0  0  0  0  0  0  0  0  0  0  0  0
  151.5042  145.7575  158.2486 H   0  0  0  0  0  0  0  0  0  0  0  0
  150.3595  142.0912  156.7195 H   0  0  0  0  0  0  0  0  0  0  0  0
  151.9409  140.8367  158.2571 H   0  0  0  0  0  0  0  0  0  0  0  0
  154.1605  138.9633  162.4033 H   0  0  0  0  0  0  0  0  0  0  0  0
  150.2687  144.4019  156.8353 H   0  0  0  0  0  0  0  0  0  0  0  0
  1  2  2  0  0  0  0
  2  3  1  0  0  0  0
  2 11  1  0  0  0  0
  3  4  1  0  0  0  0
  4  5  1  0  0  0  0
  4 18  1  0  0  0  0
  4 19  1  0  0  0  0
  5  6  1  0  0  0  0
  5 20  1  0  0  0  0
  5 21  1  0  0  0  0
  6 10  1  0  0  0  0
  6  7  1  0  0  0  0
  6 33  1  0  0  0  0
  7  8  1  0  0  0  0
  7 22  1  0  0  0  0
  7 23  1  0  0  0  0
  8  9  2  0  0  0  0
  8 24  1  0  0  0  0
  9 10  1  0  0  0  0
  9 25  1  0  0  0  0
 10 26  1  0  0  0  0
 10 27  1  0  0  0  0
 11 12  1  0  0  0  0
 11 28  1  0  0  0  0
 12 17  1  0  0  0  0
 12 13  2  0  0  0  0
 13 14  1  0  0  0  0
 13 29  1  0  0  0  0
 14 15  2  0  0  0  0
 14 30  1  0  0  0  0
 15 16  1  0  0  0  0
 15 34  1  0  0  0  0
 16 17  2  0  0  0  0
 16 31  1  0  0  0  0
 17 32  1  0  0  0  0
M  CHG  1   3  -1
M  CHG  1   6   1
M  CHG  1  15   1
M  END
> <s_m_source_file>
AV-unprocessed.smi

> <i_m_source_file_index>
761

> <i_lp_mmshare_version>
43012

> <i_f3d_flags>
0

> <s_epik_input>
W2NIXTFbY0hdbltjSF1bY0hdYzFbTkhdQyg9TylbTkhdW0NIMl1bQ0gyXU4yW0NIMl1bQ0hdPVtDSF1bQ0gyXTI=

> <s_epik_cmdline>
J2VwaWtfcHl0aG9uJywgJy1waCcsICc3LjAnLCAnLXRuJywgJzgnLCAnLW1hJywgJzIwMCcsICctbWV0YWxfYmluZGluZycsICctaW1hZScsICc8aW5maWxlLm1hZT4nLCAnLW9tYWUnLCAnPG91dGZpbGUubWFlPic=

> <r_epik_Ionization_Penalty>
8.30346

> <r_epik_Ionization_Penalty_Charging>
8.30346

> <r_epik_Ionization_Penalty_Neutral>
3.3887e-06

> <r_epik_State_Penalty>
7.87421

> <r_epik_Charging_Adjusted_Penalty>
16.1777

> <i_epik_Tot_Q>
1

> <i_epik_Tot_abs_Q>
3

> <r_epik_Metal_State_Penalty>
3.87237

> <b_epik_Metal_Only>
1

> <s_lp_Force_Field>
OPLS_2005

> <r_lp_Energy>
27.0573

> <b_lp_Chiralities_Consistent>
1

> <s_lp_Variant>
AV-unprocessed.smi:761-3

> <Gold.Version>
5.8.1

> <Gold.Id.Protein>
6NUR|6NUR_protein|mol2

> <Gold.PLP.Fitness>
46.5734

> <Gold.PLP.PLP>
-39.3389

> <Gold.PLP.part.hbond>
-2.9761

> <Gold.PLP.part.metal>
0.0000

> <Gold.PLP.part.buried>
-4.9167

> <Gold.PLP.part.nonpolar>
-31.5640

> <Gold.PLP.part.repulsive>
0.0547

> <Gold.PLP.ligand.clash>
0.0000

> <Gold.PLP.ligand.torsion>
0.8264

> <Gold.PLP.Chemscore.Hbond>
2.9440

> <Gold.PLP.Chemscore.CHOScore>
0.0000

> <Gold.PLP.Chemscore.Metal>
0.0000

> <Gold.Chemscore.Hbonds>
donor molecule, donor type, donor heavy atom, donor atom, acceptor molecule, acceptor atom, score
      L1  H    15    34       P1  8028  2.00
      P1  H  7997  8010       L1     1  0.96

> <Gold.PLP.Chemscore.Internal.Correction>
0.0553

> <Gold.Rescore>
     Score         DG    S(hbond)    S(metal)    S(lipo)     H(rot)  DE(clash)    DE(int)     intcor
     17.78     -19.78       1.91        0.00     100.69       1.51       0.03       1.97       ----

> <Gold.Chemscore.Fitness>
17.7786

> <Gold.Chemscore.DG>
-19.7771

> <Gold.Chemscore.ZeroCoef>
-5.4800

> <Gold.Chemscore.Hbond>
1.9120

> <Gold.Chemscore.Metal>
0.0000

> <Gold.Chemscore.Lipo>
100.6929

> <Gold.Chemscore.Internal_Hbond>
0.0000

> <Gold.Chemscore.DEClash>
0.0309

> <Gold.Chemscore.DEInternal>
1.9675

> <Gold.Chemscore.Rot>
1.5117

> <Gold.Chemscore.Internal.Correction>
   9.000000E+99

> <Gold.Chemscore.Hbonds>
donor molecule, donor type, donor heavy atom, donor atom, acceptor molecule, acceptor atom, score
      L1  H    15    34       P1  8028  0.91
      P1  H  7997  8010       L1     1  0.90

> <Gold.Chemscore.Hbond.Weighted>
-6.3860

> <Gold.Chemscore.Metal.Weighted>
-0.0000

> <Gold.Chemscore.Lipo.Weighted>
-11.7811

> <Gold.Chemscore.Internal_Hbond.Weighted>
0.0000

> <Gold.Chemscore.DEClash.Weighted>
0.0309

> <Gold.Chemscore.DEInternal.Weighted>
1.9675

> <Gold.Chemscore.Rot.Weighted>
3.8700

> <Gold.Chemscore.Internal.Correction.Weighted>
   9.000000E+99

> <Gold.Protein.RotatedTorsions>
[ 6907 6896 6895 6894 ] final -146.73 input  -60.11 | X-H torsion
[ 7974 7965 7964 7962 ] final  124.24 input  175.53 | X-H torsion
[ 8008 7997 7996 7995 ] final   11.03 input   59.86 | X-H torsion
[ 10167 10162 10161 10158 ] final   33.13 input  -65.29 | X-H torsion
[ 10718 10713 10712 10709 ] final   86.91 input   66.30 | X-H torsion
[ 10763 10752 10751 10750 ] final   38.70 input  -60.55 | X-H torsion
[ 11005 11000 10999 10996 ] final  -27.41 input  -57.11 | X-H torsion

> <Gold.Protein.ActiveResidues>
 VAL166  LYS551  ARG553  GLY616  TRP617  ASP618  TYR619  PRO620  LYS621  CYS622 
 ASP623  PHE694  ASN695  SER759  ASP760  ASP761  ALA762  ILE779  LEU786  VAL792 
 PHE793  MET794  SER795  GLU796  ALA797  LYS798  CYS799  TRP800  GLU811  SER814 

> <Gold.Protein.RotatedAtoms>
  151.1457  133.4941  159.2595 H   0  0  0  0  0  0  0  0  0  0  0  0  # atno 6907 bound_to 6896
  151.1607  135.0272  159.8719 H   0  0  0  0  0  0  0  0  0  0  0  0  # atno 6908 bound_to 6896
  152.5463  134.1331  159.8500 H   0  0  0  0  0  0  0  0  0  0  0  0  # atno 6909 bound_to 6896
  145.0867  139.3617  143.4881 H   0  0  0  0  0  0  0  0  0  0  0  0  # atno 7974 bound_to 7965
  154.8014  140.2852  155.5918 H   0  0  0  0  0  0  0  0  0  0  0  0  # atno 8008 bound_to 7997
  156.2977  140.2585  156.2813 H   0  0  0  0  0  0  0  0  0  0  0  0  # atno 8009 bound_to 7997
  154.9553  140.0378  157.2153 H   0  0  0  0  0  0  0  0  0  0  0  0  # atno 8010 bound_to 7997
  140.4435  144.1152  150.6178 H   0  0  0  0  0  0  0  0  0  0  0  0  # atno 10167 bound_to 10162
  157.6934  131.0234  150.3044 H   0  0  0  0  0  0  0  0  0  0  0  0  # atno 10718 bound_to 10713
  152.9992  135.6242  154.2346 H   0  0  0  0  0  0  0  0  0  0  0  0  # atno 10763 bound_to 10752
  154.2087  135.2801  155.2967 H   0  0  0  0  0  0  0  0  0  0  0  0  # atno 10764 bound_to 10752
  154.5624  135.5701  153.7078 H   0  0  0  0  0  0  0  0  0  0  0  0  # atno 10765 bound_to 10752
  140.9117  133.7456  156.0679 H   0  0  0  0  0  0  0  0  0  0  0  0  # atno 11005 bound_to 11000
  146.3531  140.0682  142.8625 LP  0  0  0  0  0  0  0  0  0  0  0  0  # atno 17320 bound_to 7965
  145.1114  140.9407  143.4654 LP  0  0  0  0  0  0  0  0  0  0  0  0  # atno 17321 bound_to 7965
  140.4290  143.2577  151.9619 LP  0  0  0  0  0  0  0  0  0  0  0  0  # atno 17342 bound_to 10162
  139.4791  144.5761  151.8009 LP  0  0  0  0  0  0  0  0  0  0  0  0  # atno 17343 bound_to 10162
  156.3555  130.3838  149.7294 LP  0  0  0  0  0  0  0  0  0  0  0  0  # atno 17370 bound_to 10713
  156.4757  130.8017  151.3034 LP  0  0  0  0  0  0  0  0  0  0  0  0  # atno 17371 bound_to 10713
  140.8102  134.3408  157.5414 LP  0  0  0  0  0  0  0  0  0  0  0  0  # atno 17394 bound_to 11000
  139.8758  134.9249  156.3362 LP  0  0  0  0  0  0  0  0  0  0  0  0  # atno 17395 bound_to 11000

$$$$
