AV-unprocessed.smi:72|AV-procd|sdf|697|dock6
  -GOLD-   2262017 13D 1   1.00000     0.00000
 Structure written by MMmdl.
 30 31  0  0  0  0  0  0  0  0  2 V2000
  146.1175  138.8879  152.1349 N   0  0  0  0  0  0  0  0  0  0  0  0
  147.0844  139.3339  153.0116 C   0  0  0  0  0  0  0  0  0  0  0  0
  148.1905  138.5285  153.2126 N   0  3  0  0  0  0  0  0  0  0  0  0
  149.2103  138.8082  154.0356 C   0  0  0  0  0  0  0  0  0  0  0  0
  149.1784  139.9239  154.7398 N   0  0  0  0  0  0  0  0  0  0  0  0
  150.2962  140.3105  155.6811 C   0  0  2  0  0  0  0  0  0  0  0  0
  151.4953  140.2596  154.9723 O   0  0  0  0  0  0  0  0  0  0  0  0
  152.0972  138.9829  155.1582 C   0  0  1  0  0  0  0  0  0  0  0  0
  153.5689  138.9867  154.7111 C   0  0  0  0  0  0  0  0  0  0  0  0
  154.2732  137.9660  155.3862 O   0  0  0  0  0  0  0  0  0  0  0  0
  151.8496  138.7439  156.6507 C   0  0  1  0  0  0  0  0  0  0  0  0
  152.8105  139.4393  157.4282 O   0  0  0  0  0  0  0  0  0  0  0  0
  150.4326  139.2901  156.8347 C   0  0  1  0  0  0  0  0  0  0  0  0
  150.2270  139.8575  158.1151 O   0  0  0  0  0  0  0  0  0  0  0  0
  148.1041  140.8348  154.5654 C   0  0  0  0  0  0  0  0  0  0  0  0
  148.0905  141.9039  155.1745 O   0  0  0  0  0  0  0  0  0  0  0  0
  147.0831  140.4512  153.6841 N   0  0  0  0  0  0  0  0  0  0  0  0
  150.0765  141.3341  155.9902 H   0  0  0  0  0  0  0  0  0  0  0  0
  151.5399  138.2298  154.5971 H   0  0  0  0  0  0  0  0  0  0  0  0
  151.9078  137.6854  156.9065 H   0  0  0  0  0  0  0  0  0  0  0  0
  149.7184  138.4777  156.6918 H   0  0  0  0  0  0  0  0  0  0  0  0
  145.2796  139.4110  151.9234 H   0  0  0  0  0  0  0  0  0  0  0  0
  146.1662  138.0096  151.6386 H   0  0  0  0  0  0  0  0  0  0  0  0
  150.0361  138.1113  154.0919 H   0  0  0  0  0  0  0  0  0  0  0  0
  153.6603  138.8595  153.6320 H   0  0  0  0  0  0  0  0  0  0  0  0
  154.0382  139.9364  154.9696 H   0  0  0  0  0  0  0  0  0  0  0  0
  154.5154  138.2854  156.2423 H   0  0  0  0  0  0  0  0  0  0  0  0
  152.3650  140.1178  157.9130 H   0  0  0  0  0  0  0  0  0  0  0  0
  149.5599  140.5239  158.0468 H   0  0  0  0  0  0  0  0  0  0  0  0
  148.2321  137.6634  152.6928 H   0  0  0  0  0  0  0  0  0  0  0  0
  1  2  1  0  0  0  0
  1 22  1  0  0  0  0
  1 23  1  0  0  0  0
  2 17  2  0  0  0  0
  2  3  1  0  0  0  0
  3  4  2  0  0  0  0
  3 30  1  0  0  0  0
  4  5  1  0  0  0  0
  4 24  1  0  0  0  0
  5  6  1  0  0  0  0
  5 15  1  0  0  0  0
  6 18  1  0  0  0  0
  6 13  1  0  0  0  0
  6  7  1  0  0  0  0
  7  8  1  0  0  0  0
  8 19  1  0  0  0  0
  8  9  1  0  0  0  0
  8 11  1  0  0  0  0
  9 10  1  0  0  0  0
  9 25  1  0  0  0  0
  9 26  1  0  0  0  0
 10 27  1  0  0  0  0
 11 20  1  0  0  0  0
 11 12  1  0  0  0  0
 11 13  1  0  0  0  0
 12 28  1  0  0  0  0
 13 21  1  0  0  0  0
 13 14  1  0  0  0  0
 14 29  1  0  0  0  0
 15 16  2  0  0  0  0
 15 17  1  0  0  0  0
M  CHG  1   3   1
M  END
> <s_m_source_file>
AV-unprocessed.smi

> <i_m_source_file_index>
72

> <i_lp_mmshare_version>
43012

> <i_f3d_flags>
0

> <s_epik_input>
W05IMl1jMW5bY0hdbihjKD1PKW4xKVtDQEBIXTJPW0NASF0oW0NIMl1bT0hdKVtDQEBIXShbT0hdKVtDQEhdMltPSF0=

> <s_epik_cmdline>
J2VwaWtfcHl0aG9uJywgJy1waCcsICc3LjAnLCAnLXRuJywgJzgnLCAnLW1hJywgJzIwMCcsICctbWV0YWxfYmluZGluZycsICctaW1hZScsICc8aW5maWxlLm1hZT4nLCAnLW9tYWUnLCAnPG91dGZpbGUubWFlPic=

> <r_lp_tautomer_probability>
4.77166e-05

> <r_epik_Ionization_Penalty>
0.104979

> <r_epik_Ionization_Penalty_Charging>
0.0999619

> <r_epik_Ionization_Penalty_Neutral>
0.00501745

> <r_epik_State_Penalty>
2.51541

> <r_epik_Charging_Adjusted_Penalty>
2.61537

> <i_epik_Tot_Q>
1

> <i_epik_Tot_abs_Q>
1

> <r_epik_Metal_State_Penalty>
3.53763

> <b_epik_Metal_Only>
0

> <s_epik_Chemistry_Notes>
This compound contains an acetal/aminal-like group ( X-CH(R)-Y where X, Y are N, S, or O) that may be acid/base labile, releasing an aldehyde.

> <s_lp_Force_Field>
OPLS_2005

> <r_lp_Energy>
33.8759

> <b_lp_Chiralities_Consistent>
1

> <s_lp_Variant>
AV-unprocessed.smi:72-35

> <Gold.Version>
5.8.1

> <Gold.Id.Protein>
6NUR|6NUR_protein|mol2

> <Gold.PLP.Fitness>
40.6473

> <Gold.PLP.PLP>
-26.1906

> <Gold.PLP.part.hbond>
-7.1502

> <Gold.PLP.part.metal>
0.0000

> <Gold.PLP.part.buried>
-2.4663

> <Gold.PLP.part.nonpolar>
-18.9749

> <Gold.PLP.part.repulsive>
2.0778

> <Gold.PLP.ligand.clash>
0.0000

> <Gold.PLP.ligand.torsion>
0.2628

> <Gold.PLP.Chemscore.Hbond>
4.9833

> <Gold.PLP.Chemscore.CHOScore>
0.0000

> <Gold.PLP.Chemscore.Metal>
0.0000

> <Gold.Chemscore.Hbonds>
donor molecule, donor type, donor heavy atom, donor atom, acceptor molecule, acceptor atom, score
      L1  H     1    22       P1 10175  1.00
      L1  H     3    30       P1  7948  2.00
      P1  H  7989  7998       L1     7  1.00
      P1  H  7997  8010       L1    12  1.00

> <Gold.PLP.Chemscore.Internal.Correction>
0.0326

> <Gold.Rescore>
     Score         DG    S(hbond)    S(metal)    S(lipo)     H(rot)  DE(clash)    DE(int)     intcor
     10.46     -10.77       3.78        0.00      26.69       4.08       0.17       0.14       ----

> <Gold.Chemscore.Fitness>
10.4603

> <Gold.Chemscore.DG>
-10.7741

> <Gold.Chemscore.ZeroCoef>
-5.4800

> <Gold.Chemscore.Hbond>
3.7760

> <Gold.Chemscore.Metal>
0.0000

> <Gold.Chemscore.Lipo>
26.6898

> <Gold.Chemscore.Internal_Hbond>
0.0000

> <Gold.Chemscore.DEClash>
0.1739

> <Gold.Chemscore.DEInternal>
0.1399

> <Gold.Chemscore.Rot>
4.0783

> <Gold.Chemscore.Internal.Correction>
   9.000000E+99

> <Gold.Chemscore.Hbonds>
donor molecule, donor type, donor heavy atom, donor atom, acceptor molecule, acceptor atom, score
      L1  H     1    22       P1 10175  0.91
      L1  H     3    30       P1  7948  0.99
      P1  H  7989  7998       L1     7  0.84
      P1  H  7997  8010       L1    12  0.74

> <Gold.Chemscore.Hbond.Weighted>
-12.6118

> <Gold.Chemscore.Metal.Weighted>
-0.0000

> <Gold.Chemscore.Lipo.Weighted>
-3.1227

> <Gold.Chemscore.Internal_Hbond.Weighted>
0.0000

> <Gold.Chemscore.DEClash.Weighted>
0.1739

> <Gold.Chemscore.DEInternal.Weighted>
0.1399

> <Gold.Chemscore.Rot.Weighted>
10.4404

> <Gold.Chemscore.Internal.Correction.Weighted>
   9.000000E+99

> <Gold.Protein.RotatedTorsions>
[ 6907 6896 6895 6894 ] final  -51.61 input  -60.11 | X-H torsion
[ 7974 7965 7964 7962 ] final -156.47 input  175.53 | X-H torsion
[ 8008 7997 7996 7995 ] final   50.64 input   59.86 | X-H torsion
[ 10167 10162 10161 10158 ] final   13.88 input  -65.29 | X-H torsion
[ 10718 10713 10712 10709 ] final  -21.86 input   66.30 | X-H torsion
[ 10763 10752 10751 10750 ] final  -54.09 input  -60.55 | X-H torsion
[ 11005 11000 10999 10996 ] final -116.06 input  -57.11 | X-H torsion

> <Gold.Protein.ActiveResidues>
 VAL166  LYS551  ARG553  GLY616  TRP617  ASP618  TYR619  PRO620  LYS621  CYS622 
 ASP623  PHE694  ASN695  SER759  ASP760  ASP761  ALA762  ILE779  LEU786  VAL792 
 PHE793  MET794  SER795  GLU796  ALA797  LYS798  CYS799  TRP800  GLU811  SER814 

> <Gold.Protein.RotatedAtoms>
  150.8595  134.7943  159.7071 H   0  0  0  0  0  0  0  0  0  0  0  0  # atno 6907 bound_to 6896
  152.4637  134.5123  159.9767 H   0  0  0  0  0  0  0  0  0  0  0  0  # atno 6908 bound_to 6896
  151.5229  133.3425  159.2940 H   0  0  0  0  0  0  0  0  0  0  0  0  # atno 6909 bound_to 6896
  144.7592  140.4105  143.5989 H   0  0  0  0  0  0  0  0  0  0  0  0  # atno 7974 bound_to 7965
  155.4222  140.3447  155.4272 H   0  0  0  0  0  0  0  0  0  0  0  0  # atno 8008 bound_to 7997
  156.1386  140.1535  156.8986 H   0  0  0  0  0  0  0  0  0  0  0  0  # atno 8009 bound_to 7997
  154.4952  140.0830  156.7662 H   0  0  0  0  0  0  0  0  0  0  0  0  # atno 8010 bound_to 7997
  140.5973  143.8676  150.6930 H   0  0  0  0  0  0  0  0  0  0  0  0  # atno 10167 bound_to 10162
  156.5123  130.4613  149.6641 H   0  0  0  0  0  0  0  0  0  0  0  0  # atno 10718 bound_to 10713
  154.1693  135.6462  153.5005 H   0  0  0  0  0  0  0  0  0  0  0  0  # atno 10763 bound_to 10752
  153.0089  135.5379  154.6629 H   0  0  0  0  0  0  0  0  0  0  0  0  # atno 10764 bound_to 10752
  154.5964  135.2939  155.0554 H   0  0  0  0  0  0  0  0  0  0  0  0  # atno 10765 bound_to 10752
  141.0447  133.9782  157.2938 H   0  0  0  0  0  0  0  0  0  0  0  0  # atno 11005 bound_to 11000
  145.6677  139.1593  143.2772 LP  0  0  0  0  0  0  0  0  0  0  0  0  # atno 17320 bound_to 7965
  146.1636  140.6752  142.9266 LP  0  0  0  0  0  0  0  0  0  0  0  0  # atno 17321 bound_to 7965
  140.2214  143.3806  152.1640 LP  0  0  0  0  0  0  0  0  0  0  0  0  # atno 17342 bound_to 10162
  139.5267  144.7110  151.5205 LP  0  0  0  0  0  0  0  0  0  0  0  0  # atno 17343 bound_to 10162
  156.3228  130.7290  151.2205 LP  0  0  0  0  0  0  0  0  0  0  0  0  # atno 17370 bound_to 10713
  157.7449  131.0451  150.4826 LP  0  0  0  0  0  0  0  0  0  0  0  0  # atno 17371 bound_to 10713
  139.9302  135.0200  156.8375 LP  0  0  0  0  0  0  0  0  0  0  0  0  # atno 17394 bound_to 11000
  140.6169  134.0030  155.7601 LP  0  0  0  0  0  0  0  0  0  0  0  0  # atno 17395 bound_to 11000

$$$$
