AV-unprocessed.smi:1870|AV-procd|sdf|7597|dock7
  -GOLD-   22720 9313D 1   1.00000     0.00000
 Structure written by MMmdl.
 47 49  0  0  0  0  0  0  0  0  1 V2000
  147.1409  139.1343  156.9416 C   0  0  0  0  0  0  0  0  0  0  0  0
  148.2136  138.1122  156.6785 C   0  0  0  0  0  0  0  0  0  0  0  0
  149.1881  138.4769  155.9117 N   0  0  0  0  0  0  0  0  0  0  0  0
  150.2228  137.6148  155.6030 N   0  0  0  0  0  0  0  0  0  0  0  0
  151.2360  138.1936  154.7119 C   0  0  0  0  0  0  0  0  0  0  0  0
  152.0017  139.3541  155.3832 C   0  0  2  0  0  0  0  0  0  0  0  0
  153.2463  139.5079  154.7310 O   0  0  0  0  0  0  0  0  0  0  0  0
  152.3059  139.0419  156.8635 C   0  0  0  0  0  0  0  0  0  0  0  0
  152.5897  140.2027  157.7105 N   0  0  0  0  0  0  0  0  0  0  0  0
  152.5131  139.8470  159.1241 C   0  0  0  0  0  0  0  0  0  0  0  0
  153.0514  140.9695  160.0244 C   0  0  0  0  0  0  0  0  0  0  0  0
  152.4922  142.3292  159.6412 C   0  0  0  0  0  0  0  0  0  0  0  0
  152.6277  143.4236  160.5196 C   0  0  0  0  0  0  0  0  0  0  0  0
  152.1320  144.6893  160.1517 C   0  0  0  0  0  0  0  0  0  0  0  0
  151.5012  144.8640  158.9049 C   0  0  0  0  0  0  0  0  0  0  0  0
  151.3653  143.7734  158.0242 C   0  0  0  0  0  0  0  0  0  0  0  0
  151.8636  142.5048  158.3852 C   0  0  0  0  0  0  0  0  0  0  0  0
  151.6797  141.3225  157.4418 C   0  0  0  0  0  0  0  0  0  0  0  0
  150.3231  136.3307  156.0507 C   0  0  0  0  0  0  0  0  0  0  0  0
  151.2593  135.5908  155.7450 O   0  0  0  0  0  0  0  0  0  0  0  0
  149.2180  135.9257  156.9226 C   0  0  0  0  0  0  0  0  0  0  0  0
  149.2861  134.5888  157.4176 C   0  0  0  0  0  0  0  0  0  0  0  0
  149.3457  133.5121  157.8387 N   0  0  0  0  0  0  0  0  0  0  0  0
  148.1992  136.7644  157.2374 C   0  0  0  0  0  0  0  0  0  0  0  0
  147.0283  136.3917  158.1368 C   0  0  0  0  0  0  0  0  0  0  0  0
  147.0886  139.3753  158.0034 H   0  0  0  0  0  0  0  0  0  0  0  0
  146.1652  138.7604  156.6308 H   0  0  0  0  0  0  0  0  0  0  0  0
  147.3236  140.0647  156.4017 H   0  0  0  0  0  0  0  0  0  0  0  0
  151.9406  137.3987  154.4610 H   0  0  0  0  0  0  0  0  0  0  0  0
  150.8173  138.5019  153.7518 H   0  0  0  0  0  0  0  0  0  0  0  0
  151.4245  140.2734  155.2920 H   0  0  0  0  0  0  0  0  0  0  0  0
  153.1173  139.3605  153.8062 H   0  0  0  0  0  0  0  0  0  0  0  0
  151.4688  138.4905  157.2943 H   0  0  0  0  0  0  0  0  0  0  0  0
  153.1540  138.3557  156.8936 H   0  0  0  0  0  0  0  0  0  0  0  0
  151.4781  139.6242  159.3888 H   0  0  0  0  0  0  0  0  0  0  0  0
  153.0846  138.9391  159.3204 H   0  0  0  0  0  0  0  0  0  0  0  0
  152.8210  140.7554  161.0685 H   0  0  0  0  0  0  0  0  0  0  0  0
  154.1378  141.0166  159.9425 H   0  0  0  0  0  0  0  0  0  0  0  0
  153.1151  143.2958  161.4751 H   0  0  0  0  0  0  0  0  0  0  0  0
  152.2369  145.5269  160.8253 H   0  0  0  0  0  0  0  0  0  0  0  0
  151.1193  145.8347  158.6249 H   0  0  0  0  0  0  0  0  0  0  0  0
  150.8743  143.9124  157.0722 H   0  0  0  0  0  0  0  0  0  0  0  0
  151.8198  141.6870  156.4250 H   0  0  0  0  0  0  0  0  0  0  0  0
  150.6434  140.9904  157.5199 H   0  0  0  0  0  0  0  0  0  0  0  0
  147.1294  135.3898  158.5530 H   0  0  0  0  0  0  0  0  0  0  0  0
  146.0930  136.4224  157.5774 H   0  0  0  0  0  0  0  0  0  0  0  0
  146.9508  137.0848  158.9752 H   0  0  0  0  0  0  0  0  0  0  0  0
  1  2  1  0  0  0  0
  1 26  1  0  0  0  0
  1 27  1  0  0  0  0
  1 28  1  0  0  0  0
  2 24  1  0  0  0  0
  2  3  2  0  0  0  0
  3  4  1  0  0  0  0
  4  5  1  0  0  0  0
  4 19  1  0  0  0  0
  5  6  1  0  0  0  0
  5 29  1  0  0  0  0
  5 30  1  0  0  0  0
  6  7  1  0  0  0  0
  6  8  1  0  0  0  0
  6 31  1  0  0  0  0
  7 32  1  0  0  0  0
  8  9  1  0  0  0  0
  8 33  1  0  0  0  0
  8 34  1  0  0  0  0
  9 18  1  0  0  0  0
  9 10  1  0  0  0  0
 10 11  1  0  0  0  0
 10 35  1  0  0  0  0
 10 36  1  0  0  0  0
 11 12  1  0  0  0  0
 11 37  1  0  0  0  0
 11 38  1  0  0  0  0
 12 17  2  0  0  0  0
 12 13  1  0  0  0  0
 13 14  2  0  0  0  0
 13 39  1  0  0  0  0
 14 15  1  0  0  0  0
 14 40  1  0  0  0  0
 15 16  2  0  0  0  0
 15 41  1  0  0  0  0
 16 17  1  0  0  0  0
 16 42  1  0  0  0  0
 17 18  1  0  0  0  0
 18 43  1  0  0  0  0
 18 44  1  0  0  0  0
 19 20  2  0  0  0  0
 19 21  1  0  0  0  0
 21 22  1  0  0  0  0
 21 24  2  0  0  0  0
 22 23  3  0  0  0  0
 24 25  1  0  0  0  0
 25 45  1  0  0  0  0
 25 46  1  0  0  0  0
 25 47  1  0  0  0  0
M  END
> <s_m_source_file>
AV-unprocessed.smi

> <i_m_source_file_index>
1870

> <i_lp_mmshare_version>
43012

> <i_f3d_flags>
0

> <s_epik_input>
TiNDYyhjMVtDSDNdKWMoPU8pbihuYzFbQ0gzXSlbQ0gyXVtDQEhdKFtPSF0pW0NIMl1OKFtDSDJdW0NIMl0yKVtDSDJdYyhjMjMpW2NIXVtjSF1bY0hdW2NIXTM=

> <s_epik_cmdline>
J2VwaWtfcHl0aG9uJywgJy1waCcsICc3LjAnLCAnLXRuJywgJzgnLCAnLW1hJywgJzIwMCcsICctbWV0YWxfYmluZGluZycsICctaW1hZScsICc8aW5maWxlLm1hZT4nLCAnLW9tYWUnLCAnPG91dGZpbGUubWFlPic=

> <r_epik_Ionization_Penalty>
2.30251

> <r_epik_Ionization_Penalty_Charging>
1.06171e-10

> <r_epik_Ionization_Penalty_Neutral>
2.30251

> <r_epik_State_Penalty>
2.45335

> <r_epik_Charging_Adjusted_Penalty>
2.45335

> <i_epik_Tot_Q>
0

> <i_epik_Tot_abs_Q>
0

> <r_epik_Metal_State_Penalty>
2.45335

> <b_epik_Metal_Only>
0

> <s_lp_Force_Field>
OPLS_2005

> <r_lp_Energy>
46.0919

> <b_lp_Chiralities_Consistent>
1

> <s_lp_Variant>
AV-unprocessed.smi:1870-5

> <Gold.Version>
5.8.1

> <Gold.Id.Protein>
6NUR|6NUR_protein|mol2

> <Gold.PLP.Fitness>
50.6649

> <Gold.PLP.PLP>
-42.6582

> <Gold.PLP.part.hbond>
-5.0000

> <Gold.PLP.part.metal>
0.0000

> <Gold.PLP.part.buried>
-5.3599

> <Gold.PLP.part.nonpolar>
-32.4440

> <Gold.PLP.part.repulsive>
0.0820

> <Gold.PLP.ligand.clash>
0.0000

> <Gold.PLP.ligand.torsion>
0.5813

> <Gold.PLP.Chemscore.Hbond>
3.0504

> <Gold.PLP.Chemscore.CHOScore>
0.0000

> <Gold.PLP.Chemscore.Metal>
0.0000

> <Gold.Chemscore.Hbonds>
donor molecule, donor type, donor heavy atom, donor atom, acceptor molecule, acceptor atom, score
      P1  H  6896  6908       L1    23  0.91
      P1  H  7997  8009       L1     9  0.01
      P1  H  7997  8010       L1     7  1.00
      P1  H 10752 10764       L1    20  1.00

> <Gold.PLP.Chemscore.Internal.Correction>
0.0182

> <Gold.Rescore>
     Score         DG    S(hbond)    S(metal)    S(lipo)     H(rot)  DE(clash)    DE(int)     intcor
     22.11     -22.78       2.69        0.00     117.03       2.10       0.09       0.58       ----

> <Gold.Chemscore.Fitness>
22.1109

> <Gold.Chemscore.DG>
-22.7826

> <Gold.Chemscore.ZeroCoef>
-5.4800

> <Gold.Chemscore.Hbond>
2.6882

> <Gold.Chemscore.Metal>
0.0000

> <Gold.Chemscore.Lipo>
117.0289

> <Gold.Chemscore.Internal_Hbond>
0.0000

> <Gold.Chemscore.DEClash>
0.0944

> <Gold.Chemscore.DEInternal>
0.5773

> <Gold.Chemscore.Rot>
2.0971

> <Gold.Chemscore.Internal.Correction>
   9.000000E+99

> <Gold.Chemscore.Hbonds>
donor molecule, donor type, donor heavy atom, donor atom, acceptor molecule, acceptor atom, score
      P1  H  6896  6908       L1    23  0.20
      P1  H  7997  8010       L1     7  0.97
      P1  H 10752 10764       L1    20  0.98

> <Gold.Chemscore.Hbond.Weighted>
-8.9788

> <Gold.Chemscore.Metal.Weighted>
-0.0000

> <Gold.Chemscore.Lipo.Weighted>
-13.6924

> <Gold.Chemscore.Internal_Hbond.Weighted>
0.0000

> <Gold.Chemscore.DEClash.Weighted>
0.0944

> <Gold.Chemscore.DEInternal.Weighted>
0.5773

> <Gold.Chemscore.Rot.Weighted>
5.3685

> <Gold.Chemscore.Internal.Correction.Weighted>
   9.000000E+99

> <Gold.Protein.RotatedTorsions>
[ 6907 6896 6895 6894 ] final  119.36 input  -60.11 | X-H torsion
[ 7974 7965 7964 7962 ] final  129.90 input  175.53 | X-H torsion
[ 8008 7997 7996 7995 ] final  127.11 input   59.86 | X-H torsion
[ 10167 10162 10161 10158 ] final   31.30 input  -65.29 | X-H torsion
[ 10718 10713 10712 10709 ] final -146.75 input   66.30 | X-H torsion
[ 10763 10752 10751 10750 ] final  -45.62 input  -60.55 | X-H torsion
[ 11005 11000 10999 10996 ] final  -58.36 input  -57.11 | X-H torsion

> <Gold.Protein.ActiveResidues>
 VAL166  LYS551  ARG553  GLY616  TRP617  ASP618  TYR619  PRO620  LYS621  CYS622 
 ASP623  PHE694  ASN695  SER759  ASP760  ASP761  ALA762  ILE779  LEU786  VAL792 
 PHE793  MET794  SER795  GLU796  ALA797  LYS798  CYS799  TRP800  GLU811  SER814 

> <Gold.Protein.RotatedAtoms>
  152.4477  133.7569  159.6724 H   0  0  0  0  0  0  0  0  0  0  0  0  # atno 6907 bound_to 6896
  150.8381  133.7970  159.3077 H   0  0  0  0  0  0  0  0  0  0  0  0  # atno 6908 bound_to 6896
  151.5603  135.1068  160.0023 H   0  0  0  0  0  0  0  0  0  0  0  0  # atno 6909 bound_to 6896
  145.0237  139.4109  143.5184 H   0  0  0  0  0  0  0  0  0  0  0  0  # atno 7974 bound_to 7965
  156.2882  140.2676  156.2220 H   0  0  0  0  0  0  0  0  0  0  0  0  # atno 8008 bound_to 7997
  155.0158  140.0387  157.2436 H   0  0  0  0  0  0  0  0  0  0  0  0  # atno 8009 bound_to 7997
  154.7478  140.2737  155.6323 H   0  0  0  0  0  0  0  0  0  0  0  0  # atno 8010 bound_to 7997
  140.4601  144.0919  150.6211 H   0  0  0  0  0  0  0  0  0  0  0  0  # atno 10167 bound_to 10162
  156.3989  130.7923  151.2132 H   0  0  0  0  0  0  0  0  0  0  0  0  # atno 10718 bound_to 10713
  154.0315  135.6656  153.4781 H   0  0  0  0  0  0  0  0  0  0  0  0  # atno 10763 bound_to 10752
  153.0538  135.5068  154.7928 H   0  0  0  0  0  0  0  0  0  0  0  0  # atno 10764 bound_to 10752
  154.6875  135.3055  154.9491 H   0  0  0  0  0  0  0  0  0  0  0  0  # atno 10765 bound_to 10752
  141.1204  133.6612  156.4909 H   0  0  0  0  0  0  0  0  0  0  0  0  # atno 11005 bound_to 11000
  146.3489  139.9749  142.8702 LP  0  0  0  0  0  0  0  0  0  0  0  0  # atno 17320 bound_to 7965
  145.1862  140.9790  143.4237 LP  0  0  0  0  0  0  0  0  0  0  0  0  # atno 17321 bound_to 7965
  140.4104  143.2660  151.9840 LP  0  0  0  0  0  0  0  0  0  0  0  0  # atno 17342 bound_to 10162
  139.4805  144.5921  151.7754 LP  0  0  0  0  0  0  0  0  0  0  0  0  # atno 17343 bound_to 10162
  157.7503  131.0293  150.4086 LP  0  0  0  0  0  0  0  0  0  0  0  0  # atno 17370 bound_to 10713
  156.4362  130.3982  149.6727 LP  0  0  0  0  0  0  0  0  0  0  0  0  # atno 17371 bound_to 10713
  140.4524  134.6917  157.5046 LP  0  0  0  0  0  0  0  0  0  0  0  0  # atno 17394 bound_to 11000
  140.0157  134.6623  155.9313 LP  0  0  0  0  0  0  0  0  0  0  0  0  # atno 17395 bound_to 11000

$$$$
