AV-unprocessed.smi:3274|AV-procd|sdf|12528|dock8
  -GOLD-   2272018443D 1   1.00000     0.00000
 Structure written by MMmdl.
 43 44  0  0  0  0  0  0  0  0  2 V2000
  154.2092  140.9412  160.9409 C   0  0  0  0  0  0  0  0  0  0  0  0
  153.3162  142.1445  160.6921 C   0  0  0  0  0  0  0  0  0  0  0  0
  152.8428  142.8525  161.7353 C   0  0  0  0  0  0  0  0  0  0  0  0
  152.0066  144.1048  161.6067 C   0  0  0  0  0  0  0  0  0  0  0  0
  152.1750  144.7390  160.2240 C   0  0  0  0  0  0  0  0  0  0  0  0
  151.9953  143.7010  159.1042 C   0  0  1  0  0  0  0  0  0  0  0  0
  152.0762  144.4065  157.7360 C   0  0  0  0  0  0  0  0  0  0  0  0
  153.0045  142.5175  159.2279 C   0  0  2  0  0  0  0  0  0  0  0  0
  152.5132  141.3041  158.3949 C   0  0  0  0  0  0  0  0  0  0  0  0
  151.0911  140.9791  158.6427 N   0  3  0  0  0  0  0  0  0  0  0  0
  150.3286  140.5072  157.4631 C   0  0  1  0  0  0  0  0  0  0  0  0
  148.8557  140.2438  157.8196 C   0  0  0  0  0  0  0  0  0  0  0  0
  150.4351  141.5301  156.3154 C   0  0  0  0  0  0  0  0  0  0  0  0
  149.6223  141.1620  155.1701 N   0  0  0  0  0  0  0  0  0  0  0  0
  148.4977  141.6994  154.6944 C   0  0  0  0  0  0  0  0  0  0  0  0
  148.0238  141.0832  153.6207 N   0  0  0  0  0  0  0  0  0  0  0  0
  148.9760  140.1146  153.4728 C   0  0  0  0  0  0  0  0  0  0  0  0
  149.9536  140.1146  154.3795 N   0  0  0  0  0  0  0  0  0  0  0  0
  155.1245  141.0183  160.3540 H   0  0  0  0  0  0  0  0  0  0  0  0
  153.6963  140.0153  160.6819 H   0  0  0  0  0  0  0  0  0  0  0  0
  154.4967  140.8692  161.9905 H   0  0  0  0  0  0  0  0  0  0  0  0
  153.0678  142.5404  162.7451 H   0  0  0  0  0  0  0  0  0  0  0  0
  150.9630  143.8492  161.7931 H   0  0  0  0  0  0  0  0  0  0  0  0
  152.3058  144.8158  162.3774 H   0  0  0  0  0  0  0  0  0  0  0  0
  151.4577  145.5528  160.1108 H   0  0  0  0  0  0  0  0  0  0  0  0
  153.1660  145.1891  160.1484 H   0  0  0  0  0  0  0  0  0  0  0  0
  150.9869  143.2967  159.2087 H   0  0  0  0  0  0  0  0  0  0  0  0
  153.0708  144.8184  157.5620 H   0  0  0  0  0  0  0  0  0  0  0  0
  151.3668  145.2330  157.6821 H   0  0  0  0  0  0  0  0  0  0  0  0
  151.8449  143.7398  156.9069 H   0  0  0  0  0  0  0  0  0  0  0  0
  153.9520  142.8593  158.8081 H   0  0  0  0  0  0  0  0  0  0  0  0
  152.6699  141.5042  157.3339 H   0  0  0  0  0  0  0  0  0  0  0  0
  153.0945  140.4142  158.6257 H   0  0  0  0  0  0  0  0  0  0  0  0
  151.0301  140.2875  159.3764 H   0  0  0  0  0  0  0  0  0  0  0  0
  150.7733  139.5714  157.1200 H   0  0  0  0  0  0  0  0  0  0  0  0
  148.2894  139.9407  156.9384 H   0  0  0  0  0  0  0  0  0  0  0  0
  148.3794  141.1362  158.2273 H   0  0  0  0  0  0  0  0  0  0  0  0
  148.7526  139.4444  158.5534 H   0  0  0  0  0  0  0  0  0  0  0  0
  150.1035  142.5122  156.6550 H   0  0  0  0  0  0  0  0  0  0  0  0
  151.4724  141.6456  155.9959 H   0  0  0  0  0  0  0  0  0  0  0  0
  148.0129  142.5530  155.1450 H   0  0  0  0  0  0  0  0  0  0  0  0
  148.9437  139.3833  152.6783 H   0  0  0  0  0  0  0  0  0  0  0  0
  150.6450  141.8255  158.9678 H   0  0  0  0  0  0  0  0  0  0  0  0
  1  2  1  0  0  0  0
  1 19  1  0  0  0  0
  1 20  1  0  0  0  0
  1 21  1  0  0  0  0
  2  8  1  0  0  0  0
  2  3  2  0  0  0  0
  3  4  1  0  0  0  0
  3 22  1  0  0  0  0
  4  5  1  0  0  0  0
  4 23  1  0  0  0  0
  4 24  1  0  0  0  0
  5  6  1  0  0  0  0
  5 25  1  0  0  0  0
  5 26  1  0  0  0  0
  6  7  1  0  0  0  0
  6  8  1  0  0  0  0
  6 27  1  0  0  0  0
  7 28  1  0  0  0  0
  7 29  1  0  0  0  0
  7 30  1  0  0  0  0
  8  9  1  0  0  0  0
  8 31  1  0  0  0  0
  9 10  1  0  0  0  0
  9 32  1  0  0  0  0
  9 33  1  0  0  0  0
 10 11  1  0  0  0  0
 10 34  1  0  0  0  0
 10 43  1  0  0  0  0
 11 12  1  0  0  0  0
 11 13  1  0  0  0  0
 11 35  1  0  0  0  0
 12 36  1  0  0  0  0
 12 37  1  0  0  0  0
 12 38  1  0  0  0  0
 13 14  1  0  0  0  0
 13 39  1  0  0  0  0
 13 40  1  0  0  0  0
 14 18  1  0  0  0  0
 14 15  1  0  0  0  0
 15 16  2  0  0  0  0
 15 41  1  0  0  0  0
 16 17  1  0  0  0  0
 17 18  2  0  0  0  0
 17 42  1  0  0  0  0
M  CHG  1  10   1
M  END
> <s_m_source_file>
AV-unprocessed.smi

> <i_m_source_file_index>
3274

> <i_lp_mmshare_version>
43012

> <i_f3d_flags>
0

> <s_epik_input>
W0NIM11DMT1bQ0hdW0NIMl1bQ0gyXVtDQEBIXShbQ0gzXSlbQ0BIXTFbQ0gyXVtOSF1bQ0BIXShbQ0gzXSlbQ0gyXW4yW2NIXW5bY0hdbjI=

> <s_epik_cmdline>
J2VwaWtfcHl0aG9uJywgJy1waCcsICc3LjAnLCAnLXRuJywgJzgnLCAnLW1hJywgJzIwMCcsICctbWV0YWxfYmluZGluZycsICctaW1hZScsICc8aW5maWxlLm1hZT4nLCAnLW9tYWUnLCAnPG91dGZpbGUubWFlPic=

> <r_lp_tautomer_probability>
1

> <r_epik_Ionization_Penalty>
0.0017527

> <r_epik_Ionization_Penalty_Charging>
0.00175191

> <r_epik_Ionization_Penalty_Neutral>
7.94565e-07

> <r_epik_State_Penalty>
0.00118605

> <r_epik_Charging_Adjusted_Penalty>
0.00293796

> <i_epik_Tot_Q>
1

> <i_epik_Tot_abs_Q>
1

> <r_epik_Metal_State_Penalty>
-0

> <b_epik_Metal_Only>
0

> <s_lp_Force_Field>
OPLS_2005

> <r_lp_Energy>
17.2451

> <b_lp_Chiralities_Consistent>
1

> <s_lp_Variant>
AV-unprocessed.smi:3274-7

> <Gold.Version>
5.8.1

> <Gold.Id.Protein>
6NUR|6NUR_protein|mol2

> <Gold.PLP.Fitness>
48.8535

> <Gold.PLP.PLP>
-43.1187

> <Gold.PLP.part.hbond>
-1.0000

> <Gold.PLP.part.metal>
0.0000

> <Gold.PLP.part.buried>
-0.5047

> <Gold.PLP.part.nonpolar>
-42.4983

> <Gold.PLP.part.repulsive>
0.6484

> <Gold.PLP.ligand.clash>
0.0000

> <Gold.PLP.ligand.torsion>
0.5031

> <Gold.PLP.Chemscore.Hbond>
0.9920

> <Gold.PLP.Chemscore.CHOScore>
1.2327

> <Gold.PLP.Chemscore.Metal>
0.0000

> <Gold.Chemscore.Hbonds>
donor molecule, donor type, donor heavy atom, donor atom, acceptor molecule, acceptor atom, score
      P1  H  7989  7998       L1    18  0.98
      L1  C    15    41       P1  8028  1.00
      L1  C    17    42       P1  7957  0.24

> <Gold.PLP.Chemscore.Internal.Correction>
0.0670

> <Gold.Rescore>
     Score         DG    S(hbond)    S(metal)    S(lipo)     H(rot)  DE(clash)    DE(int)     intcor
     13.59     -15.74       0.73        0.00     118.43       2.36       1.61       0.54       ----

> <Gold.Chemscore.Fitness>
13.5909

> <Gold.Chemscore.DG>
-15.7443

> <Gold.Chemscore.ZeroCoef>
-5.4800

> <Gold.Chemscore.Hbond>
0.7345

> <Gold.Chemscore.Metal>
0.0000

> <Gold.Chemscore.Lipo>
118.4316

> <Gold.Chemscore.Internal_Hbond>
0.0000

> <Gold.Chemscore.DEClash>
1.6102

> <Gold.Chemscore.DEInternal>
0.5432

> <Gold.Chemscore.Rot>
2.3615

> <Gold.Chemscore.Internal.Correction>
   9.000000E+99

> <Gold.Chemscore.Hbonds>
donor molecule, donor type, donor heavy atom, donor atom, acceptor molecule, acceptor atom, score
      P1  H  7989  7998       L1    18  0.13

> <Gold.Chemscore.Hbond.Weighted>
-2.4532

> <Gold.Chemscore.Metal.Weighted>
-0.0000

> <Gold.Chemscore.Lipo.Weighted>
-13.8565

> <Gold.Chemscore.Internal_Hbond.Weighted>
0.0000

> <Gold.Chemscore.DEClash.Weighted>
1.6102

> <Gold.Chemscore.DEInternal.Weighted>
0.5432

> <Gold.Chemscore.Rot.Weighted>
6.0454

> <Gold.Chemscore.Internal.Correction.Weighted>
   9.000000E+99

> <Gold.Protein.RotatedTorsions>
[ 6907 6896 6895 6894 ] final  179.66 input  -60.11 | X-H torsion
[ 7974 7965 7964 7962 ] final -129.11 input  175.53 | X-H torsion
[ 8008 7997 7996 7995 ] final -156.55 input   59.86 | X-H torsion
[ 10167 10162 10161 10158 ] final -161.83 input  -65.29 | X-H torsion
[ 10718 10713 10712 10709 ] final -133.78 input   66.30 | X-H torsion
[ 10763 10752 10751 10750 ] final  144.36 input  -60.55 | X-H torsion
[ 11005 11000 10999 10996 ] final  158.85 input  -57.11 | X-H torsion

> <Gold.Protein.ActiveResidues>
 VAL166  LYS551  ARG553  GLY616  TRP617  ASP618  TYR619  PRO620  LYS621  CYS622 
 ASP623  PHE694  ASN695  SER759  ASP760  ASP761  ALA762  ILE779  LEU786  VAL792 
 PHE793  MET794  SER795  GLU796  ALA797  LYS798  CYS799  TRP800  GLU811  SER814 

> <Gold.Protein.RotatedAtoms>
  151.6681  133.3314  159.3189 H   0  0  0  0  0  0  0  0  0  0  0  0  # atno 6907 bound_to 6896
  150.7881  134.6886  159.6493 H   0  0  0  0  0  0  0  0  0  0  0  0  # atno 6908 bound_to 6896
  152.3955  134.6376  160.0143 H   0  0  0  0  0  0  0  0  0  0  0  0  # atno 6909 bound_to 6896
  144.9604  140.7440  143.4733 H   0  0  0  0  0  0  0  0  0  0  0  0  # atno 7974 bound_to 7965
  155.7189  140.0787  157.2339 H   0  0  0  0  0  0  0  0  0  0  0  0  # atno 8008 bound_to 7997
  154.4048  140.1616  156.2434 H   0  0  0  0  0  0  0  0  0  0  0  0  # atno 8009 bound_to 7997
  155.9214  140.3397  155.6179 H   0  0  0  0  0  0  0  0  0  0  0  0  # atno 8010 bound_to 7997
  139.6436  144.0213  152.2110 H   0  0  0  0  0  0  0  0  0  0  0  0  # atno 10167 bound_to 10162
  156.2485  130.7139  151.1029 H   0  0  0  0  0  0  0  0  0  0  0  0  # atno 10718 bound_to 10713
  153.9876  135.2935  155.3415 H   0  0  0  0  0  0  0  0  0  0  0  0  # atno 10763 bound_to 10752
  154.7233  135.5099  153.8850 H   0  0  0  0  0  0  0  0  0  0  0  0  # atno 10764 bound_to 10752
  153.0825  135.6683  154.0132 H   0  0  0  0  0  0  0  0  0  0  0  0  # atno 10765 bound_to 10752
  140.1904  134.8411  157.2906 H   0  0  0  0  0  0  0  0  0  0  0  0  # atno 11005 bound_to 11000
  145.2709  139.1955  143.4842 LP  0  0  0  0  0  0  0  0  0  0  0  0  # atno 17320 bound_to 7965
  146.3351  140.2655  142.8603 LP  0  0  0  0  0  0  0  0  0  0  0  0  # atno 17321 bound_to 7965
  139.9909  144.6362  150.7815 LP  0  0  0  0  0  0  0  0  0  0  0  0  # atno 17342 bound_to 10162
  140.7503  143.2954  151.3220 LP  0  0  0  0  0  0  0  0  0  0  0  0  # atno 17343 bound_to 10162
  157.7205  131.0684  150.6155 LP  0  0  0  0  0  0  0  0  0  0  0  0  # atno 17370 bound_to 10713
  156.6233  130.4412  149.5814 LP  0  0  0  0  0  0  0  0  0  0  0  0  # atno 17371 bound_to 10713
  140.2166  134.4074  155.7586 LP  0  0  0  0  0  0  0  0  0  0  0  0  # atno 17394 bound_to 11000
  141.2226  133.7145  156.8423 LP  0  0  0  0  0  0  0  0  0  0  0  0  # atno 17395 bound_to 11000

$$$$
