AV-unprocessed.smi:327|AV-procd|sdf|2346|dock7
  -GOLD-   2262022253D 1   1.00000     0.00000
 Structure written by MMmdl.
 47 48  0  0  0  0  0  0  0  0  1 V2000
  145.5800  143.1331  160.7737 C   0  0  0  0  0  0  0  0  0  0  0  0
  145.6722  142.1073  159.8013 O   0  0  0  0  0  0  0  0  0  0  0  0
  145.9865  142.6062  158.5117 C   0  0  0  0  0  0  0  0  0  0  0  0
  145.7327  141.5203  157.4535 C   0  0  0  0  0  0  0  0  0  0  0  0
  146.7118  141.5820  156.3621 N   0  0  0  0  0  0  0  0  0  0  0  0
  148.0289  141.5233  156.7870 N   0  0  0  0  0  0  0  0  0  0  0  0
  148.9938  141.5798  155.9265 C   0  0  0  0  0  0  0  0  0  0  0  0
  150.4223  141.5336  156.3449 C   0  0  0  0  0  0  0  0  0  0  0  0
  151.2990  141.0655  155.6164 O   0  0  0  0  0  0  0  0  0  0  0  0
  150.6801  142.0459  157.5621 N   0  0  0  0  0  0  0  0  0  0  0  0
  151.9965  142.1542  158.1861 C   0  0  0  0  0  0  0  0  0  0  0  0
  152.0356  141.2502  159.4377 C   0  0  0  0  0  0  0  0  0  0  0  0
  153.2585  141.4359  160.3584 C   0  0  0  0  0  0  0  0  0  0  0  0
  152.9780  142.2490  161.6390 C   0  0  0  0  0  0  0  0  0  0  0  0
  152.6994  143.7558  161.4630 C   0  0  0  0  0  0  0  0  0  0  0  0
  151.3594  144.0900  160.7764 C   0  0  0  0  0  0  0  0  0  0  0  0
  151.4593  144.4893  159.2916 C   0  0  0  0  0  0  0  0  0  0  0  0
  152.3848  143.6359  158.4016 C   0  0  0  0  0  0  0  0  0  0  0  0
  148.7169  141.6986  154.5051 C   0  0  0  0  0  0  0  0  0  0  0  0
  147.4277  141.7599  154.1059 C   0  0  0  0  0  0  0  0  0  0  0  0
  146.3177  141.7071  155.0587 C   0  0  0  0  0  0  0  0  0  0  0  0
  145.1372  141.7715  154.7171 O   0  0  0  0  0  0  0  0  0  0  0  0
  145.3303  142.6987  161.7415 H   0  0  0  0  0  0  0  0  0  0  0  0
  144.8011  143.8521  160.5164 H   0  0  0  0  0  0  0  0  0  0  0  0
  146.5270  143.6644  160.8775 H   0  0  0  0  0  0  0  0  0  0  0  0
  145.3963  143.4976  158.2920 H   0  0  0  0  0  0  0  0  0  0  0  0
  147.0369  142.8995  158.4843 H   0  0  0  0  0  0  0  0  0  0  0  0
  145.7976  140.5401  157.9291 H   0  0  0  0  0  0  0  0  0  0  0  0
  144.7090  141.5892  157.0818 H   0  0  0  0  0  0  0  0  0  0  0  0
  149.8992  142.4071  158.0909 H   0  0  0  0  0  0  0  0  0  0  0  0
  152.7336  141.7413  157.4948 H   0  0  0  0  0  0  0  0  0  0  0  0
  151.1153  141.3338  160.0140 H   0  0  0  0  0  0  0  0  0  0  0  0
  152.0354  140.2178  159.0852 H   0  0  0  0  0  0  0  0  0  0  0  0
  153.5774  140.4439  160.6803 H   0  0  0  0  0  0  0  0  0  0  0  0
  154.1122  141.8394  159.8144 H   0  0  0  0  0  0  0  0  0  0  0  0
  152.1549  141.7899  162.1878 H   0  0  0  0  0  0  0  0  0  0  0  0
  153.8477  142.1495  162.2894 H   0  0  0  0  0  0  0  0  0  0  0  0
  152.6698  144.1888  162.4634 H   0  0  0  0  0  0  0  0  0  0  0  0
  153.5337  144.2534  160.9686 H   0  0  0  0  0  0  0  0  0  0  0  0
  150.6468  143.2776  160.9106 H   0  0  0  0  0  0  0  0  0  0  0  0
  150.9076  144.9316  161.3029 H   0  0  0  0  0  0  0  0  0  0  0  0
  150.4576  144.5216  158.8616 H   0  0  0  0  0  0  0  0  0  0  0  0
  151.8249  145.5159  159.2475 H   0  0  0  0  0  0  0  0  0  0  0  0
  153.4112  143.7062  158.7573 H   0  0  0  0  0  0  0  0  0  0  0  0
  152.4179  144.1148  157.4221 H   0  0  0  0  0  0  0  0  0  0  0  0
  149.5161  141.7390  153.7791 H   0  0  0  0  0  0  0  0  0  0  0  0
  147.2075  141.8501  153.0523 H   0  0  0  0  0  0  0  0  0  0  0  0
  1  2  1  0  0  0  0
  1 23  1  0  0  0  0
  1 24  1  0  0  0  0
  1 25  1  0  0  0  0
  2  3  1  0  0  0  0
  3  4  1  0  0  0  0
  3 26  1  0  0  0  0
  3 27  1  0  0  0  0
  4  5  1  0  0  0  0
  4 28  1  0  0  0  0
  4 29  1  0  0  0  0
  5 21  1  0  0  0  0
  5  6  1  0  0  0  0
  6  7  2  0  0  0  0
  7  8  1  0  0  0  0
  7 19  1  0  0  0  0
  8  9  2  0  0  0  0
  8 10  1  0  0  0  0
 10 11  1  0  0  0  0
 10 30  1  0  0  0  0
 11 18  1  0  0  0  0
 11 12  1  0  0  0  0
 11 31  1  0  0  0  0
 12 13  1  0  0  0  0
 12 32  1  0  0  0  0
 12 33  1  0  0  0  0
 13 14  1  0  0  0  0
 13 34  1  0  0  0  0
 13 35  1  0  0  0  0
 14 15  1  0  0  0  0
 14 36  1  0  0  0  0
 14 37  1  0  0  0  0
 15 16  1  0  0  0  0
 15 38  1  0  0  0  0
 15 39  1  0  0  0  0
 16 17  1  0  0  0  0
 16 40  1  0  0  0  0
 16 41  1  0  0  0  0
 17 18  1  0  0  0  0
 17 42  1  0  0  0  0
 17 43  1  0  0  0  0
 18 44  1  0  0  0  0
 18 45  1  0  0  0  0
 19 20  2  0  0  0  0
 19 46  1  0  0  0  0
 20 21  1  0  0  0  0
 20 47  1  0  0  0  0
 21 22  2  0  0  0  0
M  END
> <s_m_source_file>
AV-unprocessed.smi

> <i_m_source_file_index>
327

> <i_lp_mmshare_version>
43012

> <i_f3d_flags>
0

> <s_epik_input>
W0NIM11PW0NIMl1bQ0gyXW4xbmMoW2NIXVtjSF1jMT1PKUMoPU8pW05IXVtDSF0yW0NIMl1bQ0gyXVtDSDJdW0NIMl1bQ0gyXVtDSDJdW0NIMl0y

> <s_epik_cmdline>
J2VwaWtfcHl0aG9uJywgJy1waCcsICc3LjAnLCAnLXRuJywgJzgnLCAnLW1hJywgJzIwMCcsICctbWV0YWxfYmluZGluZycsICctaW1hZScsICc8aW5maWxlLm1hZT4nLCAnLW9tYWUnLCAnPG91dGZpbGUubWFlPic=

> <r_lp_tautomer_probability>
1

> <r_epik_Ionization_Penalty>
5.81787e-07

> <r_epik_Ionization_Penalty_Charging>
6.75108e-09

> <r_epik_Ionization_Penalty_Neutral>
5.75036e-07

> <r_epik_State_Penalty>
-0

> <r_epik_Charging_Adjusted_Penalty>
6.75108e-09

> <i_epik_Tot_Q>
0

> <i_epik_Tot_abs_Q>
0

> <r_epik_Metal_State_Penalty>
-0

> <b_epik_Metal_Only>
0

> <s_lp_Force_Field>
OPLS_2005

> <r_lp_Energy>
41.0284

> <b_lp_Chiralities_Consistent>
1

> <s_lp_Variant>
AV-unprocessed.smi:327-1

> <Gold.Version>
5.8.1

> <Gold.Id.Protein>
6NUR|6NUR_protein|mol2

> <Gold.PLP.Fitness>
44.5048

> <Gold.PLP.PLP>
-41.5196

> <Gold.PLP.part.hbond>
-2.0000

> <Gold.PLP.part.metal>
0.0000

> <Gold.PLP.part.buried>
-3.8026

> <Gold.PLP.part.nonpolar>
-35.0785

> <Gold.PLP.part.repulsive>
1.5113

> <Gold.PLP.ligand.clash>
0.0000

> <Gold.PLP.ligand.torsion>
0.6992

> <Gold.PLP.Chemscore.Hbond>
1.4446

> <Gold.PLP.Chemscore.CHOScore>
0.0000

> <Gold.PLP.Chemscore.Metal>
0.0000

> <Gold.Chemscore.Hbonds>
donor molecule, donor type, donor heavy atom, donor atom, acceptor molecule, acceptor atom, score
      P1  H  6934  6946       L1     2  1.00
      P1  H  7989  7998       L1     9  0.43

> <Gold.PLP.Chemscore.Internal.Correction>
0.0498

> <Gold.Rescore>
     Score         DG    S(hbond)    S(metal)    S(lipo)     H(rot)  DE(clash)    DE(int)     intcor
     17.97     -19.30       1.66        0.00     104.22       1.53       0.07       1.25       ----

> <Gold.Chemscore.Fitness>
17.9721

> <Gold.Chemscore.DG>
-19.2960

> <Gold.Chemscore.ZeroCoef>
-5.4800

> <Gold.Chemscore.Hbond>
1.6572

> <Gold.Chemscore.Metal>
0.0000

> <Gold.Chemscore.Lipo>
104.2175

> <Gold.Chemscore.Internal_Hbond>
0.0000

> <Gold.Chemscore.DEClash>
0.0702

> <Gold.Chemscore.DEInternal>
1.2537

> <Gold.Chemscore.Rot>
1.5283

> <Gold.Chemscore.Internal.Correction>
   9.000000E+99

> <Gold.Chemscore.Hbonds>
donor molecule, donor type, donor heavy atom, donor atom, acceptor molecule, acceptor atom, score
      P1  H  6934  6946       L1     2  0.29
      P1  H  7989  7998       L1     9  0.44

> <Gold.Chemscore.Hbond.Weighted>
-5.5349

> <Gold.Chemscore.Metal.Weighted>
-0.0000

> <Gold.Chemscore.Lipo.Weighted>
-12.1935

> <Gold.Chemscore.Internal_Hbond.Weighted>
0.0000

> <Gold.Chemscore.DEClash.Weighted>
0.0702

> <Gold.Chemscore.DEInternal.Weighted>
1.2537

> <Gold.Chemscore.Rot.Weighted>
3.9124

> <Gold.Chemscore.Internal.Correction.Weighted>
   9.000000E+99

> <Gold.Protein.RotatedTorsions>
[ 6907 6896 6895 6894 ] final  -85.81 input  -60.11 | X-H torsion
[ 7974 7965 7964 7962 ] final -121.25 input  175.53 | X-H torsion
[ 8008 7997 7996 7995 ] final  -46.87 input   59.86 | X-H torsion
[ 10167 10162 10161 10158 ] final  -19.48 input  -65.29 | X-H torsion
[ 10718 10713 10712 10709 ] final -100.63 input   66.30 | X-H torsion
[ 10763 10752 10751 10750 ] final -156.43 input  -60.55 | X-H torsion
[ 11005 11000 10999 10996 ] final    6.94 input  -57.11 | X-H torsion

> <Gold.Protein.ActiveResidues>
 VAL166  LYS551  ARG553  GLY616  TRP617  ASP618  TYR619  PRO620  LYS621  CYS622 
 ASP623  PHE694  ASN695  SER759  ASP760  ASP761  ALA762  ILE779  LEU786  VAL792 
 PHE793  MET794  SER795  GLU796  ALA797  LYS798  CYS799  TRP800  GLU811  SER814 

> <Gold.Protein.RotatedAtoms>
  150.6869  134.3148  159.4761 H   0  0  0  0  0  0  0  0  0  0  0  0  # atno 6907 bound_to 6896
  152.1029  134.9326  160.0578 H   0  0  0  0  0  0  0  0  0  0  0  0  # atno 6908 bound_to 6896
  152.0598  133.4022  159.4450 H   0  0  0  0  0  0  0  0  0  0  0  0  # atno 6909 bound_to 6896
  145.0424  140.8155  143.4258 H   0  0  0  0  0  0  0  0  0  0  0  0  # atno 7974 bound_to 7965
  154.4011  140.1360  156.4082 H   0  0  0  0  0  0  0  0  0  0  0  0  # atno 8008 bound_to 7997
  155.7759  140.3482  155.5251 H   0  0  0  0  0  0  0  0  0  0  0  0  # atno 8009 bound_to 7997
  155.8721  140.0973  157.1533 H   0  0  0  0  0  0  0  0  0  0  0  0  # atno 8010 bound_to 7997
  140.7268  143.4815  151.0112 H   0  0  0  0  0  0  0  0  0  0  0  0  # atno 10167 bound_to 10162
  156.0169  130.5336  150.6845 H   0  0  0  0  0  0  0  0  0  0  0  0  # atno 10718 bound_to 10713
  154.7714  135.3146  154.8182 H   0  0  0  0  0  0  0  0  0  0  0  0  # atno 10763 bound_to 10752
  153.8917  135.6825  153.4764 H   0  0  0  0  0  0  0  0  0  0  0  0  # atno 10764 bound_to 10752
  153.1328  135.4773  154.9310 H   0  0  0  0  0  0  0  0  0  0  0  0  # atno 10765 bound_to 10752
  140.5538  134.0257  155.7946 H   0  0  0  0  0  0  0  0  0  0  0  0  # atno 11005 bound_to 11000
  145.1631  139.2447  143.5381 LP  0  0  0  0  0  0  0  0  0  0  0  0  # atno 17320 bound_to 7965
  146.3510  140.1363  142.8596 LP  0  0  0  0  0  0  0  0  0  0  0  0  # atno 17321 bound_to 7965
  139.8514  143.7434  152.3178 LP  0  0  0  0  0  0  0  0  0  0  0  0  # atno 17342 bound_to 10162
  139.7617  144.7504  151.0354 LP  0  0  0  0  0  0  0  0  0  0  0  0  # atno 17343 bound_to 10162
  157.4540  131.0876  151.0816 LP  0  0  0  0  0  0  0  0  0  0  0  0  # atno 17370 bound_to 10713
  157.1323  130.6107  149.5533 LP  0  0  0  0  0  0  0  0  0  0  0  0  # atno 17371 bound_to 10713
  141.1155  133.9546  157.2830 LP  0  0  0  0  0  0  0  0  0  0  0  0  # atno 17394 bound_to 11000
  139.9441  135.0186  156.8800 LP  0  0  0  0  0  0  0  0  0  0  0  0  # atno 17395 bound_to 11000

$$$$
