AV-unprocessed.smi:740|AV-procd|sdf|3546|dock4
  -GOLD-   22720 0543D 1   1.00000     0.00000
 Structure written by MMmdl.
 44 46  0  0  0  0  0  0  0  0  1 V2000
  152.3862  144.5793  159.6833 C   0  0  0  0  0  0  0  0  0  0  0  0
  152.0731  143.1417  159.3078 C   0  0  0  0  0  0  0  0  0  0  0  0
  153.1179  142.1903  159.3014 C   0  0  0  0  0  0  0  0  0  0  0  0
  152.8702  140.8445  158.9540 C   0  0  0  0  0  0  0  0  0  0  0  0
  153.7313  139.7630  158.8806 N   0  0  0  0  0  0  0  0  0  0  0  0
  152.9080  138.7913  158.4979 C   0  0  0  0  0  0  0  0  0  0  0  0
  151.6137  139.1153  158.3158 N   0  0  0  0  0  0  0  0  0  0  0  0
  150.5453  138.2266  157.8956 C   0  0  0  0  0  0  0  0  0  0  0  0
  149.9813  137.3947  159.0634 C   0  0  2  0  0  0  0  0  0  0  0  0
  151.0233  136.5994  159.5963 O   0  0  0  0  0  0  0  0  0  0  0  0
  148.8357  136.4696  158.6035 C   0  0  0  0  0  0  0  0  0  0  0  0
  148.3249  135.6410  159.7019 N   0  0  0  0  0  0  0  0  0  0  0  0
  147.7418  136.1321  160.8040 C   0  0  0  0  0  0  0  0  0  0  0  0
  147.5410  137.3203  161.0538 O   0  0  0  0  0  0  0  0  0  0  0  0
  147.3467  135.0135  161.7578 C   0  0  0  0  0  0  0  0  0  0  0  0
  147.7980  133.7443  161.0196 C   0  0  1  0  0  0  0  0  0  0  0  0
  146.6561  132.7543  160.7359 C   0  0  0  0  0  0  0  0  0  0  0  0
  148.3996  134.3029  159.7314 C   0  0  0  0  0  0  0  0  0  0  0  0
  148.8830  133.5834  158.8571 O   0  0  0  0  0  0  0  0  0  0  0  0
  151.5376  140.4726  158.6098 C   0  0  0  0  0  0  0  0  0  0  0  0
  150.4890  141.4096  158.6144 C   0  0  0  0  0  0  0  0  0  0  0  0
  150.7540  142.7504  158.9641 C   0  0  0  0  0  0  0  0  0  0  0  0
  149.6156  143.7551  158.9641 C   0  0  0  0  0  0  0  0  0  0  0  0
  153.4355  144.7010  159.9536 H   0  0  0  0  0  0  0  0  0  0  0  0
  151.7836  144.8932  160.5358 H   0  0  0  0  0  0  0  0  0  0  0  0
  152.1767  145.2456  158.8462 H   0  0  0  0  0  0  0  0  0  0  0  0
  154.1230  142.4874  159.5621 H   0  0  0  0  0  0  0  0  0  0  0  0
  153.2661  137.7849  158.3370 H   0  0  0  0  0  0  0  0  0  0  0  0
  149.7558  138.8357  157.4529 H   0  0  0  0  0  0  0  0  0  0  0  0
  150.9178  137.5772  157.1024 H   0  0  0  0  0  0  0  0  0  0  0  0
  149.6287  138.0739  159.8408 H   0  0  0  0  0  0  0  0  0  0  0  0
  151.6047  137.1563  160.0910 H   0  0  0  0  0  0  0  0  0  0  0  0
  148.0092  137.0748  158.2271 H   0  0  0  0  0  0  0  0  0  0  0  0
  149.1494  135.8588  157.7549 H   0  0  0  0  0  0  0  0  0  0  0  0
  147.8602  135.1298  162.7128 H   0  0  0  0  0  0  0  0  0  0  0  0
  146.2711  135.0343  161.9367 H   0  0  0  0  0  0  0  0  0  0  0  0
  148.5863  133.2451  161.5843 H   0  0  0  0  0  0  0  0  0  0  0  0
  147.0216  131.8689  160.2145 H   0  0  0  0  0  0  0  0  0  0  0  0
  145.8760  133.2058  160.1216 H   0  0  0  0  0  0  0  0  0  0  0  0
  146.1937  132.4196  161.6647 H   0  0  0  0  0  0  0  0  0  0  0  0
  149.4899  141.0989  158.3473 H   0  0  0  0  0  0  0  0  0  0  0  0
  148.6751  143.2913  158.6651 H   0  0  0  0  0  0  0  0  0  0  0  0
  149.8235  144.5685  158.2689 H   0  0  0  0  0  0  0  0  0  0  0  0
  149.4788  144.1764  159.9603 H   0  0  0  0  0  0  0  0  0  0  0  0
  1  2  1  0  0  0  0
  1 24  1  0  0  0  0
  1 25  1  0  0  0  0
  1 26  1  0  0  0  0
  2 22  1  0  0  0  0
  2  3  2  0  0  0  0
  3  4  1  0  0  0  0
  3 27  1  0  0  0  0
  4 20  2  0  0  0  0
  4  5  1  0  0  0  0
  5  6  2  0  0  0  0
  6  7  1  0  0  0  0
  6 28  1  0  0  0  0
  7  8  1  0  0  0  0
  7 20  1  0  0  0  0
  8  9  1  0  0  0  0
  8 29  1  0  0  0  0
  8 30  1  0  0  0  0
  9 10  1  0  0  0  0
  9 11  1  0  0  0  0
  9 31  1  0  0  0  0
 10 32  1  0  0  0  0
 11 12  1  0  0  0  0
 11 33  1  0  0  0  0
 11 34  1  0  0  0  0
 12 18  1  0  0  0  0
 12 13  1  0  0  0  0
 13 14  2  0  0  0  0
 13 15  1  0  0  0  0
 15 16  1  0  0  0  0
 15 35  1  0  0  0  0
 15 36  1  0  0  0  0
 16 17  1  0  0  0  0
 16 18  1  0  0  0  0
 16 37  1  0  0  0  0
 17 38  1  0  0  0  0
 17 39  1  0  0  0  0
 17 40  1  0  0  0  0
 18 19  2  0  0  0  0
 20 21  1  0  0  0  0
 21 22  2  0  0  0  0
 21 41  1  0  0  0  0
 22 23  1  0  0  0  0
 23 42  1  0  0  0  0
 23 43  1  0  0  0  0
 23 44  1  0  0  0  0
M  END
> <s_m_source_file>
AV-unprocessed.smi

> <i_m_source_file_index>
740

> <i_lp_mmshare_version>
43012

> <i_f3d_flags>
0

> <s_epik_input>
W0NIM11jKFtjSF0xKWMoW0NIM10pW2NIXWMoYzEyKW4oW2NIXW4yKVtDSDJdW0NASF0oW09IXSlbQ0gyXU4zQyg9TylbQ0gyXVtDQEBIXShbQ0gzXSlDMz1P

> <s_epik_cmdline>
J2VwaWtfcHl0aG9uJywgJy1waCcsICc3LjAnLCAnLXRuJywgJzgnLCAnLW1hJywgJzIwMCcsICctbWV0YWxfYmluZGluZycsICctaW1hZScsICc8aW5maWxlLm1hZT4nLCAnLW9tYWUnLCAnPG91dGZpbGUubWFlPic=

> <r_lp_tautomer_probability>
1

> <r_epik_Ionization_Penalty>
0.104021

> <r_epik_Ionization_Penalty_Charging>
0

> <r_epik_Ionization_Penalty_Neutral>
0.104021

> <r_epik_State_Penalty>
0.0939354

> <r_epik_Charging_Adjusted_Penalty>
0.0939354

> <i_epik_Tot_Q>
0

> <i_epik_Tot_abs_Q>
0

> <r_epik_Metal_State_Penalty>
0.000101783

> <b_epik_Metal_Only>
0

> <s_lp_Force_Field>
OPLS_2005

> <r_lp_Energy>
16.4677

> <b_lp_Chiralities_Consistent>
1

> <s_lp_Variant>
AV-unprocessed.smi:740-1

> <Gold.Version>
5.8.1

> <Gold.Id.Protein>
6NUR|6NUR_protein|mol2

> <Gold.PLP.Fitness>
51.7020

> <Gold.PLP.PLP>
-38.3534

> <Gold.PLP.part.hbond>
-4.9011

> <Gold.PLP.part.metal>
0.0000

> <Gold.PLP.part.buried>
-2.5401

> <Gold.PLP.part.nonpolar>
-31.3370

> <Gold.PLP.part.repulsive>
0.0000

> <Gold.PLP.ligand.clash>
0.0000

> <Gold.PLP.ligand.torsion>
0.3175

> <Gold.PLP.Chemscore.Hbond>
4.6560

> <Gold.PLP.Chemscore.CHOScore>
0.0000

> <Gold.PLP.Chemscore.Metal>
0.0000

> <Gold.Chemscore.Hbonds>
donor molecule, donor type, donor heavy atom, donor atom, acceptor molecule, acceptor atom, score
      P1  H  6896  6907       L1    10  1.00
      P1  H  6896  6909       L1    19  0.90
      P1  H  6931  6943       L1    14  0.82
      P1  H  6934  6947       L1    14  0.94
      P1  H  7997  8008       L1     5  0.99

> <Gold.PLP.Chemscore.Internal.Correction>
0.0155

> <Gold.Rescore>
     Score         DG    S(hbond)    S(metal)    S(lipo)     H(rot)  DE(clash)    DE(int)     intcor
     19.40     -20.25       2.88        0.00      94.66       2.31       0.47       0.38       ----

> <Gold.Chemscore.Fitness>
19.4005

> <Gold.Chemscore.DG>
-20.2549

> <Gold.Chemscore.ZeroCoef>
-5.4800

> <Gold.Chemscore.Hbond>
2.8820

> <Gold.Chemscore.Metal>
0.0000

> <Gold.Chemscore.Lipo>
94.6552

> <Gold.Chemscore.Internal_Hbond>
0.0000

> <Gold.Chemscore.DEClash>
0.4732

> <Gold.Chemscore.DEInternal>
0.3812

> <Gold.Chemscore.Rot>
2.3147

> <Gold.Chemscore.Internal.Correction>
   9.000000E+99

> <Gold.Chemscore.Hbonds>
donor molecule, donor type, donor heavy atom, donor atom, acceptor molecule, acceptor atom, score
      P1  H  6896  6907       L1    10  0.28
      P1  H  6896  6909       L1    19  0.17
      P1  H  6931  6943       L1    14  0.75
      P1  H  6934  6947       L1    14  0.91
      P1  H  7997  8008       L1     5  0.31

> <Gold.Chemscore.Hbond.Weighted>
-9.6258

> <Gold.Chemscore.Metal.Weighted>
-0.0000

> <Gold.Chemscore.Lipo.Weighted>
-11.0747

> <Gold.Chemscore.Internal_Hbond.Weighted>
0.0000

> <Gold.Chemscore.DEClash.Weighted>
0.4732

> <Gold.Chemscore.DEInternal.Weighted>
0.3812

> <Gold.Chemscore.Rot.Weighted>
5.9256

> <Gold.Chemscore.Internal.Correction.Weighted>
   9.000000E+99

> <Gold.Protein.RotatedTorsions>
[ 6907 6896 6895 6894 ] final    2.35 input  -60.11 | X-H torsion
[ 7974 7965 7964 7962 ] final  -60.46 input  175.53 | X-H torsion
[ 8008 7997 7996 7995 ] final -113.68 input   59.86 | X-H torsion
[ 10167 10162 10161 10158 ] final -132.73 input  -65.29 | X-H torsion
[ 10718 10713 10712 10709 ] final  102.09 input   66.30 | X-H torsion
[ 10763 10752 10751 10750 ] final  -62.98 input  -60.55 | X-H torsion
[ 11005 11000 10999 10996 ] final  -81.77 input  -57.11 | X-H torsion

> <Gold.Protein.ActiveResidues>
 VAL166  LYS551  ARG553  GLY616  TRP617  ASP618  TYR619  PRO620  LYS621  CYS622 
 ASP623  PHE694  ASN695  SER759  ASP760  ASP761  ALA762  ILE779  LEU786  VAL792 
 PHE793  MET794  SER795  GLU796  ALA797  LYS798  CYS799  TRP800  GLU811  SER814 

> <Gold.Protein.RotatedAtoms>
  151.6075  135.1043  160.0073 H   0  0  0  0  0  0  0  0  0  0  0  0  # atno 6907 bound_to 6896
  152.4226  133.7137  159.6504 H   0  0  0  0  0  0  0  0  0  0  0  0  # atno 6908 bound_to 6896
  150.8114  133.8343  159.3202 H   0  0  0  0  0  0  0  0  0  0  0  0  # atno 6909 bound_to 6896
  145.8153  140.8574  143.0161 H   0  0  0  0  0  0  0  0  0  0  0  0  # atno 7974 bound_to 7965
  155.0244  140.0393  157.2450 H   0  0  0  0  0  0  0  0  0  0  0  0  # atno 8008 bound_to 7997
  154.7350  140.2738  155.6399 H   0  0  0  0  0  0  0  0  0  0  0  0  # atno 8009 bound_to 7997
  156.2850  140.2677  156.2061 H   0  0  0  0  0  0  0  0  0  0  0  0  # atno 8010 bound_to 7997
  139.9056  143.6556  152.2586 H   0  0  0  0  0  0  0  0  0  0  0  0  # atno 10167 bound_to 10162
  157.6812  131.0744  150.5351 H   0  0  0  0  0  0  0  0  0  0  0  0  # atno 10718 bound_to 10713
  154.3082  135.6221  153.5454 H   0  0  0  0  0  0  0  0  0  0  0  0  # atno 10763 bound_to 10752
  152.9832  135.5695  154.5208 H   0  0  0  0  0  0  0  0  0  0  0  0  # atno 10764 bound_to 10752
  154.4852  135.2865  155.1516 H   0  0  0  0  0  0  0  0  0  0  0  0  # atno 10765 bound_to 10752
  141.1665  133.7212  156.8472 H   0  0  0  0  0  0  0  0  0  0  0  0  # atno 11005 bound_to 11000
  144.6753  140.0454  143.7480 LP  0  0  0  0  0  0  0  0  0  0  0  0  # atno 17320 bound_to 7965
  145.9734  139.2886  143.1085 LP  0  0  0  0  0  0  0  0  0  0  0  0  # atno 17321 bound_to 7965
  139.6987  144.7638  151.1310 LP  0  0  0  0  0  0  0  0  0  0  0  0  # atno 17342 bound_to 10162
  140.7697  143.5487  150.9229 LP  0  0  0  0  0  0  0  0  0  0  0  0  # atno 17343 bound_to 10162
  156.5660  130.4267  149.6041 LP  0  0  0  0  0  0  0  0  0  0  0  0  # atno 17370 bound_to 10713
  156.2781  130.7055  151.1871 LP  0  0  0  0  0  0  0  0  0  0  0  0  # atno 17371 bound_to 10713
  140.1941  134.8944  157.3094 LP  0  0  0  0  0  0  0  0  0  0  0  0  # atno 17394 bound_to 11000
  140.2258  134.3968  155.7544 LP  0  0  0  0  0  0  0  0  0  0  0  0  # atno 17395 bound_to 11000

$$$$
