AV-unprocessed.smi:1235|AV-procd|sdf|5176|dock10
  -GOLD-   22720 4253D 1   1.00000     0.00000
 Structure written by MMmdl.
 50 51  0  0  0  0  0  0  0  0  2 V2000
  150.7115  143.3539  158.8446 C   0  0  0  0  0  0  0  0  0  0  0  0
  150.5523  142.0401  159.3505 O   0  0  0  0  0  0  0  0  0  0  0  0
  150.1891  141.1109  158.3435 C   0  0  0  0  0  0  0  0  0  0  0  0
  151.2784  141.1018  157.2605 C   0  0  0  0  0  0  0  0  0  0  0  0
  150.9390  140.1913  156.1625 N   0  0  0  0  0  0  0  0  0  0  0  0
  149.7622  140.5126  155.5074 N   0  0  0  0  0  0  0  0  0  0  0  0
  149.3485  139.7868  154.5193 C   0  0  0  0  0  0  0  0  0  0  0  0
  148.0892  140.1024  153.7886 C   0  0  0  0  0  0  0  0  0  0  0  0
  147.3801  141.0625  154.0934 O   0  0  0  0  0  0  0  0  0  0  0  0
  147.7857  139.2676  152.7798 N   0  0  0  0  0  0  0  0  0  0  0  0
  146.6036  139.3801  151.9375 C   0  0  0  0  0  0  0  0  0  0  0  0
  145.5170  138.4016  152.4145 C   0  0  0  0  0  0  0  0  0  0  0  0
  145.7494  136.9969  151.9813 N   0  3  1  0  0  0  0  0  0  0  0  0
  145.8132  136.0643  153.1394 C   0  0  0  0  0  0  0  0  0  0  0  0
  146.2671  134.6608  152.7081 C   0  0  0  0  0  0  0  0  0  0  0  0
  145.3569  134.1021  151.6095 C   0  0  0  0  0  0  0  0  0  0  0  0
  145.2943  135.0882  150.4352 C   0  0  0  0  0  0  0  0  0  0  0  0
  144.8624  136.5018  150.8809 C   0  0  1  0  0  0  0  0  0  0  0  0
  143.3572  136.5723  151.2180 C   0  0  0  0  0  0  0  0  0  0  0  0
  150.1041  138.6256  154.0814 C   0  0  0  0  0  0  0  0  0  0  0  0
  151.2471  138.3209  154.7344 C   0  0  0  0  0  0  0  0  0  0  0  0
  151.7362  139.1235  155.8568 C   0  0  0  0  0  0  0  0  0  0  0  0
  152.7689  138.8614  156.4726 O   0  0  0  0  0  0  0  0  0  0  0  0
  150.9952  144.0266  159.6542 H   0  0  0  0  0  0  0  0  0  0  0  0
  149.7825  143.7242  158.4090 H   0  0  0  0  0  0  0  0  0  0  0  0
  151.4941  143.3926  158.0857 H   0  0  0  0  0  0  0  0  0  0  0  0
  150.0764  140.1163  158.7780 H   0  0  0  0  0  0  0  0  0  0  0  0
  149.2287  141.3921  157.9077 H   0  0  0  0  0  0  0  0  0  0  0  0
  151.4124  142.1140  156.8743 H   0  0  0  0  0  0  0  0  0  0  0  0
  152.2403  140.8298  157.6989 H   0  0  0  0  0  0  0  0  0  0  0  0
  148.4180  138.5024  152.5924 H   0  0  0  0  0  0  0  0  0  0  0  0
  146.2562  140.4121  151.9869 H   0  0  0  0  0  0  0  0  0  0  0  0
  146.8663  139.1710  150.8990 H   0  0  0  0  0  0  0  0  0  0  0  0
  145.5055  138.4238  153.5052 H   0  0  0  0  0  0  0  0  0  0  0  0
  144.5288  138.7373  152.0994 H   0  0  0  0  0  0  0  0  0  0  0  0
  146.5173  136.4470  153.8792 H   0  0  0  0  0  0  0  0  0  0  0  0
  144.8426  136.0144  153.6340 H   0  0  0  0  0  0  0  0  0  0  0  0
  147.2951  134.7033  152.3460 H   0  0  0  0  0  0  0  0  0  0  0  0
  146.2694  133.9892  153.5672 H   0  0  0  0  0  0  0  0  0  0  0  0
  145.7292  133.1358  151.2683 H   0  0  0  0  0  0  0  0  0  0  0  0
  144.3572  133.9256  152.0076 H   0  0  0  0  0  0  0  0  0  0  0  0
  146.2793  135.1465  149.9699 H   0  0  0  0  0  0  0  0  0  0  0  0
  144.6204  134.7105  149.6654 H   0  0  0  0  0  0  0  0  0  0  0  0
  145.0212  137.1413  150.0136 H   0  0  0  0  0  0  0  0  0  0  0  0
  142.7609  136.1797  150.3939 H   0  0  0  0  0  0  0  0  0  0  0  0
  143.0256  137.5974  151.3803 H   0  0  0  0  0  0  0  0  0  0  0  0
  143.1020  135.9939  152.1053 H   0  0  0  0  0  0  0  0  0  0  0  0
  149.7667  138.0150  153.2563 H   0  0  0  0  0  0  0  0  0  0  0  0
  151.8188  137.4598  154.4206 H   0  0  0  0  0  0  0  0  0  0  0  0
  146.6814  136.9913  151.5917 H   0  0  0  0  0  0  0  0  0  0  0  0
  1  2  1  0  0  0  0
  1 24  1  0  0  0  0
  1 25  1  0  0  0  0
  1 26  1  0  0  0  0
  2  3  1  0  0  0  0
  3  4  1  0  0  0  0
  3 27  1  0  0  0  0
  3 28  1  0  0  0  0
  4  5  1  0  0  0  0
  4 29  1  0  0  0  0
  4 30  1  0  0  0  0
  5 22  1  0  0  0  0
  5  6  1  0  0  0  0
  6  7  2  0  0  0  0
  7  8  1  0  0  0  0
  7 20  1  0  0  0  0
  8  9  2  0  0  0  0
  8 10  1  0  0  0  0
 10 11  1  0  0  0  0
 10 31  1  0  0  0  0
 11 12  1  0  0  0  0
 11 32  1  0  0  0  0
 11 33  1  0  0  0  0
 12 13  1  0  0  0  0
 12 34  1  0  0  0  0
 12 35  1  0  0  0  0
 13 18  1  0  0  0  0
 13 14  1  0  0  0  0
 13 50  1  0  0  0  0
 14 15  1  0  0  0  0
 14 36  1  0  0  0  0
 14 37  1  0  0  0  0
 15 16  1  0  0  0  0
 15 38  1  0  0  0  0
 15 39  1  0  0  0  0
 16 17  1  0  0  0  0
 16 40  1  0  0  0  0
 16 41  1  0  0  0  0
 17 18  1  0  0  0  0
 17 42  1  0  0  0  0
 17 43  1  0  0  0  0
 18 19  1  0  0  0  0
 18 44  1  0  0  0  0
 19 45  1  0  0  0  0
 19 46  1  0  0  0  0
 19 47  1  0  0  0  0
 20 21  2  0  0  0  0
 20 48  1  0  0  0  0
 21 22  1  0  0  0  0
 21 49  1  0  0  0  0
 22 23  2  0  0  0  0
M  CHG  1  13   1
M  END
> <s_m_source_file>
AV-unprocessed.smi

> <i_m_source_file_index>
1235

> <i_lp_mmshare_version>
43012

> <i_f3d_flags>
0

> <s_epik_input>
W0NIM11PW0NIMl1bQ0gyXW4xbmMoW2NIXVtjSF1jMT1PKUMoPU8pW05IXVtDSDJdW0NIMl1OMltDSDJdW0NIMl1bQ0gyXVtDSDJdW0NASF0yW0NIM10=

> <s_epik_cmdline>
J2VwaWtfcHl0aG9uJywgJy1waCcsICc3LjAnLCAnLXRuJywgJzgnLCAnLW1hJywgJzIwMCcsICctbWV0YWxfYmluZGluZycsICctaW1hZScsICc8aW5maWxlLm1hZT4nLCAnLW9tYWUnLCAnPG91dGZpbGUubWFlPic=

> <r_lp_tautomer_probability>
1

> <r_epik_Ionization_Penalty>
0.00271975

> <r_epik_Ionization_Penalty_Charging>
0.00271407

> <r_epik_Ionization_Penalty_Neutral>
5.6803e-06

> <r_epik_State_Penalty>
0.00189271

> <r_epik_Charging_Adjusted_Penalty>
0.00460678

> <i_epik_Tot_Q>
1

> <i_epik_Tot_abs_Q>
1

> <r_epik_Metal_State_Penalty>
-0

> <b_epik_Metal_Only>
0

> <s_lp_Force_Field>
OPLS_2005

> <r_lp_Energy>
41.7034

> <b_lp_Chiralities_Consistent>
1

> <s_lp_Variant>
AV-unprocessed.smi:1235-2

> <Gold.Version>
5.8.1

> <Gold.Id.Protein>
6NUR|6NUR_protein|mol2

> <Gold.PLP.Fitness>
52.3822

> <Gold.PLP.PLP>
-43.0362

> <Gold.PLP.part.hbond>
-4.2178

> <Gold.PLP.part.metal>
0.0000

> <Gold.PLP.part.buried>
-2.3683

> <Gold.PLP.part.nonpolar>
-35.4147

> <Gold.PLP.part.repulsive>
0.2974

> <Gold.PLP.ligand.clash>
0.5392

> <Gold.PLP.ligand.torsion>
0.9305

> <Gold.PLP.Chemscore.Hbond>
3.8800

> <Gold.PLP.Chemscore.CHOScore>
0.0000

> <Gold.PLP.Chemscore.Metal>
0.0000

> <Gold.Chemscore.Hbonds>
donor molecule, donor type, donor heavy atom, donor atom, acceptor molecule, acceptor atom, score
      L1  H    10    31       P1  7948  0.03
      L1  H    13    50       P1  7948  0.25
      P1  H  7997  8009       L1    23  1.00

> <Gold.PLP.Chemscore.Internal.Correction>
0.1063

> <Gold.Rescore>
     Score         DG    S(hbond)    S(metal)    S(lipo)     H(rot)  DE(clash)    DE(int)     intcor
     14.72     -16.61       1.80        0.00      87.46       2.00       0.50       1.38       ----

> <Gold.Chemscore.Fitness>
14.7225

> <Gold.Chemscore.DG>
-16.6068

> <Gold.Chemscore.ZeroCoef>
-5.4800

> <Gold.Chemscore.Hbond>
1.8020

> <Gold.Chemscore.Metal>
0.0000

> <Gold.Chemscore.Lipo>
87.4633

> <Gold.Chemscore.Internal_Hbond>
0.0000

> <Gold.Chemscore.DEClash>
0.5012

> <Gold.Chemscore.DEInternal>
1.3832

> <Gold.Chemscore.Rot>
2.0020

> <Gold.Chemscore.Internal.Correction>
   9.000000E+99

> <Gold.Chemscore.Hbonds>
donor molecule, donor type, donor heavy atom, donor atom, acceptor molecule, acceptor atom, score
      L1  H    10    31       P1  7948  0.08
      L1  H    13    50       P1  7948  0.13
      P1  H  7997  8009       L1    23  0.95

> <Gold.Chemscore.Hbond.Weighted>
-6.0188

> <Gold.Chemscore.Metal.Weighted>
-0.0000

> <Gold.Chemscore.Lipo.Weighted>
-10.2332

> <Gold.Chemscore.Internal_Hbond.Weighted>
0.0000

> <Gold.Chemscore.DEClash.Weighted>
0.5012

> <Gold.Chemscore.DEInternal.Weighted>
1.3832

> <Gold.Chemscore.Rot.Weighted>
5.1252

> <Gold.Chemscore.Internal.Correction.Weighted>
   9.000000E+99

> <Gold.Protein.RotatedTorsions>
[ 6907 6896 6895 6894 ] final -150.45 input  -60.11 | X-H torsion
[ 7974 7965 7964 7962 ] final -118.31 input  175.53 | X-H torsion
[ 8008 7997 7996 7995 ] final -173.05 input   59.86 | X-H torsion
[ 10167 10162 10161 10158 ] final   68.29 input  -65.29 | X-H torsion
[ 10718 10713 10712 10709 ] final   -6.87 input   66.30 | X-H torsion
[ 10763 10752 10751 10750 ] final  153.56 input  -60.55 | X-H torsion
[ 11005 11000 10999 10996 ] final -135.52 input  -57.11 | X-H torsion

> <Gold.Protein.ActiveResidues>
 VAL166  LYS551  ARG553  GLY616  TRP617  ASP618  TYR619  PRO620  LYS621  CYS622 
 ASP623  PHE694  ASN695  SER759  ASP760  ASP761  ALA762  ILE779  LEU786  VAL792 
 PHE793  MET794  SER795  GLU796  ALA797  LYS798  CYS799  TRP800  GLU811  SER814 

> <Gold.Protein.RotatedAtoms>
  151.1987  133.4624  159.2595 H   0  0  0  0  0  0  0  0  0  0  0  0  # atno 6907 bound_to 6896
  151.1091  135.0016  159.8495 H   0  0  0  0  0  0  0  0  0  0  0  0  # atno 6908 bound_to 6896
  152.5449  134.1907  159.8726 H   0  0  0  0  0  0  0  0  0  0  0  0  # atno 6909 bound_to 6896
  145.0752  140.8387  143.4072 H   0  0  0  0  0  0  0  0  0  0  0  0  # atno 7974 bound_to 7965
  155.9524  140.1129  157.0965 H   0  0  0  0  0  0  0  0  0  0  0  0  # atno 8008 bound_to 7997
  154.4113  140.1198  156.5137 H   0  0  0  0  0  0  0  0  0  0  0  0  # atno 8009 bound_to 7997
  155.6825  140.3473  155.4863 H   0  0  0  0  0  0  0  0  0  0  0  0  # atno 8010 bound_to 7997
  140.0802  144.5077  150.7167 H   0  0  0  0  0  0  0  0  0  0  0  0  # atno 10167 bound_to 10162
  156.7255  130.5164  149.5858 H   0  0  0  0  0  0  0  0  0  0  0  0  # atno 10718 bound_to 10713
  154.1381  135.2822  155.3168 H   0  0  0  0  0  0  0  0  0  0  0  0  # atno 10763 bound_to 10752
  154.6306  135.5436  153.7680 H   0  0  0  0  0  0  0  0  0  0  0  0  # atno 10764 bound_to 10752
  153.0259  135.6462  154.1529 H   0  0  0  0  0  0  0  0  0  0  0  0  # atno 10765 bound_to 10752
  140.8891  134.1835  157.4540 H   0  0  0  0  0  0  0  0  0  0  0  0  # atno 11005 bound_to 11000
  145.1244  139.2672  143.5572 LP  0  0  0  0  0  0  0  0  0  0  0  0  # atno 17320 bound_to 7965
  146.3530  140.0877  142.8614 LP  0  0  0  0  0  0  0  0  0  0  0  0  # atno 17321 bound_to 7965
  140.7081  143.2483  151.4664 LP  0  0  0  0  0  0  0  0  0  0  0  0  # atno 17342 bound_to 10162
  139.5784  144.1766  152.1934 LP  0  0  0  0  0  0  0  0  0  0  0  0  # atno 17343 bound_to 10162
  156.1565  130.6345  151.0664 LP  0  0  0  0  0  0  0  0  0  0  0  0  # atno 17370 bound_to 10713
  157.6880  131.0819  150.7187 LP  0  0  0  0  0  0  0  0  0  0  0  0  # atno 17371 bound_to 10713
  139.8727  134.9850  156.5265 LP  0  0  0  0  0  0  0  0  0  0  0  0  # atno 17394 bound_to 11000
  140.8369  133.8235  155.9037 LP  0  0  0  0  0  0  0  0  0  0  0  0  # atno 17395 bound_to 11000

$$$$
