AV-unprocessed.smi:1007|AV-procd|sdf|4400|dock3
  -GOLD-   22720 2333D 1   1.00000     0.00000
 Structure written by MMmdl.
 56 58  0  0  0  0  0  0  0  0  2 V2000
  148.9586  135.0711  157.7799 C   0  0  0  0  0  0  0  0  0  0  0  0
  150.1759  134.4319  157.4371 O   0  0  0  0  0  0  0  0  0  0  0  0
  150.9285  135.1696  156.4882 C   0  0  0  0  0  0  0  0  0  0  0  0
  150.2249  135.0936  155.1244 C   0  0  0  0  0  0  0  0  0  0  0  0
  149.8569  136.4307  154.5940 N   0  3  0  0  0  0  0  0  0  0  0  0
  150.9039  137.4676  154.8000 C   0  0  0  0  0  0  0  0  0  0  0  0
  150.4613  138.8122  154.1848 C   0  0  0  0  0  0  0  0  0  0  0  0
  149.1813  139.2942  154.7033 N   0  0  0  0  0  0  0  0  0  0  0  0
  149.2764  139.7711  156.0907 C   0  0  0  0  0  0  0  0  0  0  0  0
  150.0789  141.0698  156.3278 C   0  0  2  0  0  0  0  0  0  0  0  0
  149.6778  142.0706  155.4124 O   0  0  0  0  0  0  0  0  0  0  0  0
  151.6104  140.8813  156.3286 C   0  0  0  0  0  0  0  0  0  0  0  0
  152.1546  140.7805  157.6703 N   0  0  0  0  0  0  0  0  0  0  0  0
  152.7112  139.6959  158.2434 C   0  0  0  0  0  0  0  0  0  0  0  0
  153.1469  139.8240  159.4932 N   0  0  0  0  0  0  0  0  0  0  0  0
  152.8323  141.1446  159.7645 C   0  0  0  0  0  0  0  0  0  0  0  0
  153.0309  141.9136  160.9320 C   0  0  0  0  0  0  0  0  0  0  0  0
  152.6252  143.2662  160.9867 C   0  0  0  0  0  0  0  0  0  0  0  0
  152.8582  144.0559  162.2625 C   0  0  0  0  0  0  0  0  0  0  0  0
  152.0101  143.8698  159.8604 C   0  0  0  0  0  0  0  0  0  0  0  0
  151.5693  145.3225  159.8949 C   0  0  0  0  0  0  0  0  0  0  0  0
  151.8030  143.1156  158.6865 C   0  0  0  0  0  0  0  0  0  0  0  0
  152.2107  141.7707  158.6447 C   0  0  0  0  0  0  0  0  0  0  0  0
  148.1739  138.2551  154.4775 C   0  0  0  0  0  0  0  0  0  0  0  0
  148.5453  136.9000  155.1111 C   0  0  0  0  0  0  0  0  0  0  0  0
  148.4190  134.4652  158.5078 H   0  0  0  0  0  0  0  0  0  0  0  0
  148.3180  135.1968  156.9058 H   0  0  0  0  0  0  0  0  0  0  0  0
  149.1393  136.0504  158.2253 H   0  0  0  0  0  0  0  0  0  0  0  0
  150.9871  136.2122  156.8045 H   0  0  0  0  0  0  0  0  0  0  0  0
  151.9521  134.7985  156.4326 H   0  0  0  0  0  0  0  0  0  0  0  0
  150.8973  134.5964  154.4240 H   0  0  0  0  0  0  0  0  0  0  0  0
  149.3332  134.4687  155.1907 H   0  0  0  0  0  0  0  0  0  0  0  0
  151.1153  137.5780  155.8642 H   0  0  0  0  0  0  0  0  0  0  0  0
  151.8357  137.1598  154.3278 H   0  0  0  0  0  0  0  0  0  0  0  0
  151.2339  139.5652  154.3453 H   0  0  0  0  0  0  0  0  0  0  0  0
  150.3840  138.6955  153.1028 H   0  0  0  0  0  0  0  0  0  0  0  0
  148.2881  139.8676  156.5400 H   0  0  0  0  0  0  0  0  0  0  0  0
  149.7761  138.9936  156.6701 H   0  0  0  0  0  0  0  0  0  0  0  0
  149.7861  141.4462  157.3087 H   0  0  0  0  0  0  0  0  0  0  0  0
  150.4429  142.3728  154.9466 H   0  0  0  0  0  0  0  0  0  0  0  0
  151.8774  139.9754  155.7833 H   0  0  0  0  0  0  0  0  0  0  0  0
  152.1052  141.7091  155.8190 H   0  0  0  0  0  0  0  0  0  0  0  0
  152.8043  138.7601  157.7117 H   0  0  0  0  0  0  0  0  0  0  0  0
  153.4998  141.4536  161.7895 H   0  0  0  0  0  0  0  0  0  0  0  0
  151.9127  144.4196  162.6650 H   0  0  0  0  0  0  0  0  0  0  0  0
  153.5049  144.9119  162.0691 H   0  0  0  0  0  0  0  0  0  0  0  0
  153.3335  143.4434  163.0292 H   0  0  0  0  0  0  0  0  0  0  0  0
  151.0991  145.6180  158.9565 H   0  0  0  0  0  0  0  0  0  0  0  0
  152.4257  145.9765  160.0605 H   0  0  0  0  0  0  0  0  0  0  0  0
  150.8480  145.4853  160.6959 H   0  0  0  0  0  0  0  0  0  0  0  0
  151.3357  143.5626  157.8217 H   0  0  0  0  0  0  0  0  0  0  0  0
  147.1987  138.5815  154.8353 H   0  0  0  0  0  0  0  0  0  0  0  0
  148.0498  138.1142  153.4029 H   0  0  0  0  0  0  0  0  0  0  0  0
  147.7747  136.1681  154.8660 H   0  0  0  0  0  0  0  0  0  0  0  0
  148.5744  136.9719  156.1991 H   0  0  0  0  0  0  0  0  0  0  0  0
  149.7419  136.3228  153.5960 H   0  0  0  0  0  0  0  0  0  0  0  0
  1  2  1  0  0  0  0
  1 26  1  0  0  0  0
  1 27  1  0  0  0  0
  1 28  1  0  0  0  0
  2  3  1  0  0  0  0
  3  4  1  0  0  0  0
  3 29  1  0  0  0  0
  3 30  1  0  0  0  0
  4  5  1  0  0  0  0
  4 31  1  0  0  0  0
  4 32  1  0  0  0  0
  5 25  1  0  0  0  0
  5  6  1  0  0  0  0
  5 56  1  0  0  0  0
  6  7  1  0  0  0  0
  6 33  1  0  0  0  0
  6 34  1  0  0  0  0
  7  8  1  0  0  0  0
  7 35  1  0  0  0  0
  7 36  1  0  0  0  0
  8  9  1  0  0  0  0
  8 24  1  0  0  0  0
  9 10  1  0  0  0  0
  9 37  1  0  0  0  0
  9 38  1  0  0  0  0
 10 11  1  0  0  0  0
 10 12  1  0  0  0  0
 10 39  1  0  0  0  0
 11 40  1  0  0  0  0
 12 13  1  0  0  0  0
 12 41  1  0  0  0  0
 12 42  1  0  0  0  0
 13 23  1  0  0  0  0
 13 14  1  0  0  0  0
 14 15  2  0  0  0  0
 14 43  1  0  0  0  0
 15 16  1  0  0  0  0
 16 23  2  0  0  0  0
 16 17  1  0  0  0  0
 17 18  2  0  0  0  0
 17 44  1  0  0  0  0
 18 19  1  0  0  0  0
 18 20  1  0  0  0  0
 19 45  1  0  0  0  0
 19 46  1  0  0  0  0
 19 47  1  0  0  0  0
 20 21  1  0  0  0  0
 20 22  2  0  0  0  0
 21 48  1  0  0  0  0
 21 49  1  0  0  0  0
 21 50  1  0  0  0  0
 22 23  1  0  0  0  0
 22 51  1  0  0  0  0
 24 25  1  0  0  0  0
 24 52  1  0  0  0  0
 24 53  1  0  0  0  0
 25 54  1  0  0  0  0
 25 55  1  0  0  0  0
M  CHG  1   5   1
M  END
> <s_m_source_file>
AV-unprocessed.smi

> <i_m_source_file_index>
1007

> <i_lp_mmshare_version>
43012

> <i_f3d_flags>
0

> <s_epik_input>
W0NIM11PW0NIMl1bQ0gyXU4xW0NIMl1bQ0gyXU4oW0NIMl1bQ0gyXTEpW0NIMl1bQ0BIXShbT0hdKVtDSDJdbihbY0hdbjIpYyhjMjMpW2NIXWMoW0NIM10pYyhbY0hdMylbQ0gzXQ==

> <s_epik_cmdline>
J2VwaWtfcHl0aG9uJywgJy1waCcsICc3LjAnLCAnLXRuJywgJzgnLCAnLW1hJywgJzIwMCcsICctbWV0YWxfYmluZGluZycsICctaW1hZScsICc8aW5maWxlLm1hZT4nLCAnLW9tYWUnLCAnPG91dGZpbGUubWFlPic=

> <r_epik_Ionization_Penalty>
0.186009

> <r_epik_Ionization_Penalty_Charging>
0.0613973

> <r_epik_Ionization_Penalty_Neutral>
0.124612

> <r_epik_State_Penalty>
1.21927

> <r_epik_Charging_Adjusted_Penalty>
1.28067

> <i_epik_Tot_Q>
1

> <i_epik_Tot_abs_Q>
1

> <r_epik_Metal_State_Penalty>
1.13901

> <b_epik_Metal_Only>
0

> <s_lp_Force_Field>
OPLS_2005

> <r_lp_Energy>
39.6127

> <b_lp_Chiralities_Consistent>
1

> <s_lp_Variant>
AV-unprocessed.smi:1007-3

> <Gold.Version>
5.8.1

> <Gold.Id.Protein>
6NUR|6NUR_protein|mol2

> <Gold.PLP.Fitness>
53.2287

> <Gold.PLP.PLP>
-47.2709

> <Gold.PLP.part.hbond>
-3.0000

> <Gold.PLP.part.metal>
0.0000

> <Gold.PLP.part.buried>
-7.6437

> <Gold.PLP.part.nonpolar>
-36.5182

> <Gold.PLP.part.repulsive>
0.1573

> <Gold.PLP.ligand.clash>
0.0000

> <Gold.PLP.ligand.torsion>
1.4538

> <Gold.PLP.Chemscore.Hbond>
2.8160

> <Gold.PLP.Chemscore.CHOScore>
0.0000

> <Gold.PLP.Chemscore.Metal>
0.0000

> <Gold.Chemscore.Hbonds>
donor molecule, donor type, donor heavy atom, donor atom, acceptor molecule, acceptor atom, score
      L1  H     5    56       P1  7948  2.00
      P1  H  6896  6908       L1     2  0.69

> <Gold.PLP.Chemscore.Internal.Correction>
0.4174

> <Gold.Rescore>
     Score         DG    S(hbond)    S(metal)    S(lipo)     H(rot)  DE(clash)    DE(int)     intcor
     16.71     -18.20       1.29        0.00     128.00       2.56       0.03       1.47       ----

> <Gold.Chemscore.Fitness>
16.7091

> <Gold.Chemscore.DG>
-18.2021

> <Gold.Chemscore.ZeroCoef>
-5.4800

> <Gold.Chemscore.Hbond>
1.2868

> <Gold.Chemscore.Metal>
0.0000

> <Gold.Chemscore.Lipo>
128.0024

> <Gold.Chemscore.Internal_Hbond>
0.0000

> <Gold.Chemscore.DEClash>
0.0275

> <Gold.Chemscore.DEInternal>
1.4656

> <Gold.Chemscore.Rot>
2.5594

> <Gold.Chemscore.Internal.Correction>
   9.000000E+99

> <Gold.Chemscore.Hbonds>
donor molecule, donor type, donor heavy atom, donor atom, acceptor molecule, acceptor atom, score
      L1  H     5    56       P1  7948  0.35
      P1  H  6896  6908       L1     2  0.13

> <Gold.Chemscore.Hbond.Weighted>
-4.2980

> <Gold.Chemscore.Metal.Weighted>
-0.0000

> <Gold.Chemscore.Lipo.Weighted>
-14.9763

> <Gold.Chemscore.Internal_Hbond.Weighted>
0.0000

> <Gold.Chemscore.DEClash.Weighted>
0.0275

> <Gold.Chemscore.DEInternal.Weighted>
1.4656

> <Gold.Chemscore.Rot.Weighted>
6.5522

> <Gold.Chemscore.Internal.Correction.Weighted>
   9.000000E+99

> <Gold.Protein.RotatedTorsions>
[ 6907 6896 6895 6894 ] final  127.26 input  -60.11 | X-H torsion
[ 7974 7965 7964 7962 ] final -165.55 input  175.53 | X-H torsion
[ 8008 7997 7996 7995 ] final -151.10 input   59.86 | X-H torsion
[ 10167 10162 10161 10158 ] final  -85.50 input  -65.29 | X-H torsion
[ 10718 10713 10712 10709 ] final -139.50 input   66.30 | X-H torsion
[ 10763 10752 10751 10750 ] final   26.31 input  -60.55 | X-H torsion
[ 11005 11000 10999 10996 ] final   52.44 input  -57.11 | X-H torsion

> <Gold.Protein.ActiveResidues>
 VAL166  LYS551  ARG553  GLY616  TRP617  ASP618  TYR619  PRO620  LYS621  CYS622 
 ASP623  PHE694  ASN695  SER759  ASP760  ASP761  ALA762  ILE779  LEU786  VAL792 
 PHE793  MET794  SER795  GLU796  ALA797  LYS798  CYS799  TRP800  GLU811  SER814 

> <Gold.Protein.RotatedAtoms>
  152.3829  133.6570  159.6175 H   0  0  0  0  0  0  0  0  0  0  0  0  # atno 6907 bound_to 6896
  150.7755  133.9084  159.3371 H   0  0  0  0  0  0  0  0  0  0  0  0  # atno 6908 bound_to 6896
  151.6886  135.0951  160.0281 H   0  0  0  0  0  0  0  0  0  0  0  0  # atno 6909 bound_to 6896
  144.7267  140.2797  143.6238 H   0  0  0  0  0  0  0  0  0  0  0  0  # atno 7974 bound_to 7965
  155.6340  140.0694  157.2640 H   0  0  0  0  0  0  0  0  0  0  0  0  # atno 8008 bound_to 7997
  154.4199  140.1762  156.1552 H   0  0  0  0  0  0  0  0  0  0  0  0  # atno 8009 bound_to 7997
  155.9909  140.3345  155.6756 H   0  0  0  0  0  0  0  0  0  0  0  0  # atno 8010 bound_to 7997
  140.4031  143.2654  151.9116 H   0  0  0  0  0  0  0  0  0  0  0  0  # atno 10167 bound_to 10162
  156.3114  130.7484  151.1561 H   0  0  0  0  0  0  0  0  0  0  0  0  # atno 10718 bound_to 10713
  153.0631  135.6563  154.0416 H   0  0  0  0  0  0  0  0  0  0  0  0  # atno 10763 bound_to 10752
  154.0080  135.2931  155.3397 H   0  0  0  0  0  0  0  0  0  0  0  0  # atno 10764 bound_to 10752
  154.6978  135.5257  153.8551 H   0  0  0  0  0  0  0  0  0  0  0  0  # atno 10765 bound_to 10752
  140.0849  134.5288  155.8909 H   0  0  0  0  0  0  0  0  0  0  0  0  # atno 11005 bound_to 11000
  145.7962  139.1946  143.2074 LP  0  0  0  0  0  0  0  0  0  0  0  0  # atno 17320 bound_to 7965
  146.0715  140.7864  142.9686 LP  0  0  0  0  0  0  0  0  0  0  0  0  # atno 17321 bound_to 7965
  139.4784  144.5613  151.8234 LP  0  0  0  0  0  0  0  0  0  0  0  0  # atno 17342 bound_to 10162
  140.4718  144.1576  150.5919 LP  0  0  0  0  0  0  0  0  0  0  0  0  # atno 17343 bound_to 10162
  157.7392  131.0532  150.5248 LP  0  0  0  0  0  0  0  0  0  0  0  0  # atno 17370 bound_to 10713
  156.5388  130.4203  149.6164 LP  0  0  0  0  0  0  0  0  0  0  0  0  # atno 17371 bound_to 10713
  141.2059  133.6651  156.6210 LP  0  0  0  0  0  0  0  0  0  0  0  0  # atno 17394 bound_to 11000
  140.3434  134.7829  157.4415 LP  0  0  0  0  0  0  0  0  0  0  0  0  # atno 17395 bound_to 11000

$$$$
