AV-unprocessed.smi:2505|AV-procd|sdf|9858|dock4
  -GOLD-   2272013483D 1   1.00000     0.00000
 Structure written by MMmdl.
 48 52  0  0  0  0  0  0  0  0  1 V2000
  147.5353  138.0813  152.8132 O   0  0  0  0  0  0  0  0  0  0  0  0
  146.5113  138.7582  152.7551 C   0  0  0  0  0  0  0  0  0  0  0  0
  145.2933  138.2826  152.4312 N   0  0  0  0  0  0  0  0  0  0  0  0
  144.9104  136.9445  152.1498 C   0  0  0  0  0  0  0  0  0  0  0  0
  145.7732  136.1351  151.3815 C   0  0  0  0  0  0  0  0  0  0  0  0
  145.4635  134.8603  151.0621 N   0  0  0  0  0  0  0  0  0  0  0  0
  144.2857  134.4002  151.4928 C   0  0  0  0  0  0  0  0  0  0  0  0
  143.9620  132.9735  151.1744 C   0  0  0  0  0  0  0  0  0  0  0  0
  145.0005  132.0568  150.5604 C   0  0  0  0  0  0  0  0  0  0  0  0
  143.8290  132.5137  149.7369 C   0  0  0  0  0  0  0  0  0  0  0  0
  143.3892  135.0683  152.2237 N   0  0  0  0  0  0  0  0  0  0  0  0
  143.6917  136.3437  152.5503 C   0  0  0  0  0  0  0  0  0  0  0  0
  146.5309  140.0771  153.0147 N   0  0  0  0  0  0  0  0  0  0  0  0
  147.6854  140.9019  153.3944 C   0  0  1  0  0  0  0  0  0  0  0  0
  147.3027  142.3075  153.9202 C   0  0  1  0  0  0  0  0  0  0  0  0
  145.9187  142.8956  153.7850 C   0  0  0  0  0  0  0  0  0  0  0  0
  145.2718  142.5643  155.1333 C   0  0  0  0  0  0  0  0  0  0  0  0
  146.0545  141.4976  155.6650 O   0  0  0  0  0  0  0  0  0  0  0  0
  147.4170  141.7462  155.3284 C   0  0  1  0  0  0  0  0  0  0  0  0
  148.2235  140.5426  154.7999 C   0  0  0  0  0  0  0  0  0  0  0  0
  147.9395  139.1706  155.4151 C   0  0  0  0  0  0  0  0  0  0  0  0
  148.9052  138.9923  156.5908 C   0  0  0  0  0  0  0  0  0  0  0  0
  150.0508  139.9776  156.3409 C   0  0  0  0  0  0  0  0  0  0  0  0
  149.7345  140.6409  154.9987 C   0  0  0  0  0  0  0  0  0  0  0  0
  144.5596  138.9711  152.3471 H   0  0  0  0  0  0  0  0  0  0  0  0
  146.7207  136.5098  151.0230 H   0  0  0  0  0  0  0  0  0  0  0  0
  143.2800  132.5490  151.9087 H   0  0  0  0  0  0  0  0  0  0  0  0
  145.9746  132.4794  150.3215 H   0  0  0  0  0  0  0  0  0  0  0  0
  145.0102  131.0198  150.8897 H   0  0  0  0  0  0  0  0  0  0  0  0
  143.0537  131.7834  149.5147 H   0  0  0  0  0  0  0  0  0  0  0  0
  144.0246  133.2402  148.9504 H   0  0  0  0  0  0  0  0  0  0  0  0
  142.9379  136.8695  153.1145 H   0  0  0  0  0  0  0  0  0  0  0  0
  145.6484  140.5637  152.9475 H   0  0  0  0  0  0  0  0  0  0  0  0
  148.4807  140.9275  152.6475 H   0  0  0  0  0  0  0  0  0  0  0  0
  148.1029  143.0217  153.7200 H   0  0  0  0  0  0  0  0  0  0  0  0
  145.9452  143.9728  153.6196 H   0  0  0  0  0  0  0  0  0  0  0  0
  145.3598  142.4579  152.9595 H   0  0  0  0  0  0  0  0  0  0  0  0
  145.3343  143.4191  155.8081 H   0  0  0  0  0  0  0  0  0  0  0  0
  144.2236  142.2805  155.0377 H   0  0  0  0  0  0  0  0  0  0  0  0
  147.9296  142.4036  156.0324 H   0  0  0  0  0  0  0  0  0  0  0  0
  146.9036  139.0566  155.7360 H   0  0  0  0  0  0  0  0  0  0  0  0
  148.1258  138.3884  154.6777 H   0  0  0  0  0  0  0  0  0  0  0  0
  148.4082  139.2312  157.5318 H   0  0  0  0  0  0  0  0  0  0  0  0
  149.2604  137.9635  156.6585 H   0  0  0  0  0  0  0  0  0  0  0  0
  150.0697  140.7277  157.1326 H   0  0  0  0  0  0  0  0  0  0  0  0
  151.0241  139.4864  156.3297 H   0  0  0  0  0  0  0  0  0  0  0  0
  150.2489  140.1023  154.2016 H   0  0  0  0  0  0  0  0  0  0  0  0
  150.0972  141.6691  154.9673 H   0  0  0  0  0  0  0  0  0  0  0  0
  1  2  2  0  0  0  0
  2  3  1  0  0  0  0
  2 13  1  0  0  0  0
  3  4  1  0  0  0  0
  3 25  1  0  0  0  0
  4 12  1  0  0  0  0
  4  5  2  0  0  0  0
  5  6  1  0  0  0  0
  5 26  1  0  0  0  0
  6  7  2  0  0  0  0
  7  8  1  0  0  0  0
  7 11  1  0  0  0  0
  8 10  1  0  0  0  0
  8  9  1  0  0  0  0
  8 27  1  0  0  0  0
  9 10  1  0  0  0  0
  9 28  1  0  0  0  0
  9 29  1  0  0  0  0
 10 30  1  0  0  0  0
 10 31  1  0  0  0  0
 11 12  2  0  0  0  0
 12 32  1  0  0  0  0
 13 14  1  0  0  0  0
 13 33  1  0  0  0  0
 14 20  1  0  0  0  0
 14 15  1  0  0  0  0
 14 34  1  0  0  0  0
 15 19  1  0  0  0  0
 15 16  1  0  0  0  0
 15 35  1  0  0  0  0
 16 17  1  0  0  0  0
 16 36  1  0  0  0  0
 16 37  1  0  0  0  0
 17 18  1  0  0  0  0
 17 38  1  0  0  0  0
 17 39  1  0  0  0  0
 18 19  1  0  0  0  0
 19 20  1  0  0  0  0
 19 40  1  0  0  0  0
 20 24  1  0  0  0  0
 20 21  1  0  0  0  0
 21 22  1  0  0  0  0
 21 41  1  0  0  0  0
 21 42  1  0  0  0  0
 22 23  1  0  0  0  0
 22 43  1  0  0  0  0
 22 44  1  0  0  0  0
 23 24  1  0  0  0  0
 23 45  1  0  0  0  0
 23 46  1  0  0  0  0
 24 47  1  0  0  0  0
 24 48  1  0  0  0  0
M  END
> <s_m_source_file>
AV-unprocessed.smi

> <i_m_source_file_index>
2505

> <i_lp_mmshare_version>
43012

> <i_f3d_flags>
0

> <s_epik_input>
W0NIMl0xW0NIMl1bQ0hdMWMobltjSF0yKW5bY0hdYzJbTkhdQyg9TylbTkhdW0NAQEhdM1tDQEBIXShbQ0gyXVtDSDJdTzQpW0NASF00QzM1W0NIMl1bQ0gyXVtDSDJdW0NIMl01

> <s_epik_cmdline>
J2VwaWtfcHl0aG9uJywgJy1waCcsICc3LjAnLCAnLXRuJywgJzgnLCAnLW1hJywgJzIwMCcsICctbWV0YWxfYmluZGluZycsICctaW1hZScsICc8aW5maWxlLm1hZT4nLCAnLW9tYWUnLCAnPG91dGZpbGUubWFlPic=

> <r_lp_tautomer_probability>
1

> <r_epik_Ionization_Penalty>
2.6075e-05

> <r_epik_Ionization_Penalty_Charging>
0

> <r_epik_Ionization_Penalty_Neutral>
2.6075e-05

> <r_epik_State_Penalty>
-0

> <r_epik_Charging_Adjusted_Penalty>
0

> <i_epik_Tot_Q>
0

> <i_epik_Tot_abs_Q>
0

> <r_epik_Metal_State_Penalty>
-0

> <b_epik_Metal_Only>
0

> <s_lp_Force_Field>
OPLS_2005

> <r_lp_Energy>
64.3287

> <b_lp_Chiralities_Consistent>
1

> <s_lp_Variant>
AV-unprocessed.smi:2505-6

> <Gold.Version>
5.8.1

> <Gold.Id.Protein>
6NUR|6NUR_protein|mol2

> <Gold.PLP.Fitness>
46.0827

> <Gold.PLP.PLP>
-37.8656

> <Gold.PLP.part.hbond>
-3.0000

> <Gold.PLP.part.metal>
0.0000

> <Gold.PLP.part.buried>
-5.5320

> <Gold.PLP.part.nonpolar>
-34.7135

> <Gold.PLP.part.repulsive>
4.6199

> <Gold.PLP.ligand.clash>
0.0000

> <Gold.PLP.ligand.torsion>
0.4886

> <Gold.PLP.Chemscore.Hbond>
1.9600

> <Gold.PLP.Chemscore.CHOScore>
1.0000

> <Gold.PLP.Chemscore.Metal>
0.0000

> <Gold.Chemscore.Hbonds>
donor molecule, donor type, donor heavy atom, donor atom, acceptor molecule, acceptor atom, score
      L1  H     3    25       P1 10175  1.00
      L1  H    13    33       P1 10175  0.96
      L1  C     5    26       P1  7948  1.00

> <Gold.PLP.Chemscore.Internal.Correction>
0.3143

> <Gold.Rescore>
     Score         DG    S(hbond)    S(metal)    S(lipo)     H(rot)  DE(clash)    DE(int)     intcor
     15.41     -19.74       1.84        0.00      94.88       1.17       1.74       2.58       ----

> <Gold.Chemscore.Fitness>
15.4136

> <Gold.Chemscore.DG>
-19.7365

> <Gold.Chemscore.ZeroCoef>
-5.4800

> <Gold.Chemscore.Hbond>
1.8447

> <Gold.Chemscore.Metal>
0.0000

> <Gold.Chemscore.Lipo>
94.8849

> <Gold.Chemscore.Internal_Hbond>
0.0000

> <Gold.Chemscore.DEClash>
1.7423

> <Gold.Chemscore.DEInternal>
2.5805

> <Gold.Chemscore.Rot>
1.1744

> <Gold.Chemscore.Internal.Correction>
   9.000000E+99

> <Gold.Chemscore.Hbonds>
donor molecule, donor type, donor heavy atom, donor atom, acceptor molecule, acceptor atom, score
      L1  H     3    25       P1 10175  1.00
      L1  H    13    33       P1 10175  0.65

> <Gold.Chemscore.Hbond.Weighted>
-6.1614

> <Gold.Chemscore.Metal.Weighted>
-0.0000

> <Gold.Chemscore.Lipo.Weighted>
-11.1015

> <Gold.Chemscore.Internal_Hbond.Weighted>
0.0000

> <Gold.Chemscore.DEClash.Weighted>
1.7423

> <Gold.Chemscore.DEInternal.Weighted>
2.5805

> <Gold.Chemscore.Rot.Weighted>
3.0064

> <Gold.Chemscore.Internal.Correction.Weighted>
   9.000000E+99

> <Gold.Protein.RotatedTorsions>
[ 6907 6896 6895 6894 ] final   -9.59 input  -60.11 | X-H torsion
[ 7974 7965 7964 7962 ] final   -6.81 input  175.53 | X-H torsion
[ 8008 7997 7996 7995 ] final  -96.94 input   59.86 | X-H torsion
[ 10167 10162 10161 10158 ] final   27.50 input  -65.29 | X-H torsion
[ 10718 10713 10712 10709 ] final  140.26 input   66.30 | X-H torsion
[ 10763 10752 10751 10750 ] final   97.20 input  -60.55 | X-H torsion
[ 11005 11000 10999 10996 ] final  110.65 input  -57.11 | X-H torsion

> <Gold.Protein.ActiveResidues>
 VAL166  LYS551  ARG553  GLY616  TRP617  ASP618  TYR619  PRO620  LYS621  CYS622 
 ASP623  PHE694  ASN695  SER759  ASP760  ASP761  ALA762  ILE779  LEU786  VAL792 
 PHE793  MET794  SER795  GLU796  ALA797  LYS798  CYS799  TRP800  GLU811  SER814 

> <Gold.Protein.RotatedAtoms>
  151.4153  135.0990  159.9597 H   0  0  0  0  0  0  0  0  0  0  0  0  # atno 6907 bound_to 6896
  152.5006  133.8758  159.7332 H   0  0  0  0  0  0  0  0  0  0  0  0  # atno 6908 bound_to 6896
  150.9262  133.6763  159.2849 H   0  0  0  0  0  0  0  0  0  0  0  0  # atno 6909 bound_to 6896
  146.2322  140.2227  142.8338 H   0  0  0  0  0  0  0  0  0  0  0  0  # atno 7974 bound_to 7965
  154.7811  140.0467  157.1128 H   0  0  0  0  0  0  0  0  0  0  0  0  # atno 8008 bound_to 7997
  154.9704  140.3089  155.4971 H   0  0  0  0  0  0  0  0  0  0  0  0  # atno 8009 bound_to 7997
  156.2936  140.2254  156.4796 H   0  0  0  0  0  0  0  0  0  0  0  0  # atno 8010 bound_to 7997
  140.4933  144.0432  150.6305 H   0  0  0  0  0  0  0  0  0  0  0  0  # atno 10167 bound_to 10162
  157.4052  131.1021  151.0510 H   0  0  0  0  0  0  0  0  0  0  0  0  # atno 10718 bound_to 10713
  153.2741  135.4191  155.1016 H   0  0  0  0  0  0  0  0  0  0  0  0  # atno 10763 bound_to 10752
  154.8466  135.3479  154.6203 H   0  0  0  0  0  0  0  0  0  0  0  0  # atno 10764 bound_to 10752
  153.6623  135.7047  153.5231 H   0  0  0  0  0  0  0  0  0  0  0  0  # atno 10765 bound_to 10752
  139.8886  134.9489  156.6312 H   0  0  0  0  0  0  0  0  0  0  0  0  # atno 11005 bound_to 11000
  144.9620  140.8284  143.5508 LP  0  0  0  0  0  0  0  0  0  0  0  0  # atno 17320 bound_to 7965
  145.2198  139.2164  143.5099 LP  0  0  0  0  0  0  0  0  0  0  0  0  # atno 17321 bound_to 7965
  140.3708  143.2856  152.0281 LP  0  0  0  0  0  0  0  0  0  0  0  0  # atno 17342 bound_to 10162
  139.4856  144.6232  151.7216 LP  0  0  0  0  0  0  0  0  0  0  0  0  # atno 17343 bound_to 10162
  157.1495  130.6178  149.5578 LP  0  0  0  0  0  0  0  0  0  0  0  0  # atno 17370 bound_to 10713
  155.9834  130.4854  150.6933 LP  0  0  0  0  0  0  0  0  0  0  0  0  # atno 17371 bound_to 10713
  140.7665  133.8774  155.8458 LP  0  0  0  0  0  0  0  0  0  0  0  0  # atno 17394 bound_to 11000
  140.9878  134.1319  157.4436 LP  0  0  0  0  0  0  0  0  0  0  0  0  # atno 17395 bound_to 11000

$$$$
