AV-unprocessed.smi:1703|AV-procd|sdf|6865|dock4
  -GOLD-   22720 8 53D 1   1.00000     0.00000
 Structure written by MMmdl.
 49 51  0  0  0  0  0  0  0  0  2 V2000
  145.0753  144.3011  152.8009 C   0  0  0  0  0  0  0  0  0  0  0  0
  145.7338  143.7712  154.0793 C   0  0  2  0  0  0  0  0  0  0  0  0
  146.8217  142.7218  153.7821 C   0  0  0  0  0  0  0  0  0  0  0  0
  147.3798  142.1862  155.0477 N   0  3  2  0  0  0  0  0  0  0  0  0
  148.4861  141.2142  154.8517 C   0  0  0  0  0  0  0  0  0  0  0  0
  149.4301  141.1427  156.0681 C   0  0  1  0  0  0  0  0  0  0  0  0
  148.9071  140.2086  156.9935 O   0  0  0  0  0  0  0  0  0  0  0  0
  150.8574  140.7239  155.6612 C   0  0  0  0  0  0  0  0  0  0  0  0
  151.7464  140.5668  156.8051 N   0  0  0  0  0  0  0  0  0  0  0  0
  152.5856  139.5362  157.0797 C   0  0  0  0  0  0  0  0  0  0  0  0
  152.7057  138.3407  156.1850 C   0  0  0  0  0  0  0  0  0  0  0  0
  154.0243  138.1341  155.7263 O   0  0  0  0  0  0  0  0  0  0  0  0
  153.2971  139.6499  158.2014 N   0  0  0  0  0  0  0  0  0  0  0  0
  152.8782  140.8655  158.7055 C   0  0  0  0  0  0  0  0  0  0  0  0
  153.2623  141.5545  159.8780 C   0  0  0  0  0  0  0  0  0  0  0  0
  152.6898  142.8047  160.1911 C   0  0  0  0  0  0  0  0  0  0  0  0
  151.7259  143.3819  159.3393 C   0  0  0  0  0  0  0  0  0  0  0  0
  151.3281  142.7117  158.1667 C   0  0  0  0  0  0  0  0  0  0  0  0
  151.9046  141.4649  157.8569 C   0  0  0  0  0  0  0  0  0  0  0  0
  146.2942  141.6511  155.9028 C   0  0  0  0  0  0  0  0  0  0  0  0
  145.2172  142.7265  156.1426 C   0  0  2  0  0  0  0  0  0  0  0  0
  144.0358  142.1907  156.9587 C   0  0  0  0  0  0  0  0  0  0  0  0
  144.7224  143.1768  154.8861 O   0  0  0  0  0  0  0  0  0  0  0  0
  145.8094  144.7725  152.1469 H   0  0  0  0  0  0  0  0  0  0  0  0
  144.3134  145.0451  153.0349 H   0  0  0  0  0  0  0  0  0  0  0  0
  144.5953  143.4978  152.2411 H   0  0  0  0  0  0  0  0  0  0  0  0
  146.1735  144.6132  154.6171 H   0  0  0  0  0  0  0  0  0  0  0  0
  146.4048  141.9036  153.1922 H   0  0  0  0  0  0  0  0  0  0  0  0
  147.6083  143.1785  153.1822 H   0  0  0  0  0  0  0  0  0  0  0  0
  148.0730  140.2195  154.6758 H   0  0  0  0  0  0  0  0  0  0  0  0
  149.0410  141.4760  153.9494 H   0  0  0  0  0  0  0  0  0  0  0  0
  149.4794  142.1117  156.5629 H   0  0  0  0  0  0  0  0  0  0  0  0
  148.9694  140.5752  157.8626 H   0  0  0  0  0  0  0  0  0  0  0  0
  150.8337  139.7828  155.1100 H   0  0  0  0  0  0  0  0  0  0  0  0
  151.2867  141.4576  154.9790 H   0  0  0  0  0  0  0  0  0  0  0  0
  152.3595  137.4497  156.7079 H   0  0  0  0  0  0  0  0  0  0  0  0
  152.0532  138.4707  155.3210 H   0  0  0  0  0  0  0  0  0  0  0  0
  153.9951  137.5574  154.9781 H   0  0  0  0  0  0  0  0  0  0  0  0
  153.9989  141.1203  160.5373 H   0  0  0  0  0  0  0  0  0  0  0  0
  152.9917  143.3229  161.0893 H   0  0  0  0  0  0  0  0  0  0  0  0
  151.2924  144.3396  159.5869 H   0  0  0  0  0  0  0  0  0  0  0  0
  150.5908  143.1530  157.5132 H   0  0  0  0  0  0  0  0  0  0  0  0
  145.8552  140.7728  155.4263 H   0  0  0  0  0  0  0  0  0  0  0  0
  146.7055  141.3264  156.8596 H   0  0  0  0  0  0  0  0  0  0  0  0
  145.6533  143.5708  156.6796 H   0  0  0  0  0  0  0  0  0  0  0  0
  144.3630  141.8346  157.9358 H   0  0  0  0  0  0  0  0  0  0  0  0
  143.5448  141.3622  156.4473 H   0  0  0  0  0  0  0  0  0  0  0  0
  143.2903  142.9693  157.1224 H   0  0  0  0  0  0  0  0  0  0  0  0
  147.7768  142.9674  155.5508 H   0  0  0  0  0  0  0  0  0  0  0  0
  1  2  1  0  0  0  0
  1 24  1  0  0  0  0
  1 25  1  0  0  0  0
  1 26  1  0  0  0  0
  2 23  1  0  0  0  0
  2  3  1  0  0  0  0
  2 27  1  0  0  0  0
  3  4  1  0  0  0  0
  3 28  1  0  0  0  0
  3 29  1  0  0  0  0
  4  5  1  0  0  0  0
  4 20  1  0  0  0  0
  4 49  1  0  0  0  0
  5  6  1  0  0  0  0
  5 30  1  0  0  0  0
  5 31  1  0  0  0  0
  6  7  1  0  0  0  0
  6  8  1  0  0  0  0
  6 32  1  0  0  0  0
  7 33  1  0  0  0  0
  8  9  1  0  0  0  0
  8 34  1  0  0  0  0
  8 35  1  0  0  0  0
  9 19  1  0  0  0  0
  9 10  1  0  0  0  0
 10 11  1  0  0  0  0
 10 13  2  0  0  0  0
 11 12  1  0  0  0  0
 11 36  1  0  0  0  0
 11 37  1  0  0  0  0
 12 38  1  0  0  0  0
 13 14  1  0  0  0  0
 14 19  2  0  0  0  0
 14 15  1  0  0  0  0
 15 16  2  0  0  0  0
 15 39  1  0  0  0  0
 16 17  1  0  0  0  0
 16 40  1  0  0  0  0
 17 18  2  0  0  0  0
 17 41  1  0  0  0  0
 18 19  1  0  0  0  0
 18 42  1  0  0  0  0
 20 21  1  0  0  0  0
 20 43  1  0  0  0  0
 20 44  1  0  0  0  0
 21 22  1  0  0  0  0
 21 23  1  0  0  0  0
 21 45  1  0  0  0  0
 22 46  1  0  0  0  0
 22 47  1  0  0  0  0
 22 48  1  0  0  0  0
M  CHG  1   4   1
M  END
> <s_m_source_file>
AV-unprocessed.smi

> <i_m_source_file_index>
1703

> <i_lp_mmshare_version>
43012

> <i_f3d_flags>
0

> <s_epik_input>
W0NIM11bQ0BASF0xW0NIMl1OKFtDSDJdW0NASF0oTzEpW0NIM10pW0NIMl1bQ0BIXShbT0hdKVtDSDJdbihjKG4yKVtDSDJdW09IXSljKGMyMylbY0hdW2NIXVtjSF1bY0hdMw==

> <s_epik_cmdline>
J2VwaWtfcHl0aG9uJywgJy1waCcsICc3LjAnLCAnLXRuJywgJzgnLCAnLW1hJywgJzIwMCcsICctbWV0YWxfYmluZGluZycsICctaW1hZScsICc8aW5maWxlLm1hZT4nLCAnLW9tYWUnLCAnPG91dGZpbGUubWFlPic=

> <r_epik_Ionization_Penalty>
0.655661

> <r_epik_Ionization_Penalty_Charging>
0.608065

> <r_epik_Ionization_Penalty_Neutral>
0.0475963

> <r_epik_State_Penalty>
0.695267

> <r_epik_Charging_Adjusted_Penalty>
1.30333

> <i_epik_Tot_Q>
1

> <i_epik_Tot_abs_Q>
1

> <r_epik_Metal_State_Penalty>
0.653591

> <b_epik_Metal_Only>
0

> <s_lp_Force_Field>
OPLS_2005

> <r_lp_Energy>
21.6457

> <b_lp_Chiralities_Consistent>
1

> <s_lp_Variant>
AV-unprocessed.smi:1703-13

> <Gold.Version>
5.8.1

> <Gold.Id.Protein>
6NUR|6NUR_protein|mol2

> <Gold.PLP.Fitness>
48.7353

> <Gold.PLP.PLP>
-41.2824

> <Gold.PLP.part.hbond>
-3.7217

> <Gold.PLP.part.metal>
0.0000

> <Gold.PLP.part.buried>
-4.0927

> <Gold.PLP.part.nonpolar>
-33.5978

> <Gold.PLP.part.repulsive>
0.2682

> <Gold.PLP.ligand.clash>
0.0000

> <Gold.PLP.ligand.torsion>
0.6824

> <Gold.PLP.Chemscore.Hbond>
2.9128

> <Gold.PLP.Chemscore.CHOScore>
0.0000

> <Gold.PLP.Chemscore.Metal>
0.0000

> <Gold.Chemscore.Hbonds>
donor molecule, donor type, donor heavy atom, donor atom, acceptor molecule, acceptor atom, score
      L1  H     4    49       P1  8028  1.92
      P1  H  7997  8008       L1    12  0.07
      P1  H  7997  8010       L1    13  0.50

> <Gold.PLP.Chemscore.Internal.Correction>
0.0794

> <Gold.Rescore>
     Score         DG    S(hbond)    S(metal)    S(lipo)     H(rot)  DE(clash)    DE(int)     intcor
     13.05     -13.97       0.79        0.00     114.88       2.96       0.24       0.68       ----

> <Gold.Chemscore.Fitness>
13.0526

> <Gold.Chemscore.DG>
-13.9673

> <Gold.Chemscore.ZeroCoef>
-5.4800

> <Gold.Chemscore.Hbond>
0.7864

> <Gold.Chemscore.Metal>
0.0000

> <Gold.Chemscore.Lipo>
114.8820

> <Gold.Chemscore.Internal_Hbond>
0.0000

> <Gold.Chemscore.DEClash>
0.2392

> <Gold.Chemscore.DEInternal>
0.6755

> <Gold.Chemscore.Rot>
2.9611

> <Gold.Chemscore.Internal.Correction>
   9.000000E+99

> <Gold.Chemscore.Hbonds>
donor molecule, donor type, donor heavy atom, donor atom, acceptor molecule, acceptor atom, score
      L1  H     4    49       P1  8028  0.52
      P1  H  7997  8008       L1    12  0.03
      P1  H  7997  8010       L1    13  0.01

> <Gold.Chemscore.Hbond.Weighted>
-2.6265

> <Gold.Chemscore.Metal.Weighted>
-0.0000

> <Gold.Chemscore.Lipo.Weighted>
-13.4412

> <Gold.Chemscore.Internal_Hbond.Weighted>
0.0000

> <Gold.Chemscore.DEClash.Weighted>
0.2392

> <Gold.Chemscore.DEInternal.Weighted>
0.6755

> <Gold.Chemscore.Rot.Weighted>
7.5803

> <Gold.Chemscore.Internal.Correction.Weighted>
   9.000000E+99

> <Gold.Protein.RotatedTorsions>
[ 6907 6896 6895 6894 ] final  -19.27 input  -60.11 | X-H torsion
[ 7974 7965 7964 7962 ] final  144.15 input  175.53 | X-H torsion
[ 8008 7997 7996 7995 ] final   16.26 input   59.86 | X-H torsion
[ 10167 10162 10161 10158 ] final   -8.43 input  -65.29 | X-H torsion
[ 10718 10713 10712 10709 ] final  -61.70 input   66.30 | X-H torsion
[ 10763 10752 10751 10750 ] final   18.30 input  -60.55 | X-H torsion
[ 11005 11000 10999 10996 ] final  103.87 input  -57.11 | X-H torsion

> <Gold.Protein.ActiveResidues>
 VAL166  LYS551  ARG553  GLY616  TRP617  ASP618  TYR619  PRO620  LYS621  CYS622 
 ASP623  PHE694  ASN695  SER759  ASP760  ASP761  ALA762  ILE779  LEU786  VAL792 
 PHE793  MET794  SER795  GLU796  ALA797  LYS798  CYS799  TRP800  GLU811  SER814 

> <Gold.Protein.RotatedAtoms>
  151.2657  135.0668  159.9114 H   0  0  0  0  0  0  0  0  0  0  0  0  # atno 6907 bound_to 6896
  152.5359  134.0184  159.7980 H   0  0  0  0  0  0  0  0  0  0  0  0  # atno 6908 bound_to 6896
  151.0414  133.5653  159.2682 H   0  0  0  0  0  0  0  0  0  0  0  0  # atno 6909 bound_to 6896
  144.8860  139.5628  143.5821 H   0  0  0  0  0  0  0  0  0  0  0  0  # atno 7974 bound_to 7965
  154.8744  140.2963  155.5462 H   0  0  0  0  0  0  0  0  0  0  0  0  # atno 8008 bound_to 7997
  156.3022  140.2454  156.3671 H   0  0  0  0  0  0  0  0  0  0  0  0  # atno 8009 bound_to 7997
  154.8783  140.0399  157.1755 H   0  0  0  0  0  0  0  0  0  0  0  0  # atno 8010 bound_to 7997
  140.7059  143.5969  150.8836 H   0  0  0  0  0  0  0  0  0  0  0  0  # atno 10167 bound_to 10162
  156.0904  130.4201  150.1030 H   0  0  0  0  0  0  0  0  0  0  0  0  # atno 10718 bound_to 10713
  153.1261  135.6730  153.9254 H   0  0  0  0  0  0  0  0  0  0  0  0  # atno 10763 bound_to 10752
  153.8755  135.3064  155.3445 H   0  0  0  0  0  0  0  0  0  0  0  0  # atno 10764 bound_to 10752
  154.7666  135.4961  153.9647 H   0  0  0  0  0  0  0  0  0  0  0  0  # atno 10765 bound_to 10752
  139.8787  134.9279  156.5275 H   0  0  0  0  0  0  0  0  0  0  0  0  # atno 11005 bound_to 11000
  146.3024  139.7470  142.9081 LP  0  0  0  0  0  0  0  0  0  0  0  0  # atno 17320 bound_to 7965
  145.3868  141.0366  143.3146 LP  0  0  0  0  0  0  0  0  0  0  0  0  # atno 17321 bound_to 7965
  139.9694  143.6074  152.2978 LP  0  0  0  0  0  0  0  0  0  0  0  0  # atno 17342 bound_to 10162
  139.6655  144.7662  151.1882 LP  0  0  0  0  0  0  0  0  0  0  0  0  # atno 17343 bound_to 10162
  156.9042  130.9630  151.3572 LP  0  0  0  0  0  0  0  0  0  0  0  0  # atno 17370 bound_to 10713
  157.6052  130.8542  149.8864 LP  0  0  0  0  0  0  0  0  0  0  0  0  # atno 17371 bound_to 10713
  140.8405  133.8208  155.9070 LP  0  0  0  0  0  0  0  0  0  0  0  0  # atno 17394 bound_to 11000
  140.9242  134.2104  157.4907 LP  0  0  0  0  0  0  0  0  0  0  0  0  # atno 17395 bound_to 11000

$$$$
