AV-unprocessed.smi:1442|AV-procd|sdf|5876|dock1
  -GOLD-   22720 5553D 1   1.00000     0.00000
 Structure written by MMmdl.
 44 45  0  0  0  0  0  0  0  0  1 V2000
  146.7354  130.4592  153.3660 C   0  0  0  0  0  0  0  0  0  0  0  0
  146.2327  131.7238  152.8511 N   0  0  0  0  0  0  0  0  0  0  0  0
  145.5280  131.8513  151.7175 C   0  0  0  0  0  0  0  0  0  0  0  0
  145.2345  130.8967  150.9969 O   0  0  0  0  0  0  0  0  0  0  0  0
  145.0864  133.2718  151.3407 C   0  0  0  0  0  0  0  0  0  0  0  0
  146.3010  134.2259  151.2455 C   0  0  0  0  0  0  0  0  0  0  0  0
  145.8472  135.6767  151.0029 C   0  0  0  0  0  0  0  0  0  0  0  0
  144.9345  136.0722  152.0892 N   0  0  0  0  0  0  0  0  0  0  0  0
  145.2361  136.8817  153.1362 C   0  0  0  0  0  0  0  0  0  0  0  0
  144.3856  137.3480  153.8955 O   0  0  0  0  0  0  0  0  0  0  0  0
  146.5443  137.1557  153.2767 N   0  0  0  0  0  0  0  0  0  0  0  0
  147.1250  137.9776  154.3314 C   0  0  0  0  0  0  0  0  0  0  0  0
  147.7516  139.2617  153.7640 C   0  0  0  0  0  0  0  0  0  0  0  0
  149.1993  139.3857  154.1473 C   0  0  0  0  0  0  0  0  0  0  0  0
  149.8587  140.5120  154.7174 C   0  0  0  0  0  0  0  0  0  0  0  0
  151.1462  140.2988  154.9354 N   0  0  0  0  0  0  0  0  0  0  0  0
  151.3521  139.0329  154.5178 N   0  0  0  0  0  0  0  0  0  0  0  0
  152.6767  138.4572  154.6110 C   0  0  0  0  0  0  0  0  0  0  0  0
  150.1958  138.4573  154.0370 C   0  0  0  0  0  0  0  0  0  0  0  0
  143.6964  135.2845  152.0496 C   0  0  0  0  0  0  0  0  0  0  0  0
  144.0373  133.8117  152.3419 C   0  0  0  0  0  0  0  0  0  0  0  0
  147.2982  130.6290  154.2839 H   0  0  0  0  0  0  0  0  0  0  0  0
  147.3977  129.9804  152.6437 H   0  0  0  0  0  0  0  0  0  0  0  0
  145.9137  129.7779  153.5910 H   0  0  0  0  0  0  0  0  0  0  0  0
  146.4335  132.5548  153.3885 H   0  0  0  0  0  0  0  0  0  0  0  0
  144.6158  133.2376  150.3563 H   0  0  0  0  0  0  0  0  0  0  0  0
  146.8910  134.1864  152.1627 H   0  0  0  0  0  0  0  0  0  0  0  0
  146.9629  133.9086  150.4386 H   0  0  0  0  0  0  0  0  0  0  0  0
  146.7176  136.3241  150.8970 H   0  0  0  0  0  0  0  0  0  0  0  0
  145.3212  135.7464  150.0495 H   0  0  0  0  0  0  0  0  0  0  0  0
  147.1851  136.7498  152.6106 H   0  0  0  0  0  0  0  0  0  0  0  0
  146.3317  138.2311  155.0353 H   0  0  0  0  0  0  0  0  0  0  0  0
  147.8646  137.4012  154.8903 H   0  0  0  0  0  0  0  0  0  0  0  0
  147.6493  139.2698  152.6783 H   0  0  0  0  0  0  0  0  0  0  0  0
  147.1867  140.1243  154.1200 H   0  0  0  0  0  0  0  0  0  0  0  0
  149.4408  141.4743  154.9747 H   0  0  0  0  0  0  0  0  0  0  0  0
  152.6360  137.3895  154.3942 H   0  0  0  0  0  0  0  0  0  0  0  0
  153.0738  138.5989  155.6168 H   0  0  0  0  0  0  0  0  0  0  0  0
  153.3389  138.9409  153.8925 H   0  0  0  0  0  0  0  0  0  0  0  0
  150.1767  137.4453  153.6596 H   0  0  0  0  0  0  0  0  0  0  0  0
  142.9471  135.6416  152.7575 H   0  0  0  0  0  0  0  0  0  0  0  0
  143.2374  135.3766  151.0643 H   0  0  0  0  0  0  0  0  0  0  0  0
  143.1296  133.2088  152.2941 H   0  0  0  0  0  0  0  0  0  0  0  0
  144.4092  133.7282  153.3647 H   0  0  0  0  0  0  0  0  0  0  0  0
  1  2  1  0  0  0  0
  1 22  1  0  0  0  0
  1 23  1  0  0  0  0
  1 24  1  0  0  0  0
  2  3  1  0  0  0  0
  2 25  1  0  0  0  0
  3  4  2  0  0  0  0
  3  5  1  0  0  0  0
  5 21  1  0  0  0  0
  5  6  1  0  0  0  0
  5 26  1  0  0  0  0
  6  7  1  0  0  0  0
  6 27  1  0  0  0  0
  6 28  1  0  0  0  0
  7  8  1  0  0  0  0
  7 29  1  0  0  0  0
  7 30  1  0  0  0  0
  8  9  1  0  0  0  0
  8 20  1  0  0  0  0
  9 10  2  0  0  0  0
  9 11  1  0  0  0  0
 11 12  1  0  0  0  0
 11 31  1  0  0  0  0
 12 13  1  0  0  0  0
 12 32  1  0  0  0  0
 12 33  1  0  0  0  0
 13 14  1  0  0  0  0
 13 34  1  0  0  0  0
 13 35  1  0  0  0  0
 14 19  2  0  0  0  0
 14 15  1  0  0  0  0
 15 16  2  0  0  0  0
 15 36  1  0  0  0  0
 16 17  1  0  0  0  0
 17 18  1  0  0  0  0
 17 19  1  0  0  0  0
 18 37  1  0  0  0  0
 18 38  1  0  0  0  0
 18 39  1  0  0  0  0
 19 40  1  0  0  0  0
 20 21  1  0  0  0  0
 20 41  1  0  0  0  0
 20 42  1  0  0  0  0
 21 43  1  0  0  0  0
 21 44  1  0  0  0  0
M  END
> <s_m_source_file>
AV-unprocessed.smi

> <i_m_source_file_index>
1442

> <i_lp_mmshare_version>
43012

> <i_f3d_flags>
0

> <s_epik_input>
W0NIM11bTkhdQyg9TylbQ0hdMVtDSDJdW0NIMl1OKFtDSDJdW0NIMl0xKUMoPU8pW05IXVtDSDJdW0NIMl1jMltjSF1ubihbQ0gzXSlbY0hdMg==

> <s_epik_cmdline>
J2VwaWtfcHl0aG9uJywgJy1waCcsICc3LjAnLCAnLXRuJywgJzgnLCAnLW1hJywgJzIwMCcsICctbWV0YWxfYmluZGluZycsICctaW1hZScsICc8aW5maWxlLm1hZT4nLCAnLW9tYWUnLCAnPG91dGZpbGUubWFlPic=

> <r_lp_tautomer_probability>
1

> <r_epik_Ionization_Penalty>
0.000562975

> <r_epik_Ionization_Penalty_Charging>
0

> <r_epik_Ionization_Penalty_Neutral>
0.000562975

> <r_epik_State_Penalty>
-0

> <r_epik_Charging_Adjusted_Penalty>
0

> <i_epik_Tot_Q>
0

> <i_epik_Tot_abs_Q>
0

> <r_epik_Metal_State_Penalty>
-0

> <b_epik_Metal_Only>
0

> <s_lp_Force_Field>
OPLS_2005

> <r_lp_Energy>
25.7174

> <b_lp_Chiralities_Consistent>
1

> <s_lp_Variant>
AV-unprocessed.smi:1442-1

> <Gold.Version>
5.8.1

> <Gold.Id.Protein>
6NUR|6NUR_protein|mol2

> <Gold.PLP.Fitness>
40.9352

> <Gold.PLP.PLP>
-34.7671

> <Gold.PLP.part.hbond>
-2.0000

> <Gold.PLP.part.metal>
0.0000

> <Gold.PLP.part.buried>
-2.7326

> <Gold.PLP.part.nonpolar>
-29.5925

> <Gold.PLP.part.repulsive>
0.3270

> <Gold.PLP.ligand.clash>
0.0000

> <Gold.PLP.ligand.torsion>
0.7011

> <Gold.PLP.Chemscore.Hbond>
1.4550

> <Gold.PLP.Chemscore.CHOScore>
1.0274

> <Gold.PLP.Chemscore.Metal>
0.0000

> <Gold.Chemscore.Hbonds>
donor molecule, donor type, donor heavy atom, donor atom, acceptor molecule, acceptor atom, score
      L1  H    11    31       P1  7948  1.00
      P1  H  7989  7998       L1    16  0.41
      L1  C    19    40       P1  7948  1.00
      L1  C    19    40       P1  7949  0.09

> <Gold.PLP.Chemscore.Internal.Correction>
0.1232

> <Gold.Rescore>
     Score         DG    S(hbond)    S(metal)    S(lipo)     H(rot)  DE(clash)    DE(int)     intcor
     11.55     -12.77       0.99        0.00      72.74       1.77       0.18       1.04       ----

> <Gold.Chemscore.Fitness>
11.5476

> <Gold.Chemscore.DG>
-12.7722

> <Gold.Chemscore.ZeroCoef>
-5.4800

> <Gold.Chemscore.Hbond>
0.9890

> <Gold.Chemscore.Metal>
0.0000

> <Gold.Chemscore.Lipo>
72.7356

> <Gold.Chemscore.Internal_Hbond>
0.0000

> <Gold.Chemscore.DEClash>
0.1849

> <Gold.Chemscore.DEInternal>
1.0397

> <Gold.Chemscore.Rot>
1.7661

> <Gold.Chemscore.Internal.Correction>
   9.000000E+99

> <Gold.Chemscore.Hbonds>
donor molecule, donor type, donor heavy atom, donor atom, acceptor molecule, acceptor atom, score
      L1  H    11    31       P1  7948  0.96

> <Gold.Chemscore.Hbond.Weighted>
-3.3032

> <Gold.Chemscore.Metal.Weighted>
-0.0000

> <Gold.Chemscore.Lipo.Weighted>
-8.5101

> <Gold.Chemscore.Internal_Hbond.Weighted>
0.0000

> <Gold.Chemscore.DEClash.Weighted>
0.1849

> <Gold.Chemscore.DEInternal.Weighted>
1.0397

> <Gold.Chemscore.Rot.Weighted>
4.5211

> <Gold.Chemscore.Internal.Correction.Weighted>
   9.000000E+99

> <Gold.Protein.RotatedTorsions>
[ 6907 6896 6895 6894 ] final   33.68 input  -60.11 | X-H torsion
[ 7974 7965 7964 7962 ] final  -50.75 input  175.53 | X-H torsion
[ 8008 7997 7996 7995 ] final  134.65 input   59.86 | X-H torsion
[ 10167 10162 10161 10158 ] final  -63.50 input  -65.29 | X-H torsion
[ 10718 10713 10712 10709 ] final  -80.63 input   66.30 | X-H torsion
[ 10763 10752 10751 10750 ] final  -41.89 input  -60.55 | X-H torsion
[ 11005 11000 10999 10996 ] final  -74.31 input  -57.11 | X-H torsion

> <Gold.Protein.ActiveResidues>
 VAL166  LYS551  ARG553  GLY616  TRP617  ASP618  TYR619  PRO620  LYS621  CYS622 
 ASP623  PHE694  ASN695  SER759  ASP760  ASP761  ALA762  ILE779  LEU786  VAL792 
 PHE793  MET794  SER795  GLU796  ALA797  LYS798  CYS799  TRP800  GLU811  SER814 

> <Gold.Protein.RotatedAtoms>
  152.0918  134.9402  160.0571 H   0  0  0  0  0  0  0  0  0  0  0  0  # atno 6907 bound_to 6896
  152.0650  133.4075  159.4442 H   0  0  0  0  0  0  0  0  0  0  0  0  # atno 6908 bound_to 6896
  150.6837  134.3077  159.4776 H   0  0  0  0  0  0  0  0  0  0  0  0  # atno 6909 bound_to 6896
  145.9264  140.7788  142.9621 H   0  0  0  0  0  0  0  0  0  0  0  0  # atno 7974 bound_to 7965
  156.3000  140.2490  156.3452 H   0  0  0  0  0  0  0  0  0  0  0  0  # atno 8008 bound_to 7997
  154.9017  140.0406  157.1916 H   0  0  0  0  0  0  0  0  0  0  0  0  # atno 8009 bound_to 7997
  154.8494  140.2903  155.5612 H   0  0  0  0  0  0  0  0  0  0  0  0  # atno 8010 bound_to 7997
  140.5866  143.2335  151.6229 H   0  0  0  0  0  0  0  0  0  0  0  0  # atno 10167 bound_to 10162
  156.0066  130.4580  150.3830 H   0  0  0  0  0  0  0  0  0  0  0  0  # atno 10718 bound_to 10713
  153.9700  135.6729  153.4747 H   0  0  0  0  0  0  0  0  0  0  0  0  # atno 10763 bound_to 10752
  153.0797  135.4929  154.8475 H   0  0  0  0  0  0  0  0  0  0  0  0  # atno 10764 bound_to 10752
  154.7224  135.3120  154.8986 H   0  0  0  0  0  0  0  0  0  0  0  0  # atno 10765 bound_to 10752
  141.1633  133.6907  156.7344 H   0  0  0  0  0  0  0  0  0  0  0  0  # atno 11005 bound_to 11000
  144.6759  140.2058  143.7382 LP  0  0  0  0  0  0  0  0  0  0  0  0  # atno 17320 bound_to 7965
  145.8483  139.2163  143.1787 LP  0  0  0  0  0  0  0  0  0  0  0  0  # atno 17321 bound_to 7965
  139.5202  144.3231  152.0893 LP  0  0  0  0  0  0  0  0  0  0  0  0  # atno 17342 bound_to 10162
  140.2389  144.4290  150.6268 LP  0  0  0  0  0  0  0  0  0  0  0  0  # atno 17343 bound_to 10162
  157.1909  131.0415  151.2700 LP  0  0  0  0  0  0  0  0  0  0  0  0  # atno 17370 bound_to 10713
  157.4062  130.7360  149.6804 LP  0  0  0  0  0  0  0  0  0  0  0  0  # atno 17371 bound_to 10713
  140.2721  134.8384  157.3856 LP  0  0  0  0  0  0  0  0  0  0  0  0  # atno 17394 bound_to 11000
  140.1512  134.4847  155.7960 LP  0  0  0  0  0  0  0  0  0  0  0  0  # atno 17395 bound_to 11000

$$$$
