AV-unprocessed.smi:1726|AV-procd|sdf|6964|dock4
  -GOLD-   22720 8173D 1   1.00000     0.00000
 Structure written by MMmdl.
 42 43  0  0  0  0  0  0  0  0  3 V2000
  145.7462  134.3685  150.6766 C   0  0  0  0  0  0  0  0  0  0  0  0
  145.8986  134.7370  152.1596 C   0  0  0  0  0  0  0  0  0  0  0  0
  147.1776  134.2554  152.7406 N   0  3  2  0  0  0  0  0  0  0  0  0
  147.2855  132.7736  152.7004 C   0  0  0  0  0  0  0  0  0  0  0  0
  148.6673  132.3006  153.1818 C   0  0  0  0  0  0  0  0  0  0  0  0
  148.9711  132.8298  154.5889 C   0  0  0  0  0  0  0  0  0  0  0  0
  148.8325  134.3595  154.6141 C   0  0  2  0  0  0  0  0  0  0  0  0
  149.0658  134.8583  155.9660 N   0  0  0  0  0  0  0  0  0  0  0  0
  148.1523  134.8801  156.9474 C   0  0  0  0  0  0  0  0  0  0  0  0
  147.0009  134.4693  156.8016 O   0  0  0  0  0  0  0  0  0  0  0  0
  148.6776  135.3781  158.0810 N   0  0  0  0  0  0  0  0  0  0  0  0
  148.0643  135.5896  159.3274 C   0  0  0  0  0  0  0  0  0  0  0  0
  147.1243  134.7728  159.8787 C   0  0  0  0  0  0  0  0  0  0  0  0
  146.5124  135.0500  161.1722 C   0  0  0  0  0  0  0  0  0  0  0  0
  145.4105  134.2026  161.7832 C   0  0  0  0  0  0  0  0  0  0  0  0
  144.8202  134.8409  162.7941 F   0  0  0  0  0  0  0  0  0  0  0  0
  144.4810  133.8998  160.8769 F   0  0  0  0  0  0  0  0  0  0  0  0
  145.9205  133.0648  162.2520 F   0  0  0  0  0  0  0  0  0  0  0  0
  146.9718  136.2283  161.7279 C   0  0  0  0  0  0  0  0  0  0  0  0
  147.9000  137.0876  161.2531 N   0  5  0  0  0  0  0  0  0  0  0  0
  148.4741  136.8127  160.0479 C   0  0  0  0  0  0  0  0  0  0  0  0
  149.3216  137.5566  159.5525 O   0  0  0  0  0  0  0  0  0  0  0  0
  147.4377  134.7837  154.1064 C   0  0  0  0  0  0  0  0  0  0  0  0
  144.7539  134.6402  150.3159 H   0  0  0  0  0  0  0  0  0  0  0  0
  145.8704  133.2962  150.5219 H   0  0  0  0  0  0  0  0  0  0  0  0
  146.4689  134.8869  150.0470 H   0  0  0  0  0  0  0  0  0  0  0  0
  145.8043  135.8147  152.3009 H   0  0  0  0  0  0  0  0  0  0  0  0
  145.0677  134.2815  152.6998 H   0  0  0  0  0  0  0  0  0  0  0  0
  146.5008  132.3342  153.3184 H   0  0  0  0  0  0  0  0  0  0  0  0
  147.1229  132.4189  151.6818 H   0  0  0  0  0  0  0  0  0  0  0  0
  148.7111  131.2112  153.1762 H   0  0  0  0  0  0  0  0  0  0  0  0
  149.4348  132.6443  152.4869 H   0  0  0  0  0  0  0  0  0  0  0  0
  148.2840  132.3787  155.3064 H   0  0  0  0  0  0  0  0  0  0  0  0
  149.9771  132.5338  154.8895 H   0  0  0  0  0  0  0  0  0  0  0  0
  149.5923  134.7793  153.9515 H   0  0  0  0  0  0  0  0  0  0  0  0
  149.9893  135.2117  156.1707 H   0  0  0  0  0  0  0  0  0  0  0  0
  149.6621  135.6019  158.0624 H   0  0  0  0  0  0  0  0  0  0  0  0
  146.7858  133.8911  159.3603 H   0  0  0  0  0  0  0  0  0  0  0  0
  146.5233  136.5270  162.6993 H   0  0  0  0  0  0  0  0  0  0  0  0
  147.3758  135.8714  154.0996 H   0  0  0  0  0  0  0  0  0  0  0  0
  146.6621  134.4289  154.7874 H   0  0  0  0  0  0  0  0  0  0  0  0
  147.9132  134.6081  152.1450 H   0  0  0  0  0  0  0  0  0  0  0  0
  1  2  1  0  0  0  0
  1 24  1  0  0  0  0
  1 25  1  0  0  0  0
  1 26  1  0  0  0  0
  2  3  1  0  0  0  0
  2 27  1  0  0  0  0
  2 28  1  0  0  0  0
  3 23  1  0  0  0  0
  3  4  1  0  0  0  0
  3 42  1  0  0  0  0
  4  5  1  0  0  0  0
  4 29  1  0  0  0  0
  4 30  1  0  0  0  0
  5  6  1  0  0  0  0
  5 31  1  0  0  0  0
  5 32  1  0  0  0  0
  6  7  1  0  0  0  0
  6 33  1  0  0  0  0
  6 34  1  0  0  0  0
  7  8  1  0  0  0  0
  7 23  1  0  0  0  0
  7 35  1  0  0  0  0
  8  9  1  0  0  0  0
  8 36  1  0  0  0  0
  9 10  2  0  0  0  0
  9 11  1  0  0  0  0
 11 12  1  0  0  0  0
 11 37  1  0  0  0  0
 12 21  1  0  0  0  0
 12 13  2  0  0  0  0
 13 14  1  0  0  0  0
 13 38  1  0  0  0  0
 14 15  1  0  0  0  0
 14 19  2  0  0  0  0
 15 16  1  0  0  0  0
 15 17  1  0  0  0  0
 15 18  1  0  0  0  0
 19 20  1  0  0  0  0
 19 39  1  0  0  0  0
 20 21  1  0  0  0  0
 21 22  2  0  0  0  0
 23 40  1  0  0  0  0
 23 41  1  0  0  0  0
M  CHG  1   3   1
M  CHG  1  20  -1
M  END
> <s_m_source_file>
AV-unprocessed.smi

> <i_m_source_file_index>
1726

> <i_lp_mmshare_version>
43012

> <i_f3d_flags>
0

> <s_epik_input>
W0NIM11bQ0gyXU4xW0NIMl1bQ0gyXVtDSDJdW0NASF0oW0NIMl0xKVtOSF1DKD1PKVtOSF1jMltjSF1jKEMoRikoRilGKVtjSF1bbkhdYzI9Tw==

> <s_epik_cmdline>
J2VwaWtfcHl0aG9uJywgJy1waCcsICc3LjAnLCAnLXRuJywgJzgnLCAnLW1hJywgJzIwMCcsICctbWV0YWxfYmluZGluZycsICctaW1hZScsICc8aW5maWxlLm1hZT4nLCAnLW9tYWUnLCAnPG91dGZpbGUubWFlPic=

> <r_lp_tautomer_probability>
1

> <r_epik_Ionization_Penalty>
3.01007

> <r_epik_Ionization_Penalty_Charging>
0.14897

> <r_epik_Ionization_Penalty_Neutral>
2.8611

> <r_epik_State_Penalty>
2.85632

> <r_epik_Charging_Adjusted_Penalty>
3.00529

> <i_epik_Tot_Q>
0

> <i_epik_Tot_abs_Q>
2

> <r_epik_Metal_State_Penalty>
0.443826

> <b_epik_Metal_Only>
1

> <s_lp_Force_Field>
OPLS_2005

> <r_lp_Energy>
27.5552

> <b_lp_Chiralities_Consistent>
1

> <s_lp_Variant>
AV-unprocessed.smi:1726-8

> <Gold.Version>
5.8.1

> <Gold.Id.Protein>
6NUR|6NUR_protein|mol2

> <Gold.PLP.Fitness>
45.7244

> <Gold.PLP.PLP>
-31.7329

> <Gold.PLP.part.hbond>
-4.3358

> <Gold.PLP.part.metal>
0.0000

> <Gold.PLP.part.buried>
-0.3401

> <Gold.PLP.part.nonpolar>
-26.0364

> <Gold.PLP.part.repulsive>
0.0825

> <Gold.PLP.ligand.clash>
0.0579

> <Gold.PLP.ligand.torsion>
1.0035

> <Gold.PLP.Chemscore.Hbond>
5.3280

> <Gold.PLP.Chemscore.CHOScore>
0.0000

> <Gold.PLP.Chemscore.Metal>
0.0000

> <Gold.Chemscore.Hbonds>
donor molecule, donor type, donor heavy atom, donor atom, acceptor molecule, acceptor atom, score
      L1  H     3    42       P1  7948  1.66
      P1  H  6931  6943       L1    20  2.00
      P1  H  6934  6947       L1    20  1.32

> <Gold.PLP.Chemscore.Internal.Correction>
0.0724

> <Gold.Rescore>
     Score         DG    S(hbond)    S(metal)    S(lipo)     H(rot)  DE(clash)    DE(int)     intcor
     13.20     -15.60       1.85        0.00      61.60       1.28       0.05       2.36       ----

> <Gold.Chemscore.Fitness>
13.1957

> <Gold.Chemscore.DG>
-15.6018

> <Gold.Chemscore.ZeroCoef>
-5.4800

> <Gold.Chemscore.Hbond>
1.8534

> <Gold.Chemscore.Metal>
0.0000

> <Gold.Chemscore.Lipo>
61.6002

> <Gold.Chemscore.Internal_Hbond>
0.0000

> <Gold.Chemscore.DEClash>
0.0485

> <Gold.Chemscore.DEInternal>
2.3577

> <Gold.Chemscore.Rot>
1.2796

> <Gold.Chemscore.Internal.Correction>
   9.000000E+99

> <Gold.Chemscore.Hbonds>
donor molecule, donor type, donor heavy atom, donor atom, acceptor molecule, acceptor atom, score
      L1  H     3    42       P1  7948  0.33
      P1  H  6931  6943       L1    20  0.29
      P1  H  6934  6947       L1    20  0.17

> <Gold.Chemscore.Hbond.Weighted>
-6.1905

> <Gold.Chemscore.Metal.Weighted>
-0.0000

> <Gold.Chemscore.Lipo.Weighted>
-7.2072

> <Gold.Chemscore.Internal_Hbond.Weighted>
0.0000

> <Gold.Chemscore.DEClash.Weighted>
0.0485

> <Gold.Chemscore.DEInternal.Weighted>
2.3577

> <Gold.Chemscore.Rot.Weighted>
3.2759

> <Gold.Chemscore.Internal.Correction.Weighted>
   9.000000E+99

> <Gold.Protein.RotatedTorsions>
[ 6907 6896 6895 6894 ] final  -90.21 input  -60.11 | X-H torsion
[ 7974 7965 7964 7962 ] final  100.69 input  175.53 | X-H torsion
[ 8008 7997 7996 7995 ] final  -30.17 input   59.86 | X-H torsion
[ 10167 10162 10161 10158 ] final -115.70 input  -65.29 | X-H torsion
[ 10718 10713 10712 10709 ] final -122.76 input   66.30 | X-H torsion
[ 10763 10752 10751 10750 ] final   53.29 input  -60.55 | X-H torsion
[ 11005 11000 10999 10996 ] final   46.50 input  -57.11 | X-H torsion

> <Gold.Protein.ActiveResidues>
 VAL166  LYS551  ARG553  GLY616  TRP617  ASP618  TYR619  PRO620  LYS621  CYS622 
 ASP623  PHE694  ASN695  SER759  ASP760  ASP761  ALA762  ILE779  LEU786  VAL792 
 PHE793  MET794  SER795  GLU796  ALA797  LYS798  CYS799  TRP800  GLU811  SER814 

> <Gold.Protein.RotatedAtoms>
  150.6880  134.2467  159.4493 H   0  0  0  0  0  0  0  0  0  0  0  0  # atno 6907 bound_to 6896
  152.0407  134.9710  160.0583 H   0  0  0  0  0  0  0  0  0  0  0  0  # atno 6908 bound_to 6896
  152.1213  133.4320  159.4714 H   0  0  0  0  0  0  0  0  0  0  0  0  # atno 6909 bound_to 6896
  145.3822  139.2378  143.3397 H   0  0  0  0  0  0  0  0  0  0  0  0  # atno 7974 bound_to 7965
  154.4261  140.1798  156.1365 H   0  0  0  0  0  0  0  0  0  0  0  0  # atno 8008 bound_to 7997
  156.0026  140.3358  155.6836 H   0  0  0  0  0  0  0  0  0  0  0  0  # atno 8009 bound_to 7997
  155.6222  140.0661  157.2665 H   0  0  0  0  0  0  0  0  0  0  0  0  # atno 8010 bound_to 7997
  140.0872  143.4733  152.1891 H   0  0  0  0  0  0  0  0  0  0  0  0  # atno 10167 bound_to 10162
  156.1445  130.6490  150.9821 H   0  0  0  0  0  0  0  0  0  0  0  0  # atno 10718 bound_to 10713
  152.9794  135.5784  154.4718 H   0  0  0  0  0  0  0  0  0  0  0  0  # atno 10763 bound_to 10752
  154.4279  135.2773  155.1934 H   0  0  0  0  0  0  0  0  0  0  0  0  # atno 10764 bound_to 10752
  154.3655  135.6179  153.5766 H   0  0  0  0  0  0  0  0  0  0  0  0  # atno 10765 bound_to 10752
  140.1363  134.4641  155.8483 H   0  0  0  0  0  0  0  0  0  0  0  0  # atno 11005 bound_to 11000
  146.2837  140.4491  142.8766 LP  0  0  0  0  0  0  0  0  0  0  0  0  # atno 17320 bound_to 7965
  144.8499  140.6986  143.6175 LP  0  0  0  0  0  0  0  0  0  0  0  0  # atno 17321 bound_to 7965
  139.5745  144.7480  151.3801 LP  0  0  0  0  0  0  0  0  0  0  0  0  # atno 17342 bound_to 10162
  140.7047  143.7543  150.7462 LP  0  0  0  0  0  0  0  0  0  0  0  0  # atno 17343 bound_to 10162
  157.6604  131.0882  150.7850 LP  0  0  0  0  0  0  0  0  0  0  0  0  # atno 17370 bound_to 10713
  156.7923  130.4894  149.5383 LP  0  0  0  0  0  0  0  0  0  0  0  0  # atno 17371 bound_to 10713
  141.2179  133.6815  156.7163 LP  0  0  0  0  0  0  0  0  0  0  0  0  # atno 17394 bound_to 11000
  140.2778  134.8341  157.3906 LP  0  0  0  0  0  0  0  0  0  0  0  0  # atno 17395 bound_to 11000

$$$$
