AV-unprocessed.smi:1715|AV-procd|sdf|6911|dock2
  -GOLD-   22720 8113D 1   1.00000     0.00000
 Structure written by MMmdl.
 40 41  0  0  0  0  0  0  0  0  1 V2000
  151.2979  137.6326  155.8254 C   0  0  0  0  0  0  0  0  0  0  0  0
  151.2775  138.6511  154.6729 C   0  0  1  0  0  0  0  0  0  0  0  0
  149.9470  138.6680  153.8939 C   0  0  0  0  0  0  0  0  0  0  0  0
  148.8618  139.2996  154.6376 N   0  0  0  0  0  0  0  0  0  0  0  0
  147.6258  139.2962  153.8570 C   0  0  0  0  0  0  0  0  0  0  0  0
  146.3871  139.8341  154.5977 C   0  0  0  0  0  0  0  0  0  0  0  0
  145.1621  139.2260  154.0928 N   0  0  0  0  0  0  0  0  0  0  0  0
  144.7013  138.0168  154.4424 C   0  0  0  0  0  0  0  0  0  0  0  0
  145.2735  137.2742  155.2407 O   0  0  0  0  0  0  0  0  0  0  0  0
  143.5501  137.7324  153.8115 N   0  0  0  0  0  0  0  0  0  0  0  0
  142.7737  136.5516  153.9259 C   0  0  0  0  0  0  0  0  0  0  0  0
  141.3545  136.5209  153.9988 C   0  0  0  0  0  0  0  0  0  0  0  0
  140.9022  135.2792  154.0993 N   0  0  0  0  0  0  0  0  0  0  0  0
  142.0191  134.5170  154.0924 N   0  0  0  0  0  0  0  0  0  0  0  0
  143.1817  135.2487  153.9885 C   0  0  0  0  0  0  0  0  0  0  0  0
  149.2759  140.6435  155.0302 C   0  0  0  0  0  0  0  0  0  0  0  0
  150.5738  140.6276  155.8586 C   0  0  2  0  0  0  0  0  0  0  0  0
  151.0614  142.0408  156.1940 C   0  0  0  0  0  0  0  0  0  0  0  0
  151.6016  139.9677  155.1219 O   0  0  0  0  0  0  0  0  0  0  0  0
  141.9722  133.5100  154.1588 H   0  0  0  0  0  0  0  0  0  0  0  0
  151.1634  136.6184  155.4485 H   0  0  0  0  0  0  0  0  0  0  0  0
  150.5055  137.8167  156.5506 H   0  0  0  0  0  0  0  0  0  0  0  0
  152.2502  137.6645  156.3552 H   0  0  0  0  0  0  0  0  0  0  0  0
  152.0676  138.3617  153.9795 H   0  0  0  0  0  0  0  0  0  0  0  0
  150.0984  139.2020  152.9544 H   0  0  0  0  0  0  0  0  0  0  0  0
  149.6710  137.6478  153.6243 H   0  0  0  0  0  0  0  0  0  0  0  0
  147.7724  139.8579  152.9333 H   0  0  0  0  0  0  0  0  0  0  0  0
  147.4120  138.2709  153.5517 H   0  0  0  0  0  0  0  0  0  0  0  0
  146.4780  139.6610  155.6715 H   0  0  0  0  0  0  0  0  0  0  0  0
  146.2906  140.9106  154.4620 H   0  0  0  0  0  0  0  0  0  0  0  0
  144.6264  139.7664  153.4295 H   0  0  0  0  0  0  0  0  0  0  0  0
  143.1909  138.4343  153.1812 H   0  0  0  0  0  0  0  0  0  0  0  0
  140.6523  137.3414  153.9821 H   0  0  0  0  0  0  0  0  0  0  0  0
  144.1570  134.7854  153.9695 H   0  0  0  0  0  0  0  0  0  0  0  0
  149.4169  141.2605  154.1412 H   0  0  0  0  0  0  0  0  0  0  0  0
  148.4961  141.1215  155.6220 H   0  0  0  0  0  0  0  0  0  0  0  0
  150.4014  140.0949  156.7943 H   0  0  0  0  0  0  0  0  0  0  0  0
  150.3182  142.5844  156.7780 H   0  0  0  0  0  0  0  0  0  0  0  0
  151.2619  142.6146  155.2888 H   0  0  0  0  0  0  0  0  0  0  0  0
  151.9817  142.0067  156.7774 H   0  0  0  0  0  0  0  0  0  0  0  0
  1  2  1  0  0  0  0
  1 21  1  0  0  0  0
  1 22  1  0  0  0  0
  1 23  1  0  0  0  0
  2 19  1  0  0  0  0
  2  3  1  0  0  0  0
  2 24  1  0  0  0  0
  3  4  1  0  0  0  0
  3 25  1  0  0  0  0
  3 26  1  0  0  0  0
  4  5  1  0  0  0  0
  4 16  1  0  0  0  0
  5  6  1  0  0  0  0
  5 27  1  0  0  0  0
  5 28  1  0  0  0  0
  6  7  1  0  0  0  0
  6 29  1  0  0  0  0
  6 30  1  0  0  0  0
  7  8  1  0  0  0  0
  7 31  1  0  0  0  0
  8  9  2  0  0  0  0
  8 10  1  0  0  0  0
 10 11  1  0  0  0  0
 10 32  1  0  0  0  0
 11 15  2  0  0  0  0
 11 12  1  0  0  0  0
 12 13  2  0  0  0  0
 12 33  1  0  0  0  0
 13 14  1  0  0  0  0
 14 20  1  0  0  0  0
 14 15  1  0  0  0  0
 15 34  1  0  0  0  0
 16 17  1  0  0  0  0
 16 35  1  0  0  0  0
 16 36  1  0  0  0  0
 17 18  1  0  0  0  0
 17 19  1  0  0  0  0
 17 37  1  0  0  0  0
 18 38  1  0  0  0  0
 18 39  1  0  0  0  0
 18 40  1  0  0  0  0
M  END
> <s_m_source_file>
AV-unprocessed.smi

> <i_m_source_file_index>
1715

> <i_lp_mmshare_version>
43012

> <i_f3d_flags>
0

> <s_epik_input>
W0NIM11bQ0BASF0xW0NIMl1OKFtDSDJdW0NASF0oTzEpW0NIM10pW0NIMl1bQ0gyXVtOSF1DKD1PKVtOSF1jMltjSF1uW25IXVtjSF0y

> <s_epik_cmdline>
J2VwaWtfcHl0aG9uJywgJy1waCcsICc3LjAnLCAnLXRuJywgJzgnLCAnLW1hJywgJzIwMCcsICctbWV0YWxfYmluZGluZycsICctaW1hZScsICc8aW5maWxlLm1hZT4nLCAnLW9tYWUnLCAnPG91dGZpbGUubWFlPic=

> <r_lp_tautomer_probability>
0.5

> <r_epik_Ionization_Penalty>
0.242771

> <r_epik_Ionization_Penalty_Charging>
0

> <r_epik_Ionization_Penalty_Neutral>
0.242771

> <r_epik_State_Penalty>
0.233765

> <r_epik_Charging_Adjusted_Penalty>
0.233765

> <i_epik_Tot_Q>
0

> <i_epik_Tot_abs_Q>
0

> <r_epik_Metal_State_Penalty>
0.233764

> <b_epik_Metal_Only>
0

> <s_lp_Force_Field>
OPLS_2005

> <r_lp_Energy>
25.0708

> <b_lp_Chiralities_Consistent>
1

> <s_lp_Variant>
AV-unprocessed.smi:1715-3

> <Gold.Version>
5.8.1

> <Gold.Id.Protein>
6NUR|6NUR_protein|mol2

> <Gold.PLP.Fitness>
39.1947

> <Gold.PLP.PLP>
-27.4808

> <Gold.PLP.part.hbond>
-5.6788

> <Gold.PLP.part.metal>
0.0000

> <Gold.PLP.part.buried>
-5.5123

> <Gold.PLP.part.nonpolar>
-16.5120

> <Gold.PLP.part.repulsive>
0.3802

> <Gold.PLP.ligand.clash>
0.0000

> <Gold.PLP.ligand.torsion>
0.6536

> <Gold.PLP.Chemscore.Hbond>
4.3346

> <Gold.PLP.Chemscore.CHOScore>
0.0000

> <Gold.PLP.Chemscore.Metal>
0.0000

> <Gold.Chemscore.Hbonds>
donor molecule, donor type, donor heavy atom, donor atom, acceptor molecule, acceptor atom, score
      L1  H     7    31       P1 10175  0.96
      L1  H    10    32       P1 10175  0.54
      L1  H    14    20       P1 10957  1.00
      P1  H  7989  7998       L1    19  1.00
      P1  H 11000 11005       L1    13  0.73

> <Gold.PLP.Chemscore.Internal.Correction>
0.0174

> <Gold.Rescore>
     Score         DG    S(hbond)    S(metal)    S(lipo)     H(rot)  DE(clash)    DE(int)     intcor
     18.40     -19.20       3.18        0.00      62.04       1.63       0.12       0.67       ----

> <Gold.Chemscore.Fitness>
18.4047

> <Gold.Chemscore.DG>
-19.2028

> <Gold.Chemscore.ZeroCoef>
-5.4800

> <Gold.Chemscore.Hbond>
3.1837

> <Gold.Chemscore.Metal>
0.0000

> <Gold.Chemscore.Lipo>
62.0395

> <Gold.Chemscore.Internal_Hbond>
0.0000

> <Gold.Chemscore.DEClash>
0.1236

> <Gold.Chemscore.DEInternal>
0.6745

> <Gold.Chemscore.Rot>
1.6287

> <Gold.Chemscore.Internal.Correction>
   9.000000E+99

> <Gold.Chemscore.Hbonds>
donor molecule, donor type, donor heavy atom, donor atom, acceptor molecule, acceptor atom, score
      L1  H     7    31       P1 10175  0.91
      L1  H    10    32       P1 10175  0.53
      L1  H    14    20       P1 10957  0.96
      P1  H  7989  7998       L1    19  0.13
      P1  H 11000 11005       L1    13  0.10

> <Gold.Chemscore.Hbond.Weighted>
-10.6337

> <Gold.Chemscore.Metal.Weighted>
-0.0000

> <Gold.Chemscore.Lipo.Weighted>
-7.2586

> <Gold.Chemscore.Internal_Hbond.Weighted>
0.0000

> <Gold.Chemscore.DEClash.Weighted>
0.1236

> <Gold.Chemscore.DEInternal.Weighted>
0.6745

> <Gold.Chemscore.Rot.Weighted>
4.1695

> <Gold.Chemscore.Internal.Correction.Weighted>
   9.000000E+99

> <Gold.Protein.RotatedTorsions>
[ 6907 6896 6895 6894 ] final  139.14 input  -60.11 | X-H torsion
[ 7974 7965 7964 7962 ] final -161.62 input  175.53 | X-H torsion
[ 8008 7997 7996 7995 ] final  123.33 input   59.86 | X-H torsion
[ 10167 10162 10161 10158 ] final -122.72 input  -65.29 | X-H torsion
[ 10718 10713 10712 10709 ] final   61.68 input   66.30 | X-H torsion
[ 10763 10752 10751 10750 ] final   88.08 input  -60.55 | X-H torsion
[ 11005 11000 10999 10996 ] final   48.71 input  -57.11 | X-H torsion

> <Gold.Protein.ActiveResidues>
 VAL166  LYS551  ARG553  GLY616  TRP617  ASP618  TYR619  PRO620  LYS621  CYS622 
 ASP623  PHE694  ASN695  SER759  ASP760  ASP761  ALA762  ILE779  LEU786  VAL792 
 PHE793  MET794  SER795  GLU796  ALA797  LYS798  CYS799  TRP800  GLU811  SER814 

> <Gold.Protein.RotatedAtoms>
  152.2584  133.5275  159.5366 H   0  0  0  0  0  0  0  0  0  0  0  0  # atno 6907 bound_to 6896
  150.7116  134.0864  159.3925 H   0  0  0  0  0  0  0  0  0  0  0  0  # atno 6908 bound_to 6896
  151.8782  135.0463  160.0537 H   0  0  0  0  0  0  0  0  0  0  0  0  # atno 6909 bound_to 6896
  144.7385  140.3372  143.6142 H   0  0  0  0  0  0  0  0  0  0  0  0  # atno 7974 bound_to 7965
  156.2762  140.2765  156.1611 H   0  0  0  0  0  0  0  0  0  0  0  0  # atno 8008 bound_to 7997
  155.0753  140.0387  157.2639 H   0  0  0  0  0  0  0  0  0  0  0  0  # atno 8009 bound_to 7997
  154.7007  140.2648  155.6728 H   0  0  0  0  0  0  0  0  0  0  0  0  # atno 8010 bound_to 7997
  140.0112  143.5440  152.2262 H   0  0  0  0  0  0  0  0  0  0  0  0  # atno 10167 bound_to 10162
  157.5846  130.9008  149.9492 H   0  0  0  0  0  0  0  0  0  0  0  0  # atno 10718 bound_to 10713
  153.1732  135.4520  154.9930 H   0  0  0  0  0  0  0  0  0  0  0  0  # atno 10763 bound_to 10752
  154.7980  135.3245  154.7622 H   0  0  0  0  0  0  0  0  0  0  0  0  # atno 10764 bound_to 10752
  153.8095  135.6956  153.4898 H   0  0  0  0  0  0  0  0  0  0  0  0  # atno 10765 bound_to 10752
  140.1167  134.4883  155.8632 H   0  0  0  0  0  0  0  0  0  0  0  0  # atno 11005 bound_to 11000
  145.7412  139.1765  143.2375 LP  0  0  0  0  0  0  0  0  0  0  0  0  # atno 17320 bound_to 7965
  146.1133  140.7401  142.9493 LP  0  0  0  0  0  0  0  0  0  0  0  0  # atno 17321 bound_to 7965
  139.6204  144.7628  151.2754 LP  0  0  0  0  0  0  0  0  0  0  0  0  # atno 17342 bound_to 10162
  140.7380  143.6659  150.8123 LP  0  0  0  0  0  0  0  0  0  0  0  0  # atno 17343 bound_to 10162
  156.0894  130.3665  150.0424 LP  0  0  0  0  0  0  0  0  0  0  0  0  # atno 17370 bound_to 10713
  156.8558  130.9474  151.3622 LP  0  0  0  0  0  0  0  0  0  0  0  0  # atno 17371 bound_to 10713
  141.2143  133.6746  156.6809 LP  0  0  0  0  0  0  0  0  0  0  0  0  # atno 17394 bound_to 11000
  140.3019  134.8156  157.4105 LP  0  0  0  0  0  0  0  0  0  0  0  0  # atno 17395 bound_to 11000

$$$$
