AV-unprocessed.smi:2900|AV-procd|sdf|11148|dock10
  -GOLD-   2272016 23D 1   1.00000     0.00000
 Structure written by MMmdl.
 35 36  0  0  0  0  0  0  0  0  1 V2000
  149.1637  141.6621  153.8176 O   0  0  0  0  0  0  0  0  0  0  0  0
  148.5607  140.6671  154.2184 C   0  0  0  0  0  0  0  0  0  0  0  0
  147.1149  140.6360  154.4253 C   0  0  0  0  0  0  0  0  0  0  0  0
  146.4851  139.5289  154.8730 C   0  0  0  0  0  0  0  0  0  0  0  0
  147.2586  138.3331  155.1623 C   0  0  0  0  0  0  0  0  0  0  0  0
  146.6498  137.0476  155.6655 C   0  0  0  0  0  0  0  0  0  0  0  0
  145.3269  137.1586  155.7888 F   0  0  0  0  0  0  0  0  0  0  0  0
  146.9139  136.0539  154.8164 F   0  0  0  0  0  0  0  0  0  0  0  0
  147.1611  136.7332  156.8562 F   0  0  0  0  0  0  0  0  0  0  0  0
  148.5398  138.3550  154.9824 N   0  0  0  0  0  0  0  0  0  0  0  0
  149.1820  139.4873  154.5101 N   0  0  0  0  0  0  0  0  0  0  0  0
  150.6334  139.3312  154.3474 C   0  0  0  0  0  0  0  0  0  0  0  0
  151.4161  139.5650  155.6595 C   0  0  1  0  0  0  0  0  0  0  0  0
  152.7904  139.5587  155.3313 O   0  0  0  0  0  0  0  0  0  0  0  0
  151.0895  140.9066  156.3396 C   0  0  0  0  0  0  0  0  0  0  0  0
  151.8301  140.9994  157.5490 O   0  0  0  0  0  0  0  0  0  0  0  0
  151.8734  142.2159  158.1957 C   0  0  0  0  0  0  0  0  0  0  0  0
  152.6160  142.2771  159.3931 C   0  0  0  0  0  0  0  0  0  0  0  0
  152.7145  143.4791  160.1204 C   0  0  0  0  0  0  0  0  0  0  0  0
  152.0664  144.6379  159.6551 C   0  0  0  0  0  0  0  0  0  0  0  0
  151.3212  144.5913  158.4625 C   0  0  0  0  0  0  0  0  0  0  0  0
  151.2235  143.3893  157.7344 C   0  0  0  0  0  0  0  0  0  0  0  0
  146.5361  141.5227  154.2123 H   0  0  0  0  0  0  0  0  0  0  0  0
  145.4151  139.5292  155.0176 H   0  0  0  0  0  0  0  0  0  0  0  0
  150.8415  138.3301  153.9647 H   0  0  0  0  0  0  0  0  0  0  0  0
  151.0004  140.0130  153.5772 H   0  0  0  0  0  0  0  0  0  0  0  0
  151.2249  138.7442  156.3514 H   0  0  0  0  0  0  0  0  0  0  0  0
  152.8713  139.5186  154.3904 H   0  0  0  0  0  0  0  0  0  0  0  0
  151.3023  141.7429  155.6711 H   0  0  0  0  0  0  0  0  0  0  0  0
  150.0301  140.9437  156.5934 H   0  0  0  0  0  0  0  0  0  0  0  0
  153.1169  141.3925  159.7577 H   0  0  0  0  0  0  0  0  0  0  0  0
  153.2876  143.5111  161.0354 H   0  0  0  0  0  0  0  0  0  0  0  0
  152.1403  145.5603  160.2120 H   0  0  0  0  0  0  0  0  0  0  0  0
  150.8224  145.4797  158.1042 H   0  0  0  0  0  0  0  0  0  0  0  0
  150.6426  143.3944  156.8247 H   0  0  0  0  0  0  0  0  0  0  0  0
  1  2  2  0  0  0  0
  2 11  1  0  0  0  0
  2  3  1  0  0  0  0
  3  4  2  0  0  0  0
  3 23  1  0  0  0  0
  4  5  1  0  0  0  0
  4 24  1  0  0  0  0
  5  6  1  0  0  0  0
  5 10  2  0  0  0  0
  6  7  1  0  0  0  0
  6  8  1  0  0  0  0
  6  9  1  0  0  0  0
 10 11  1  0  0  0  0
 11 12  1  0  0  0  0
 12 13  1  0  0  0  0
 12 25  1  0  0  0  0
 12 26  1  0  0  0  0
 13 14  1  0  0  0  0
 13 15  1  0  0  0  0
 13 27  1  0  0  0  0
 14 28  1  0  0  0  0
 15 16  1  0  0  0  0
 15 29  1  0  0  0  0
 15 30  1  0  0  0  0
 16 17  1  0  0  0  0
 17 22  1  0  0  0  0
 17 18  2  0  0  0  0
 18 19  1  0  0  0  0
 18 31  1  0  0  0  0
 19 20  2  0  0  0  0
 19 32  1  0  0  0  0
 20 21  1  0  0  0  0
 20 33  1  0  0  0  0
 21 22  2  0  0  0  0
 21 34  1  0  0  0  0
 22 35  1  0  0  0  0
M  END
> <s_m_source_file>
AV-unprocessed.smi

> <i_m_source_file_index>
2900

> <i_lp_mmshare_version>
43012

> <i_f3d_flags>
0

> <s_epik_input>
Tz1jMVtjSF1bY0hdYyhDKEYpKEYpRilubjFbQ0gyXVtDQEhdKFtPSF0pW0NIMl1PYzJbY0hdW2NIXVtjSF1bY0hdW2NIXTI=

> <s_epik_cmdline>
J2VwaWtfcHl0aG9uJywgJy1waCcsICc3LjAnLCAnLXRuJywgJzgnLCAnLW1hJywgJzIwMCcsICctbWV0YWxfYmluZGluZycsICctaW1hZScsICc8aW5maWxlLm1hZT4nLCAnLW9tYWUnLCAnPG91dGZpbGUubWFlPic=

> <r_lp_tautomer_probability>
1

> <r_epik_Ionization_Penalty>
1.22578e-07

> <r_epik_Ionization_Penalty_Charging>
5.40425e-09

> <r_epik_Ionization_Penalty_Neutral>
1.17174e-07

> <r_epik_State_Penalty>
-0

> <r_epik_Charging_Adjusted_Penalty>
5.40425e-09

> <i_epik_Tot_Q>
0

> <i_epik_Tot_abs_Q>
0

> <r_epik_Metal_State_Penalty>
-0

> <b_epik_Metal_Only>
0

> <s_lp_Force_Field>
OPLS_2005

> <r_lp_Energy>
32.4131

> <b_lp_Chiralities_Consistent>
1

> <s_lp_Variant>
AV-unprocessed.smi:2900-2

> <Gold.Version>
5.8.1

> <Gold.Id.Protein>
6NUR|6NUR_protein|mol2

> <Gold.PLP.Fitness>
43.6919

> <Gold.PLP.PLP>
-39.4925

> <Gold.PLP.part.hbond>
-3.2516

> <Gold.PLP.part.metal>
0.0000

> <Gold.PLP.part.buried>
-3.0866

> <Gold.PLP.part.nonpolar>
-32.8582

> <Gold.PLP.part.repulsive>
0.3582

> <Gold.PLP.ligand.clash>
0.0000

> <Gold.PLP.ligand.torsion>
0.4034

> <Gold.PLP.Chemscore.Hbond>
1.6560

> <Gold.PLP.Chemscore.CHOScore>
0.0000

> <Gold.PLP.Chemscore.Metal>
0.0000

> <Gold.Chemscore.Hbonds>
donor molecule, donor type, donor heavy atom, donor atom, acceptor molecule, acceptor atom, score
      P1  H  7997  8010       L1    14  1.00
      P1  H  8011  8017       L1     1  0.66

> <Gold.PLP.Chemscore.Internal.Correction>
0.0382

> <Gold.Rescore>
     Score         DG    S(hbond)    S(metal)    S(lipo)     H(rot)  DE(clash)    DE(int)     intcor
     15.45     -16.18       1.73        0.00      99.60       2.63       0.37       0.36       ----

> <Gold.Chemscore.Fitness>
15.4542

> <Gold.Chemscore.DG>
-16.1829

> <Gold.Chemscore.ZeroCoef>
-5.4800

> <Gold.Chemscore.Hbond>
1.7339

> <Gold.Chemscore.Metal>
0.0000

> <Gold.Chemscore.Lipo>
99.6035

> <Gold.Chemscore.Internal_Hbond>
0.0000

> <Gold.Chemscore.DEClash>
0.3716

> <Gold.Chemscore.DEInternal>
0.3570

> <Gold.Chemscore.Rot>
2.6336

> <Gold.Chemscore.Internal.Correction>
   9.000000E+99

> <Gold.Chemscore.Hbonds>
donor molecule, donor type, donor heavy atom, donor atom, acceptor molecule, acceptor atom, score
      P1  H  7997  8010       L1    14  0.74
      P1  H  8011  8017       L1     1  0.66

> <Gold.Chemscore.Hbond.Weighted>
-5.7912

> <Gold.Chemscore.Metal.Weighted>
-0.0000

> <Gold.Chemscore.Lipo.Weighted>
-11.6536

> <Gold.Chemscore.Internal_Hbond.Weighted>
0.0000

> <Gold.Chemscore.DEClash.Weighted>
0.3716

> <Gold.Chemscore.DEInternal.Weighted>
0.3570

> <Gold.Chemscore.Rot.Weighted>
6.7420

> <Gold.Chemscore.Internal.Correction.Weighted>
   9.000000E+99

> <Gold.Protein.RotatedTorsions>
[ 6907 6896 6895 6894 ] final -177.69 input  -60.11 | X-H torsion
[ 7974 7965 7964 7962 ] final   58.42 input  175.53 | X-H torsion
[ 8008 7997 7996 7995 ] final   91.57 input   59.86 | X-H torsion
[ 10167 10162 10161 10158 ] final  -59.82 input  -65.29 | X-H torsion
[ 10718 10713 10712 10709 ] final -137.77 input   66.30 | X-H torsion
[ 10763 10752 10751 10750 ] final  -58.81 input  -60.55 | X-H torsion
[ 11005 11000 10999 10996 ] final   36.53 input  -57.11 | X-H torsion

> <Gold.Protein.ActiveResidues>
 VAL166  LYS551  ARG553  GLY616  TRP617  ASP618  TYR619  PRO620  LYS621  CYS622 
 ASP623  PHE694  ASN695  SER759  ASP760  ASP761  ALA762  ILE779  LEU786  VAL792 
 PHE793  MET794  SER795  GLU796  ALA797  LYS798  CYS799  TRP800  GLU811  SER814 

> <Gold.Protein.RotatedAtoms>
  151.6251  133.3336  159.3096 H   0  0  0  0  0  0  0  0  0  0  0  0  # atno 6907 bound_to 6896
  150.8085  134.7230  159.6678 H   0  0  0  0  0  0  0  0  0  0  0  0  # atno 6908 bound_to 6896
  152.4182  134.6009  160.0051 H   0  0  0  0  0  0  0  0  0  0  0  0  # atno 6909 bound_to 6896
  145.9184  139.3709  143.0493 H   0  0  0  0  0  0  0  0  0  0  0  0  # atno 7974 bound_to 7965
  156.0253  140.3336  155.7082 H   0  0  0  0  0  0  0  0  0  0  0  0  # atno 8008 bound_to 7997
  155.5963  140.0651  157.2763 H   0  0  0  0  0  0  0  0  0  0  0  0  # atno 8009 bound_to 7997
  154.4332  140.1818  156.1115 H   0  0  0  0  0  0  0  0  0  0  0  0  # atno 8010 bound_to 7997
  140.6111  143.2387  151.5708 H   0  0  0  0  0  0  0  0  0  0  0  0  # atno 10167 bound_to 10162
  156.2919  130.7379  151.1407 H   0  0  0  0  0  0  0  0  0  0  0  0  # atno 10718 bound_to 10713
  154.2440  135.6338  153.5217 H   0  0  0  0  0  0  0  0  0  0  0  0  # atno 10763 bound_to 10752
  152.9925  135.5549  154.5880 H   0  0  0  0  0  0  0  0  0  0  0  0  # atno 10764 bound_to 10752
  154.5392  135.2893  155.1086 H   0  0  0  0  0  0  0  0  0  0  0  0  # atno 10765 bound_to 10752
  140.2317  134.3520  155.7961 H   0  0  0  0  0  0  0  0  0  0  0  0  # atno 11005 bound_to 11000
  145.8582  140.9490  143.0714 LP  0  0  0  0  0  0  0  0  0  0  0  0  # atno 17320 bound_to 7965
  144.6750  140.0496  143.7479 LP  0  0  0  0  0  0  0  0  0  0  0  0  # atno 17321 bound_to 7965
  139.5362  144.2775  152.1255 LP  0  0  0  0  0  0  0  0  0  0  0  0  # atno 17342 bound_to 10162
  140.1975  144.4691  150.6448 LP  0  0  0  0  0  0  0  0  0  0  0  0  # atno 17343 bound_to 10162
  157.7344  131.0581  150.5523 LP  0  0  0  0  0  0  0  0  0  0  0  0  # atno 17370 bound_to 10713
  156.5640  130.4263  149.6050 LP  0  0  0  0  0  0  0  0  0  0  0  0  # atno 17371 bound_to 10713
  141.2217  133.7249  156.8741 LP  0  0  0  0  0  0  0  0  0  0  0  0  # atno 17394 bound_to 11000
  140.1744  134.9077  157.2873 LP  0  0  0  0  0  0  0  0  0  0  0  0  # atno 17395 bound_to 11000

$$$$
