AV-unprocessed.smi:3164|AV-procd|sdf|12079|dock10
  -GOLD-   2272017503D 1   1.00000     0.00000
 Structure written by MMmdl.
 40 41  0  0  0  0  0  0  0  0  3 V2000
  146.8553  139.1518  151.8473 C   0  0  0  0  0  0  0  0  0  0  0  0
  146.2456  139.4806  153.1539 N   0  3  1  0  0  0  0  0  0  0  0  0
  146.3030  138.3523  154.1103 C   0  0  0  0  0  0  0  0  0  0  0  0
  145.6238  138.7409  155.4336 C   0  0  0  0  0  0  0  0  0  0  0  0
  146.2391  139.9120  155.9587 O   0  0  0  0  0  0  0  0  0  0  0  0
  146.1060  141.0339  155.0907 C   0  0  1  0  0  0  0  0  0  0  0  0
  146.7292  142.2535  155.7875 C   0  0  0  0  0  0  0  0  0  0  0  0
  148.2039  142.1696  155.8013 N   0  3  0  0  0  0  0  0  0  0  0  0
  148.7739  141.8131  157.1152 C   0  0  0  0  0  0  0  0  0  0  0  0
  150.2620  141.4579  156.9925 C   0  0  0  0  0  0  0  0  0  0  0  0
  151.1320  142.3177  157.8889 C   0  0  0  0  0  0  0  0  0  0  0  0
  151.7967  141.7580  159.0009 C   0  0  0  0  0  0  0  0  0  0  0  0
  152.5883  142.6024  159.8035 C   0  0  0  0  0  0  0  0  0  0  0  0
  152.6825  143.9661  159.4653 C   0  0  0  0  0  0  0  0  0  0  0  0
  151.9785  144.4273  158.3352 C   0  0  0  0  0  0  0  0  0  0  0  0
  151.2160  143.6260  157.5596 N   0  0  0  0  0  0  0  0  0  0  0  0
  146.8100  140.7107  153.7565 C   0  0  0  0  0  0  0  0  0  0  0  0
  147.9197  138.9377  151.9527 H   0  0  0  0  0  0  0  0  0  0  0  0
  146.7401  139.9815  151.1490 H   0  0  0  0  0  0  0  0  0  0  0  0
  146.3727  138.2781  151.4078 H   0  0  0  0  0  0  0  0  0  0  0  0
  145.8098  137.4790  153.6813 H   0  0  0  0  0  0  0  0  0  0  0  0
  147.3434  138.0772  154.2918 H   0  0  0  0  0  0  0  0  0  0  0  0
  144.5552  138.9089  155.2900 H   0  0  0  0  0  0  0  0  0  0  0  0
  145.7241  137.9334  156.1589 H   0  0  0  0  0  0  0  0  0  0  0  0
  145.0482  141.2301  154.9045 H   0  0  0  0  0  0  0  0  0  0  0  0
  146.4176  143.1735  155.2905 H   0  0  0  0  0  0  0  0  0  0  0  0
  146.3761  142.3099  156.8181 H   0  0  0  0  0  0  0  0  0  0  0  0
  148.4965  141.4759  155.1278 H   0  0  0  0  0  0  0  0  0  0  0  0
  148.6442  142.6518  157.8010 H   0  0  0  0  0  0  0  0  0  0  0  0
  148.2229  140.9679  157.5300 H   0  0  0  0  0  0  0  0  0  0  0  0
  150.4177  140.4076  157.2430 H   0  0  0  0  0  0  0  0  0  0  0  0
  150.5930  141.5790  155.9598 H   0  0  0  0  0  0  0  0  0  0  0  0
  151.7048  140.7078  159.2363 H   0  0  0  0  0  0  0  0  0  0  0  0
  153.1130  142.2112  160.6627 H   0  0  0  0  0  0  0  0  0  0  0  0
  153.2805  144.6424  160.0581 H   0  0  0  0  0  0  0  0  0  0  0  0
  152.0282  145.4668  158.0470 H   0  0  0  0  0  0  0  0  0  0  0  0
  147.8813  140.5778  153.9183 H   0  0  0  0  0  0  0  0  0  0  0  0
  146.6917  141.5429  153.0611 H   0  0  0  0  0  0  0  0  0  0  0  0
  148.5782  143.0667  155.5252 H   0  0  0  0  0  0  0  0  0  0  0  0
  145.2675  139.6625  152.9775 H   0  0  0  0  0  0  0  0  0  0  0  0
  1  2  1  0  0  0  0
  1 18  1  0  0  0  0
  1 19  1  0  0  0  0
  1 20  1  0  0  0  0
  2 17  1  0  0  0  0
  2  3  1  0  0  0  0
  2 40  1  0  0  0  0
  3  4  1  0  0  0  0
  3 21  1  0  0  0  0
  3 22  1  0  0  0  0
  4  5  1  0  0  0  0
  4 23  1  0  0  0  0
  4 24  1  0  0  0  0
  5  6  1  0  0  0  0
  6  7  1  0  0  0  0
  6 17  1  0  0  0  0
  6 25  1  0  0  0  0
  7  8  1  0  0  0  0
  7 26  1  0  0  0  0
  7 27  1  0  0  0  0
  8  9  1  0  0  0  0
  8 28  1  0  0  0  0
  8 39  1  0  0  0  0
  9 10  1  0  0  0  0
  9 29  1  0  0  0  0
  9 30  1  0  0  0  0
 10 11  1  0  0  0  0
 10 31  1  0  0  0  0
 10 32  1  0  0  0  0
 11 16  1  0  0  0  0
 11 12  2  0  0  0  0
 12 13  1  0  0  0  0
 12 33  1  0  0  0  0
 13 14  2  0  0  0  0
 13 34  1  0  0  0  0
 14 15  1  0  0  0  0
 14 35  1  0  0  0  0
 15 16  2  0  0  0  0
 15 36  1  0  0  0  0
 17 37  1  0  0  0  0
 17 38  1  0  0  0  0
M  CHG  1   2   1
M  CHG  1   8   1
M  END
> <s_m_source_file>
AV-unprocessed.smi

> <i_m_source_file_index>
3164

> <i_lp_mmshare_version>
43012

> <i_f3d_flags>
0

> <s_epik_input>
W0NIM11OMVtDSDJdW0NIMl1PW0NASF0oW0NIMl0xKVtDSDJdW05IXVtDSDJdW0NIMl1jMltjSF1bY0hdW2NIXVtjSF1uMg==

> <s_epik_cmdline>
J2VwaWtfcHl0aG9uJywgJy1waCcsICc3LjAnLCAnLXRuJywgJzgnLCAnLW1hJywgJzIwMCcsICctbWV0YWxfYmluZGluZycsICctaW1hZScsICc8aW5maWxlLm1hZT4nLCAnLW9tYWUnLCAnPG91dGZpbGUubWFlPic=

> <r_epik_Ionization_Penalty>
0.294944

> <r_epik_Ionization_Penalty_Charging>
0.29381

> <r_epik_Ionization_Penalty_Neutral>
0.00113372

> <r_epik_State_Penalty>
0.271365

> <r_epik_Charging_Adjusted_Penalty>
0.565175

> <i_epik_Tot_Q>
2

> <i_epik_Tot_abs_Q>
2

> <r_epik_Metal_State_Penalty>
0.271365

> <b_epik_Metal_Only>
0

> <s_lp_Force_Field>
OPLS_2005

> <r_lp_Energy>
20.3644

> <b_lp_Chiralities_Consistent>
1

> <s_lp_Variant>
AV-unprocessed.smi:3164-1

> <Gold.Version>
5.8.1

> <Gold.Id.Protein>
6NUR|6NUR_protein|mol2

> <Gold.PLP.Fitness>
41.7890

> <Gold.PLP.PLP>
-31.5341

> <Gold.PLP.part.hbond>
-2.0000

> <Gold.PLP.part.metal>
0.0000

> <Gold.PLP.part.buried>
-2.2241

> <Gold.PLP.part.nonpolar>
-27.7111

> <Gold.PLP.part.repulsive>
0.2603

> <Gold.PLP.ligand.clash>
0.0000

> <Gold.PLP.ligand.torsion>
0.8840

> <Gold.PLP.Chemscore.Hbond>
4.0000

> <Gold.PLP.Chemscore.CHOScore>
0.0000

> <Gold.PLP.Chemscore.Metal>
0.0000

> <Gold.Chemscore.Hbonds>
donor molecule, donor type, donor heavy atom, donor atom, acceptor molecule, acceptor atom, score
      L1  H     2    40       P1 10175  2.00
      L1  H     8    39       P1  8028  2.00

> <Gold.PLP.Chemscore.Internal.Correction>
0.0228

> <Gold.Rescore>
     Score         DG    S(hbond)    S(metal)    S(lipo)     H(rot)  DE(clash)    DE(int)     intcor
     17.70     -18.51       1.96        0.00      91.54       1.65       0.05       0.77       ----

> <Gold.Chemscore.Fitness>
17.6988

> <Gold.Chemscore.DG>
-18.5144

> <Gold.Chemscore.ZeroCoef>
-5.4800

> <Gold.Chemscore.Hbond>
1.9569

> <Gold.Chemscore.Metal>
0.0000

> <Gold.Chemscore.Lipo>
91.5443

> <Gold.Chemscore.Internal_Hbond>
0.0000

> <Gold.Chemscore.DEClash>
0.0485

> <Gold.Chemscore.DEInternal>
0.7671

> <Gold.Chemscore.Rot>
1.6454

> <Gold.Chemscore.Internal.Correction>
   9.000000E+99

> <Gold.Chemscore.Hbonds>
donor molecule, donor type, donor heavy atom, donor atom, acceptor molecule, acceptor atom, score
      L1  H     2    40       P1 10175  1.00
      L1  H     8    39       P1  8028  0.98

> <Gold.Chemscore.Hbond.Weighted>
-6.5360

> <Gold.Chemscore.Metal.Weighted>
-0.0000

> <Gold.Chemscore.Lipo.Weighted>
-10.7107

> <Gold.Chemscore.Internal_Hbond.Weighted>
0.0000

> <Gold.Chemscore.DEClash.Weighted>
0.0485

> <Gold.Chemscore.DEInternal.Weighted>
0.7671

> <Gold.Chemscore.Rot.Weighted>
4.2122

> <Gold.Chemscore.Internal.Correction.Weighted>
   9.000000E+99

> <Gold.Protein.RotatedTorsions>
[ 6907 6896 6895 6894 ] final  134.26 input  -60.11 | X-H torsion
[ 7974 7965 7964 7962 ] final  165.31 input  175.53 | X-H torsion
[ 8008 7997 7996 7995 ] final   34.21 input   59.86 | X-H torsion
[ 10167 10162 10161 10158 ] final -117.69 input  -65.29 | X-H torsion
[ 10718 10713 10712 10709 ] final   61.00 input   66.30 | X-H torsion
[ 10763 10752 10751 10750 ] final   17.67 input  -60.55 | X-H torsion
[ 11005 11000 10999 10996 ] final   43.86 input  -57.11 | X-H torsion

> <Gold.Protein.ActiveResidues>
 VAL166  LYS551  ARG553  GLY616  TRP617  ASP618  TYR619  PRO620  LYS621  CYS622 
 ASP623  PHE694  ASN695  SER759  ASP760  ASP761  ALA762  ILE779  LEU786  VAL792 
 PHE793  MET794  SER795  GLU796  ALA797  LYS798  CYS799  TRP800  GLU811  SER814 

> <Gold.Protein.RotatedAtoms>
  152.3131  133.5774  159.5694 H   0  0  0  0  0  0  0  0  0  0  0  0  # atno 6907 bound_to 6896
  150.7333  134.0122  159.3682 H   0  0  0  0  0  0  0  0  0  0  0  0  # atno 6908 bound_to 6896
  151.8013  135.0708  160.0451 H   0  0  0  0  0  0  0  0  0  0  0  0  # atno 6909 bound_to 6896
  144.7508  139.8452  143.6367 H   0  0  0  0  0  0  0  0  0  0  0  0  # atno 7974 bound_to 7965
  155.1512  140.3275  155.4431 H   0  0  0  0  0  0  0  0  0  0  0  0  # atno 8008 bound_to 7997
  156.2573  140.1976  156.6573 H   0  0  0  0  0  0  0  0  0  0  0  0  # atno 8009 bound_to 7997
  154.6472  140.0563  156.9900 H   0  0  0  0  0  0  0  0  0  0  0  0  # atno 8010 bound_to 7997
  140.0656  143.4926  152.2008 H   0  0  0  0  0  0  0  0  0  0  0  0  # atno 10167 bound_to 10162
  157.5795  130.8970  149.9406 H   0  0  0  0  0  0  0  0  0  0  0  0  # atno 10718 bound_to 10713
  153.1318  135.6741  153.9166 H   0  0  0  0  0  0  0  0  0  0  0  0  # atno 10763 bound_to 10752
  153.8651  135.3076  155.3441 H   0  0  0  0  0  0  0  0  0  0  0  0  # atno 10764 bound_to 10752
  154.7713  135.4937  153.9737 H   0  0  0  0  0  0  0  0  0  0  0  0  # atno 10765 bound_to 10752
  140.1606  134.4346  155.8320 H   0  0  0  0  0  0  0  0  0  0  0  0  # atno 11005 bound_to 11000
  146.1454  139.4522  143.0082 LP  0  0  0  0  0  0  0  0  0  0  0  0  # atno 17320 bound_to 7965
  145.6953  141.0152  143.1533 LP  0  0  0  0  0  0  0  0  0  0  0  0  # atno 17321 bound_to 7965
  139.5867  144.7534  151.3503 LP  0  0  0  0  0  0  0  0  0  0  0  0  # atno 17342 bound_to 10162
  140.7150  143.7289  150.7638 LP  0  0  0  0  0  0  0  0  0  0  0  0  # atno 17343 bound_to 10162
  156.0840  130.3670  150.0523 LP  0  0  0  0  0  0  0  0  0  0  0  0  # atno 17370 bound_to 10713
  156.8665  130.9509  151.3613 LP  0  0  0  0  0  0  0  0  0  0  0  0  # atno 17371 bound_to 10713
  141.2209  133.6911  156.7586 LP  0  0  0  0  0  0  0  0  0  0  0  0  # atno 17394 bound_to 11000
  140.2495  134.8552  157.3653 LP  0  0  0  0  0  0  0  0  0  0  0  0  # atno 17395 bound_to 11000

$$$$
