AV-unprocessed.smi:3057|AV-procd|sdf|11664|dock6
  -GOLD-   2272017 73D 1   1.00000     0.00000
 Structure written by MMmdl.
 40 42  0  0  0  0  0  0  0  0  1 V2000
  148.5833  135.5338  158.5195 C   0  0  0  0  0  0  0  0  0  0  0  0
  148.6964  136.4526  157.2875 C   0  0  2  0  0  0  0  0  0  0  0  0
  148.4500  135.6796  155.9791 C   0  0  0  0  0  0  0  0  0  0  0  0
  149.8540  135.3062  155.4811 C   0  0  0  0  0  0  0  0  0  0  0  0
  150.7303  136.3459  156.1613 C   0  0  0  0  0  0  0  0  0  0  0  0
  151.8784  136.6026  155.8023 O   0  0  0  0  0  0  0  0  0  0  0  0
  150.0463  136.9592  157.1354 N   0  0  0  0  0  0  0  0  0  0  0  0
  150.3852  138.2233  157.7944 C   0  0  2  0  0  0  0  0  0  0  0  0
  151.3673  138.0005  158.9583 C   0  0  0  0  0  0  0  0  0  0  0  0
  151.2380  137.0493  159.7306 O   0  0  0  0  0  0  0  0  0  0  0  0
  152.3433  138.9125  159.0788 N   0  0  0  0  0  0  0  0  0  0  0  0
  153.3670  138.9206  160.1198 C   0  0  0  0  0  0  0  0  0  0  0  0
  154.2798  140.1632  160.0650 C   0  0  0  0  0  0  0  0  0  0  0  0
  153.6033  141.4396  160.5367 C   0  0  0  0  0  0  0  0  0  0  0  0
  152.8498  142.2285  159.6410 C   0  0  0  0  0  0  0  0  0  0  0  0
  152.2593  143.4127  160.1219 C   0  0  0  0  0  0  0  0  0  0  0  0
  152.4395  143.7583  161.4750 C   0  0  0  0  0  0  0  0  0  0  0  0
  153.2043  142.9000  162.2901 C   0  0  0  0  0  0  0  0  0  0  0  0
  153.7776  141.7636  161.8378 N   0  0  0  0  0  0  0  0  0  0  0  0
  149.0551  138.8027  158.3402 C   0  0  0  0  0  0  0  0  0  0  0  0
  147.7060  137.9429  157.4846 S   0  0  0  0  0  0  0  0  0  0  0  0
  149.2659  134.6862  158.4491 H   0  0  0  0  0  0  0  0  0  0  0  0
  147.5727  135.1367  158.6177 H   0  0  0  0  0  0  0  0  0  0  0  0
  148.8145  136.0653  159.4428 H   0  0  0  0  0  0  0  0  0  0  0  0
  147.8148  134.8044  156.1202 H   0  0  0  0  0  0  0  0  0  0  0  0
  147.9623  136.3185  155.2412 H   0  0  0  0  0  0  0  0  0  0  0  0
  150.1461  134.3116  155.8192 H   0  0  0  0  0  0  0  0  0  0  0  0
  149.9350  135.3507  154.3947 H   0  0  0  0  0  0  0  0  0  0  0  0
  150.8166  138.9048  157.0588 H   0  0  0  0  0  0  0  0  0  0  0  0
  152.3755  139.6636  158.4047 H   0  0  0  0  0  0  0  0  0  0  0  0
  152.9052  138.8300  161.1040 H   0  0  0  0  0  0  0  0  0  0  0  0
  153.9719  138.0241  159.9809 H   0  0  0  0  0  0  0  0  0  0  0  0
  155.1690  139.9912  160.6726 H   0  0  0  0  0  0  0  0  0  0  0  0
  154.6404  140.3081  159.0459 H   0  0  0  0  0  0  0  0  0  0  0  0
  152.7341  141.9386  158.6067 H   0  0  0  0  0  0  0  0  0  0  0  0
  151.6813  144.0448  159.4642 H   0  0  0  0  0  0  0  0  0  0  0  0
  152.0017  144.6592  161.8785 H   0  0  0  0  0  0  0  0  0  0  0  0
  153.3615  143.1334  163.3328 H   0  0  0  0  0  0  0  0  0  0  0  0
  148.9327  138.6135  159.4075 H   0  0  0  0  0  0  0  0  0  0  0  0
  148.9839  139.8800  158.1883 H   0  0  0  0  0  0  0  0  0  0  0  0
  1  2  1  0  0  0  0
  1 22  1  0  0  0  0
  1 23  1  0  0  0  0
  1 24  1  0  0  0  0
  2  7  1  0  0  0  0
  2 21  1  0  0  0  0
  2  3  1  0  0  0  0
  3  4  1  0  0  0  0
  3 25  1  0  0  0  0
  3 26  1  0  0  0  0
  4  5  1  0  0  0  0
  4 27  1  0  0  0  0
  4 28  1  0  0  0  0
  5  6  2  0  0  0  0
  5  7  1  0  0  0  0
  7  8  1  0  0  0  0
  8  9  1  0  0  0  0
  8 20  1  0  0  0  0
  8 29  1  0  0  0  0
  9 10  2  0  0  0  0
  9 11  1  0  0  0  0
 11 12  1  0  0  0  0
 11 30  1  0  0  0  0
 12 13  1  0  0  0  0
 12 31  1  0  0  0  0
 12 32  1  0  0  0  0
 13 14  1  0  0  0  0
 13 33  1  0  0  0  0
 13 34  1  0  0  0  0
 14 19  1  0  0  0  0
 14 15  2  0  0  0  0
 15 16  1  0  0  0  0
 15 35  1  0  0  0  0
 16 17  2  0  0  0  0
 16 36  1  0  0  0  0
 17 18  1  0  0  0  0
 17 37  1  0  0  0  0
 18 19  2  0  0  0  0
 18 38  1  0  0  0  0
 20 21  1  0  0  0  0
 20 39  1  0  0  0  0
 20 40  1  0  0  0  0
M  END
> <s_m_source_file>
AV-unprocessed.smi

> <i_m_source_file_index>
3057

> <i_lp_mmshare_version>
43012

> <i_f3d_flags>
0

> <s_epik_input>
W0NIMl0xW0NIMl1DKD1PKU4oW0NAQF0xMltDSDNdKVtDQEhdKFtDSDJdUzIpQyg9TylbTkhdW0NIMl1bQ0gyXWMzW2NIXVtjSF1bY0hdW2NIXW4z

> <s_epik_cmdline>
J2VwaWtfcHl0aG9uJywgJy1waCcsICc3LjAnLCAnLXRuJywgJzgnLCAnLW1hJywgJzIwMCcsICctbWV0YWxfYmluZGluZycsICctaW1hZScsICc8aW5maWxlLm1hZT4nLCAnLW9tYWUnLCAnPG91dGZpbGUubWFlPic=

> <r_epik_Ionization_Penalty>
0.0249631

> <r_epik_Ionization_Penalty_Charging>
0

> <r_epik_Ionization_Penalty_Neutral>
0.0249631

> <r_epik_State_Penalty>
0.0202943

> <r_epik_Charging_Adjusted_Penalty>
0.0202943

> <i_epik_Tot_Q>
0

> <i_epik_Tot_abs_Q>
0

> <r_epik_Metal_State_Penalty>
0.0194661

> <b_epik_Metal_Only>
0

> <s_lp_Force_Field>
OPLS_2005

> <r_lp_Energy>
26.6501

> <b_lp_Chiralities_Consistent>
1

> <s_lp_Variant>
AV-unprocessed.smi:3057-4

> <Gold.Version>
5.8.1

> <Gold.Id.Protein>
6NUR|6NUR_protein|mol2

> <Gold.PLP.Fitness>
40.4055

> <Gold.PLP.PLP>
-36.3497

> <Gold.PLP.part.hbond>
-2.0000

> <Gold.PLP.part.metal>
0.0000

> <Gold.PLP.part.buried>
-6.5331

> <Gold.PLP.part.nonpolar>
-27.6362

> <Gold.PLP.part.repulsive>
0.1380

> <Gold.PLP.ligand.clash>
0.0000

> <Gold.PLP.ligand.torsion>
0.8952

> <Gold.PLP.Chemscore.Hbond>
1.9440

> <Gold.PLP.Chemscore.CHOScore>
0.0000

> <Gold.PLP.Chemscore.Metal>
0.0000

> <Gold.Chemscore.Hbonds>
donor molecule, donor type, donor heavy atom, donor atom, acceptor molecule, acceptor atom, score
      P1  H  6896  6909       L1    10  1.00
      P1  H 10752 10765       L1     6  1.00

> <Gold.PLP.Chemscore.Internal.Correction>
0.0142

> <Gold.Rescore>
     Score         DG    S(hbond)    S(metal)    S(lipo)     H(rot)  DE(clash)    DE(int)     intcor
     17.62     -18.77       1.97        0.00      91.01       1.53       0.00       1.14       ----

> <Gold.Chemscore.Fitness>
17.6213

> <Gold.Chemscore.DG>
-18.7693

> <Gold.Chemscore.ZeroCoef>
-5.4800

> <Gold.Chemscore.Hbond>
1.9666

> <Gold.Chemscore.Metal>
0.0000

> <Gold.Chemscore.Lipo>
91.0057

> <Gold.Chemscore.Internal_Hbond>
0.0000

> <Gold.Chemscore.DEClash>
0.0048

> <Gold.Chemscore.DEInternal>
1.1432

> <Gold.Chemscore.Rot>
1.5339

> <Gold.Chemscore.Internal.Correction>
   9.000000E+99

> <Gold.Chemscore.Hbonds>
donor molecule, donor type, donor heavy atom, donor atom, acceptor molecule, acceptor atom, score
      P1  H  6896  6909       L1    10  1.00
      P1  H 10752 10765       L1     6  1.00

> <Gold.Chemscore.Hbond.Weighted>
-6.5684

> <Gold.Chemscore.Metal.Weighted>
-0.0000

> <Gold.Chemscore.Lipo.Weighted>
-10.6477

> <Gold.Chemscore.Internal_Hbond.Weighted>
0.0000

> <Gold.Chemscore.DEClash.Weighted>
0.0048

> <Gold.Chemscore.DEInternal.Weighted>
1.1432

> <Gold.Chemscore.Rot.Weighted>
3.9267

> <Gold.Chemscore.Internal.Correction.Weighted>
   9.000000E+99

> <Gold.Protein.RotatedTorsions>
[ 6907 6896 6895 6894 ] final  109.91 input  -60.11 | X-H torsion
[ 7974 7965 7964 7962 ] final -151.30 input  175.53 | X-H torsion
[ 8008 7997 7996 7995 ] final -166.19 input   59.86 | X-H torsion
[ 10167 10162 10161 10158 ] final  166.08 input  -65.29 | X-H torsion
[ 10718 10713 10712 10709 ] final  -43.19 input   66.30 | X-H torsion
[ 10763 10752 10751 10750 ] final -166.65 input  -60.55 | X-H torsion
[ 11005 11000 10999 10996 ] final  106.70 input  -57.11 | X-H torsion

> <Gold.Protein.ActiveResidues>
 VAL166  LYS551  ARG553  GLY616  TRP617  ASP618  TYR619  PRO620  LYS621  CYS622 
 ASP623  PHE694  ASN695  SER759  ASP760  ASP761  ALA762  ILE779  LEU786  VAL792 
 PHE793  MET794  SER795  GLU796  ALA797  LYS798  CYS799  TRP800  GLU811  SER814 

> <Gold.Protein.RotatedAtoms>
  152.5045  133.8876  159.7377 H   0  0  0  0  0  0  0  0  0  0  0  0  # atno 6907 bound_to 6896
  150.9323  133.6743  159.2815 H   0  0  0  0  0  0  0  0  0  0  0  0  # atno 6908 bound_to 6896
  151.4084  135.0986  159.9630 H   0  0  0  0  0  0  0  0  0  0  0  0  # atno 6909 bound_to 6896
  144.7858  140.4816  143.5807 H   0  0  0  0  0  0  0  0  0  0  0  0  # atno 7974 bound_to 7965
  155.8604  140.0977  157.1617 H   0  0  0  0  0  0  0  0  0  0  0  0  # atno 8008 bound_to 7997
  154.3990  140.1366  156.4016 H   0  0  0  0  0  0  0  0  0  0  0  0  # atno 8009 bound_to 7997
  155.7863  140.3457  155.5327 H   0  0  0  0  0  0  0  0  0  0  0  0  # atno 8010 bound_to 7997
  139.4918  144.4065  151.9349 H   0  0  0  0  0  0  0  0  0  0  0  0  # atno 10167 bound_to 10162
  156.2516  130.4188  149.8643 H   0  0  0  0  0  0  0  0  0  0  0  0  # atno 10718 bound_to 10713
  154.6812  135.2955  154.9610 H   0  0  0  0  0  0  0  0  0  0  0  0  # atno 10763 bound_to 10752
  154.0604  135.6632  153.4815 H   0  0  0  0  0  0  0  0  0  0  0  0  # atno 10764 bound_to 10752
  153.0549  135.5151  154.7856 H   0  0  0  0  0  0  0  0  0  0  0  0  # atno 10765 bound_to 10752
  139.8817  134.9377  156.5706 H   0  0  0  0  0  0  0  0  0  0  0  0  # atno 11005 bound_to 11000
  145.5927  139.1497  143.3173 LP  0  0  0  0  0  0  0  0  0  0  0  0  # atno 17320 bound_to 7965
  146.2088  140.6052  142.9069 LP  0  0  0  0  0  0  0  0  0  0  0  0  # atno 17321 bound_to 7965
  140.3505  144.3094  150.5950 LP  0  0  0  0  0  0  0  0  0  0  0  0  # atno 17342 bound_to 10162
  140.5489  143.2210  151.7960 LP  0  0  0  0  0  0  0  0  0  0  0  0  # atno 17343 bound_to 10162
  156.6190  130.8618  151.3471 LP  0  0  0  0  0  0  0  0  0  0  0  0  # atno 17370 bound_to 10713
  157.7216  130.9567  150.1464 LP  0  0  0  0  0  0  0  0  0  0  0  0  # atno 17371 bound_to 10713
  140.8101  133.8436  155.8802 LP  0  0  0  0  0  0  0  0  0  0  0  0  # atno 17394 bound_to 11000
  140.9514  134.1774  157.4725 LP  0  0  0  0  0  0  0  0  0  0  0  0  # atno 17395 bound_to 11000

$$$$
