AV-unprocessed.smi:2772|AV-procd|sdf|10669|dock7
  -GOLD-   2272015113D 1   1.00000     0.00000
 Structure written by MMmdl.
 54 56  0  0  0  0  0  0  0  0  2 V2000
  151.8488  145.2783  159.0482 C   0  0  0  0  0  0  0  0  0  0  0  0
  152.2018  143.8186  159.2440 C   0  0  0  0  0  0  0  0  0  0  0  0
  151.7336  142.8332  158.3507 C   0  0  0  0  0  0  0  0  0  0  0  0
  152.0918  141.4921  158.5860 C   0  0  0  0  0  0  0  0  0  0  0  0
  152.8920  141.1793  159.7039 C   0  0  0  0  0  0  0  0  0  0  0  0
  153.2482  139.8194  159.9111 N   0  0  0  0  0  0  0  0  0  0  0  0
  153.9946  139.2955  160.8986 C   0  0  0  0  0  0  0  0  0  0  0  0
  154.5162  139.9339  161.8126 O   0  0  0  0  0  0  0  0  0  0  0  0
  154.0869  137.9631  160.7825 N   0  0  0  0  0  0  0  0  0  0  0  0
  154.7979  137.0887  161.7108 C   0  0  0  0  0  0  0  0  0  0  0  0
  154.9541  135.6915  161.1061 C   0  0  0  0  0  0  0  0  0  0  0  0
  155.6058  134.7248  162.1102 C   0  0  0  0  0  0  0  0  0  0  0  0
  154.8110  134.5980  163.3438 N   0  0  0  0  0  0  0  0  0  0  0  0
  155.4058  133.6052  164.2689 C   0  0  2  0  0  0  0  0  0  0  0  0
  155.5971  132.2038  163.6328 C   0  0  0  0  0  0  0  0  0  0  0  0
  154.2519  131.5033  163.3690 C   0  0  0  0  0  0  0  0  0  0  0  0
  153.4648  131.3693  164.6193 N   0  3  2  0  0  0  0  0  0  0  0  0
  152.2038  130.6251  164.4140 C   0  0  0  0  0  0  0  0  0  0  0  0
  153.2484  132.6747  165.2900 C   0  0  0  0  0  0  0  0  0  0  0  0
  154.5869  133.3829  165.5673 C   0  0  0  0  0  0  0  0  0  0  0  0
  154.7165  135.9307  163.9634 C   0  0  0  0  0  0  0  0  0  0  0  0
  154.0363  136.9508  163.0345 C   0  0  0  0  0  0  0  0  0  0  0  0
  153.3200  142.2482  160.5293 C   0  0  0  0  0  0  0  0  0  0  0  0
  152.9822  143.5372  160.3093 N   0  0  0  0  0  0  0  0  0  0  0  0
  151.2630  145.4259  158.1407 H   0  0  0  0  0  0  0  0  0  0  0  0
  152.7542  145.8810  158.9700 H   0  0  0  0  0  0  0  0  0  0  0  0
  151.2648  145.6431  159.8937 H   0  0  0  0  0  0  0  0  0  0  0  0
  151.1147  143.0949  157.5050 H   0  0  0  0  0  0  0  0  0  0  0  0
  151.7490  140.7150  157.9182 H   0  0  0  0  0  0  0  0  0  0  0  0
  152.8236  139.1588  159.2772 H   0  0  0  0  0  0  0  0  0  0  0  0
  153.6253  137.5198  160.0017 H   0  0  0  0  0  0  0  0  0  0  0  0
  155.7915  137.4977  161.9047 H   0  0  0  0  0  0  0  0  0  0  0  0
  153.9811  135.2997  160.8061 H   0  0  0  0  0  0  0  0  0  0  0  0
  155.5597  135.7432  160.2005 H   0  0  0  0  0  0  0  0  0  0  0  0
  155.6921  133.7710  161.5972 H   0  0  0  0  0  0  0  0  0  0  0  0
  156.6188  135.0526  162.3493 H   0  0  0  0  0  0  0  0  0  0  0  0
  156.3882  133.9848  164.5546 H   0  0  0  0  0  0  0  0  0  0  0  0
  156.2071  132.2177  162.7327 H   0  0  0  0  0  0  0  0  0  0  0  0
  156.1698  131.5877  164.3273 H   0  0  0  0  0  0  0  0  0  0  0  0
  153.6756  132.0588  162.6272 H   0  0  0  0  0  0  0  0  0  0  0  0
  154.4349  130.5129  162.9504 H   0  0  0  0  0  0  0  0  0  0  0  0
  151.5391  131.1613  163.7355 H   0  0  0  0  0  0  0  0  0  0  0  0
  151.6827  130.4809  165.3611 H   0  0  0  0  0  0  0  0  0  0  0  0
  152.4028  129.6399  163.9907 H   0  0  0  0  0  0  0  0  0  0  0  0
  152.6068  133.3060  164.6732 H   0  0  0  0  0  0  0  0  0  0  0  0
  152.7219  132.5132  166.2315 H   0  0  0  0  0  0  0  0  0  0  0  0
  155.1719  132.7504  166.2365 H   0  0  0  0  0  0  0  0  0  0  0  0
  154.4333  134.2943  166.1411 H   0  0  0  0  0  0  0  0  0  0  0  0
  154.1116  135.9006  164.8661 H   0  0  0  0  0  0  0  0  0  0  0  0
  155.7086  136.2820  164.2511 H   0  0  0  0  0  0  0  0  0  0  0  0
  153.9783  137.9168  163.5371 H   0  0  0  0  0  0  0  0  0  0  0  0
  153.0077  136.6393  162.8449 H   0  0  0  0  0  0  0  0  0  0  0  0
  153.9653  142.0916  161.3793 H   0  0  0  0  0  0  0  0  0  0  0  0
  154.0251  130.8143  165.2505 H   0  0  0  0  0  0  0  0  0  0  0  0
  1  2  1  0  0  0  0
  1 25  1  0  0  0  0
  1 26  1  0  0  0  0
  1 27  1  0  0  0  0
  2 24  1  0  0  0  0
  2  3  2  0  0  0  0
  3  4  1  0  0  0  0
  3 28  1  0  0  0  0
  4  5  2  0  0  0  0
  4 29  1  0  0  0  0
  5  6  1  0  0  0  0
  5 23  1  0  0  0  0
  6  7  1  0  0  0  0
  6 30  1  0  0  0  0
  7  8  2  0  0  0  0
  7  9  1  0  0  0  0
  9 10  1  0  0  0  0
  9 31  1  0  0  0  0
 10 22  1  0  0  0  0
 10 11  1  0  0  0  0
 10 32  1  0  0  0  0
 11 12  1  0  0  0  0
 11 33  1  0  0  0  0
 11 34  1  0  0  0  0
 12 13  1  0  0  0  0
 12 35  1  0  0  0  0
 12 36  1  0  0  0  0
 13 14  1  0  0  0  0
 13 21  1  0  0  0  0
 14 20  1  0  0  0  0
 14 15  1  0  0  0  0
 14 37  1  0  0  0  0
 15 16  1  0  0  0  0
 15 38  1  0  0  0  0
 15 39  1  0  0  0  0
 16 17  1  0  0  0  0
 16 40  1  0  0  0  0
 16 41  1  0  0  0  0
 17 18  1  0  0  0  0
 17 19  1  0  0  0  0
 17 54  1  0  0  0  0
 18 42  1  0  0  0  0
 18 43  1  0  0  0  0
 18 44  1  0  0  0  0
 19 20  1  0  0  0  0
 19 45  1  0  0  0  0
 19 46  1  0  0  0  0
 20 47  1  0  0  0  0
 20 48  1  0  0  0  0
 21 22  1  0  0  0  0
 21 49  1  0  0  0  0
 21 50  1  0  0  0  0
 22 51  1  0  0  0  0
 22 52  1  0  0  0  0
 23 24  2  0  0  0  0
 23 53  1  0  0  0  0
M  CHG  1  17   1
M  END
> <s_m_source_file>
AV-unprocessed.smi

> <i_m_source_file_index>
2772

> <i_lp_mmshare_version>
43012

> <i_f3d_flags>
0

> <s_epik_input>
W0NIM11jMVtjSF1bY0hdYyhbY0hdbjEpW05IXUMoPU8pW05IXVtDSF0yW0NIMl1bQ0gyXU4oW0NIMl1bQ0gyXTIpW0NIXTNbQ0gyXVtDSDJdTihbQ0gzXSlbQ0gyXVtDSDJdMw==

> <s_epik_cmdline>
J2VwaWtfcHl0aG9uJywgJy1waCcsICc3LjAnLCAnLXRuJywgJzgnLCAnLW1hJywgJzIwMCcsICctbWV0YWxfYmluZGluZycsICctaW1hZScsICc8aW5maWxlLm1hZT4nLCAnLW9tYWUnLCAnPG91dGZpbGUubWFlPic=

> <r_epik_Ionization_Penalty>
1.02952

> <r_epik_Ionization_Penalty_Charging>
0.000974969

> <r_epik_Ionization_Penalty_Neutral>
1.02854

> <r_epik_State_Penalty>
1.11259

> <r_epik_Charging_Adjusted_Penalty>
1.11356

> <i_epik_Tot_Q>
1

> <i_epik_Tot_abs_Q>
1

> <r_epik_Metal_State_Penalty>
1.1091

> <b_epik_Metal_Only>
0

> <s_lp_Force_Field>
OPLS_2005

> <r_lp_Energy>
36.1162

> <b_lp_Chiralities_Consistent>
1

> <s_lp_Variant>
AV-unprocessed.smi:2772-6

> <Gold.Version>
5.8.1

> <Gold.Id.Protein>
6NUR|6NUR_protein|mol2

> <Gold.PLP.Fitness>
43.9717

> <Gold.PLP.PLP>
-44.2702

> <Gold.PLP.part.hbond>
0.0000

> <Gold.PLP.part.metal>
0.0000

> <Gold.PLP.part.buried>
-5.8177

> <Gold.PLP.part.nonpolar>
-38.9182

> <Gold.PLP.part.repulsive>
0.1448

> <Gold.PLP.ligand.clash>
0.0000

> <Gold.PLP.ligand.torsion>
0.1511

> <Gold.PLP.Chemscore.Hbond>
0.0000

> <Gold.PLP.Chemscore.CHOScore>
0.0000

> <Gold.PLP.Chemscore.Metal>
0.0000

> <Gold.PLP.Chemscore.Internal.Correction>
0.0037

> <Gold.Rescore>
     Score         DG    S(hbond)    S(metal)    S(lipo)     H(rot)  DE(clash)    DE(int)     intcor
     17.05     -18.47       0.00        0.00     137.23       1.20       0.07       1.35       ----

> <Gold.Chemscore.Fitness>
17.0501

> <Gold.Chemscore.DG>
-18.4704

> <Gold.Chemscore.ZeroCoef>
-5.4800

> <Gold.Chemscore.Hbond>
0.0000

> <Gold.Chemscore.Metal>
0.0000

> <Gold.Chemscore.Lipo>
137.2273

> <Gold.Chemscore.Internal_Hbond>
0.0000

> <Gold.Chemscore.DEClash>
0.0706

> <Gold.Chemscore.DEInternal>
1.3496

> <Gold.Chemscore.Rot>
1.1974

> <Gold.Chemscore.Internal.Correction>
   9.000000E+99

> <Gold.Chemscore.Hbond.Weighted>
-0.0000

> <Gold.Chemscore.Metal.Weighted>
-0.0000

> <Gold.Chemscore.Lipo.Weighted>
-16.0556

> <Gold.Chemscore.Internal_Hbond.Weighted>
0.0000

> <Gold.Chemscore.DEClash.Weighted>
0.0706

> <Gold.Chemscore.DEInternal.Weighted>
1.3496

> <Gold.Chemscore.Rot.Weighted>
3.0652

> <Gold.Chemscore.Internal.Correction.Weighted>
   9.000000E+99

> <Gold.Protein.RotatedTorsions>
[ 6907 6896 6895 6894 ] final  -77.96 input  -60.11 | X-H torsion
[ 7974 7965 7964 7962 ] final   33.15 input  175.53 | X-H torsion
[ 8008 7997 7996 7995 ] final   60.92 input   59.86 | X-H torsion
[ 10167 10162 10161 10158 ] final -143.02 input  -65.29 | X-H torsion
[ 10718 10713 10712 10709 ] final -156.67 input   66.30 | X-H torsion
[ 10763 10752 10751 10750 ] final  -65.97 input  -60.55 | X-H torsion
[ 11005 11000 10999 10996 ] final   85.51 input  -57.11 | X-H torsion

> <Gold.Protein.ActiveResidues>
 VAL166  LYS551  ARG553  GLY616  TRP617  ASP618  TYR619  PRO620  LYS621  CYS622 
 ASP623  PHE694  ASN695  SER759  ASP760  ASP761  ALA762  ILE779  LEU786  VAL792 
 PHE793  MET794  SER795  GLU796  ALA797  LYS798  CYS799  TRP800  GLU811  SER814 

> <Gold.Protein.RotatedAtoms>
  150.6985  134.4344  159.5263 H   0  0  0  0  0  0  0  0  0  0  0  0  # atno 6907 bound_to 6896
  152.2065  134.8537  160.0511 H   0  0  0  0  0  0  0  0  0  0  0  0  # atno 6908 bound_to 6896
  151.9438  133.3611  159.4012 H   0  0  0  0  0  0  0  0  0  0  0  0  # atno 6909 bound_to 6896
  146.1439  139.6434  142.9144 H   0  0  0  0  0  0  0  0  0  0  0  0  # atno 7974 bound_to 7965
  155.5900  140.3492  155.4564 H   0  0  0  0  0  0  0  0  0  0  0  0  # atno 8008 bound_to 7997
  156.0308  140.1274  157.0285 H   0  0  0  0  0  0  0  0  0  0  0  0  # atno 8009 bound_to 7997
  154.4351  140.1043  156.6083 H   0  0  0  0  0  0  0  0  0  0  0  0  # atno 8010 bound_to 7997
  139.8033  143.7804  152.2659 H   0  0  0  0  0  0  0  0  0  0  0  0  # atno 10167 bound_to 10162
  156.5297  130.8515  151.2712 H   0  0  0  0  0  0  0  0  0  0  0  0  # atno 10718 bound_to 10713
  154.3529  135.6132  153.5652 H   0  0  0  0  0  0  0  0  0  0  0  0  # atno 10763 bound_to 10752
  152.9797  135.5797  154.4722 H   0  0  0  0  0  0  0  0  0  0  0  0  # atno 10764 bound_to 10752
  154.4446  135.2851  155.1801 H   0  0  0  0  0  0  0  0  0  0  0  0  # atno 10765 bound_to 10752
  139.8969  134.8291  156.2592 H   0  0  0  0  0  0  0  0  0  0  0  0  # atno 11005 bound_to 11000
  145.4982  141.0438  143.2555 LP  0  0  0  0  0  0  0  0  0  0  0  0  # atno 17320 bound_to 7965
  144.7824  139.6497  143.7148 LP  0  0  0  0  0  0  0  0  0  0  0  0  # atno 17321 bound_to 7965
  139.7930  144.7403  150.9929 LP  0  0  0  0  0  0  0  0  0  0  0  0  # atno 17342 bound_to 10162
  140.7820  143.4422  151.0534 LP  0  0  0  0  0  0  0  0  0  0  0  0  # atno 17343 bound_to 10162
  157.7424  130.9889  150.2511 LP  0  0  0  0  0  0  0  0  0  0  0  0  # atno 17370 bound_to 10713
  156.3071  130.3766  149.7696 LP  0  0  0  0  0  0  0  0  0  0  0  0  # atno 17371 bound_to 10713
  141.0174  133.7061  156.1211 LP  0  0  0  0  0  0  0  0  0  0  0  0  # atno 17394 bound_to 11000
  140.7282  134.4283  157.5568 LP  0  0  0  0  0  0  0  0  0  0  0  0  # atno 17395 bound_to 11000

$$$$
