AV-unprocessed.smi:1572|AV-procd|sdf|6332|dock1
  -GOLD-   22720 6543D 1   1.00000     0.00000
 Structure written by MMmdl.
 41 42  0  0  0  0  0  0  0  0  2 V2000
  153.1112  142.9360  159.4942 C   0  0  0  0  0  0  0  0  0  0  0  0
  152.5303  142.0346  158.5112 N   0  0  0  0  0  0  0  0  0  0  0  0
  152.5579  140.6497  158.9722 C   0  0  0  0  0  0  0  0  0  0  0  0
  151.9525  139.6943  157.9275 C   0  0  0  0  0  0  0  0  0  0  0  0
  150.5606  140.0491  157.6080 N   0  0  0  0  0  0  0  0  0  0  0  0
  149.8567  139.0895  156.7122 C   0  0  0  0  0  0  0  0  0  0  0  0
  148.3607  139.4324  156.5139 C   0  0  0  0  0  0  0  0  0  0  0  0
  150.5124  139.0571  155.3082 C   0  0  0  0  0  0  0  0  0  0  0  0
  149.9270  137.6351  157.2592 C   0  0  0  0  0  0  0  0  0  0  0  0
  149.2857  137.5026  158.5645 N   0  0  0  0  0  0  0  0  0  0  0  0
  148.8307  136.3586  159.0909 C   0  0  0  0  0  0  0  0  0  0  0  0
  148.9470  135.3048  158.4610 O   0  0  0  0  0  0  0  0  0  0  0  0
  148.2681  136.5058  160.3120 N   0  5  0  0  0  0  0  0  0  0  0  0
  147.8764  135.4242  161.0055 C   0  0  0  0  0  0  0  0  0  0  0  0
  147.1300  134.4516  160.4576 N   0  0  0  0  0  0  0  0  0  0  0  0
  146.8398  133.4219  161.3426 N   0  0  0  0  0  0  0  0  0  0  0  0
  147.3841  133.6419  162.5391 C   0  0  0  0  0  0  0  0  0  0  0  0
  148.3026  135.1247  162.6930 S   0  0  0  0  0  0  0  0  0  0  0  0
  150.5388  141.4492  157.1540 C   0  0  0  0  0  0  0  0  0  0  0  0
  151.1502  142.3973  158.2015 C   0  0  0  0  0  0  0  0  0  0  0  0
  154.1471  142.6657  159.7010 H   0  0  0  0  0  0  0  0  0  0  0  0
  152.5576  142.9047  160.4336 H   0  0  0  0  0  0  0  0  0  0  0  0
  153.1025  143.9633  159.1287 H   0  0  0  0  0  0  0  0  0  0  0  0
  153.5863  140.3516  159.1793 H   0  0  0  0  0  0  0  0  0  0  0  0
  152.0107  140.5566  159.9117 H   0  0  0  0  0  0  0  0  0  0  0  0
  152.5673  139.7119  157.0274 H   0  0  0  0  0  0  0  0  0  0  0  0
  152.0123  138.6859  158.3322 H   0  0  0  0  0  0  0  0  0  0  0  0
  147.8808  138.7133  155.8493 H   0  0  0  0  0  0  0  0  0  0  0  0
  148.2190  140.4159  156.0667 H   0  0  0  0  0  0  0  0  0  0  0  0
  147.8067  139.4109  157.4521 H   0  0  0  0  0  0  0  0  0  0  0  0
  150.1195  138.2400  154.7019 H   0  0  0  0  0  0  0  0  0  0  0  0
  151.5928  138.9222  155.3718 H   0  0  0  0  0  0  0  0  0  0  0  0
  150.3264  139.9700  154.7428 H   0  0  0  0  0  0  0  0  0  0  0  0
  149.4736  136.9282  156.5635 H   0  0  0  0  0  0  0  0  0  0  0  0
  150.9676  137.3186  157.3510 H   0  0  0  0  0  0  0  0  0  0  0  0
  149.1698  138.3479  159.1043 H   0  0  0  0  0  0  0  0  0  0  0  0
  147.2464  132.9256  163.3352 H   0  0  0  0  0  0  0  0  0  0  0  0
  151.0821  141.5542  156.2148 H   0  0  0  0  0  0  0  0  0  0  0  0
  149.5191  141.7811  156.9683 H   0  0  0  0  0  0  0  0  0  0  0  0
  150.5441  142.3775  159.1088 H   0  0  0  0  0  0  0  0  0  0  0  0
  151.1143  143.4202  157.8252 H   0  0  0  0  0  0  0  0  0  0  0  0
  1  2  1  0  0  0  0
  1 21  1  0  0  0  0
  1 22  1  0  0  0  0
  1 23  1  0  0  0  0
  2 20  1  0  0  0  0
  2  3  1  0  0  0  0
  3  4  1  0  0  0  0
  3 24  1  0  0  0  0
  3 25  1  0  0  0  0
  4  5  1  0  0  0  0
  4 26  1  0  0  0  0
  4 27  1  0  0  0  0
  5  6  1  0  0  0  0
  5 19  1  0  0  0  0
  6  7  1  0  0  0  0
  6  8  1  0  0  0  0
  6  9  1  0  0  0  0
  7 28  1  0  0  0  0
  7 29  1  0  0  0  0
  7 30  1  0  0  0  0
  8 31  1  0  0  0  0
  8 32  1  0  0  0  0
  8 33  1  0  0  0  0
  9 10  1  0  0  0  0
  9 34  1  0  0  0  0
  9 35  1  0  0  0  0
 10 11  1  0  0  0  0
 10 36  1  0  0  0  0
 11 12  2  0  0  0  0
 11 13  1  0  0  0  0
 13 14  1  0  0  0  0
 14 18  1  0  0  0  0
 14 15  2  0  0  0  0
 15 16  1  0  0  0  0
 16 17  2  0  0  0  0
 17 18  1  0  0  0  0
 17 37  1  0  0  0  0
 19 20  1  0  0  0  0
 19 38  1  0  0  0  0
 19 39  1  0  0  0  0
 20 40  1  0  0  0  0
 20 41  1  0  0  0  0
M  CHG  1  13  -1
M  END
> <s_m_source_file>
AV-unprocessed.smi

> <i_m_source_file_index>
1572

> <i_lp_mmshare_version>
43012

> <i_f3d_flags>
0

> <s_epik_input>
W0NIM11OMVtDSDJdW0NIMl1OKFtDSDJdW0NIMl0xKUMoW0NIM10pKFtDSDNdKVtDSDJdW05IXUMoPU8pW05IXWMybm5bY0hdczI=

> <s_epik_cmdline>
J2VwaWtfcHl0aG9uJywgJy1waCcsICc3LjAnLCAnLXRuJywgJzgnLCAnLW1hJywgJzIwMCcsICctbWV0YWxfYmluZGluZycsICctaW1hZScsICc8aW5maWxlLm1hZT4nLCAnLW9tYWUnLCAnPG91dGZpbGUubWFlPic=

> <r_lp_tautomer_probability>
1

> <r_epik_Ionization_Penalty>
6.61874

> <r_epik_Ionization_Penalty_Charging>
3.54798

> <r_epik_Ionization_Penalty_Neutral>
3.07076

> <r_epik_State_Penalty>
5.68339

> <r_epik_Charging_Adjusted_Penalty>
9.23137

> <i_epik_Tot_Q>
-1

> <i_epik_Tot_abs_Q>
1

> <r_epik_Metal_State_Penalty>
2.66763

> <b_epik_Metal_Only>
1

> <s_lp_Force_Field>
OPLS_2005

> <r_lp_Energy>
47.6706

> <b_lp_Chiralities_Consistent>
1

> <s_lp_Variant>
AV-unprocessed.smi:1572-6

> <Gold.Version>
5.8.1

> <Gold.Id.Protein>
6NUR|6NUR_protein|mol2

> <Gold.PLP.Fitness>
44.7015

> <Gold.PLP.PLP>
-34.8275

> <Gold.PLP.part.hbond>
-3.0000

> <Gold.PLP.part.metal>
0.0000

> <Gold.PLP.part.buried>
-6.2988

> <Gold.PLP.part.nonpolar>
-27.0668

> <Gold.PLP.part.repulsive>
0.2125

> <Gold.PLP.ligand.clash>
0.0000

> <Gold.PLP.ligand.torsion>
0.6192

> <Gold.PLP.Chemscore.Hbond>
3.6618

> <Gold.PLP.Chemscore.CHOScore>
0.0000

> <Gold.PLP.Chemscore.Metal>
0.0000

> <Gold.Chemscore.Hbonds>
donor molecule, donor type, donor heavy atom, donor atom, acceptor molecule, acceptor atom, score
      P1  H  6896  6908       L1    12  0.57

> <Gold.PLP.Chemscore.Internal.Correction>
0.1272

> <Gold.Rescore>
     Score         DG    S(hbond)    S(metal)    S(lipo)     H(rot)  DE(clash)    DE(int)     intcor
     14.58     -16.56       1.82        0.00      78.42       1.63       0.01       1.97       ----

> <Gold.Chemscore.Fitness>
14.5825

> <Gold.Chemscore.DG>
-16.5568

> <Gold.Chemscore.ZeroCoef>
-5.4800

> <Gold.Chemscore.Hbond>
1.8209

> <Gold.Chemscore.Metal>
0.0000

> <Gold.Chemscore.Lipo>
78.4170

> <Gold.Chemscore.Internal_Hbond>
0.0000

> <Gold.Chemscore.DEClash>
0.0089

> <Gold.Chemscore.DEInternal>
1.9654

> <Gold.Chemscore.Rot>
1.6328

> <Gold.Chemscore.Internal.Correction>
   9.000000E+99

> <Gold.Chemscore.Hbonds>
donor molecule, donor type, donor heavy atom, donor atom, acceptor molecule, acceptor atom, score
      P1  H  6896  6908       L1    12  0.10
      P1  H  6931  6943       L1    13  0.02

> <Gold.Chemscore.Hbond.Weighted>
-6.0819

> <Gold.Chemscore.Metal.Weighted>
-0.0000

> <Gold.Chemscore.Lipo.Weighted>
-9.1748

> <Gold.Chemscore.Internal_Hbond.Weighted>
0.0000

> <Gold.Chemscore.DEClash.Weighted>
0.0089

> <Gold.Chemscore.DEInternal.Weighted>
1.9654

> <Gold.Chemscore.Rot.Weighted>
4.1800

> <Gold.Chemscore.Internal.Correction.Weighted>
   9.000000E+99

> <Gold.Protein.RotatedTorsions>
[ 6907 6896 6895 6894 ] final  168.13 input  -60.11 | X-H torsion
[ 7974 7965 7964 7962 ] final -140.68 input  175.53 | X-H torsion
[ 8008 7997 7996 7995 ] final  -78.06 input   59.86 | X-H torsion
[ 10167 10162 10161 10158 ] final   91.89 input  -65.29 | X-H torsion
[ 10718 10713 10712 10709 ] final  131.59 input   66.30 | X-H torsion
[ 10763 10752 10751 10750 ] final -138.52 input  -60.55 | X-H torsion
[ 11005 11000 10999 10996 ] final  -33.73 input  -57.11 | X-H torsion

> <Gold.Protein.ActiveResidues>
 VAL166  LYS551  ARG553  GLY616  TRP617  ASP618  TYR619  PRO620  LYS621  CYS622 
 ASP623  PHE694  ASN695  SER759  ASP760  ASP761  ALA762  ILE779  LEU786  VAL792 
 PHE793  MET794  SER795  GLU796  ALA797  LYS798  CYS799  TRP800  GLU811  SER814 

> <Gold.Protein.RotatedAtoms>
  151.8525  133.3442  159.3677 H   0  0  0  0  0  0  0  0  0  0  0  0  # atno 6907 bound_to 6896
  150.7202  134.5285  159.5698 H   0  0  0  0  0  0  0  0  0  0  0  0  # atno 6908 bound_to 6896
  152.2782  134.7859  160.0452 H   0  0  0  0  0  0  0  0  0  0  0  0  # atno 6909 bound_to 6896
  144.8578  140.6171  143.5348 H   0  0  0  0  0  0  0  0  0  0  0  0  # atno 7974 bound_to 7965
  154.5654  140.0700  156.8883 H   0  0  0  0  0  0  0  0  0  0  0  0  # atno 8008 bound_to 7997
  155.2733  140.3366  155.4245 H   0  0  0  0  0  0  0  0  0  0  0  0  # atno 8009 bound_to 7997
  156.2076  140.1746  156.7751 H   0  0  0  0  0  0  0  0  0  0  0  0  # atno 8010 bound_to 7997
  139.8330  144.6678  150.9377 H   0  0  0  0  0  0  0  0  0  0  0  0  # atno 10167 bound_to 10162
  157.4952  131.1092  150.9502 H   0  0  0  0  0  0  0  0  0  0  0  0  # atno 10718 bound_to 10713
  154.8634  135.3609  154.5398 H   0  0  0  0  0  0  0  0  0  0  0  0  # atno 10763 bound_to 10752
  153.6020  135.7012  153.5385 H   0  0  0  0  0  0  0  0  0  0  0  0  # atno 10764 bound_to 10752
  153.3282  135.4132  155.1435 H   0  0  0  0  0  0  0  0  0  0  0  0  # atno 10765 bound_to 10752
  140.9658  133.7137  156.1444 H   0  0  0  0  0  0  0  0  0  0  0  0  # atno 11005 bound_to 11000
  145.4371  139.1541  143.3990 LP  0  0  0  0  0  0  0  0  0  0  0  0  # atno 17320 bound_to 7965
  146.2837  140.4491  142.8766 LP  0  0  0  0  0  0  0  0  0  0  0  0  # atno 17321 bound_to 7965
  140.7805  143.3983  151.1192 LP  0  0  0  0  0  0  0  0  0  0  0  0  # atno 17342 bound_to 10162
  139.7635  143.8599  152.3105 LP  0  0  0  0  0  0  0  0  0  0  0  0  # atno 17343 bound_to 10162
  157.0190  130.5666  149.5329 LP  0  0  0  0  0  0  0  0  0  0  0  0  # atno 17370 bound_to 10713
  156.0197  130.5291  150.8238 LP  0  0  0  0  0  0  0  0  0  0  0  0  # atno 17371 bound_to 10713
  140.7401  134.4160  157.5556 LP  0  0  0  0  0  0  0  0  0  0  0  0  # atno 17394 bound_to 11000
  139.8894  134.8831  156.2422 LP  0  0  0  0  0  0  0  0  0  0  0  0  # atno 17395 bound_to 11000

$$$$
