AV-unprocessed.smi:234|AV-procd|sdf|1796|dock7
  -GOLD-   2262020363D 1   1.00000     0.00000
 Structure written by MMmdl.
 59 62  0  0  0  0  0  0  0  0  1 V2000
  152.6988  143.9948  159.3000 C   0  0  0  0  0  0  0  0  0  0  0  0
  152.2477  143.6936  157.8692 C   0  0  0  0  0  0  0  0  0  0  0  0
  151.2136  142.7241  157.9109 O   0  0  0  0  0  0  0  0  0  0  0  0
  150.7061  142.3842  156.6255 C   0  0  1  0  0  0  0  0  0  0  0  0
  151.6041  141.3222  155.9894 C   0  0  0  0  0  0  0  0  0  0  0  0
  150.6991  140.2819  156.6569 C   0  0  2  0  0  0  0  0  0  0  0  0
  150.4758  139.0919  155.8282 N   0  0  0  0  0  0  0  0  0  0  0  0
  151.6480  138.4577  155.2319 C   0  0  0  0  0  0  0  0  0  0  0  0
  149.5969  138.1647  156.2825 C   0  0  0  0  0  0  0  0  0  0  0  0
  148.4050  137.9849  155.6542 N   0  0  0  0  0  0  0  0  0  0  0  0
  147.5349  137.0795  156.1105 C   0  0  0  0  0  0  0  0  0  0  0  0
  147.6484  136.2710  157.1661 N   0  0  0  0  0  0  0  0  0  0  0  0
  148.8350  136.4612  157.8111 C   0  0  0  0  0  0  0  0  0  0  0  0
  149.8575  137.3775  157.4372 C   0  0  0  0  0  0  0  0  0  0  0  0
  150.9272  137.2822  158.3182 N   0  0  0  0  0  0  0  0  0  0  0  0
  150.5560  136.3645  159.1684 C   0  0  0  0  0  0  0  0  0  0  0  0
  149.3059  135.8293  158.9496 N   0  0  0  0  0  0  0  0  0  0  0  0
  148.6485  134.8028  159.7448 C   0  0  0  0  0  0  0  0  0  0  0  0
  148.4895  135.1394  161.2535 C   0  0  1  0  0  0  0  0  0  0  0  0
  148.0754  136.4918  161.3143 O   0  0  0  0  0  0  0  0  0  0  0  0
  147.4741  134.2613  161.9820 C   0  0  0  0  0  0  0  0  0  0  0  0
  148.3134  133.1516  162.6230 C   0  0  0  0  0  0  0  0  0  0  0  0
  149.6776  133.5240  162.4496 O   0  0  0  0  0  0  0  0  0  0  0  0
  149.7678  134.8951  162.0816 C   0  0  2  0  0  0  0  0  0  0  0  0
  149.8932  135.7226  163.3761 C   0  0  0  0  0  0  0  0  0  0  0  0
  149.5556  141.3402  156.6403 C   0  0  0  0  0  0  0  0  0  0  0  0
  148.6245  141.3731  157.8558 C   0  0  0  0  0  0  0  0  0  0  0  0
  148.6499  141.3923  155.3981 C   0  0  0  0  0  0  0  0  0  0  0  0
  153.4948  144.7395  159.3094 H   0  0  0  0  0  0  0  0  0  0  0  0
  153.0753  143.0961  159.7893 H   0  0  0  0  0  0  0  0  0  0  0  0
  151.8723  144.3806  159.8975 H   0  0  0  0  0  0  0  0  0  0  0  0
  151.9008  144.6087  157.3890 H   0  0  0  0  0  0  0  0  0  0  0  0
  153.0882  143.3155  157.2854 H   0  0  0  0  0  0  0  0  0  0  0  0
  150.5447  143.2428  155.9710 H   0  0  0  0  0  0  0  0  0  0  0  0
  151.5537  141.3186  154.8992 H   0  0  0  0  0  0  0  0  0  0  0  0
  152.6358  141.3227  156.3429 H   0  0  0  0  0  0  0  0  0  0  0  0
  151.0392  140.0554  157.6693 H   0  0  0  0  0  0  0  0  0  0  0  0
  151.8525  137.4812  155.6745 H   0  0  0  0  0  0  0  0  0  0  0  0
  152.5424  139.0669  155.3620 H   0  0  0  0  0  0  0  0  0  0  0  0
  151.4914  138.3197  154.1620 H   0  0  0  0  0  0  0  0  0  0  0  0
  146.6157  136.9921  155.5503 H   0  0  0  0  0  0  0  0  0  0  0  0
  151.1858  136.0574  159.9907 H   0  0  0  0  0  0  0  0  0  0  0  0
  147.6716  134.6045  159.3018 H   0  0  0  0  0  0  0  0  0  0  0  0
  149.2219  133.8816  159.6304 H   0  0  0  0  0  0  0  0  0  0  0  0
  147.1696  136.5159  161.5825 H   0  0  0  0  0  0  0  0  0  0  0  0
  146.9802  134.8253  162.7750 H   0  0  0  0  0  0  0  0  0  0  0  0
  146.6891  133.8790  161.3297 H   0  0  0  0  0  0  0  0  0  0  0  0
  148.0833  133.0507  163.6840 H   0  0  0  0  0  0  0  0  0  0  0  0
  148.1388  132.1856  162.1489 H   0  0  0  0  0  0  0  0  0  0  0  0
  150.6642  135.0635  161.4853 H   0  0  0  0  0  0  0  0  0  0  0  0
  150.0031  136.7852  163.1591 H   0  0  0  0  0  0  0  0  0  0  0  0
  150.7720  135.4159  163.9434 H   0  0  0  0  0  0  0  0  0  0  0  0
  149.0247  135.6022  164.0239 H   0  0  0  0  0  0  0  0  0  0  0  0
  147.8860  140.5724  157.8231 H   0  0  0  0  0  0  0  0  0  0  0  0
  148.0739  142.3121  157.9115 H   0  0  0  0  0  0  0  0  0  0  0  0
  149.1766  141.2613  158.7893 H   0  0  0  0  0  0  0  0  0  0  0  0
  147.9297  140.5737  155.3873 H   0  0  0  0  0  0  0  0  0  0  0  0
  149.2194  141.3292  154.4708 H   0  0  0  0  0  0  0  0  0  0  0  0
  148.0825  142.3227  155.3603 H   0  0  0  0  0  0  0  0  0  0  0  0
  1  2  1  0  0  0  0
  1 29  1  0  0  0  0
  1 30  1  0  0  0  0
  1 31  1  0  0  0  0
  2  3  1  0  0  0  0
  2 32  1  0  0  0  0
  2 33  1  0  0  0  0
  3  4  1  0  0  0  0
  4 26  1  0  0  0  0
  4  5  1  0  0  0  0
  4 34  1  0  0  0  0
  5  6  1  0  0  0  0
  5 35  1  0  0  0  0
  5 36  1  0  0  0  0
  6  7  1  0  0  0  0
  6 26  1  0  0  0  0
  6 37  1  0  0  0  0
  7  8  1  0  0  0  0
  7  9  1  0  0  0  0
  8 38  1  0  0  0  0
  8 39  1  0  0  0  0
  8 40  1  0  0  0  0
  9 14  1  0  0  0  0
  9 10  2  0  0  0  0
 10 11  1  0  0  0  0
 11 12  2  0  0  0  0
 11 41  1  0  0  0  0
 12 13  1  0  0  0  0
 13 17  1  0  0  0  0
 13 14  2  0  0  0  0
 14 15  1  0  0  0  0
 15 16  2  0  0  0  0
 16 17  1  0  0  0  0
 16 42  1  0  0  0  0
 17 18  1  0  0  0  0
 18 19  1  0  0  0  0
 18 43  1  0  0  0  0
 18 44  1  0  0  0  0
 19 24  1  0  0  0  0
 19 20  1  0  0  0  0
 19 21  1  0  0  0  0
 20 45  1  0  0  0  0
 21 22  1  0  0  0  0
 21 46  1  0  0  0  0
 21 47  1  0  0  0  0
 22 23  1  0  0  0  0
 22 48  1  0  0  0  0
 22 49  1  0  0  0  0
 23 24  1  0  0  0  0
 24 25  1  0  0  0  0
 24 50  1  0  0  0  0
 25 51  1  0  0  0  0
 25 52  1  0  0  0  0
 25 53  1  0  0  0  0
 26 27  1  0  0  0  0
 26 28  1  0  0  0  0
 27 54  1  0  0  0  0
 27 55  1  0  0  0  0
 27 56  1  0  0  0  0
 28 57  1  0  0  0  0
 28 58  1  0  0  0  0
 28 59  1  0  0  0  0
M  END
> <s_m_source_file>
AV-unprocessed.smi

> <i_m_source_file_index>
234

> <i_lp_mmshare_version>
43012

> <i_f3d_flags>
0

> <s_epik_input>
W0NIM11bQ0gyXU9bQ0BASF0oQzEoW0NIM10pW0NIM10pW0NIMl1bQ0BIXTFOKFtDSDNdKWMobltjSF1uMiljKGMyMyluW2NIXW4zW0NIMl1bQ0BAXTQoW09IXSlbQ0gyXVtDSDJdT1tDQEhdNFtDSDNd

> <s_epik_cmdline>
J2VwaWtfcHl0aG9uJywgJy1waCcsICc3LjAnLCAnLXRuJywgJzgnLCAnLW1hJywgJzIwMCcsICctbWV0YWxfYmluZGluZycsICctaW1hZScsICc8aW5maWxlLm1hZT4nLCAnLW9tYWUnLCAnPG91dGZpbGUubWFlPic=

> <r_lp_tautomer_probability>
1

> <r_epik_Ionization_Penalty>
0.00349132

> <r_epik_Ionization_Penalty_Charging>
0

> <r_epik_Ionization_Penalty_Neutral>
0.00349132

> <r_epik_State_Penalty>
0.00242418

> <r_epik_Charging_Adjusted_Penalty>
0.00242418

> <i_epik_Tot_Q>
0

> <i_epik_Tot_abs_Q>
0

> <r_epik_Metal_State_Penalty>
-0

> <b_epik_Metal_Only>
0

> <s_lp_Force_Field>
OPLS_2005

> <r_lp_Energy>
50.3749

> <b_lp_Chiralities_Consistent>
1

> <s_lp_Variant>
AV-unprocessed.smi:234-12

> <Gold.Version>
5.8.1

> <Gold.Id.Protein>
6NUR|6NUR_protein|mol2

> <Gold.PLP.Fitness>
41.8997

> <Gold.PLP.PLP>
-39.7302

> <Gold.PLP.part.hbond>
-1.0000

> <Gold.PLP.part.metal>
0.0000

> <Gold.PLP.part.buried>
-6.7963

> <Gold.PLP.part.nonpolar>
-32.4346

> <Gold.PLP.part.repulsive>
0.1758

> <Gold.PLP.ligand.clash>
0.0000

> <Gold.PLP.ligand.torsion>
0.8525

> <Gold.PLP.Chemscore.Hbond>
1.0000

> <Gold.PLP.Chemscore.CHOScore>
0.0000

> <Gold.PLP.Chemscore.Metal>
0.0000

> <Gold.Chemscore.Hbonds>
donor molecule, donor type, donor heavy atom, donor atom, acceptor molecule, acceptor atom, score
      P1  H  6931  6943       L1    20  0.86

> <Gold.PLP.Chemscore.Internal.Correction>
0.8745

> <Gold.Rescore>
     Score         DG    S(hbond)    S(metal)    S(lipo)     H(rot)  DE(clash)    DE(int)     intcor
     12.72     -14.85       0.96        0.00     110.10       2.62       1.56       0.57       ----

> <Gold.Chemscore.Fitness>
12.7213

> <Gold.Chemscore.DG>
-14.8460

> <Gold.Chemscore.ZeroCoef>
-5.4800

> <Gold.Chemscore.Hbond>
0.9572

> <Gold.Chemscore.Metal>
0.0000

> <Gold.Chemscore.Lipo>
110.0953

> <Gold.Chemscore.Internal_Hbond>
0.0000

> <Gold.Chemscore.DEClash>
1.5579

> <Gold.Chemscore.DEInternal>
0.5667

> <Gold.Chemscore.Rot>
2.6219

> <Gold.Chemscore.Internal.Correction>
   9.000000E+99

> <Gold.Chemscore.Hbonds>
donor molecule, donor type, donor heavy atom, donor atom, acceptor molecule, acceptor atom, score
      P1  H  6931  6943       L1    20  0.62

> <Gold.Chemscore.Hbond.Weighted>
-3.1969

> <Gold.Chemscore.Metal.Weighted>
-0.0000

> <Gold.Chemscore.Lipo.Weighted>
-12.8812

> <Gold.Chemscore.Internal_Hbond.Weighted>
0.0000

> <Gold.Chemscore.DEClash.Weighted>
1.5579

> <Gold.Chemscore.DEInternal.Weighted>
0.5667

> <Gold.Chemscore.Rot.Weighted>
6.7121

> <Gold.Chemscore.Internal.Correction.Weighted>
   9.000000E+99

> <Gold.Protein.RotatedTorsions>
[ 6907 6896 6895 6894 ] final  -49.63 input  -60.11 | X-H torsion
[ 7974 7965 7964 7962 ] final   25.03 input  175.53 | X-H torsion
[ 8008 7997 7996 7995 ] final  108.10 input   59.86 | X-H torsion
[ 10167 10162 10161 10158 ] final  -87.51 input  -65.29 | X-H torsion
[ 10718 10713 10712 10709 ] final   89.38 input   66.30 | X-H torsion
[ 10763 10752 10751 10750 ] final  144.39 input  -60.55 | X-H torsion
[ 11005 11000 10999 10996 ] final  -47.00 input  -57.11 | X-H torsion

> <Gold.Protein.ActiveResidues>
 VAL166  LYS551  ARG553  GLY616  TRP617  ASP618  TYR619  PRO620  LYS621  CYS622 
 ASP623  PHE694  ASN695  SER759  ASP760  ASP761  ALA762  ILE779  LEU786  VAL792 
 PHE793  MET794  SER795  GLU796  ALA797  LYS798  CYS799  TRP800  GLU811  SER814 

> <Gold.Protein.RotatedAtoms>
  150.8786  134.8173  159.7207 H   0  0  0  0  0  0  0  0  0  0  0  0  # atno 6907 bound_to 6896
  152.4763  134.4832  159.9682 H   0  0  0  0  0  0  0  0  0  0  0  0  # atno 6908 bound_to 6896
  151.4910  133.3486  159.2889 H   0  0  0  0  0  0  0  0  0  0  0  0  # atno 6909 bound_to 6896
  146.1909  139.7523  142.8832 H   0  0  0  0  0  0  0  0  0  0  0  0  # atno 7974 bound_to 7965
  156.1876  140.3082  155.9269 H   0  0  0  0  0  0  0  0  0  0  0  0  # atno 8008 bound_to 7997
  155.3245  140.0457  157.3057 H   0  0  0  0  0  0  0  0  0  0  0  0  # atno 8009 bound_to 7997
  154.5414  140.2263  155.8644 H   0  0  0  0  0  0  0  0  0  0  0  0  # atno 8010 bound_to 7997
  140.3837  143.2736  151.9351 H   0  0  0  0  0  0  0  0  0  0  0  0  # atno 10167 bound_to 10162
  157.6955  131.0331  150.3418 H   0  0  0  0  0  0  0  0  0  0  0  0  # atno 10718 bound_to 10713
  153.9880  135.2935  155.3414 H   0  0  0  0  0  0  0  0  0  0  0  0  # atno 10763 bound_to 10752
  154.7231  135.5100  153.8846 H   0  0  0  0  0  0  0  0  0  0  0  0  # atno 10764 bound_to 10752
  153.0823  135.6682  154.0136 H   0  0  0  0  0  0  0  0  0  0  0  0  # atno 10765 bound_to 10752
  141.0614  133.6708  156.3235 H   0  0  0  0  0  0  0  0  0  0  0  0  # atno 11005 bound_to 11000
  145.3796  141.0356  143.3185 LP  0  0  0  0  0  0  0  0  0  0  0  0  # atno 17320 bound_to 7965
  144.8485  139.5359  143.6867 LP  0  0  0  0  0  0  0  0  0  0  0  0  # atno 17321 bound_to 7965
  139.4793  144.5794  151.7958 LP  0  0  0  0  0  0  0  0  0  0  0  0  # atno 17342 bound_to 10162
  140.4911  144.1309  150.5950 LP  0  0  0  0  0  0  0  0  0  0  0  0  # atno 17343 bound_to 10162
  156.3877  130.3892  149.7053 LP  0  0  0  0  0  0  0  0  0  0  0  0  # atno 17370 bound_to 10713
  156.4413  130.7862  151.2884 LP  0  0  0  0  0  0  0  0  0  0  0  0  # atno 17371 bound_to 10713
  140.5861  134.5697  157.5490 LP  0  0  0  0  0  0  0  0  0  0  0  0  # atno 17394 bound_to 11000
  139.9436  134.7742  156.0617 LP  0  0  0  0  0  0  0  0  0  0  0  0  # atno 17395 bound_to 11000

$$$$
