AV-unprocessed.smi:2671|AV-procd|sdf|10347|dock6
  -GOLD-   2272014373D 1   1.00000     0.00000
 Structure written by MMmdl.
 28 29  0  0  0  0  0  0  0  0  2 V2000
  152.2040  136.8353  159.4645 O   0  0  0  0  0  0  0  0  0  0  0  0
  152.2180  138.0272  159.1638 C   0  0  0  0  0  0  0  0  0  0  0  0
  151.3968  138.4982  158.0497 C   0  0  0  0  0  0  0  0  0  0  0  0
  151.4123  139.8167  157.7309 C   0  0  0  0  0  0  0  0  0  0  0  0
  150.5948  140.3614  156.5715 C   0  0  0  0  0  0  0  0  0  0  0  0
  150.9215  139.7392  155.4386 F   0  0  0  0  0  0  0  0  0  0  0  0
  149.2957  140.1629  156.7929 F   0  0  0  0  0  0  0  0  0  0  0  0
  150.7941  141.6696  156.4011 F   0  0  0  0  0  0  0  0  0  0  0  0
  152.2184  140.7145  158.4557 N   0  0  0  0  0  0  0  0  0  0  0  0
  152.9319  140.2782  159.4260 C   0  0  0  0  0  0  0  0  0  0  0  0
  153.9633  141.4237  160.3593 S   0  0  0  0  0  0  0  0  0  0  0  0
  152.7660  142.5186  161.1793 C   0  0  0  0  0  0  0  0  0  0  0  0
  152.5374  143.8107  160.3834 C   0  0  1  0  0  0  0  0  0  0  0  0
  152.5033  143.6270  158.8621 C   0  0  0  0  0  0  0  0  0  0  0  0
  151.4954  144.6629  158.3806 C   0  0  0  0  0  0  0  0  0  0  0  0
  150.9799  145.3098  159.6657 C   0  0  0  0  0  0  0  0  0  0  0  0
  151.2555  144.3475  160.6705 O   0  0  0  0  0  0  0  0  0  0  0  0
  152.9698  138.9577  159.8204 N   0  5  0  0  0  0  0  0  0  0  0  0
  150.7881  137.8034  157.4897 H   0  0  0  0  0  0  0  0  0  0  0  0
  153.1452  142.7642  162.1717 H   0  0  0  0  0  0  0  0  0  0  0  0
  151.8231  141.9884  161.3177 H   0  0  0  0  0  0  0  0  0  0  0  0
  153.2880  144.5562  160.6527 H   0  0  0  0  0  0  0  0  0  0  0  0
  153.4890  143.7631  158.4159 H   0  0  0  0  0  0  0  0  0  0  0  0
  152.1548  142.6276  158.5986 H   0  0  0  0  0  0  0  0  0  0  0  0
  151.9408  145.3997  157.7117 H   0  0  0  0  0  0  0  0  0  0  0  0
  150.6817  144.1721  157.8454 H   0  0  0  0  0  0  0  0  0  0  0  0
  151.5301  146.2266  159.8842 H   0  0  0  0  0  0  0  0  0  0  0  0
  149.9177  145.5513  159.6203 H   0  0  0  0  0  0  0  0  0  0  0  0
  1  2  2  0  0  0  0
  2 18  1  0  0  0  0
  2  3  1  0  0  0  0
  3 19  1  0  0  0  0
  3  4  2  0  0  0  0
  4  5  1  0  0  0  0
  4  9  1  0  0  0  0
  5  6  1  0  0  0  0
  5  7  1  0  0  0  0
  5  8  1  0  0  0  0
  9 10  2  0  0  0  0
 10 11  1  0  0  0  0
 10 18  1  0  0  0  0
 11 12  1  0  0  0  0
 12 13  1  0  0  0  0
 12 20  1  0  0  0  0
 12 21  1  0  0  0  0
 13 17  1  0  0  0  0
 13 14  1  0  0  0  0
 13 22  1  0  0  0  0
 14 15  1  0  0  0  0
 14 23  1  0  0  0  0
 14 24  1  0  0  0  0
 15 16  1  0  0  0  0
 15 25  1  0  0  0  0
 15 26  1  0  0  0  0
 16 17  1  0  0  0  0
 16 27  1  0  0  0  0
 16 28  1  0  0  0  0
M  CHG  1  18  -1
M  END
> <s_m_source_file>
AV-unprocessed.smi

> <i_m_source_file_index>
2671

> <i_lp_mmshare_version>
43012

> <i_f3d_flags>
0

> <s_epik_input>
W09IXWMxW2NIXWMoQyhGKShGKUYpbmMobjEpU1tDSDJdW0NAQEhdMltDSDJdW0NIMl1bQ0gyXU8y

> <s_epik_cmdline>
J2VwaWtfcHl0aG9uJywgJy1waCcsICc3LjAnLCAnLXRuJywgJzgnLCAnLW1hJywgJzIwMCcsICctbWV0YWxfYmluZGluZycsICctaW1hZScsICc8aW5maWxlLm1hZT4nLCAnLW9tYWUnLCAnPG91dGZpbGUubWFlPic=

> <r_lp_tautomer_probability>
1

> <r_epik_Ionization_Penalty>
0.972901

> <r_epik_Ionization_Penalty_Charging>
0.00136034

> <r_epik_Ionization_Penalty_Neutral>
0.971541

> <r_epik_State_Penalty>
0.242243

> <r_epik_Charging_Adjusted_Penalty>
0.243604

> <i_epik_Tot_Q>
-1

> <i_epik_Tot_abs_Q>
1

> <r_epik_Metal_State_Penalty>
0.0617458

> <b_epik_Metal_Only>
0

> <s_lp_Force_Field>
OPLS_2005

> <r_lp_Energy>
24.5089

> <b_lp_Chiralities_Consistent>
1

> <s_lp_Variant>
AV-unprocessed.smi:2671-2

> <Gold.Version>
5.8.1

> <Gold.Id.Protein>
6NUR|6NUR_protein|mol2

> <Gold.PLP.Fitness>
41.8999

> <Gold.PLP.PLP>
-39.9659

> <Gold.PLP.part.hbond>
-1.0000

> <Gold.PLP.part.metal>
0.0000

> <Gold.PLP.part.buried>
-5.3669

> <Gold.PLP.part.nonpolar>
-33.4173

> <Gold.PLP.part.repulsive>
0.1318

> <Gold.PLP.ligand.clash>
0.0000

> <Gold.PLP.ligand.torsion>
0.5396

> <Gold.PLP.Chemscore.Hbond>
1.0000

> <Gold.PLP.Chemscore.CHOScore>
0.0000

> <Gold.PLP.Chemscore.Metal>
0.0000

> <Gold.Chemscore.Hbonds>
donor molecule, donor type, donor heavy atom, donor atom, acceptor molecule, acceptor atom, score
      P1  H  6896  6907       L1     1  1.00

> <Gold.PLP.Chemscore.Internal.Correction>
0.0133

> <Gold.Rescore>
     Score         DG    S(hbond)    S(metal)    S(lipo)     H(rot)  DE(clash)    DE(int)     intcor
     14.46     -14.95       1.00        0.00      88.81       1.66       0.03       0.46       ----

> <Gold.Chemscore.Fitness>
14.4641

> <Gold.Chemscore.DG>
-14.9463

> <Gold.Chemscore.ZeroCoef>
-5.4800

> <Gold.Chemscore.Hbond>
0.9992

> <Gold.Chemscore.Metal>
0.0000

> <Gold.Chemscore.Lipo>
88.8131

> <Gold.Chemscore.Internal_Hbond>
0.0000

> <Gold.Chemscore.DEClash>
0.0261

> <Gold.Chemscore.DEInternal>
0.4562

> <Gold.Chemscore.Rot>
1.6649

> <Gold.Chemscore.Internal.Correction>
   9.000000E+99

> <Gold.Chemscore.Hbonds>
donor molecule, donor type, donor heavy atom, donor atom, acceptor molecule, acceptor atom, score
      P1  H  6896  6907       L1     1  0.99

> <Gold.Chemscore.Hbond.Weighted>
-3.3372

> <Gold.Chemscore.Metal.Weighted>
-0.0000

> <Gold.Chemscore.Lipo.Weighted>
-10.3911

> <Gold.Chemscore.Internal_Hbond.Weighted>
0.0000

> <Gold.Chemscore.DEClash.Weighted>
0.0261

> <Gold.Chemscore.DEInternal.Weighted>
0.4562

> <Gold.Chemscore.Rot.Weighted>
4.2620

> <Gold.Chemscore.Internal.Correction.Weighted>
   9.000000E+99

> <Gold.Protein.RotatedTorsions>
[ 6907 6896 6895 6894 ] final   12.56 input  -60.11 | X-H torsion
[ 7974 7965 7964 7962 ] final    5.94 input  175.53 | X-H torsion
[ 8008 7997 7996 7995 ] final -110.45 input   59.86 | X-H torsion
[ 10167 10162 10161 10158 ] final   69.71 input  -65.29 | X-H torsion
[ 10718 10713 10712 10709 ] final  147.52 input   66.30 | X-H torsion
[ 10763 10752 10751 10750 ] final  -26.05 input  -60.55 | X-H torsion
[ 11005 11000 10999 10996 ] final   24.07 input  -57.11 | X-H torsion

> <Gold.Protein.ActiveResidues>
 VAL166  LYS551  ARG553  GLY616  TRP617  ASP618  TYR619  PRO620  LYS621  CYS622 
 ASP623  PHE694  ASN695  SER759  ASP760  ASP761  ALA762  ILE779  LEU786  VAL792 
 PHE793  MET794  SER795  GLU796  ALA797  LYS798  CYS799  TRP800  GLU811  SER814 

> <Gold.Protein.RotatedAtoms>
  151.7722  135.0783  160.0361 H   0  0  0  0  0  0  0  0  0  0  0  0  # atno 6907 bound_to 6896
  152.3280  133.5922  159.5798 H   0  0  0  0  0  0  0  0  0  0  0  0  # atno 6908 bound_to 6896
  150.7406  133.9826  159.3623 H   0  0  0  0  0  0  0  0  0  0  0  0  # atno 6909 bound_to 6896
  146.2438  140.0309  142.8390 H   0  0  0  0  0  0  0  0  0  0  0  0  # atno 7974 bound_to 7965
  154.9748  140.0397  157.2251 H   0  0  0  0  0  0  0  0  0  0  0  0  # atno 8008 bound_to 7997
  154.7768  140.2811  155.6072 H   0  0  0  0  0  0  0  0  0  0  0  0  # atno 8009 bound_to 7997
  156.2930  140.2599  156.2584 H   0  0  0  0  0  0  0  0  0  0  0  0  # atno 8010 bound_to 7997
  140.0649  144.5202  150.7268 H   0  0  0  0  0  0  0  0  0  0  0  0  # atno 10167 bound_to 10162
  157.3200  131.0902  151.1248 H   0  0  0  0  0  0  0  0  0  0  0  0  # atno 10718 bound_to 10713
  153.7096  135.6951  153.5041 H   0  0  0  0  0  0  0  0  0  0  0  0  # atno 10763 bound_to 10752
  153.2282  135.4346  155.0565 H   0  0  0  0  0  0  0  0  0  0  0  0  # atno 10764 bound_to 10752
  154.8319  135.3477  154.6634 H   0  0  0  0  0  0  0  0  0  0  0  0  # atno 10765 bound_to 10752
  140.3627  134.2107  155.7671 H   0  0  0  0  0  0  0  0  0  0  0  0  # atno 11005 bound_to 11000
  145.1156  140.9431  143.4630 LP  0  0  0  0  0  0  0  0  0  0  0  0  # atno 17320 bound_to 7965
  145.0532  139.3164  143.5918 LP  0  0  0  0  0  0  0  0  0  0  0  0  # atno 17321 bound_to 7965
  140.7154  143.2540  151.4451 LP  0  0  0  0  0  0  0  0  0  0  0  0  # atno 17342 bound_to 10162
  139.5871  144.1580  152.2043 LP  0  0  0  0  0  0  0  0  0  0  0  0  # atno 17343 bound_to 10162
  157.2537  130.6626  149.5943 LP  0  0  0  0  0  0  0  0  0  0  0  0  # atno 17370 bound_to 10713
  155.9685  130.4530  150.5796 LP  0  0  0  0  0  0  0  0  0  0  0  0  # atno 17371 bound_to 10713
  141.1979  133.8048  157.0607 LP  0  0  0  0  0  0  0  0  0  0  0  0  # atno 17394 bound_to 11000
  140.0614  134.9753  157.1310 LP  0  0  0  0  0  0  0  0  0  0  0  0  # atno 17395 bound_to 11000

$$$$
