AV-unprocessed.smi:3353|AV-procd|sdf|12954|dock2
  -GOLD-   2272019393D 1   1.00000     0.00000
 Structure written by MMmdl.
 43 44  0  0  0  0  0  0  0  0  2 V2000
  154.2116  141.3485  160.5093 C   0  0  0  0  0  0  0  0  0  0  0  0
  153.2975  142.5420  160.8118 C   0  0  0  0  0  0  0  0  0  0  0  0
  152.5841  142.9856  159.6301 N   0  0  0  0  0  0  0  0  0  0  0  0
  151.6728  142.2807  158.8689 C   0  0  0  0  0  0  0  0  0  0  0  0
  151.2857  143.1327  157.8734 C   0  0  0  0  0  0  0  0  0  0  0  0
  150.3674  142.9216  156.8140 N   0  0  0  0  0  0  0  0  0  0  0  0
  149.9555  141.7451  156.3145 C   0  0  0  0  0  0  0  0  0  0  0  0
  150.3194  140.6395  156.7151 O   0  0  0  0  0  0  0  0  0  0  0  0
  149.0858  141.9216  155.3105 N   0  0  0  0  0  0  0  0  0  0  0  0
  148.4492  140.8510  154.5483 C   0  0  0  0  0  0  0  0  0  0  0  0
  146.9228  141.0679  154.4087 C   0  0  1  0  0  0  0  0  0  0  0  0
  146.6124  142.4985  153.9123 C   0  0  0  0  0  0  0  0  0  0  0  0
  146.3178  140.0454  153.5049 N   0  3  0  0  0  0  0  0  0  0  0  0
  146.8918  139.9885  152.1428 C   0  0  0  0  0  0  0  0  0  0  0  0
  146.4943  138.6264  151.5693 C   0  0  0  0  0  0  0  0  0  0  0  0
  146.1523  137.7561  152.7810 C   0  0  0  0  0  0  0  0  0  0  0  0
  146.3644  138.6532  154.0029 C   0  0  0  0  0  0  0  0  0  0  0  0
  152.0027  144.3373  158.0943 C   0  0  0  0  0  0  0  0  0  0  0  0
  152.7861  144.2406  159.1578 N   0  0  0  0  0  0  0  0  0  0  0  0
  154.7479  141.0341  161.4047 H   0  0  0  0  0  0  0  0  0  0  0  0
  154.9512  141.6032  159.7497 H   0  0  0  0  0  0  0  0  0  0  0  0
  153.6392  140.4938  160.1478 H   0  0  0  0  0  0  0  0  0  0  0  0
  152.5720  142.2797  161.5831 H   0  0  0  0  0  0  0  0  0  0  0  0
  153.8839  143.3764  161.1984 H   0  0  0  0  0  0  0  0  0  0  0  0
  151.3938  141.2644  159.1046 H   0  0  0  0  0  0  0  0  0  0  0  0
  149.9852  143.7561  156.3936 H   0  0  0  0  0  0  0  0  0  0  0  0
  148.8450  142.8682  155.0549 H   0  0  0  0  0  0  0  0  0  0  0  0
  148.8934  140.7578  153.5555 H   0  0  0  0  0  0  0  0  0  0  0  0
  148.6676  139.9232  155.0765 H   0  0  0  0  0  0  0  0  0  0  0  0
  146.4709  140.9505  155.3952 H   0  0  0  0  0  0  0  0  0  0  0  0
  147.0564  143.2573  154.5565 H   0  0  0  0  0  0  0  0  0  0  0  0
  145.5423  142.7037  153.9002 H   0  0  0  0  0  0  0  0  0  0  0  0
  146.9958  142.6585  152.9041 H   0  0  0  0  0  0  0  0  0  0  0  0
  146.5381  140.8061  151.5142 H   0  0  0  0  0  0  0  0  0  0  0  0
  147.9796  140.0541  152.2032 H   0  0  0  0  0  0  0  0  0  0  0  0
  145.6183  138.7275  150.9273 H   0  0  0  0  0  0  0  0  0  0  0  0
  147.2953  138.1972  150.9664 H   0  0  0  0  0  0  0  0  0  0  0  0
  145.1115  137.4344  152.7228 H   0  0  0  0  0  0  0  0  0  0  0  0
  146.7708  136.8592  152.8313 H   0  0  0  0  0  0  0  0  0  0  0  0
  147.3470  138.4542  154.4344 H   0  0  0  0  0  0  0  0  0  0  0  0
  145.6138  138.4690  154.7720 H   0  0  0  0  0  0  0  0  0  0  0  0
  151.9819  145.2587  157.5311 H   0  0  0  0  0  0  0  0  0  0  0  0
  145.3404  140.2761  153.3948 H   0  0  0  0  0  0  0  0  0  0  0  0
  1  2  1  0  0  0  0
  1 20  1  0  0  0  0
  1 21  1  0  0  0  0
  1 22  1  0  0  0  0
  2  3  1  0  0  0  0
  2 23  1  0  0  0  0
  2 24  1  0  0  0  0
  3 19  1  0  0  0  0
  3  4  1  0  0  0  0
  4  5  2  0  0  0  0
  4 25  1  0  0  0  0
  5  6  1  0  0  0  0
  5 18  1  0  0  0  0
  6  7  1  0  0  0  0
  6 26  1  0  0  0  0
  7  8  2  0  0  0  0
  7  9  1  0  0  0  0
  9 10  1  0  0  0  0
  9 27  1  0  0  0  0
 10 11  1  0  0  0  0
 10 28  1  0  0  0  0
 10 29  1  0  0  0  0
 11 12  1  0  0  0  0
 11 13  1  0  0  0  0
 11 30  1  0  0  0  0
 12 31  1  0  0  0  0
 12 32  1  0  0  0  0
 12 33  1  0  0  0  0
 13 17  1  0  0  0  0
 13 14  1  0  0  0  0
 13 43  1  0  0  0  0
 14 15  1  0  0  0  0
 14 34  1  0  0  0  0
 14 35  1  0  0  0  0
 15 16  1  0  0  0  0
 15 36  1  0  0  0  0
 15 37  1  0  0  0  0
 16 17  1  0  0  0  0
 16 38  1  0  0  0  0
 16 39  1  0  0  0  0
 17 40  1  0  0  0  0
 17 41  1  0  0  0  0
 18 19  2  0  0  0  0
 18 42  1  0  0  0  0
M  CHG  1  13   1
M  END
> <s_m_source_file>
AV-unprocessed.smi

> <i_m_source_file_index>
3353

> <i_lp_mmshare_version>
43012

> <i_f3d_flags>
0

> <s_epik_input>
W0NIM11bQ0gyXW4xW2NIXWMoW2NIXW4xKVtOSF1DKD1PKVtOSF1bQ0gyXVtDQEhdKFtDSDNdKU4yW0NIMl1bQ0gyXVtDSDJdW0NIMl0y

> <s_epik_cmdline>
J2VwaWtfcHl0aG9uJywgJy1waCcsICc3LjAnLCAnLXRuJywgJzgnLCAnLW1hJywgJzIwMCcsICctbWV0YWxfYmluZGluZycsICctaW1hZScsICc8aW5maWxlLm1hZT4nLCAnLW9tYWUnLCAnPG91dGZpbGUubWFlPic=

> <r_lp_tautomer_probability>
1

> <r_epik_Ionization_Penalty>
0.000914091

> <r_epik_Ionization_Penalty_Charging>
0.000761583

> <r_epik_Ionization_Penalty_Neutral>
0.000152508

> <r_epik_State_Penalty>
0.000487427

> <r_epik_Charging_Adjusted_Penalty>
0.00124901

> <i_epik_Tot_Q>
1

> <i_epik_Tot_abs_Q>
1

> <r_epik_Metal_State_Penalty>
-0

> <b_epik_Metal_Only>
0

> <s_lp_Force_Field>
OPLS_2005

> <r_lp_Energy>
35.4291

> <b_lp_Chiralities_Consistent>
1

> <s_lp_Variant>
AV-unprocessed.smi:3353-2

> <Gold.Version>
5.8.1

> <Gold.Id.Protein>
6NUR|6NUR_protein|mol2

> <Gold.PLP.Fitness>
54.5771

> <Gold.PLP.PLP>
-43.2870

> <Gold.PLP.part.hbond>
-3.0000

> <Gold.PLP.part.metal>
0.0000

> <Gold.PLP.part.buried>
-1.9765

> <Gold.PLP.part.nonpolar>
-39.9971

> <Gold.PLP.part.repulsive>
0.2431

> <Gold.PLP.ligand.clash>
0.0000

> <Gold.PLP.ligand.torsion>
0.2453

> <Gold.PLP.Chemscore.Hbond>
3.9120

> <Gold.PLP.Chemscore.CHOScore>
0.0000

> <Gold.PLP.Chemscore.Metal>
0.0000

> <Gold.Chemscore.Hbonds>
donor molecule, donor type, donor heavy atom, donor atom, acceptor molecule, acceptor atom, score
      L1  H     6    26       P1  8028  1.00
      L1  H     9    27       P1  8028  0.90
      L1  H    13    43       P1 10175  2.00

> <Gold.PLP.Chemscore.Internal.Correction>
0.0447

> <Gold.Rescore>
     Score         DG    S(hbond)    S(metal)    S(lipo)     H(rot)  DE(clash)    DE(int)     intcor
     21.41     -23.26       2.93        0.00     103.67       1.61       1.23       0.62       ----

> <Gold.Chemscore.Fitness>
21.4121

> <Gold.Chemscore.DG>
-23.2611

> <Gold.Chemscore.ZeroCoef>
-5.4800

> <Gold.Chemscore.Hbond>
2.9274

> <Gold.Chemscore.Metal>
0.0000

> <Gold.Chemscore.Lipo>
103.6712

> <Gold.Chemscore.Internal_Hbond>
0.0000

> <Gold.Chemscore.DEClash>
1.2252

> <Gold.Chemscore.DEInternal>
0.6239

> <Gold.Chemscore.Rot>
1.6117

> <Gold.Chemscore.Internal.Correction>
   9.000000E+99

> <Gold.Chemscore.Hbonds>
donor molecule, donor type, donor heavy atom, donor atom, acceptor molecule, acceptor atom, score
      L1  H     6    26       P1  8028  0.99
      L1  H     9    27       P1  8028  0.88
      L1  H    13    43       P1 10175  0.98

> <Gold.Chemscore.Hbond.Weighted>
-9.7776

> <Gold.Chemscore.Metal.Weighted>
-0.0000

> <Gold.Chemscore.Lipo.Weighted>
-12.1295

> <Gold.Chemscore.Internal_Hbond.Weighted>
0.0000

> <Gold.Chemscore.DEClash.Weighted>
1.2252

> <Gold.Chemscore.DEInternal.Weighted>
0.6239

> <Gold.Chemscore.Rot.Weighted>
4.1260

> <Gold.Chemscore.Internal.Correction.Weighted>
   9.000000E+99

> <Gold.Protein.RotatedTorsions>
[ 6907 6896 6895 6894 ] final -109.51 input  -60.11 | X-H torsion
[ 7974 7965 7964 7962 ] final  115.91 input  175.53 | X-H torsion
[ 8008 7997 7996 7995 ] final  -98.64 input   59.86 | X-H torsion
[ 10167 10162 10161 10158 ] final   98.03 input  -65.29 | X-H torsion
[ 10718 10713 10712 10709 ] final  135.01 input   66.30 | X-H torsion
[ 10763 10752 10751 10750 ] final -138.58 input  -60.55 | X-H torsion
[ 11005 11000 10999 10996 ] final  -39.00 input  -57.11 | X-H torsion

> <Gold.Protein.ActiveResidues>
 VAL166  LYS551  ARG553  GLY616  TRP617  ASP618  TYR619  PRO620  LYS621  CYS622 
 ASP623  PHE694  ASN695  SER759  ASP760  ASP761  ALA762  ILE779  LEU786  VAL792 
 PHE793  MET794  SER795  GLU796  ALA797  LYS798  CYS799  TRP800  GLU811  SER814 

> <Gold.Protein.RotatedAtoms>
  150.7566  133.9519  159.3488 H   0  0  0  0  0  0  0  0  0  0  0  0  # atno 6907 bound_to 6896
  151.7437  135.0846  160.0329 H   0  0  0  0  0  0  0  0  0  0  0  0  # atno 6908 bound_to 6896
  152.3512  133.6144  159.5982 H   0  0  0  0  0  0  0  0  0  0  0  0  # atno 6909 bound_to 6896
  145.1862  139.3024  143.4392 H   0  0  0  0  0  0  0  0  0  0  0  0  # atno 7974 bound_to 7965
  154.8040  140.0453  157.1294 H   0  0  0  0  0  0  0  0  0  0  0  0  # atno 8008 bound_to 7997
  154.9446  140.3057  155.5084 H   0  0  0  0  0  0  0  0  0  0  0  0  # atno 8009 bound_to 7997
  156.2965  140.2299  156.4518 H   0  0  0  0  0  0  0  0  0  0  0  0  # atno 8010 bound_to 7997
  139.7746  144.6910  151.0108 H   0  0  0  0  0  0  0  0  0  0  0  0  # atno 10167 bound_to 10162
  157.4614  131.1074  150.9915 H   0  0  0  0  0  0  0  0  0  0  0  0  # atno 10718 bound_to 10713
  154.8633  135.3608  154.5408 H   0  0  0  0  0  0  0  0  0  0  0  0  # atno 10763 bound_to 10752
  153.6030  135.7012  153.5381 H   0  0  0  0  0  0  0  0  0  0  0  0  # atno 10764 bound_to 10752
  153.3274  135.4134  155.1429 H   0  0  0  0  0  0  0  0  0  0  0  0  # atno 10765 bound_to 10752
  141.0069  133.6927  156.2128 H   0  0  0  0  0  0  0  0  0  0  0  0  # atno 11005 bound_to 11000
  146.3444  140.2058  142.8589 LP  0  0  0  0  0  0  0  0  0  0  0  0  # atno 17320 bound_to 7965
  145.0087  140.8695  143.5237 LP  0  0  0  0  0  0  0  0  0  0  0  0  # atno 17321 bound_to 7965
  140.7816  143.4550  151.0358 LP  0  0  0  0  0  0  0  0  0  0  0  0  # atno 17342 bound_to 10162
  139.8233  143.7790  152.3177 LP  0  0  0  0  0  0  0  0  0  0  0  0  # atno 17343 bound_to 10162
  157.0710  130.5864  149.5402 LP  0  0  0  0  0  0  0  0  0  0  0  0  # atno 17370 bound_to 10713
  156.0030  130.5113  150.7733 LP  0  0  0  0  0  0  0  0  0  0  0  0  # atno 17371 bound_to 10713
  140.6798  134.4780  157.5589 LP  0  0  0  0  0  0  0  0  0  0  0  0  # atno 17394 bound_to 11000
  139.9068  134.8431  156.1675 LP  0  0  0  0  0  0  0  0  0  0  0  0  # atno 17395 bound_to 11000

$$$$
