AV-unprocessed.smi:221|AV-procd|sdf|1687|dock6
  -GOLD-   2262020123D 1   1.00000     0.00000
 Structure written by MMmdl.
 50 53  0  0  0  0  0  0  0  0  1 V2000
  146.1113  135.6027  156.7869 N   0  0  0  0  0  0  0  0  0  0  0  0
  146.2938  134.4321  157.4060 C   0  0  0  0  0  0  0  0  0  0  0  0
  145.5771  134.0784  158.3400 O   0  0  0  0  0  0  0  0  0  0  0  0
  147.4493  133.5316  156.9214 C   0  0  1  0  0  0  0  0  0  0  0  0
  147.3533  133.0525  155.4654 C   0  0  0  0  0  0  0  0  0  0  0  0
  148.7798  132.5913  155.1439 C   0  0  1  0  0  0  0  0  0  0  0  0
  149.1793  133.0942  153.9752 F   0  0  0  0  0  0  0  0  0  0  0  0
  149.6491  133.1142  156.3004 C   0  0  0  0  0  0  0  0  0  0  0  0
  148.8199  134.0405  157.0655 N   0  0  0  0  0  0  0  0  0  0  0  0
  149.1141  135.3340  156.7713 C   0  0  0  0  0  0  0  0  0  0  0  0
  149.0579  135.7976  155.4943 N   0  0  0  0  0  0  0  0  0  0  0  0
  149.3728  137.0686  155.2274 C   0  0  0  0  0  0  0  0  0  0  0  0
  149.7659  138.0256  156.0712 N   0  0  0  0  0  0  0  0  0  0  0  0
  149.8276  137.5614  157.3521 C   0  0  0  0  0  0  0  0  0  0  0  0
  149.5226  136.2405  157.7838 C   0  0  0  0  0  0  0  0  0  0  0  0
  149.6968  136.1334  159.1576 N   0  0  0  0  0  0  0  0  0  0  0  0
  150.0817  137.3268  159.5200 C   0  0  0  0  0  0  0  0  0  0  0  0
  150.1827  138.2466  158.5008 N   0  0  0  0  0  0  0  0  0  0  0  0
  150.5852  139.6359  158.6299 C   0  0  0  0  0  0  0  0  0  0  0  0
  151.0094  140.2705  157.2824 C   0  0  2  0  0  0  0  0  0  0  0  0
  152.0834  139.4343  156.5446 C   0  0  0  0  0  0  0  0  0  0  0  0
  151.8902  139.4634  155.1452 O   0  0  0  0  0  0  0  0  0  0  0  0
  151.4326  141.7515  157.4537 C   0  0  2  0  0  0  0  0  0  0  0  0
  152.4649  141.9974  158.5404 C   0  0  0  0  0  0  0  0  0  0  0  0
  152.3212  143.4945  158.7898 C   0  0  0  0  0  0  0  0  0  0  0  0
  150.9512  143.7949  158.5503 O   0  0  0  0  0  0  0  0  0  0  0  0
  150.3131  142.6882  157.9209 C   0  0  0  0  0  0  0  0  0  0  0  0
  147.4000  132.6480  157.5604 H   0  0  0  0  0  0  0  0  0  0  0  0
  148.8471  131.5059  155.0655 H   0  0  0  0  0  0  0  0  0  0  0  0
  145.3637  136.2139  157.0814 H   0  0  0  0  0  0  0  0  0  0  0  0
  146.7210  135.8712  156.0282 H   0  0  0  0  0  0  0  0  0  0  0  0
  146.6254  132.2499  155.3437 H   0  0  0  0  0  0  0  0  0  0  0  0
  147.0560  133.8669  154.8029 H   0  0  0  0  0  0  0  0  0  0  0  0
  149.9316  132.2927  156.9599 H   0  0  0  0  0  0  0  0  0  0  0  0
  150.5786  133.5597  155.9391 H   0  0  0  0  0  0  0  0  0  0  0  0
  149.3021  137.3592  154.1898 H   0  0  0  0  0  0  0  0  0  0  0  0
  150.3014  137.5731  160.5489 H   0  0  0  0  0  0  0  0  0  0  0  0
  149.7442  140.1775  159.0626 H   0  0  0  0  0  0  0  0  0  0  0  0
  151.3966  139.7011  159.3556 H   0  0  0  0  0  0  0  0  0  0  0  0
  150.1260  140.2649  156.6419 H   0  0  0  0  0  0  0  0  0  0  0  0
  153.0859  139.7994  156.7667 H   0  0  0  0  0  0  0  0  0  0  0  0
  152.0635  138.3964  156.8763 H   0  0  0  0  0  0  0  0  0  0  0  0
  151.4475  138.6701  154.8852 H   0  0  0  0  0  0  0  0  0  0  0  0
  151.8321  142.1303  156.5113 H   0  0  0  0  0  0  0  0  0  0  0  0
  152.2089  141.4418  159.4438 H   0  0  0  0  0  0  0  0  0  0  0  0
  153.4779  141.7226  158.2452 H   0  0  0  0  0  0  0  0  0  0  0  0
  152.6232  143.7798  159.7977 H   0  0  0  0  0  0  0  0  0  0  0  0
  152.9288  144.0582  158.0808 H   0  0  0  0  0  0  0  0  0  0  0  0
  149.6767  143.0194  157.0999 H   0  0  0  0  0  0  0  0  0  0  0  0
  149.6800  142.1961  158.6606 H   0  0  0  0  0  0  0  0  0  0  0  0
  1  2  1  0  0  0  0
  1 30  1  0  0  0  0
  1 31  1  0  0  0  0
  2  3  2  0  0  0  0
  2  4  1  0  0  0  0
  4 28  1  0  0  0  0
  4  9  1  0  0  0  0
  4  5  1  0  0  0  0
  5  6  1  0  0  0  0
  5 32  1  0  0  0  0
  5 33  1  0  0  0  0
  6 29  1  0  0  0  0
  6  7  1  0  0  0  0
  6  8  1  0  0  0  0
  8  9  1  0  0  0  0
  8 34  1  0  0  0  0
  8 35  1  0  0  0  0
  9 10  1  0  0  0  0
 10 15  1  0  0  0  0
 10 11  2  0  0  0  0
 11 12  1  0  0  0  0
 12 13  2  0  0  0  0
 12 36  1  0  0  0  0
 13 14  1  0  0  0  0
 14 18  1  0  0  0  0
 14 15  2  0  0  0  0
 15 16  1  0  0  0  0
 16 17  2  0  0  0  0
 17 18  1  0  0  0  0
 17 37  1  0  0  0  0
 18 19  1  0  0  0  0
 19 20  1  0  0  0  0
 19 38  1  0  0  0  0
 19 39  1  0  0  0  0
 20 21  1  0  0  0  0
 20 23  1  0  0  0  0
 20 40  1  0  0  0  0
 21 22  1  0  0  0  0
 21 41  1  0  0  0  0
 21 42  1  0  0  0  0
 22 43  1  0  0  0  0
 23 27  1  0  0  0  0
 23 24  1  0  0  0  0
 23 44  1  0  0  0  0
 24 25  1  0  0  0  0
 24 45  1  0  0  0  0
 24 46  1  0  0  0  0
 25 26  1  0  0  0  0
 25 47  1  0  0  0  0
 25 48  1  0  0  0  0
 26 27  1  0  0  0  0
 27 49  1  0  0  0  0
 27 50  1  0  0  0  0
M  END
> <s_m_source_file>
AV-unprocessed.smi

> <i_m_source_file_index>
221

> <i_lp_mmshare_version>
43012

> <i_f3d_flags>
0

> <s_epik_input>
W05IMl1DKD1PKVtDQEBIXTFbQ0gyXVtDQEBIXShGKVtDSDJdTjFjKG5bY0hdbjIpYyhjMjMpbltjSF1uM1tDSDJdW0NASF0oW0NIMl1bT0hdKVtDQEBIXTRbQ0gyXVtDSDJdT1tDSDJdNA==

> <s_epik_cmdline>
J2VwaWtfcHl0aG9uJywgJy1waCcsICc3LjAnLCAnLXRuJywgJzgnLCAnLW1hJywgJzIwMCcsICctbWV0YWxfYmluZGluZycsICctaW1hZScsICc8aW5maWxlLm1hZT4nLCAnLW9tYWUnLCAnPG91dGZpbGUubWFlPic=

> <r_lp_tautomer_probability>
1

> <r_epik_Ionization_Penalty>
0.000818822

> <r_epik_Ionization_Penalty_Charging>
0

> <r_epik_Ionization_Penalty_Neutral>
0.000818822

> <r_epik_State_Penalty>
0.000440551

> <r_epik_Charging_Adjusted_Penalty>
0.000440551

> <i_epik_Tot_Q>
0

> <i_epik_Tot_abs_Q>
0

> <r_epik_Metal_State_Penalty>
-0

> <b_epik_Metal_Only>
0

> <s_lp_Force_Field>
OPLS_2005

> <r_lp_Energy>
55.6777

> <b_lp_Chiralities_Consistent>
1

> <s_lp_Variant>
AV-unprocessed.smi:221-2

> <Gold.Version>
5.8.1

> <Gold.Id.Protein>
6NUR|6NUR_protein|mol2

> <Gold.PLP.Fitness>
36.1266

> <Gold.PLP.PLP>
-28.7120

> <Gold.PLP.part.hbond>
-2.0000

> <Gold.PLP.part.metal>
0.0000

> <Gold.PLP.part.buried>
-5.7815

> <Gold.PLP.part.nonpolar>
-21.9316

> <Gold.PLP.part.repulsive>
0.2740

> <Gold.PLP.ligand.clash>
0.0000

> <Gold.PLP.ligand.torsion>
0.8730

> <Gold.PLP.Chemscore.Hbond>
2.0000

> <Gold.PLP.Chemscore.CHOScore>
0.9952

> <Gold.PLP.Chemscore.Metal>
0.0000

> <Gold.Chemscore.Hbonds>
donor molecule, donor type, donor heavy atom, donor atom, acceptor molecule, acceptor atom, score
      P1  H  6896  6909       L1    16  1.00
      P1  H  7989  7998       L1    22  0.64
      L1  C    12    36       P1  7948  0.85

> <Gold.PLP.Chemscore.Internal.Correction>
0.1750

> <Gold.Rescore>
     Score         DG    S(hbond)    S(metal)    S(lipo)     H(rot)  DE(clash)    DE(int)     intcor
      6.83     -10.79       1.93        0.00      71.69       3.72       0.19       3.77       ----

> <Gold.Chemscore.Fitness>
6.8339

> <Gold.Chemscore.DG>
-10.7915

> <Gold.Chemscore.ZeroCoef>
-5.4800

> <Gold.Chemscore.Hbond>
1.9303

> <Gold.Chemscore.Metal>
0.0000

> <Gold.Chemscore.Lipo>
71.6924

> <Gold.Chemscore.Internal_Hbond>
0.0000

> <Gold.Chemscore.DEClash>
0.1911

> <Gold.Chemscore.DEInternal>
3.7665

> <Gold.Chemscore.Rot>
3.7202

> <Gold.Chemscore.Internal.Correction>
   9.000000E+99

> <Gold.Chemscore.Hbonds>
donor molecule, donor type, donor heavy atom, donor atom, acceptor molecule, acceptor atom, score
      P1  H  6896  6909       L1    16  0.53
      P1  H  7989  7998       L1    22  0.37

> <Gold.Chemscore.Hbond.Weighted>
-6.4472

> <Gold.Chemscore.Metal.Weighted>
-0.0000

> <Gold.Chemscore.Lipo.Weighted>
-8.3880

> <Gold.Chemscore.Internal_Hbond.Weighted>
0.0000

> <Gold.Chemscore.DEClash.Weighted>
0.1911

> <Gold.Chemscore.DEInternal.Weighted>
3.7665

> <Gold.Chemscore.Rot.Weighted>
9.5237

> <Gold.Chemscore.Internal.Correction.Weighted>
   9.000000E+99

> <Gold.Protein.RotatedTorsions>
[ 6907 6896 6895 6894 ] final   83.17 input  -60.11 | X-H torsion
[ 7974 7965 7964 7962 ] final  -88.95 input  175.53 | X-H torsion
[ 8008 7997 7996 7995 ] final  -46.99 input   59.86 | X-H torsion
[ 10167 10162 10161 10158 ] final   16.47 input  -65.29 | X-H torsion
[ 10718 10713 10712 10709 ] final -118.11 input   66.30 | X-H torsion
[ 10763 10752 10751 10750 ] final  -39.24 input  -60.55 | X-H torsion
[ 11005 11000 10999 10996 ] final   96.51 input  -57.11 | X-H torsion

> <Gold.Protein.ActiveResidues>
 VAL166  LYS551  ARG553  GLY616  TRP617  ASP618  TYR619  PRO620  LYS621  CYS622 
 ASP623  PHE694  ASN695  SER759  ASP760  ASP761  ALA762  ILE779  LEU786  VAL792 
 PHE793  MET794  SER795  GLU796  ALA797  LYS798  CYS799  TRP800  GLU811  SER814 

> <Gold.Protein.RotatedAtoms>
  152.5320  134.2936  159.9052 H   0  0  0  0  0  0  0  0  0  0  0  0  # atno 6907 bound_to 6896
  151.2888  133.4168  159.2639 H   0  0  0  0  0  0  0  0  0  0  0  0  # atno 6908 bound_to 6896
  151.0219  134.9491  159.8121 H   0  0  0  0  0  0  0  0  0  0  0  0  # atno 6909 bound_to 6896
  145.4463  140.9560  143.2047 H   0  0  0  0  0  0  0  0  0  0  0  0  # atno 7974 bound_to 7965
  154.4012  140.1357  156.4102 H   0  0  0  0  0  0  0  0  0  0  0  0  # atno 8008 bound_to 7997
  155.7741  140.3483  155.5242 H   0  0  0  0  0  0  0  0  0  0  0  0  # atno 8009 bound_to 7997
  155.8738  140.0976  157.1522 H   0  0  0  0  0  0  0  0  0  0  0  0  # atno 8010 bound_to 7997
  140.5795  143.9009  150.6777 H   0  0  0  0  0  0  0  0  0  0  0  0  # atno 10167 bound_to 10162
  156.1082  130.6227  150.9249 H   0  0  0  0  0  0  0  0  0  0  0  0  # atno 10718 bound_to 10713
  153.9261  135.6777  153.4746 H   0  0  0  0  0  0  0  0  0  0  0  0  # atno 10763 bound_to 10752
  153.1003  135.4831  154.8853 H   0  0  0  0  0  0  0  0  0  0  0  0  # atno 10764 bound_to 10752
  154.7453  135.3171  154.8613 H   0  0  0  0  0  0  0  0  0  0  0  0  # atno 10765 bound_to 10752
  139.8781  134.8954  156.4169 H   0  0  0  0  0  0  0  0  0  0  0  0  # atno 11005 bound_to 11000
  144.8089  139.5999  143.7038 LP  0  0  0  0  0  0  0  0  0  0  0  0  # atno 17320 bound_to 7965
  146.2529  139.6238  142.9415 LP  0  0  0  0  0  0  0  0  0  0  0  0  # atno 17321 bound_to 7965
  140.2504  143.3597  152.1410 LP  0  0  0  0  0  0  0  0  0  0  0  0  # atno 17342 bound_to 10162
  139.5161  144.6973  151.5594 LP  0  0  0  0  0  0  0  0  0  0  0  0  # atno 17343 bound_to 10162
  157.6261  131.0925  150.8531 LP  0  0  0  0  0  0  0  0  0  0  0  0  # atno 17370 bound_to 10713
  156.8646  130.5125  149.5301 LP  0  0  0  0  0  0  0  0  0  0  0  0  # atno 17371 bound_to 10713
  140.9161  133.7678  155.9849 LP  0  0  0  0  0  0  0  0  0  0  0  0  # atno 17394 bound_to 11000
  140.8492  134.2974  157.5282 LP  0  0  0  0  0  0  0  0  0  0  0  0  # atno 17395 bound_to 11000

$$$$
