AV-unprocessed.smi:3298|AV-procd|sdf|12644|dock1
  -GOLD-   2272018573D 1   1.00000     0.00000
 Structure written by MMmdl.
 36 37  0  0  0  0  0  0  0  0  2 V2000
  151.2507  137.4544  154.4268 C   0  0  0  0  0  0  0  0  0  0  0  0
  150.3450  138.6673  154.3873 C   0  0  0  0  0  0  0  0  0  0  0  0
  150.6352  139.8480  155.1040 C   0  0  0  0  0  0  0  0  0  0  0  0
  149.7428  140.9408  155.0378 C   0  0  0  0  0  0  0  0  0  0  0  0
  150.0740  142.1149  155.7650 N   0  0  0  0  0  0  0  0  0  0  0  0
  151.0360  142.2651  156.6915 C   0  0  0  0  0  0  0  0  0  0  0  0
  151.8070  141.3793  157.0612 O   0  0  0  0  0  0  0  0  0  0  0  0
  151.0771  143.5221  157.1548 N   0  0  0  0  0  0  0  0  0  0  0  0
  152.0474  144.0184  158.1245 C   0  0  2  0  0  0  0  0  0  0  0  0
  152.2526  143.0154  159.2262 C   0  0  0  0  0  0  0  0  0  0  0  0
  152.0053  143.5190  160.4330 C   0  0  0  0  0  0  0  0  0  0  0  0
  151.5725  144.9623  160.3881 C   0  0  2  0  0  0  0  0  0  0  0  0
  150.2169  145.1995  161.0763 C   0  0  0  0  0  0  0  0  0  0  0  0
  149.2397  144.3147  160.5700 O   0  0  0  0  0  0  0  0  0  0  0  0
  151.5488  145.2838  158.8718 C   0  0  0  0  0  0  0  0  0  0  0  0
  148.5899  140.8286  154.2210 C   0  0  0  0  0  0  0  0  0  0  0  0
  148.3539  139.6266  153.5240 C   0  0  0  0  0  0  0  0  0  0  0  0
  149.2261  138.6017  153.6326 N   0  3  0  0  0  0  0  0  0  0  0  0
  153.0094  144.2022  157.6429 H   0  0  0  0  0  0  0  0  0  0  0  0
  152.3425  145.5619  160.8756 H   0  0  0  0  0  0  0  0  0  0  0  0
  151.9629  137.5246  155.2495 H   0  0  0  0  0  0  0  0  0  0  0  0
  151.8105  137.3705  153.4950 H   0  0  0  0  0  0  0  0  0  0  0  0
  150.6671  136.5432  154.5618 H   0  0  0  0  0  0  0  0  0  0  0  0
  151.5295  139.9100  155.7073 H   0  0  0  0  0  0  0  0  0  0  0  0
  149.5833  142.9535  155.4911 H   0  0  0  0  0  0  0  0  0  0  0  0
  150.4084  144.1892  156.7983 H   0  0  0  0  0  0  0  0  0  0  0  0
  152.5830  142.0055  159.0312 H   0  0  0  0  0  0  0  0  0  0  0  0
  152.1030  142.9772  161.3624 H   0  0  0  0  0  0  0  0  0  0  0  0
  150.3053  145.0372  162.1508 H   0  0  0  0  0  0  0  0  0  0  0  0
  149.8811  146.2268  160.9307 H   0  0  0  0  0  0  0  0  0  0  0  0
  148.8014  144.7333  159.8449 H   0  0  0  0  0  0  0  0  0  0  0  0
  152.1895  146.1378  158.6493 H   0  0  0  0  0  0  0  0  0  0  0  0
  150.5430  145.5606  158.5514 H   0  0  0  0  0  0  0  0  0  0  0  0
  147.8924  141.6450  154.1092 H   0  0  0  0  0  0  0  0  0  0  0  0
  147.5008  139.4579  152.8834 H   0  0  0  0  0  0  0  0  0  0  0  0
  149.0337  137.7412  153.1191 H   0  0  0  0  0  0  0  0  0  0  0  0
  1  2  1  0  0  0  0
  1 21  1  0  0  0  0
  1 22  1  0  0  0  0
  1 23  1  0  0  0  0
  2 18  1  0  0  0  0
  2  3  2  0  0  0  0
  3  4  1  0  0  0  0
  3 24  1  0  0  0  0
  4  5  1  0  0  0  0
  4 16  2  0  0  0  0
  5  6  1  0  0  0  0
  5 25  1  0  0  0  0
  6  7  2  0  0  0  0
  6  8  1  0  0  0  0
  8  9  1  0  0  0  0
  8 26  1  0  0  0  0
  9 19  1  0  0  0  0
  9 15  1  0  0  0  0
  9 10  1  0  0  0  0
 10 11  2  0  0  0  0
 10 27  1  0  0  0  0
 11 12  1  0  0  0  0
 11 28  1  0  0  0  0
 12 20  1  0  0  0  0
 12 13  1  0  0  0  0
 12 15  1  0  0  0  0
 13 14  1  0  0  0  0
 13 29  1  0  0  0  0
 13 30  1  0  0  0  0
 14 31  1  0  0  0  0
 15 32  1  0  0  0  0
 15 33  1  0  0  0  0
 16 17  1  0  0  0  0
 16 34  1  0  0  0  0
 17 18  2  0  0  0  0
 17 35  1  0  0  0  0
 18 36  1  0  0  0  0
M  CHG  1  18   1
M  END
> <s_m_source_file>
AV-unprocessed.smi

> <i_m_source_file_index>
3298

> <i_lp_mmshare_version>
43012

> <i_f3d_flags>
0

> <s_epik_input>
W0NIM11jMVtjSF1jKFtjSF1bY0hdbjEpW05IXUMoPU8pW05IXVtDQEBIXTJbQ0hdPVtDSF1bQ0BASF0oW0NIMl0yKVtDSDJdW09IXQ==

> <s_epik_cmdline>
J2VwaWtfcHl0aG9uJywgJy1waCcsICc3LjAnLCAnLXRuJywgJzgnLCAnLW1hJywgJzIwMCcsICctbWV0YWxfYmluZGluZycsICctaW1hZScsICc8aW5maWxlLm1hZT4nLCAnLW9tYWUnLCAnPG91dGZpbGUubWFlPic=

> <r_epik_Ionization_Penalty>
0.443901

> <r_epik_Ionization_Penalty_Charging>
0.443881

> <r_epik_Ionization_Penalty_Neutral>
1.94967e-05

> <r_epik_State_Penalty>
0.446172

> <r_epik_Charging_Adjusted_Penalty>
0.890053

> <i_epik_Tot_Q>
1

> <i_epik_Tot_abs_Q>
1

> <r_epik_Metal_State_Penalty>
0.675842

> <b_epik_Metal_Only>
0

> <s_lp_Force_Field>
OPLS_2005

> <r_lp_Energy>
26.7826

> <b_lp_Chiralities_Consistent>
1

> <s_lp_Variant>
AV-unprocessed.smi:3298-5

> <Gold.Version>
5.8.1

> <Gold.Id.Protein>
6NUR|6NUR_protein|mol2

> <Gold.PLP.Fitness>
52.9771

> <Gold.PLP.PLP>
-40.3111

> <Gold.PLP.part.hbond>
-5.0000

> <Gold.PLP.part.metal>
0.0000

> <Gold.PLP.part.buried>
3.6539

> <Gold.PLP.part.nonpolar>
-39.6678

> <Gold.PLP.part.repulsive>
0.2240

> <Gold.PLP.ligand.clash>
0.0919

> <Gold.PLP.ligand.torsion>
0.3195

> <Gold.PLP.Chemscore.Hbond>
4.4594

> <Gold.PLP.Chemscore.CHOScore>
0.0000

> <Gold.PLP.Chemscore.Metal>
0.0000

> <Gold.Chemscore.Hbonds>
donor molecule, donor type, donor heavy atom, donor atom, acceptor molecule, acceptor atom, score
      L1  H     5    25       P1  8028  1.00
      L1  H     8    26       P1  8028  1.00
      L1  H    18    36       P1  7948  2.00
      P1  H  6933  6944       L1    14  0.27

> <Gold.PLP.Chemscore.Internal.Correction>
0.0186

> <Gold.Rescore>
     Score         DG    S(hbond)    S(metal)    S(lipo)     H(rot)  DE(clash)    DE(int)     intcor
     18.41     -24.56       2.98        0.00     117.52       1.81       2.80       3.35       ----

> <Gold.Chemscore.Fitness>
18.4070

> <Gold.Chemscore.DG>
-24.5590

> <Gold.Chemscore.ZeroCoef>
-5.4800

> <Gold.Chemscore.Hbond>
2.9797

> <Gold.Chemscore.Metal>
0.0000

> <Gold.Chemscore.Lipo>
117.5237

> <Gold.Chemscore.Internal_Hbond>
0.0000

> <Gold.Chemscore.DEClash>
2.8025

> <Gold.Chemscore.DEInternal>
3.3495

> <Gold.Chemscore.Rot>
1.8061

> <Gold.Chemscore.Internal.Correction>
   9.000000E+99

> <Gold.Chemscore.Hbonds>
donor molecule, donor type, donor heavy atom, donor atom, acceptor molecule, acceptor atom, score
      L1  H     5    25       P1  8028  0.99
      L1  H     8    26       P1  8028  0.95
      L1  H    18    36       P1  7948  0.99
      P1  H  6933  6944       L1    14  0.27

> <Gold.Chemscore.Hbond.Weighted>
-9.9523

> <Gold.Chemscore.Metal.Weighted>
-0.0000

> <Gold.Chemscore.Lipo.Weighted>
-13.7503

> <Gold.Chemscore.Internal_Hbond.Weighted>
0.0000

> <Gold.Chemscore.DEClash.Weighted>
2.8025

> <Gold.Chemscore.DEInternal.Weighted>
3.3495

> <Gold.Chemscore.Rot.Weighted>
4.6237

> <Gold.Chemscore.Internal.Correction.Weighted>
   9.000000E+99

> <Gold.Protein.RotatedTorsions>
[ 6907 6896 6895 6894 ] final  -57.09 input  -60.11 | X-H torsion
[ 7974 7965 7964 7962 ] final    1.62 input  175.53 | X-H torsion
[ 8008 7997 7996 7995 ] final  -82.26 input   59.86 | X-H torsion
[ 10167 10162 10161 10158 ] final  -32.26 input  -65.29 | X-H torsion
[ 10718 10713 10712 10709 ] final  -85.93 input   66.30 | X-H torsion
[ 10763 10752 10751 10750 ] final -111.15 input  -60.55 | X-H torsion
[ 11005 11000 10999 10996 ] final  102.41 input  -57.11 | X-H torsion

> <Gold.Protein.ActiveResidues>
 VAL166  LYS551  ARG553  GLY616  TRP617  ASP618  TYR619  PRO620  LYS621  CYS622 
 ASP623  PHE694  ASN695  SER759  ASP760  ASP761  ALA762  ILE779  LEU786  VAL792 
 PHE793  MET794  SER795  GLU796  ALA797  LYS798  CYS799  TRP800  GLU811  SER814 

> <Gold.Protein.RotatedAtoms>
  150.8114  134.7271  159.6691 H   0  0  0  0  0  0  0  0  0  0  0  0  # atno 6907 bound_to 6896
  152.4234  134.5910  159.9984 H   0  0  0  0  0  0  0  0  0  0  0  0  # atno 6908 bound_to 6896
  151.6118  133.3309  159.3105 H   0  0  0  0  0  0  0  0  0  0  0  0  # atno 6909 bound_to 6896
  146.2441  140.0960  142.8350 H   0  0  0  0  0  0  0  0  0  0  0  0  # atno 7974 bound_to 7965
  154.6068  140.0636  156.9441 H   0  0  0  0  0  0  0  0  0  0  0  0  # atno 8008 bound_to 7997
  155.2040  140.3317  155.4320 H   0  0  0  0  0  0  0  0  0  0  0  0  # atno 8009 bound_to 7997
  156.2352  140.1859  156.7121 H   0  0  0  0  0  0  0  0  0  0  0  0  # atno 8010 bound_to 7997
  140.7224  143.3708  151.1782 H   0  0  0  0  0  0  0  0  0  0  0  0  # atno 10167 bound_to 10162
  155.9993  130.4747  150.4637 H   0  0  0  0  0  0  0  0  0  0  0  0  # atno 10718 bound_to 10713
  154.8285  135.4538  154.0995 H   0  0  0  0  0  0  0  0  0  0  0  0  # atno 10763 bound_to 10752
  153.2289  135.6903  153.7920 H   0  0  0  0  0  0  0  0  0  0  0  0  # atno 10764 bound_to 10752
  153.7310  135.3327  155.3262 H   0  0  0  0  0  0  0  0  0  0  0  0  # atno 10765 bound_to 10752
  139.8777  134.9223  156.5054 H   0  0  0  0  0  0  0  0  0  0  0  0  # atno 11005 bound_to 11000
  145.0610  140.9087  143.4939 LP  0  0  0  0  0  0  0  0  0  0  0  0  # atno 17320 bound_to 7965
  145.1075  139.2780  143.5654 LP  0  0  0  0  0  0  0  0  0  0  0  0  # atno 17321 bound_to 7965
  139.7279  143.9119  152.3009 LP  0  0  0  0  0  0  0  0  0  0  0  0  # atno 17342 bound_to 10162
  139.8898  144.6972  150.8783 LP  0  0  0  0  0  0  0  0  0  0  0  0  # atno 17343 bound_to 10162
  157.2659  131.0577  151.2291 LP  0  0  0  0  0  0  0  0  0  0  0  0  # atno 17370 bound_to 10713
  157.3389  130.7023  149.6369 LP  0  0  0  0  0  0  0  0  0  0  0  0  # atno 17371 bound_to 10713
  140.8559  133.8097  155.9215 LP  0  0  0  0  0  0  0  0  0  0  0  0  # atno 17394 bound_to 11000
  140.9098  134.2275  157.4992 LP  0  0  0  0  0  0  0  0  0  0  0  0  # atno 17395 bound_to 11000

$$$$
