AV-unprocessed.smi:2057|AV-procd|sdf|8340|dock8
  -GOLD-   2272011 03D 1   1.00000     0.00000
 Structure written by MMmdl.
 44 46  0  0  0  0  0  0  0  0  1 V2000
  156.2110  140.6599  161.0502 C   0  0  0  0  0  0  0  0  0  0  0  0
  155.1619  140.0511  160.3115 O   0  0  0  0  0  0  0  0  0  0  0  0
  154.0548  140.8141  160.0089 C   0  0  0  0  0  0  0  0  0  0  0  0
  153.9374  142.1951  160.2918 C   0  0  0  0  0  0  0  0  0  0  0  0
  152.7725  142.8997  159.9364 C   0  0  0  0  0  0  0  0  0  0  0  0
  151.6936  142.2425  159.2945 C   0  0  0  0  0  0  0  0  0  0  0  0
  150.5351  142.8858  158.9068 O   0  0  0  0  0  0  0  0  0  0  0  0
  150.4520  144.2928  159.0769 C   0  0  0  0  0  0  0  0  0  0  0  0
  151.8014  140.8566  159.0247 C   0  0  0  0  0  0  0  0  0  0  0  0
  150.6586  140.1241  158.3273 C   0  0  2  0  0  0  0  0  0  0  0  0
  150.3390  138.8874  158.9375 O   0  0  0  0  0  0  0  0  0  0  0  0
  150.9746  139.9066  156.8339 C   0  0  0  0  0  0  0  0  0  0  0  0
  149.9444  139.1437  156.1428 N   0  0  0  0  0  0  0  0  0  0  0  0
  150.0793  137.9610  155.4920 C   0  0  0  0  0  0  0  0  0  0  0  0
  151.4062  137.2590  155.4147 C   0  0  0  0  0  0  0  0  0  0  0  0
  151.8986  137.1023  154.0992 O   0  0  0  0  0  0  0  0  0  0  0  0
  148.9625  137.4739  154.9458 N   0  0  0  0  0  0  0  0  0  0  0  0
  148.0198  138.4290  155.2713 C   0  0  0  0  0  0  0  0  0  0  0  0
  146.6384  138.4933  154.9794 C   0  0  0  0  0  0  0  0  0  0  0  0
  145.8647  139.5855  155.4240 C   0  0  0  0  0  0  0  0  0  0  0  0
  146.4598  140.6267  156.1655 C   0  0  0  0  0  0  0  0  0  0  0  0
  147.8341  140.5812  156.4686 C   0  0  0  0  0  0  0  0  0  0  0  0
  148.6019  139.4890  156.0220 C   0  0  0  0  0  0  0  0  0  0  0  0
  152.9809  140.1613  159.3749 C   0  0  0  0  0  0  0  0  0  0  0  0
  157.0107  139.9355  161.2037 H   0  0  0  0  0  0  0  0  0  0  0  0
  155.8686  140.9860  162.0333 H   0  0  0  0  0  0  0  0  0  0  0  0
  156.6352  141.5100  160.5143 H   0  0  0  0  0  0  0  0  0  0  0  0
  154.7316  142.7415  160.7776 H   0  0  0  0  0  0  0  0  0  0  0  0
  152.7346  143.9534  160.1669 H   0  0  0  0  0  0  0  0  0  0  0  0
  149.4873  144.6412  158.7087 H   0  0  0  0  0  0  0  0  0  0  0  0
  151.2270  144.8099  158.5094 H   0  0  0  0  0  0  0  0  0  0  0  0
  150.5243  144.5734  160.1284 H   0  0  0  0  0  0  0  0  0  0  0  0
  149.7575  140.7303  158.4192 H   0  0  0  0  0  0  0  0  0  0  0  0
  149.4043  138.8529  159.0720 H   0  0  0  0  0  0  0  0  0  0  0  0
  151.0930  140.8655  156.3287 H   0  0  0  0  0  0  0  0  0  0  0  0
  151.9283  139.3896  156.7205 H   0  0  0  0  0  0  0  0  0  0  0  0
  152.1456  137.8161  155.9891 H   0  0  0  0  0  0  0  0  0  0  0  0
  151.3131  136.2729  155.8701 H   0  0  0  0  0  0  0  0  0  0  0  0
  151.2094  136.7452  153.5606 H   0  0  0  0  0  0  0  0  0  0  0  0
  146.1736  137.7005  154.4124 H   0  0  0  0  0  0  0  0  0  0  0  0
  144.8101  139.6250  155.1945 H   0  0  0  0  0  0  0  0  0  0  0  0
  145.8612  141.4608  156.5006 H   0  0  0  0  0  0  0  0  0  0  0  0
  148.2941  141.3778  157.0343 H   0  0  0  0  0  0  0  0  0  0  0  0
  153.0752  139.1086  159.1518 H   0  0  0  0  0  0  0  0  0  0  0  0
  1  2  1  0  0  0  0
  1 25  1  0  0  0  0
  1 26  1  0  0  0  0
  1 27  1  0  0  0  0
  2  3  1  0  0  0  0
  3 24  1  0  0  0  0
  3  4  2  0  0  0  0
  4  5  1  0  0  0  0
  4 28  1  0  0  0  0
  5  6  2  0  0  0  0
  5 29  1  0  0  0  0
  6  7  1  0  0  0  0
  6  9  1  0  0  0  0
  7  8  1  0  0  0  0
  8 30  1  0  0  0  0
  8 31  1  0  0  0  0
  8 32  1  0  0  0  0
  9 10  1  0  0  0  0
  9 24  2  0  0  0  0
 10 11  1  0  0  0  0
 10 12  1  0  0  0  0
 10 33  1  0  0  0  0
 11 34  1  0  0  0  0
 12 13  1  0  0  0  0
 12 35  1  0  0  0  0
 12 36  1  0  0  0  0
 13 23  1  0  0  0  0
 13 14  1  0  0  0  0
 14 15  1  0  0  0  0
 14 17  2  0  0  0  0
 15 16  1  0  0  0  0
 15 37  1  0  0  0  0
 15 38  1  0  0  0  0
 16 39  1  0  0  0  0
 17 18  1  0  0  0  0
 18 23  2  0  0  0  0
 18 19  1  0  0  0  0
 19 20  2  0  0  0  0
 19 40  1  0  0  0  0
 20 21  1  0  0  0  0
 20 41  1  0  0  0  0
 21 22  2  0  0  0  0
 21 42  1  0  0  0  0
 22 23  1  0  0  0  0
 22 43  1  0  0  0  0
 24 44  1  0  0  0  0
M  END
> <s_m_source_file>
AV-unprocessed.smi

> <i_m_source_file_index>
2057

> <i_lp_mmshare_version>
43012

> <i_f3d_flags>
0

> <s_epik_input>
W0NIM11PYzFbY0hdW2NIXWMoT1tDSDNdKWMoW2NIXTEpW0NASF0oW09IXSlbQ0gyXW4oYyhuMilbQ0gyXVtPSF0pYyhjMjMpW2NIXVtjSF1bY0hdW2NIXTM=

> <s_epik_cmdline>
J2VwaWtfcHl0aG9uJywgJy1waCcsICc3LjAnLCAnLXRuJywgJzgnLCAnLW1hJywgJzIwMCcsICctbWV0YWxfYmluZGluZycsICctaW1hZScsICc8aW5maWxlLm1hZT4nLCAnLW9tYWUnLCAnPG91dGZpbGUubWFlPic=

> <r_lp_tautomer_probability>
1

> <r_epik_Ionization_Penalty>
0.0634722

> <r_epik_Ionization_Penalty_Charging>
0

> <r_epik_Ionization_Penalty_Neutral>
0.0634722

> <r_epik_State_Penalty>
0.0551572

> <r_epik_Charging_Adjusted_Penalty>
0.0551572

> <i_epik_Tot_Q>
0

> <i_epik_Tot_abs_Q>
0

> <r_epik_Metal_State_Penalty>
5.78034e-05

> <b_epik_Metal_Only>
0

> <s_lp_Force_Field>
OPLS_2005

> <r_lp_Energy>
18.6198

> <b_lp_Chiralities_Consistent>
1

> <s_lp_Variant>
AV-unprocessed.smi:2057-1

> <Gold.Version>
5.8.1

> <Gold.Id.Protein>
6NUR|6NUR_protein|mol2

> <Gold.PLP.Fitness>
53.2892

> <Gold.PLP.PLP>
-48.2885

> <Gold.PLP.part.hbond>
-2.0000

> <Gold.PLP.part.metal>
0.0000

> <Gold.PLP.part.buried>
-2.7319

> <Gold.PLP.part.nonpolar>
-45.8069

> <Gold.PLP.part.repulsive>
1.7194

> <Gold.PLP.ligand.clash>
0.0000

> <Gold.PLP.ligand.torsion>
0.4832

> <Gold.PLP.Chemscore.Hbond>
1.9760

> <Gold.PLP.Chemscore.CHOScore>
0.0000

> <Gold.PLP.Chemscore.Metal>
0.0000

> <Gold.Chemscore.Hbonds>
donor molecule, donor type, donor heavy atom, donor atom, acceptor molecule, acceptor atom, score
      L1  H    16    39       P1  7949  0.37
      P1  H 10752 10764       L1    16  0.90

> <Gold.PLP.Chemscore.Internal.Correction>
0.0390

> <Gold.Rescore>
     Score         DG    S(hbond)    S(metal)    S(lipo)     H(rot)  DE(clash)    DE(int)     intcor
     16.04     -17.31       1.45        0.00     128.93       3.17       1.20       0.07       ----

> <Gold.Chemscore.Fitness>
16.0410

> <Gold.Chemscore.DG>
-17.3093

> <Gold.Chemscore.ZeroCoef>
-5.4800

> <Gold.Chemscore.Hbond>
1.4524

> <Gold.Chemscore.Metal>
0.0000

> <Gold.Chemscore.Lipo>
128.9282

> <Gold.Chemscore.Internal_Hbond>
0.0000

> <Gold.Chemscore.DEClash>
1.1991

> <Gold.Chemscore.DEInternal>
0.0692

> <Gold.Chemscore.Rot>
3.1665

> <Gold.Chemscore.Internal.Correction>
   9.000000E+99

> <Gold.Chemscore.Hbonds>
donor molecule, donor type, donor heavy atom, donor atom, acceptor molecule, acceptor atom, score
      L1  H    16    39       P1  7949  0.20
      P1  H 10752 10764       L1    16  0.13

> <Gold.Chemscore.Hbond.Weighted>
-4.8510

> <Gold.Chemscore.Metal.Weighted>
-0.0000

> <Gold.Chemscore.Lipo.Weighted>
-15.0846

> <Gold.Chemscore.Internal_Hbond.Weighted>
0.0000

> <Gold.Chemscore.DEClash.Weighted>
1.1991

> <Gold.Chemscore.DEInternal.Weighted>
0.0692

> <Gold.Chemscore.Rot.Weighted>
8.1062

> <Gold.Chemscore.Internal.Correction.Weighted>
   9.000000E+99

> <Gold.Protein.RotatedTorsions>
[ 6907 6896 6895 6894 ] final   20.50 input  -60.11 | X-H torsion
[ 7974 7965 7964 7962 ] final  -13.25 input  175.53 | X-H torsion
[ 8008 7997 7996 7995 ] final   75.52 input   59.86 | X-H torsion
[ 10167 10162 10161 10158 ] final  151.38 input  -65.29 | X-H torsion
[ 10718 10713 10712 10709 ] final   -0.94 input   66.30 | X-H torsion
[ 10763 10752 10751 10750 ] final  -96.50 input  -60.55 | X-H torsion
[ 11005 11000 10999 10996 ] final  -43.90 input  -57.11 | X-H torsion

> <Gold.Protein.ActiveResidues>
 VAL166  LYS551  ARG553  GLY616  TRP617  ASP618  TYR619  PRO620  LYS621  CYS622 
 ASP623  PHE694  ASN695  SER759  ASP760  ASP761  ALA762  ILE779  LEU786  VAL792 
 PHE793  MET794  SER795  GLU796  ALA797  LYS798  CYS799  TRP800  GLU811  SER814 

> <Gold.Protein.RotatedAtoms>
  151.8973  135.0392  160.0502 H   0  0  0  0  0  0  0  0  0  0  0  0  # atno 6907 bound_to 6896
  152.2387  133.5113  159.5266 H   0  0  0  0  0  0  0  0  0  0  0  0  # atno 6908 bound_to 6896
  150.7047  134.1035  159.4017 H   0  0  0  0  0  0  0  0  0  0  0  0  # atno 6909 bound_to 6896
  146.2121  140.3175  142.8387 H   0  0  0  0  0  0  0  0  0  0  0  0  # atno 7974 bound_to 7965
  155.8140  140.3472  155.5474 H   0  0  0  0  0  0  0  0  0  0  0  0  # atno 8008 bound_to 7997
  155.8411  140.0941  157.1754 H   0  0  0  0  0  0  0  0  0  0  0  0  # atno 8009 bound_to 7997
  154.4005  140.1394  156.3717 H   0  0  0  0  0  0  0  0  0  0  0  0  # atno 8010 bound_to 7997
  139.4841  144.5446  151.7506 H   0  0  0  0  0  0  0  0  0  0  0  0  # atno 10167 bound_to 10162
  156.8130  130.5431  149.5706 H   0  0  0  0  0  0  0  0  0  0  0  0  # atno 10718 bound_to 10713
  154.7245  135.5081  153.8864 H   0  0  0  0  0  0  0  0  0  0  0  0  # atno 10763 bound_to 10752
  153.0892  135.6654  153.9896 H   0  0  0  0  0  0  0  0  0  0  0  0  # atno 10764 bound_to 10752
  153.9712  135.3038  155.3406 H   0  0  0  0  0  0  0  0  0  0  0  0  # atno 10765 bound_to 10752
  141.0414  133.6778  156.2797 H   0  0  0  0  0  0  0  0  0  0  0  0  # atno 11005 bound_to 11000
  144.8943  140.7564  143.5906 LP  0  0  0  0  0  0  0  0  0  0  0  0  # atno 17320 bound_to 7965
  145.3099  139.1822  143.4644 LP  0  0  0  0  0  0  0  0  0  0  0  0  # atno 17321 bound_to 7965
  140.4990  144.1197  150.5967 LP  0  0  0  0  0  0  0  0  0  0  0  0  # atno 17342 bound_to 10162
  140.4084  143.2669  151.9863 LP  0  0  0  0  0  0  0  0  0  0  0  0  # atno 17343 bound_to 10162
  156.1033  130.5985  150.9930 LP  0  0  0  0  0  0  0  0  0  0  0  0  # atno 17370 bound_to 10713
  157.6496  131.0899  150.8080 LP  0  0  0  0  0  0  0  0  0  0  0  0  # atno 17371 bound_to 10713
  140.6226  134.5345  157.5549 LP  0  0  0  0  0  0  0  0  0  0  0  0  # atno 17394 bound_to 11000
  139.9279  134.8020  156.1015 LP  0  0  0  0  0  0  0  0  0  0  0  0  # atno 17395 bound_to 11000

$$$$
