AV-unprocessed.smi:3149|AV-procd|sdf|12003|dock3
  -GOLD-   2272017403D 1   1.00000     0.00000
 Structure written by MMmdl.
 37 38  0  0  0  0  0  0  0  0  1 V2000
  148.2098  139.9504  157.9584 C   0  0  0  0  0  0  0  0  0  0  0  0
  149.5350  140.6181  157.5417 C   0  0  2  0  0  0  0  0  0  0  0  0
  149.5959  141.9402  158.1615 N   0  0  0  0  0  0  0  0  0  0  0  0
  150.9548  142.4986  158.1550 C   0  0  0  0  0  0  0  0  0  0  0  0
  151.2415  143.3555  159.3945 C   0  0  0  0  0  0  0  0  0  0  0  0
  150.5386  144.3289  159.6707 O   0  0  0  0  0  0  0  0  0  0  0  0
  152.3842  143.0424  160.1342 N   0  0  0  0  0  0  0  0  0  0  0  0
  152.4053  143.1539  161.5850 C   0  0  0  0  0  0  0  0  0  0  0  0
  153.4279  142.0133  161.5479 C   0  0  0  0  0  0  0  0  0  0  0  0
  152.9393  141.6975  160.1302 C   0  0  0  0  0  0  0  0  0  0  0  0
  149.6723  140.7857  156.0043 C   0  0  2  0  0  0  0  0  0  0  0  0
  148.3182  140.8121  155.2726 C   0  0  0  0  0  0  0  0  0  0  0  0
  150.5075  139.7352  155.4301 N   0  0  0  0  0  0  0  0  0  0  0  0
  150.2129  138.8617  154.4018 C   0  0  0  0  0  0  0  0  0  0  0  0
  151.3036  138.0609  154.2202 C   0  0  0  0  0  0  0  0  0  0  0  0
  152.2305  138.5277  155.1933 C   0  0  0  0  0  0  0  0  0  0  0  0
  151.7526  139.5295  155.9131 N   0  0  0  0  0  0  0  0  0  0  0  0
  148.1424  138.9290  157.5852 H   0  0  0  0  0  0  0  0  0  0  0  0
  147.3509  140.5022  157.5749 H   0  0  0  0  0  0  0  0  0  0  0  0
  148.1064  139.8916  159.0418 H   0  0  0  0  0  0  0  0  0  0  0  0
  150.3673  140.0053  157.8923 H   0  0  0  0  0  0  0  0  0  0  0  0
  148.9579  142.5547  157.6747 H   0  0  0  0  0  0  0  0  0  0  0  0
  151.6872  141.6924  158.1039 H   0  0  0  0  0  0  0  0  0  0  0  0
  151.0869  143.1206  157.2688 H   0  0  0  0  0  0  0  0  0  0  0  0
  152.7952  144.1030  161.9538 H   0  0  0  0  0  0  0  0  0  0  0  0
  151.4643  142.8690  162.0601 H   0  0  0  0  0  0  0  0  0  0  0  0
  154.4627  142.3591  161.5818 H   0  0  0  0  0  0  0  0  0  0  0  0
  153.2416  141.2204  162.2729 H   0  0  0  0  0  0  0  0  0  0  0  0
  152.1832  140.9103  160.1004 H   0  0  0  0  0  0  0  0  0  0  0  0
  153.7332  141.5478  159.3979 H   0  0  0  0  0  0  0  0  0  0  0  0
  150.1625  141.7422  155.8100 H   0  0  0  0  0  0  0  0  0  0  0  0
  147.7240  141.6802  155.5556 H   0  0  0  0  0  0  0  0  0  0  0  0
  147.7309  139.9188  155.4873 H   0  0  0  0  0  0  0  0  0  0  0  0
  148.4602  140.8635  154.1926 H   0  0  0  0  0  0  0  0  0  0  0  0
  149.2609  138.8811  153.8922 H   0  0  0  0  0  0  0  0  0  0  0  0
  151.4217  137.2636  153.5015 H   0  0  0  0  0  0  0  0  0  0  0  0
  153.2298  138.1716  155.3961 H   0  0  0  0  0  0  0  0  0  0  0  0
  1  2  1  0  0  0  0
  1 18  1  0  0  0  0
  1 19  1  0  0  0  0
  1 20  1  0  0  0  0
  2  3  1  0  0  0  0
  2 11  1  0  0  0  0
  2 21  1  0  0  0  0
  3  4  1  0  0  0  0
  3 22  1  0  0  0  0
  4  5  1  0  0  0  0
  4 23  1  0  0  0  0
  4 24  1  0  0  0  0
  5  6  2  0  0  0  0
  5  7  1  0  0  0  0
  7 10  1  0  0  0  0
  7  8  1  0  0  0  0
  8  9  1  0  0  0  0
  8 25  1  0  0  0  0
  8 26  1  0  0  0  0
  9 10  1  0  0  0  0
  9 27  1  0  0  0  0
  9 28  1  0  0  0  0
 10 29  1  0  0  0  0
 10 30  1  0  0  0  0
 11 12  1  0  0  0  0
 11 13  1  0  0  0  0
 11 31  1  0  0  0  0
 12 32  1  0  0  0  0
 12 33  1  0  0  0  0
 12 34  1  0  0  0  0
 13 17  1  0  0  0  0
 13 14  1  0  0  0  0
 14 15  2  0  0  0  0
 14 35  1  0  0  0  0
 15 16  1  0  0  0  0
 15 36  1  0  0  0  0
 16 17  2  0  0  0  0
 16 37  1  0  0  0  0
M  END
> <s_m_source_file>
AV-unprocessed.smi

> <i_m_source_file_index>
3149

> <i_lp_mmshare_version>
43012

> <i_f3d_flags>
0

> <s_epik_input>
bjFbY0hdW2NIXVtjSF1uMVtDQEBIXShbQ0gzXSlbQ0BIXShbQ0gzXSlbTkhdW0NIMl1DKD1PKU4yW0NIMl1bQ0gyXVtDSDJdMg==

> <s_epik_cmdline>
J2VwaWtfcHl0aG9uJywgJy1waCcsICc3LjAnLCAnLXRuJywgJzgnLCAnLW1hJywgJzIwMCcsICctbWV0YWxfYmluZGluZycsICctaW1hZScsICc8aW5maWxlLm1hZT4nLCAnLW9tYWUnLCAnPG91dGZpbGUubWFlPic=

> <r_lp_tautomer_probability>
1

> <r_epik_Ionization_Penalty>
0.918674

> <r_epik_Ionization_Penalty_Charging>
0

> <r_epik_Ionization_Penalty_Neutral>
0.918674

> <r_epik_State_Penalty>
0.958258

> <r_epik_Charging_Adjusted_Penalty>
0.958258

> <i_epik_Tot_Q>
0

> <i_epik_Tot_abs_Q>
0

> <r_epik_Metal_State_Penalty>
0.956881

> <b_epik_Metal_Only>
0

> <s_lp_Force_Field>
OPLS_2005

> <r_lp_Energy>
24.7968

> <b_lp_Chiralities_Consistent>
1

> <s_lp_Variant>
AV-unprocessed.smi:3149-5

> <Gold.Version>
5.8.1

> <Gold.Id.Protein>
6NUR|6NUR_protein|mol2

> <Gold.PLP.Fitness>
47.2594

> <Gold.PLP.PLP>
-44.0588

> <Gold.PLP.part.hbond>
-1.3261

> <Gold.PLP.part.metal>
0.0000

> <Gold.PLP.part.buried>
-2.9850

> <Gold.PLP.part.nonpolar>
-39.2675

> <Gold.PLP.part.repulsive>
0.1508

> <Gold.PLP.ligand.clash>
0.0000

> <Gold.PLP.ligand.torsion>
1.8631

> <Gold.PLP.Chemscore.Hbond>
1.0000

> <Gold.PLP.Chemscore.CHOScore>
0.9996

> <Gold.PLP.Chemscore.Metal>
0.0000

> <Gold.PLP.Chemscore.Internal.Correction>
0.9280

> <Gold.Rescore>
     Score         DG    S(hbond)    S(metal)    S(lipo)     H(rot)  DE(clash)    DE(int)     intcor
     12.75     -14.77       1.00        0.00      90.06       1.79       0.00       2.02       ----

> <Gold.Chemscore.Fitness>
12.7451

> <Gold.Chemscore.DG>
-14.7682

> <Gold.Chemscore.ZeroCoef>
-5.4800

> <Gold.Chemscore.Hbond>
0.9961

> <Gold.Chemscore.Metal>
0.0000

> <Gold.Chemscore.Lipo>
90.0614

> <Gold.Chemscore.Internal_Hbond>
0.0000

> <Gold.Chemscore.DEClash>
0.0004

> <Gold.Chemscore.DEInternal>
2.0227

> <Gold.Chemscore.Rot>
1.7874

> <Gold.Chemscore.Internal.Correction>
   9.000000E+99

> <Gold.Chemscore.Hbond.Weighted>
-3.3268

> <Gold.Chemscore.Metal.Weighted>
-0.0000

> <Gold.Chemscore.Lipo.Weighted>
-10.5372

> <Gold.Chemscore.Internal_Hbond.Weighted>
0.0000

> <Gold.Chemscore.DEClash.Weighted>
0.0004

> <Gold.Chemscore.DEInternal.Weighted>
2.0227

> <Gold.Chemscore.Rot.Weighted>
4.5758

> <Gold.Chemscore.Internal.Correction.Weighted>
   9.000000E+99

> <Gold.Protein.RotatedTorsions>
[ 6907 6896 6895 6894 ] final  -77.90 input  -60.11 | X-H torsion
[ 7974 7965 7964 7962 ] final  163.02 input  175.53 | X-H torsion
[ 8008 7997 7996 7995 ] final  -74.21 input   59.86 | X-H torsion
[ 10167 10162 10161 10158 ] final  -74.17 input  -65.29 | X-H torsion
[ 10718 10713 10712 10709 ] final  104.97 input   66.30 | X-H torsion
[ 10763 10752 10751 10750 ] final  113.75 input  -60.55 | X-H torsion
[ 11005 11000 10999 10996 ] final  -62.12 input  -57.11 | X-H torsion

> <Gold.Protein.ActiveResidues>
 VAL166  LYS551  ARG553  GLY616  TRP617  ASP618  TYR619  PRO620  LYS621  CYS622 
 ASP623  PHE694  ASN695  SER759  ASP760  ASP761  ALA762  ILE779  LEU786  VAL792 
 PHE793  MET794  SER795  GLU796  ALA797  LYS798  CYS799  TRP800  GLU811  SER814 

> <Gold.Protein.RotatedAtoms>
  150.6986  134.4353  159.5267 H   0  0  0  0  0  0  0  0  0  0  0  0  # atno 6907 bound_to 6896
  152.2073  134.8531  160.0510 H   0  0  0  0  0  0  0  0  0  0  0  0  # atno 6908 bound_to 6896
  151.9429  133.3608  159.4008 H   0  0  0  0  0  0  0  0  0  0  0  0  # atno 6909 bound_to 6896
  144.7609  139.8123  143.6333 H   0  0  0  0  0  0  0  0  0  0  0  0  # atno 7974 bound_to 7965
  154.5312  140.0765  156.8347 H   0  0  0  0  0  0  0  0  0  0  0  0  # atno 8008 bound_to 7997
  155.3372  140.3405  155.4221 H   0  0  0  0  0  0  0  0  0  0  0  0  # atno 8009 bound_to 7997
  156.1783  140.1643  156.8309 H   0  0  0  0  0  0  0  0  0  0  0  0  # atno 8010 bound_to 7997
  140.5049  143.2354  151.7690 H   0  0  0  0  0  0  0  0  0  0  0  0  # atno 10167 bound_to 10162
  157.6722  131.0816  150.5786 H   0  0  0  0  0  0  0  0  0  0  0  0  # atno 10718 bound_to 10713
  153.4971  135.3646  155.2521 H   0  0  0  0  0  0  0  0  0  0  0  0  # atno 10763 bound_to 10752
  154.8749  135.3991  154.3522 H   0  0  0  0  0  0  0  0  0  0  0  0  # atno 10764 bound_to 10752
  153.4151  135.7079  153.6398 H   0  0  0  0  0  0  0  0  0  0  0  0  # atno 10765 bound_to 10752
  141.1349  133.6637  156.5480 H   0  0  0  0  0  0  0  0  0  0  0  0  # atno 11005 bound_to 11000
  146.1670  139.4806  142.9952 LP  0  0  0  0  0  0  0  0  0  0  0  0  # atno 17320 bound_to 7965
  145.6623  141.0237  143.1702 LP  0  0  0  0  0  0  0  0  0  0  0  0  # atno 17321 bound_to 7965
  139.4881  144.4471  151.9698 LP  0  0  0  0  0  0  0  0  0  0  0  0  # atno 17342 bound_to 10162
  140.3561  144.3030  150.5941 LP  0  0  0  0  0  0  0  0  0  0  0  0  # atno 17343 bound_to 10162
  156.6087  130.4374  149.5867 LP  0  0  0  0  0  0  0  0  0  0  0  0  # atno 17370 bound_to 10713
  156.2447  130.6872  151.1589 LP  0  0  0  0  0  0  0  0  0  0  0  0  # atno 17371 bound_to 10713
  140.4087  134.7292  157.4823 LP  0  0  0  0  0  0  0  0  0  0  0  0  # atno 17394 bound_to 11000
  140.0443  134.6222  155.8940 LP  0  0  0  0  0  0  0  0  0  0  0  0  # atno 17395 bound_to 11000

$$$$
