AV-unprocessed.smi:2488|AV-procd|sdf|9794|dock10
  -GOLD-   2272013433D 1   1.00000     0.00000
 Structure written by MMmdl.
 33 34  0  0  0  0  0  0  0  0  1 V2000
  152.1605  144.4152  157.8783 C   0  0  0  0  0  0  0  0  0  0  0  0
  152.1210  143.0672  158.6071 C   0  0  0  0  0  0  0  0  0  0  0  0
  150.9868  142.1834  158.1219 C   0  0  0  0  0  0  0  0  0  0  0  0
  149.7773  142.7699  157.9804 N   0  0  0  0  0  0  0  0  0  0  0  0
  148.7765  141.9914  157.5629 C   0  0  0  0  0  0  0  0  0  0  0  0
  148.8452  140.6903  157.2718 N   0  0  0  0  0  0  0  0  0  0  0  0
  150.0508  140.0847  157.4047 C   0  0  0  0  0  0  0  0  0  0  0  0
  150.1663  138.7077  157.1224 N   0  0  0  0  0  0  0  0  0  0  0  0
  149.6946  137.9195  158.2591 C   0  0  0  0  0  0  0  0  0  0  0  0
  149.9582  136.4247  158.0342 C   0  0  0  0  0  0  0  0  0  0  0  0
  149.3391  136.0245  156.8201 O   0  0  0  0  0  0  0  0  0  0  0  0
  149.8965  136.7043  155.7022 C   0  0  0  0  0  0  0  0  0  0  0  0
  149.6719  138.2313  155.8177 C   0  0  2  0  0  0  0  0  0  0  0  0
  150.2936  138.8918  154.5687 C   0  0  0  0  0  0  0  0  0  0  0  0
  149.8898  138.4839  153.3608 N   0  0  0  0  0  0  0  0  0  0  0  0
  151.1478  139.7656  154.7002 O   0  0  0  0  0  0  0  0  0  0  0  0
  151.1803  140.8126  157.8448 C   0  0  0  0  0  0  0  0  0  0  0  0
  152.3925  140.2235  157.9892 F   0  0  0  0  0  0  0  0  0  0  0  0
  152.9802  145.0322  158.2468 H   0  0  0  0  0  0  0  0  0  0  0  0
  151.2331  144.9690  158.0275 H   0  0  0  0  0  0  0  0  0  0  0  0
  152.3019  144.2796  156.8057 H   0  0  0  0  0  0  0  0  0  0  0  0
  153.0667  142.5430  158.4641 H   0  0  0  0  0  0  0  0  0  0  0  0
  152.0238  143.2306  159.6808 H   0  0  0  0  0  0  0  0  0  0  0  0
  147.8110  142.4619  157.4512 H   0  0  0  0  0  0  0  0  0  0  0  0
  150.1879  138.2350  159.1796 H   0  0  0  0  0  0  0  0  0  0  0  0
  148.6251  138.0885  158.3979 H   0  0  0  0  0  0  0  0  0  0  0  0
  151.0286  136.2138  158.0045 H   0  0  0  0  0  0  0  0  0  0  0  0
  149.5403  135.8415  158.8547 H   0  0  0  0  0  0  0  0  0  0  0  0
  150.9596  136.4668  155.6255 H   0  0  0  0  0  0  0  0  0  0  0  0
  149.4231  136.3151  154.7997 H   0  0  0  0  0  0  0  0  0  0  0  0
  148.5951  138.4080  155.7804 H   0  0  0  0  0  0  0  0  0  0  0  0
  150.2868  138.9002  152.5309 H   0  0  0  0  0  0  0  0  0  0  0  0
  149.1922  137.7582  153.2843 H   0  0  0  0  0  0  0  0  0  0  0  0
  1  2  1  0  0  0  0
  1 19  1  0  0  0  0
  1 20  1  0  0  0  0
  1 21  1  0  0  0  0
  2  3  1  0  0  0  0
  2 22  1  0  0  0  0
  2 23  1  0  0  0  0
  3 17  1  0  0  0  0
  3  4  2  0  0  0  0
  4  5  1  0  0  0  0
  5  6  2  0  0  0  0
  5 24  1  0  0  0  0
  6  7  1  0  0  0  0
  7  8  1  0  0  0  0
  7 17  2  0  0  0  0
  8 13  1  0  0  0  0
  8  9  1  0  0  0  0
  9 10  1  0  0  0  0
  9 25  1  0  0  0  0
  9 26  1  0  0  0  0
 10 11  1  0  0  0  0
 10 27  1  0  0  0  0
 10 28  1  0  0  0  0
 11 12  1  0  0  0  0
 12 13  1  0  0  0  0
 12 29  1  0  0  0  0
 12 30  1  0  0  0  0
 13 14  1  0  0  0  0
 13 31  1  0  0  0  0
 14 15  1  0  0  0  0
 14 16  2  0  0  0  0
 15 32  1  0  0  0  0
 15 33  1  0  0  0  0
 17 18  1  0  0  0  0
M  END
> <s_m_source_file>
AV-unprocessed.smi

> <i_m_source_file_index>
2488

> <i_lp_mmshare_version>
43012

> <i_f3d_flags>
0

> <s_epik_input>
W0NIM11bQ0gyXWMxbltjSF1uYyhjMUYpTjJbQ0gyXVtDSDJdT1tDSDJdW0NASF0yQyg9TylbTkgyXQ==

> <s_epik_cmdline>
J2VwaWtfcHl0aG9uJywgJy1waCcsICc3LjAnLCAnLXRuJywgJzgnLCAnLW1hJywgJzIwMCcsICctbWV0YWxfYmluZGluZycsICctaW1hZScsICc8aW5maWxlLm1hZT4nLCAnLW9tYWUnLCAnPG91dGZpbGUubWFlPic=

> <r_lp_tautomer_probability>
1

> <r_epik_Ionization_Penalty>
2.73136e-05

> <r_epik_Ionization_Penalty_Charging>
0

> <r_epik_Ionization_Penalty_Neutral>
2.73136e-05

> <r_epik_State_Penalty>
-0

> <r_epik_Charging_Adjusted_Penalty>
0

> <i_epik_Tot_Q>
0

> <i_epik_Tot_abs_Q>
0

> <r_epik_Metal_State_Penalty>
-0

> <b_epik_Metal_Only>
0

> <s_lp_Force_Field>
OPLS_2005

> <r_lp_Energy>
13.0675

> <b_lp_Chiralities_Consistent>
1

> <s_lp_Variant>
AV-unprocessed.smi:2488-2

> <Gold.Version>
5.8.1

> <Gold.Id.Protein>
6NUR|6NUR_protein|mol2

> <Gold.PLP.Fitness>
31.3581

> <Gold.PLP.PLP>
-25.5929

> <Gold.PLP.part.hbond>
-3.0000

> <Gold.PLP.part.metal>
0.0000

> <Gold.PLP.part.buried>
-4.8235

> <Gold.PLP.part.nonpolar>
-18.5674

> <Gold.PLP.part.repulsive>
0.3652

> <Gold.PLP.ligand.clash>
0.0000

> <Gold.PLP.ligand.torsion>
0.5548

> <Gold.PLP.Chemscore.Hbond>
2.2314

> <Gold.PLP.Chemscore.CHOScore>
0.0000

> <Gold.PLP.Chemscore.Metal>
0.0000

> <Gold.Chemscore.Hbonds>
donor molecule, donor type, donor heavy atom, donor atom, acceptor molecule, acceptor atom, score
      L1  H    15    32       P1  7957  0.70
      L1  H    15    33       P1  7948  0.53
      P1  H  7989  7998       L1    16  1.00

> <Gold.PLP.Chemscore.Internal.Correction>
0.1805

> <Gold.Rescore>
     Score         DG    S(hbond)    S(metal)    S(lipo)     H(rot)  DE(clash)    DE(int)     intcor
     13.22     -15.06       2.59        0.00      48.65       1.86       0.27       1.58       ----

> <Gold.Chemscore.Fitness>
13.2169

> <Gold.Chemscore.DG>
-15.0578

> <Gold.Chemscore.ZeroCoef>
-5.4800

> <Gold.Chemscore.Hbond>
2.5877

> <Gold.Chemscore.Metal>
0.0000

> <Gold.Chemscore.Lipo>
48.6482

> <Gold.Chemscore.Internal_Hbond>
0.0000

> <Gold.Chemscore.DEClash>
0.2657

> <Gold.Chemscore.DEInternal>
1.5753

> <Gold.Chemscore.Rot>
1.8582

> <Gold.Chemscore.Internal.Correction>
   9.000000E+99

> <Gold.Chemscore.Hbonds>
donor molecule, donor type, donor heavy atom, donor atom, acceptor molecule, acceptor atom, score
      L1  H    15    32       P1  7957  0.18
      L1  H    15    33       P1  7948  0.50
      P1  H  7989  7998       L1    16  1.00

> <Gold.Chemscore.Hbond.Weighted>
-8.6430

> <Gold.Chemscore.Metal.Weighted>
-0.0000

> <Gold.Chemscore.Lipo.Weighted>
-5.6918

> <Gold.Chemscore.Internal_Hbond.Weighted>
0.0000

> <Gold.Chemscore.DEClash.Weighted>
0.2657

> <Gold.Chemscore.DEInternal.Weighted>
1.5753

> <Gold.Chemscore.Rot.Weighted>
4.7570

> <Gold.Chemscore.Internal.Correction.Weighted>
   9.000000E+99

> <Gold.Protein.RotatedTorsions>
[ 6907 6896 6895 6894 ] final -124.50 input  -60.11 | X-H torsion
[ 7974 7965 7964 7962 ] final  171.47 input  175.53 | X-H torsion
[ 8008 7997 7996 7995 ] final -109.64 input   59.86 | X-H torsion
[ 10167 10162 10161 10158 ] final  167.02 input  -65.29 | X-H torsion
[ 10718 10713 10712 10709 ] final -134.50 input   66.30 | X-H torsion
[ 10763 10752 10751 10750 ] final   24.24 input  -60.55 | X-H torsion
[ 11005 11000 10999 10996 ] final  165.48 input  -57.11 | X-H torsion

> <Gold.Protein.ActiveResidues>
 VAL166  LYS551  ARG553  GLY616  TRP617  ASP618  TYR619  PRO620  LYS621  CYS622 
 ASP623  PHE694  ASN695  SER759  ASP760  ASP761  ALA762  ILE779  LEU786  VAL792 
 PHE793  MET794  SER795  GLU796  ALA797  LYS798  CYS799  TRP800  GLU811  SER814 

> <Gold.Protein.RotatedAtoms>
  150.8775  133.7419  159.2942 H   0  0  0  0  0  0  0  0  0  0  0  0  # atno 6907 bound_to 6896
  151.5011  135.1060  159.9838 H   0  0  0  0  0  0  0  0  0  0  0  0  # atno 6908 bound_to 6896
  152.4737  133.8043  159.7025 H   0  0  0  0  0  0  0  0  0  0  0  0  # atno 6909 bound_to 6896
  144.7294  139.9356  143.6426 H   0  0  0  0  0  0  0  0  0  0  0  0  # atno 7974 bound_to 7965
  154.9623  140.0399  157.2196 H   0  0  0  0  0  0  0  0  0  0  0  0  # atno 8008 bound_to 7997
  154.7877  140.2830  155.5993 H   0  0  0  0  0  0  0  0  0  0  0  0  # atno 8009 bound_to 7997
  156.2945  140.2579  156.2717 H   0  0  0  0  0  0  0  0  0  0  0  0  # atno 8010 bound_to 7997
  139.4936  144.3966  151.9457 H   0  0  0  0  0  0  0  0  0  0  0  0  # atno 10167 bound_to 10162
  156.2562  130.7182  151.1100 H   0  0  0  0  0  0  0  0  0  0  0  0  # atno 10718 bound_to 10713
  153.0778  135.6609  154.0108 H   0  0  0  0  0  0  0  0  0  0  0  0  # atno 10763 bound_to 10752
  153.9738  135.2962  155.3427 H   0  0  0  0  0  0  0  0  0  0  0  0  # atno 10764 bound_to 10752
  154.7171  135.5181  153.8825 H   0  0  0  0  0  0  0  0  0  0  0  0  # atno 10765 bound_to 10752
  140.2566  134.7935  157.3551 H   0  0  0  0  0  0  0  0  0  0  0  0  # atno 11005 bound_to 11000
  146.0824  139.3812  143.0456 LP  0  0  0  0  0  0  0  0  0  0  0  0  # atno 17320 bound_to 7965
  145.7822  140.9851  143.1093 LP  0  0  0  0  0  0  0  0  0  0  0  0  # atno 17321 bound_to 7965
  140.3404  144.3210  150.5968 LP  0  0  0  0  0  0  0  0  0  0  0  0  # atno 17342 bound_to 10162
  140.5570  143.2197  151.7830 LP  0  0  0  0  0  0  0  0  0  0  0  0  # atno 17343 bound_to 10162
  157.7233  131.0667  150.6041 LP  0  0  0  0  0  0  0  0  0  0  0  0  # atno 17370 bound_to 10713
  156.6125  130.4384  149.5853 LP  0  0  0  0  0  0  0  0  0  0  0  0  # atno 17371 bound_to 10713
  140.1506  134.4855  155.7964 LP  0  0  0  0  0  0  0  0  0  0  0  0  # atno 17394 bound_to 11000
  141.2195  133.6861  156.7371 LP  0  0  0  0  0  0  0  0  0  0  0  0  # atno 17395 bound_to 11000

$$$$
