AV-unprocessed.smi:142|AV-procd|sdf|1190|dock4
  -GOLD-   2262018343D 1   1.00000     0.00000
 Structure written by MMmdl.
 52 55  0  0  0  0  0  0  0  0  1 V2000
  151.7878  138.8155  154.8898 C   0  0  0  0  0  0  0  0  0  0  0  0
  151.5530  138.9060  156.4036 C   0  0  1  0  0  0  0  0  0  0  0  0
  152.5818  138.1352  157.0983 N   0  0  0  0  0  0  0  0  0  0  0  0
  152.3670  136.9980  157.7770 C   0  0  0  0  0  0  0  0  0  0  0  0
  151.2687  136.4436  157.8358 O   0  0  0  0  0  0  0  0  0  0  0  0
  153.5844  136.4027  158.4981 C   0  0  0  0  0  0  0  0  0  0  0  0
  153.8257  137.0304  159.8152 N   0  0  0  0  0  0  0  0  0  0  0  0
  154.0544  138.4275  159.8809 C   0  0  0  0  0  0  0  0  0  0  0  0
  154.0476  139.1256  158.8660 O   0  0  0  0  0  0  0  0  0  0  0  0
  154.2970  138.9634  161.2156 C   0  0  0  0  0  0  0  0  0  0  0  0
  154.5037  140.2815  161.3759 F   0  0  0  0  0  0  0  0  0  0  0  0
  154.3141  138.1563  162.2962 C   0  0  0  0  0  0  0  0  0  0  0  0
  154.1096  136.7909  162.2146 N   0  0  0  0  0  0  0  0  0  0  0  0
  154.1404  135.9121  163.4460 C   0  0  2  0  0  0  0  0  0  0  0  0
  153.0469  136.3414  164.4305 C   0  0  0  0  0  0  0  0  0  0  0  0
  153.7960  137.3074  165.3224 C   0  0  0  0  0  0  0  0  0  0  0  0
  155.1793  136.6682  165.3731 C   0  0  0  0  0  0  0  0  0  0  0  0
  155.3708  136.0703  164.0930 O   0  0  0  0  0  0  0  0  0  0  0  0
  153.8508  136.1979  160.9601 C   0  0  0  0  0  0  0  0  0  0  0  0
  153.6509  134.9843  160.8660 O   0  0  0  0  0  0  0  0  0  0  0  0
  151.4881  140.3607  156.8609 C   0  0  0  0  0  0  0  0  0  0  0  0
  151.0848  141.3892  155.9785 C   0  0  0  0  0  0  0  0  0  0  0  0
  151.0333  142.7258  156.4171 C   0  0  0  0  0  0  0  0  0  0  0  0
  151.3792  143.0482  157.7445 C   0  0  0  0  0  0  0  0  0  0  0  0
  151.3306  144.3855  158.1893 C   0  0  0  0  0  0  0  0  0  0  0  0
  151.6767  144.7001  159.5179 C   0  0  0  0  0  0  0  0  0  0  0  0
  152.0718  143.6802  160.4052 C   0  0  0  0  0  0  0  0  0  0  0  0
  152.1222  142.3427  159.9664 C   0  0  0  0  0  0  0  0  0  0  0  0
  151.7769  142.0218  158.6370 C   0  0  0  0  0  0  0  0  0  0  0  0
  151.8268  140.6849  158.1920 C   0  0  0  0  0  0  0  0  0  0  0  0
  150.9974  139.3275  154.3405 H   0  0  0  0  0  0  0  0  0  0  0  0
  151.8016  137.7779  154.5543 H   0  0  0  0  0  0  0  0  0  0  0  0
  152.7376  139.2708  154.6069 H   0  0  0  0  0  0  0  0  0  0  0  0
  150.5884  138.4407  156.6164 H   0  0  0  0  0  0  0  0  0  0  0  0
  153.5164  138.5172  157.0965 H   0  0  0  0  0  0  0  0  0  0  0  0
  153.4367  135.3250  158.5788 H   0  0  0  0  0  0  0  0  0  0  0  0
  154.4696  136.5029  157.8670 H   0  0  0  0  0  0  0  0  0  0  0  0
  154.4930  138.6110  163.2591 H   0  0  0  0  0  0  0  0  0  0  0  0
  154.0414  134.8855  163.0893 H   0  0  0  0  0  0  0  0  0  0  0  0
  152.1806  136.7756  163.9302 H   0  0  0  0  0  0  0  0  0  0  0  0
  152.7268  135.4668  164.9980 H   0  0  0  0  0  0  0  0  0  0  0  0
  153.8490  138.2911  164.8539 H   0  0  0  0  0  0  0  0  0  0  0  0
  153.3430  137.4218  166.3074 H   0  0  0  0  0  0  0  0  0  0  0  0
  155.9664  137.3873  165.6007 H   0  0  0  0  0  0  0  0  0  0  0  0
  155.2056  135.8843  166.1308 H   0  0  0  0  0  0  0  0  0  0  0  0
  150.8128  141.1610  154.9584 H   0  0  0  0  0  0  0  0  0  0  0  0
  150.7270  143.5006  155.7294 H   0  0  0  0  0  0  0  0  0  0  0  0
  151.0287  145.1741  157.5154 H   0  0  0  0  0  0  0  0  0  0  0  0
  151.6391  145.7250  159.8565 H   0  0  0  0  0  0  0  0  0  0  0  0
  152.3370  143.9235  161.4237 H   0  0  0  0  0  0  0  0  0  0  0  0
  152.4275  141.5667  160.6535 H   0  0  0  0  0  0  0  0  0  0  0  0
  152.1304  139.9028  158.8733 H   0  0  0  0  0  0  0  0  0  0  0  0
  1  2  1  0  0  0  0
  1 31  1  0  0  0  0
  1 32  1  0  0  0  0
  1 33  1  0  0  0  0
  2  3  1  0  0  0  0
  2 21  1  0  0  0  0
  2 34  1  0  0  0  0
  3  4  1  0  0  0  0
  3 35  1  0  0  0  0
  4  5  2  0  0  0  0
  4  6  1  0  0  0  0
  6  7  1  0  0  0  0
  6 36  1  0  0  0  0
  6 37  1  0  0  0  0
  7 19  1  0  0  0  0
  7  8  1  0  0  0  0
  8  9  2  0  0  0  0
  8 10  1  0  0  0  0
 10 11  1  0  0  0  0
 10 12  2  0  0  0  0
 12 13  1  0  0  0  0
 12 38  1  0  0  0  0
 13 14  1  0  0  0  0
 13 19  1  0  0  0  0
 14 18  1  0  0  0  0
 14 15  1  0  0  0  0
 14 39  1  0  0  0  0
 15 16  1  0  0  0  0
 15 40  1  0  0  0  0
 15 41  1  0  0  0  0
 16 17  1  0  0  0  0
 16 42  1  0  0  0  0
 16 43  1  0  0  0  0
 17 18  1  0  0  0  0
 17 44  1  0  0  0  0
 17 45  1  0  0  0  0
 19 20  2  0  0  0  0
 21 30  1  0  0  0  0
 21 22  2  0  0  0  0
 22 23  1  0  0  0  0
 22 46  1  0  0  0  0
 23 24  2  0  0  0  0
 23 47  1  0  0  0  0
 24 29  1  0  0  0  0
 24 25  1  0  0  0  0
 25 26  2  0  0  0  0
 25 48  1  0  0  0  0
 26 27  1  0  0  0  0
 26 49  1  0  0  0  0
 27 28  2  0  0  0  0
 27 50  1  0  0  0  0
 28 29  1  0  0  0  0
 28 51  1  0  0  0  0
 29 30  2  0  0  0  0
 30 52  1  0  0  0  0
M  END
> <s_m_source_file>
AV-unprocessed.smi

> <i_m_source_file_index>
142

> <i_lp_mmshare_version>
43012

> <i_f3d_flags>
0

> <s_epik_input>
W2NIXTFbY0hdW2NIXVtjSF1jKGMxMilbY0hdYyhbY0hdW2NIXTIpW0NASF0oW0NIM10pW05IXUMoPU8pW0NIMl1uM2MoPU8pYyhGKVtjSF1uKGMzPU8pW0NAQEhdNFtDSDJdW0NIMl1bQ0gyXU80

> <s_epik_cmdline>
J2VwaWtfcHl0aG9uJywgJy1waCcsICc3LjAnLCAnLXRuJywgJzgnLCAnLW1hJywgJzIwMCcsICctbWV0YWxfYmluZGluZycsICctaW1hZScsICc8aW5maWxlLm1hZT4nLCAnLW9tYWUnLCAnPG91dGZpbGUubWFlPic=

> <r_lp_tautomer_probability>
1

> <r_epik_Ionization_Penalty>
3.35688e-08

> <r_epik_Ionization_Penalty_Charging>
3.59856e-09

> <r_epik_Ionization_Penalty_Neutral>
2.99702e-08

> <r_epik_State_Penalty>
-0

> <r_epik_Charging_Adjusted_Penalty>
3.59856e-09

> <i_epik_Tot_Q>
0

> <i_epik_Tot_abs_Q>
0

> <r_epik_Metal_State_Penalty>
-0

> <b_epik_Metal_Only>
0

> <s_epik_Chemistry_Notes>
This compound contains an acetal/aminal-like group ( X-CH(R)-Y where X, Y are N, S, or O) that may be acid/base labile, releasing an aldehyde.

> <s_lp_Force_Field>
OPLS_2005

> <r_lp_Energy>
30.4955

> <b_lp_Chiralities_Consistent>
1

> <s_lp_Variant>
AV-unprocessed.smi:142-2

> <Gold.Version>
5.8.1

> <Gold.Id.Protein>
6NUR|6NUR_protein|mol2

> <Gold.PLP.Fitness>
60.0556

> <Gold.PLP.PLP>
-56.0901

> <Gold.PLP.part.hbond>
-2.9141

> <Gold.PLP.part.metal>
0.0000

> <Gold.PLP.part.buried>
-4.6135

> <Gold.PLP.part.nonpolar>
-48.6875

> <Gold.PLP.part.repulsive>
0.1440

> <Gold.PLP.ligand.clash>
0.0000

> <Gold.PLP.ligand.torsion>
1.1224

> <Gold.PLP.Chemscore.Hbond>
2.0440

> <Gold.PLP.Chemscore.CHOScore>
0.0000

> <Gold.PLP.Chemscore.Metal>
0.0000

> <Gold.Chemscore.Hbonds>
donor molecule, donor type, donor heavy atom, donor atom, acceptor molecule, acceptor atom, score
      P1  H  6896  6907       L1    20  0.75
      P1  H  6896  6909       L1     5  0.01
      P1  H  7997  8008       L1     9  0.99

> <Gold.PLP.Chemscore.Internal.Correction>
0.0783

> <Gold.Rescore>
     Score         DG    S(hbond)    S(metal)    S(lipo)     H(rot)  DE(clash)    DE(int)     intcor
     21.69     -24.44       2.09        0.00     146.45       2.02       0.12       2.63       ----

> <Gold.Chemscore.Fitness>
21.6897

> <Gold.Chemscore.DG>
-24.4363

> <Gold.Chemscore.ZeroCoef>
-5.4800

> <Gold.Chemscore.Hbond>
2.0918

> <Gold.Chemscore.Metal>
0.0000

> <Gold.Chemscore.Lipo>
146.4486

> <Gold.Chemscore.Internal_Hbond>
0.0000

> <Gold.Chemscore.DEClash>
0.1183

> <Gold.Chemscore.DEInternal>
2.6283

> <Gold.Chemscore.Rot>
2.0175

> <Gold.Chemscore.Internal.Correction>
   9.000000E+99

> <Gold.Chemscore.Hbonds>
donor molecule, donor type, donor heavy atom, donor atom, acceptor molecule, acceptor atom, score
      P1  H  6896  6907       L1    20  0.71
      P1  H  6896  6909       L1     5  0.03
      P1  H  7997  8008       L1     9  0.92

> <Gold.Chemscore.Hbond.Weighted>
-6.9867

> <Gold.Chemscore.Metal.Weighted>
-0.0000

> <Gold.Chemscore.Lipo.Weighted>
-17.1345

> <Gold.Chemscore.Internal_Hbond.Weighted>
0.0000

> <Gold.Chemscore.DEClash.Weighted>
0.1183

> <Gold.Chemscore.DEInternal.Weighted>
2.6283

> <Gold.Chemscore.Rot.Weighted>
5.1648

> <Gold.Chemscore.Internal.Correction.Weighted>
   9.000000E+99

> <Gold.Protein.RotatedTorsions>
[ 6907 6896 6895 6894 ] final   81.52 input  -60.11 | X-H torsion
[ 7974 7965 7964 7962 ] final  101.83 input  175.53 | X-H torsion
[ 8008 7997 7996 7995 ] final -113.60 input   59.86 | X-H torsion
[ 10167 10162 10161 10158 ] final  -30.34 input  -65.29 | X-H torsion
[ 10718 10713 10712 10709 ] final   17.85 input   66.30 | X-H torsion
[ 10763 10752 10751 10750 ] final  -32.27 input  -60.55 | X-H torsion
[ 11005 11000 10999 10996 ] final  -14.73 input  -57.11 | X-H torsion

> <Gold.Protein.ActiveResidues>
 VAL166  LYS551  ARG553  GLY616  TRP617  ASP618  TYR619  PRO620  LYS621  CYS622 
 ASP623  PHE694  ASN695  SER759  ASP760  ASP761  ALA762  ILE779  LEU786  VAL792 
 PHE793  MET794  SER795  GLU796  ALA797  LYS798  CYS799  TRP800  GLU811  SER814 

> <Gold.Protein.RotatedAtoms>
  152.5271  134.3191  159.9141 H   0  0  0  0  0  0  0  0  0  0  0  0  # atno 6907 bound_to 6896
  151.3140  133.4062  159.2657 H   0  0  0  0  0  0  0  0  0  0  0  0  # atno 6908 bound_to 6896
  151.0014  134.9342  159.8013 H   0  0  0  0  0  0  0  0  0  0  0  0  # atno 6909 bound_to 6896
  145.3671  139.2406  143.3475 H   0  0  0  0  0  0  0  0  0  0  0  0  # atno 7974 bound_to 7965
  155.0232  140.0393  157.2445 H   0  0  0  0  0  0  0  0  0  0  0  0  # atno 8008 bound_to 7997
  154.7360  140.2739  155.6391 H   0  0  0  0  0  0  0  0  0  0  0  0  # atno 8009 bound_to 7997
  156.2853  140.2675  156.2073 H   0  0  0  0  0  0  0  0  0  0  0  0  # atno 8010 bound_to 7997
  140.7250  143.3856  151.1521 H   0  0  0  0  0  0  0  0  0  0  0  0  # atno 10167 bound_to 10162
  157.0879  130.6415  149.5842 H   0  0  0  0  0  0  0  0  0  0  0  0  # atno 10718 bound_to 10713
  153.8110  135.6882  153.4841 H   0  0  0  0  0  0  0  0  0  0  0  0  # atno 10763 bound_to 10752
  153.1628  135.4573  154.9794 H   0  0  0  0  0  0  0  0  0  0  0  0  # atno 10764 bound_to 10752
  154.7967  135.3322  154.7591 H   0  0  0  0  0  0  0  0  0  0  0  0  # atno 10765 bound_to 10752
  140.7894  133.8300  155.9365 H   0  0  0  0  0  0  0  0  0  0  0  0  # atno 11005 bound_to 11000
  146.2902  140.4315  142.8742 LP  0  0  0  0  0  0  0  0  0  0  0  0  # atno 17320 bound_to 7965
  144.8604  140.7130  143.6111 LP  0  0  0  0  0  0  0  0  0  0  0  0  # atno 17321 bound_to 7965
  139.7453  143.8861  152.3062 LP  0  0  0  0  0  0  0  0  0  0  0  0  # atno 17342 bound_to 10162
  139.8697  144.7075  150.9002 LP  0  0  0  0  0  0  0  0  0  0  0  0  # atno 17343 bound_to 10162
  155.9906  130.4957  150.7263 LP  0  0  0  0  0  0  0  0  0  0  0  0  # atno 17370 bound_to 10713
  157.4745  131.0896  151.0605 LP  0  0  0  0  0  0  0  0  0  0  0  0  # atno 17371 bound_to 10713
  140.9404  134.1907  157.4801 LP  0  0  0  0  0  0  0  0  0  0  0  0  # atno 17394 bound_to 11000
  139.8733  134.9869  156.5347 LP  0  0  0  0  0  0  0  0  0  0  0  0  # atno 17395 bound_to 11000

$$$$
