AV-unprocessed.smi:3001|AV-procd|sdf|11431|dock4
  -GOLD-   2272016353D 1   1.00000     0.00000
 Structure written by MMmdl.
 41 42  0  0  0  0  0  0  0  0  1 V2000
  148.7457  132.1989  153.4693 C   0  0  0  0  0  0  0  0  0  0  0  0
  147.9333  132.4445  152.5914 C   0  0  0  0  0  0  0  0  0  0  0  0
  146.9610  132.7526  151.5321 C   0  0  0  0  0  0  0  0  0  0  0  0
  146.6734  134.1766  151.4653 N   0  0  0  0  0  0  0  0  0  0  0  0
  145.4413  134.7112  151.4616 C   0  0  0  0  0  0  0  0  0  0  0  0
  144.4208  134.0267  151.5262 O   0  0  0  0  0  0  0  0  0  0  0  0
  145.3122  136.2411  151.3743 C   0  0  0  0  0  0  0  0  0  0  0  0
  146.5036  136.9755  151.8008 N   0  0  0  0  0  0  0  0  0  0  0  0
  146.5200  137.9589  152.7120 C   0  0  0  0  0  0  0  0  0  0  0  0
  145.5299  138.3161  153.3506 O   0  0  0  0  0  0  0  0  0  0  0  0
  147.7376  138.5169  152.8020 N   0  0  0  0  0  0  0  0  0  0  0  0
  148.0890  139.6867  153.5282 C   0  0  0  0  0  0  0  0  0  0  0  0
  147.2222  140.8050  153.5701 C   0  0  0  0  0  0  0  0  0  0  0  0
  147.5706  141.9164  154.3570 C   0  0  0  0  0  0  0  0  0  0  0  0
  148.7689  141.8625  155.0886 C   0  0  0  0  0  0  0  0  0  0  0  0
  149.5988  140.7998  155.0671 N   0  0  0  0  0  0  0  0  0  0  0  0
  149.2848  139.7263  154.3003 C   0  0  0  0  0  0  0  0  0  0  0  0
  150.2043  138.6519  154.2943 N   0  0  0  0  0  0  0  0  0  0  0  0
  149.8131  137.3405  154.8010 C   0  0  0  0  0  0  0  0  0  0  0  0
  151.1244  136.5867  155.0029 C   0  0  0  0  0  0  0  0  0  0  0  0
  152.0692  137.6943  155.4583 C   0  0  0  0  0  0  0  0  0  0  0  0
  151.5846  138.9254  154.6855 C   0  0  0  0  0  0  0  0  0  0  0  0
  149.4591  131.9890  154.2346 H   0  0  0  0  0  0  0  0  0  0  0  0
  147.3691  132.4063  150.5816 H   0  0  0  0  0  0  0  0  0  0  0  0
  146.0473  132.1909  151.7308 H   0  0  0  0  0  0  0  0  0  0  0  0
  147.4635  134.8020  151.4046 H   0  0  0  0  0  0  0  0  0  0  0  0
  145.0410  136.5197  150.3546 H   0  0  0  0  0  0  0  0  0  0  0  0
  144.4816  136.5506  152.0088 H   0  0  0  0  0  0  0  0  0  0  0  0
  147.3676  136.7478  151.3312 H   0  0  0  0  0  0  0  0  0  0  0  0
  148.4337  138.1816  152.1520 H   0  0  0  0  0  0  0  0  0  0  0  0
  146.2893  140.8138  153.0261 H   0  0  0  0  0  0  0  0  0  0  0  0
  146.9285  142.7833  154.4079 H   0  0  0  0  0  0  0  0  0  0  0  0
  149.0680  142.6926  155.7114 H   0  0  0  0  0  0  0  0  0  0  0  0
  149.2978  137.4329  155.7578 H   0  0  0  0  0  0  0  0  0  0  0  0
  149.1525  136.8255  154.1032 H   0  0  0  0  0  0  0  0  0  0  0  0
  151.0407  135.7724  155.7230 H   0  0  0  0  0  0  0  0  0  0  0  0
  151.4674  136.1704  154.0547 H   0  0  0  0  0  0  0  0  0  0  0  0
  151.9470  137.8622  156.5294 H   0  0  0  0  0  0  0  0  0  0  0  0
  153.1185  137.4640  155.2723 H   0  0  0  0  0  0  0  0  0  0  0  0
  152.1856  139.0573  153.7856 H   0  0  0  0  0  0  0  0  0  0  0  0
  151.6716  139.8320  155.2863 H   0  0  0  0  0  0  0  0  0  0  0  0
  1  2  3  0  0  0  0
  1 23  1  0  0  0  0
  2  3  1  0  0  0  0
  3  4  1  0  0  0  0
  3 24  1  0  0  0  0
  3 25  1  0  0  0  0
  4  5  1  0  0  0  0
  4 26  1  0  0  0  0
  5  6  2  0  0  0  0
  5  7  1  0  0  0  0
  7  8  1  0  0  0  0
  7 27  1  0  0  0  0
  7 28  1  0  0  0  0
  8  9  1  0  0  0  0
  8 29  1  0  0  0  0
  9 10  2  0  0  0  0
  9 11  1  0  0  0  0
 11 12  1  0  0  0  0
 11 30  1  0  0  0  0
 12 17  1  0  0  0  0
 12 13  2  0  0  0  0
 13 14  1  0  0  0  0
 13 31  1  0  0  0  0
 14 15  2  0  0  0  0
 14 32  1  0  0  0  0
 15 16  1  0  0  0  0
 15 33  1  0  0  0  0
 16 17  2  0  0  0  0
 17 18  1  0  0  0  0
 18 22  1  0  0  0  0
 18 19  1  0  0  0  0
 19 20  1  0  0  0  0
 19 34  1  0  0  0  0
 19 35  1  0  0  0  0
 20 21  1  0  0  0  0
 20 36  1  0  0  0  0
 20 37  1  0  0  0  0
 21 22  1  0  0  0  0
 21 38  1  0  0  0  0
 21 39  1  0  0  0  0
 22 40  1  0  0  0  0
 22 41  1  0  0  0  0
M  END
> <s_m_source_file>
AV-unprocessed.smi

> <i_m_source_file_index>
3001

> <i_lp_mmshare_version>
43012

> <i_f3d_flags>
0

> <s_epik_input>
W0NIXSNDW0NIMl1bTkhdQyg9TylbQ0gyXVtOSF1DKD1PKVtOSF1jMVtjSF1bY0hdW2NIXW5jMU4yW0NIMl1bQ0gyXVtDSDJdW0NIMl0y

> <s_epik_cmdline>
J2VwaWtfcHl0aG9uJywgJy1waCcsICc3LjAnLCAnLXRuJywgJzgnLCAnLW1hJywgJzIwMCcsICctbWV0YWxfYmluZGluZycsICctaW1hZScsICc8aW5maWxlLm1hZT4nLCAnLW9tYWUnLCAnPG91dGZpbGUubWFlPic=

> <r_lp_tautomer_probability>
1

> <r_epik_Ionization_Penalty>
0.243831

> <r_epik_Ionization_Penalty_Charging>
0

> <r_epik_Ionization_Penalty_Neutral>
0.243831

> <r_epik_State_Penalty>
0.234327

> <r_epik_Charging_Adjusted_Penalty>
0.234327

> <i_epik_Tot_Q>
0

> <i_epik_Tot_abs_Q>
0

> <r_epik_Metal_State_Penalty>
0.165313

> <b_epik_Metal_Only>
0

> <s_lp_Force_Field>
OPLS_2005

> <r_lp_Energy>
26.7815

> <b_lp_Chiralities_Consistent>
1

> <s_lp_Variant>
AV-unprocessed.smi:3001-1

> <Gold.Version>
5.8.1

> <Gold.Id.Protein>
6NUR|6NUR_protein|mol2

> <Gold.PLP.Fitness>
42.0048

> <Gold.PLP.PLP>
-33.9692

> <Gold.PLP.part.hbond>
-3.9475

> <Gold.PLP.part.metal>
0.0000

> <Gold.PLP.part.buried>
1.4936

> <Gold.PLP.part.nonpolar>
-34.2975

> <Gold.PLP.part.repulsive>
1.8541

> <Gold.PLP.ligand.clash>
0.0000

> <Gold.PLP.ligand.torsion>
1.0175

> <Gold.PLP.Chemscore.Hbond>
2.4880

> <Gold.PLP.Chemscore.CHOScore>
0.7505

> <Gold.PLP.Chemscore.Metal>
0.0000

> <Gold.Chemscore.Hbonds>
donor molecule, donor type, donor heavy atom, donor atom, acceptor molecule, acceptor atom, score
      L1  H     4    26       P1  7948  0.94
      L1  H     8    29       P1  7948  0.74
      L1  H    11    30       P1  7948  0.54
      L1  C    15    33       P1  8028  1.00

> <Gold.PLP.Chemscore.Internal.Correction>
0.3552

> <Gold.Rescore>
     Score         DG    S(hbond)    S(metal)    S(lipo)     H(rot)  DE(clash)    DE(int)     intcor
     12.85     -16.16       2.13        0.00      70.37       1.82       1.27       2.04       ----

> <Gold.Chemscore.Fitness>
12.8481

> <Gold.Chemscore.DG>
-16.1556

> <Gold.Chemscore.ZeroCoef>
-5.4800

> <Gold.Chemscore.Hbond>
2.1290

> <Gold.Chemscore.Metal>
0.0000

> <Gold.Chemscore.Lipo>
70.3686

> <Gold.Chemscore.Internal_Hbond>
0.0000

> <Gold.Chemscore.DEClash>
1.2709

> <Gold.Chemscore.DEInternal>
2.0366

> <Gold.Chemscore.Rot>
1.8236

> <Gold.Chemscore.Internal.Correction>
   9.000000E+99

> <Gold.Chemscore.Hbonds>
donor molecule, donor type, donor heavy atom, donor atom, acceptor molecule, acceptor atom, score
      L1  H     4    26       P1  7948  0.36
      L1  H     8    29       P1  7948  0.74
      L1  H    11    30       P1  7948  0.52

> <Gold.Chemscore.Hbond.Weighted>
-7.1110

> <Gold.Chemscore.Metal.Weighted>
-0.0000

> <Gold.Chemscore.Lipo.Weighted>
-8.2331

> <Gold.Chemscore.Internal_Hbond.Weighted>
0.0000

> <Gold.Chemscore.DEClash.Weighted>
1.2709

> <Gold.Chemscore.DEInternal.Weighted>
2.0366

> <Gold.Chemscore.Rot.Weighted>
4.6685

> <Gold.Chemscore.Internal.Correction.Weighted>
   9.000000E+99

> <Gold.Protein.RotatedTorsions>
[ 6907 6896 6895 6894 ] final  -70.70 input  -60.11 | X-H torsion
[ 7974 7965 7964 7962 ] final   90.43 input  175.53 | X-H torsion
[ 8008 7997 7996 7995 ] final  136.16 input   59.86 | X-H torsion
[ 10167 10162 10161 10158 ] final   46.61 input  -65.29 | X-H torsion
[ 10718 10713 10712 10709 ] final  -57.39 input   66.30 | X-H torsion
[ 10763 10752 10751 10750 ] final   45.26 input  -60.55 | X-H torsion
[ 11005 11000 10999 10996 ] final    1.66 input  -57.11 | X-H torsion

> <Gold.Protein.ActiveResidues>
 VAL166  LYS551  ARG553  GLY616  TRP617  ASP618  TYR619  PRO620  LYS621  CYS622 
 ASP623  PHE694  ASN695  SER759  ASP760  ASP761  ALA762  ILE779  LEU786  VAL792 
 PHE793  MET794  SER795  GLU796  ALA797  LYS798  CYS799  TRP800  GLU811  SER814 

> <Gold.Protein.RotatedAtoms>
  150.7245  134.5415  159.5749 H   0  0  0  0  0  0  0  0  0  0  0  0  # atno 6907 bound_to 6896
  152.2924  134.7703  160.0384 H   0  0  0  0  0  0  0  0  0  0  0  0  # atno 6908 bound_to 6896
  151.8312  133.3373  159.3650 H   0  0  0  0  0  0  0  0  0  0  0  0  # atno 6909 bound_to 6896
  145.5191  139.2279  143.2682 H   0  0  0  0  0  0  0  0  0  0  0  0  # atno 7974 bound_to 7965
  156.3004  140.2452  156.3700 H   0  0  0  0  0  0  0  0  0  0  0  0  # atno 8008 bound_to 7997
  154.8798  140.0413  157.1795 H   0  0  0  0  0  0  0  0  0  0  0  0  # atno 8009 bound_to 7997
  154.8708  140.2935  155.5486 H   0  0  0  0  0  0  0  0  0  0  0  0  # atno 8010 bound_to 7997
  140.3122  144.2807  150.6198 H   0  0  0  0  0  0  0  0  0  0  0  0  # atno 10167 bound_to 10162
  156.1214  130.4166  150.0434 H   0  0  0  0  0  0  0  0  0  0  0  0  # atno 10718 bound_to 10713
  152.9827  135.6045  154.3407 H   0  0  0  0  0  0  0  0  0  0  0  0  # atno 10763 bound_to 10752
  154.3104  135.2771  155.2570 H   0  0  0  0  0  0  0  0  0  0  0  0  # atno 10764 bound_to 10752
  154.4782  135.5924  153.6426 H   0  0  0  0  0  0  0  0  0  0  0  0  # atno 10765 bound_to 10752
  140.6129  133.9732  155.8186 H   0  0  0  0  0  0  0  0  0  0  0  0  # atno 11005 bound_to 11000
  146.2117  140.6002  142.9056 LP  0  0  0  0  0  0  0  0  0  0  0  0  # atno 17320 bound_to 7965
  144.7686  140.5586  143.6686 LP  0  0  0  0  0  0  0  0  0  0  0  0  # atno 17321 bound_to 7965
  140.5558  143.2199  151.7849 LP  0  0  0  0  0  0  0  0  0  0  0  0  # atno 17342 bound_to 10162
  139.4891  144.4415  151.9759 LP  0  0  0  0  0  0  0  0  0  0  0  0  # atno 17343 bound_to 10162
  156.8371  130.9413  151.3634 LP  0  0  0  0  0  0  0  0  0  0  0  0  # atno 17370 bound_to 10713
  157.6397  130.8796  149.9426 LP  0  0  0  0  0  0  0  0  0  0  0  0  # atno 17371 bound_to 10713
  141.0795  134.0083  157.3407 LP  0  0  0  0  0  0  0  0  0  0  0  0  # atno 17394 bound_to 11000
  139.9185  135.0199  156.7973 LP  0  0  0  0  0  0  0  0  0  0  0  0  # atno 17395 bound_to 11000

$$$$
