AV-unprocessed.smi:3148|AV-procd|sdf|11997|dock4
  -GOLD-   2272017403D 1   1.00000     0.00000
 Structure written by MMmdl.
 35 37  0  0  0  0  0  0  0  0  2 V2000
  153.8041  140.9669  160.7619 C   0  0  0  0  0  0  0  0  0  0  0  0
  152.8157  140.7385  159.7628 O   0  0  0  0  0  0  0  0  0  0  0  0
  152.1539  141.8284  159.2362 C   0  0  0  0  0  0  0  0  0  0  0  0
  152.4677  143.1185  159.6943 C   0  0  0  0  0  0  0  0  0  0  0  0
  151.7607  144.1918  159.1190 C   0  0  0  0  0  0  0  0  0  0  0  0
  152.0041  145.6282  159.5303 C   0  0  0  0  0  0  0  0  0  0  0  0
  150.8233  143.9568  158.1672 N   0  3  0  0  0  0  0  0  0  0  0  0
  150.5679  142.6998  157.7753 C   0  0  0  0  0  0  0  0  0  0  0  0
  149.5962  142.5164  156.8082 N   0  0  0  0  0  0  0  0  0  0  0  0
  149.2050  141.2150  156.2790 C   0  0  2  0  0  0  0  0  0  0  0  0
  149.5040  141.0561  154.7863 C   0  0  0  0  0  0  0  0  0  0  0  0
  148.1345  140.6352  154.2349 C   0  0  2  0  0  0  0  0  0  0  0  0
  147.1626  141.8209  154.1757 C   0  0  0  0  0  0  0  0  0  0  0  0
  146.8370  142.0293  155.6534 C   0  0  0  0  0  0  0  0  0  0  0  0
  147.6890  140.9381  156.3244 C   0  0  1  0  0  0  0  0  0  0  0  0
  147.6055  139.9216  155.3402 O   0  0  0  0  0  0  0  0  0  0  0  0
  151.2098  141.6396  158.2852 N   0  0  0  0  0  0  0  0  0  0  0  0
  154.2209  140.0119  161.0817 H   0  0  0  0  0  0  0  0  0  0  0  0
  153.3786  141.4519  161.6416 H   0  0  0  0  0  0  0  0  0  0  0  0
  154.6249  141.5754  160.3796 H   0  0  0  0  0  0  0  0  0  0  0  0
  153.2191  143.2750  160.4547 H   0  0  0  0  0  0  0  0  0  0  0  0
  152.8759  145.7088  160.1802 H   0  0  0  0  0  0  0  0  0  0  0  0
  151.1396  146.0186  160.0680 H   0  0  0  0  0  0  0  0  0  0  0  0
  152.1756  146.2531  158.6534 H   0  0  0  0  0  0  0  0  0  0  0  0
  149.0248  143.3133  156.5679 H   0  0  0  0  0  0  0  0  0  0  0  0
  149.7331  140.4341  156.8282 H   0  0  0  0  0  0  0  0  0  0  0  0
  149.8732  141.9657  154.3101 H   0  0  0  0  0  0  0  0  0  0  0  0
  150.2435  140.2698  154.6313 H   0  0  0  0  0  0  0  0  0  0  0  0
  148.1867  140.0605  153.3099 H   0  0  0  0  0  0  0  0  0  0  0  0
  147.6081  142.7011  153.7109 H   0  0  0  0  0  0  0  0  0  0  0  0
  146.2621  141.5593  153.6187 H   0  0  0  0  0  0  0  0  0  0  0  0
  147.0710  143.0347  156.0042 H   0  0  0  0  0  0  0  0  0  0  0  0
  145.7766  141.8505  155.8348 H   0  0  0  0  0  0  0  0  0  0  0  0
  147.3227  140.6351  157.3056 H   0  0  0  0  0  0  0  0  0  0  0  0
  150.3177  144.7434  157.7595 H   0  0  0  0  0  0  0  0  0  0  0  0
  1  2  1  0  0  0  0
  1 18  1  0  0  0  0
  1 19  1  0  0  0  0
  1 20  1  0  0  0  0
  2  3  1  0  0  0  0
  3 17  1  0  0  0  0
  3  4  2  0  0  0  0
  4  5  1  0  0  0  0
  4 21  1  0  0  0  0
  5  6  1  0  0  0  0
  5  7  2  0  0  0  0
  6 22  1  0  0  0  0
  6 23  1  0  0  0  0
  6 24  1  0  0  0  0
  7  8  1  0  0  0  0
  7 35  1  0  0  0  0
  8  9  1  0  0  0  0
  8 17  2  0  0  0  0
  9 10  1  0  0  0  0
  9 25  1  0  0  0  0
 10 15  1  0  0  0  0
 10 11  1  0  0  0  0
 10 26  1  0  0  0  0
 11 12  1  0  0  0  0
 11 27  1  0  0  0  0
 11 28  1  0  0  0  0
 12 16  1  0  0  0  0
 12 13  1  0  0  0  0
 12 29  1  0  0  0  0
 13 14  1  0  0  0  0
 13 30  1  0  0  0  0
 13 31  1  0  0  0  0
 14 15  1  0  0  0  0
 14 32  1  0  0  0  0
 14 33  1  0  0  0  0
 15 16  1  0  0  0  0
 15 34  1  0  0  0  0
M  CHG  1   7   1
M  END
> <s_m_source_file>
AV-unprocessed.smi

> <i_m_source_file_index>
3148

> <i_lp_mmshare_version>
43012

> <i_f3d_flags>
0

> <s_epik_input>
W0NIM11PYzFbY0hdYyhbQ0gzXSluYyhuMSlbTkhdW0NASF0oW0NIMl1bQ0BASF0yMylbQ0BASF0oTzMpW0NIMl1bQ0gyXTI=

> <s_epik_cmdline>
J2VwaWtfcHl0aG9uJywgJy1waCcsICc3LjAnLCAnLXRuJywgJzgnLCAnLW1hJywgJzIwMCcsICctbWV0YWxfYmluZGluZycsICctaW1hZScsICc8aW5maWxlLm1hZT4nLCAnLW9tYWUnLCAnPG91dGZpbGUubWFlPic=

> <r_lp_tautomer_probability>
0.999985

> <r_epik_Ionization_Penalty>
1.09461

> <r_epik_Ionization_Penalty_Charging>
1.0946

> <r_epik_Ionization_Penalty_Neutral>
6.69406e-06

> <r_epik_State_Penalty>
1.15119

> <r_epik_Charging_Adjusted_Penalty>
2.24579

> <i_epik_Tot_Q>
1

> <i_epik_Tot_abs_Q>
1

> <r_epik_Metal_State_Penalty>
1.2392

> <b_epik_Metal_Only>
0

> <s_lp_Force_Field>
OPLS_2005

> <r_lp_Energy>
36.3956

> <b_lp_Chiralities_Consistent>
1

> <s_lp_Variant>
AV-unprocessed.smi:3148-7

> <Gold.Version>
5.8.1

> <Gold.Id.Protein>
6NUR|6NUR_protein|mol2

> <Gold.PLP.Fitness>
40.6103

> <Gold.PLP.PLP>
-34.7712

> <Gold.PLP.part.hbond>
-1.3380

> <Gold.PLP.part.metal>
0.0000

> <Gold.PLP.part.buried>
-3.2289

> <Gold.PLP.part.nonpolar>
-30.4300

> <Gold.PLP.part.repulsive>
0.1107

> <Gold.PLP.ligand.clash>
0.0494

> <Gold.PLP.ligand.torsion>
0.0362

> <Gold.PLP.Chemscore.Hbond>
1.9840

> <Gold.PLP.Chemscore.CHOScore>
0.0000

> <Gold.PLP.Chemscore.Metal>
0.0000

> <Gold.Chemscore.Hbonds>
donor molecule, donor type, donor heavy atom, donor atom, acceptor molecule, acceptor atom, score
      L1  H     9    25       P1  8028  1.89

> <Gold.PLP.Chemscore.Internal.Correction>
0.0089

> <Gold.Rescore>
     Score         DG    S(hbond)    S(metal)    S(lipo)     H(rot)  DE(clash)    DE(int)     intcor
     14.74     -14.87       0.93        0.00      80.71       1.24       0.13       0.01       ----

> <Gold.Chemscore.Fitness>
14.7376

> <Gold.Chemscore.DG>
-14.8727

> <Gold.Chemscore.ZeroCoef>
-5.4800

> <Gold.Chemscore.Hbond>
0.9336

> <Gold.Chemscore.Metal>
0.0000

> <Gold.Chemscore.Lipo>
80.7060

> <Gold.Chemscore.Internal_Hbond>
0.0000

> <Gold.Chemscore.DEClash>
0.1264

> <Gold.Chemscore.DEInternal>
0.0088

> <Gold.Chemscore.Rot>
1.2376

> <Gold.Chemscore.Internal.Correction>
   9.000000E+99

> <Gold.Chemscore.Hbonds>
donor molecule, donor type, donor heavy atom, donor atom, acceptor molecule, acceptor atom, score
      L1  H     9    25       P1  8028  0.89

> <Gold.Chemscore.Hbond.Weighted>
-3.1183

> <Gold.Chemscore.Metal.Weighted>
-0.0000

> <Gold.Chemscore.Lipo.Weighted>
-9.4426

> <Gold.Chemscore.Internal_Hbond.Weighted>
0.0000

> <Gold.Chemscore.DEClash.Weighted>
0.1264

> <Gold.Chemscore.DEInternal.Weighted>
0.0088

> <Gold.Chemscore.Rot.Weighted>
3.1681

> <Gold.Chemscore.Internal.Correction.Weighted>
   9.000000E+99

> <Gold.Protein.RotatedTorsions>
[ 6907 6896 6895 6894 ] final   34.55 input  -60.11 | X-H torsion
[ 7974 7965 7964 7962 ] final  170.46 input  175.53 | X-H torsion
[ 8008 7997 7996 7995 ] final  140.59 input   59.86 | X-H torsion
[ 10167 10162 10161 10158 ] final  157.08 input  -65.29 | X-H torsion
[ 10718 10713 10712 10709 ] final -137.56 input   66.30 | X-H torsion
[ 10763 10752 10751 10750 ] final  120.61 input  -60.55 | X-H torsion
[ 11005 11000 10999 10996 ] final  -93.84 input  -57.11 | X-H torsion

> <Gold.Protein.ActiveResidues>
 VAL166  LYS551  ARG553  GLY616  TRP617  ASP618  TYR619  PRO620  LYS621  CYS622 
 ASP623  PHE694  ASN695  SER759  ASP760  ASP761  ALA762  ILE779  LEU786  VAL792 
 PHE793  MET794  SER795  GLU796  ALA797  LYS798  CYS799  TRP800  GLU811  SER814 

> <Gold.Protein.RotatedAtoms>
  152.1040  134.9322  160.0568 H   0  0  0  0  0  0  0  0  0  0  0  0  # atno 6907 bound_to 6896
  152.0525  133.4020  159.4391 H   0  0  0  0  0  0  0  0  0  0  0  0  # atno 6908 bound_to 6896
  150.6840  134.3212  159.4831 H   0  0  0  0  0  0  0  0  0  0  0  0  # atno 6909 bound_to 6896
  144.7323  139.9205  143.6420 H   0  0  0  0  0  0  0  0  0  0  0  0  # atno 7974 bound_to 7965
  156.2977  140.2337  156.4425 H   0  0  0  0  0  0  0  0  0  0  0  0  # atno 8008 bound_to 7997
  154.8173  140.0440  157.1406 H   0  0  0  0  0  0  0  0  0  0  0  0  # atno 8009 bound_to 7997
  154.9355  140.3022  155.5150 H   0  0  0  0  0  0  0  0  0  0  0  0  # atno 8010 bound_to 7997
  139.4822  144.4950  151.8252 H   0  0  0  0  0  0  0  0  0  0  0  0  # atno 10167 bound_to 10162
  156.2895  130.7367  151.1388 H   0  0  0  0  0  0  0  0  0  0  0  0  # atno 10718 bound_to 10713
  153.6012  135.3447  155.2946 H   0  0  0  0  0  0  0  0  0  0  0  0  # atno 10763 bound_to 10752
  154.8635  135.4228  154.2410 H   0  0  0  0  0  0  0  0  0  0  0  0  # atno 10764 bound_to 10752
  153.3239  135.7040  153.7078 H   0  0  0  0  0  0  0  0  0  0  0  0  # atno 10765 bound_to 10752
  141.1487  133.7915  157.0215 H   0  0  0  0  0  0  0  0  0  0  0  0  # atno 11005 bound_to 11000
  146.0933  139.3924  143.0392 LP  0  0  0  0  0  0  0  0  0  0  0  0  # atno 17320 bound_to 7965
  145.7681  140.9908  143.1164 LP  0  0  0  0  0  0  0  0  0  0  0  0  # atno 17321 bound_to 7965
  140.4438  144.1950  150.5893 LP  0  0  0  0  0  0  0  0  0  0  0  0  # atno 17342 bound_to 10162
  140.4656  143.2432  151.9160 LP  0  0  0  0  0  0  0  0  0  0  0  0  # atno 17343 bound_to 10162
  157.7338  131.0587  150.5557 LP  0  0  0  0  0  0  0  0  0  0  0  0  # atno 17370 bound_to 10713
  156.5671  130.4270  149.6036 LP  0  0  0  0  0  0  0  0  0  0  0  0  # atno 17371 bound_to 10713
  140.0813  134.9646  157.1628 LP  0  0  0  0  0  0  0  0  0  0  0  0  # atno 17394 bound_to 11000
  140.3573  134.2533  155.7191 LP  0  0  0  0  0  0  0  0  0  0  0  0  # atno 17395 bound_to 11000

$$$$
