AV-unprocessed.smi:862|AV-procd|sdf|3976|dock6
  -GOLD-   22720 1453D 1   1.00000     0.00000
 Structure written by MMmdl.
 44 46  0  0  0  0  0  0  0  0  2 V2000
  143.4336  133.9894  153.3832 N   0  0  0  0  0  0  0  0  0  0  0  0
  142.8896  135.1345  153.8064 C   0  0  0  0  0  0  0  0  0  0  0  0
  141.9885  135.1360  154.6431 O   0  0  0  0  0  0  0  0  0  0  0  0
  143.4342  136.2622  153.2838 N   0  0  0  0  0  0  0  0  0  0  0  0
  143.5454  137.5650  153.9603 C   0  0  0  0  0  0  0  0  0  0  0  0
  145.0057  137.7675  154.4048 C   0  0  0  0  0  0  0  0  0  0  0  0
  145.9739  137.6730  153.2066 C   0  0  0  0  0  0  0  0  0  0  0  0
  147.3729  137.7375  153.6855 N   0  3  0  0  0  0  0  0  0  0  0  0
  147.7707  138.9881  154.3720 C   0  0  2  0  0  0  0  0  0  0  0  0
  146.8694  140.1844  154.0523 C   0  0  0  0  0  0  0  0  0  0  0  0
  147.7269  141.4230  154.3432 C   0  0  0  0  0  0  0  0  0  0  0  0
  149.1910  140.9556  154.3207 C   0  0  0  0  0  0  0  0  0  0  0  0
  149.1524  139.4738  153.9185 C   0  0  1  0  0  0  0  0  0  0  0  0
  150.2491  138.6943  154.4720 N   0  0  0  0  0  0  0  0  0  0  0  0
  151.3688  139.1613  155.1519 C   0  0  0  0  0  0  0  0  0  0  0  0
  152.1168  138.0562  155.4882 C   0  0  0  0  0  0  0  0  0  0  0  0
  151.4805  136.9049  155.0324 N   0  0  0  0  0  0  0  0  0  0  0  0
  150.3854  137.3611  154.4394 C   0  0  0  0  0  0  0  0  0  0  0  0
  145.7138  136.3820  152.3971 C   0  0  0  0  0  0  0  0  0  0  0  0
  144.2219  136.2385  152.0455 C   0  0  0  0  0  0  0  0  0  0  0  0
  143.0853  133.1106  153.7386 H   0  0  0  0  0  0  0  0  0  0  0  0
  144.1949  134.0050  152.7205 H   0  0  0  0  0  0  0  0  0  0  0  0
  143.2532  138.3549  153.2666 H   0  0  0  0  0  0  0  0  0  0  0  0
  142.8818  137.6744  154.8180 H   0  0  0  0  0  0  0  0  0  0  0  0
  145.1118  138.7362  154.8947 H   0  0  0  0  0  0  0  0  0  0  0  0
  145.2619  137.0139  155.1513 H   0  0  0  0  0  0  0  0  0  0  0  0
  145.7778  138.5332  152.5641 H   0  0  0  0  0  0  0  0  0  0  0  0
  147.4817  136.9964  154.3631 H   0  0  0  0  0  0  0  0  0  0  0  0
  147.7795  138.8249  155.4511 H   0  0  0  0  0  0  0  0  0  0  0  0
  146.5975  140.1761  152.9956 H   0  0  0  0  0  0  0  0  0  0  0  0
  145.9471  140.1808  154.6338 H   0  0  0  0  0  0  0  0  0  0  0  0
  147.5412  142.2094  153.6107 H   0  0  0  0  0  0  0  0  0  0  0  0
  147.4843  141.8308  155.3252 H   0  0  0  0  0  0  0  0  0  0  0  0
  149.7961  141.5411  153.6274 H   0  0  0  0  0  0  0  0  0  0  0  0
  149.6230  141.0860  155.3138 H   0  0  0  0  0  0  0  0  0  0  0  0
  149.2052  139.4175  152.8292 H   0  0  0  0  0  0  0  0  0  0  0  0
  151.5406  140.2122  155.3342 H   0  0  0  0  0  0  0  0  0  0  0  0
  153.0560  138.0016  156.0188 H   0  0  0  0  0  0  0  0  0  0  0  0
  149.6631  136.7068  153.9735 H   0  0  0  0  0  0  0  0  0  0  0  0
  146.3002  136.3751  151.4796 H   0  0  0  0  0  0  0  0  0  0  0  0
  146.0329  135.5120  152.9732 H   0  0  0  0  0  0  0  0  0  0  0  0
  144.0601  135.3298  151.4636 H   0  0  0  0  0  0  0  0  0  0  0  0
  143.9065  137.0597  151.4003 H   0  0  0  0  0  0  0  0  0  0  0  0
  147.9999  137.5544  152.9151 H   0  0  0  0  0  0  0  0  0  0  0  0
  1  2  1  0  0  0  0
  1 21  1  0  0  0  0
  1 22  1  0  0  0  0
  2  3  2  0  0  0  0
  2  4  1  0  0  0  0
  4 20  1  0  0  0  0
  4  5  1  0  0  0  0
  5  6  1  0  0  0  0
  5 23  1  0  0  0  0
  5 24  1  0  0  0  0
  6  7  1  0  0  0  0
  6 25  1  0  0  0  0
  6 26  1  0  0  0  0
  7  8  1  0  0  0  0
  7 19  1  0  0  0  0
  7 27  1  0  0  0  0
  8  9  1  0  0  0  0
  8 28  1  0  0  0  0
  8 44  1  0  0  0  0
  9 13  1  0  0  0  0
  9 10  1  0  0  0  0
  9 29  1  0  0  0  0
 10 11  1  0  0  0  0
 10 30  1  0  0  0  0
 10 31  1  0  0  0  0
 11 12  1  0  0  0  0
 11 32  1  0  0  0  0
 11 33  1  0  0  0  0
 12 13  1  0  0  0  0
 12 34  1  0  0  0  0
 12 35  1  0  0  0  0
 13 14  1  0  0  0  0
 13 36  1  0  0  0  0
 14 18  1  0  0  0  0
 14 15  1  0  0  0  0
 15 16  2  0  0  0  0
 15 37  1  0  0  0  0
 16 17  1  0  0  0  0
 16 38  1  0  0  0  0
 17 18  2  0  0  0  0
 18 39  1  0  0  0  0
 19 20  1  0  0  0  0
 19 40  1  0  0  0  0
 19 41  1  0  0  0  0
 20 42  1  0  0  0  0
 20 43  1  0  0  0  0
M  CHG  1   8   1
M  END
> <s_m_source_file>
AV-unprocessed.smi

> <i_m_source_file_index>
862

> <i_lp_mmshare_version>
43012

> <i_f3d_flags>
0

> <s_epik_input>
W05IMl1DKD1PKU4xW0NIMl1bQ0gyXVtDSF0oW0NIMl1bQ0gyXTEpW05IXVtDQEBIXTJbQ0gyXVtDSDJdW0NIMl1bQ0BIXTJuM1tjSF1bY0hdbltjSF0z

> <s_epik_cmdline>
J2VwaWtfcHl0aG9uJywgJy1waCcsICc3LjAnLCAnLXRuJywgJzgnLCAnLW1hJywgJzIwMCcsICctbWV0YWxfYmluZGluZycsICctaW1hZScsICc8aW5maWxlLm1hZT4nLCAnLW9tYWUnLCAnPG91dGZpbGUubWFlPic=

> <r_lp_tautomer_probability>
1

> <r_epik_Ionization_Penalty>
0.0731506

> <r_epik_Ionization_Penalty_Charging>
0.0731

> <r_epik_Ionization_Penalty_Neutral>
5.05966e-05

> <r_epik_State_Penalty>
0.128895

> <r_epik_Charging_Adjusted_Penalty>
0.201995

> <i_epik_Tot_Q>
1

> <i_epik_Tot_abs_Q>
1

> <r_epik_Metal_State_Penalty>
0.113934

> <b_epik_Metal_Only>
0

> <s_lp_Force_Field>
OPLS_2005

> <r_lp_Energy>
56.1174

> <b_lp_Chiralities_Consistent>
1

> <s_lp_Variant>
AV-unprocessed.smi:862-1

> <Gold.Version>
5.8.1

> <Gold.Id.Protein>
6NUR|6NUR_protein|mol2

> <Gold.PLP.Fitness>
44.9747

> <Gold.PLP.PLP>
-31.3209

> <Gold.PLP.part.hbond>
-4.0000

> <Gold.PLP.part.metal>
0.0000

> <Gold.PLP.part.buried>
-0.9775

> <Gold.PLP.part.nonpolar>
-27.9787

> <Gold.PLP.part.repulsive>
0.2266

> <Gold.PLP.ligand.clash>
0.6156

> <Gold.PLP.ligand.torsion>
1.0016

> <Gold.PLP.Chemscore.Hbond>
4.4065

> <Gold.PLP.Chemscore.CHOScore>
1.0000

> <Gold.PLP.Chemscore.Metal>
0.0000

> <Gold.Chemscore.Hbonds>
donor molecule, donor type, donor heavy atom, donor atom, acceptor molecule, acceptor atom, score
      L1  H     1    21       P1 10957  1.00
      L1  H     8    44       P1  7948  1.92
      P1  H 10752 10764       L1    17  0.94
      P1  H 11000 11005       L1     3  0.52
      L1  C    18    39       P1  7948  1.00

> <Gold.PLP.Chemscore.Internal.Correction>
0.0530

> <Gold.Rescore>
     Score         DG    S(hbond)    S(metal)    S(lipo)     H(rot)  DE(clash)    DE(int)     intcor
     17.30     -19.69       3.27        0.00      64.02       1.64       1.53       0.85       ----

> <Gold.Chemscore.Fitness>
17.3038

> <Gold.Chemscore.DG>
-19.6901

> <Gold.Chemscore.ZeroCoef>
-5.4800

> <Gold.Chemscore.Hbond>
3.2696

> <Gold.Chemscore.Metal>
0.0000

> <Gold.Chemscore.Lipo>
64.0244

> <Gold.Chemscore.Internal_Hbond>
0.0000

> <Gold.Chemscore.DEClash>
1.5323

> <Gold.Chemscore.DEInternal>
0.8540

> <Gold.Chemscore.Rot>
1.6411

> <Gold.Chemscore.Internal.Correction>
   9.000000E+99

> <Gold.Chemscore.Hbonds>
donor molecule, donor type, donor heavy atom, donor atom, acceptor molecule, acceptor atom, score
      L1  H     1    21       P1 10957  0.99
      L1  H     8    44       P1  7948  0.92
      P1  H 10752 10764       L1    17  0.52
      P1  H 11000 11005       L1     3  0.51

> <Gold.Chemscore.Hbond.Weighted>
-10.9206

> <Gold.Chemscore.Metal.Weighted>
-0.0000

> <Gold.Chemscore.Lipo.Weighted>
-7.4909

> <Gold.Chemscore.Internal_Hbond.Weighted>
0.0000

> <Gold.Chemscore.DEClash.Weighted>
1.5323

> <Gold.Chemscore.DEInternal.Weighted>
0.8540

> <Gold.Chemscore.Rot.Weighted>
4.2013

> <Gold.Chemscore.Internal.Correction.Weighted>
   9.000000E+99

> <Gold.Protein.RotatedTorsions>
[ 6907 6896 6895 6894 ] final -137.51 input  -60.11 | X-H torsion
[ 7974 7965 7964 7962 ] final  107.47 input  175.53 | X-H torsion
[ 8008 7997 7996 7995 ] final  124.04 input   59.86 | X-H torsion
[ 10167 10162 10161 10158 ] final -176.61 input  -65.29 | X-H torsion
[ 10718 10713 10712 10709 ] final    6.42 input   66.30 | X-H torsion
[ 10763 10752 10751 10750 ] final  -77.96 input  -60.55 | X-H torsion
[ 11005 11000 10999 10996 ] final    2.84 input  -57.11 | X-H torsion

> <Gold.Protein.ActiveResidues>
 VAL166  LYS551  ARG553  GLY616  TRP617  ASP618  TYR619  PRO620  LYS621  CYS622 
 ASP623  PHE694  ASN695  SER759  ASP760  ASP761  ALA762  ILE779  LEU786  VAL792 
 PHE793  MET794  SER795  GLU796  ALA797  LYS798  CYS799  TRP800  GLU811  SER814 

> <Gold.Protein.RotatedAtoms>
  151.0234  133.5856  159.2668 H   0  0  0  0  0  0  0  0  0  0  0  0  # atno 6907 bound_to 6896
  151.2964  135.0755  159.9232 H   0  0  0  0  0  0  0  0  0  0  0  0  # atno 6908 bound_to 6896
  152.5328  133.9923  159.7910 H   0  0  0  0  0  0  0  0  0  0  0  0  # atno 6909 bound_to 6896
  145.2933  139.2593  143.3853 H   0  0  0  0  0  0  0  0  0  0  0  0  # atno 7974 bound_to 7965
  156.2787  140.2749  156.1725 H   0  0  0  0  0  0  0  0  0  0  0  0  # atno 8008 bound_to 7997
  155.0640  140.0387  157.2604 H   0  0  0  0  0  0  0  0  0  0  0  0  # atno 8009 bound_to 7997
  154.7094  140.2665  155.6649 H   0  0  0  0  0  0  0  0  0  0  0  0  # atno 8010 bound_to 7997
  139.5521  144.2083  152.1095 H   0  0  0  0  0  0  0  0  0  0  0  0  # atno 10167 bound_to 10162
  156.9219  130.5794  149.5648 H   0  0  0  0  0  0  0  0  0  0  0  0  # atno 10718 bound_to 10713
  154.5197  135.5746  153.6671 H   0  0  0  0  0  0  0  0  0  0  0  0  # atno 10763 bound_to 10752
  152.9914  135.6179  154.2770 H   0  0  0  0  0  0  0  0  0  0  0  0  # atno 10764 bound_to 10752
  154.2690  135.2854  155.2726 H   0  0  0  0  0  0  0  0  0  0  0  0  # atno 10765 bound_to 10752
  140.5998  133.9846  155.8127 H   0  0  0  0  0  0  0  0  0  0  0  0  # atno 11005 bound_to 11000
  146.3177  140.3429  142.8649 LP  0  0  0  0  0  0  0  0  0  0  0  0  # atno 17320 bound_to 7965
  144.9155  140.7807  143.5781 LP  0  0  0  0  0  0  0  0  0  0  0  0  # atno 17321 bound_to 7965
  140.1580  144.5052  150.6649 LP  0  0  0  0  0  0  0  0  0  0  0  0  # atno 17342 bound_to 10162
  140.6786  143.2316  151.5444 LP  0  0  0  0  0  0  0  0  0  0  0  0  # atno 17343 bound_to 10162
  156.0487  130.5559  150.8940 LP  0  0  0  0  0  0  0  0  0  0  0  0  # atno 17370 bound_to 10713
  157.5902  131.0944  150.9131 LP  0  0  0  0  0  0  0  0  0  0  0  0  # atno 17371 bound_to 10713
  141.0879  133.9961  157.3283 LP  0  0  0  0  0  0  0  0  0  0  0  0  # atno 17394 bound_to 11000
  139.9237  135.0201  156.8158 LP  0  0  0  0  0  0  0  0  0  0  0  0  # atno 17395 bound_to 11000

$$$$
