AV-unprocessed.smi:18|AV-procd|sdf|107|dock7
  -GOLD-   2262015263D 1   1.00000     0.00000
 Structure written by MMmdl.
 47 50  0  0  0  0  0  0  0  0  1 V2000
  147.7089  138.7136  152.1583 O   0  0  0  0  0  0  0  0  0  0  0  0
  146.7823  139.2229  153.0961 C   0  0  0  0  0  0  0  0  0  0  0  0
  147.4397  139.4568  154.4677 C   0  0  0  0  0  0  0  0  0  0  0  0
  148.3229  140.7220  154.4458 C   0  0  0  0  0  0  0  0  0  0  0  0
  149.2882  140.7917  155.5322 N   0  0  0  0  0  0  0  0  0  0  0  0
  149.1142  141.4154  156.7484 C   0  0  0  0  0  0  0  0  0  0  0  0
  150.1271  141.3347  157.5676 N   0  0  0  0  0  0  0  0  0  0  0  0
  151.0770  140.6145  156.8555 C   0  0  0  0  0  0  0  0  0  0  0  0
  152.3934  140.1666  157.1438 C   0  0  0  0  0  0  0  0  0  0  0  0
  152.9947  140.4320  158.3284 N   0  0  0  0  0  0  0  0  0  0  0  0
  153.2314  139.1876  159.0533 C   0  0  0  0  0  0  0  0  0  0  0  0
  154.0672  139.4490  160.3122 C   0  0  0  0  0  0  0  0  0  0  0  0
  153.3977  140.4116  161.1139 O   0  0  0  0  0  0  0  0  0  0  0  0
  153.2687  141.6592  160.4431 C   0  0  0  0  0  0  0  0  0  0  0  0
  152.4260  141.5079  159.1544 C   0  0  1  0  0  0  0  0  0  0  0  0
  152.3513  142.8551  158.3889 C   0  0  0  0  0  0  0  0  0  0  0  0
  152.4058  144.0987  159.2896 C   0  0  0  0  0  0  0  0  0  0  0  0
  152.2370  145.1954  158.5516 F   0  0  0  0  0  0  0  0  0  0  0  0
  151.4498  144.0490  160.2167 F   0  0  0  0  0  0  0  0  0  0  0  0
  153.0568  139.4824  156.1737 N   0  0  0  0  0  0  0  0  0  0  0  0
  152.4611  139.2362  155.0030 C   0  0  0  0  0  0  0  0  0  0  0  0
  151.2353  139.5796  154.6017 N   0  0  0  0  0  0  0  0  0  0  0  0
  150.5711  140.2735  155.5701 C   0  0  0  0  0  0  0  0  0  0  0  0
  146.4772  139.3278  155.6573 C   0  0  0  0  0  0  0  0  0  0  0  0
  146.9310  137.9893  155.9489 O   0  0  0  0  0  0  0  0  0  0  0  0
  148.0748  138.2093  155.0969 C   0  0  0  0  0  0  0  0  0  0  0  0
  148.2107  139.4346  151.8098 H   0  0  0  0  0  0  0  0  0  0  0  0
  146.3358  140.1353  152.7010 H   0  0  0  0  0  0  0  0  0  0  0  0
  145.9671  138.5035  153.1810 H   0  0  0  0  0  0  0  0  0  0  0  0
  148.8736  140.7867  153.5065 H   0  0  0  0  0  0  0  0  0  0  0  0
  147.7055  141.6203  154.4810 H   0  0  0  0  0  0  0  0  0  0  0  0
  148.2006  141.9270  157.0146 H   0  0  0  0  0  0  0  0  0  0  0  0
  152.2753  138.7405  159.3302 H   0  0  0  0  0  0  0  0  0  0  0  0
  153.7489  138.4697  158.4152 H   0  0  0  0  0  0  0  0  0  0  0  0
  154.1846  138.5284  160.8841 H   0  0  0  0  0  0  0  0  0  0  0  0
  155.0688  139.7972  160.0546 H   0  0  0  0  0  0  0  0  0  0  0  0
  152.7936  142.3542  161.1341 H   0  0  0  0  0  0  0  0  0  0  0  0
  154.2583  142.0611  160.2191 H   0  0  0  0  0  0  0  0  0  0  0  0
  151.4173  141.2104  159.4446 H   0  0  0  0  0  0  0  0  0  0  0  0
  153.1622  142.9019  157.6607 H   0  0  0  0  0  0  0  0  0  0  0  0
  151.4305  142.9173  157.8096 H   0  0  0  0  0  0  0  0  0  0  0  0
  153.3620  144.2090  159.7995 H   0  0  0  0  0  0  0  0  0  0  0  0
  153.0508  138.6849  154.2855 H   0  0  0  0  0  0  0  0  0  0  0  0
  146.6905  140.0073  156.4832 H   0  0  0  0  0  0  0  0  0  0  0  0
  145.4221  139.3663  155.3839 H   0  0  0  0  0  0  0  0  0  0  0  0
  148.2410  137.3904  154.3962 H   0  0  0  0  0  0  0  0  0  0  0  0
  148.9766  138.4153  155.6758 H   0  0  0  0  0  0  0  0  0  0  0  0
  1  2  1  0  0  0  0
  1 27  1  0  0  0  0
  2  3  1  0  0  0  0
  2 28  1  0  0  0  0
  2 29  1  0  0  0  0
  3 26  1  0  0  0  0
  3  4  1  0  0  0  0
  3 24  1  0  0  0  0
  4  5  1  0  0  0  0
  4 30  1  0  0  0  0
  4 31  1  0  0  0  0
  5 23  1  0  0  0  0
  5  6  1  0  0  0  0
  6  7  2  0  0  0  0
  6 32  1  0  0  0  0
  7  8  1  0  0  0  0
  8 23  2  0  0  0  0
  8  9  1  0  0  0  0
  9 10  1  0  0  0  0
  9 20  2  0  0  0  0
 10 15  1  0  0  0  0
 10 11  1  0  0  0  0
 11 12  1  0  0  0  0
 11 33  1  0  0  0  0
 11 34  1  0  0  0  0
 12 13  1  0  0  0  0
 12 35  1  0  0  0  0
 12 36  1  0  0  0  0
 13 14  1  0  0  0  0
 14 15  1  0  0  0  0
 14 37  1  0  0  0  0
 14 38  1  0  0  0  0
 15 16  1  0  0  0  0
 15 39  1  0  0  0  0
 16 17  1  0  0  0  0
 16 40  1  0  0  0  0
 16 41  1  0  0  0  0
 17 18  1  0  0  0  0
 17 19  1  0  0  0  0
 17 42  1  0  0  0  0
 20 21  1  0  0  0  0
 21 22  2  0  0  0  0
 21 43  1  0  0  0  0
 22 23  1  0  0  0  0
 24 25  1  0  0  0  0
 24 44  1  0  0  0  0
 24 45  1  0  0  0  0
 25 26  1  0  0  0  0
 26 46  1  0  0  0  0
 26 47  1  0  0  0  0
M  END
> <s_m_source_file>
AV-unprocessed.smi

> <i_m_source_file_index>
18

> <i_lp_mmshare_version>
43012

> <i_f3d_flags>
0

> <s_epik_input>
W0NIMl0xT1tDSDJdQzEoW0NIMl1bT0hdKVtDSDJdbihbY0hdbjIpYyhjMjMpbltjSF1uYzNONFtDSDJdW0NIMl1PW0NIMl1bQ0BIXTRbQ0gyXVtDSF0oRilG

> <s_epik_cmdline>
J2VwaWtfcHl0aG9uJywgJy1waCcsICc3LjAnLCAnLXRuJywgJzgnLCAnLW1hJywgJzIwMCcsICctbWV0YWxfYmluZGluZycsICctaW1hZScsICc8aW5maWxlLm1hZT4nLCAnLW9tYWUnLCAnPG91dGZpbGUubWFlPic=

> <r_lp_tautomer_probability>
1

> <r_epik_Ionization_Penalty>
6.63711e-05

> <r_epik_Ionization_Penalty_Charging>
0

> <r_epik_Ionization_Penalty_Neutral>
6.63711e-05

> <r_epik_State_Penalty>
-0

> <r_epik_Charging_Adjusted_Penalty>
0

> <i_epik_Tot_Q>
0

> <i_epik_Tot_abs_Q>
0

> <r_epik_Metal_State_Penalty>
-0

> <b_epik_Metal_Only>
0

> <s_lp_Force_Field>
OPLS_2005

> <r_lp_Energy>
38.6486

> <b_lp_Chiralities_Consistent>
1

> <s_lp_Variant>
AV-unprocessed.smi:18-1

> <Gold.Version>
5.8.1

> <Gold.Id.Protein>
6NUR|6NUR_protein|mol2

> <Gold.PLP.Fitness>
49.2429

> <Gold.PLP.PLP>
-42.7727

> <Gold.PLP.part.hbond>
-4.6143

> <Gold.PLP.part.metal>
0.0000

> <Gold.PLP.part.buried>
-2.8727

> <Gold.PLP.part.nonpolar>
-35.3334

> <Gold.PLP.part.repulsive>
0.1392

> <Gold.PLP.ligand.clash>
0.0269

> <Gold.PLP.ligand.torsion>
1.5103

> <Gold.PLP.Chemscore.Hbond>
2.9920

> <Gold.PLP.Chemscore.CHOScore>
0.0000

> <Gold.PLP.Chemscore.Metal>
0.0000

> <Gold.Chemscore.Hbonds>
donor molecule, donor type, donor heavy atom, donor atom, acceptor molecule, acceptor atom, score
      L1  H     1    27       P1  7957  1.00
      P1  H  7989  7998       L1    22  0.95
      P1  H  7997  8010       L1    20  0.97

> <Gold.PLP.Chemscore.Internal.Correction>
0.5418

> <Gold.Rescore>
     Score         DG    S(hbond)    S(metal)    S(lipo)     H(rot)  DE(clash)    DE(int)     intcor
      8.23     -12.24       1.63        0.00      76.11       2.96       0.23       3.78       ----

> <Gold.Chemscore.Fitness>
8.2297

> <Gold.Chemscore.DG>
-12.2360

> <Gold.Chemscore.ZeroCoef>
-5.4800

> <Gold.Chemscore.Hbond>
1.6287

> <Gold.Chemscore.Metal>
0.0000

> <Gold.Chemscore.Lipo>
76.1088

> <Gold.Chemscore.Internal_Hbond>
0.0000

> <Gold.Chemscore.DEClash>
0.2264

> <Gold.Chemscore.DEInternal>
3.7800

> <Gold.Chemscore.Rot>
2.9643

> <Gold.Chemscore.Internal.Correction>
   9.000000E+99

> <Gold.Chemscore.Hbonds>
donor molecule, donor type, donor heavy atom, donor atom, acceptor molecule, acceptor atom, score
      L1  H     1    27       P1  7957  0.95
      P1  H  7989  7998       L1    22  0.06
      P1  H  7997  8010       L1    20  0.41

> <Gold.Chemscore.Hbond.Weighted>
-5.4399

> <Gold.Chemscore.Metal.Weighted>
-0.0000

> <Gold.Chemscore.Lipo.Weighted>
-8.9047

> <Gold.Chemscore.Internal_Hbond.Weighted>
0.0000

> <Gold.Chemscore.DEClash.Weighted>
0.2264

> <Gold.Chemscore.DEInternal.Weighted>
3.7800

> <Gold.Chemscore.Rot.Weighted>
7.5886

> <Gold.Chemscore.Internal.Correction.Weighted>
   9.000000E+99

> <Gold.Protein.RotatedTorsions>
[ 6907 6896 6895 6894 ] final  -52.08 input  -60.11 | X-H torsion
[ 7974 7965 7964 7962 ] final -112.69 input  175.53 | X-H torsion
[ 8008 7997 7996 7995 ] final   98.05 input   59.86 | X-H torsion
[ 10167 10162 10161 10158 ] final  -77.85 input  -65.29 | X-H torsion
[ 10718 10713 10712 10709 ] final  145.75 input   66.30 | X-H torsion
[ 10763 10752 10751 10750 ] final   45.80 input  -60.55 | X-H torsion
[ 11005 11000 10999 10996 ] final   93.27 input  -57.11 | X-H torsion

> <Gold.Protein.ActiveResidues>
 VAL166  LYS551  ARG553  GLY616  TRP617  ASP618  TYR619  PRO620  LYS621  CYS622 
 ASP623  PHE694  ASN695  SER759  ASP760  ASP761  ALA762  ILE779  LEU786  VAL792 
 PHE793  MET794  SER795  GLU796  ALA797  LYS798  CYS799  TRP800  GLU811  SER814 

> <Gold.Protein.RotatedAtoms>
  150.8551  134.7887  159.7038 H   0  0  0  0  0  0  0  0  0  0  0  0  # atno 6907 bound_to 6896
  152.4605  134.5192  159.9787 H   0  0  0  0  0  0  0  0  0  0  0  0  # atno 6908 bound_to 6896
  151.5306  133.3411  159.2953 H   0  0  0  0  0  0  0  0  0  0  0  0  # atno 6909 bound_to 6896
  145.1409  140.8777  143.3702 H   0  0  0  0  0  0  0  0  0  0  0  0  # atno 7974 bound_to 7965
  156.0965  140.3249  155.7884 H   0  0  0  0  0  0  0  0  0  0  0  0  # atno 8008 bound_to 7997
  155.4910  140.0561  157.2971 H   0  0  0  0  0  0  0  0  0  0  0  0  # atno 8009 bound_to 7997
  154.4669  140.1993  156.0109 H   0  0  0  0  0  0  0  0  0  0  0  0  # atno 8010 bound_to 7997
  140.4734  143.2420  151.8170 H   0  0  0  0  0  0  0  0  0  0  0  0  # atno 10167 bound_to 10162
  157.3415  131.0936  151.1078 H   0  0  0  0  0  0  0  0  0  0  0  0  # atno 10718 bound_to 10713
  152.9819  135.6028  154.3496 H   0  0  0  0  0  0  0  0  0  0  0  0  # atno 10763 bound_to 10752
  154.3187  135.2770  155.2532 H   0  0  0  0  0  0  0  0  0  0  0  0  # atno 10764 bound_to 10752
  154.4709  135.5942  153.6376 H   0  0  0  0  0  0  0  0  0  0  0  0  # atno 10765 bound_to 10752
  139.8812  134.8780  156.3694 H   0  0  0  0  0  0  0  0  0  0  0  0  # atno 11005 bound_to 11000
  145.0533  139.3164  143.5917 LP  0  0  0  0  0  0  0  0  0  0  0  0  # atno 17320 bound_to 7965
  146.3505  139.9949  142.8682 LP  0  0  0  0  0  0  0  0  0  0  0  0  # atno 17321 bound_to 7965
  139.4822  144.4863  151.9242 LP  0  0  0  0  0  0  0  0  0  0  0  0  # atno 17342 bound_to 10162
  140.3949  144.2568  150.5897 LP  0  0  0  0  0  0  0  0  0  0  0  0  # atno 17343 bound_to 10162
  157.2289  130.6516  149.5841 LP  0  0  0  0  0  0  0  0  0  0  0  0  # atno 17370 bound_to 10713
  155.9708  130.4605  150.6075 LP  0  0  0  0  0  0  0  0  0  0  0  0  # atno 17371 bound_to 10713
  140.9475  133.7473  156.0227 LP  0  0  0  0  0  0  0  0  0  0  0  0  # atno 17394 bound_to 11000
  140.8146  134.3360  157.5401 LP  0  0  0  0  0  0  0  0  0  0  0  0  # atno 17395 bound_to 11000

$$$$
