AV-unprocessed.smi:1478|AV-procd|sdf|5982|dock6
  -GOLD-   22720 6 73D 1   1.00000     0.00000
 Structure written by MMmdl.
 46 47  0  0  0  0  0  0  0  0  1 V2000
  152.1441  145.0141  158.8032 C   0  0  0  0  0  0  0  0  0  0  0  0
  151.4076  144.4286  157.7437 O   0  0  0  0  0  0  0  0  0  0  0  0
  150.6730  143.2895  158.1584 C   0  0  0  0  0  0  0  0  0  0  0  0
  151.5528  142.0420  157.9873 C   0  0  0  0  0  0  0  0  0  0  0  0
  151.1131  141.2237  156.8527 N   0  0  0  0  0  0  0  0  0  0  0  0
  149.9735  141.6962  156.2226 N   0  0  0  0  0  0  0  0  0  0  0  0
  149.4793  141.0599  155.2098 C   0  0  0  0  0  0  0  0  0  0  0  0
  148.2580  141.5357  154.5020 C   0  0  0  0  0  0  0  0  0  0  0  0
  148.0648  141.2991  153.3083 O   0  0  0  0  0  0  0  0  0  0  0  0
  147.3882  142.2292  155.2591 N   0  0  0  0  0  0  0  0  0  0  0  0
  146.1226  142.8038  154.8038 C   0  0  0  0  0  0  0  0  0  0  0  0
  144.9859  142.7606  155.8654 C   0  0  0  0  0  0  0  0  0  0  0  0
  144.8489  141.2728  156.2927 C   0  0  0  0  0  0  0  0  0  0  0  0
  144.5013  140.3691  155.3707 N   0  0  0  0  0  0  0  0  0  0  0  0
  145.0377  140.9387  157.4615 O   0  0  0  0  0  0  0  0  0  0  0  0
  145.2866  143.6987  157.0704 C   0  0  0  0  0  0  0  0  0  0  0  0
  144.0968  143.8067  158.0454 C   0  0  0  0  0  0  0  0  0  0  0  0
  142.9434  144.2662  157.3508 O   0  0  0  0  0  0  0  0  0  0  0  0
  142.5318  143.3870  156.3104 C   0  0  0  0  0  0  0  0  0  0  0  0
  143.6491  143.2683  155.2550 C   0  0  0  0  0  0  0  0  0  0  0  0
  150.1042  139.8429  154.7189 C   0  0  0  0  0  0  0  0  0  0  0  0
  151.2138  139.3936  155.3449 C   0  0  0  0  0  0  0  0  0  0  0  0
  151.7940  140.0945  156.4913 C   0  0  0  0  0  0  0  0  0  0  0  0
  152.8013  139.7028  157.0800 O   0  0  0  0  0  0  0  0  0  0  0  0
  152.6903  145.8820  158.4341 H   0  0  0  0  0  0  0  0  0  0  0  0
  152.8689  144.3112  159.2165 H   0  0  0  0  0  0  0  0  0  0  0  0
  151.4834  145.3479  159.6043 H   0  0  0  0  0  0  0  0  0  0  0  0
  150.3701  143.4037  159.2004 H   0  0  0  0  0  0  0  0  0  0  0  0
  149.7658  143.1926  157.5597 H   0  0  0  0  0  0  0  0  0  0  0  0
  152.5908  142.3489  157.8451 H   0  0  0  0  0  0  0  0  0  0  0  0
  151.5484  141.4517  158.9055 H   0  0  0  0  0  0  0  0  0  0  0  0
  147.6262  142.3731  156.2303 H   0  0  0  0  0  0  0  0  0  0  0  0
  146.3329  143.8387  154.5295 H   0  0  0  0  0  0  0  0  0  0  0  0
  145.7971  142.3184  153.8813 H   0  0  0  0  0  0  0  0  0  0  0  0
  144.4091  139.3969  155.6273 H   0  0  0  0  0  0  0  0  0  0  0  0
  144.3343  140.6626  154.4191 H   0  0  0  0  0  0  0  0  0  0  0  0
  146.1868  143.3888  157.6023 H   0  0  0  0  0  0  0  0  0  0  0  0
  145.4986  144.7056  156.7114 H   0  0  0  0  0  0  0  0  0  0  0  0
  143.8842  142.8559  158.5353 H   0  0  0  0  0  0  0  0  0  0  0  0
  144.3311  144.5187  158.8368 H   0  0  0  0  0  0  0  0  0  0  0  0
  142.2623  142.4142  156.7238 H   0  0  0  0  0  0  0  0  0  0  0  0
  141.6299  143.7912  155.8508 H   0  0  0  0  0  0  0  0  0  0  0  0
  143.7901  144.2539  154.8107 H   0  0  0  0  0  0  0  0  0  0  0  0
  143.3203  142.6257  154.4371 H   0  0  0  0  0  0  0  0  0  0  0  0
  149.6980  139.3045  153.8748 H   0  0  0  0  0  0  0  0  0  0  0  0
  151.6884  138.4903  154.9906 H   0  0  0  0  0  0  0  0  0  0  0  0
  1  2  1  0  0  0  0
  1 25  1  0  0  0  0
  1 26  1  0  0  0  0
  1 27  1  0  0  0  0
  2  3  1  0  0  0  0
  3  4  1  0  0  0  0
  3 28  1  0  0  0  0
  3 29  1  0  0  0  0
  4  5  1  0  0  0  0
  4 30  1  0  0  0  0
  4 31  1  0  0  0  0
  5 23  1  0  0  0  0
  5  6  1  0  0  0  0
  6  7  2  0  0  0  0
  7  8  1  0  0  0  0
  7 21  1  0  0  0  0
  8  9  2  0  0  0  0
  8 10  1  0  0  0  0
 10 11  1  0  0  0  0
 10 32  1  0  0  0  0
 11 12  1  0  0  0  0
 11 33  1  0  0  0  0
 11 34  1  0  0  0  0
 12 20  1  0  0  0  0
 12 13  1  0  0  0  0
 12 16  1  0  0  0  0
 13 14  1  0  0  0  0
 13 15  2  0  0  0  0
 14 35  1  0  0  0  0
 14 36  1  0  0  0  0
 16 17  1  0  0  0  0
 16 37  1  0  0  0  0
 16 38  1  0  0  0  0
 17 18  1  0  0  0  0
 17 39  1  0  0  0  0
 17 40  1  0  0  0  0
 18 19  1  0  0  0  0
 19 20  1  0  0  0  0
 19 41  1  0  0  0  0
 19 42  1  0  0  0  0
 20 43  1  0  0  0  0
 20 44  1  0  0  0  0
 21 22  2  0  0  0  0
 21 45  1  0  0  0  0
 22 23  1  0  0  0  0
 22 46  1  0  0  0  0
 23 24  2  0  0  0  0
M  END
> <s_m_source_file>
AV-unprocessed.smi

> <i_m_source_file_index>
1478

> <i_lp_mmshare_version>
43012

> <i_f3d_flags>
0

> <s_epik_input>
W0NIM11PW0NIMl1bQ0gyXW4xbmMoW2NIXVtjSF1jMT1PKUMoPU8pW05IXVtDSDJdQzIoQyg9TylbTkgyXSlbQ0gyXVtDSDJdT1tDSDJdW0NIMl0y

> <s_epik_cmdline>
J2VwaWtfcHl0aG9uJywgJy1waCcsICc3LjAnLCAnLXRuJywgJzgnLCAnLW1hJywgJzIwMCcsICctbWV0YWxfYmluZGluZycsICctaW1hZScsICc8aW5maWxlLm1hZT4nLCAnLW9tYWUnLCAnPG91dGZpbGUubWFlPic=

> <r_lp_tautomer_probability>
1

> <r_epik_Ionization_Penalty>
1.88897e-06

> <r_epik_Ionization_Penalty_Charging>
5.89949e-09

> <r_epik_Ionization_Penalty_Neutral>
1.88307e-06

> <r_epik_State_Penalty>
-0

> <r_epik_Charging_Adjusted_Penalty>
5.89949e-09

> <i_epik_Tot_Q>
0

> <i_epik_Tot_abs_Q>
0

> <r_epik_Metal_State_Penalty>
-0

> <b_epik_Metal_Only>
0

> <s_lp_Force_Field>
OPLS_2005

> <r_lp_Energy>
34.3796

> <b_lp_Chiralities_Consistent>
1

> <s_lp_Variant>
AV-unprocessed.smi:1478-1

> <Gold.Version>
5.8.1

> <Gold.Id.Protein>
6NUR|6NUR_protein|mol2

> <Gold.PLP.Fitness>
41.2906

> <Gold.PLP.PLP>
-35.4751

> <Gold.PLP.part.hbond>
-4.0000

> <Gold.PLP.part.metal>
0.0000

> <Gold.PLP.part.buried>
-3.2171

> <Gold.PLP.part.nonpolar>
-30.5246

> <Gold.PLP.part.repulsive>
2.4201

> <Gold.PLP.ligand.clash>
0.0000

> <Gold.PLP.ligand.torsion>
1.0958

> <Gold.PLP.Chemscore.Hbond>
2.6519

> <Gold.PLP.Chemscore.CHOScore>
0.0000

> <Gold.PLP.Chemscore.Metal>
0.0000

> <Gold.Chemscore.Hbonds>
donor molecule, donor type, donor heavy atom, donor atom, acceptor molecule, acceptor atom, score
      L1  H    14    36       P1 10175  0.99
      P1  H  7997  8008       L1    24  1.00
      P1  H  8011  8017       L1     9  0.31

> <Gold.PLP.Chemscore.Internal.Correction>
0.0515

> <Gold.Rescore>
     Score         DG    S(hbond)    S(metal)    S(lipo)     H(rot)  DE(clash)    DE(int)     intcor
     11.95     -14.84       2.43        0.00      69.50       2.69       1.51       1.38       ----

> <Gold.Chemscore.Fitness>
11.9477

> <Gold.Chemscore.DG>
-14.8375

> <Gold.Chemscore.ZeroCoef>
-5.4800

> <Gold.Chemscore.Hbond>
2.4321

> <Gold.Chemscore.Metal>
0.0000

> <Gold.Chemscore.Lipo>
69.5033

> <Gold.Chemscore.Internal_Hbond>
0.0000

> <Gold.Chemscore.DEClash>
1.5132

> <Gold.Chemscore.DEInternal>
1.3767

> <Gold.Chemscore.Rot>
2.6944

> <Gold.Chemscore.Internal.Correction>
   9.000000E+99

> <Gold.Chemscore.Hbonds>
donor molecule, donor type, donor heavy atom, donor atom, acceptor molecule, acceptor atom, score
      L1  H    14    36       P1 10175  0.91
      P1  H  7997  8008       L1    24  0.97
      P1  H  8011  8017       L1     9  0.11

> <Gold.Chemscore.Hbond.Weighted>
-8.1233

> <Gold.Chemscore.Metal.Weighted>
-0.0000

> <Gold.Chemscore.Lipo.Weighted>
-8.1319

> <Gold.Chemscore.Internal_Hbond.Weighted>
0.0000

> <Gold.Chemscore.DEClash.Weighted>
1.5132

> <Gold.Chemscore.DEInternal.Weighted>
1.3767

> <Gold.Chemscore.Rot.Weighted>
6.8976

> <Gold.Chemscore.Internal.Correction.Weighted>
   9.000000E+99

> <Gold.Protein.RotatedTorsions>
[ 6907 6896 6895 6894 ] final  116.06 input  -60.11 | X-H torsion
[ 7974 7965 7964 7962 ] final -115.35 input  175.53 | X-H torsion
[ 8008 7997 7996 7995 ] final  -49.92 input   59.86 | X-H torsion
[ 10167 10162 10161 10158 ] final  -60.05 input  -65.29 | X-H torsion
[ 10718 10713 10712 10709 ] final -128.69 input   66.30 | X-H torsion
[ 10763 10752 10751 10750 ] final -107.23 input  -60.55 | X-H torsion
[ 11005 11000 10999 10996 ] final  101.32 input  -57.11 | X-H torsion

> <Gold.Protein.ActiveResidues>
 VAL166  LYS551  ARG553  GLY616  TRP617  ASP618  TYR619  PRO620  LYS621  CYS622 
 ASP623  PHE694  ASN695  SER759  ASP760  ASP761  ALA762  ILE779  LEU786  VAL792 
 PHE793  MET794  SER795  GLU796  ALA797  LYS798  CYS799  TRP800  GLU811  SER814 

> <Gold.Protein.RotatedAtoms>
  152.4702  133.8012  159.6953 H   0  0  0  0  0  0  0  0  0  0  0  0  # atno 6907 bound_to 6896
  150.8687  133.7527  159.2975 H   0  0  0  0  0  0  0  0  0  0  0  0  # atno 6908 bound_to 6896
  151.5069  135.1067  159.9896 H   0  0  0  0  0  0  0  0  0  0  0  0  # atno 6909 bound_to 6896
  145.1095  140.8602  143.3878 H   0  0  0  0  0  0  0  0  0  0  0  0  # atno 7974 bound_to 7965
  154.4052  140.1285  156.4581 H   0  0  0  0  0  0  0  0  0  0  0  0  # atno 8008 bound_to 7997
  155.7300  140.3491  155.5035 H   0  0  0  0  0  0  0  0  0  0  0  0  # atno 8009 bound_to 7997
  155.9136  140.1040  157.1251 H   0  0  0  0  0  0  0  0  0  0  0  0  # atno 8010 bound_to 7997
  140.6096  143.2383  151.5740 H   0  0  0  0  0  0  0  0  0  0  0  0  # atno 10167 bound_to 10162
  156.1975  130.6835  151.0499 H   0  0  0  0  0  0  0  0  0  0  0  0  # atno 10718 bound_to 10713
  154.8062  135.4682  154.0399 H   0  0  0  0  0  0  0  0  0  0  0  0  # atno 10763 bound_to 10752
  153.1866  135.6848  153.8415 H   0  0  0  0  0  0  0  0  0  0  0  0  # atno 10764 bound_to 10752
  153.7947  135.3238  155.3360 H   0  0  0  0  0  0  0  0  0  0  0  0  # atno 10765 bound_to 10752
  139.8773  134.9178  156.4889 H   0  0  0  0  0  0  0  0  0  0  0  0  # atno 11005 bound_to 11000
  145.0863  139.2922  143.5757 LP  0  0  0  0  0  0  0  0  0  0  0  0  # atno 17320 bound_to 7965
  146.3527  140.0386  142.8644 LP  0  0  0  0  0  0  0  0  0  0  0  0  # atno 17321 bound_to 7965
  139.5351  144.2804  152.1234 LP  0  0  0  0  0  0  0  0  0  0  0  0  # atno 17342 bound_to 10162
  140.2000  144.4667  150.6436 LP  0  0  0  0  0  0  0  0  0  0  0  0  # atno 17343 bound_to 10162
  157.6966  131.0791  150.6950 LP  0  0  0  0  0  0  0  0  0  0  0  0  # atno 17370 bound_to 10713
  156.7007  130.4622  149.5574 LP  0  0  0  0  0  0  0  0  0  0  0  0  # atno 17371 bound_to 10713
  140.8673  133.8014  155.9327 LP  0  0  0  0  0  0  0  0  0  0  0  0  # atno 17394 bound_to 11000
  140.8988  134.2404  157.5053 LP  0  0  0  0  0  0  0  0  0  0  0  0  # atno 17395 bound_to 11000

$$$$
