AV-unprocessed.smi:2024|AV-procd|sdf|8191|dock1
  -GOLD-   2272010443D 1   1.00000     0.00000
 Structure written by MMmdl.
 44 45  0  0  0  0  0  0  0  0  2 V2000
  145.5463  131.1463  151.1457 C   0  0  0  0  0  0  0  0  0  0  0  0
  146.6678  132.0805  151.3973 N   0  3  0  0  0  0  0  0  0  0  0  0
  146.7702  132.5325  152.8036 C   0  0  0  0  0  0  0  0  0  0  0  0
  145.7031  133.5950  153.1345 C   0  0  0  0  0  0  0  0  0  0  0  0
  145.8443  134.7619  152.2473 N   0  0  0  0  0  0  0  0  0  0  0  0
  145.0254  135.9414  152.6403 C   0  0  0  0  0  0  0  0  0  0  0  0
  143.5531  135.7241  152.2066 C   0  0  0  0  0  0  0  0  0  0  0  0
  145.0542  136.1767  154.1698 C   0  0  0  0  0  0  0  0  0  0  0  0
  145.5464  137.2272  151.9300 C   0  0  0  0  0  0  0  0  0  0  0  0
  146.9110  137.5890  152.3166 N   0  0  0  0  0  0  0  0  0  0  0  0
  147.2546  138.6156  153.1080 C   0  0  0  0  0  0  0  0  0  0  0  0
  146.4394  139.3830  153.6201 O   0  0  0  0  0  0  0  0  0  0  0  0
  148.5893  138.6917  153.2512 N   0  0  0  0  0  0  0  0  0  0  0  0
  149.3393  139.6358  154.0006 C   0  0  0  0  0  0  0  0  0  0  0  0
  150.4934  139.3629  154.6203 N   0  0  0  0  0  0  0  0  0  0  0  0
  151.0116  140.4802  155.2798 C   0  0  0  0  0  0  0  0  0  0  0  0
  150.2327  141.6034  155.1518 C   0  0  0  0  0  0  0  0  0  0  0  0
  148.8105  141.3013  154.1898 S   0  0  0  0  0  0  0  0  0  0  0  0
  145.6323  134.2929  150.8674 C   0  0  0  0  0  0  0  0  0  0  0  0
  146.6967  133.2451  150.4836 C   0  0  0  0  0  0  0  0  0  0  0  0
  144.5771  131.6125  151.3232 H   0  0  0  0  0  0  0  0  0  0  0  0
  145.6260  130.2730  151.7936 H   0  0  0  0  0  0  0  0  0  0  0  0
  145.5685  130.7942  150.1140 H   0  0  0  0  0  0  0  0  0  0  0  0
  146.6814  131.6791  153.4769 H   0  0  0  0  0  0  0  0  0  0  0  0
  147.7649  132.9504  152.9660 H   0  0  0  0  0  0  0  0  0  0  0  0
  144.7040  133.1664  153.0547 H   0  0  0  0  0  0  0  0  0  0  0  0
  145.8424  133.8734  154.1763 H   0  0  0  0  0  0  0  0  0  0  0  0
  142.9825  136.6509  152.2780 H   0  0  0  0  0  0  0  0  0  0  0  0
  143.0322  135.0049  152.8383 H   0  0  0  0  0  0  0  0  0  0  0  0
  143.4787  135.3780  151.1750 H   0  0  0  0  0  0  0  0  0  0  0  0
  144.4325  137.0318  154.4378 H   0  0  0  0  0  0  0  0  0  0  0  0
  146.0567  136.3939  154.5377 H   0  0  0  0  0  0  0  0  0  0  0  0
  144.6694  135.3241  154.7288 H   0  0  0  0  0  0  0  0  0  0  0  0
  145.4825  137.1014  150.8476 H   0  0  0  0  0  0  0  0  0  0  0  0
  144.9024  138.0824  152.1314 H   0  0  0  0  0  0  0  0  0  0  0  0
  147.6514  137.0170  151.9386 H   0  0  0  0  0  0  0  0  0  0  0  0
  149.1340  137.9957  152.7644 H   0  0  0  0  0  0  0  0  0  0  0  0
  151.9431  140.3867  155.8179 H   0  0  0  0  0  0  0  0  0  0  0  0
  150.4090  142.5863  155.5631 H   0  0  0  0  0  0  0  0  0  0  0  0
  144.6307  133.8802  150.7478 H   0  0  0  0  0  0  0  0  0  0  0  0
  145.7232  135.1100  150.1550 H   0  0  0  0  0  0  0  0  0  0  0  0
  147.6881  133.6983  150.5255 H   0  0  0  0  0  0  0  0  0  0  0  0
  146.5538  132.9139  149.4543 H   0  0  0  0  0  0  0  0  0  0  0  0
  147.5048  131.5483  151.2072 H   0  0  0  0  0  0  0  0  0  0  0  0
  1  2  1  0  0  0  0
  1 21  1  0  0  0  0
  1 22  1  0  0  0  0
  1 23  1  0  0  0  0
  2 20  1  0  0  0  0
  2  3  1  0  0  0  0
  2 44  1  0  0  0  0
  3  4  1  0  0  0  0
  3 24  1  0  0  0  0
  3 25  1  0  0  0  0
  4  5  1  0  0  0  0
  4 26  1  0  0  0  0
  4 27  1  0  0  0  0
  5  6  1  0  0  0  0
  5 19  1  0  0  0  0
  6  7  1  0  0  0  0
  6  8  1  0  0  0  0
  6  9  1  0  0  0  0
  7 28  1  0  0  0  0
  7 29  1  0  0  0  0
  7 30  1  0  0  0  0
  8 31  1  0  0  0  0
  8 32  1  0  0  0  0
  8 33  1  0  0  0  0
  9 10  1  0  0  0  0
  9 34  1  0  0  0  0
  9 35  1  0  0  0  0
 10 11  1  0  0  0  0
 10 36  1  0  0  0  0
 11 12  2  0  0  0  0
 11 13  1  0  0  0  0
 13 14  1  0  0  0  0
 13 37  1  0  0  0  0
 14 18  1  0  0  0  0
 14 15  2  0  0  0  0
 15 16  1  0  0  0  0
 16 17  2  0  0  0  0
 16 38  1  0  0  0  0
 17 18  1  0  0  0  0
 17 39  1  0  0  0  0
 19 20  1  0  0  0  0
 19 40  1  0  0  0  0
 19 41  1  0  0  0  0
 20 42  1  0  0  0  0
 20 43  1  0  0  0  0
M  CHG  1   2   1
M  END
> <s_m_source_file>
AV-unprocessed.smi

> <i_m_source_file_index>
2024

> <i_lp_mmshare_version>
43012

> <i_f3d_flags>
0

> <s_epik_input>
W0NIM11OMVtDSDJdW0NIMl1OKFtDSDJdW0NIMl0xKUMoW0NIM10pKFtDSDNdKVtDSDJdW05IXUMoPU8pW05IXWMybltjSF1bY0hdczI=

> <s_epik_cmdline>
J2VwaWtfcHl0aG9uJywgJy1waCcsICc3LjAnLCAnLXRuJywgJzgnLCAnLW1hJywgJzIwMCcsICctbWV0YWxfYmluZGluZycsICctaW1hZScsICc8aW5maWxlLm1hZT4nLCAnLW9tYWUnLCAnPG91dGZpbGUubWFlPic=

> <r_lp_tautomer_probability>
0.999

> <r_epik_Ionization_Penalty>
0.025257

> <r_epik_Ionization_Penalty_Charging>
0.0242302

> <r_epik_Ionization_Penalty_Neutral>
0.00102675

> <r_epik_State_Penalty>
0.128805

> <r_epik_Charging_Adjusted_Penalty>
0.153036

> <i_epik_Tot_Q>
1

> <i_epik_Tot_abs_Q>
1

> <r_epik_Metal_State_Penalty>
0.161314

> <b_epik_Metal_Only>
0

> <s_lp_Force_Field>
OPLS_2005

> <r_lp_Energy>
25.0383

> <b_lp_Chiralities_Consistent>
1

> <s_lp_Variant>
AV-unprocessed.smi:2024-1

> <Gold.Version>
5.8.1

> <Gold.Id.Protein>
6NUR|6NUR_protein|mol2

> <Gold.PLP.Fitness>
41.3575

> <Gold.PLP.PLP>
-31.1436

> <Gold.PLP.part.hbond>
-4.0000

> <Gold.PLP.part.metal>
0.0000

> <Gold.PLP.part.buried>
-3.2572

> <Gold.PLP.part.nonpolar>
-24.0601

> <Gold.PLP.part.repulsive>
0.5266

> <Gold.PLP.ligand.clash>
0.0000

> <Gold.PLP.ligand.torsion>
0.6471

> <Gold.PLP.Chemscore.Hbond>
2.8008

> <Gold.PLP.Chemscore.CHOScore>
1.0000

> <Gold.PLP.Chemscore.Metal>
0.0000

> <Gold.Chemscore.Hbonds>
donor molecule, donor type, donor heavy atom, donor atom, acceptor molecule, acceptor atom, score
      L1  H     2    44       P1 10747  1.00
      L1  H    10    36       P1  7948  0.93
      L1  H    13    37       P1  7948  0.86
      L1  C    17    39       P1  8028  0.78

> <Gold.PLP.Chemscore.Internal.Correction>
0.1056

> <Gold.Rescore>
     Score         DG    S(hbond)    S(metal)    S(lipo)     H(rot)  DE(clash)    DE(int)     intcor
     17.10     -18.72       2.79        0.00      68.48       1.60       0.15       1.47       ----

> <Gold.Chemscore.Fitness>
17.1007

> <Gold.Chemscore.DG>
-18.7220

> <Gold.Chemscore.ZeroCoef>
-5.4800

> <Gold.Chemscore.Hbond>
2.7913

> <Gold.Chemscore.Metal>
0.0000

> <Gold.Chemscore.Lipo>
68.4848

> <Gold.Chemscore.Internal_Hbond>
0.0000

> <Gold.Chemscore.DEClash>
0.1485

> <Gold.Chemscore.DEInternal>
1.4727

> <Gold.Chemscore.Rot>
1.5991

> <Gold.Chemscore.Internal.Correction>
   9.000000E+99

> <Gold.Chemscore.Hbonds>
donor molecule, donor type, donor heavy atom, donor atom, acceptor molecule, acceptor atom, score
      L1  H     2    44       P1 10747  1.00
      L1  H    10    36       P1  7948  0.88
      L1  H    13    37       P1  7948  0.82

> <Gold.Chemscore.Hbond.Weighted>
-9.3228

> <Gold.Chemscore.Metal.Weighted>
-0.0000

> <Gold.Chemscore.Lipo.Weighted>
-8.0127

> <Gold.Chemscore.Internal_Hbond.Weighted>
0.0000

> <Gold.Chemscore.DEClash.Weighted>
0.1485

> <Gold.Chemscore.DEInternal.Weighted>
1.4727

> <Gold.Chemscore.Rot.Weighted>
4.0936

> <Gold.Chemscore.Internal.Correction.Weighted>
   9.000000E+99

> <Gold.Protein.RotatedTorsions>
[ 6907 6896 6895 6894 ] final   -7.68 input  -60.11 | X-H torsion
[ 7974 7965 7964 7962 ] final -126.95 input  175.53 | X-H torsion
[ 8008 7997 7996 7995 ] final  144.39 input   59.86 | X-H torsion
[ 10167 10162 10161 10158 ] final -161.15 input  -65.29 | X-H torsion
[ 10718 10713 10712 10709 ] final  -16.89 input   66.30 | X-H torsion
[ 10763 10752 10751 10750 ] final  -83.39 input  -60.55 | X-H torsion
[ 11005 11000 10999 10996 ] final -173.52 input  -57.11 | X-H torsion

> <Gold.Protein.ActiveResidues>
 VAL166  LYS551  ARG553  GLY616  TRP617  ASP618  TYR619  PRO620  LYS621  CYS622 
 ASP623  PHE694  ASN695  SER759  ASP760  ASP761  ALA762  ILE779  LEU786  VAL792 
 PHE793  MET794  SER795  GLU796  ALA797  LYS798  CYS799  TRP800  GLU811  SER814 

> <Gold.Protein.RotatedAtoms>
  151.4457  135.1025  159.9682 H   0  0  0  0  0  0  0  0  0  0  0  0  # atno 6907 bound_to 6896
  152.4906  133.8487  159.7201 H   0  0  0  0  0  0  0  0  0  0  0  0  # atno 6908 bound_to 6896
  150.9057  133.7002  159.2895 H   0  0  0  0  0  0  0  0  0  0  0  0  # atno 6909 bound_to 6896
  144.9820  140.7650  143.4606 H   0  0  0  0  0  0  0  0  0  0  0  0  # atno 7974 bound_to 7965
  156.2909  140.2237  156.5046 H   0  0  0  0  0  0  0  0  0  0  0  0  # atno 8008 bound_to 7997
  154.7660  140.0470  157.1034 H   0  0  0  0  0  0  0  0  0  0  0  0  # atno 8009 bound_to 7997
  154.9932  140.3092  155.4901 H   0  0  0  0  0  0  0  0  0  0  0  0  # atno 8010 bound_to 7997
  139.6486  144.0126  152.2145 H   0  0  0  0  0  0  0  0  0  0  0  0  # atno 10167 bound_to 10162
  156.5813  130.4775  149.6319 H   0  0  0  0  0  0  0  0  0  0  0  0  # atno 10718 bound_to 10713
  154.5872  135.5557  153.7243 H   0  0  0  0  0  0  0  0  0  0  0  0  # atno 10763 bound_to 10752
  153.0103  135.6334  154.1900 H   0  0  0  0  0  0  0  0  0  0  0  0  # atno 10764 bound_to 10752
  154.1841  135.2885  155.3023 H   0  0  0  0  0  0  0  0  0  0  0  0  # atno 10765 bound_to 10752
  140.4848  134.6041  157.4933 H   0  0  0  0  0  0  0  0  0  0  0  0  # atno 11005 bound_to 11000
  145.2407  139.2074  143.4994 LP  0  0  0  0  0  0  0  0  0  0  0  0  # atno 17320 bound_to 7965
  146.3410  140.2301  142.8593 LP  0  0  0  0  0  0  0  0  0  0  0  0  # atno 17321 bound_to 7965
  139.9834  144.6412  150.7880 LP  0  0  0  0  0  0  0  0  0  0  0  0  # atno 17342 bound_to 10162
  140.7527  143.2994  151.3119 LP  0  0  0  0  0  0  0  0  0  0  0  0  # atno 17343 bound_to 10162
  156.2629  130.6973  151.1747 LP  0  0  0  0  0  0  0  0  0  0  0  0  # atno 17370 bound_to 10713
  157.7326  131.0598  150.5621 LP  0  0  0  0  0  0  0  0  0  0  0  0  # atno 17371 bound_to 10713
  139.9804  134.7146  155.9869 LP  0  0  0  0  0  0  0  0  0  0  0  0  # atno 17394 bound_to 11000
  141.1513  133.6548  156.4023 LP  0  0  0  0  0  0  0  0  0  0  0  0  # atno 17395 bound_to 11000

$$$$
