AV-unprocessed.smi:1174|AV-procd|sdf|4948|dock7
  -GOLD-   22720 3533D 1   1.00000     0.00000
 Structure written by MMmdl.
 41 42  0  0  0  0  0  0  0  0  1 V2000
  152.2432  140.3306  158.4295 C   0  0  0  0  0  0  0  0  0  0  0  0
  151.6768  141.1125  157.2367 C   0  0  2  0  0  0  0  0  0  0  0  0
  150.6231  142.1459  157.6914 C   0  0  0  0  0  0  0  0  0  0  0  0
  151.1909  143.2079  158.5036 N   0  0  0  0  0  0  0  0  0  0  0  0
  151.1788  144.5668  158.2678 C   0  0  0  0  0  0  0  0  0  0  0  0
  151.8591  145.1628  159.2904 C   0  0  0  0  0  0  0  0  0  0  0  0
  152.2480  144.0720  160.1174 C   0  0  0  0  0  0  0  0  0  0  0  0
  151.8431  142.9037  159.6460 N   0  0  0  0  0  0  0  0  0  0  0  0
  151.0979  140.1671  156.2823 N   0  0  0  0  0  0  0  0  0  0  0  0
  151.7884  139.3615  155.4591 C   0  0  0  0  0  0  0  0  0  0  0  0
  153.0183  139.3082  155.4502 O   0  0  0  0  0  0  0  0  0  0  0  0
  150.9556  138.5122  154.4807 C   0  0  1  0  0  0  0  0  0  0  0  0
  151.1500  136.9951  154.7234 C   0  0  0  0  0  0  0  0  0  0  0  0
  150.3215  136.4548  155.9062 C   0  0  0  0  0  0  0  0  0  0  0  0
  148.8534  136.9005  155.7980 C   0  0  0  0  0  0  0  0  0  0  0  0
  148.7970  138.3711  155.7223 N   0  0  0  0  0  0  0  0  0  0  0  0
  148.2643  139.2065  156.6507 C   0  0  0  0  0  0  0  0  0  0  0  0
  147.7774  138.6124  157.7446 N   0  0  0  0  0  0  0  0  0  0  0  0
  148.2246  140.4297  156.5275 O   0  0  0  0  0  0  0  0  0  0  0  0
  149.4487  138.8731  154.5016 C   0  0  0  0  0  0  0  0  0  0  0  0
  152.7123  141.0012  159.1499 H   0  0  0  0  0  0  0  0  0  0  0  0
  153.0002  139.6150  158.1064 H   0  0  0  0  0  0  0  0  0  0  0  0
  151.4610  139.7771  158.9504 H   0  0  0  0  0  0  0  0  0  0  0  0
  152.5121  141.6421  156.7747 H   0  0  0  0  0  0  0  0  0  0  0  0
  150.1280  142.5932  156.8284 H   0  0  0  0  0  0  0  0  0  0  0  0
  149.8432  141.6553  158.2756 H   0  0  0  0  0  0  0  0  0  0  0  0
  150.7030  144.9897  157.3953 H   0  0  0  0  0  0  0  0  0  0  0  0
  152.0525  146.2163  159.4255 H   0  0  0  0  0  0  0  0  0  0  0  0
  152.8094  144.0944  161.0398 H   0  0  0  0  0  0  0  0  0  0  0  0
  150.0903  140.1445  156.2242 H   0  0  0  0  0  0  0  0  0  0  0  0
  151.3263  138.7294  153.4775 H   0  0  0  0  0  0  0  0  0  0  0  0
  150.8544  136.4604  153.8201 H   0  0  0  0  0  0  0  0  0  0  0  0
  152.2049  136.7609  154.8737 H   0  0  0  0  0  0  0  0  0  0  0  0
  150.3797  135.3664  155.9291 H   0  0  0  0  0  0  0  0  0  0  0  0
  150.7414  136.8006  156.8511 H   0  0  0  0  0  0  0  0  0  0  0  0
  148.4069  136.4833  154.8943 H   0  0  0  0  0  0  0  0  0  0  0  0
  148.2827  136.4754  156.6231 H   0  0  0  0  0  0  0  0  0  0  0  0
  147.3592  139.1688  158.4753 H   0  0  0  0  0  0  0  0  0  0  0  0
  147.8249  137.6077  157.8301 H   0  0  0  0  0  0  0  0  0  0  0  0
  149.3262  139.9496  154.3720 H   0  0  0  0  0  0  0  0  0  0  0  0
  148.9557  138.4260  153.6374 H   0  0  0  0  0  0  0  0  0  0  0  0
  1  2  1  0  0  0  0
  1 21  1  0  0  0  0
  1 22  1  0  0  0  0
  1 23  1  0  0  0  0
  2  3  1  0  0  0  0
  2  9  1  0  0  0  0
  2 24  1  0  0  0  0
  3  4  1  0  0  0  0
  3 25  1  0  0  0  0
  3 26  1  0  0  0  0
  4  8  1  0  0  0  0
  4  5  1  0  0  0  0
  5  6  2  0  0  0  0
  5 27  1  0  0  0  0
  6  7  1  0  0  0  0
  6 28  1  0  0  0  0
  7  8  2  0  0  0  0
  7 29  1  0  0  0  0
  9 10  1  0  0  0  0
  9 30  1  0  0  0  0
 10 11  2  0  0  0  0
 10 12  1  0  0  0  0
 12 20  1  0  0  0  0
 12 13  1  0  0  0  0
 12 31  1  0  0  0  0
 13 14  1  0  0  0  0
 13 32  1  0  0  0  0
 13 33  1  0  0  0  0
 14 15  1  0  0  0  0
 14 34  1  0  0  0  0
 14 35  1  0  0  0  0
 15 16  1  0  0  0  0
 15 36  1  0  0  0  0
 15 37  1  0  0  0  0
 16 17  1  0  0  0  0
 16 20  1  0  0  0  0
 17 18  1  0  0  0  0
 17 19  2  0  0  0  0
 18 38  1  0  0  0  0
 18 39  1  0  0  0  0
 20 40  1  0  0  0  0
 20 41  1  0  0  0  0
M  END
> <s_m_source_file>
AV-unprocessed.smi

> <i_m_source_file_index>
1174

> <i_lp_mmshare_version>
43012

> <i_f3d_flags>
0

> <s_epik_input>
bjFbY0hdW2NIXVtjSF1uMVtDSDJdW0NAQEhdKFtDSDNdKVtOSF1DKD1PKVtDQEBIXTJbQ0gyXVtDSDJdW0NIMl1OKFtDSDJdMilDKD1PKVtOSDJd

> <s_epik_cmdline>
J2VwaWtfcHl0aG9uJywgJy1waCcsICc3LjAnLCAnLXRuJywgJzgnLCAnLW1hJywgJzIwMCcsICctbWV0YWxfYmluZGluZycsICctaW1hZScsICc8aW5maWxlLm1hZT4nLCAnLW9tYWUnLCAnPG91dGZpbGUubWFlPic=

> <r_lp_tautomer_probability>
1

> <r_epik_Ionization_Penalty>
0.000372452

> <r_epik_Ionization_Penalty_Charging>
0

> <r_epik_Ionization_Penalty_Neutral>
0.000372452

> <r_epik_State_Penalty>
-0

> <r_epik_Charging_Adjusted_Penalty>
0

> <i_epik_Tot_Q>
0

> <i_epik_Tot_abs_Q>
0

> <r_epik_Metal_State_Penalty>
-0

> <b_epik_Metal_Only>
0

> <s_lp_Force_Field>
OPLS_2005

> <r_lp_Energy>
23.1922

> <b_lp_Chiralities_Consistent>
1

> <s_lp_Variant>
AV-unprocessed.smi:1174-3

> <Gold.Version>
5.8.1

> <Gold.Id.Protein>
6NUR|6NUR_protein|mol2

> <Gold.PLP.Fitness>
41.3246

> <Gold.PLP.PLP>
-35.8979

> <Gold.PLP.part.hbond>
-1.0000

> <Gold.PLP.part.metal>
0.0000

> <Gold.PLP.part.buried>
-6.8655

> <Gold.PLP.part.nonpolar>
-28.7607

> <Gold.PLP.part.repulsive>
0.2272

> <Gold.PLP.ligand.clash>
0.0000

> <Gold.PLP.ligand.torsion>
0.2961

> <Gold.PLP.Chemscore.Hbond>
1.0000

> <Gold.PLP.Chemscore.CHOScore>
0.9915

> <Gold.PLP.Chemscore.Metal>
0.0000

> <Gold.Chemscore.Hbonds>
donor molecule, donor type, donor heavy atom, donor atom, acceptor molecule, acceptor atom, score
      P1  H  7997  8009       L1    11  1.00
      L1  C     5    27       P1  8028  1.00

> <Gold.PLP.Chemscore.Internal.Correction>
0.0445

> <Gold.Rescore>
     Score         DG    S(hbond)    S(metal)    S(lipo)     H(rot)  DE(clash)    DE(int)     intcor
     12.44     -14.26       0.96        0.00      87.61       1.82       0.02       1.80       ----

> <Gold.Chemscore.Fitness>
12.4404

> <Gold.Chemscore.DG>
-14.2633

> <Gold.Chemscore.ZeroCoef>
-5.4800

> <Gold.Chemscore.Hbond>
0.9560

> <Gold.Chemscore.Metal>
0.0000

> <Gold.Chemscore.Lipo>
87.6138

> <Gold.Chemscore.Internal_Hbond>
0.0000

> <Gold.Chemscore.DEClash>
0.0212

> <Gold.Chemscore.DEInternal>
1.8017

> <Gold.Chemscore.Rot>
1.8206

> <Gold.Chemscore.Internal.Correction>
   9.000000E+99

> <Gold.Chemscore.Hbonds>
donor molecule, donor type, donor heavy atom, donor atom, acceptor molecule, acceptor atom, score
      P1  H  7997  8009       L1    11  1.00

> <Gold.Chemscore.Hbond.Weighted>
-3.1932

> <Gold.Chemscore.Metal.Weighted>
-0.0000

> <Gold.Chemscore.Lipo.Weighted>
-10.2508

> <Gold.Chemscore.Internal_Hbond.Weighted>
0.0000

> <Gold.Chemscore.DEClash.Weighted>
0.0212

> <Gold.Chemscore.DEInternal.Weighted>
1.8017

> <Gold.Chemscore.Rot.Weighted>
4.6607

> <Gold.Chemscore.Internal.Correction.Weighted>
   9.000000E+99

> <Gold.Protein.RotatedTorsions>
[ 6907 6896 6895 6894 ] final  -50.24 input  -60.11 | X-H torsion
[ 7974 7965 7964 7962 ] final -135.28 input  175.53 | X-H torsion
[ 8008 7997 7996 7995 ] final -145.54 input   59.86 | X-H torsion
[ 10167 10162 10161 10158 ] final  -16.58 input  -65.29 | X-H torsion
[ 10718 10713 10712 10709 ] final -169.60 input   66.30 | X-H torsion
[ 10763 10752 10751 10750 ] final -128.48 input  -60.55 | X-H torsion
[ 11005 11000 10999 10996 ] final -175.23 input  -57.11 | X-H torsion

> <Gold.Protein.ActiveResidues>
 VAL166  LYS551  ARG553  GLY616  TRP617  ASP618  TYR619  PRO620  LYS621  CYS622 
 ASP623  PHE694  ASN695  SER759  ASP760  ASP761  ALA762  ILE779  LEU786  VAL792 
 PHE793  MET794  SER795  GLU796  ALA797  LYS798  CYS799  TRP800  GLU811  SER814 

> <Gold.Protein.RotatedAtoms>
  150.8727  134.8103  159.7166 H   0  0  0  0  0  0  0  0  0  0  0  0  # atno 6907 bound_to 6896
  152.4725  134.4922  159.9708 H   0  0  0  0  0  0  0  0  0  0  0  0  # atno 6908 bound_to 6896
  151.5008  133.3466  159.2904 H   0  0  0  0  0  0  0  0  0  0  0  0  # atno 6909 bound_to 6896
  144.9028  140.6793  143.5074 H   0  0  0  0  0  0  0  0  0  0  0  0  # atno 7974 bound_to 7965
  155.5449  140.0611  157.2862 H   0  0  0  0  0  0  0  0  0  0  0  0  # atno 8008 bound_to 7997
  154.4440  140.1912  156.0672 H   0  0  0  0  0  0  0  0  0  0  0  0  # atno 8009 bound_to 7997
  156.0558  140.3278  155.7408 H   0  0  0  0  0  0  0  0  0  0  0  0  # atno 8010 bound_to 7997
  140.7236  143.5102  150.9760 H   0  0  0  0  0  0  0  0  0  0  0  0  # atno 10167 bound_to 10162
  156.7139  130.9244  151.3091 H   0  0  0  0  0  0  0  0  0  0  0  0  # atno 10718 bound_to 10713
  154.8756  135.3927  154.3763 H   0  0  0  0  0  0  0  0  0  0  0  0  # atno 10763 bound_to 10752
  153.4516  135.7028  153.6110 H   0  0  0  0  0  0  0  0  0  0  0  0  # atno 10764 bound_to 10752
  153.4648  135.3804  155.2327 H   0  0  0  0  0  0  0  0  0  0  0  0  # atno 10765 bound_to 10752
  140.4656  134.6213  157.4861 H   0  0  0  0  0  0  0  0  0  0  0  0  # atno 11005 bound_to 11000
  145.3587  139.1687  143.4395 LP  0  0  0  0  0  0  0  0  0  0  0  0  # atno 17320 bound_to 7965
  146.3117  140.3647  142.8668 LP  0  0  0  0  0  0  0  0  0  0  0  0  # atno 17321 bound_to 7965
  139.8815  143.7066  152.3156 LP  0  0  0  0  0  0  0  0  0  0  0  0  # atno 17342 bound_to 10162
  139.7350  144.7573  151.0742 LP  0  0  0  0  0  0  0  0  0  0  0  0  # atno 17343 bound_to 10162
  157.6925  130.9248  150.0553 LP  0  0  0  0  0  0  0  0  0  0  0  0  # atno 17370 bound_to 10713
  156.1642  130.3644  149.9256 LP  0  0  0  0  0  0  0  0  0  0  0  0  # atno 17371 bound_to 10713
  139.9917  134.6974  155.9678 LP  0  0  0  0  0  0  0  0  0  0  0  0  # atno 17394 bound_to 11000
  141.1601  133.6539  156.4290 LP  0  0  0  0  0  0  0  0  0  0  0  0  # atno 17395 bound_to 11000

$$$$
