AV-unprocessed.smi:637|AV-procd|sdf|3141|dock7
  -GOLD-   22720 0 63D 1   1.00000     0.00000
 Structure written by MMmdl.
 38 40  0  0  0  0  0  0  0  0  1 V2000
  144.6668  146.5442  152.9751 C   0  0  0  0  0  0  0  0  0  0  0  0
  145.3866  145.3813  153.5687 C   0  0  0  0  0  0  0  0  0  0  0  0
  145.2808  144.8931  154.8485 C   0  0  0  0  0  0  0  0  0  0  0  0
  146.1165  143.7633  155.0953 C   0  0  0  0  0  0  0  0  0  0  0  0
  146.8476  143.4154  153.9845 C   0  0  0  0  0  0  0  0  0  0  0  0
  147.7740  142.2949  154.0071 C   0  0  0  0  0  0  0  0  0  0  0  0
  147.5953  141.1479  153.1333 C   0  0  0  0  0  0  0  0  0  0  0  0
  148.4872  140.1351  153.1836 C   0  0  0  0  0  0  0  0  0  0  0  0
  149.6291  140.1594  154.0953 C   0  0  0  0  0  0  0  0  0  0  0  0
  150.4587  139.2525  154.1627 O   0  0  0  0  0  0  0  0  0  0  0  0
  149.6907  141.2826  154.8693 N   0  0  0  0  0  0  0  0  0  0  0  0
  150.7714  141.4822  155.8421 C   0  0  0  0  0  0  0  0  0  0  0  0
  150.3189  141.2063  157.2925 C   0  0  2  0  0  0  0  0  0  0  0  0
  148.9689  141.6051  157.4327 O   0  0  0  0  0  0  0  0  0  0  0  0
  151.2170  141.9288  158.2853 C   0  0  0  0  0  0  0  0  0  0  0  0
  151.8672  141.2012  159.3051 C   0  0  0  0  0  0  0  0  0  0  0  0
  152.7098  141.8606  160.2214 C   0  0  0  0  0  0  0  0  0  0  0  0
  152.9094  143.2508  160.1210 C   0  0  0  0  0  0  0  0  0  0  0  0
  152.2666  143.9816  159.1036 C   0  0  0  0  0  0  0  0  0  0  0  0
  152.4597  145.3181  159.0044 F   0  0  0  0  0  0  0  0  0  0  0  0
  151.4242  143.3228  158.1875 C   0  0  0  0  0  0  0  0  0  0  0  0
  148.7817  142.3240  154.8197 N   0  0  0  0  0  0  0  0  0  0  0  0
  146.5238  144.4527  152.6223 S   0  0  0  0  0  0  0  0  0  0  0  0
  144.0510  147.0482  153.7203 H   0  0  0  0  0  0  0  0  0  0  0  0
  144.0159  146.2218  152.1622 H   0  0  0  0  0  0  0  0  0  0  0  0
  145.3727  147.2724  152.5750 H   0  0  0  0  0  0  0  0  0  0  0  0
  144.6378  145.3059  155.6118 H   0  0  0  0  0  0  0  0  0  0  0  0
  146.1391  143.2738  156.0586 H   0  0  0  0  0  0  0  0  0  0  0  0
  146.7601  141.1034  152.4507 H   0  0  0  0  0  0  0  0  0  0  0  0
  148.3543  139.2829  152.5333 H   0  0  0  0  0  0  0  0  0  0  0  0
  151.5905  140.8086  155.5822 H   0  0  0  0  0  0  0  0  0  0  0  0
  151.1957  142.4851  155.7596 H   0  0  0  0  0  0  0  0  0  0  0  0
  150.3672  140.1376  157.5055 H   0  0  0  0  0  0  0  0  0  0  0  0
  148.9495  142.4549  157.8457 H   0  0  0  0  0  0  0  0  0  0  0  0
  151.7245  140.1335  159.3870 H   0  0  0  0  0  0  0  0  0  0  0  0
  153.2042  141.2994  161.0006 H   0  0  0  0  0  0  0  0  0  0  0  0
  153.5568  143.7559  160.8225 H   0  0  0  0  0  0  0  0  0  0  0  0
  150.9397  143.8911  157.4069 H   0  0  0  0  0  0  0  0  0  0  0  0
  1  2  1  0  0  0  0
  1 24  1  0  0  0  0
  1 25  1  0  0  0  0
  1 26  1  0  0  0  0
  2 23  1  0  0  0  0
  2  3  2  0  0  0  0
  3  4  1  0  0  0  0
  3 27  1  0  0  0  0
  4  5  2  0  0  0  0
  4 28  1  0  0  0  0
  5  6  1  0  0  0  0
  5 23  1  0  0  0  0
  6 22  2  0  0  0  0
  6  7  1  0  0  0  0
  7  8  2  0  0  0  0
  7 29  1  0  0  0  0
  8  9  1  0  0  0  0
  8 30  1  0  0  0  0
  9 10  2  0  0  0  0
  9 11  1  0  0  0  0
 11 12  1  0  0  0  0
 11 22  1  0  0  0  0
 12 13  1  0  0  0  0
 12 31  1  0  0  0  0
 12 32  1  0  0  0  0
 13 14  1  0  0  0  0
 13 15  1  0  0  0  0
 13 33  1  0  0  0  0
 14 34  1  0  0  0  0
 15 21  1  0  0  0  0
 15 16  2  0  0  0  0
 16 17  1  0  0  0  0
 16 35  1  0  0  0  0
 17 18  2  0  0  0  0
 17 36  1  0  0  0  0
 18 19  1  0  0  0  0
 18 37  1  0  0  0  0
 19 20  1  0  0  0  0
 19 21  2  0  0  0  0
 21 38  1  0  0  0  0
M  END
> <s_m_source_file>
AV-unprocessed.smi

> <i_m_source_file_index>
637

> <i_lp_mmshare_version>
43012

> <i_f3d_flags>
0

> <s_epik_input>
W0NIM11jMVtjSF1bY0hdYyhzMSktYzJbY0hdW2NIXWMoPU8pbihuMilbQ0gyXVtDQEhdKFtPSF0pYzNbY0hdW2NIXVtjSF1jKEYpW2NIXTM=

> <s_epik_cmdline>
J2VwaWtfcHl0aG9uJywgJy1waCcsICc3LjAnLCAnLXRuJywgJzgnLCAnLW1hJywgJzIwMCcsICctbWV0YWxfYmluZGluZycsICctaW1hZScsICc8aW5maWxlLm1hZT4nLCAnLW9tYWUnLCAnPG91dGZpbGUubWFlPic=

> <r_lp_tautomer_probability>
1

> <r_epik_Ionization_Penalty>
2.26963e-07

> <r_epik_Ionization_Penalty_Charging>
5.89185e-08

> <r_epik_Ionization_Penalty_Neutral>
1.68044e-07

> <r_epik_State_Penalty>
-0

> <r_epik_Charging_Adjusted_Penalty>
5.89185e-08

> <i_epik_Tot_Q>
0

> <i_epik_Tot_abs_Q>
0

> <r_epik_Metal_State_Penalty>
-0

> <b_epik_Metal_Only>
0

> <s_lp_Force_Field>
OPLS_2005

> <r_lp_Energy>
28.2523

> <b_lp_Chiralities_Consistent>
1

> <s_lp_Variant>
AV-unprocessed.smi:637-1

> <Gold.Version>
5.8.1

> <Gold.Id.Protein>
6NUR|6NUR_protein|mol2

> <Gold.PLP.Fitness>
50.6871

> <Gold.PLP.PLP>
-52.3156

> <Gold.PLP.part.hbond>
-1.0000

> <Gold.PLP.part.metal>
0.0000

> <Gold.PLP.part.buried>
-2.7661

> <Gold.PLP.part.nonpolar>
-51.8865

> <Gold.PLP.part.repulsive>
2.6748

> <Gold.PLP.ligand.clash>
0.0000

> <Gold.PLP.ligand.torsion>
1.7204

> <Gold.PLP.Chemscore.Hbond>
0.6000

> <Gold.PLP.Chemscore.CHOScore>
0.0000

> <Gold.PLP.Chemscore.Metal>
0.0000

> <Gold.PLP.Chemscore.Internal.Correction>
0.0125

> <Gold.Rescore>
     Score         DG    S(hbond)    S(metal)    S(lipo)     H(rot)  DE(clash)    DE(int)     intcor
     11.81     -16.01       0.00        0.00     129.85       1.82       0.87       3.32       ----

> <Gold.Chemscore.Fitness>
11.8139

> <Gold.Chemscore.DG>
-16.0075

> <Gold.Chemscore.ZeroCoef>
-5.4800

> <Gold.Chemscore.Hbond>
0.0000

> <Gold.Chemscore.Metal>
0.0000

> <Gold.Chemscore.Lipo>
129.8498

> <Gold.Chemscore.Internal_Hbond>
0.0000

> <Gold.Chemscore.DEClash>
0.8698

> <Gold.Chemscore.DEInternal>
3.3238

> <Gold.Chemscore.Rot>
1.8222

> <Gold.Chemscore.Internal.Correction>
   9.000000E+99

> <Gold.Chemscore.Hbond.Weighted>
-0.0000

> <Gold.Chemscore.Metal.Weighted>
-0.0000

> <Gold.Chemscore.Lipo.Weighted>
-15.1924

> <Gold.Chemscore.Internal_Hbond.Weighted>
0.0000

> <Gold.Chemscore.DEClash.Weighted>
0.8698

> <Gold.Chemscore.DEInternal.Weighted>
3.3238

> <Gold.Chemscore.Rot.Weighted>
4.6649

> <Gold.Chemscore.Internal.Correction.Weighted>
   9.000000E+99

> <Gold.Protein.RotatedTorsions>
[ 6907 6896 6895 6894 ] final  -93.76 input  -60.11 | X-H torsion
[ 7974 7965 7964 7962 ] final  129.69 input  175.53 | X-H torsion
[ 8008 7997 7996 7995 ] final  -89.24 input   59.86 | X-H torsion
[ 10167 10162 10161 10158 ] final -153.26 input  -65.29 | X-H torsion
[ 10718 10713 10712 10709 ] final  106.61 input   66.30 | X-H torsion
[ 10763 10752 10751 10750 ] final -128.28 input  -60.55 | X-H torsion
[ 11005 11000 10999 10996 ] final  162.59 input  -57.11 | X-H torsion

> <Gold.Protein.ActiveResidues>
 VAL166  LYS551  ARG553  GLY616  TRP617  ASP618  TYR619  PRO620  LYS621  CYS622 
 ASP623  PHE694  ASN695  SER759  ASP760  ASP761  ALA762  ILE779  LEU786  VAL792 
 PHE793  MET794  SER795  GLU796  ALA797  LYS798  CYS799  TRP800  GLU811  SER814 

> <Gold.Protein.RotatedAtoms>
  150.6928  134.1917  159.4287 H   0  0  0  0  0  0  0  0  0  0  0  0  # atno 6907 bound_to 6896
  151.9887  134.9988  160.0570 H   0  0  0  0  0  0  0  0  0  0  0  0  # atno 6908 bound_to 6896
  152.1688  133.4594  159.4935 H   0  0  0  0  0  0  0  0  0  0  0  0  # atno 6909 bound_to 6896
  145.0259  139.4089  143.5174 H   0  0  0  0  0  0  0  0  0  0  0  0  # atno 7974 bound_to 7965
  154.6843  140.0544  157.0298 H   0  0  0  0  0  0  0  0  0  0  0  0  # atno 8008 bound_to 7997
  155.0907  140.3219  155.4555 H   0  0  0  0  0  0  0  0  0  0  0  0  # atno 8009 bound_to 7997
  156.2705  140.2048  156.6035 H   0  0  0  0  0  0  0  0  0  0  0  0  # atno 8010 bound_to 7997
  139.7112  143.9106  152.2468 H   0  0  0  0  0  0  0  0  0  0  0  0  # atno 10167 bound_to 10162
  157.6661  131.0854  150.6033 H   0  0  0  0  0  0  0  0  0  0  0  0  # atno 10718 bound_to 10713
  154.8756  135.3934  154.3730 H   0  0  0  0  0  0  0  0  0  0  0  0  # atno 10763 bound_to 10752
  153.4487  135.7028  153.6127 H   0  0  0  0  0  0  0  0  0  0  0  0  # atno 10764 bound_to 10752
  153.4677  135.3797  155.2342 H   0  0  0  0  0  0  0  0  0  0  0  0  # atno 10765 bound_to 10752
  140.2273  134.8150  157.3282 H   0  0  0  0  0  0  0  0  0  0  0  0  # atno 11005 bound_to 11000
  146.3492  139.9783  142.8698 LP  0  0  0  0  0  0  0  0  0  0  0  0  # atno 17320 bound_to 7965
  145.1834  140.9778  143.4253 LP  0  0  0  0  0  0  0  0  0  0  0  0  # atno 17321 bound_to 7965
  139.8975  144.6930  150.8702 LP  0  0  0  0  0  0  0  0  0  0  0  0  # atno 17342 bound_to 10162
  140.7733  143.3539  151.1960 LP  0  0  0  0  0  0  0  0  0  0  0  0  # atno 17343 bound_to 10162
  156.6333  130.4438  149.5778 LP  0  0  0  0  0  0  0  0  0  0  0  0  # atno 17370 bound_to 10713
  156.2265  130.6768  151.1421 LP  0  0  0  0  0  0  0  0  0  0  0  0  # atno 17371 bound_to 10713
  140.1787  134.4517  155.7786 LP  0  0  0  0  0  0  0  0  0  0  0  0  # atno 17394 bound_to 11000
  141.2220  133.6974  156.7831 LP  0  0  0  0  0  0  0  0  0  0  0  0  # atno 17395 bound_to 11000

$$$$
