AV-unprocessed.smi:17|AV-procd|sdf|102|dock2
  -GOLD-   2262015253D 1   1.00000     0.00000
 Structure written by MMmdl.
 57 59  0  0  0  0  0  0  0  0  1 V2000
  146.8567  137.1026  162.9270 C   0  0  0  0  0  0  0  0  0  0  0  0
  147.5109  135.7338  162.6906 C   0  0  0  0  0  0  0  0  0  0  0  0
  147.2252  135.1999  161.3556 N   0  0  0  0  0  0  0  0  0  0  0  0
  147.1239  136.0730  160.3163 C   0  0  0  0  0  0  0  0  0  0  0  0
  145.8864  136.5228  159.9783 N   0  0  0  0  0  0  0  0  0  0  0  0
  145.7269  137.3876  158.9736 C   0  0  0  0  0  0  0  0  0  0  0  0
  146.6543  137.9186  158.1767 N   0  0  0  0  0  0  0  0  0  0  0  0
  147.8981  137.4605  158.4936 C   0  0  0  0  0  0  0  0  0  0  0  0
  148.2225  136.5451  159.5368 C   0  0  0  0  0  0  0  0  0  0  0  0
  149.5928  136.3036  159.5324 N   0  0  0  0  0  0  0  0  0  0  0  0
  150.0505  137.0416  158.5593 C   0  0  0  0  0  0  0  0  0  0  0  0
  149.0996  137.7632  157.8770 N   0  0  0  0  0  0  0  0  0  0  0  0
  149.3327  138.6501  156.7503 C   0  0  0  0  0  0  0  0  0  0  0  0
  150.8353  138.9232  156.4929 C   0  0  1  0  0  0  0  0  0  0  0  0
  151.2098  138.8356  154.9930 C   0  0  0  0  0  0  0  0  0  0  0  0
  150.3958  139.6819  154.2072 O   0  0  0  0  0  0  0  0  0  0  0  0
  151.2939  140.2577  157.1339 C   0  0  1  0  0  0  0  0  0  0  0  0
  150.5939  141.4964  156.6031 C   0  0  0  0  0  0  0  0  0  0  0  0
  150.8898  142.5183  157.6939 C   0  0  0  0  0  0  0  0  0  0  0  0
  150.8951  141.7803  158.9098 O   0  0  0  0  0  0  0  0  0  0  0  0
  150.9946  140.3864  158.6322 C   0  0  0  0  0  0  0  0  0  0  0  0
  146.9399  133.7753  161.1499 C   0  0  2  0  0  0  0  0  0  0  0  0
  145.4672  133.4507  161.4512 C   0  0  0  0  0  0  0  0  0  0  0  0
  147.8961  132.8549  161.9393 C   0  0  0  0  0  0  0  0  0  0  0  0
  147.9336  131.1174  161.2991 S   0  0  0  0  0  0  0  0  0  0  0  0
  149.1894  130.3141  162.3790 C   0  0  0  0  0  0  0  0  0  0  0  0
  146.6339  130.4973  161.5974 O   0  0  0  0  0  0  0  0  0  0  0  0
  148.4447  131.1170  159.9198 O   0  0  0  0  0  0  0  0  0  0  0  0
  147.0650  137.4593  163.9357 H   0  0  0  0  0  0  0  0  0  0  0  0
  145.7742  137.0510  162.8112 H   0  0  0  0  0  0  0  0  0  0  0  0
  147.2327  137.8508  162.2288 H   0  0  0  0  0  0  0  0  0  0  0  0
  148.5871  135.8019  162.8507 H   0  0  0  0  0  0  0  0  0  0  0  0
  147.1461  135.0395  163.4463 H   0  0  0  0  0  0  0  0  0  0  0  0
  144.7108  137.6982  158.7803 H   0  0  0  0  0  0  0  0  0  0  0  0
  151.0998  137.0735  158.3042 H   0  0  0  0  0  0  0  0  0  0  0  0
  148.8677  138.2206  155.8623 H   0  0  0  0  0  0  0  0  0  0  0  0
  148.8025  139.5806  156.9533 H   0  0  0  0  0  0  0  0  0  0  0  0
  151.3875  138.1244  156.9905 H   0  0  0  0  0  0  0  0  0  0  0  0
  152.2520  139.1128  154.8366 H   0  0  0  0  0  0  0  0  0  0  0  0
  151.1143  137.8150  154.6224 H   0  0  0  0  0  0  0  0  0  0  0  0
  149.4941  139.5513  154.4586 H   0  0  0  0  0  0  0  0  0  0  0  0
  152.3675  140.3852  156.9840 H   0  0  0  0  0  0  0  0  0  0  0  0
  150.9597  141.8150  155.6265 H   0  0  0  0  0  0  0  0  0  0  0  0
  149.5187  141.3275  156.5290 H   0  0  0  0  0  0  0  0  0  0  0  0
  151.8788  142.9545  157.5471 H   0  0  0  0  0  0  0  0  0  0  0  0
  150.1614  143.3291  157.7188 H   0  0  0  0  0  0  0  0  0  0  0  0
  150.0382  139.9231  158.8789 H   0  0  0  0  0  0  0  0  0  0  0  0
  151.7629  139.9198  159.2491 H   0  0  0  0  0  0  0  0  0  0  0  0
  147.1013  133.5256  160.1031 H   0  0  0  0  0  0  0  0  0  0  0  0
  145.2369  132.4146  161.2023 H   0  0  0  0  0  0  0  0  0  0  0  0
  144.7970  134.0831  160.8685 H   0  0  0  0  0  0  0  0  0  0  0  0
  145.2303  133.5965  162.5054 H   0  0  0  0  0  0  0  0  0  0  0  0
  148.9145  133.2387  161.9850 H   0  0  0  0  0  0  0  0  0  0  0  0
  147.5460  132.7881  162.9696 H   0  0  0  0  0  0  0  0  0  0  0  0
  149.2273  129.2487  162.1529 H   0  0  0  0  0  0  0  0  0  0  0  0
  148.9155  130.4501  163.4248 H   0  0  0  0  0  0  0  0  0  0  0  0
  150.1709  130.7468  162.1995 H   0  0  0  0  0  0  0  0  0  0  0  0
  1  2  1  0  0  0  0
  1 29  1  0  0  0  0
  1 30  1  0  0  0  0
  1 31  1  0  0  0  0
  2  3  1  0  0  0  0
  2 32  1  0  0  0  0
  2 33  1  0  0  0  0
  3  4  1  0  0  0  0
  3 22  1  0  0  0  0
  4  9  1  0  0  0  0
  4  5  2  0  0  0  0
  5  6  1  0  0  0  0
  6  7  2  0  0  0  0
  6 34  1  0  0  0  0
  7  8  1  0  0  0  0
  8 12  1  0  0  0  0
  8  9  2  0  0  0  0
  9 10  1  0  0  0  0
 10 11  2  0  0  0  0
 11 12  1  0  0  0  0
 11 35  1  0  0  0  0
 12 13  1  0  0  0  0
 13 14  1  0  0  0  0
 13 36  1  0  0  0  0
 13 37  1  0  0  0  0
 14 15  1  0  0  0  0
 14 17  1  0  0  0  0
 14 38  1  0  0  0  0
 15 16  1  0  0  0  0
 15 39  1  0  0  0  0
 15 40  1  0  0  0  0
 16 41  1  0  0  0  0
 17 21  1  0  0  0  0
 17 18  1  0  0  0  0
 17 42  1  0  0  0  0
 18 19  1  0  0  0  0
 18 43  1  0  0  0  0
 18 44  1  0  0  0  0
 19 20  1  0  0  0  0
 19 45  1  0  0  0  0
 19 46  1  0  0  0  0
 20 21  1  0  0  0  0
 21 47  1  0  0  0  0
 21 48  1  0  0  0  0
 22 23  1  0  0  0  0
 22 24  1  0  0  0  0
 22 49  1  0  0  0  0
 23 50  1  0  0  0  0
 23 51  1  0  0  0  0
 23 52  1  0  0  0  0
 24 25  1  0  0  0  0
 24 53  1  0  0  0  0
 24 54  1  0  0  0  0
 25 26  1  0  0  0  0
 25 27  2  0  0  0  0
 25 28  2  0  0  0  0
 26 55  1  0  0  0  0
 26 56  1  0  0  0  0
 26 57  1  0  0  0  0
M  END
> <s_m_source_file>
AV-unprocessed.smi

> <i_m_source_file_index>
17

> <i_lp_mmshare_version>
43012

> <i_f3d_flags>
0

> <s_epik_input>
W0NIM11TKD1PKSg9TylbQ0gyXVtDQEBIXShbQ0gzXSlOKFtDSDJdW0NIM10pYyhuW2NIXW4xKWMoYzEyKW5bY0hdbjJbQ0gyXVtDQEhdKFtDSDJdW09IXSlbQ0BASF0zW0NIMl1bQ0gyXU9bQ0gyXTM=

> <s_epik_cmdline>
J2VwaWtfcHl0aG9uJywgJy1waCcsICc3LjAnLCAnLXRuJywgJzgnLCAnLW1hJywgJzIwMCcsICctbWV0YWxfYmluZGluZycsICctaW1hZScsICc8aW5maWxlLm1hZT4nLCAnLW9tYWUnLCAnPG91dGZpbGUubWFlPic=

> <r_lp_tautomer_probability>
1

> <r_epik_Ionization_Penalty>
0.00119955

> <r_epik_Ionization_Penalty_Charging>
0

> <r_epik_Ionization_Penalty_Neutral>
0.00119955

> <r_epik_State_Penalty>
0.000665399

> <r_epik_Charging_Adjusted_Penalty>
0.000665399

> <i_epik_Tot_Q>
0

> <i_epik_Tot_abs_Q>
0

> <r_epik_Metal_State_Penalty>
-0

> <b_epik_Metal_Only>
0

> <s_lp_Force_Field>
OPLS_2005

> <r_lp_Energy>
33.4806

> <b_lp_Chiralities_Consistent>
1

> <s_lp_Variant>
AV-unprocessed.smi:17-4

> <Gold.Version>
5.8.1

> <Gold.Id.Protein>
6NUR|6NUR_protein|mol2

> <Gold.PLP.Fitness>
45.2157

> <Gold.PLP.PLP>
-44.2565

> <Gold.PLP.part.hbond>
-2.2730

> <Gold.PLP.part.metal>
0.0000

> <Gold.PLP.part.buried>
-6.7949

> <Gold.PLP.part.nonpolar>
-34.8756

> <Gold.PLP.part.repulsive>
0.0282

> <Gold.PLP.ligand.clash>
0.0000

> <Gold.PLP.ligand.torsion>
3.3007

> <Gold.PLP.Chemscore.Hbond>
2.0000

> <Gold.PLP.Chemscore.CHOScore>
0.0000

> <Gold.PLP.Chemscore.Metal>
0.0000

> <Gold.Chemscore.Hbonds>
donor molecule, donor type, donor heavy atom, donor atom, acceptor molecule, acceptor atom, score
      P1  H  6896  6908       L1    10  1.00
      P1  H  7989  7998       L1    16  1.00

> <Gold.PLP.Chemscore.Internal.Correction>
1.5606

> <Gold.Rescore>
     Score         DG    S(hbond)    S(metal)    S(lipo)     H(rot)  DE(clash)    DE(int)     intcor
      9.29     -12.98       1.71        0.00      91.94       3.51       0.10       3.59       ----

> <Gold.Chemscore.Fitness>
9.2941

> <Gold.Chemscore.DG>
-12.9826

> <Gold.Chemscore.ZeroCoef>
-5.4800

> <Gold.Chemscore.Hbond>
1.7127

> <Gold.Chemscore.Metal>
0.0000

> <Gold.Chemscore.Lipo>
91.9430

> <Gold.Chemscore.Internal_Hbond>
0.0000

> <Gold.Chemscore.DEClash>
0.0998

> <Gold.Chemscore.DEInternal>
3.5887

> <Gold.Chemscore.Rot>
3.5059

> <Gold.Chemscore.Internal.Correction>
   9.000000E+99

> <Gold.Chemscore.Hbonds>
donor molecule, donor type, donor heavy atom, donor atom, acceptor molecule, acceptor atom, score
      P1  H  6896  6908       L1    10  0.55
      P1  H  7989  7998       L1    16  0.39

> <Gold.Chemscore.Hbond.Weighted>
-5.7203

> <Gold.Chemscore.Metal.Weighted>
-0.0000

> <Gold.Chemscore.Lipo.Weighted>
-10.7573

> <Gold.Chemscore.Internal_Hbond.Weighted>
0.0000

> <Gold.Chemscore.DEClash.Weighted>
0.0998

> <Gold.Chemscore.DEInternal.Weighted>
3.5887

> <Gold.Chemscore.Rot.Weighted>
8.9750

> <Gold.Chemscore.Internal.Correction.Weighted>
   9.000000E+99

> <Gold.Protein.RotatedTorsions>
[ 6907 6896 6895 6894 ] final -177.28 input  -60.11 | X-H torsion
[ 7974 7965 7964 7962 ] final  -83.08 input  175.53 | X-H torsion
[ 8008 7997 7996 7995 ] final -133.91 input   59.86 | X-H torsion
[ 10167 10162 10161 10158 ] final   65.82 input  -65.29 | X-H torsion
[ 10718 10713 10712 10709 ] final  -85.74 input   66.30 | X-H torsion
[ 10763 10752 10751 10750 ] final  -22.64 input  -60.55 | X-H torsion
[ 11005 11000 10999 10996 ] final  -35.89 input  -57.11 | X-H torsion

> <Gold.Protein.ActiveResidues>
 VAL166  LYS551  ARG553  GLY616  TRP617  ASP618  TYR619  PRO620  LYS621  CYS622 
 ASP623  PHE694  ASN695  SER759  ASP760  ASP761  ALA762  ILE779  LEU786  VAL792 
 PHE793  MET794  SER795  GLU796  ALA797  LYS798  CYS799  TRP800  GLU811  SER814 

> <Gold.Protein.RotatedAtoms>
  151.6184  133.3341  159.3082 H   0  0  0  0  0  0  0  0  0  0  0  0  # atno 6907 bound_to 6896
  150.8119  134.7282  159.6707 H   0  0  0  0  0  0  0  0  0  0  0  0  # atno 6908 bound_to 6896
  152.4216  134.5950  160.0036 H   0  0  0  0  0  0  0  0  0  0  0  0  # atno 6909 bound_to 6896
  145.5248  140.9527  143.1635 H   0  0  0  0  0  0  0  0  0  0  0  0  # atno 7974 bound_to 7965
  155.3534  140.0478  157.3046 H   0  0  0  0  0  0  0  0  0  0  0  0  # atno 8008 bound_to 7997
  154.5215  140.2227  155.8930 H   0  0  0  0  0  0  0  0  0  0  0  0  # atno 8009 bound_to 7997
  156.1695  140.3099  155.8954 H   0  0  0  0  0  0  0  0  0  0  0  0  # atno 8010 bound_to 7997
  140.1071  144.4852  150.7001 H   0  0  0  0  0  0  0  0  0  0  0  0  # atno 10167 bound_to 10162
  155.9994  130.4741  150.4608 H   0  0  0  0  0  0  0  0  0  0  0  0  # atno 10718 bound_to 10713
  153.6551  135.6979  153.5196 H   0  0  0  0  0  0  0  0  0  0  0  0  # atno 10763 bound_to 10752
  153.2676  135.4225  155.0955 H   0  0  0  0  0  0  0  0  0  0  0  0  # atno 10764 bound_to 10752
  154.8466  135.3570  154.6096 H   0  0  0  0  0  0  0  0  0  0  0  0  # atno 10765 bound_to 10752
  140.9832  133.7045  156.1720 H   0  0  0  0  0  0  0  0  0  0  0  0  # atno 11005 bound_to 11000
  144.7657  139.6851  143.7216 LP  0  0  0  0  0  0  0  0  0  0  0  0  # atno 17320 bound_to 7965
  146.2083  139.5422  142.9698 LP  0  0  0  0  0  0  0  0  0  0  0  0  # atno 17321 bound_to 7965
  140.6946  143.2396  151.5036 LP  0  0  0  0  0  0  0  0  0  0  0  0  # atno 17342 bound_to 10162
  139.5639  144.2089  152.1735 LP  0  0  0  0  0  0  0  0  0  0  0  0  # atno 17343 bound_to 10162
  157.2632  131.0571  151.2307 LP  0  0  0  0  0  0  0  0  0  0  0  0  # atno 17370 bound_to 10713
  157.3414  130.7035  149.6384 LP  0  0  0  0  0  0  0  0  0  0  0  0  # atno 17371 bound_to 10713
  140.7154  134.4416  157.5579 LP  0  0  0  0  0  0  0  0  0  0  0  0  # atno 17394 bound_to 11000
  139.8959  134.8672  156.2111 LP  0  0  0  0  0  0  0  0  0  0  0  0  # atno 17395 bound_to 11000

$$$$
