AV-unprocessed.smi:1311|AV-procd|sdf|5447|dock5
  -GOLD-   22720 5 13D 1   1.00000     0.00000
 Structure written by MMmdl.
 46 47  0  0  0  0  0  0  0  0  2 V2000
  143.3756  136.0154  153.5869 C   0  0  0  0  0  0  0  0  0  0  0  0
  144.6420  136.1117  154.4526 C   0  0  0  0  0  0  0  0  0  0  0  0
  145.9075  136.6257  153.7093 C   0  0  1  0  0  0  0  0  0  0  0  0
  147.1252  136.6324  154.6798 C   0  0  0  0  0  0  0  0  0  0  0  0
  148.1640  137.5987  154.3393 N   0  0  0  0  0  0  0  0  0  0  0  0
  148.3957  138.7468  154.9968 C   0  0  0  0  0  0  0  0  0  0  0  0
  147.7396  139.1050  155.9738 O   0  0  0  0  0  0  0  0  0  0  0  0
  149.5119  139.6461  154.4571 C   0  0  0  0  0  0  0  0  0  0  0  0
  150.6492  139.7507  155.4434 C   0  0  0  0  0  0  0  0  0  0  0  0
  150.7866  140.6578  156.5339 C   0  0  0  0  0  0  0  0  0  0  0  0
  149.8455  141.7390  156.9815 C   0  0  0  0  0  0  0  0  0  0  0  0
  151.9150  140.4651  157.1959 N   0  0  0  0  0  0  0  0  0  0  0  0
  152.5640  139.4086  156.5501 O   0  0  0  0  0  0  0  0  0  0  0  0
  151.7929  139.0028  155.5099 C   0  0  0  0  0  0  0  0  0  0  0  0
  152.3142  137.8699  154.6915 C   0  0  0  0  0  0  0  0  0  0  0  0
  146.2000  135.8153  152.4802 N   0  3  0  0  0  0  0  0  0  0  0  0
  146.1601  134.3429  152.6300 C   0  0  0  0  0  0  0  0  0  0  0  0
  146.0599  133.7999  151.2102 C   0  0  0  0  0  0  0  0  0  0  0  0
  145.1493  134.8081  150.5226 C   0  0  0  0  0  0  0  0  0  0  0  0
  145.3727  136.1222  151.2833 C   0  0  0  0  0  0  0  0  0  0  0  0
  142.5872  135.4867  154.1229 H   0  0  0  0  0  0  0  0  0  0  0  0
  143.5684  135.4686  152.6633 H   0  0  0  0  0  0  0  0  0  0  0  0
  142.9761  136.9947  153.3257 H   0  0  0  0  0  0  0  0  0  0  0  0
  144.4405  136.7348  155.3250 H   0  0  0  0  0  0  0  0  0  0  0  0
  144.8085  135.1042  154.8312 H   0  0  0  0  0  0  0  0  0  0  0  0
  145.6946  137.6470  153.3897 H   0  0  0  0  0  0  0  0  0  0  0  0
  146.8182  136.8449  155.7030 H   0  0  0  0  0  0  0  0  0  0  0  0
  147.5801  135.6416  154.7075 H   0  0  0  0  0  0  0  0  0  0  0  0
  148.7603  137.3756  153.5553 H   0  0  0  0  0  0  0  0  0  0  0  0
  149.8477  139.2385  153.5033 H   0  0  0  0  0  0  0  0  0  0  0  0
  149.0990  140.6307  154.2336 H   0  0  0  0  0  0  0  0  0  0  0  0
  148.8342  141.5620  156.6154 H   0  0  0  0  0  0  0  0  0  0  0  0
  150.1668  142.7130  156.6120 H   0  0  0  0  0  0  0  0  0  0  0  0
  149.7938  141.7953  158.0693 H   0  0  0  0  0  0  0  0  0  0  0  0
  152.1257  138.0374  153.6310 H   0  0  0  0  0  0  0  0  0  0  0  0
  151.8322  136.9353  154.9776 H   0  0  0  0  0  0  0  0  0  0  0  0
  153.3896  137.7512  154.8261 H   0  0  0  0  0  0  0  0  0  0  0  0
  147.0403  133.9572  153.1454 H   0  0  0  0  0  0  0  0  0  0  0  0
  145.2717  134.0534  153.1942 H   0  0  0  0  0  0  0  0  0  0  0  0
  147.0443  133.8066  150.7399 H   0  0  0  0  0  0  0  0  0  0  0  0
  145.6733  132.7811  151.1708 H   0  0  0  0  0  0  0  0  0  0  0  0
  145.3632  134.8992  149.4571 H   0  0  0  0  0  0  0  0  0  0  0  0
  144.1091  134.4960  150.6253 H   0  0  0  0  0  0  0  0  0  0  0  0
  144.4060  136.5432  151.5621 H   0  0  0  0  0  0  0  0  0  0  0  0
  145.8899  136.8511  150.6590 H   0  0  0  0  0  0  0  0  0  0  0  0
  147.1535  136.0236  152.2200 H   0  0  0  0  0  0  0  0  0  0  0  0
  1  2  1  0  0  0  0
  1 21  1  0  0  0  0
  1 22  1  0  0  0  0
  1 23  1  0  0  0  0
  2  3  1  0  0  0  0
  2 24  1  0  0  0  0
  2 25  1  0  0  0  0
  3  4  1  0  0  0  0
  3 16  1  0  0  0  0
  3 26  1  0  0  0  0
  4  5  1  0  0  0  0
  4 27  1  0  0  0  0
  4 28  1  0  0  0  0
  5  6  1  0  0  0  0
  5 29  1  0  0  0  0
  6  7  2  0  0  0  0
  6  8  1  0  0  0  0
  8  9  1  0  0  0  0
  8 30  1  0  0  0  0
  8 31  1  0  0  0  0
  9 14  2  0  0  0  0
  9 10  1  0  0  0  0
 10 11  1  0  0  0  0
 10 12  2  0  0  0  0
 11 32  1  0  0  0  0
 11 33  1  0  0  0  0
 11 34  1  0  0  0  0
 12 13  1  0  0  0  0
 13 14  1  0  0  0  0
 14 15  1  0  0  0  0
 15 35  1  0  0  0  0
 15 36  1  0  0  0  0
 15 37  1  0  0  0  0
 16 20  1  0  0  0  0
 16 17  1  0  0  0  0
 16 46  1  0  0  0  0
 17 18  1  0  0  0  0
 17 38  1  0  0  0  0
 17 39  1  0  0  0  0
 18 19  1  0  0  0  0
 18 40  1  0  0  0  0
 18 41  1  0  0  0  0
 19 20  1  0  0  0  0
 19 42  1  0  0  0  0
 19 43  1  0  0  0  0
 20 44  1  0  0  0  0
 20 45  1  0  0  0  0
M  CHG  1  16   1
M  END
> <s_m_source_file>
AV-unprocessed.smi

> <i_m_source_file_index>
1311

> <i_lp_mmshare_version>
43012

> <i_f3d_flags>
0

> <s_epik_input>
W0NIMl0xW0NIMl1bQ0gyXVtDSDJdTjFbQ0BIXShbQ0gyXVtDSDNdKVtDSDJdW05IXUMoPU8pW0NIMl1jMmMoW0NIM10pbm9jMltDSDNd

> <s_epik_cmdline>
J2VwaWtfcHl0aG9uJywgJy1waCcsICc3LjAnLCAnLXRuJywgJzgnLCAnLW1hJywgJzIwMCcsICctbWV0YWxfYmluZGluZycsICctaW1hZScsICc8aW5maWxlLm1hZT4nLCAnLW9tYWUnLCAnPG91dGZpbGUubWFlPic=

> <r_epik_Ionization_Penalty>
0.00366311

> <r_epik_Ionization_Penalty_Charging>
0.00366302

> <r_epik_Ionization_Penalty_Neutral>
9.25085e-08

> <r_epik_State_Penalty>
0.00260703

> <r_epik_Charging_Adjusted_Penalty>
0.00627005

> <i_epik_Tot_Q>
1

> <i_epik_Tot_abs_Q>
1

> <r_epik_Metal_State_Penalty>
-0

> <b_epik_Metal_Only>
0

> <s_lp_Force_Field>
OPLS_2005

> <r_lp_Energy>
34.8572

> <b_lp_Chiralities_Consistent>
1

> <s_lp_Variant>
AV-unprocessed.smi:1311-2

> <Gold.Version>
5.8.1

> <Gold.Id.Protein>
6NUR|6NUR_protein|mol2

> <Gold.PLP.Fitness>
39.8935

> <Gold.PLP.PLP>
-30.1169

> <Gold.PLP.part.hbond>
-3.0000

> <Gold.PLP.part.metal>
0.0000

> <Gold.PLP.part.buried>
-3.4248

> <Gold.PLP.part.nonpolar>
-24.2916

> <Gold.PLP.part.repulsive>
0.0060

> <Gold.PLP.ligand.clash>
0.0000

> <Gold.PLP.ligand.torsion>
1.0481

> <Gold.PLP.Chemscore.Hbond>
3.9120

> <Gold.PLP.Chemscore.CHOScore>
0.0000

> <Gold.PLP.Chemscore.Metal>
0.0000

> <Gold.Chemscore.Hbonds>
donor molecule, donor type, donor heavy atom, donor atom, acceptor molecule, acceptor atom, score
      L1  H     5    29       P1  7948  0.90
      L1  H    16    46       P1  7948  2.00
      P1  H  7997  8009       L1    13  1.00

> <Gold.PLP.Chemscore.Internal.Correction>
0.1368

> <Gold.Rescore>
     Score         DG    S(hbond)    S(metal)    S(lipo)     H(rot)  DE(clash)    DE(int)     intcor
     17.07     -18.40       2.77        0.00      70.89       1.80       0.14       1.19       ----

> <Gold.Chemscore.Fitness>
17.0678

> <Gold.Chemscore.DG>
-18.4025

> <Gold.Chemscore.ZeroCoef>
-5.4800

> <Gold.Chemscore.Hbond>
2.7656

> <Gold.Chemscore.Metal>
0.0000

> <Gold.Chemscore.Lipo>
70.8925

> <Gold.Chemscore.Internal_Hbond>
0.0000

> <Gold.Chemscore.DEClash>
0.1418

> <Gold.Chemscore.DEInternal>
1.1929

> <Gold.Chemscore.Rot>
1.8004

> <Gold.Chemscore.Internal.Correction>
   9.000000E+99

> <Gold.Chemscore.Hbonds>
donor molecule, donor type, donor heavy atom, donor atom, acceptor molecule, acceptor atom, score
      L1  H     5    29       P1  7948  0.82
      L1  H    16    46       P1  7948  1.00
      P1  H  7997  8009       L1    13  0.30

> <Gold.Chemscore.Hbond.Weighted>
-9.2371

> <Gold.Chemscore.Metal.Weighted>
-0.0000

> <Gold.Chemscore.Lipo.Weighted>
-8.2944

> <Gold.Chemscore.Internal_Hbond.Weighted>
0.0000

> <Gold.Chemscore.DEClash.Weighted>
0.1418

> <Gold.Chemscore.DEInternal.Weighted>
1.1929

> <Gold.Chemscore.Rot.Weighted>
4.6090

> <Gold.Chemscore.Internal.Correction.Weighted>
   9.000000E+99

> <Gold.Protein.RotatedTorsions>
[ 6907 6896 6895 6894 ] final  111.52 input  -60.11 | X-H torsion
[ 7974 7965 7964 7962 ] final   75.53 input  175.53 | X-H torsion
[ 8008 7997 7996 7995 ] final -162.83 input   59.86 | X-H torsion
[ 10167 10162 10161 10158 ] final -117.41 input  -65.29 | X-H torsion
[ 10718 10713 10712 10709 ] final   27.42 input   66.30 | X-H torsion
[ 10763 10752 10751 10750 ] final   61.94 input  -60.55 | X-H torsion
[ 11005 11000 10999 10996 ] final -165.15 input  -57.11 | X-H torsion

> <Gold.Protein.ActiveResidues>
 VAL166  LYS551  ARG553  GLY616  TRP617  ASP618  TYR619  PRO620  LYS621  CYS622 
 ASP623  PHE694  ASN695  SER759  ASP760  ASP761  ALA762  ILE779  LEU786  VAL792 
 PHE793  MET794  SER795  GLU796  ALA797  LYS798  CYS799  TRP800  GLU811  SER814 

> <Gold.Protein.RotatedAtoms>
  152.4965  133.8647  159.7267 H   0  0  0  0  0  0  0  0  0  0  0  0  # atno 6907 bound_to 6896
  150.9149  133.6943  159.2852 H   0  0  0  0  0  0  0  0  0  0  0  0  # atno 6908 bound_to 6896
  151.4339  135.1017  159.9703 H   0  0  0  0  0  0  0  0  0  0  0  0  # atno 6909 bound_to 6896
  145.7145  139.2626  143.1632 H   0  0  0  0  0  0  0  0  0  0  0  0  # atno 7974 bound_to 7965
  155.8125  140.0907  157.1896 H   0  0  0  0  0  0  0  0  0  0  0  0  # atno 8008 bound_to 7997
  154.3979  140.1452  156.3463 H   0  0  0  0  0  0  0  0  0  0  0  0  # atno 8009 bound_to 7997
  155.8350  140.3441  155.5599 H   0  0  0  0  0  0  0  0  0  0  0  0  # atno 8010 bound_to 7997
  140.0687  143.4898  152.1992 H   0  0  0  0  0  0  0  0  0  0  0  0  # atno 10167 bound_to 10162
  157.2199  130.6974  149.6265 H   0  0  0  0  0  0  0  0  0  0  0  0  # atno 10718 bound_to 10713
  152.9966  135.5483  154.6113 H   0  0  0  0  0  0  0  0  0  0  0  0  # atno 10763 bound_to 10752
  154.5433  135.2821  155.1078 H   0  0  0  0  0  0  0  0  0  0  0  0  # atno 10764 bound_to 10752
  154.2346  135.6427  153.5239 H   0  0  0  0  0  0  0  0  0  0  0  0  # atno 10765 bound_to 10752
  140.5789  134.5161  157.5175 H   0  0  0  0  0  0  0  0  0  0  0  0  # atno 11005 bound_to 11000
  146.0682  140.7897  142.9701 LP  0  0  0  0  0  0  0  0  0  0  0  0  # atno 17320 bound_to 7965
  144.6933  140.3302  143.7217 LP  0  0  0  0  0  0  0  0  0  0  0  0  # atno 17321 bound_to 7965
  139.5849  144.7527  151.3545 LP  0  0  0  0  0  0  0  0  0  0  0  0  # atno 17342 bound_to 10162
  140.7136  143.7325  150.7613 LP  0  0  0  0  0  0  0  0  0  0  0  0  # atno 17343 bound_to 10162
  155.9683  130.4523  150.5769 LP  0  0  0  0  0  0  0  0  0  0  0  0  # atno 17370 bound_to 10713
  157.3586  131.0746  151.1655 LP  0  0  0  0  0  0  0  0  0  0  0  0  # atno 17371 bound_to 10713
  139.9326  134.7934  156.0888 LP  0  0  0  0  0  0  0  0  0  0  0  0  # atno 17394 bound_to 11000
  141.1009  133.6678  156.2751 LP  0  0  0  0  0  0  0  0  0  0  0  0  # atno 17395 bound_to 11000

$$$$
