AV-unprocessed.smi:1897|AV-procd|sdf|7692|dock10
  -GOLD-   22720 9433D 1   1.00000     0.00000
 Structure written by MMmdl.
 38 40  0  0  0  0  0  0  0  0  3 V2000
  153.0248  143.9374  161.9560 C   0  0  0  0  0  0  0  0  0  0  0  0
  153.2903  142.9873  160.8391 C   0  0  0  0  0  0  0  0  0  0  0  0
  154.4879  142.4354  160.6302 N   0  0  0  0  0  0  0  0  0  0  0  0
  154.4882  141.5870  159.5330 N   0  0  0  0  0  0  0  0  0  0  0  0
  153.2979  141.5196  158.9202 C   0  0  0  0  0  0  0  0  0  0  0  0
  153.0888  140.7618  157.8275 N   0  5  0  0  0  0  0  0  0  0  0  0
  151.9733  140.0034  157.6664 C   0  0  0  0  0  0  0  0  0  0  0  0
  151.0481  139.9790  158.4768 O   0  0  0  0  0  0  0  0  0  0  0  0
  151.8875  139.2427  156.5591 N   0  0  0  0  0  0  0  0  0  0  0  0
  150.7779  138.3646  156.2096 C   0  0  2  0  0  0  0  0  0  0  0  0
  151.1117  136.8697  156.3196 C   0  0  0  0  0  0  0  0  0  0  0  0
  150.3783  136.2015  155.1397 C   0  0  0  0  0  0  0  0  0  0  0  0
  149.6382  137.2733  154.4328 N   0  3  1  0  0  0  0  0  0  0  0  0
  148.1994  137.3044  154.8143 C   0  0  0  0  0  0  0  0  0  0  0  0
  147.4843  138.5499  154.2755 C   0  0  0  0  0  0  0  0  0  0  0  0
  148.1736  139.8159  154.7899 C   0  0  0  0  0  0  0  0  0  0  0  0
  149.6412  139.8114  154.3498 C   0  0  0  0  0  0  0  0  0  0  0  0
  150.3882  138.5155  154.7380 C   0  0  1  0  0  0  0  0  0  0  0  0
  152.0559  142.5098  159.6858 S   0  0  0  0  0  0  0  0  0  0  0  0
  153.3721  144.9347  161.6865 H   0  0  0  0  0  0  0  0  0  0  0  0
  153.5449  143.6152  162.8584 H   0  0  0  0  0  0  0  0  0  0  0  0
  151.9565  143.9829  162.1680 H   0  0  0  0  0  0  0  0  0  0  0  0
  152.6622  139.2792  155.9128 H   0  0  0  0  0  0  0  0  0  0  0  0
  149.9154  138.5913  156.8389 H   0  0  0  0  0  0  0  0  0  0  0  0
  152.1855  136.6968  156.2310 H   0  0  0  0  0  0  0  0  0  0  0  0
  150.7934  136.4653  157.2809 H   0  0  0  0  0  0  0  0  0  0  0  0
  151.1073  135.7732  154.4509 H   0  0  0  0  0  0  0  0  0  0  0  0
  149.7262  135.3895  155.4643 H   0  0  0  0  0  0  0  0  0  0  0  0
  147.7126  136.4053  154.4348 H   0  0  0  0  0  0  0  0  0  0  0  0
  148.1028  137.2754  155.9008 H   0  0  0  0  0  0  0  0  0  0  0  0
  147.4843  138.5394  153.1847 H   0  0  0  0  0  0  0  0  0  0  0  0
  146.4395  138.5425  154.5876 H   0  0  0  0  0  0  0  0  0  0  0  0
  147.6697  140.7030  154.4051 H   0  0  0  0  0  0  0  0  0  0  0  0
  148.1053  139.8656  155.8771 H   0  0  0  0  0  0  0  0  0  0  0  0
  149.6762  139.9219  153.2653 H   0  0  0  0  0  0  0  0  0  0  0  0
  150.1585  140.6812  154.7561 H   0  0  0  0  0  0  0  0  0  0  0  0
  151.3052  138.4776  154.1460 H   0  0  0  0  0  0  0  0  0  0  0  0
  149.6805  137.1082  153.4373 H   0  0  0  0  0  0  0  0  0  0  0  0
  1  2  1  0  0  0  0
  1 20  1  0  0  0  0
  1 21  1  0  0  0  0
  1 22  1  0  0  0  0
  2 19  1  0  0  0  0
  2  3  2  0  0  0  0
  3  4  1  0  0  0  0
  4  5  2  0  0  0  0
  5  6  1  0  0  0  0
  5 19  1  0  0  0  0
  6  7  1  0  0  0  0
  7  8  2  0  0  0  0
  7  9  1  0  0  0  0
  9 10  1  0  0  0  0
  9 23  1  0  0  0  0
 10 18  1  0  0  0  0
 10 11  1  0  0  0  0
 10 24  1  0  0  0  0
 11 12  1  0  0  0  0
 11 25  1  0  0  0  0
 11 26  1  0  0  0  0
 12 13  1  0  0  0  0
 12 27  1  0  0  0  0
 12 28  1  0  0  0  0
 13 18  1  0  0  0  0
 13 14  1  0  0  0  0
 13 38  1  0  0  0  0
 14 15  1  0  0  0  0
 14 29  1  0  0  0  0
 14 30  1  0  0  0  0
 15 16  1  0  0  0  0
 15 31  1  0  0  0  0
 15 32  1  0  0  0  0
 16 17  1  0  0  0  0
 16 33  1  0  0  0  0
 16 34  1  0  0  0  0
 17 18  1  0  0  0  0
 17 35  1  0  0  0  0
 17 36  1  0  0  0  0
 18 37  1  0  0  0  0
M  CHG  1   6  -1
M  CHG  1  13   1
M  END
> <s_m_source_file>
AV-unprocessed.smi

> <i_m_source_file_index>
1897

> <i_lp_mmshare_version>
43012

> <i_f3d_flags>
0

> <s_epik_input>
W0NIM11jMW5uYyhzMSlbTkhdQyg9TylbTkhdW0NASF0oW0NIMl1bQ0gyXTIpW0NAQEhdKE4yMylbQ0gyXVtDSDJdW0NIMl1bQ0gyXTM=

> <s_epik_cmdline>
J2VwaWtfcHl0aG9uJywgJy1waCcsICc3LjAnLCAnLXRuJywgJzgnLCAnLW1hJywgJzIwMCcsICctbWV0YWxfYmluZGluZycsICctaW1hZScsICc8aW5maWxlLm1hZT4nLCAnLW9tYWUnLCAnPG91dGZpbGUubWFlPic=

> <r_lp_tautomer_probability>
1

> <r_epik_Ionization_Penalty>
3.77712

> <r_epik_Ionization_Penalty_Charging>
3.67739

> <r_epik_Ionization_Penalty_Neutral>
0.0997294

> <r_epik_State_Penalty>
3.67514

> <r_epik_Charging_Adjusted_Penalty>
7.35254

> <i_epik_Tot_Q>
0

> <i_epik_Tot_abs_Q>
2

> <r_epik_Metal_State_Penalty>
0.540795

> <b_epik_Metal_Only>
1

> <s_lp_Force_Field>
OPLS_2005

> <r_lp_Energy>
31.3184

> <b_lp_Chiralities_Consistent>
1

> <s_lp_Variant>
AV-unprocessed.smi:1897-9

> <Gold.Version>
5.8.1

> <Gold.Id.Protein>
6NUR|6NUR_protein|mol2

> <Gold.PLP.Fitness>
39.0393

> <Gold.PLP.PLP>
-28.0789

> <Gold.PLP.part.hbond>
-3.0000

> <Gold.PLP.part.metal>
0.0000

> <Gold.PLP.part.buried>
-4.2443

> <Gold.PLP.part.nonpolar>
-20.3325

> <Gold.PLP.part.repulsive>
0.0778

> <Gold.PLP.ligand.clash>
0.0000

> <Gold.PLP.ligand.torsion>
0.5010

> <Gold.PLP.Chemscore.Hbond>
3.9840

> <Gold.PLP.Chemscore.CHOScore>
0.0000

> <Gold.PLP.Chemscore.Metal>
0.0000

> <Gold.Chemscore.Hbonds>
donor molecule, donor type, donor heavy atom, donor atom, acceptor molecule, acceptor atom, score
      L1  H    13    38       P1  7948  2.00
      P1  H  7997  8008       L1     6  1.25

> <Gold.PLP.Chemscore.Internal.Correction>
0.0104

> <Gold.Rescore>
     Score         DG    S(hbond)    S(metal)    S(lipo)     H(rot)  DE(clash)    DE(int)     intcor
     14.55     -16.18       1.59        0.00      67.93       1.00       0.20       1.43       ----

> <Gold.Chemscore.Fitness>
14.5492

> <Gold.Chemscore.DG>
-16.1767

> <Gold.Chemscore.ZeroCoef>
-5.4800

> <Gold.Chemscore.Hbond>
1.5894

> <Gold.Chemscore.Metal>
0.0000

> <Gold.Chemscore.Lipo>
67.9336

> <Gold.Chemscore.Internal_Hbond>
0.0000

> <Gold.Chemscore.DEClash>
0.2012

> <Gold.Chemscore.DEInternal>
1.4262

> <Gold.Chemscore.Rot>
1.0000

> <Gold.Chemscore.Internal.Correction>
   9.000000E+99

> <Gold.Chemscore.Hbonds>
donor molecule, donor type, donor heavy atom, donor atom, acceptor molecule, acceptor atom, score
      L1  H    13    38       P1  7948  0.66
      P1  H  7997  8008       L1     6  0.51

> <Gold.Chemscore.Hbond.Weighted>
-5.3084

> <Gold.Chemscore.Metal.Weighted>
-0.0000

> <Gold.Chemscore.Lipo.Weighted>
-7.9482

> <Gold.Chemscore.Internal_Hbond.Weighted>
0.0000

> <Gold.Chemscore.DEClash.Weighted>
0.2012

> <Gold.Chemscore.DEInternal.Weighted>
1.4262

> <Gold.Chemscore.Rot.Weighted>
2.5600

> <Gold.Chemscore.Internal.Correction.Weighted>
   9.000000E+99

> <Gold.Protein.RotatedTorsions>
[ 6907 6896 6895 6894 ] final   32.12 input  -60.11 | X-H torsion
[ 7974 7965 7964 7962 ] final   21.99 input  175.53 | X-H torsion
[ 8008 7997 7996 7995 ] final  -80.16 input   59.86 | X-H torsion
[ 10167 10162 10161 10158 ] final  113.63 input  -65.29 | X-H torsion
[ 10718 10713 10712 10709 ] final   43.58 input   66.30 | X-H torsion
[ 10763 10752 10751 10750 ] final  115.45 input  -60.55 | X-H torsion
[ 11005 11000 10999 10996 ] final  -82.43 input  -57.11 | X-H torsion

> <Gold.Protein.ActiveResidues>
 VAL166  LYS551  ARG553  GLY616  TRP617  ASP618  TYR619  PRO620  LYS621  CYS622 
 ASP623  PHE694  ASN695  SER759  ASP760  ASP761  ALA762  ILE779  LEU786  VAL792 
 PHE793  MET794  SER795  GLU796  ALA797  LYS798  CYS799  TRP800  GLU811  SER814 

> <Gold.Protein.RotatedAtoms>
  152.0699  134.9540  160.0574 H   0  0  0  0  0  0  0  0  0  0  0  0  # atno 6907 bound_to 6896
  152.0870  133.4176  159.4535 H   0  0  0  0  0  0  0  0  0  0  0  0  # atno 6908 bound_to 6896
  150.6836  134.2836  159.4681 H   0  0  0  0  0  0  0  0  0  0  0  0  # atno 6909 bound_to 6896
  146.2048  139.7948  142.8734 H   0  0  0  0  0  0  0  0  0  0  0  0  # atno 7974 bound_to 7965
  154.5856  140.0667  156.9166 H   0  0  0  0  0  0  0  0  0  0  0  0  # atno 8008 bound_to 7997
  155.2386  140.3343  155.4276 H   0  0  0  0  0  0  0  0  0  0  0  0  # atno 8009 bound_to 7997
  156.2220  140.1803  156.7439 H   0  0  0  0  0  0  0  0  0  0  0  0  # atno 8010 bound_to 7997
  139.6447  144.7126  151.2166 H   0  0  0  0  0  0  0  0  0  0  0  0  # atno 10167 bound_to 10162
  157.4175  130.7949  149.7485 H   0  0  0  0  0  0  0  0  0  0  0  0  # atno 10718 bound_to 10713
  153.5224  135.3595  155.2638 H   0  0  0  0  0  0  0  0  0  0  0  0  # atno 10763 bound_to 10752
  154.8734  135.4048  154.3245 H   0  0  0  0  0  0  0  0  0  0  0  0  # atno 10764 bound_to 10752
  153.3918  135.7072  153.6557 H   0  0  0  0  0  0  0  0  0  0  0  0  # atno 10765 bound_to 10752
  141.1663  133.7244  156.8570 H   0  0  0  0  0  0  0  0  0  0  0  0  # atno 11005 bound_to 11000
  145.3359  141.0277  143.3420 LP  0  0  0  0  0  0  0  0  0  0  0  0  # atno 17320 bound_to 7965
  144.8766  139.4962  143.6742 LP  0  0  0  0  0  0  0  0  0  0  0  0  # atno 17321 bound_to 7965
  140.7509  143.6251  150.8476 LP  0  0  0  0  0  0  0  0  0  0  0  0  # atno 17342 bound_to 10162
  139.9893  143.5865  152.2916 LP  0  0  0  0  0  0  0  0  0  0  0  0  # atno 17343 bound_to 10162
  155.9870  130.3970  150.3187 LP  0  0  0  0  0  0  0  0  0  0  0  0  # atno 17370 bound_to 10713
  157.1332  131.0277  151.2960 LP  0  0  0  0  0  0  0  0  0  0  0  0  # atno 17371 bound_to 10713
  140.1875  134.8989  157.3022 LP  0  0  0  0  0  0  0  0  0  0  0  0  # atno 17394 bound_to 11000
  140.2326  134.3890  155.7515 LP  0  0  0  0  0  0  0  0  0  0  0  0  # atno 17395 bound_to 11000

$$$$
