AV-unprocessed.smi:21|AV-procd|sdf|153|dock6
  -GOLD-   2262015373D 1   1.00000     0.00000
 Structure written by MMmdl.
 61 64  0  0  0  0  0  0  0  0  1 V2000
  152.1455  144.2606  159.1346 C   0  0  0  0  0  0  0  0  0  0  0  0
  151.9384  142.9308  159.5836 O   0  0  0  0  0  0  0  0  0  0  0  0
  152.4042  141.9472  158.6697 C   0  0  1  0  0  0  0  0  0  0  0  0
  152.1931  140.5200  159.2040 C   0  0  0  0  0  0  0  0  0  0  0  0
  151.5081  139.7858  158.0463 C   0  0  1  0  0  0  0  0  0  0  0  0
  150.7209  138.5366  158.4964 C   0  0  0  0  0  0  0  0  0  0  0  0
  151.2544  137.2940  157.9378 N   0  0  0  0  0  0  0  0  0  0  0  0
  152.4218  137.3904  157.0643 C   0  0  0  0  0  0  0  0  0  0  0  0
  150.3370  136.3339  157.6471 C   0  0  0  0  0  0  0  0  0  0  0  0
  149.4156  135.9795  158.5834 N   0  0  0  0  0  0  0  0  0  0  0  0
  148.5102  135.0336  158.3195 C   0  0  0  0  0  0  0  0  0  0  0  0
  148.3437  134.3286  157.1999 N   0  0  0  0  0  0  0  0  0  0  0  0
  149.2533  134.6843  156.2492 C   0  0  0  0  0  0  0  0  0  0  0  0
  150.2784  135.6637  156.3910 C   0  0  0  0  0  0  0  0  0  0  0  0
  151.0099  135.7497  155.2132 N   0  0  0  0  0  0  0  0  0  0  0  0
  150.4595  134.8668  154.4272 C   0  0  0  0  0  0  0  0  0  0  0  0
  149.3835  134.1935  154.9605 N   0  0  0  0  0  0  0  0  0  0  0  0
  148.5882  133.1699  154.2957 C   0  0  0  0  0  0  0  0  0  0  0  0
  147.7091  133.6951  153.1264 C   0  0  2  0  0  0  0  0  0  0  0  0
  146.6201  134.6859  153.6033 C   0  0  0  0  0  0  0  0  0  0  0  0
  146.2548  135.5753  152.5683 O   0  0  0  0  0  0  0  0  0  0  0  0
  147.0940  132.5428  152.2898 C   0  0  2  0  0  0  0  0  0  0  0  0
  146.4668  132.9789  150.9754 C   0  0  0  0  0  0  0  0  0  0  0  0
  145.5894  131.7833  150.6238 C   0  0  0  0  0  0  0  0  0  0  0  0
  145.1551  131.2495  151.8690 O   0  0  0  0  0  0  0  0  0  0  0  0
  145.8910  131.8435  152.9336 C   0  0  0  0  0  0  0  0  0  0  0  0
  150.7006  140.8135  157.4105 N   0  0  0  0  0  0  0  0  0  0  0  0
  150.2240  140.4541  156.0815 C   0  0  0  0  0  0  0  0  0  0  0  0
  151.5617  141.9835  157.3871 C   0  0  0  0  0  0  0  0  0  0  0  0
  153.4503  142.1265  158.4151 H   0  0  0  0  0  0  0  0  0  0  0  0
  152.2834  139.4831  157.3409 H   0  0  0  0  0  0  0  0  0  0  0  0
  151.7577  144.9603  159.8749 H   0  0  0  0  0  0  0  0  0  0  0  0
  151.6233  144.4444  158.1948 H   0  0  0  0  0  0  0  0  0  0  0  0
  153.2047  144.4781  158.9937 H   0  0  0  0  0  0  0  0  0  0  0  0
  153.1246  140.0433  159.5107 H   0  0  0  0  0  0  0  0  0  0  0  0
  151.5296  140.5467  160.0679 H   0  0  0  0  0  0  0  0  0  0  0  0
  150.6813  138.5042  159.5853 H   0  0  0  0  0  0  0  0  0  0  0  0
  149.6847  138.6169  158.1677 H   0  0  0  0  0  0  0  0  0  0  0  0
  152.8193  136.4020  156.8295 H   0  0  0  0  0  0  0  0  0  0  0  0
  153.2225  137.9544  157.5412 H   0  0  0  0  0  0  0  0  0  0  0  0
  152.1632  137.8909  156.1305 H   0  0  0  0  0  0  0  0  0  0  0  0
  147.8199  134.8106  159.1195 H   0  0  0  0  0  0  0  0  0  0  0  0
  150.8204  134.6893  153.4246 H   0  0  0  0  0  0  0  0  0  0  0  0
  149.2744  132.4082  153.9239 H   0  0  0  0  0  0  0  0  0  0  0  0
  147.9786  132.6639  155.0442 H   0  0  0  0  0  0  0  0  0  0  0  0
  148.3715  134.2501  152.4603 H   0  0  0  0  0  0  0  0  0  0  0  0
  145.7152  134.1564  153.8997 H   0  0  0  0  0  0  0  0  0  0  0  0
  146.9490  135.2523  154.4745 H   0  0  0  0  0  0  0  0  0  0  0  0
  147.0090  135.7221  152.0179 H   0  0  0  0  0  0  0  0  0  0  0  0
  147.8543  131.7877  152.0862 H   0  0  0  0  0  0  0  0  0  0  0  0
  145.8464  133.8640  151.1246 H   0  0  0  0  0  0  0  0  0  0  0  0
  147.1901  133.2038  150.1930 H   0  0  0  0  0  0  0  0  0  0  0  0
  144.7457  132.0564  149.9899 H   0  0  0  0  0  0  0  0  0  0  0  0
  146.1736  131.0226  150.1043 H   0  0  0  0  0  0  0  0  0  0  0  0
  146.1861  131.0920  153.6662 H   0  0  0  0  0  0  0  0  0  0  0  0
  145.2444  132.5666  153.4329 H   0  0  0  0  0  0  0  0  0  0  0  0
  149.6714  141.2818  155.6358 H   0  0  0  0  0  0  0  0  0  0  0  0
  149.5519  139.5974  156.1246 H   0  0  0  0  0  0  0  0  0  0  0  0
  151.0525  140.2039  155.4173 H   0  0  0  0  0  0  0  0  0  0  0  0
  150.9812  142.9018  157.2907 H   0  0  0  0  0  0  0  0  0  0  0  0
  152.2335  141.9321  156.5286 H   0  0  0  0  0  0  0  0  0  0  0  0
  1  2  1  0  0  0  0
  1 32  1  0  0  0  0
  1 33  1  0  0  0  0
  1 34  1  0  0  0  0
  2  3  1  0  0  0  0
  3 30  1  0  0  0  0
  3 29  1  0  0  0  0
  3  4  1  0  0  0  0
  4  5  1  0  0  0  0
  4 35  1  0  0  0  0
  4 36  1  0  0  0  0
  5 31  1  0  0  0  0
  5  6  1  0  0  0  0
  5 27  1  0  0  0  0
  6  7  1  0  0  0  0
  6 37  1  0  0  0  0
  6 38  1  0  0  0  0
  7  8  1  0  0  0  0
  7  9  1  0  0  0  0
  8 39  1  0  0  0  0
  8 40  1  0  0  0  0
  8 41  1  0  0  0  0
  9 14  1  0  0  0  0
  9 10  2  0  0  0  0
 10 11  1  0  0  0  0
 11 12  2  0  0  0  0
 11 42  1  0  0  0  0
 12 13  1  0  0  0  0
 13 17  1  0  0  0  0
 13 14  2  0  0  0  0
 14 15  1  0  0  0  0
 15 16  2  0  0  0  0
 16 17  1  0  0  0  0
 16 43  1  0  0  0  0
 17 18  1  0  0  0  0
 18 19  1  0  0  0  0
 18 44  1  0  0  0  0
 18 45  1  0  0  0  0
 19 20  1  0  0  0  0
 19 22  1  0  0  0  0
 19 46  1  0  0  0  0
 20 21  1  0  0  0  0
 20 47  1  0  0  0  0
 20 48  1  0  0  0  0
 21 49  1  0  0  0  0
 22 26  1  0  0  0  0
 22 23  1  0  0  0  0
 22 50  1  0  0  0  0
 23 24  1  0  0  0  0
 23 51  1  0  0  0  0
 23 52  1  0  0  0  0
 24 25  1  0  0  0  0
 24 53  1  0  0  0  0
 24 54  1  0  0  0  0
 25 26  1  0  0  0  0
 26 55  1  0  0  0  0
 26 56  1  0  0  0  0
 27 28  1  0  0  0  0
 27 29  1  0  0  0  0
 28 57  1  0  0  0  0
 28 58  1  0  0  0  0
 28 59  1  0  0  0  0
 29 60  1  0  0  0  0
 29 61  1  0  0  0  0
M  END
> <s_m_source_file>
AV-unprocessed.smi

> <i_m_source_file_index>
21

> <i_lp_mmshare_version>
43012

> <i_f3d_flags>
0

> <s_epik_input>
W0NIM11PW0NASF0xW0NIMl1bQ0BIXShOKFtDSDNdKVtDSDJdMSlbQ0gyXU4oW0NIM10pYyhuW2NIXW4yKWMoYzIzKW5bY0hdbjNbQ0gyXVtDQEhdKFtDSDJdW09IXSlbQ0BASF00W0NIMl1bQ0gyXU9bQ0gyXTQ=

> <s_epik_cmdline>
J2VwaWtfcHl0aG9uJywgJy1waCcsICc3LjAnLCAnLXRuJywgJzgnLCAnLW1hJywgJzIwMCcsICctbWV0YWxfYmluZGluZycsICctaW1hZScsICc8aW5maWxlLm1hZT4nLCAnLW9tYWUnLCAnPG91dGZpbGUubWFlPic=

> <r_lp_tautomer_probability>
1

> <r_epik_Ionization_Penalty>
2.17574

> <r_epik_Ionization_Penalty_Charging>
0

> <r_epik_Ionization_Penalty_Neutral>
2.17574

> <r_epik_State_Penalty>
2.31336

> <r_epik_Charging_Adjusted_Penalty>
2.31336

> <i_epik_Tot_Q>
0

> <i_epik_Tot_abs_Q>
0

> <r_epik_Metal_State_Penalty>
2.31025

> <b_epik_Metal_Only>
0

> <s_lp_Force_Field>
OPLS_2005

> <r_lp_Energy>
70.2261

> <b_lp_Chiralities_Consistent>
1

> <s_lp_Variant>
AV-unprocessed.smi:21-33

> <Gold.Version>
5.8.1

> <Gold.Id.Protein>
6NUR|6NUR_protein|mol2

> <Gold.PLP.Fitness>
43.9597

> <Gold.PLP.PLP>
-37.9386

> <Gold.PLP.part.hbond>
-3.0000

> <Gold.PLP.part.metal>
0.0000

> <Gold.PLP.part.buried>
-4.2631

> <Gold.PLP.part.nonpolar>
-30.3413

> <Gold.PLP.part.repulsive>
0.2982

> <Gold.PLP.ligand.clash>
0.1669

> <Gold.PLP.ligand.torsion>
1.9087

> <Gold.PLP.Chemscore.Hbond>
2.6650

> <Gold.PLP.Chemscore.CHOScore>
0.4023

> <Gold.PLP.Chemscore.Metal>
0.0000

> <Gold.Chemscore.Hbonds>
donor molecule, donor type, donor heavy atom, donor atom, acceptor molecule, acceptor atom, score
      L1  H    21    49       P1  7948  1.00
      P1  H  6896  6907       L1    10  0.48
      P1  H 10752 10765       L1    15  1.00
      L1  C    16    43       P1  7949  0.38

> <Gold.PLP.Chemscore.Internal.Correction>
0.8034

> <Gold.Rescore>
     Score         DG    S(hbond)    S(metal)    S(lipo)     H(rot)  DE(clash)    DE(int)     intcor
     10.08     -13.78       1.42        0.00      96.10       3.00       0.36       3.34       ----

> <Gold.Chemscore.Fitness>
10.0804

> <Gold.Chemscore.DG>
-13.7832

> <Gold.Chemscore.ZeroCoef>
-5.4800

> <Gold.Chemscore.Hbond>
1.4214

> <Gold.Chemscore.Metal>
0.0000

> <Gold.Chemscore.Lipo>
96.0997

> <Gold.Chemscore.Internal_Hbond>
0.0000

> <Gold.Chemscore.DEClash>
0.3592

> <Gold.Chemscore.DEInternal>
3.3436

> <Gold.Chemscore.Rot>
3.0031

> <Gold.Chemscore.Internal.Correction>
   9.000000E+99

> <Gold.Chemscore.Hbonds>
donor molecule, donor type, donor heavy atom, donor atom, acceptor molecule, acceptor atom, score
      L1  H    21    49       P1  7948  0.92
      P1  H  6896  6907       L1    10  0.01
      P1  H 10752 10765       L1    15  0.32

> <Gold.Chemscore.Hbond.Weighted>
-4.7475

> <Gold.Chemscore.Metal.Weighted>
-0.0000

> <Gold.Chemscore.Lipo.Weighted>
-11.2437

> <Gold.Chemscore.Internal_Hbond.Weighted>
0.0000

> <Gold.Chemscore.DEClash.Weighted>
0.3592

> <Gold.Chemscore.DEInternal.Weighted>
3.3436

> <Gold.Chemscore.Rot.Weighted>
7.6880

> <Gold.Chemscore.Internal.Correction.Weighted>
   9.000000E+99

> <Gold.Protein.RotatedTorsions>
[ 6907 6896 6895 6894 ] final  -54.76 input  -60.11 | X-H torsion
[ 7974 7965 7964 7962 ] final  -38.02 input  175.53 | X-H torsion
[ 8008 7997 7996 7995 ] final  -19.48 input   59.86 | X-H torsion
[ 10167 10162 10161 10158 ] final  139.78 input  -65.29 | X-H torsion
[ 10718 10713 10712 10709 ] final  -93.42 input   66.30 | X-H torsion
[ 10763 10752 10751 10750 ] final -169.17 input  -60.55 | X-H torsion
[ 11005 11000 10999 10996 ] final  -59.80 input  -57.11 | X-H torsion

> <Gold.Protein.ActiveResidues>
 VAL166  LYS551  ARG553  GLY616  TRP617  ASP618  TYR619  PRO620  LYS621  CYS622 
 ASP623  PHE694  ASN695  SER759  ASP760  ASP761  ALA762  ILE779  LEU786  VAL792 
 PHE793  MET794  SER795  GLU796  ALA797  LYS798  CYS799  TRP800  GLU811  SER814 

> <Gold.Protein.RotatedAtoms>
  150.8309  134.7562  159.6852 H   0  0  0  0  0  0  0  0  0  0  0  0  # atno 6907 bound_to 6896
  152.4414  134.5580  159.9896 H   0  0  0  0  0  0  0  0  0  0  0  0  # atno 6908 bound_to 6896
  151.5741  133.3348  159.3031 H   0  0  0  0  0  0  0  0  0  0  0  0  # atno 6909 bound_to 6896
  146.0523  140.6464  142.9036 H   0  0  0  0  0  0  0  0  0  0  0  0  # atno 7974 bound_to 7965
  154.4834  140.2087  155.9712 H   0  0  0  0  0  0  0  0  0  0  0  0  # atno 8008 bound_to 7997
  156.1199  140.3215  155.8162 H   0  0  0  0  0  0  0  0  0  0  0  0  # atno 8009 bound_to 7997
  155.4487  140.0515  157.2994 H   0  0  0  0  0  0  0  0  0  0  0  0  # atno 8010 bound_to 7997
  139.5068  144.6274  151.5903 H   0  0  0  0  0  0  0  0  0  0  0  0  # atno 10167 bound_to 10162
  156.0013  130.5026  150.5773 H   0  0  0  0  0  0  0  0  0  0  0  0  # atno 10718 bound_to 10713
  154.6552  135.2917  154.9937 H   0  0  0  0  0  0  0  0  0  0  0  0  # atno 10763 bound_to 10752
  154.1016  135.6576  153.4873 H   0  0  0  0  0  0  0  0  0  0  0  0  # atno 10764 bound_to 10752
  153.0398  135.5244  154.7477 H   0  0  0  0  0  0  0  0  0  0  0  0  # atno 10765 bound_to 10752
  141.1262  133.6618  156.5126 H   0  0  0  0  0  0  0  0  0  0  0  0  # atno 11005 bound_to 11000
  144.7129  140.4105  143.7066 LP  0  0  0  0  0  0  0  0  0  0  0  0  # atno 17320 bound_to 7965
  145.6703  139.1598  143.2758 LP  0  0  0  0  0  0  0  0  0  0  0  0  # atno 17321 bound_to 7965
  140.5995  143.9635  150.6377 LP  0  0  0  0  0  0  0  0  0  0  0  0  # atno 17342 bound_to 10162
  140.2842  143.3368  152.1123 LP  0  0  0  0  0  0  0  0  0  0  0  0  # atno 17343 bound_to 10162
  157.3659  131.0757  151.1598 LP  0  0  0  0  0  0  0  0  0  0  0  0  # atno 17370 bound_to 10713
  157.2367  130.6550  149.5872 LP  0  0  0  0  0  0  0  0  0  0  0  0  # atno 17371 bound_to 10713
  140.4356  134.7062  157.4965 LP  0  0  0  0  0  0  0  0  0  0  0  0  # atno 17394 bound_to 11000
  140.0264  134.6471  155.9167 LP  0  0  0  0  0  0  0  0  0  0  0  0  # atno 17395 bound_to 11000

$$$$
