AV-unprocessed.smi:50|AV-procd|sdf|498|dock3
  -GOLD-   2262016373D 1   1.00000     0.00000
 Structure written by MMmdl.
 42 43  0  0  0  0  0  0  0  0  2 V2000
  143.8723  132.1190  150.6832 C   0  0  0  0  0  0  0  0  0  0  0  0
  145.2257  132.8174  150.4361 C   0  0  0  0  0  0  0  0  0  0  0  0
  146.2313  132.3364  151.4985 C   0  0  0  0  0  0  0  0  0  0  0  0
  145.1590  134.3742  150.3993 C   0  0  1  0  0  0  0  0  0  0  0  0
  144.2389  134.8154  149.3500 N   0  0  0  0  0  0  0  0  0  0  0  0
  144.7839  135.0014  151.7548 C   0  0  0  0  0  0  0  0  0  0  0  0
  143.7364  134.7713  152.3624 O   0  0  0  0  0  0  0  0  0  0  0  0
  145.7668  135.8179  152.1747 O   0  0  0  0  0  0  0  0  0  0  0  0
  145.6094  136.6203  153.3361 C   0  0  0  0  0  0  0  0  0  0  0  0
  145.7842  138.0844  152.9259 C   0  0  0  0  0  0  0  0  0  0  0  0
  147.1351  138.4650  153.1496 O   0  0  0  0  0  0  0  0  0  0  0  0
  147.3157  139.3295  154.2251 C   0  0  0  0  0  0  0  0  0  0  0  0
  148.7406  139.5354  154.4240 N   0  0  0  0  0  0  0  0  0  0  0  0
  149.3910  140.7152  154.4284 C   0  0  0  0  0  0  0  0  0  0  0  0
  150.7069  140.6425  154.6228 N   0  0  0  0  0  0  0  0  0  0  0  0
  150.9049  139.2728  154.7560 C   0  0  0  0  0  0  0  0  0  0  0  0
  152.1335  138.4706  154.9698 C   0  0  0  0  0  0  0  0  0  0  0  0
  153.2148  139.0473  155.0706 O   0  0  0  0  0  0  0  0  0  0  0  0
  151.9479  137.1169  155.0325 N   0  5  0  0  0  0  0  0  0  0  0  0
  150.6638  136.5691  154.9038 C   0  0  0  0  0  0  0  0  0  0  0  0
  150.6575  135.1946  154.9992 N   0  0  0  0  0  0  0  0  0  0  0  0
  149.5389  137.2142  154.7143 N   0  0  0  0  0  0  0  0  0  0  0  0
  149.7283  138.5820  154.6437 C   0  0  0  0  0  0  0  0  0  0  0  0
  146.1510  134.7422  150.1342 H   0  0  0  0  0  0  0  0  0  0  0  0
  143.4017  132.4927  151.5921 H   0  0  0  0  0  0  0  0  0  0  0  0
  143.9965  131.0415  150.7953 H   0  0  0  0  0  0  0  0  0  0  0  0
  143.1752  132.2668  149.8584 H   0  0  0  0  0  0  0  0  0  0  0  0
  145.5847  132.4709  149.4657 H   0  0  0  0  0  0  0  0  0  0  0  0
  145.9269  132.6476  152.4986 H   0  0  0  0  0  0  0  0  0  0  0  0
  147.2312  132.7308  151.3174 H   0  0  0  0  0  0  0  0  0  0  0  0
  146.3112  131.2490  151.5014 H   0  0  0  0  0  0  0  0  0  0  0  0
  143.8535  135.7260  149.5558 H   0  0  0  0  0  0  0  0  0  0  0  0
  144.7029  134.8901  148.4562 H   0  0  0  0  0  0  0  0  0  0  0  0
  144.6299  136.4501  153.7837 H   0  0  0  0  0  0  0  0  0  0  0  0
  146.3596  136.3758  154.0893 H   0  0  0  0  0  0  0  0  0  0  0  0
  145.5568  138.2076  151.8665 H   0  0  0  0  0  0  0  0  0  0  0  0
  145.0811  138.7057  153.4816 H   0  0  0  0  0  0  0  0  0  0  0  0
  146.8673  140.2921  153.9775 H   0  0  0  0  0  0  0  0  0  0  0  0
  146.8530  138.9526  155.1388 H   0  0  0  0  0  0  0  0  0  0  0  0
  148.8827  141.6560  154.2775 H   0  0  0  0  0  0  0  0  0  0  0  0
  151.4884  134.6410  155.1461 H   0  0  0  0  0  0  0  0  0  0  0  0
  149.8164  134.6417  154.9225 H   0  0  0  0  0  0  0  0  0  0  0  0
  1  2  1  0  0  0  0
  1 25  1  0  0  0  0
  1 26  1  0  0  0  0
  1 27  1  0  0  0  0
  2  3  1  0  0  0  0
  2  4  1  0  0  0  0
  2 28  1  0  0  0  0
  3 29  1  0  0  0  0
  3 30  1  0  0  0  0
  3 31  1  0  0  0  0
  4 24  1  0  0  0  0
  4  5  1  0  0  0  0
  4  6  1  0  0  0  0
  5 32  1  0  0  0  0
  5 33  1  0  0  0  0
  6  7  2  0  0  0  0
  6  8  1  0  0  0  0
  8  9  1  0  0  0  0
  9 10  1  0  0  0  0
  9 34  1  0  0  0  0
  9 35  1  0  0  0  0
 10 11  1  0  0  0  0
 10 36  1  0  0  0  0
 10 37  1  0  0  0  0
 11 12  1  0  0  0  0
 12 13  1  0  0  0  0
 12 38  1  0  0  0  0
 12 39  1  0  0  0  0
 13 23  1  0  0  0  0
 13 14  1  0  0  0  0
 14 15  2  0  0  0  0
 14 40  1  0  0  0  0
 15 16  1  0  0  0  0
 16 23  2  0  0  0  0
 16 17  1  0  0  0  0
 17 18  2  0  0  0  0
 17 19  1  0  0  0  0
 19 20  1  0  0  0  0
 20 21  1  0  0  0  0
 20 22  2  0  0  0  0
 21 41  1  0  0  0  0
 21 42  1  0  0  0  0
 22 23  1  0  0  0  0
M  CHG  1  19  -1
M  END
> <s_m_source_file>
AV-unprocessed.smi

> <i_m_source_file_index>
50

> <i_lp_mmshare_version>
43012

> <i_f3d_flags>
0

> <s_epik_input>
W0NIM11bQ0hdKFtDSDNdKVtDQEhdKFtOSDJdKUMoPU8pT1tDSDJdW0NIMl1PW0NIMl1uKFtjSF1uMSljKGMxMiluYyhbTkgyXSlbbkhdYzI9Tw==

> <s_epik_cmdline>
J2VwaWtfcHl0aG9uJywgJy1waCcsICc3LjAnLCAnLXRuJywgJzgnLCAnLW1hJywgJzIwMCcsICctbWV0YWxfYmluZGluZycsICctaW1hZScsICc8aW5maWxlLm1hZT4nLCAnLW9tYWUnLCAnPG91dGZpbGUubWFlPic=

> <r_lp_tautomer_probability>
0.99994

> <r_epik_Ionization_Penalty>
4.26118

> <r_epik_Ionization_Penalty_Charging>
1.23364e-10

> <r_epik_Ionization_Penalty_Neutral>
4.26118

> <r_epik_State_Penalty>
4.27372

> <r_epik_Charging_Adjusted_Penalty>
4.27372

> <i_epik_Tot_Q>
-1

> <i_epik_Tot_abs_Q>
1

> <r_epik_Metal_State_Penalty>
1.24306

> <b_epik_Metal_Only>
1

> <s_epik_Chemistry_Notes>
This compound has an ester and may undergo hydrolysis at high or low pH. This compound contains an acetal/aminal-like group ( X-CH(R)-Y where X, Y are N, S, or O) that may be acid/base labile, releasing an aldehyde.

> <s_lp_Force_Field>
OPLS_2005

> <r_lp_Energy>
20.1027

> <b_lp_Chiralities_Consistent>
1

> <s_lp_Variant>
AV-unprocessed.smi:50-8

> <Gold.Version>
5.8.1

> <Gold.Id.Protein>
6NUR|6NUR_protein|mol2

> <Gold.PLP.Fitness>
47.9000

> <Gold.PLP.PLP>
-34.7652

> <Gold.PLP.part.hbond>
-4.4911

> <Gold.PLP.part.metal>
0.0000

> <Gold.PLP.part.buried>
-6.0113

> <Gold.PLP.part.nonpolar>
-25.4726

> <Gold.PLP.part.repulsive>
1.3490

> <Gold.PLP.ligand.clash>
0.0000

> <Gold.PLP.ligand.torsion>
1.0475

> <Gold.PLP.Chemscore.Hbond>
4.9600

> <Gold.PLP.Chemscore.CHOScore>
0.0000

> <Gold.PLP.Chemscore.Metal>
0.0000

> <Gold.Chemscore.Hbonds>
donor molecule, donor type, donor heavy atom, donor atom, acceptor molecule, acceptor atom, score
      L1  H     5    33       P1  7921  0.96
      P1  H  7989  7998       L1    15  0.77
      P1  H  7997  8009       L1    18  1.00
      P1  H 10752 10765       L1    19  1.85

> <Gold.PLP.Chemscore.Internal.Correction>
0.3498

> <Gold.Rescore>
     Score         DG    S(hbond)    S(metal)    S(lipo)     H(rot)  DE(clash)    DE(int)     intcor
      8.99     -10.17       3.47        0.00      44.38       4.72       0.12       1.06       ----

> <Gold.Chemscore.Fitness>
8.9928

> <Gold.Chemscore.DG>
-10.1733

> <Gold.Chemscore.ZeroCoef>
-5.4800

> <Gold.Chemscore.Hbond>
3.4714

> <Gold.Chemscore.Metal>
0.0000

> <Gold.Chemscore.Lipo>
44.3768

> <Gold.Chemscore.Internal_Hbond>
0.0000

> <Gold.Chemscore.DEClash>
0.1219

> <Gold.Chemscore.DEInternal>
1.0586

> <Gold.Chemscore.Rot>
4.7239

> <Gold.Chemscore.Internal.Correction>
   9.000000E+99

> <Gold.Chemscore.Hbonds>
donor molecule, donor type, donor heavy atom, donor atom, acceptor molecule, acceptor atom, score
      L1  H     5    33       P1  7921  0.92
      P1  H  7989  7998       L1    15  0.16
      P1  H  7997  8009       L1    18  1.00
      P1  H 10752 10765       L1    19  0.20

> <Gold.Chemscore.Hbond.Weighted>
-11.5945

> <Gold.Chemscore.Metal.Weighted>
-0.0000

> <Gold.Chemscore.Lipo.Weighted>
-5.1921

> <Gold.Chemscore.Internal_Hbond.Weighted>
0.0000

> <Gold.Chemscore.DEClash.Weighted>
0.1219

> <Gold.Chemscore.DEInternal.Weighted>
1.0586

> <Gold.Chemscore.Rot.Weighted>
12.0933

> <Gold.Chemscore.Internal.Correction.Weighted>
   9.000000E+99

> <Gold.Protein.RotatedTorsions>
[ 6907 6896 6895 6894 ] final  -84.33 input  -60.11 | X-H torsion
[ 7974 7965 7964 7962 ] final   20.70 input  175.53 | X-H torsion
[ 8008 7997 7996 7995 ] final -139.87 input   59.86 | X-H torsion
[ 10167 10162 10161 10158 ] final -170.27 input  -65.29 | X-H torsion
[ 10718 10713 10712 10709 ] final -160.12 input   66.30 | X-H torsion
[ 10763 10752 10751 10750 ] final  176.30 input  -60.55 | X-H torsion
[ 11005 11000 10999 10996 ] final -138.79 input  -57.11 | X-H torsion

> <Gold.Protein.ActiveResidues>
 VAL166  LYS551  ARG553  GLY616  TRP617  ASP618  TYR619  PRO620  LYS621  CYS622 
 ASP623  PHE694  ASN695  SER759  ASP760  ASP761  ALA762  ILE779  LEU786  VAL792 
 PHE793  MET794  SER795  GLU796  ALA797  LYS798  CYS799  TRP800  GLU811  SER814 

> <Gold.Protein.RotatedAtoms>
  150.6877  134.3374  159.4852 H   0  0  0  0  0  0  0  0  0  0  0  0  # atno 6907 bound_to 6896
  152.1231  134.9188  160.0571 H   0  0  0  0  0  0  0  0  0  0  0  0  # atno 6908 bound_to 6896
  152.0386  133.3933  159.4364 H   0  0  0  0  0  0  0  0  0  0  0  0  # atno 6909 bound_to 6896
  146.2101  139.8132  142.8695 H   0  0  0  0  0  0  0  0  0  0  0  0  # atno 7974 bound_to 7965
  155.4520  140.0539  157.3000 H   0  0  0  0  0  0  0  0  0  0  0  0  # atno 8008 bound_to 7997
  154.4773  140.2066  155.9803 H   0  0  0  0  0  0  0  0  0  0  0  0  # atno 8009 bound_to 7997
  156.1152  140.3197  155.8133 H   0  0  0  0  0  0  0  0  0  0  0  0  # atno 8010 bound_to 7997
  139.5872  144.1292  152.1590 H   0  0  0  0  0  0  0  0  0  0  0  0  # atno 10167 bound_to 10162
  156.5777  130.8716  151.2856 H   0  0  0  0  0  0  0  0  0  0  0  0  # atno 10718 bound_to 10713
  154.4792  135.2774  155.1583 H   0  0  0  0  0  0  0  0  0  0  0  0  # atno 10763 bound_to 10752
  154.3300  135.6192  153.5551 H   0  0  0  0  0  0  0  0  0  0  0  0  # atno 10764 bound_to 10752
  152.9873  135.5763  154.5189 H   0  0  0  0  0  0  0  0  0  0  0  0  # atno 10765 bound_to 10752
  140.8582  134.2202  157.4722 H   0  0  0  0  0  0  0  0  0  0  0  0  # atno 11005 bound_to 11000
  145.3174  141.0235  143.3520 LP  0  0  0  0  0  0  0  0  0  0  0  0  # atno 17320 bound_to 7965
  144.8892  139.4798  143.6686 LP  0  0  0  0  0  0  0  0  0  0  0  0  # atno 17321 bound_to 7965
  140.0859  144.5662  150.7089 LP  0  0  0  0  0  0  0  0  0  0  0  0  # atno 17342 bound_to 10162
  140.7142  143.2530  151.4488 LP  0  0  0  0  0  0  0  0  0  0  0  0  # atno 17343 bound_to 10162
  157.7334  130.9729  150.1974 LP  0  0  0  0  0  0  0  0  0  0  0  0  # atno 17370 bound_to 10713
  156.2659  130.3716  149.8082 LP  0  0  0  0  0  0  0  0  0  0  0  0  # atno 17371 bound_to 10713
  139.8706  134.9716  156.4745 LP  0  0  0  0  0  0  0  0  0  0  0  0  # atno 17394 bound_to 11000
  140.8713  133.7986  155.9367 LP  0  0  0  0  0  0  0  0  0  0  0  0  # atno 17395 bound_to 11000

$$$$
