AV-unprocessed.smi:2229|AV-procd|sdf|9028|dock5
  -GOLD-   2272012233D 1   1.00000     0.00000
 Structure written by MMmdl.
 44 45  0  0  0  0  0  0  0  0  1 V2000
  152.0164  144.3333  157.8443 C   0  0  0  0  0  0  0  0  0  0  0  0
  151.7490  144.2320  159.3562 C   0  0  0  0  0  0  0  0  0  0  0  0
  151.6840  145.6334  159.9822 C   0  0  0  0  0  0  0  0  0  0  0  0
  152.7869  143.3549  160.0878 C   0  0  0  0  0  0  0  0  0  0  0  0
  152.8107  141.8949  159.6042 C   0  0  0  0  0  0  0  0  0  0  0  0
  153.9727  141.0557  160.1817 C   0  0  1  0  0  0  0  0  0  0  0  0
  153.9503  140.9206  161.7079 C   0  0  0  0  0  0  0  0  0  0  0  0
  154.8850  139.7492  161.9908 C   0  0  0  0  0  0  0  0  0  0  0  0
  154.6336  138.7659  160.8456 C   0  0  0  0  0  0  0  0  0  0  0  0
  154.0957  139.5973  159.6631 C   0  0  1  0  0  0  0  0  0  0  0  0
  152.8208  139.0466  159.1994 N   0  0  0  0  0  0  0  0  0  0  0  0
  152.5299  138.7099  157.9331 C   0  0  0  0  0  0  0  0  0  0  0  0
  153.3440  138.7662  157.0109 O   0  0  0  0  0  0  0  0  0  0  0  0
  151.0963  138.2403  157.6656 C   0  0  0  0  0  0  0  0  0  0  0  0
  150.7951  138.2122  156.2336 N   0  0  0  0  0  0  0  0  0  0  0  0
  150.9052  139.3124  155.4100 C   0  0  0  0  0  0  0  0  0  0  0  0
  150.5634  139.0409  154.1966 N   0  0  0  0  0  0  0  0  0  0  0  0
  150.2280  137.7305  154.2710 N   0  0  0  0  0  0  0  0  0  0  0  0
  150.3563  137.2010  155.4883 C   0  0  0  0  0  0  0  0  0  0  0  0
  150.1219  136.0445  155.8345 O   0  0  0  0  0  0  0  0  0  0  0  0
  149.9137  137.2530  153.4384 H   0  0  0  0  0  0  0  0  0  0  0  0
  153.0064  144.7435  157.6432 H   0  0  0  0  0  0  0  0  0  0  0  0
  151.2850  144.9818  157.3614 H   0  0  0  0  0  0  0  0  0  0  0  0
  151.9510  143.3625  157.3541 H   0  0  0  0  0  0  0  0  0  0  0  0
  150.7677  143.7742  159.4899 H   0  0  0  0  0  0  0  0  0  0  0  0
  152.6370  146.1546  159.8860 H   0  0  0  0  0  0  0  0  0  0  0  0
  151.4380  145.5816  161.0432 H   0  0  0  0  0  0  0  0  0  0  0  0
  150.9203  146.2447  159.5001 H   0  0  0  0  0  0  0  0  0  0  0  0
  153.7802  143.7933  159.9852 H   0  0  0  0  0  0  0  0  0  0  0  0
  152.5596  143.3661  161.1539 H   0  0  0  0  0  0  0  0  0  0  0  0
  151.8585  141.4225  159.8473 H   0  0  0  0  0  0  0  0  0  0  0  0
  152.8922  141.8911  158.5180 H   0  0  0  0  0  0  0  0  0  0  0  0
  154.9049  141.5587  159.9186 H   0  0  0  0  0  0  0  0  0  0  0  0
  154.2669  141.8312  162.2172 H   0  0  0  0  0  0  0  0  0  0  0  0
  152.9427  140.6788  162.0496 H   0  0  0  0  0  0  0  0  0  0  0  0
  155.9198  140.0926  161.9587 H   0  0  0  0  0  0  0  0  0  0  0  0
  154.7138  139.3035  162.9712 H   0  0  0  0  0  0  0  0  0  0  0  0
  155.5418  138.2233  160.5807 H   0  0  0  0  0  0  0  0  0  0  0  0
  153.9018  138.0218  161.1649 H   0  0  0  0  0  0  0  0  0  0  0  0
  154.8246  139.5704  158.8509 H   0  0  0  0  0  0  0  0  0  0  0  0
  152.0873  138.9636  159.8885 H   0  0  0  0  0  0  0  0  0  0  0  0
  150.9647  137.2515  158.1079 H   0  0  0  0  0  0  0  0  0  0  0  0
  150.3835  138.8996  158.1646 H   0  0  0  0  0  0  0  0  0  0  0  0
  151.2471  140.2638  155.8212 H   0  0  0  0  0  0  0  0  0  0  0  0
  1  2  1  0  0  0  0
  1 22  1  0  0  0  0
  1 23  1  0  0  0  0
  1 24  1  0  0  0  0
  2  3  1  0  0  0  0
  2  4  1  0  0  0  0
  2 25  1  0  0  0  0
  3 26  1  0  0  0  0
  3 27  1  0  0  0  0
  3 28  1  0  0  0  0
  4  5  1  0  0  0  0
  4 29  1  0  0  0  0
  4 30  1  0  0  0  0
  5  6  1  0  0  0  0
  5 31  1  0  0  0  0
  5 32  1  0  0  0  0
  6 10  1  0  0  0  0
  6  7  1  0  0  0  0
  6 33  1  0  0  0  0
  7  8  1  0  0  0  0
  7 34  1  0  0  0  0
  7 35  1  0  0  0  0
  8  9  1  0  0  0  0
  8 36  1  0  0  0  0
  8 37  1  0  0  0  0
  9 10  1  0  0  0  0
  9 38  1  0  0  0  0
  9 39  1  0  0  0  0
 10 11  1  0  0  0  0
 10 40  1  0  0  0  0
 11 12  1  0  0  0  0
 11 41  1  0  0  0  0
 12 13  2  0  0  0  0
 12 14  1  0  0  0  0
 14 15  1  0  0  0  0
 14 42  1  0  0  0  0
 14 43  1  0  0  0  0
 15 19  1  0  0  0  0
 15 16  1  0  0  0  0
 16 17  2  0  0  0  0
 16 44  1  0  0  0  0
 17 18  1  0  0  0  0
 18 21  1  0  0  0  0
 18 19  1  0  0  0  0
 19 20  2  0  0  0  0
M  END
> <s_m_source_file>
AV-unprocessed.smi

> <i_m_source_file_index>
2229

> <i_lp_mmshare_version>
43012

> <i_f3d_flags>
0

> <s_epik_input>
W0NIM11bQ0hdKFtDSDNdKVtDSDJdW0NIMl1bQ0BASF0xW0NIMl1bQ0gyXVtDSDJdW0NASF0xW05IXUMoPU8pW0NIMl1uMltjSF1uW25IXWMyPU8=

> <s_epik_cmdline>
J2VwaWtfcHl0aG9uJywgJy1waCcsICc3LjAnLCAnLXRuJywgJzgnLCAnLW1hJywgJzIwMCcsICctbWV0YWxfYmluZGluZycsICctaW1hZScsICc8aW5maWxlLm1hZT4nLCAnLW9tYWUnLCAnPG91dGZpbGUubWFlPic=

> <r_lp_tautomer_probability>
1

> <r_epik_Ionization_Penalty>
4.14174e-05

> <r_epik_Ionization_Penalty_Charging>
4.13165e-05

> <r_epik_Ionization_Penalty_Neutral>
1.00911e-07

> <r_epik_State_Penalty>
-0

> <r_epik_Charging_Adjusted_Penalty>
4.13165e-05

> <i_epik_Tot_Q>
0

> <i_epik_Tot_abs_Q>
0

> <r_epik_Metal_State_Penalty>
0.0399369

> <b_epik_Metal_Only>
0

> <s_lp_Force_Field>
OPLS_2005

> <r_lp_Energy>
36.1569

> <b_lp_Chiralities_Consistent>
1

> <s_lp_Variant>
AV-unprocessed.smi:2229-2

> <Gold.Version>
5.8.1

> <Gold.Id.Protein>
6NUR|6NUR_protein|mol2

> <Gold.PLP.Fitness>
47.0765

> <Gold.PLP.PLP>
-40.3003

> <Gold.PLP.part.hbond>
-2.8346

> <Gold.PLP.part.metal>
0.0000

> <Gold.PLP.part.buried>
-5.5680

> <Gold.PLP.part.nonpolar>
-34.3966

> <Gold.PLP.part.repulsive>
0.4308

> <Gold.PLP.ligand.clash>
0.0000

> <Gold.PLP.ligand.torsion>
0.2492

> <Gold.PLP.Chemscore.Hbond>
2.4112

> <Gold.PLP.Chemscore.CHOScore>
0.0000

> <Gold.PLP.Chemscore.Metal>
0.0000

> <Gold.Chemscore.Hbonds>
donor molecule, donor type, donor heavy atom, donor atom, acceptor molecule, acceptor atom, score
      L1  H    18    21       P1  7948  0.91
      P1  H  7989  7998       L1    17  0.29
      P1  H  7997  8010       L1    13  1.00

> <Gold.PLP.Chemscore.Internal.Correction>
0.0409

> <Gold.Rescore>
     Score         DG    S(hbond)    S(metal)    S(lipo)     H(rot)  DE(clash)    DE(int)     intcor
     15.80     -17.27       1.91        0.00     103.94       2.64       0.05       1.42       ----

> <Gold.Chemscore.Fitness>
15.7970

> <Gold.Chemscore.DG>
-17.2701

> <Gold.Chemscore.ZeroCoef>
-5.4800

> <Gold.Chemscore.Hbond>
1.9098

> <Gold.Chemscore.Metal>
0.0000

> <Gold.Chemscore.Lipo>
103.9428

> <Gold.Chemscore.Internal_Hbond>
0.0000

> <Gold.Chemscore.DEClash>
0.0494

> <Gold.Chemscore.DEInternal>
1.4236

> <Gold.Chemscore.Rot>
2.6368

> <Gold.Chemscore.Internal.Correction>
   9.000000E+99

> <Gold.Chemscore.Hbonds>
donor molecule, donor type, donor heavy atom, donor atom, acceptor molecule, acceptor atom, score
      L1  H    18    21       P1  7948  0.39
      P1  H  7989  7998       L1    17  0.02
      P1  H  7997  8010       L1    13  0.97

> <Gold.Chemscore.Hbond.Weighted>
-6.3789

> <Gold.Chemscore.Metal.Weighted>
-0.0000

> <Gold.Chemscore.Lipo.Weighted>
-12.1613

> <Gold.Chemscore.Internal_Hbond.Weighted>
0.0000

> <Gold.Chemscore.DEClash.Weighted>
0.0494

> <Gold.Chemscore.DEInternal.Weighted>
1.4236

> <Gold.Chemscore.Rot.Weighted>
6.7501

> <Gold.Chemscore.Internal.Correction.Weighted>
   9.000000E+99

> <Gold.Protein.RotatedTorsions>
[ 6907 6896 6895 6894 ] final  161.70 input  -60.11 | X-H torsion
[ 7974 7965 7964 7962 ] final   58.37 input  175.53 | X-H torsion
[ 8008 7997 7996 7995 ] final   64.49 input   59.86 | X-H torsion
[ 10167 10162 10161 10158 ] final  167.90 input  -65.29 | X-H torsion
[ 10718 10713 10712 10709 ] final -123.44 input   66.30 | X-H torsion
[ 10763 10752 10751 10750 ] final   31.69 input  -60.55 | X-H torsion
[ 11005 11000 10999 10996 ] final   43.33 input  -57.11 | X-H torsion

> <Gold.Protein.ActiveResidues>
 VAL166  LYS551  ARG553  GLY616  TRP617  ASP618  TYR619  PRO620  LYS621  CYS622 
 ASP623  PHE694  ASN695  SER759  ASP760  ASP761  ALA762  ILE779  LEU786  VAL792 
 PHE793  MET794  SER795  GLU796  ALA797  LYS798  CYS799  TRP800  GLU811  SER814 

> <Gold.Protein.RotatedAtoms>
  151.9515  133.3667  159.4001 H   0  0  0  0  0  0  0  0  0  0  0  0  # atno 6907 bound_to 6896
  150.6980  134.4335  159.5268 H   0  0  0  0  0  0  0  0  0  0  0  0  # atno 6908 bound_to 6896
  152.2009  134.8589  160.0559 H   0  0  0  0  0  0  0  0  0  0  0  0  # atno 6909 bound_to 6896
  145.9189  139.3713  143.0490 H   0  0  0  0  0  0  0  0  0  0  0  0  # atno 7974 bound_to 7965
  155.6469  140.3497  155.4734 H   0  0  0  0  0  0  0  0  0  0  0  0  # atno 8008 bound_to 7997
  155.9880  140.1188  157.0688 H   0  0  0  0  0  0  0  0  0  0  0  0  # atno 8009 bound_to 7997
  154.4210  140.1125  156.5512 H   0  0  0  0  0  0  0  0  0  0  0  0  # atno 8010 bound_to 7997
  139.4955  144.3872  151.9557 H   0  0  0  0  0  0  0  0  0  0  0  0  # atno 10167 bound_to 10162
  156.1502  130.6529  150.9902 H   0  0  0  0  0  0  0  0  0  0  0  0  # atno 10718 bound_to 10713
  153.0302  135.6432  154.1239 H   0  0  0  0  0  0  0  0  0  0  0  0  # atno 10763 bound_to 10752
  154.0962  135.2863  155.3263 H   0  0  0  0  0  0  0  0  0  0  0  0  # atno 10764 bound_to 10752
  154.6430  135.5453  153.7875 H   0  0  0  0  0  0  0  0  0  0  0  0  # atno 10765 bound_to 10752
  140.1655  134.4288  155.8290 H   0  0  0  0  0  0  0  0  0  0  0  0  # atno 11005 bound_to 11000
  145.8575  140.9494  143.0717 LP  0  0  0  0  0  0  0  0  0  0  0  0  # atno 17320 bound_to 7965
  144.6751  140.0488  143.7479 LP  0  0  0  0  0  0  0  0  0  0  0  0  # atno 17321 bound_to 7965
  140.3309  144.3317  150.5987 LP  0  0  0  0  0  0  0  0  0  0  0  0  # atno 17342 bound_to 10162
  140.5646  143.2188  151.7707 LP  0  0  0  0  0  0  0  0  0  0  0  0  # atno 17343 bound_to 10162
  157.6650  131.0873  150.7749 LP  0  0  0  0  0  0  0  0  0  0  0  0  # atno 17370 bound_to 10713
  156.7817  130.4861  149.5400 LP  0  0  0  0  0  0  0  0  0  0  0  0  # atno 17371 bound_to 10713
  141.2213  133.6932  156.7670 LP  0  0  0  0  0  0  0  0  0  0  0  0  # atno 17394 bound_to 11000
  140.2439  134.8592  157.3601 LP  0  0  0  0  0  0  0  0  0  0  0  0  # atno 17395 bound_to 11000

$$$$
