AV-unprocessed.smi:2367|AV-procd|sdf|9424|dock5
  -GOLD-   2272013 63D 1   1.00000     0.00000
 Structure written by MMmdl.
 34 35  0  0  0  0  0  0  0  0  1 V2000
  147.8502  141.4716  154.3444 C   0  0  0  0  0  0  0  0  0  0  0  0
  147.2432  140.8525  153.2176 O   0  0  0  0  0  0  0  0  0  0  0  0
  147.0760  139.4365  153.2954 C   0  0  0  0  0  0  0  0  0  0  0  0
  146.4654  138.8602  152.0093 C   0  0  0  0  0  0  0  0  0  0  0  0
  146.7263  137.4279  151.9046 N   0  0  0  0  0  0  0  0  0  0  0  0
  145.7950  136.4738  151.7693 C   0  0  0  0  0  0  0  0  0  0  0  0
  144.5842  136.6949  151.7386 O   0  0  0  0  0  0  0  0  0  0  0  0
  146.3539  135.2586  151.6473 N   0  0  0  0  0  0  0  0  0  0  0  0
  145.6716  134.0286  151.4658 C   0  0  0  0  0  0  0  0  0  0  0  0
  144.4702  134.0302  150.7275 C   0  0  0  0  0  0  0  0  0  0  0  0
  143.7975  132.8080  150.5285 C   0  0  0  0  0  0  0  0  0  0  0  0
  144.2523  131.6258  150.9956 N   0  0  0  0  0  0  0  0  0  0  0  0
  145.4167  131.6240  151.6795 C   0  0  0  0  0  0  0  0  0  0  0  0
  146.1693  132.7883  151.9347 C   0  0  0  0  0  0  0  0  0  0  0  0
  147.3520  132.6959  152.5890 F   0  0  0  0  0  0  0  0  0  0  0  0
  148.3999  138.8281  153.7963 C   0  0  0  0  0  0  0  0  0  0  0  0
  147.5930  137.9739  154.7759 C   0  0  0  0  0  0  0  0  0  0  0  0
  146.4790  139.0147  154.6535 C   0  0  0  0  0  0  0  0  0  0  0  0
  148.0171  142.5259  154.1252 H   0  0  0  0  0  0  0  0  0  0  0  0
  148.8167  141.0278  154.5838 H   0  0  0  0  0  0  0  0  0  0  0  0
  147.2143  141.4215  155.2275 H   0  0  0  0  0  0  0  0  0  0  0  0
  145.3831  138.9920  152.0163 H   0  0  0  0  0  0  0  0  0  0  0  0
  146.8134  139.4050  151.1311 H   0  0  0  0  0  0  0  0  0  0  0  0
  147.6955  137.1460  151.9102 H   0  0  0  0  0  0  0  0  0  0  0  0
  147.3585  135.2272  151.5563 H   0  0  0  0  0  0  0  0  0  0  0  0
  144.0626  134.9485  150.3304 H   0  0  0  0  0  0  0  0  0  0  0  0
  142.8693  132.7794  149.9769 H   0  0  0  0  0  0  0  0  0  0  0  0
  145.7669  130.6620  152.0236 H   0  0  0  0  0  0  0  0  0  0  0  0
  148.9559  138.2556  153.0533 H   0  0  0  0  0  0  0  0  0  0  0  0
  149.0415  139.5507  154.3040 H   0  0  0  0  0  0  0  0  0  0  0  0
  147.3148  137.0027  154.3640 H   0  0  0  0  0  0  0  0  0  0  0  0
  148.0283  137.8844  155.7715 H   0  0  0  0  0  0  0  0  0  0  0  0
  146.5516  139.7895  155.4189 H   0  0  0  0  0  0  0  0  0  0  0  0
  145.4732  138.5968  154.6014 H   0  0  0  0  0  0  0  0  0  0  0  0
  1  2  1  0  0  0  0
  1 19  1  0  0  0  0
  1 20  1  0  0  0  0
  1 21  1  0  0  0  0
  2  3  1  0  0  0  0
  3 18  1  0  0  0  0
  3  4  1  0  0  0  0
  3 16  1  0  0  0  0
  4  5  1  0  0  0  0
  4 22  1  0  0  0  0
  4 23  1  0  0  0  0
  5  6  1  0  0  0  0
  5 24  1  0  0  0  0
  6  7  2  0  0  0  0
  6  8  1  0  0  0  0
  8  9  1  0  0  0  0
  8 25  1  0  0  0  0
  9 14  1  0  0  0  0
  9 10  2  0  0  0  0
 10 11  1  0  0  0  0
 10 26  1  0  0  0  0
 11 12  2  0  0  0  0
 11 27  1  0  0  0  0
 12 13  1  0  0  0  0
 13 14  2  0  0  0  0
 13 28  1  0  0  0  0
 14 15  1  0  0  0  0
 16 17  1  0  0  0  0
 16 29  1  0  0  0  0
 16 30  1  0  0  0  0
 17 18  1  0  0  0  0
 17 31  1  0  0  0  0
 17 32  1  0  0  0  0
 18 33  1  0  0  0  0
 18 34  1  0  0  0  0
M  END
> <s_m_source_file>
AV-unprocessed.smi

> <i_m_source_file_index>
2367

> <i_lp_mmshare_version>
43012

> <i_f3d_flags>
0

> <s_epik_input>
W0NIMl0xW0NIMl1bQ0gyXUMxKE9bQ0gzXSlbQ0gyXVtOSF1DKD1PKVtOSF1jMltjSF1bY0hdbltjSF1jMkY=

> <s_epik_cmdline>
J2VwaWtfcHl0aG9uJywgJy1waCcsICc3LjAnLCAnLXRuJywgJzgnLCAnLW1hJywgJzIwMCcsICctbWV0YWxfYmluZGluZycsICctaW1hZScsICc8aW5maWxlLm1hZT4nLCAnLW9tYWUnLCAnPG91dGZpbGUubWFlPic=

> <r_epik_Ionization_Penalty>
0.00342397

> <r_epik_Ionization_Penalty_Charging>
0

> <r_epik_Ionization_Penalty_Neutral>
0.00342397

> <r_epik_State_Penalty>
0.00239946

> <r_epik_Charging_Adjusted_Penalty>
0.00239946

> <i_epik_Tot_Q>
0

> <i_epik_Tot_abs_Q>
0

> <r_epik_Metal_State_Penalty>
-0

> <b_epik_Metal_Only>
0

> <s_lp_Force_Field>
OPLS_2005

> <r_lp_Energy>
23.3759

> <b_lp_Chiralities_Consistent>
1

> <s_lp_Variant>
AV-unprocessed.smi:2367-1

> <Gold.Version>
5.8.1

> <Gold.Id.Protein>
6NUR|6NUR_protein|mol2

> <Gold.PLP.Fitness>
36.2101

> <Gold.PLP.PLP>
-28.2335

> <Gold.PLP.part.hbond>
-1.8849

> <Gold.PLP.part.metal>
0.0000

> <Gold.PLP.part.buried>
-4.6437

> <Gold.PLP.part.nonpolar>
-25.3057

> <Gold.PLP.part.repulsive>
3.0181

> <Gold.PLP.ligand.clash>
0.0000

> <Gold.PLP.ligand.torsion>
0.5562

> <Gold.PLP.Chemscore.Hbond>
1.8873

> <Gold.PLP.Chemscore.CHOScore>
1.0000

> <Gold.PLP.Chemscore.Metal>
0.0000

> <Gold.Chemscore.Hbonds>
donor molecule, donor type, donor heavy atom, donor atom, acceptor molecule, acceptor atom, score
      L1  H     5    24       P1  7948  1.00
      L1  H     8    25       P1  7948  0.90
      L1  C    11    27       P1 10186  1.00

> <Gold.PLP.Chemscore.Internal.Correction>
0.4274

> <Gold.Rescore>
     Score         DG    S(hbond)    S(metal)    S(lipo)     H(rot)  DE(clash)    DE(int)     intcor
     12.03     -15.34       1.82        0.00      65.18       1.51       1.21       2.10       ----

> <Gold.Chemscore.Fitness>
12.0318

> <Gold.Chemscore.DG>
-15.3361

> <Gold.Chemscore.ZeroCoef>
-5.4800

> <Gold.Chemscore.Hbond>
1.8224

> <Gold.Chemscore.Metal>
0.0000

> <Gold.Chemscore.Lipo>
65.1761

> <Gold.Chemscore.Internal_Hbond>
0.0000

> <Gold.Chemscore.DEClash>
1.2051

> <Gold.Chemscore.DEInternal>
2.0992

> <Gold.Chemscore.Rot>
1.5064

> <Gold.Chemscore.Internal.Correction>
   9.000000E+99

> <Gold.Chemscore.Hbonds>
donor molecule, donor type, donor heavy atom, donor atom, acceptor molecule, acceptor atom, score
      L1  H     5    24       P1  7948  0.93
      L1  H     8    25       P1  7948  0.78

> <Gold.Chemscore.Hbond.Weighted>
-6.0868

> <Gold.Chemscore.Metal.Weighted>
-0.0000

> <Gold.Chemscore.Lipo.Weighted>
-7.6256

> <Gold.Chemscore.Internal_Hbond.Weighted>
0.0000

> <Gold.Chemscore.DEClash.Weighted>
1.2051

> <Gold.Chemscore.DEInternal.Weighted>
2.0992

> <Gold.Chemscore.Rot.Weighted>
3.8563

> <Gold.Chemscore.Internal.Correction.Weighted>
   9.000000E+99

> <Gold.Protein.RotatedTorsions>
[ 6907 6896 6895 6894 ] final  166.46 input  -60.11 | X-H torsion
[ 7974 7965 7964 7962 ] final  160.09 input  175.53 | X-H torsion
[ 8008 7997 7996 7995 ] final   18.97 input   59.86 | X-H torsion
[ 10167 10162 10161 10158 ] final  -67.10 input  -65.29 | X-H torsion
[ 10718 10713 10712 10709 ] final  172.06 input   66.30 | X-H torsion
[ 10763 10752 10751 10750 ] final   15.07 input  -60.55 | X-H torsion
[ 11005 11000 10999 10996 ] final  164.82 input  -57.11 | X-H torsion

> <Gold.Protein.ActiveResidues>
 VAL166  LYS551  ARG553  GLY616  TRP617  ASP618  TYR619  PRO620  LYS621  CYS622 
 ASP623  PHE694  ASN695  SER759  ASP760  ASP761  ALA762  ILE779  LEU786  VAL792 
 PHE793  MET794  SER795  GLU796  ALA797  LYS798  CYS799  TRP800  GLU811  SER814 

> <Gold.Protein.RotatedAtoms>
  151.8785  133.3490  159.3758 H   0  0  0  0  0  0  0  0  0  0  0  0  # atno 6907 bound_to 6896
  150.7133  134.5042  159.5585 H   0  0  0  0  0  0  0  0  0  0  0  0  # atno 6908 bound_to 6896
  152.2589  134.8056  160.0485 H   0  0  0  0  0  0  0  0  0  0  0  0  # atno 6909 bound_to 6896
  144.7755  139.7709  143.6280 H   0  0  0  0  0  0  0  0  0  0  0  0  # atno 7974 bound_to 7965
  154.9138  140.3018  155.5252 H   0  0  0  0  0  0  0  0  0  0  0  0  # atno 8008 bound_to 7997
  156.3013  140.2384  156.4116 H   0  0  0  0  0  0  0  0  0  0  0  0  # atno 8009 bound_to 7997
  154.8399  140.0414  157.1523 H   0  0  0  0  0  0  0  0  0  0  0  0  # atno 8010 bound_to 7997
  140.5608  143.2313  151.6731 H   0  0  0  0  0  0  0  0  0  0  0  0  # atno 10167 bound_to 10162
  156.9845  131.0129  151.2873 H   0  0  0  0  0  0  0  0  0  0  0  0  # atno 10718 bound_to 10713
  153.1561  135.6787  153.8811 H   0  0  0  0  0  0  0  0  0  0  0  0  # atno 10763 bound_to 10752
  153.8221  135.3129  155.3412 H   0  0  0  0  0  0  0  0  0  0  0  0  # atno 10764 bound_to 10752
  154.7898  135.4841  154.0115 H   0  0  0  0  0  0  0  0  0  0  0  0  # atno 10765 bound_to 10752
  140.2498  134.7985  157.3491 H   0  0  0  0  0  0  0  0  0  0  0  0  # atno 11005 bound_to 11000
  146.1931  139.5183  142.9792 LP  0  0  0  0  0  0  0  0  0  0  0  0  # atno 17320 bound_to 7965
  145.6199  141.0324  143.1921 LP  0  0  0  0  0  0  0  0  0  0  0  0  # atno 17321 bound_to 7965
  139.5069  144.3665  152.0512 LP  0  0  0  0  0  0  0  0  0  0  0  0  # atno 17342 bound_to 10162
  140.2791  144.3879  150.6125 LP  0  0  0  0  0  0  0  0  0  0  0  0  # atno 17343 bound_to 10162
  157.5502  130.8177  149.8136 LP  0  0  0  0  0  0  0  0  0  0  0  0  # atno 17370 bound_to 10713
  156.0231  130.3788  150.1902 LP  0  0  0  0  0  0  0  0  0  0  0  0  # atno 17371 bound_to 10713
  140.1569  134.4778  155.7921 LP  0  0  0  0  0  0  0  0  0  0  0  0  # atno 17394 bound_to 11000
  141.2202  133.6885  156.7476 LP  0  0  0  0  0  0  0  0  0  0  0  0  # atno 17395 bound_to 11000

$$$$
