AV-unprocessed.smi:1971|AV-procd|sdf|7964|dock7
  -GOLD-   2272010133D 1   1.00000     0.00000
 Structure written by MMmdl.
 44 45  0  0  0  0  0  0  0  0  2 V2000
  150.9812  141.3485  155.9797 C   0  0  0  0  0  0  0  0  0  0  0  0
  151.2486  139.8448  155.8211 C   0  0  0  0  0  0  0  0  0  0  0  0
  150.9258  139.3681  154.4738 N   0  0  0  0  0  0  0  0  0  0  0  0
  151.4511  138.0245  154.2161 C   0  0  0  0  0  0  0  0  0  0  0  0
  150.6843  136.9414  155.0038 C   0  0  0  0  0  0  0  0  0  0  0  0
  149.2388  136.9821  154.6594 N   0  3  0  0  0  0  0  0  0  0  0  0
  148.4043  135.8808  155.2238 C   0  0  2  0  0  0  0  0  0  0  0  0
  148.1600  136.0252  156.7426 C   0  0  0  0  0  0  0  0  0  0  0  0
  148.9909  134.5043  154.8442 C   0  0  0  0  0  0  0  0  0  0  0  0
  148.5199  134.0566  153.5373 N   0  0  0  0  0  0  0  0  0  0  0  0
  147.2514  133.7253  153.2593 C   0  0  0  0  0  0  0  0  0  0  0  0
  146.3480  133.7501  154.0955 O   0  0  0  0  0  0  0  0  0  0  0  0
  147.1090  133.3692  151.9704 N   0  0  0  0  0  0  0  0  0  0  0  0
  145.9172  133.0088  151.2877 C   0  0  0  0  0  0  0  0  0  0  0  0
  144.6886  133.3770  151.6695 N   0  0  0  0  0  0  0  0  0  0  0  0
  143.7028  132.8868  150.8092 C   0  0  0  0  0  0  0  0  0  0  0  0
  144.2022  132.1421  149.7698 C   0  0  0  0  0  0  0  0  0  0  0  0
  145.9411  132.0283  149.8292 S   0  0  0  0  0  0  0  0  0  0  0  0
  148.6894  138.3382  154.9084 C   0  0  0  0  0  0  0  0  0  0  0  0
  149.4996  139.3964  154.1304 C   0  0  0  0  0  0  0  0  0  0  0  0
  151.3566  141.7013  156.9404 H   0  0  0  0  0  0  0  0  0  0  0  0
  149.9174  141.5819  155.9459 H   0  0  0  0  0  0  0  0  0  0  0  0
  151.4814  141.9244  155.2005 H   0  0  0  0  0  0  0  0  0  0  0  0
  152.3110  139.6741  155.9999 H   0  0  0  0  0  0  0  0  0  0  0  0
  150.7136  139.2843  156.5868 H   0  0  0  0  0  0  0  0  0  0  0  0
  151.3775  137.8201  153.1471 H   0  0  0  0  0  0  0  0  0  0  0  0
  152.5134  137.9914  154.4609 H   0  0  0  0  0  0  0  0  0  0  0  0
  151.1027  135.9672  154.7544 H   0  0  0  0  0  0  0  0  0  0  0  0
  150.8307  137.0777  156.0755 H   0  0  0  0  0  0  0  0  0  0  0  0
  147.4316  135.9411  154.7333 H   0  0  0  0  0  0  0  0  0  0  0  0
  147.4266  135.2996  157.0946 H   0  0  0  0  0  0  0  0  0  0  0  0
  147.7742  137.0116  156.9988 H   0  0  0  0  0  0  0  0  0  0  0  0
  149.0723  135.8619  157.3165 H   0  0  0  0  0  0  0  0  0  0  0  0
  150.0804  134.5529  154.8192 H   0  0  0  0  0  0  0  0  0  0  0  0
  148.7253  133.7621  155.5979 H   0  0  0  0  0  0  0  0  0  0  0  0
  149.2020  134.0035  152.7949 H   0  0  0  0  0  0  0  0  0  0  0  0
  147.9457  133.3713  151.4062 H   0  0  0  0  0  0  0  0  0  0  0  0
  142.6675  133.1171  151.0124 H   0  0  0  0  0  0  0  0  0  0  0  0
  143.6545  131.6567  148.9758 H   0  0  0  0  0  0  0  0  0  0  0  0
  147.6516  138.3769  154.5756 H   0  0  0  0  0  0  0  0  0  0  0  0
  148.6806  138.5615  155.9751 H   0  0  0  0  0  0  0  0  0  0  0  0
  149.0849  140.3899  154.2957 H   0  0  0  0  0  0  0  0  0  0  0  0
  149.4022  139.2083  153.0603 H   0  0  0  0  0  0  0  0  0  0  0  0
  149.1923  136.8623  153.6577 H   0  0  0  0  0  0  0  0  0  0  0  0
  1  2  1  0  0  0  0
  1 21  1  0  0  0  0
  1 22  1  0  0  0  0
  1 23  1  0  0  0  0
  2  3  1  0  0  0  0
  2 24  1  0  0  0  0
  2 25  1  0  0  0  0
  3 20  1  0  0  0  0
  3  4  1  0  0  0  0
  4  5  1  0  0  0  0
  4 26  1  0  0  0  0
  4 27  1  0  0  0  0
  5  6  1  0  0  0  0
  5 28  1  0  0  0  0
  5 29  1  0  0  0  0
  6  7  1  0  0  0  0
  6 19  1  0  0  0  0
  6 44  1  0  0  0  0
  7  8  1  0  0  0  0
  7  9  1  0  0  0  0
  7 30  1  0  0  0  0
  8 31  1  0  0  0  0
  8 32  1  0  0  0  0
  8 33  1  0  0  0  0
  9 10  1  0  0  0  0
  9 34  1  0  0  0  0
  9 35  1  0  0  0  0
 10 11  1  0  0  0  0
 10 36  1  0  0  0  0
 11 12  2  0  0  0  0
 11 13  1  0  0  0  0
 13 14  1  0  0  0  0
 13 37  1  0  0  0  0
 14 18  1  0  0  0  0
 14 15  2  0  0  0  0
 15 16  1  0  0  0  0
 16 17  2  0  0  0  0
 16 38  1  0  0  0  0
 17 18  1  0  0  0  0
 17 39  1  0  0  0  0
 19 20  1  0  0  0  0
 19 40  1  0  0  0  0
 19 41  1  0  0  0  0
 20 42  1  0  0  0  0
 20 43  1  0  0  0  0
M  CHG  1   6   1
M  END
> <s_m_source_file>
AV-unprocessed.smi

> <i_m_source_file_index>
1971

> <i_lp_mmshare_version>
43012

> <i_f3d_flags>
0

> <s_epik_input>
W0NIM11bQ0gyXU4xW0NIMl1bQ0gyXU4oW0NIMl1bQ0gyXTEpW0NASF0oW0NIM10pW0NIMl1bTkhdQyg9TylbTkhdYzJuW2NIXVtjSF1zMg==

> <s_epik_cmdline>
J2VwaWtfcHl0aG9uJywgJy1waCcsICc3LjAnLCAnLXRuJywgJzgnLCAnLW1hJywgJzIwMCcsICctbWV0YWxfYmluZGluZycsICctaW1hZScsICc8aW5maWxlLm1hZT4nLCAnLW9tYWUnLCAnPG91dGZpbGUubWFlPic=

> <r_epik_Ionization_Penalty>
0.150098

> <r_epik_Ionization_Penalty_Charging>
0.148467

> <r_epik_Ionization_Penalty_Neutral>
0.00163072

> <r_epik_State_Penalty>
0.974087

> <r_epik_Charging_Adjusted_Penalty>
1.12255

> <i_epik_Tot_Q>
1

> <i_epik_Tot_abs_Q>
1

> <r_epik_Metal_State_Penalty>
1.00741

> <b_epik_Metal_Only>
0

> <s_lp_Force_Field>
OPLS_2005

> <r_lp_Energy>
20.3005

> <b_lp_Chiralities_Consistent>
1

> <s_lp_Variant>
AV-unprocessed.smi:1971-3

> <Gold.Version>
5.8.1

> <Gold.Id.Protein>
6NUR|6NUR_protein|mol2

> <Gold.PLP.Fitness>
44.2730

> <Gold.PLP.PLP>
-33.3948

> <Gold.PLP.part.hbond>
-3.0829

> <Gold.PLP.part.metal>
0.0000

> <Gold.PLP.part.buried>
-3.4541

> <Gold.PLP.part.nonpolar>
-27.1188

> <Gold.PLP.part.repulsive>
0.3433

> <Gold.PLP.ligand.clash>
0.0000

> <Gold.PLP.ligand.torsion>
0.6206

> <Gold.PLP.Chemscore.Hbond>
3.0000

> <Gold.PLP.Chemscore.CHOScore>
1.0000

> <Gold.PLP.Chemscore.Metal>
0.0000

> <Gold.Chemscore.Hbonds>
donor molecule, donor type, donor heavy atom, donor atom, acceptor molecule, acceptor atom, score
      L1  H     6    44       P1  7948  2.00
      P1  H  7989  7998       L1     3  0.90
      L1  C    16    38       P1 10186  0.90

> <Gold.PLP.Chemscore.Internal.Correction>
0.1194

> <Gold.Rescore>
     Score         DG    S(hbond)    S(metal)    S(lipo)     H(rot)  DE(clash)    DE(int)     intcor
     11.97     -13.71       1.12        0.00      77.69       1.79       0.22       1.53       ----

> <Gold.Chemscore.Fitness>
11.9656

> <Gold.Chemscore.DG>
-13.7094

> <Gold.Chemscore.ZeroCoef>
-5.4800

> <Gold.Chemscore.Hbond>
1.1171

> <Gold.Chemscore.Metal>
0.0000

> <Gold.Chemscore.Lipo>
77.6941

> <Gold.Chemscore.Internal_Hbond>
0.0000

> <Gold.Chemscore.DEClash>
0.2167

> <Gold.Chemscore.DEInternal>
1.5272

> <Gold.Chemscore.Rot>
1.7937

> <Gold.Chemscore.Internal.Correction>
   9.000000E+99

> <Gold.Chemscore.Hbonds>
donor molecule, donor type, donor heavy atom, donor atom, acceptor molecule, acceptor atom, score
      L1  H     6    44       P1  7948  0.99
      P1  H  7989  7998       L1     3  0.07

> <Gold.Chemscore.Hbond.Weighted>
-3.7312

> <Gold.Chemscore.Metal.Weighted>
-0.0000

> <Gold.Chemscore.Lipo.Weighted>
-9.0902

> <Gold.Chemscore.Internal_Hbond.Weighted>
0.0000

> <Gold.Chemscore.DEClash.Weighted>
0.2167

> <Gold.Chemscore.DEInternal.Weighted>
1.5272

> <Gold.Chemscore.Rot.Weighted>
4.5919

> <Gold.Chemscore.Internal.Correction.Weighted>
   9.000000E+99

> <Gold.Protein.RotatedTorsions>
[ 6907 6896 6895 6894 ] final   -8.73 input  -60.11 | X-H torsion
[ 7974 7965 7964 7962 ] final   22.47 input  175.53 | X-H torsion
[ 8008 7997 7996 7995 ] final  -61.36 input   59.86 | X-H torsion
[ 10167 10162 10161 10158 ] final   22.68 input  -65.29 | X-H torsion
[ 10718 10713 10712 10709 ] final -171.48 input   66.30 | X-H torsion
[ 10763 10752 10751 10750 ] final  -46.32 input  -60.55 | X-H torsion
[ 11005 11000 10999 10996 ] final  -62.53 input  -57.11 | X-H torsion

> <Gold.Protein.ActiveResidues>
 VAL166  LYS551  ARG553  GLY616  TRP617  ASP618  TYR619  PRO620  LYS621  CYS622 
 ASP623  PHE694  ASN695  SER759  ASP760  ASP761  ALA762  ILE779  LEU786  VAL792 
 PHE793  MET794  SER795  GLU796  ALA797  LYS798  CYS799  TRP800  GLU811  SER814 

> <Gold.Protein.RotatedAtoms>
  151.4290  135.1007  159.9636 H   0  0  0  0  0  0  0  0  0  0  0  0  # atno 6907 bound_to 6896
  152.4962  133.8635  159.7273 H   0  0  0  0  0  0  0  0  0  0  0  0  # atno 6908 bound_to 6896
  150.9169  133.6870  159.2869 H   0  0  0  0  0  0  0  0  0  0  0  0  # atno 6909 bound_to 6896
  146.2027  139.7881  142.8749 H   0  0  0  0  0  0  0  0  0  0  0  0  # atno 7974 bound_to 7965
  154.4444  140.1019  156.6418 H   0  0  0  0  0  0  0  0  0  0  0  0  # atno 8008 bound_to 7997
  155.5493  140.3485  155.4446 H   0  0  0  0  0  0  0  0  0  0  0  0  # atno 8009 bound_to 7997
  156.0541  140.1311  157.0006 H   0  0  0  0  0  0  0  0  0  0  0  0  # atno 8010 bound_to 7997
  140.5329  143.9810  150.6475 H   0  0  0  0  0  0  0  0  0  0  0  0  # atno 10167 bound_to 10162
  156.7416  130.9344  151.3110 H   0  0  0  0  0  0  0  0  0  0  0  0  # atno 10718 bound_to 10713
  154.0430  135.6641  153.4792 H   0  0  0  0  0  0  0  0  0  0  0  0  # atno 10763 bound_to 10752
  153.0494  135.5094  154.7824 H   0  0  0  0  0  0  0  0  0  0  0  0  # atno 10764 bound_to 10752
  154.6806  135.3044  154.9584 H   0  0  0  0  0  0  0  0  0  0  0  0  # atno 10765 bound_to 10752
  141.1362  133.6641  156.5541 H   0  0  0  0  0  0  0  0  0  0  0  0  # atno 11005 bound_to 11000
  145.3427  141.0291  143.3383 LP  0  0  0  0  0  0  0  0  0  0  0  0  # atno 17320 bound_to 7965
  144.8721  139.5023  143.6763 LP  0  0  0  0  0  0  0  0  0  0  0  0  # atno 17321 bound_to 7965
  140.3190  143.3149  152.0803 LP  0  0  0  0  0  0  0  0  0  0  0  0  # atno 17342 bound_to 10162
  139.4960  144.6586  151.6516 LP  0  0  0  0  0  0  0  0  0  0  0  0  # atno 17343 bound_to 10162
  157.6816  130.9145  150.0282 LP  0  0  0  0  0  0  0  0  0  0  0  0  # atno 17370 bound_to 10713
  156.1461  130.3642  149.9508 LP  0  0  0  0  0  0  0  0  0  0  0  0  # atno 17371 bound_to 10713
  140.4040  134.7331  157.4797 LP  0  0  0  0  0  0  0  0  0  0  0  0  # atno 17394 bound_to 11000
  140.0475  134.6178  155.8903 LP  0  0  0  0  0  0  0  0  0  0  0  0  # atno 17395 bound_to 11000

$$$$
