AV-unprocessed.smi:2302|AV-procd|sdf|9240|dock7
  -GOLD-   2272012453D 1   1.00000     0.00000
 Structure written by MMmdl.
 39 40  0  0  0  0  0  0  0  0  1 V2000
  145.8983  131.9909  149.3604 C   0  0  0  0  0  0  0  0  0  0  0  0
  145.2968  132.9802  150.3366 C   0  0  0  0  0  0  0  0  0  0  0  0
  143.9879  132.8105  150.8289 C   0  0  0  0  0  0  0  0  0  0  0  0
  143.4935  133.7622  151.7385 C   0  0  0  0  0  0  0  0  0  0  0  0
  144.3219  134.8371  152.1151 C   0  0  0  0  0  0  0  0  0  0  0  0
  145.6232  134.9353  151.5729 C   0  0  0  0  0  0  0  0  0  0  0  0
  146.3782  136.0532  152.0175 N   0  0  0  0  0  0  0  0  0  0  0  0
  145.9252  137.2152  152.5203 C   0  0  0  0  0  0  0  0  0  0  0  0
  144.7411  137.4965  152.7091 O   0  0  0  0  0  0  0  0  0  0  0  0
  146.9378  138.0498  152.7962 N   0  0  0  0  0  0  0  0  0  0  0  0
  146.7927  139.4062  153.3144 C   0  0  0  0  0  0  0  0  0  0  0  0
  148.1595  140.0478  153.6078 C   0  0  2  0  0  0  0  0  0  0  0  0
  149.1920  139.0077  154.0868 C   0  0  0  0  0  0  0  0  0  0  0  0
  150.4675  139.6264  154.4256 N   0  0  0  0  0  0  0  0  0  0  0  0
  151.4406  138.6420  154.8739 C   0  0  0  0  0  0  0  0  0  0  0  0
  150.2567  140.6654  155.4246 C   0  0  0  0  0  0  0  0  0  0  0  0
  149.2170  141.6982  154.9589 C   0  0  0  0  0  0  0  0  0  0  0  0
  148.0028  141.0316  154.6293 O   0  0  0  0  0  0  0  0  0  0  0  0
  146.0904  134.0117  150.6961 N   0  0  0  0  0  0  0  0  0  0  0  0
  145.1882  131.2040  149.1047 H   0  0  0  0  0  0  0  0  0  0  0  0
  146.7827  131.5231  149.7936 H   0  0  0  0  0  0  0  0  0  0  0  0
  146.1925  132.4964  148.4403 H   0  0  0  0  0  0  0  0  0  0  0  0
  143.3782  131.9736  150.5212 H   0  0  0  0  0  0  0  0  0  0  0  0
  142.4960  133.6698  152.1420 H   0  0  0  0  0  0  0  0  0  0  0  0
  143.9575  135.5760  152.8140 H   0  0  0  0  0  0  0  0  0  0  0  0
  147.3793  135.9635  151.9289 H   0  0  0  0  0  0  0  0  0  0  0  0
  147.8784  137.7335  152.6122 H   0  0  0  0  0  0  0  0  0  0  0  0
  146.2130  140.0284  152.6304 H   0  0  0  0  0  0  0  0  0  0  0  0
  146.2136  139.3418  154.2360 H   0  0  0  0  0  0  0  0  0  0  0  0
  148.5290  140.5301  152.7007 H   0  0  0  0  0  0  0  0  0  0  0  0
  148.7969  138.4773  154.9550 H   0  0  0  0  0  0  0  0  0  0  0  0
  149.3428  138.2601  153.3072 H   0  0  0  0  0  0  0  0  0  0  0  0
  152.3990  139.1166  155.0867 H   0  0  0  0  0  0  0  0  0  0  0  0
  151.6080  137.8864  154.1058 H   0  0  0  0  0  0  0  0  0  0  0  0
  151.1026  138.1373  155.7802 H   0  0  0  0  0  0  0  0  0  0  0  0
  149.9213  140.2157  156.3606 H   0  0  0  0  0  0  0  0  0  0  0  0
  151.1995  141.1695  155.6403 H   0  0  0  0  0  0  0  0  0  0  0  0
  149.0221  142.4240  155.7483 H   0  0  0  0  0  0  0  0  0  0  0  0
  149.5817  142.2540  154.0937 H   0  0  0  0  0  0  0  0  0  0  0  0
  1  2  1  0  0  0  0
  1 20  1  0  0  0  0
  1 21  1  0  0  0  0
  1 22  1  0  0  0  0
  2 19  1  0  0  0  0
  2  3  2  0  0  0  0
  3  4  1  0  0  0  0
  3 23  1  0  0  0  0
  4  5  2  0  0  0  0
  4 24  1  0  0  0  0
  5  6  1  0  0  0  0
  5 25  1  0  0  0  0
  6  7  1  0  0  0  0
  6 19  2  0  0  0  0
  7  8  1  0  0  0  0
  7 26  1  0  0  0  0
  8  9  2  0  0  0  0
  8 10  1  0  0  0  0
 10 11  1  0  0  0  0
 10 27  1  0  0  0  0
 11 12  1  0  0  0  0
 11 28  1  0  0  0  0
 11 29  1  0  0  0  0
 12 18  1  0  0  0  0
 12 13  1  0  0  0  0
 12 30  1  0  0  0  0
 13 14  1  0  0  0  0
 13 31  1  0  0  0  0
 13 32  1  0  0  0  0
 14 15  1  0  0  0  0
 14 16  1  0  0  0  0
 15 33  1  0  0  0  0
 15 34  1  0  0  0  0
 15 35  1  0  0  0  0
 16 17  1  0  0  0  0
 16 36  1  0  0  0  0
 16 37  1  0  0  0  0
 17 18  1  0  0  0  0
 17 38  1  0  0  0  0
 17 39  1  0  0  0  0
M  END
> <s_m_source_file>
AV-unprocessed.smi

> <i_m_source_file_index>
2302

> <i_lp_mmshare_version>
43012

> <i_f3d_flags>
0

> <s_epik_input>
W0NIM11jMVtjSF1bY0hdW2NIXWMobjEpW05IXUMoPU8pW05IXVtDSDJdW0NAQEhdMltDSDJdTihbQ0gzXSlbQ0gyXVtDSDJdTzI=

> <s_epik_cmdline>
J2VwaWtfcHl0aG9uJywgJy1waCcsICc3LjAnLCAnLXRuJywgJzgnLCAnLW1hJywgJzIwMCcsICctbWV0YWxfYmluZGluZycsICctaW1hZScsICc8aW5maWxlLm1hZT4nLCAnLW9tYWUnLCAnPG91dGZpbGUubWFlPic=

> <r_epik_Ionization_Penalty>
0.729465

> <r_epik_Ionization_Penalty_Charging>
0

> <r_epik_Ionization_Penalty_Neutral>
0.729465

> <r_epik_State_Penalty>
0.754525

> <r_epik_Charging_Adjusted_Penalty>
0.754525

> <i_epik_Tot_Q>
0

> <i_epik_Tot_abs_Q>
0

> <r_epik_Metal_State_Penalty>
0.754521

> <b_epik_Metal_Only>
0

> <s_lp_Force_Field>
OPLS_2005

> <r_lp_Energy>
19.6921

> <b_lp_Chiralities_Consistent>
1

> <s_lp_Variant>
AV-unprocessed.smi:2302-5

> <Gold.Version>
5.8.1

> <Gold.Id.Protein>
6NUR|6NUR_protein|mol2

> <Gold.PLP.Fitness>
40.2730

> <Gold.PLP.PLP>
-34.2376

> <Gold.PLP.part.hbond>
-3.0000

> <Gold.PLP.part.metal>
0.0000

> <Gold.PLP.part.buried>
-1.8855

> <Gold.PLP.part.nonpolar>
-30.0951

> <Gold.PLP.part.repulsive>
0.7581

> <Gold.PLP.ligand.clash>
0.0000

> <Gold.PLP.ligand.torsion>
0.4264

> <Gold.PLP.Chemscore.Hbond>
2.2960

> <Gold.PLP.Chemscore.CHOScore>
0.0000

> <Gold.PLP.Chemscore.Metal>
0.0000

> <Gold.Chemscore.Hbonds>
donor molecule, donor type, donor heavy atom, donor atom, acceptor molecule, acceptor atom, score
      L1  H     7    26       P1  7948  1.00
      L1  H    10    27       P1  7948  0.88
      P1  H  7989  7998       L1    14  0.40

> <Gold.PLP.Chemscore.Internal.Correction>
0.0002

> <Gold.Rescore>
     Score         DG    S(hbond)    S(metal)    S(lipo)     H(rot)  DE(clash)    DE(int)     intcor
     16.21     -18.11       1.96        0.00      79.35       1.25       0.03       1.87       ----

> <Gold.Chemscore.Fitness>
16.2080

> <Gold.Chemscore.DG>
-18.1107

> <Gold.Chemscore.ZeroCoef>
-5.4800

> <Gold.Chemscore.Hbond>
1.9607

> <Gold.Chemscore.Metal>
0.0000

> <Gold.Chemscore.Lipo>
79.3462

> <Gold.Chemscore.Internal_Hbond>
0.0000

> <Gold.Chemscore.DEClash>
0.0282

> <Gold.Chemscore.DEInternal>
1.8745

> <Gold.Chemscore.Rot>
1.2506

> <Gold.Chemscore.Internal.Correction>
   9.000000E+99

> <Gold.Chemscore.Hbonds>
donor molecule, donor type, donor heavy atom, donor atom, acceptor molecule, acceptor atom, score
      L1  H     7    26       P1  7948  0.97
      L1  H    10    27       P1  7948  0.85

> <Gold.Chemscore.Hbond.Weighted>
-6.5487

> <Gold.Chemscore.Metal.Weighted>
-0.0000

> <Gold.Chemscore.Lipo.Weighted>
-9.2835

> <Gold.Chemscore.Internal_Hbond.Weighted>
0.0000

> <Gold.Chemscore.DEClash.Weighted>
0.0282

> <Gold.Chemscore.DEInternal.Weighted>
1.8745

> <Gold.Chemscore.Rot.Weighted>
3.2015

> <Gold.Chemscore.Internal.Correction.Weighted>
   9.000000E+99

> <Gold.Protein.RotatedTorsions>
[ 6907 6896 6895 6894 ] final   84.46 input  -60.11 | X-H torsion
[ 7974 7965 7964 7962 ] final   81.66 input  175.53 | X-H torsion
[ 8008 7997 7996 7995 ] final  127.79 input   59.86 | X-H torsion
[ 10167 10162 10161 10158 ] final   65.73 input  -65.29 | X-H torsion
[ 10718 10713 10712 10709 ] final -157.28 input   66.30 | X-H torsion
[ 10763 10752 10751 10750 ] final  -66.08 input  -60.55 | X-H torsion
[ 11005 11000 10999 10996 ] final -151.72 input  -57.11 | X-H torsion

> <Gold.Protein.ActiveResidues>
 VAL166  LYS551  ARG553  GLY616  TRP617  ASP618  TYR619  PRO620  LYS621  CYS622 
 ASP623  PHE694  ASN695  SER759  ASP760  ASP761  ALA762  ILE779  LEU786  VAL792 
 PHE793  MET794  SER795  GLU796  ALA797  LYS798  CYS799  TRP800  GLU811  SER814 

> <Gold.Protein.RotatedAtoms>
  152.5353  134.2737  159.8981 H   0  0  0  0  0  0  0  0  0  0  0  0  # atno 6907 bound_to 6896
  151.2693  133.4256  159.2628 H   0  0  0  0  0  0  0  0  0  0  0  0  # atno 6908 bound_to 6896
  151.0382  134.9603  159.8204 H   0  0  0  0  0  0  0  0  0  0  0  0  # atno 6909 bound_to 6896
  145.6353  139.2413  143.2061 H   0  0  0  0  0  0  0  0  0  0  0  0  # atno 7974 bound_to 7965
  156.2899  140.2660  156.2330 H   0  0  0  0  0  0  0  0  0  0  0  0  # atno 8008 bound_to 7997
  155.0053  140.0387  157.2395 H   0  0  0  0  0  0  0  0  0  0  0  0  # atno 8009 bound_to 7997
  154.7565  140.2753  155.6254 H   0  0  0  0  0  0  0  0  0  0  0  0  # atno 8010 bound_to 7997
  140.1081  144.4843  150.6995 H   0  0  0  0  0  0  0  0  0  0  0  0  # atno 10167 bound_to 10162
  156.5381  130.8551  151.2739 H   0  0  0  0  0  0  0  0  0  0  0  0  # atno 10718 bound_to 10713
  154.3545  135.6129  153.5659 H   0  0  0  0  0  0  0  0  0  0  0  0  # atno 10763 bound_to 10752
  152.9796  135.5800  154.4704 H   0  0  0  0  0  0  0  0  0  0  0  0  # atno 10764 bound_to 10752
  154.4431  135.2850  155.1811 H   0  0  0  0  0  0  0  0  0  0  0  0  # atno 10765 bound_to 10752
  140.7265  134.3668  157.5174 H   0  0  0  0  0  0  0  0  0  0  0  0  # atno 11005 bound_to 11000
  146.1324  140.7167  142.9406 LP  0  0  0  0  0  0  0  0  0  0  0  0  # atno 17320 bound_to 7965
  144.7178  140.4270  143.7031 LP  0  0  0  0  0  0  0  0  0  0  0  0  # atno 17321 bound_to 7965
  140.6941  143.2393  151.5051 LP  0  0  0  0  0  0  0  0  0  0  0  0  # atno 17342 bound_to 10162
  139.5634  144.2101  152.1727 LP  0  0  0  0  0  0  0  0  0  0  0  0  # atno 17343 bound_to 10162
  157.7410  130.9861  150.2416 LP  0  0  0  0  0  0  0  0  0  0  0  0  # atno 17370 bound_to 10713
  156.2997  130.3757  149.7762 LP  0  0  0  0  0  0  0  0  0  0  0  0  # atno 17371 bound_to 10713
  139.8836  134.8990  156.2757 LP  0  0  0  0  0  0  0  0  0  0  0  0  # atno 17394 bound_to 11000
  140.9958  133.7181  156.0883 LP  0  0  0  0  0  0  0  0  0  0  0  0  # atno 17395 bound_to 11000

$$$$
