AV-unprocessed.smi:1326|AV-procd|sdf|5475|dock9
  -GOLD-   22720 5 43D 1   1.00000     0.00000
 Structure written by MMmdl.
 39 39  0  0  0  0  0  0  0  0  1 V2000
  146.2228  138.2635  152.3086 C   0  0  0  0  0  0  0  0  0  0  0  0
  147.1638  139.1843  153.0546 C   0  0  0  0  0  0  0  0  0  0  0  0
  148.3691  138.5921  153.3931 N   0  0  0  0  0  0  0  0  0  0  0  0
  149.2993  139.3587  154.0725 C   0  0  0  0  0  0  0  0  0  0  0  0
  150.5930  138.6348  154.4017 C   0  0  0  0  0  0  0  0  0  0  0  0
  149.0398  140.6496  154.4020 C   0  0  0  0  0  0  0  0  0  0  0  0
  150.0415  141.5295  155.1492 C   0  0  0  0  0  0  0  0  0  0  0  0
  149.9894  141.4494  156.6763 C   0  0  0  0  0  0  0  0  0  0  0  0
  150.1075  140.3613  157.2392 O   0  0  0  0  0  0  0  0  0  0  0  0
  149.8257  142.6081  157.3336 N   0  0  0  0  0  0  0  0  0  0  0  0
  149.7732  142.7507  158.7834 C   0  0  0  0  0  0  0  0  0  0  0  0
  150.1167  144.1883  159.2143 C   0  0  0  0  0  0  0  0  0  0  0  0
  151.6117  144.4165  159.5162 C   0  0  0  0  0  0  0  0  0  0  0  0
  151.8801  145.7871  160.1606 C   0  0  0  0  0  0  0  0  0  0  0  0
  152.4526  144.2506  158.2410 C   0  0  0  0  0  0  0  0  0  0  0  0
  147.7282  141.2255  154.0201 C   0  0  0  0  0  0  0  0  0  0  0  0
  147.4256  142.3835  154.3051 O   0  0  0  0  0  0  0  0  0  0  0  0
  146.8226  140.4075  153.3252 N   0  0  0  0  0  0  0  0  0  0  0  0
  148.6036  137.6362  153.1666 H   0  0  0  0  0  0  0  0  0  0  0  0
  145.2493  138.7339  152.1647 H   0  0  0  0  0  0  0  0  0  0  0  0
  146.0737  137.3377  152.8649 H   0  0  0  0  0  0  0  0  0  0  0  0
  146.6323  138.0178  151.3282 H   0  0  0  0  0  0  0  0  0  0  0  0
  150.7607  138.6241  155.4787 H   0  0  0  0  0  0  0  0  0  0  0  0
  151.4389  139.1303  153.9254 H   0  0  0  0  0  0  0  0  0  0  0  0
  150.5742  137.6003  154.0571 H   0  0  0  0  0  0  0  0  0  0  0  0
  149.9352  142.5745  154.8563 H   0  0  0  0  0  0  0  0  0  0  0  0
  151.0468  141.2567  154.8265 H   0  0  0  0  0  0  0  0  0  0  0  0
  149.7407  143.4544  156.7888 H   0  0  0  0  0  0  0  0  0  0  0  0
  148.7653  142.4866  159.1014 H   0  0  0  0  0  0  0  0  0  0  0  0
  150.4471  142.0358  159.2583 H   0  0  0  0  0  0  0  0  0  0  0  0
  149.8141  144.8692  158.4174 H   0  0  0  0  0  0  0  0  0  0  0  0
  149.5202  144.4625  160.0856 H   0  0  0  0  0  0  0  0  0  0  0  0
  151.9361  143.6472  160.2182 H   0  0  0  0  0  0  0  0  0  0  0  0
  151.5333  146.6002  159.5219 H   0  0  0  0  0  0  0  0  0  0  0  0
  152.9461  145.9349  160.3355 H   0  0  0  0  0  0  0  0  0  0  0  0
  151.3823  145.8838  161.1250 H   0  0  0  0  0  0  0  0  0  0  0  0
  152.1706  144.9821  157.4829 H   0  0  0  0  0  0  0  0  0  0  0  0
  152.3228  143.2577  157.8093 H   0  0  0  0  0  0  0  0  0  0  0  0
  153.5151  144.3796  158.4490 H   0  0  0  0  0  0  0  0  0  0  0  0
  1 20  1  0  0  0  0
  1 21  1  0  0  0  0
  1 22  1  0  0  0  0
  1  2  1  0  0  0  0
  2  3  1  0  0  0  0
  2 18  2  0  0  0  0
  3  4  1  0  0  0  0
  3 19  1  0  0  0  0
  4  6  2  0  0  0  0
  4  5  1  0  0  0  0
  5 23  1  0  0  0  0
  5 24  1  0  0  0  0
  5 25  1  0  0  0  0
  6 16  1  0  0  0  0
  6  7  1  0  0  0  0
  7  8  1  0  0  0  0
  7 26  1  0  0  0  0
  7 27  1  0  0  0  0
  8  9  2  0  0  0  0
  8 10  1  0  0  0  0
 10 11  1  0  0  0  0
 10 28  1  0  0  0  0
 11 12  1  0  0  0  0
 11 29  1  0  0  0  0
 11 30  1  0  0  0  0
 12 13  1  0  0  0  0
 12 31  1  0  0  0  0
 12 32  1  0  0  0  0
 13 14  1  0  0  0  0
 13 15  1  0  0  0  0
 13 33  1  0  0  0  0
 14 34  1  0  0  0  0
 14 35  1  0  0  0  0
 14 36  1  0  0  0  0
 15 37  1  0  0  0  0
 15 38  1  0  0  0  0
 15 39  1  0  0  0  0
 16 17  2  0  0  0  0
 16 18  1  0  0  0  0
M  END
> <s_m_source_file>
AV-unprocessed.smi

> <i_m_source_file_index>
1326

> <i_lp_mmshare_version>
43012

> <i_f3d_flags>
0

> <s_epik_input>
W0NIM11jMW5jKFtDSDNdKWMoYyg9TylbbkhdMSlbQ0gyXUMoPU8pW05IXVtDSDJdW0NIMl1bQ0hdKFtDSDNdKVtDSDNd

> <s_epik_cmdline>
J2VwaWtfcHl0aG9uJywgJy1waCcsICc3LjAnLCAnLXRuJywgJzgnLCAnLW1hJywgJzIwMCcsICctbWV0YWxfYmluZGluZycsICctaW1hZScsICc8aW5maWxlLm1hZT4nLCAnLW9tYWUnLCAnPG91dGZpbGUubWFlPic=

> <r_lp_tautomer_probability>
0.156392

> <r_epik_Ionization_Penalty>
0.0135605

> <r_epik_Ionization_Penalty_Charging>
0.013428

> <r_epik_Ionization_Penalty_Neutral>
0.000132491

> <r_epik_State_Penalty>
1.15342

> <r_epik_Charging_Adjusted_Penalty>
1.16684

> <i_epik_Tot_Q>
0

> <i_epik_Tot_abs_Q>
0

> <r_epik_Metal_State_Penalty>
1.31299

> <b_epik_Metal_Only>
0

> <s_lp_Force_Field>
OPLS_2005

> <r_lp_Energy>
9.03726

> <b_lp_Chiralities_Consistent>
1

> <s_lp_Variant>
AV-unprocessed.smi:1326-2

> <Gold.Version>
5.8.1

> <Gold.Id.Protein>
6NUR|6NUR_protein|mol2

> <Gold.PLP.Fitness>
43.0746

> <Gold.PLP.PLP>
-38.6014

> <Gold.PLP.part.hbond>
-3.0000

> <Gold.PLP.part.metal>
0.0000

> <Gold.PLP.part.buried>
-2.4718

> <Gold.PLP.part.nonpolar>
-34.5974

> <Gold.PLP.part.repulsive>
1.1260

> <Gold.PLP.ligand.clash>
0.0000

> <Gold.PLP.ligand.torsion>
0.7807

> <Gold.PLP.Chemscore.Hbond>
2.0000

> <Gold.PLP.Chemscore.CHOScore>
0.0000

> <Gold.PLP.Chemscore.Metal>
0.0000

> <Gold.Chemscore.Hbonds>
donor molecule, donor type, donor heavy atom, donor atom, acceptor molecule, acceptor atom, score
      L1  H     3    19       P1  7948  1.00
      L1  H    10    28       P1  8028  1.00

> <Gold.PLP.Chemscore.Internal.Correction>
0.0347

> <Gold.Rescore>
     Score         DG    S(hbond)    S(metal)    S(lipo)     H(rot)  DE(clash)    DE(int)     intcor
     16.23     -17.45       1.93        0.00      88.57       1.89       0.41       0.81       ----

> <Gold.Chemscore.Fitness>
16.2343

> <Gold.Chemscore.DG>
-17.4497

> <Gold.Chemscore.ZeroCoef>
-5.4800

> <Gold.Chemscore.Hbond>
1.9311

> <Gold.Chemscore.Metal>
0.0000

> <Gold.Chemscore.Lipo>
88.5653

> <Gold.Chemscore.Internal_Hbond>
0.0000

> <Gold.Chemscore.DEClash>
0.4102

> <Gold.Chemscore.DEInternal>
0.8052

> <Gold.Chemscore.Rot>
1.8916

> <Gold.Chemscore.Internal.Correction>
   9.000000E+99

> <Gold.Chemscore.Hbonds>
donor molecule, donor type, donor heavy atom, donor atom, acceptor molecule, acceptor atom, score
      L1  H     3    19       P1  7948  0.94
      L1  H    10    28       P1  8028  0.99

> <Gold.Chemscore.Hbond.Weighted>
-6.4499

> <Gold.Chemscore.Metal.Weighted>
-0.0000

> <Gold.Chemscore.Lipo.Weighted>
-10.3621

> <Gold.Chemscore.Internal_Hbond.Weighted>
0.0000

> <Gold.Chemscore.DEClash.Weighted>
0.4102

> <Gold.Chemscore.DEInternal.Weighted>
0.8052

> <Gold.Chemscore.Rot.Weighted>
4.8424

> <Gold.Chemscore.Internal.Correction.Weighted>
   9.000000E+99

> <Gold.Protein.RotatedTorsions>
[ 6907 6896 6895 6894 ] final -108.04 input  -60.11 | X-H torsion
[ 7974 7965 7964 7962 ] final   45.17 input  175.53 | X-H torsion
[ 8008 7997 7996 7995 ] final  153.03 input   59.86 | X-H torsion
[ 10167 10162 10161 10158 ] final -120.06 input  -65.29 | X-H torsion
[ 10718 10713 10712 10709 ] final -102.47 input   66.30 | X-H torsion
[ 10763 10752 10751 10750 ] final   -1.53 input  -60.55 | X-H torsion
[ 11005 11000 10999 10996 ] final    2.35 input  -57.11 | X-H torsion

> <Gold.Protein.ActiveResidues>
 VAL166  LYS551  ARG553  GLY616  TRP617  ASP618  TYR619  PRO620  LYS621  CYS622 
 ASP623  PHE694  ASN695  SER759  ASP760  ASP761  ALA762  ILE779  LEU786  VAL792 
 PHE793  MET794  SER795  GLU796  ALA797  LYS798  CYS799  TRP800  GLU811  SER814 

> <Gold.Protein.RotatedAtoms>
  150.7478  133.9737  159.3553 H   0  0  0  0  0  0  0  0  0  0  0  0  # atno 6907 bound_to 6896
  151.7673  135.0793  160.0364 H   0  0  0  0  0  0  0  0  0  0  0  0  # atno 6908 bound_to 6896
  152.3363  133.5978  159.5881 H   0  0  0  0  0  0  0  0  0  0  0  0  # atno 6909 bound_to 6896
  146.0504  139.4994  142.9722 H   0  0  0  0  0  0  0  0  0  0  0  0  # atno 7974 bound_to 7965
  156.2601  140.2004  156.6426 H   0  0  0  0  0  0  0  0  0  0  0  0  # atno 8008 bound_to 7997
  154.6597  140.0562  157.0073 H   0  0  0  0  0  0  0  0  0  0  0  0  # atno 8009 bound_to 7997
  155.1294  140.3232  155.4480 H   0  0  0  0  0  0  0  0  0  0  0  0  # atno 8010 bound_to 7997
  140.0399  143.5164  152.2135 H   0  0  0  0  0  0  0  0  0  0  0  0  # atno 10167 bound_to 10162
  156.0230  130.5422  150.7113 H   0  0  0  0  0  0  0  0  0  0  0  0  # atno 10718 bound_to 10713
  153.3461  135.6983  153.6826 H   0  0  0  0  0  0  0  0  0  0  0  0  # atno 10763 bound_to 10752
  153.5572  135.3542  155.2785 H   0  0  0  0  0  0  0  0  0  0  0  0  # atno 10764 bound_to 10752
  154.8645  135.4240  154.2686 H   0  0  0  0  0  0  0  0  0  0  0  0  # atno 10765 bound_to 10752
  140.6053  133.9798  155.8151 H   0  0  0  0  0  0  0  0  0  0  0  0  # atno 11005 bound_to 11000
  145.6734  141.0210  143.1645 LP  0  0  0  0  0  0  0  0  0  0  0  0  # atno 17320 bound_to 7965
  144.7119  139.8337  143.7411 LP  0  0  0  0  0  0  0  0  0  0  0  0  # atno 17321 bound_to 7965
  139.6021  144.7585  151.3148 LP  0  0  0  0  0  0  0  0  0  0  0  0  # atno 17342 bound_to 10162
  140.7265  143.6989  150.7861 LP  0  0  0  0  0  0  0  0  0  0  0  0  # atno 17343 bound_to 10162
  157.4751  131.0897  151.0599 LP  0  0  0  0  0  0  0  0  0  0  0  0  # atno 17370 bound_to 10713
  157.1049  130.5997  149.5468 LP  0  0  0  0  0  0  0  0  0  0  0  0  # atno 17371 bound_to 10713
  141.0845  134.0012  157.3335 LP  0  0  0  0  0  0  0  0  0  0  0  0  # atno 17394 bound_to 11000
  139.9215  135.0200  156.8081 LP  0  0  0  0  0  0  0  0  0  0  0  0  # atno 17395 bound_to 11000

$$$$
