AV-unprocessed.smi:44|AV-procd|sdf|403|dock4
  -GOLD-   2262016253D 1   1.00000     0.00000
 Structure written by MMmdl.
 28 30  0  0  0  0  0  0  0  0  2 V2000
  150.8788  139.3193  154.4090 O   0  0  0  0  0  0  0  0  0  0  0  0
  151.4556  139.4118  155.4908 C   0  0  0  0  0  0  0  0  0  0  0  0
  152.2157  138.4281  156.0694 N   0  5  0  0  0  0  0  0  0  0  0  0
  152.8173  138.6587  157.3050 C   0  0  0  0  0  0  0  0  0  0  0  0
  152.7590  139.7288  158.0223 N   0  0  0  0  0  0  0  0  0  0  0  0
  152.0017  140.7359  157.4606 C   0  0  0  0  0  0  0  0  0  0  0  0
  151.3421  140.6815  156.2626 C   0  0  0  0  0  0  0  0  0  0  0  0
  150.6733  141.8712  156.0027 N   0  0  0  0  0  0  0  0  0  0  0  0
  150.9705  142.5992  157.0793 C   0  0  0  0  0  0  0  0  0  0  0  0
  151.7643  141.9974  157.9909 N   0  0  0  0  0  0  0  0  0  0  0  0
  152.2749  142.5379  159.2914 C   0  0  1  0  0  0  0  0  0  0  0  0
  153.1099  143.7927  159.0336 C   0  0  0  0  0  0  0  0  0  0  0  0
  152.0442  144.8651  159.0557 C   0  0  0  0  0  0  0  0  0  0  0  0
  151.1368  144.3635  160.1791 C   0  0  1  0  0  0  0  0  0  0  0  0
  149.6950  144.8834  160.0772 C   0  0  0  0  0  0  0  0  0  0  0  0
  149.0836  144.3888  158.9056 O   0  0  0  0  0  0  0  0  0  0  0  0
  151.1773  142.9392  160.0616 O   0  0  0  0  0  0  0  0  0  0  0  0
  152.8236  141.7093  159.7405 H   0  0  0  0  0  0  0  0  0  0  0  0
  151.5827  144.6453  161.1349 H   0  0  0  0  0  0  0  0  0  0  0  0
  153.3890  137.7918  157.6458 H   0  0  0  0  0  0  0  0  0  0  0  0
  150.5951  143.6030  157.2030 H   0  0  0  0  0  0  0  0  0  0  0  0
  153.8100  143.9253  159.8594 H   0  0  0  0  0  0  0  0  0  0  0  0
  153.6687  143.7370  158.0986 H   0  0  0  0  0  0  0  0  0  0  0  0
  152.4446  145.8612  159.2454 H   0  0  0  0  0  0  0  0  0  0  0  0
  151.5111  144.8867  158.1038 H   0  0  0  0  0  0  0  0  0  0  0  0
  149.1094  144.5264  160.9250 H   0  0  0  0  0  0  0  0  0  0  0  0
  149.6571  145.9723  160.0951 H   0  0  0  0  0  0  0  0  0  0  0  0
  148.6698  145.1090  158.4551 H   0  0  0  0  0  0  0  0  0  0  0  0
  1  2  2  0  0  0  0
  2  7  1  0  0  0  0
  2  3  1  0  0  0  0
  3  4  1  0  0  0  0
  4  5  2  0  0  0  0
  4 20  1  0  0  0  0
  5  6  1  0  0  0  0
  6 10  1  0  0  0  0
  6  7  2  0  0  0  0
  7  8  1  0  0  0  0
  8  9  2  0  0  0  0
  9 10  1  0  0  0  0
  9 21  1  0  0  0  0
 10 11  1  0  0  0  0
 11 18  1  0  0  0  0
 11 17  1  0  0  0  0
 11 12  1  0  0  0  0
 12 13  1  0  0  0  0
 12 22  1  0  0  0  0
 12 23  1  0  0  0  0
 13 14  1  0  0  0  0
 13 24  1  0  0  0  0
 13 25  1  0  0  0  0
 14 19  1  0  0  0  0
 14 15  1  0  0  0  0
 14 17  1  0  0  0  0
 15 16  1  0  0  0  0
 15 26  1  0  0  0  0
 15 27  1  0  0  0  0
 16 28  1  0  0  0  0
M  CHG  1   3  -1
M  END
> <s_m_source_file>
AV-unprocessed.smi

> <i_m_source_file_index>
44

> <i_lp_mmshare_version>
43012

> <i_f3d_flags>
0

> <s_epik_input>
bjFbY0hdW25IXWMoPU8pYyhjMTIpbltjSF1uMltDQEhdM1tDSDJdW0NIMl1bQ0BIXShPMylbQ0gyXVtPSF0=

> <s_epik_cmdline>
J2VwaWtfcHl0aG9uJywgJy1waCcsICc3LjAnLCAnLXRuJywgJzgnLCAnLW1hJywgJzIwMCcsICctbWV0YWxfYmluZGluZycsICctaW1hZScsICc8aW5maWxlLm1hZT4nLCAnLW9tYWUnLCAnPG91dGZpbGUubWFlPic=

> <r_lp_tautomer_probability>
0.85571

> <r_epik_Ionization_Penalty>
2.55863

> <r_epik_Ionization_Penalty_Charging>
1.36424e-10

> <r_epik_Ionization_Penalty_Neutral>
2.55863

> <r_epik_State_Penalty>
2.63326

> <r_epik_Charging_Adjusted_Penalty>
2.63326

> <i_epik_Tot_Q>
-1

> <i_epik_Tot_abs_Q>
1

> <r_epik_Metal_State_Penalty>
0.475154

> <b_epik_Metal_Only>
1

> <s_epik_Chemistry_Notes>
This compound contains an acetal/aminal-like group ( X-CH(R)-Y where X, Y are N, S, or O) that may be acid/base labile, releasing an aldehyde.

> <s_lp_Force_Field>
OPLS_2005

> <r_lp_Energy>
44.8595

> <b_lp_Chiralities_Consistent>
1

> <s_lp_Variant>
AV-unprocessed.smi:44-9

> <Gold.Version>
5.8.1

> <Gold.Id.Protein>
6NUR|6NUR_protein|mol2

> <Gold.PLP.Fitness>
43.3321

> <Gold.PLP.PLP>
-34.6818

> <Gold.PLP.part.hbond>
-4.2040

> <Gold.PLP.part.metal>
0.0000

> <Gold.PLP.part.buried>
-4.1726

> <Gold.PLP.part.nonpolar>
-26.1198

> <Gold.PLP.part.repulsive>
0.2576

> <Gold.PLP.ligand.clash>
0.0000

> <Gold.PLP.ligand.torsion>
0.0301

> <Gold.PLP.Chemscore.Hbond>
2.0000

> <Gold.PLP.Chemscore.CHOScore>
0.8970

> <Gold.PLP.Chemscore.Metal>
0.0000

> <Gold.Chemscore.Hbonds>
donor molecule, donor type, donor heavy atom, donor atom, acceptor molecule, acceptor atom, score
      L1  H    16    28       P1  8029  1.00
      P1  H  7989  7998       L1     1  1.00
      L1  C     9    21       P1  8028  0.88

> <Gold.PLP.Chemscore.Internal.Correction>
0.0196

> <Gold.Rescore>
     Score         DG    S(hbond)    S(metal)    S(lipo)     H(rot)  DE(clash)    DE(int)     intcor
     11.93     -11.98       1.89        0.00      50.93       2.26       0.02       0.02       ----

> <Gold.Chemscore.Fitness>
11.9343

> <Gold.Chemscore.DG>
-11.9806

> <Gold.Chemscore.ZeroCoef>
-5.4800

> <Gold.Chemscore.Hbond>
1.8935

> <Gold.Chemscore.Metal>
0.0000

> <Gold.Chemscore.Lipo>
50.9310

> <Gold.Chemscore.Internal_Hbond>
0.0000

> <Gold.Chemscore.DEClash>
0.0239

> <Gold.Chemscore.DEInternal>
0.0224

> <Gold.Chemscore.Rot>
2.2588

> <Gold.Chemscore.Internal.Correction>
   9.000000E+99

> <Gold.Chemscore.Hbonds>
donor molecule, donor type, donor heavy atom, donor atom, acceptor molecule, acceptor atom, score
      L1  H    16    28       P1  8029  0.96
      P1  H  7989  7998       L1     1  0.25

> <Gold.Chemscore.Hbond.Weighted>
-6.3242

> <Gold.Chemscore.Metal.Weighted>
-0.0000

> <Gold.Chemscore.Lipo.Weighted>
-5.9589

> <Gold.Chemscore.Internal_Hbond.Weighted>
0.0000

> <Gold.Chemscore.DEClash.Weighted>
0.0239

> <Gold.Chemscore.DEInternal.Weighted>
0.0224

> <Gold.Chemscore.Rot.Weighted>
5.7825

> <Gold.Chemscore.Internal.Correction.Weighted>
   9.000000E+99

> <Gold.Protein.RotatedTorsions>
[ 6907 6896 6895 6894 ] final  122.04 input  -60.11 | X-H torsion
[ 7974 7965 7964 7962 ] final -164.41 input  175.53 | X-H torsion
[ 8008 7997 7996 7995 ] final  173.04 input   59.86 | X-H torsion
[ 10167 10162 10161 10158 ] final  -95.03 input  -65.29 | X-H torsion
[ 10718 10713 10712 10709 ] final -138.73 input   66.30 | X-H torsion
[ 10763 10752 10751 10750 ] final  -43.69 input  -60.55 | X-H torsion
[ 11005 11000 10999 10996 ] final  120.36 input  -57.11 | X-H torsion

> <Gold.Protein.ActiveResidues>
 VAL166  LYS551  ARG553  GLY616  TRP617  ASP618  TYR619  PRO620  LYS621  CYS622 
 ASP623  PHE694  ASN695  SER759  ASP760  ASP761  ALA762  ILE779  LEU786  VAL792 
 PHE793  MET794  SER795  GLU796  ALA797  LYS798  CYS799  TRP800  GLU811  SER814 

> <Gold.Protein.RotatedAtoms>
  152.4275  133.7219  159.6538 H   0  0  0  0  0  0  0  0  0  0  0  0  # atno 6907 bound_to 6896
  150.8152  133.8340  159.3170 H   0  0  0  0  0  0  0  0  0  0  0  0  # atno 6908 bound_to 6896
  151.6038  135.1047  160.0118 H   0  0  0  0  0  0  0  0  0  0  0  0  # atno 6909 bound_to 6896
  144.7297  140.2964  143.6212 H   0  0  0  0  0  0  0  0  0  0  0  0  # atno 7974 bound_to 7965
  156.1115  140.1470  156.9332 H   0  0  0  0  0  0  0  0  0  0  0  0  # atno 8008 bound_to 7997
  154.4770  140.0891  156.7329 H   0  0  0  0  0  0  0  0  0  0  0  0  # atno 8009 bound_to 7997
  155.4588  140.3437  155.4312 H   0  0  0  0  0  0  0  0  0  0  0  0  # atno 8010 bound_to 7997
  140.3083  143.3120  152.0175 H   0  0  0  0  0  0  0  0  0  0  0  0  # atno 10167 bound_to 10162
  156.3027  130.7438  151.1493 H   0  0  0  0  0  0  0  0  0  0  0  0  # atno 10718 bound_to 10713
  153.9998  135.6695  153.4758 H   0  0  0  0  0  0  0  0  0  0  0  0  # atno 10763 bound_to 10752
  153.0668  135.4997  154.8213 H   0  0  0  0  0  0  0  0  0  0  0  0  # atno 10764 bound_to 10752
  154.7060  135.3088  154.9233 H   0  0  0  0  0  0  0  0  0  0  0  0  # atno 10765 bound_to 10752
  139.9182  134.9634  156.7794 H   0  0  0  0  0  0  0  0  0  0  0  0  # atno 11005 bound_to 11000
  145.7803  139.1889  143.2161 LP  0  0  0  0  0  0  0  0  0  0  0  0  # atno 17320 bound_to 7965
  146.0839  140.7733  142.9628 LP  0  0  0  0  0  0  0  0  0  0  0  0  # atno 17321 bound_to 7965
  139.4899  144.6404  151.6889 LP  0  0  0  0  0  0  0  0  0  0  0  0  # atno 17342 bound_to 10162
  140.5591  144.0299  150.6161 LP  0  0  0  0  0  0  0  0  0  0  0  0  # atno 17343 bound_to 10162
  157.7372  131.0554  150.5370 LP  0  0  0  0  0  0  0  0  0  0  0  0  # atno 17370 bound_to 10713
  156.5500  130.4229  149.6112 LP  0  0  0  0  0  0  0  0  0  0  0  0  # atno 17371 bound_to 10713
  140.6556  133.9692  155.7778 LP  0  0  0  0  0  0  0  0  0  0  0  0  # atno 17394 bound_to 11000
  141.0678  134.0250  157.3569 LP  0  0  0  0  0  0  0  0  0  0  0  0  # atno 17395 bound_to 11000

$$$$
