AV-unprocessed.smi:3034|AV-procd|sdf|11580|dock5
  -GOLD-   2272016553D 1   1.00000     0.00000
 Structure written by MMmdl.
 31 31  0  0  0  0  0  0  0  0  2 V2000
  146.6713  142.4129  153.6751 C   0  0  0  0  0  0  0  0  0  0  0  0
  147.5694  141.6747  154.6733 C   0  0  0  0  0  0  0  0  0  0  0  0
  149.0154  141.5460  154.1775 C   0  0  0  0  0  0  0  0  0  0  0  0
  150.0390  140.5510  155.3538 S   0  0  0  0  0  0  0  0  0  0  0  0
  149.0916  139.8767  156.2575 O   0  0  0  0  0  0  0  0  0  0  0  0
  150.8631  139.6802  154.5017 O   0  0  0  0  0  0  0  0  0  0  0  0
  150.9450  141.6922  156.0740 N   0  5  0  0  0  0  0  0  0  0  0  0
  150.7234  142.0683  157.4650 C   0  0  0  0  0  0  0  0  0  0  0  0
  151.7335  143.1609  157.8998 C   0  0  1  0  0  0  0  0  0  0  0  0
  151.2109  144.4200  157.5193 O   0  0  0  0  0  0  0  0  0  0  0  0
  152.1169  143.1219  159.3836 C   0  0  0  0  0  0  0  0  0  0  0  0
  151.8266  144.2227  160.2225 C   0  0  0  0  0  0  0  0  0  0  0  0
  152.1838  144.1531  161.5824 C   0  0  0  0  0  0  0  0  0  0  0  0
  152.8090  142.9863  162.0607 C   0  0  0  0  0  0  0  0  0  0  0  0
  153.0510  141.9372  161.1527 C   0  0  0  0  0  0  0  0  0  0  0  0
  152.7127  141.9936  159.8470 N   0  0  0  0  0  0  0  0  0  0  0  0
  145.6535  142.4956  154.0565 H   0  0  0  0  0  0  0  0  0  0  0  0
  146.6281  141.8866  152.7212 H   0  0  0  0  0  0  0  0  0  0  0  0
  147.0391  143.4217  153.4861 H   0  0  0  0  0  0  0  0  0  0  0  0
  147.5573  142.2018  155.6278 H   0  0  0  0  0  0  0  0  0  0  0  0
  147.1567  140.6835  154.8627 H   0  0  0  0  0  0  0  0  0  0  0  0
  149.0464  141.0543  153.2052 H   0  0  0  0  0  0  0  0  0  0  0  0
  149.4678  142.5314  154.0692 H   0  0  0  0  0  0  0  0  0  0  0  0
  149.7138  142.4581  157.6022 H   0  0  0  0  0  0  0  0  0  0  0  0
  150.8003  141.2101  158.1336 H   0  0  0  0  0  0  0  0  0  0  0  0
  152.6481  143.0354  157.3180 H   0  0  0  0  0  0  0  0  0  0  0  0
  150.6606  144.2946  156.7621 H   0  0  0  0  0  0  0  0  0  0  0  0
  151.3493  145.1074  159.8276 H   0  0  0  0  0  0  0  0  0  0  0  0
  151.9817  144.9806  162.2464 H   0  0  0  0  0  0  0  0  0  0  0  0
  153.0967  142.8975  163.0977 H   0  0  0  0  0  0  0  0  0  0  0  0
  153.5272  141.0267  161.4849 H   0  0  0  0  0  0  0  0  0  0  0  0
  1  2  1  0  0  0  0
  1 17  1  0  0  0  0
  1 18  1  0  0  0  0
  1 19  1  0  0  0  0
  2  3  1  0  0  0  0
  2 20  1  0  0  0  0
  2 21  1  0  0  0  0
  3  4  1  0  0  0  0
  3 22  1  0  0  0  0
  3 23  1  0  0  0  0
  4  5  2  0  0  0  0
  4  6  2  0  0  0  0
  4  7  1  0  0  0  0
  7  8  1  0  0  0  0
  8  9  1  0  0  0  0
  8 24  1  0  0  0  0
  8 25  1  0  0  0  0
  9 10  1  0  0  0  0
  9 11  1  0  0  0  0
  9 26  1  0  0  0  0
 10 27  1  0  0  0  0
 11 16  1  0  0  0  0
 11 12  2  0  0  0  0
 12 13  1  0  0  0  0
 12 28  1  0  0  0  0
 13 14  2  0  0  0  0
 13 29  1  0  0  0  0
 14 15  1  0  0  0  0
 14 30  1  0  0  0  0
 15 16  2  0  0  0  0
 15 31  1  0  0  0  0
M  CHG  1   7  -1
M  END
> <s_m_source_file>
AV-unprocessed.smi

> <i_m_source_file_index>
3034

> <i_lp_mmshare_version>
43012

> <i_f3d_flags>
0

> <s_epik_input>
W0NIM11bQ0gyXVtDSDJdUyg9TykoPU8pW05IXVtDSDJdW0NASF0oW09IXSljMVtjSF1bY0hdW2NIXVtjSF1uMQ==

> <s_epik_cmdline>
J2VwaWtfcHl0aG9uJywgJy1waCcsICc3LjAnLCAnLXRuJywgJzgnLCAnLW1hJywgJzIwMCcsICctbWV0YWxfYmluZGluZycsICctaW1hZScsICc8aW5maWxlLm1hZT4nLCAnLW9tYWUnLCAnPG91dGZpbGUubWFlPic=

> <r_epik_Ionization_Penalty>
6.18156

> <r_epik_Ionization_Penalty_Charging>
6.17474

> <r_epik_Ionization_Penalty_Neutral>
0.0068235

> <r_epik_State_Penalty>
6.17598

> <r_epik_Charging_Adjusted_Penalty>
12.3507

> <i_epik_Tot_Q>
-1

> <i_epik_Tot_abs_Q>
1

> <r_epik_Metal_State_Penalty>
2.11803

> <b_epik_Metal_Only>
1

> <s_lp_Force_Field>
OPLS_2005

> <r_lp_Energy>
1.09161

> <b_lp_Chiralities_Consistent>
1

> <s_lp_Variant>
AV-unprocessed.smi:3034-4

> <Gold.Version>
5.8.1

> <Gold.Id.Protein>
6NUR|6NUR_protein|mol2

> <Gold.PLP.Fitness>
44.7540

> <Gold.PLP.PLP>
-40.0036

> <Gold.PLP.part.hbond>
-2.0000

> <Gold.PLP.part.metal>
0.0000

> <Gold.PLP.part.buried>
-5.2997

> <Gold.PLP.part.nonpolar>
-32.2684

> <Gold.PLP.part.repulsive>
0.1866

> <Gold.PLP.ligand.clash>
0.0000

> <Gold.PLP.ligand.torsion>
1.1550

> <Gold.PLP.Chemscore.Hbond>
2.0000

> <Gold.PLP.Chemscore.CHOScore>
0.0000

> <Gold.PLP.Chemscore.Metal>
0.0000

> <Gold.Chemscore.Hbonds>
donor molecule, donor type, donor heavy atom, donor atom, acceptor molecule, acceptor atom, score
      L1  H    10    27       P1  8028  0.81
      P1  H  7989  7998       L1     6  1.00

> <Gold.PLP.Chemscore.Internal.Correction>
1.0604

> <Gold.Rescore>
     Score         DG    S(hbond)    S(metal)    S(lipo)     H(rot)  DE(clash)    DE(int)     intcor
     15.37     -16.18       1.68        0.00      93.72       2.29       0.00       0.81       ----

> <Gold.Chemscore.Fitness>
15.3660

> <Gold.Chemscore.DG>
-16.1826

> <Gold.Chemscore.ZeroCoef>
-5.4800

> <Gold.Chemscore.Hbond>
1.6761

> <Gold.Chemscore.Metal>
0.0000

> <Gold.Chemscore.Lipo>
93.7222

> <Gold.Chemscore.Internal_Hbond>
0.0000

> <Gold.Chemscore.DEClash>
0.0024

> <Gold.Chemscore.DEInternal>
0.8142

> <Gold.Chemscore.Rot>
2.2895

> <Gold.Chemscore.Internal.Correction>
   9.000000E+99

> <Gold.Chemscore.Hbonds>
donor molecule, donor type, donor heavy atom, donor atom, acceptor molecule, acceptor atom, score
      L1  H    10    27       P1  8028  0.75
      P1  H  7989  7998       L1     6  0.30

> <Gold.Chemscore.Hbond.Weighted>
-5.5983

> <Gold.Chemscore.Metal.Weighted>
-0.0000

> <Gold.Chemscore.Lipo.Weighted>
-10.9655

> <Gold.Chemscore.Internal_Hbond.Weighted>
0.0000

> <Gold.Chemscore.DEClash.Weighted>
0.0024

> <Gold.Chemscore.DEInternal.Weighted>
0.8142

> <Gold.Chemscore.Rot.Weighted>
5.8612

> <Gold.Chemscore.Internal.Correction.Weighted>
   9.000000E+99

> <Gold.Protein.RotatedTorsions>
[ 6907 6896 6895 6894 ] final -171.40 input  -60.11 | X-H torsion
[ 7974 7965 7964 7962 ] final  -92.44 input  175.53 | X-H torsion
[ 8008 7997 7996 7995 ] final  -63.67 input   59.86 | X-H torsion
[ 10167 10162 10161 10158 ] final -122.72 input  -65.29 | X-H torsion
[ 10718 10713 10712 10709 ] final -178.46 input   66.30 | X-H torsion
[ 10763 10752 10751 10750 ] final -131.00 input  -60.55 | X-H torsion
[ 11005 11000 10999 10996 ] final  147.21 input  -57.11 | X-H torsion

> <Gold.Protein.ActiveResidues>
 VAL166  LYS551  ARG553  GLY616  TRP617  ASP618  TYR619  PRO620  LYS621  CYS622 
 ASP623  PHE694  ASN695  SER759  ASP760  ASP761  ALA762  ILE779  LEU786  VAL792 
 PHE793  MET794  SER795  GLU796  ALA797  LYS798  CYS799  TRP800  GLU811  SER814 

> <Gold.Protein.RotatedAtoms>
  151.5232  133.3462  159.2904 H   0  0  0  0  0  0  0  0  0  0  0  0  # atno 6907 bound_to 6896
  150.8639  134.8000  159.7115 H   0  0  0  0  0  0  0  0  0  0  0  0  # atno 6908 bound_to 6896
  152.4650  134.5106  159.9804 H   0  0  0  0  0  0  0  0  0  0  0  0  # atno 6909 bound_to 6896
  145.3997  140.9536  143.2294 H   0  0  0  0  0  0  0  0  0  0  0  0  # atno 7974 bound_to 7965
  154.4567  140.0970  156.6779 H   0  0  0  0  0  0  0  0  0  0  0  0  # atno 8008 bound_to 7997
  155.5115  140.3476  155.4371 H   0  0  0  0  0  0  0  0  0  0  0  0  # atno 8009 bound_to 7997
  156.0792  140.1369  156.9722 H   0  0  0  0  0  0  0  0  0  0  0  0  # atno 8010 bound_to 7997
  140.0112  143.5439  152.2262 H   0  0  0  0  0  0  0  0  0  0  0  0  # atno 10167 bound_to 10162
  156.8446  130.9698  151.3097 H   0  0  0  0  0  0  0  0  0  0  0  0  # atno 10718 bound_to 10713
  154.8753  135.3844  154.4174 H   0  0  0  0  0  0  0  0  0  0  0  0  # atno 10763 bound_to 10752
  153.4881  135.7030  153.5904 H   0  0  0  0  0  0  0  0  0  0  0  0  # atno 10764 bound_to 10752
  153.4290  135.3883  155.2126 H   0  0  0  0  0  0  0  0  0  0  0  0  # atno 10765 bound_to 10752
  140.0857  134.9071  157.1572 H   0  0  0  0  0  0  0  0  0  0  0  0  # atno 11005 bound_to 11000
  144.8382  139.5515  143.6912 LP  0  0  0  0  0  0  0  0  0  0  0  0  # atno 17320 bound_to 7965
  146.2758  139.6748  142.9264 LP  0  0  0  0  0  0  0  0  0  0  0  0  # atno 17321 bound_to 7965
  139.6203  144.7628  151.2754 LP  0  0  0  0  0  0  0  0  0  0  0  0  # atno 17342 bound_to 10162
  140.7380  143.6660  150.8123 LP  0  0  0  0  0  0  0  0  0  0  0  0  # atno 17343 bound_to 10162
  157.6337  130.8749  149.9320 LP  0  0  0  0  0  0  0  0  0  0  0  0  # atno 17370 bound_to 10713
  156.0862  130.3668  150.0484 LP  0  0  0  0  0  0  0  0  0  0  0  0  # atno 17371 bound_to 10713
  140.3423  134.2690  155.7210 LP  0  0  0  0  0  0  0  0  0  0  0  0  # atno 17394 bound_to 11000
  141.2062  133.7840  157.0192 LP  0  0  0  0  0  0  0  0  0  0  0  0  # atno 17395 bound_to 11000

$$$$
