AV-unprocessed.smi:1807|AV-procd|sdf|7301|dock7
  -GOLD-   22720 8553D 1   1.00000     0.00000
 Structure written by MMmdl.
 44 45  0  0  0  0  0  0  0  0  1 V2000
  151.1183  141.5275  156.5238 C   0  0  0  0  0  0  0  0  0  0  0  0
  151.2464  142.3697  157.8056 C   0  0  2  0  0  0  0  0  0  0  0  0
  151.6011  143.8308  157.4620 C   0  0  0  0  0  0  0  0  0  0  0  0
  151.7191  144.7025  158.7215 C   0  0  0  0  0  0  0  0  0  0  0  0
  152.7477  144.1207  159.7006 C   0  0  0  0  0  0  0  0  0  0  0  0
  152.4019  142.6693  160.0599 C   0  0  0  0  0  0  0  0  0  0  0  0
  152.2746  141.7815  158.8035 C   0  0  1  0  0  0  0  0  0  0  0  0
  151.8831  140.4333  159.2061 N   0  0  0  0  0  0  0  0  0  0  0  0
  152.4174  139.2959  158.7375 C   0  0  0  0  0  0  0  0  0  0  0  0
  153.2624  139.2598  157.8421 O   0  0  0  0  0  0  0  0  0  0  0  0
  151.9196  138.0011  159.3904 C   0  0  0  0  0  0  0  0  0  0  0  0
  150.9422  137.3037  158.5608 N   0  0  0  0  0  0  0  0  0  0  0  0
  149.7630  136.8154  159.1406 C   0  0  0  0  0  0  0  0  0  0  0  0
  148.7834  136.1131  158.3873 C   0  0  0  0  0  0  0  0  0  0  0  0
  147.8419  135.7904  159.3234 C   0  0  0  0  0  0  0  0  0  0  0  0
  148.2737  136.2884  160.5374 N   0  0  0  0  0  0  0  0  0  0  0  0
  147.6335  136.1845  161.8370 C   0  0  0  0  0  0  0  0  0  0  0  0
  146.2001  136.7234  161.8063 C   0  0  0  0  0  0  0  0  0  0  0  0
  145.2188  135.8778  162.1335 N   0  0  0  0  0  0  0  0  0  0  0  0
  145.9798  137.8875  161.4798 O   0  0  0  0  0  0  0  0  0  0  0  0
  149.4517  136.9388  160.4223 N   0  0  0  0  0  0  0  0  0  0  0  0
  152.0734  141.4526  156.0034 H   0  0  0  0  0  0  0  0  0  0  0  0
  150.3988  141.9705  155.8347 H   0  0  0  0  0  0  0  0  0  0  0  0
  150.7764  140.5149  156.7388 H   0  0  0  0  0  0  0  0  0  0  0  0
  150.2693  142.3750  158.2914 H   0  0  0  0  0  0  0  0  0  0  0  0
  152.5425  143.8611  156.9115 H   0  0  0  0  0  0  0  0  0  0  0  0
  150.8445  144.2528  156.7995 H   0  0  0  0  0  0  0  0  0  0  0  0
  152.0019  145.7187  158.4459 H   0  0  0  0  0  0  0  0  0  0  0  0
  150.7469  144.7728  159.2108 H   0  0  0  0  0  0  0  0  0  0  0  0
  153.7432  144.1615  159.2564 H   0  0  0  0  0  0  0  0  0  0  0  0
  152.7859  144.7279  160.6054 H   0  0  0  0  0  0  0  0  0  0  0  0
  153.1622  142.2695  160.7319 H   0  0  0  0  0  0  0  0  0  0  0  0
  151.4632  142.6523  160.6151 H   0  0  0  0  0  0  0  0  0  0  0  0
  153.2452  141.7402  158.3048 H   0  0  0  0  0  0  0  0  0  0  0  0
  151.1896  140.3616  159.9363 H   0  0  0  0  0  0  0  0  0  0  0  0
  152.7535  137.3359  159.6212 H   0  0  0  0  0  0  0  0  0  0  0  0
  151.4487  138.2520  160.3409 H   0  0  0  0  0  0  0  0  0  0  0  0
  151.2434  136.9329  157.6714 H   0  0  0  0  0  0  0  0  0  0  0  0
  148.7770  135.8726  157.3344 H   0  0  0  0  0  0  0  0  0  0  0  0
  146.9138  135.2464  159.2298 H   0  0  0  0  0  0  0  0  0  0  0  0
  147.6351  135.1395  162.1508 H   0  0  0  0  0  0  0  0  0  0  0  0
  148.2205  136.7405  162.5689 H   0  0  0  0  0  0  0  0  0  0  0  0
  144.2584  136.1884  162.1212 H   0  0  0  0  0  0  0  0  0  0  0  0
  145.4425  134.9264  162.3871 H   0  0  0  0  0  0  0  0  0  0  0  0
  1  2  1  0  0  0  0
  1 22  1  0  0  0  0
  1 23  1  0  0  0  0
  1 24  1  0  0  0  0
  2  7  1  0  0  0  0
  2  3  1  0  0  0  0
  2 25  1  0  0  0  0
  3  4  1  0  0  0  0
  3 26  1  0  0  0  0
  3 27  1  0  0  0  0
  4  5  1  0  0  0  0
  4 28  1  0  0  0  0
  4 29  1  0  0  0  0
  5  6  1  0  0  0  0
  5 30  1  0  0  0  0
  5 31  1  0  0  0  0
  6  7  1  0  0  0  0
  6 32  1  0  0  0  0
  6 33  1  0  0  0  0
  7  8  1  0  0  0  0
  7 34  1  0  0  0  0
  8  9  1  0  0  0  0
  8 35  1  0  0  0  0
  9 10  2  0  0  0  0
  9 11  1  0  0  0  0
 11 12  1  0  0  0  0
 11 36  1  0  0  0  0
 11 37  1  0  0  0  0
 12 13  1  0  0  0  0
 12 38  1  0  0  0  0
 13 21  2  0  0  0  0
 13 14  1  0  0  0  0
 14 15  2  0  0  0  0
 14 39  1  0  0  0  0
 15 16  1  0  0  0  0
 15 40  1  0  0  0  0
 16 17  1  0  0  0  0
 16 21  1  0  0  0  0
 17 18  1  0  0  0  0
 17 41  1  0  0  0  0
 17 42  1  0  0  0  0
 18 19  1  0  0  0  0
 18 20  2  0  0  0  0
 19 43  1  0  0  0  0
 19 44  1  0  0  0  0
M  END
> <s_m_source_file>
AV-unprocessed.smi

> <i_m_source_file_index>
1807

> <i_lp_mmshare_version>
43012

> <i_f3d_flags>
0

> <s_epik_input>
W0NIM11bQ0BASF0xW0NIMl1bQ0gyXVtDSDJdW0NIMl1bQ0BIXTFbTkhdQyg9TylbQ0gyXVtOSF1jMltjSF1bY0hdbihuMilbQ0gyXUMoPU8pW05IMl0=

> <s_epik_cmdline>
J2VwaWtfcHl0aG9uJywgJy1waCcsICc3LjAnLCAnLXRuJywgJzgnLCAnLW1hJywgJzIwMCcsICctbWV0YWxfYmluZGluZycsICctaW1hZScsICc8aW5maWxlLm1hZT4nLCAnLW9tYWUnLCAnPG91dGZpbGUubWFlPic=

> <r_lp_tautomer_probability>
1

> <r_epik_Ionization_Penalty>
0.000167642

> <r_epik_Ionization_Penalty_Charging>
0

> <r_epik_Ionization_Penalty_Neutral>
0.000167642

> <r_epik_State_Penalty>
-0

> <r_epik_Charging_Adjusted_Penalty>
0

> <i_epik_Tot_Q>
0

> <i_epik_Tot_abs_Q>
0

> <r_epik_Metal_State_Penalty>
-0

> <b_epik_Metal_Only>
0

> <s_lp_Force_Field>
OPLS_2005

> <r_lp_Energy>
5.76299

> <b_lp_Chiralities_Consistent>
1

> <s_lp_Variant>
AV-unprocessed.smi:1807-1

> <Gold.Version>
5.8.1

> <Gold.Id.Protein>
6NUR|6NUR_protein|mol2

> <Gold.PLP.Fitness>
47.1884

> <Gold.PLP.PLP>
-41.5845

> <Gold.PLP.part.hbond>
-3.0000

> <Gold.PLP.part.metal>
0.0000

> <Gold.PLP.part.buried>
-6.8643

> <Gold.PLP.part.nonpolar>
-32.7004

> <Gold.PLP.part.repulsive>
0.3089

> <Gold.PLP.ligand.clash>
0.0000

> <Gold.PLP.ligand.torsion>
0.5771

> <Gold.PLP.Chemscore.Hbond>
2.2480

> <Gold.PLP.Chemscore.CHOScore>
0.0000

> <Gold.PLP.Chemscore.Metal>
0.0000

> <Gold.Chemscore.Hbonds>
donor molecule, donor type, donor heavy atom, donor atom, acceptor molecule, acceptor atom, score
      P1  H  6931  6943       L1    21  0.44
      P1  H  6934  6947       L1    20  0.88
      P1  H  7997  8010       L1    10  1.00

> <Gold.PLP.Chemscore.Internal.Correction>
0.0142

> <Gold.Rescore>
     Score         DG    S(hbond)    S(metal)    S(lipo)     H(rot)  DE(clash)    DE(int)     intcor
     16.27     -16.70       2.02        0.00      96.02       2.64       0.01       0.42       ----

> <Gold.Chemscore.Fitness>
16.2716

> <Gold.Chemscore.DG>
-16.7024

> <Gold.Chemscore.ZeroCoef>
-5.4800

> <Gold.Chemscore.Hbond>
2.0175

> <Gold.Chemscore.Metal>
0.0000

> <Gold.Chemscore.Lipo>
96.0211

> <Gold.Chemscore.Internal_Hbond>
0.0000

> <Gold.Chemscore.DEClash>
0.0110

> <Gold.Chemscore.DEInternal>
0.4197

> <Gold.Chemscore.Rot>
2.6369

> <Gold.Chemscore.Internal.Correction>
   9.000000E+99

> <Gold.Chemscore.Hbonds>
donor molecule, donor type, donor heavy atom, donor atom, acceptor molecule, acceptor atom, score
      P1  H  6931  6943       L1    21  0.06
      P1  H  6934  6947       L1    20  0.86
      P1  H  7997  8010       L1    10  1.00

> <Gold.Chemscore.Hbond.Weighted>
-6.7383

> <Gold.Chemscore.Metal.Weighted>
-0.0000

> <Gold.Chemscore.Lipo.Weighted>
-11.2345

> <Gold.Chemscore.Internal_Hbond.Weighted>
0.0000

> <Gold.Chemscore.DEClash.Weighted>
0.0110

> <Gold.Chemscore.DEInternal.Weighted>
0.4197

> <Gold.Chemscore.Rot.Weighted>
6.7504

> <Gold.Chemscore.Internal.Correction.Weighted>
   9.000000E+99

> <Gold.Protein.RotatedTorsions>
[ 6907 6896 6895 6894 ] final   49.31 input  -60.11 | X-H torsion
[ 7974 7965 7964 7962 ] final   38.49 input  175.53 | X-H torsion
[ 8008 7997 7996 7995 ] final   34.43 input   59.86 | X-H torsion
[ 10167 10162 10161 10158 ] final   -6.56 input  -65.29 | X-H torsion
[ 10718 10713 10712 10709 ] final   61.02 input   66.30 | X-H torsion
[ 10763 10752 10751 10750 ] final   56.69 input  -60.55 | X-H torsion
[ 11005 11000 10999 10996 ] final   71.34 input  -57.11 | X-H torsion

> <Gold.Protein.ActiveResidues>
 VAL166  LYS551  ARG553  GLY616  TRP617  ASP618  TYR619  PRO620  LYS621  CYS622 
 ASP623  PHE694  ASN695  SER759  ASP760  ASP761  ALA762  ILE779  LEU786  VAL792 
 PHE793  MET794  SER795  GLU796  ALA797  LYS798  CYS799  TRP800  GLU811  SER814 

> <Gold.Protein.RotatedAtoms>
  152.2893  134.7740  160.0380 H   0  0  0  0  0  0  0  0  0  0  0  0  # atno 6907 bound_to 6896
  151.8292  133.3400  159.3616 H   0  0  0  0  0  0  0  0  0  0  0  0  # atno 6908 bound_to 6896
  150.7223  134.5428  159.5800 H   0  0  0  0  0  0  0  0  0  0  0  0  # atno 6909 bound_to 6896
  146.1057  139.5765  142.9385 H   0  0  0  0  0  0  0  0  0  0  0  0  # atno 7974 bound_to 7965
  155.1547  140.3278  155.4424 H   0  0  0  0  0  0  0  0  0  0  0  0  # atno 8008 bound_to 7997
  156.2562  140.1970  156.6607 H   0  0  0  0  0  0  0  0  0  0  0  0  # atno 8009 bound_to 7997
  154.6448  140.0566  156.9874 H   0  0  0  0  0  0  0  0  0  0  0  0  # atno 8010 bound_to 7997
  140.7001  143.6180  150.8640 H   0  0  0  0  0  0  0  0  0  0  0  0  # atno 10167 bound_to 10162
  157.5796  130.8971  149.9408 H   0  0  0  0  0  0  0  0  0  0  0  0  # atno 10718 bound_to 10713
  152.9836  135.5667  154.5270 H   0  0  0  0  0  0  0  0  0  0  0  0  # atno 10763 bound_to 10752
  154.4748  135.2786  155.1617 H   0  0  0  0  0  0  0  0  0  0  0  0  # atno 10764 bound_to 10752
  154.3150  135.6280  153.5535 H   0  0  0  0  0  0  0  0  0  0  0  0  # atno 10765 bound_to 10752
  139.9549  134.7162  156.0776 H   0  0  0  0  0  0  0  0  0  0  0  0  # atno 11005 bound_to 11000
  145.5765  141.0388  143.2145 LP  0  0  0  0  0  0  0  0  0  0  0  0  # atno 17320 bound_to 7965
  144.7469  139.7296  143.7288 LP  0  0  0  0  0  0  0  0  0  0  0  0  # atno 17321 bound_to 7965
  139.9901  143.5856  152.2913 LP  0  0  0  0  0  0  0  0  0  0  0  0  # atno 17342 bound_to 10162
  139.6508  144.7660  151.2151 LP  0  0  0  0  0  0  0  0  0  0  0  0  # atno 17343 bound_to 10162
  156.0842  130.3670  150.0520 LP  0  0  0  0  0  0  0  0  0  0  0  0  # atno 17370 bound_to 10713
  156.8662  130.9508  151.3613 LP  0  0  0  0  0  0  0  0  0  0  0  0  # atno 17371 bound_to 10713
  141.1218  133.6610  156.3235 LP  0  0  0  0  0  0  0  0  0  0  0  0  # atno 17394 bound_to 11000
  140.5633  134.5913  157.5439 LP  0  0  0  0  0  0  0  0  0  0  0  0  # atno 17395 bound_to 11000

$$$$
