AV-unprocessed.smi:3231|AV-procd|sdf|12333|dock4
  -GOLD-   2272018183D 1   1.00000     0.00000
 Structure written by MMmdl.
 41 42  0  0  0  0  0  0  0  0  2 V2000
  149.3769  141.4239  153.8303 O   0  0  0  0  0  0  0  0  0  0  0  0
  148.7158  140.4268  154.5835 C   0  0  2  0  0  0  0  0  0  0  0  0
  149.6298  139.1903  154.6037 C   0  0  0  0  0  0  0  0  0  0  0  0
  150.9762  139.5348  155.0478 N   0  0  0  0  0  0  0  0  0  0  0  0
  150.9999  140.4701  156.1687 C   0  0  0  0  0  0  0  0  0  0  0  0
  151.6531  139.8449  157.4116 C   0  0  0  0  0  0  0  0  0  0  0  0
  152.0189  140.8439  158.4005 N   0  0  0  0  0  0  0  0  0  0  0  0
  152.6624  140.6592  159.6060 C   0  0  0  0  0  0  0  0  0  0  0  0
  152.7988  141.8877  160.1862 C   0  0  0  0  0  0  0  0  0  0  0  0
  152.1982  142.7731  159.2483 C   0  0  0  0  0  0  0  0  0  0  0  0
  151.7348  142.1461  158.1792 N   0  0  0  0  0  0  0  0  0  0  0  0
  147.3492  140.1369  153.9243 C   0  0  0  0  0  0  0  0  0  0  0  0
  146.2724  141.0427  154.3994 N   0  3  0  0  0  0  0  0  0  0  0  0
  145.8522  140.7395  155.7882 C   0  0  0  0  0  0  0  0  0  0  0  0
  144.7011  141.6645  156.2183 C   0  0  0  0  0  0  0  0  0  0  0  0
  145.1043  143.0216  156.0872 O   0  0  0  0  0  0  0  0  0  0  0  0
  145.4277  143.3524  154.7425 C   0  0  0  0  0  0  0  0  0  0  0  0
  146.6032  142.4835  154.2642 C   0  0  0  0  0  0  0  0  0  0  0  0
  149.7808  141.0219  153.0770 H   0  0  0  0  0  0  0  0  0  0  0  0
  148.5987  140.7937  155.6031 H   0  0  0  0  0  0  0  0  0  0  0  0
  149.2045  138.4168  155.2448 H   0  0  0  0  0  0  0  0  0  0  0  0
  149.6815  138.7670  153.5994 H   0  0  0  0  0  0  0  0  0  0  0  0
  151.4816  138.6917  155.3023 H   0  0  0  0  0  0  0  0  0  0  0  0
  151.5488  141.3688  155.8857 H   0  0  0  0  0  0  0  0  0  0  0  0
  149.9864  140.7898  156.4143 H   0  0  0  0  0  0  0  0  0  0  0  0
  150.9895  139.1083  157.8676 H   0  0  0  0  0  0  0  0  0  0  0  0
  152.5585  139.3103  157.1221 H   0  0  0  0  0  0  0  0  0  0  0  0
  152.9689  139.6806  159.9449 H   0  0  0  0  0  0  0  0  0  0  0  0
  153.2577  142.1188  161.1357 H   0  0  0  0  0  0  0  0  0  0  0  0
  152.0876  143.8456  159.3114 H   0  0  0  0  0  0  0  0  0  0  0  0
  147.4596  140.2309  152.8428 H   0  0  0  0  0  0  0  0  0  0  0  0
  147.0426  139.1055  154.1055 H   0  0  0  0  0  0  0  0  0  0  0  0
  145.5306  139.6996  155.8595 H   0  0  0  0  0  0  0  0  0  0  0  0
  146.7013  140.8605  156.4626 H   0  0  0  0  0  0  0  0  0  0  0  0
  143.8067  141.4782  155.6214 H   0  0  0  0  0  0  0  0  0  0  0  0
  144.4351  141.4744  157.2582 H   0  0  0  0  0  0  0  0  0  0  0  0
  144.5552  143.2166  154.1012 H   0  0  0  0  0  0  0  0  0  0  0  0
  145.6966  144.4076  154.6940 H   0  0  0  0  0  0  0  0  0  0  0  0
  147.4944  142.7113  154.8511 H   0  0  0  0  0  0  0  0  0  0  0  0
  146.8325  142.7301  153.2286 H   0  0  0  0  0  0  0  0  0  0  0  0
  145.4672  140.8646  153.8166 H   0  0  0  0  0  0  0  0  0  0  0  0
  1  2  1  0  0  0  0
  1 19  1  0  0  0  0
  2  3  1  0  0  0  0
  2 12  1  0  0  0  0
  2 20  1  0  0  0  0
  3  4  1  0  0  0  0
  3 21  1  0  0  0  0
  3 22  1  0  0  0  0
  4  5  1  0  0  0  0
  4 23  1  0  0  0  0
  5  6  1  0  0  0  0
  5 24  1  0  0  0  0
  5 25  1  0  0  0  0
  6  7  1  0  0  0  0
  6 26  1  0  0  0  0
  6 27  1  0  0  0  0
  7 11  1  0  0  0  0
  7  8  1  0  0  0  0
  8  9  2  0  0  0  0
  8 28  1  0  0  0  0
  9 10  1  0  0  0  0
  9 29  1  0  0  0  0
 10 11  2  0  0  0  0
 10 30  1  0  0  0  0
 12 13  1  0  0  0  0
 12 31  1  0  0  0  0
 12 32  1  0  0  0  0
 13 18  1  0  0  0  0
 13 14  1  0  0  0  0
 13 41  1  0  0  0  0
 14 15  1  0  0  0  0
 14 33  1  0  0  0  0
 14 34  1  0  0  0  0
 15 16  1  0  0  0  0
 15 35  1  0  0  0  0
 15 36  1  0  0  0  0
 16 17  1  0  0  0  0
 17 18  1  0  0  0  0
 17 37  1  0  0  0  0
 17 38  1  0  0  0  0
 18 39  1  0  0  0  0
 18 40  1  0  0  0  0
M  CHG  1  13   1
M  END
> <s_m_source_file>
AV-unprocessed.smi

> <i_m_source_file_index>
3231

> <i_lp_mmshare_version>
43012

> <i_f3d_flags>
0

> <s_epik_input>
W0NIMl0xW0NIMl1PW0NIMl1bQ0gyXU4xW0NIMl1bQ0BIXShbT0hdKVtDSDJdW05IXVtDSDJdW0NIMl1uMltjSF1bY0hdW2NIXW4y

> <s_epik_cmdline>
J2VwaWtfcHl0aG9uJywgJy1waCcsICc3LjAnLCAnLXRuJywgJzgnLCAnLW1hJywgJzIwMCcsICctbWV0YWxfYmluZGluZycsICctaW1hZScsICc8aW5maWxlLm1hZT4nLCAnLW9tYWUnLCAnPG91dGZpbGUubWFlPic=

> <r_epik_Ionization_Penalty>
0.33973

> <r_epik_Ionization_Penalty_Charging>
0.202493

> <r_epik_Ionization_Penalty_Neutral>
0.137237

> <r_epik_State_Penalty>
0.943915

> <r_epik_Charging_Adjusted_Penalty>
1.14641

> <i_epik_Tot_Q>
1

> <i_epik_Tot_abs_Q>
1

> <r_epik_Metal_State_Penalty>
0.94313

> <b_epik_Metal_Only>
0

> <s_lp_Force_Field>
OPLS_2005

> <r_lp_Energy>
21.8008

> <b_lp_Chiralities_Consistent>
1

> <s_lp_Variant>
AV-unprocessed.smi:3231-3

> <Gold.Version>
5.8.1

> <Gold.Id.Protein>
6NUR|6NUR_protein|mol2

> <Gold.PLP.Fitness>
48.8524

> <Gold.PLP.PLP>
-38.5381

> <Gold.PLP.part.hbond>
-4.3770

> <Gold.PLP.part.metal>
0.0000

> <Gold.PLP.part.buried>
-4.0751

> <Gold.PLP.part.nonpolar>
-29.1749

> <Gold.PLP.part.repulsive>
0.2494

> <Gold.PLP.ligand.clash>
0.0000

> <Gold.PLP.ligand.torsion>
0.9050

> <Gold.PLP.Chemscore.Hbond>
4.0000

> <Gold.PLP.Chemscore.CHOScore>
0.0000

> <Gold.PLP.Chemscore.Metal>
0.0000

> <Gold.Chemscore.Hbonds>
donor molecule, donor type, donor heavy atom, donor atom, acceptor molecule, acceptor atom, score
      L1  H     1    19       P1  7957  0.70
      L1  H    13    41       P1 10175  0.88
      P1  H  7989  7998       L1     4  0.68

> <Gold.PLP.Chemscore.Internal.Correction>
0.1243

> <Gold.Rescore>
     Score         DG    S(hbond)    S(metal)    S(lipo)     H(rot)  DE(clash)    DE(int)     intcor
     13.80     -14.71       2.10        0.00      81.08       2.84       0.01       0.90       ----

> <Gold.Chemscore.Fitness>
13.8027

> <Gold.Chemscore.DG>
-14.7150

> <Gold.Chemscore.ZeroCoef>
-5.4800

> <Gold.Chemscore.Hbond>
2.1014

> <Gold.Chemscore.Metal>
0.0000

> <Gold.Chemscore.Lipo>
81.0774

> <Gold.Chemscore.Internal_Hbond>
0.0000

> <Gold.Chemscore.DEClash>
0.0126

> <Gold.Chemscore.DEInternal>
0.8997

> <Gold.Chemscore.Rot>
2.8397

> <Gold.Chemscore.Internal.Correction>
   9.000000E+99

> <Gold.Chemscore.Hbonds>
donor molecule, donor type, donor heavy atom, donor atom, acceptor molecule, acceptor atom, score
      L1  H     1    19       P1  7957  0.68
      L1  H    13    41       P1 10175  0.38
      P1  H  7989  7998       L1     4  0.05

> <Gold.Chemscore.Hbond.Weighted>
-7.0185

> <Gold.Chemscore.Metal.Weighted>
-0.0000

> <Gold.Chemscore.Lipo.Weighted>
-9.4861

> <Gold.Chemscore.Internal_Hbond.Weighted>
0.0000

> <Gold.Chemscore.DEClash.Weighted>
0.0126

> <Gold.Chemscore.DEInternal.Weighted>
0.8997

> <Gold.Chemscore.Rot.Weighted>
7.2696

> <Gold.Chemscore.Internal.Correction.Weighted>
   9.000000E+99

> <Gold.Protein.RotatedTorsions>
[ 6907 6896 6895 6894 ] final   97.37 input  -60.11 | X-H torsion
[ 7974 7965 7964 7962 ] final  -81.61 input  175.53 | X-H torsion
[ 8008 7997 7996 7995 ] final  -68.54 input   59.86 | X-H torsion
[ 10167 10162 10161 10158 ] final   62.65 input  -65.29 | X-H torsion
[ 10718 10713 10712 10709 ] final  138.71 input   66.30 | X-H torsion
[ 10763 10752 10751 10750 ] final  -15.77 input  -60.55 | X-H torsion
[ 11005 11000 10999 10996 ] final    0.01 input  -57.11 | X-H torsion

> <Gold.Protein.ActiveResidues>
 VAL166  LYS551  ARG553  GLY616  TRP617  ASP618  TYR619  PRO620  LYS621  CYS622 
 ASP623  PHE694  ASN695  SER759  ASP760  ASP761  ALA762  ILE779  LEU786  VAL792 
 PHE793  MET794  SER795  GLU796  ALA797  LYS798  CYS799  TRP800  GLU811  SER814 

> <Gold.Protein.RotatedAtoms>
  152.5424  134.0744  159.8207 H   0  0  0  0  0  0  0  0  0  0  0  0  # atno 6907 bound_to 6896
  151.0854  133.5350  159.2625 H   0  0  0  0  0  0  0  0  0  0  0  0  # atno 6908 bound_to 6896
  151.2161  135.0509  159.8985 H   0  0  0  0  0  0  0  0  0  0  0  0  # atno 6909 bound_to 6896
  145.5444  140.9505  143.1533 H   0  0  0  0  0  0  0  0  0  0  0  0  # atno 7974 bound_to 7965
  154.4875  140.0871  156.7520 H   0  0  0  0  0  0  0  0  0  0  0  0  # atno 8008 bound_to 7997
  155.4313  140.3450  155.4262 H   0  0  0  0  0  0  0  0  0  0  0  0  # atno 8009 bound_to 7997
  156.1282  140.1494  156.9092 H   0  0  0  0  0  0  0  0  0  0  0  0  # atno 8010 bound_to 7997
  140.1416  144.4548  150.6808 H   0  0  0  0  0  0  0  0  0  0  0  0  # atno 10167 bound_to 10162
  157.4223  131.1040  151.0340 H   0  0  0  0  0  0  0  0  0  0  0  0  # atno 10718 bound_to 10713
  153.5484  135.7012  153.5603 H   0  0  0  0  0  0  0  0  0  0  0  0  # atno 10763 bound_to 10752
  153.3538  135.3988  155.1666 H   0  0  0  0  0  0  0  0  0  0  0  0  # atno 10764 bound_to 10752
  154.8664  135.3772  154.4993 H   0  0  0  0  0  0  0  0  0  0  0  0  # atno 10765 bound_to 10752
  140.6313  133.9573  155.8276 H   0  0  0  0  0  0  0  0  0  0  0  0  # atno 11005 bound_to 11000
  144.7561  139.7072  143.7253 LP  0  0  0  0  0  0  0  0  0  0  0  0  # atno 17320 bound_to 7965
  146.1959  139.5225  142.9775 LP  0  0  0  0  0  0  0  0  0  0  0  0  # atno 17321 bound_to 7965
  140.6757  143.2304  151.5513 LP  0  0  0  0  0  0  0  0  0  0  0  0  # atno 17342 bound_to 10162
  139.5469  144.2497  152.1459 LP  0  0  0  0  0  0  0  0  0  0  0  0  # atno 17343 bound_to 10162
  157.1266  130.6084  149.5518 LP  0  0  0  0  0  0  0  0  0  0  0  0  # atno 17370 bound_to 10713
  155.9885  130.4928  150.7171 LP  0  0  0  0  0  0  0  0  0  0  0  0  # atno 17371 bound_to 10713
  141.0673  134.0257  157.3575 LP  0  0  0  0  0  0  0  0  0  0  0  0  # atno 17394 bound_to 11000
  139.9115  135.0191  156.7710 LP  0  0  0  0  0  0  0  0  0  0  0  0  # atno 17395 bound_to 11000

$$$$
