AV-unprocessed.smi:102|AV-procd|sdf|965|dock10
  -GOLD-   2262017513D 1   1.00000     0.00000
 Structure written by MMmdl.
 43 44  0  0  0  0  0  0  0  0  2 V2000
  145.4157  135.3728  161.7514 C   0  0  0  0  0  0  0  0  0  0  0  0
  146.5225  136.1375  161.0364 C   0  0  0  0  0  0  0  0  0  0  0  0
  147.2028  136.9782  161.6246 O   0  0  0  0  0  0  0  0  0  0  0  0
  146.6441  135.7855  159.7474 O   0  0  0  0  0  0  0  0  0  0  0  0
  147.4696  136.5531  158.8871 C   0  0  0  0  0  0  0  0  0  0  0  0
  148.9141  136.0357  158.9672 C   0  0  2  0  0  0  0  0  0  0  0  0
  149.7274  136.9956  159.6279 O   0  0  0  0  0  0  0  0  0  0  0  0
  150.2501  137.8744  158.6844 C   0  0  1  0  0  0  0  0  0  0  0  0
  151.5613  138.4215  159.1894 N   0  0  0  0  0  0  0  0  0  0  0  0
  152.1385  137.9106  160.3390 C   0  0  0  0  0  0  0  0  0  0  0  0
  153.3240  138.3700  160.7882 C   0  0  0  0  0  0  0  0  0  0  0  0
  153.8611  137.8554  161.9077 F   0  0  0  0  0  0  0  0  0  0  0  0
  154.0191  139.4216  160.0479 C   0  0  0  0  0  0  0  0  0  0  0  0
  155.0946  139.8448  160.4683 O   0  0  0  0  0  0  0  0  0  0  0  0
  153.4363  139.8899  158.9061 N   0  5  0  0  0  0  0  0  0  0  0  0
  152.2403  139.4215  158.4425 C   0  0  0  0  0  0  0  0  0  0  0  0
  151.7210  139.8182  157.3993 O   0  0  0  0  0  0  0  0  0  0  0  0
  150.4653  137.0783  157.3975 C   0  0  2  0  0  0  0  0  0  0  0  0
  150.0947  137.8587  156.2699 O   0  0  0  0  0  0  0  0  0  0  0  0
  150.7010  137.6619  155.0876 C   0  0  0  0  0  0  0  0  0  0  0  0
  150.1028  138.5170  153.9787 C   0  0  0  0  0  0  0  0  0  0  0  0
  151.6313  136.8853  154.8698 O   0  0  0  0  0  0  0  0  0  0  0  0
  149.5466  135.8728  157.5754 C   0  0  1  0  0  0  0  0  0  0  0  0
  150.3233  134.6848  157.4856 O   0  0  0  0  0  0  0  0  0  0  0  0
  150.6272  134.1616  156.2857 C   0  0  0  0  0  0  0  0  0  0  0  0
  151.5116  132.9269  156.3978 C   0  0  0  0  0  0  0  0  0  0  0  0
  150.2540  134.5880  155.1927 O   0  0  0  0  0  0  0  0  0  0  0  0
  144.8832  134.7181  161.0611 H   0  0  0  0  0  0  0  0  0  0  0  0
  144.6993  136.0683  162.1886 H   0  0  0  0  0  0  0  0  0  0  0  0
  145.8361  134.7621  162.5506 H   0  0  0  0  0  0  0  0  0  0  0  0
  147.1016  136.4497  157.8652 H   0  0  0  0  0  0  0  0  0  0  0  0
  147.4168  137.6112  159.1470 H   0  0  0  0  0  0  0  0  0  0  0  0
  148.9294  135.0957  159.5205 H   0  0  0  0  0  0  0  0  0  0  0  0
  149.5596  138.7135  158.5801 H   0  0  0  0  0  0  0  0  0  0  0  0
  151.6409  137.1252  160.8882 H   0  0  0  0  0  0  0  0  0  0  0  0
  151.5108  136.7678  157.3487 H   0  0  0  0  0  0  0  0  0  0  0  0
  149.8371  139.5037  154.3586 H   0  0  0  0  0  0  0  0  0  0  0  0
  149.2050  138.0445  153.5802 H   0  0  0  0  0  0  0  0  0  0  0  0
  150.8187  138.6427  153.1663 H   0  0  0  0  0  0  0  0  0  0  0  0
  148.7763  135.8716  156.8023 H   0  0  0  0  0  0  0  0  0  0  0  0
  152.2680  133.0674  157.1701 H   0  0  0  0  0  0  0  0  0  0  0  0
  152.0175  132.7323  155.4520 H   0  0  0  0  0  0  0  0  0  0  0  0
  150.9104  132.0549  156.6547 H   0  0  0  0  0  0  0  0  0  0  0  0
  1  2  1  0  0  0  0
  1 28  1  0  0  0  0
  1 29  1  0  0  0  0
  1 30  1  0  0  0  0
  2  3  2  0  0  0  0
  2  4  1  0  0  0  0
  4  5  1  0  0  0  0
  5  6  1  0  0  0  0
  5 31  1  0  0  0  0
  5 32  1  0  0  0  0
  6 23  1  0  0  0  0
  6  7  1  0  0  0  0
  6 33  1  0  0  0  0
  7  8  1  0  0  0  0
  8  9  1  0  0  0  0
  8 18  1  0  0  0  0
  8 34  1  0  0  0  0
  9 16  1  0  0  0  0
  9 10  1  0  0  0  0
 10 11  2  0  0  0  0
 10 35  1  0  0  0  0
 11 12  1  0  0  0  0
 11 13  1  0  0  0  0
 13 14  2  0  0  0  0
 13 15  1  0  0  0  0
 15 16  1  0  0  0  0
 16 17  2  0  0  0  0
 18 19  1  0  0  0  0
 18 23  1  0  0  0  0
 18 36  1  0  0  0  0
 19 20  1  0  0  0  0
 20 21  1  0  0  0  0
 20 22  2  0  0  0  0
 21 37  1  0  0  0  0
 21 38  1  0  0  0  0
 21 39  1  0  0  0  0
 23 24  1  0  0  0  0
 23 40  1  0  0  0  0
 24 25  1  0  0  0  0
 25 26  1  0  0  0  0
 25 27  2  0  0  0  0
 26 41  1  0  0  0  0
 26 42  1  0  0  0  0
 26 43  1  0  0  0  0
M  CHG  1  15  -1
M  END
> <s_m_source_file>
AV-unprocessed.smi

> <i_m_source_file_index>
102

> <i_lp_mmshare_version>
43012

> <i_f3d_flags>
0

> <s_epik_input>
W0NIM11DKD1PKU9bQ0gyXVtDQEBIXTFPW0NASF0oW0NAQEhdKE9DKD1PKVtDSDNdKVtDQEhdMU9DKD1PKVtDSDNdKW4yW2NIXWMoRiljKD1PKVtuSF1jMj1P

> <s_epik_cmdline>
J2VwaWtfcHl0aG9uJywgJy1waCcsICc3LjAnLCAnLXRuJywgJzgnLCAnLW1hJywgJzIwMCcsICctbWV0YWxfYmluZGluZycsICctaW1hZScsICc8aW5maWxlLm1hZT4nLCAnLW9tYWUnLCAnPG91dGZpbGUubWFlPic=

> <r_epik_Ionization_Penalty>
1.40304

> <r_epik_Ionization_Penalty_Charging>
1.43915e-08

> <r_epik_Ionization_Penalty_Neutral>
1.40304

> <r_epik_State_Penalty>
1.48536

> <r_epik_Charging_Adjusted_Penalty>
1.48536

> <i_epik_Tot_Q>
-1

> <i_epik_Tot_abs_Q>
1

> <r_epik_Metal_State_Penalty>
0.00663881

> <b_epik_Metal_Only>
0

> <s_epik_Chemistry_Notes>
This compound has an ester and may undergo hydrolysis at high or low pH. This compound contains an acetal/aminal-like group ( X-CH(R)-Y where X, Y are N, S, or O) that may be acid/base labile, releasing an aldehyde.

> <s_lp_Force_Field>
OPLS_2005

> <r_lp_Energy>
22.1455

> <b_lp_Chiralities_Consistent>
1

> <s_lp_Variant>
AV-unprocessed.smi:102-21

> <Gold.Version>
5.8.1

> <Gold.Id.Protein>
6NUR|6NUR_protein|mol2

> <Gold.PLP.Fitness>
44.7603

> <Gold.PLP.PLP>
-33.7078

> <Gold.PLP.part.hbond>
-6.0196

> <Gold.PLP.part.metal>
0.0000

> <Gold.PLP.part.buried>
-5.8561

> <Gold.PLP.part.nonpolar>
-21.4797

> <Gold.PLP.part.repulsive>
0.2505

> <Gold.PLP.ligand.clash>
0.0000

> <Gold.PLP.ligand.torsion>
1.7093

> <Gold.PLP.Chemscore.Hbond>
4.7951

> <Gold.PLP.Chemscore.CHOScore>
0.0000

> <Gold.PLP.Chemscore.Metal>
0.0000

> <Gold.Chemscore.Hbonds>
donor molecule, donor type, donor heavy atom, donor atom, acceptor molecule, acceptor atom, score
      P1  H  6931  6943       L1     3  0.44
      P1  H  6934  6947       L1     3  0.67
      P1  H  7997  8010       L1    15  0.90
      P1  H 10752 10764       L1    22  1.00

> <Gold.PLP.Chemscore.Internal.Correction>
0.0859

> <Gold.Rescore>
     Score         DG    S(hbond)    S(metal)    S(lipo)     H(rot)  DE(clash)    DE(int)     intcor
      6.87     -10.27       3.07        0.00      40.78       4.00       0.77       2.63       ----

> <Gold.Chemscore.Fitness>
6.8740

> <Gold.Chemscore.DG>
-10.2739

> <Gold.Chemscore.ZeroCoef>
-5.4800

> <Gold.Chemscore.Hbond>
3.0689

> <Gold.Chemscore.Metal>
0.0000

> <Gold.Chemscore.Lipo>
40.7790

> <Gold.Chemscore.Internal_Hbond>
0.0000

> <Gold.Chemscore.DEClash>
0.7700

> <Gold.Chemscore.DEInternal>
2.6299

> <Gold.Chemscore.Rot>
3.9951

> <Gold.Chemscore.Internal.Correction>
   9.000000E+99

> <Gold.Chemscore.Hbonds>
donor molecule, donor type, donor heavy atom, donor atom, acceptor molecule, acceptor atom, score
      P1  H  6931  6943       L1     3  0.44
      P1  H  6934  6947       L1     3  0.62
      P1  H  7997  8010       L1    15  0.26
      P1  H 10752 10764       L1    22  0.99

> <Gold.Chemscore.Hbond.Weighted>
-10.2502

> <Gold.Chemscore.Metal.Weighted>
-0.0000

> <Gold.Chemscore.Lipo.Weighted>
-4.7711

> <Gold.Chemscore.Internal_Hbond.Weighted>
0.0000

> <Gold.Chemscore.DEClash.Weighted>
0.7700

> <Gold.Chemscore.DEInternal.Weighted>
2.6299

> <Gold.Chemscore.Rot.Weighted>
10.2274

> <Gold.Chemscore.Internal.Correction.Weighted>
   9.000000E+99

> <Gold.Protein.RotatedTorsions>
[ 6907 6896 6895 6894 ] final   -5.07 input  -60.11 | X-H torsion
[ 7974 7965 7964 7962 ] final -157.27 input  175.53 | X-H torsion
[ 8008 7997 7996 7995 ] final    6.65 input   59.86 | X-H torsion
[ 10167 10162 10161 10158 ] final   74.80 input  -65.29 | X-H torsion
[ 10718 10713 10712 10709 ] final  159.84 input   66.30 | X-H torsion
[ 10763 10752 10751 10750 ] final  -57.06 input  -60.55 | X-H torsion
[ 11005 11000 10999 10996 ] final  -29.40 input  -57.11 | X-H torsion

> <Gold.Protein.ActiveResidues>
 VAL166  LYS551  ARG553  GLY616  TRP617  ASP618  TYR619  PRO620  LYS621  CYS622 
 ASP623  PHE694  ASN695  SER759  ASP760  ASP761  ALA762  ILE779  LEU786  VAL792 
 PHE793  MET794  SER795  GLU796  ALA797  LYS798  CYS799  TRP800  GLU811  SER814 

> <Gold.Protein.RotatedAtoms>
  151.4874  135.1055  159.9794 H   0  0  0  0  0  0  0  0  0  0  0  0  # atno 6907 bound_to 6896
  152.4755  133.8123  159.7020 H   0  0  0  0  0  0  0  0  0  0  0  0  # atno 6908 bound_to 6896
  150.8790  133.7337  159.2964 H   0  0  0  0  0  0  0  0  0  0  0  0  # atno 6909 bound_to 6896
  144.7556  140.3992  143.6015 H   0  0  0  0  0  0  0  0  0  0  0  0  # atno 7974 bound_to 7965
  154.7437  140.2754  155.6351 H   0  0  0  0  0  0  0  0  0  0  0  0  # atno 8008 bound_to 7997
  156.2880  140.2692  156.2098 H   0  0  0  0  0  0  0  0  0  0  0  0  # atno 8009 bound_to 7997
  155.0225  140.0371  157.2433 H   0  0  0  0  0  0  0  0  0  0  0  0  # atno 8010 bound_to 7997
  140.0098  144.5623  150.7668 H   0  0  0  0  0  0  0  0  0  0  0  0  # atno 10167 bound_to 10162
  157.1587  131.0582  151.2243 H   0  0  0  0  0  0  0  0  0  0  0  0  # atno 10718 bound_to 10713
  154.2165  135.6385  153.5131 H   0  0  0  0  0  0  0  0  0  0  0  0  # atno 10763 bound_to 10752
  152.9978  135.5486  154.6160 H   0  0  0  0  0  0  0  0  0  0  0  0  # atno 10764 bound_to 10752
  154.5609  135.2909  155.0893 H   0  0  0  0  0  0  0  0  0  0  0  0  # atno 10765 bound_to 10752
  140.9293  133.7348  156.0913 H   0  0  0  0  0  0  0  0  0  0  0  0  # atno 11005 bound_to 11000
  145.6792  139.1615  143.2710 LP  0  0  0  0  0  0  0  0  0  0  0  0  # atno 17320 bound_to 7965
  146.1561  140.6856  142.9299 LP  0  0  0  0  0  0  0  0  0  0  0  0  # atno 17321 bound_to 7965
  140.7386  143.2780  151.3683 LP  0  0  0  0  0  0  0  0  0  0  0  0  # atno 17342 bound_to 10162
  139.6213  144.0901  152.2394 LP  0  0  0  0  0  0  0  0  0  0  0  0  # atno 17343 bound_to 10162
  157.4153  130.7407  149.6871 LP  0  0  0  0  0  0  0  0  0  0  0  0  # atno 17370 bound_to 10713
  155.9757  130.4084  150.3827 LP  0  0  0  0  0  0  0  0  0  0  0  0  # atno 17371 bound_to 10713
  140.7884  134.3645  157.5470 LP  0  0  0  0  0  0  0  0  0  0  0  0  # atno 17394 bound_to 11000
  139.8792  134.9125  156.3062 LP  0  0  0  0  0  0  0  0  0  0  0  0  # atno 17395 bound_to 11000

$$$$
