AV-unprocessed.smi:901|AV-procd|sdf|4090|dock1
  -GOLD-   22720 1573D 1   1.00000     0.00000
 Structure written by MMmdl.
 43 44  0  0  0  0  0  0  0  0  1 V2000
  154.6441  141.1142  160.9404 C   0  0  0  0  0  0  0  0  0  0  0  0
  153.3145  141.7461  160.5787 C   0  0  0  0  0  0  0  0  0  0  0  0
  152.6880  142.5755  161.6862 C   0  0  0  0  0  0  0  0  0  0  0  0
  152.7558  141.5686  159.3659 C   0  0  0  0  0  0  0  0  0  0  0  0
  151.4573  142.1140  158.8879 C   0  0  2  0  0  0  0  0  0  0  0  0
  151.1710  142.3059  157.4084 C   0  0  1  0  0  0  0  0  0  0  0  0
  149.7997  141.9861  156.8973 C   0  0  0  0  0  0  0  0  0  0  0  0
  148.8200  141.8804  157.6354 O   0  0  0  0  0  0  0  0  0  0  0  0
  149.7649  141.8149  155.5635 N   0  0  0  0  0  0  0  0  0  0  0  0
  148.6544  141.5032  154.7368 C   0  0  0  0  0  0  0  0  0  0  0  0
  147.5575  142.3663  154.4380 C   0  0  0  0  0  0  0  0  0  0  0  0
  146.7747  141.6051  153.6180 C   0  0  0  0  0  0  0  0  0  0  0  0
  147.3980  140.3830  153.4637 N   0  0  0  0  0  0  0  0  0  0  0  0
  146.9596  139.2402  152.6826 C   0  0  0  0  0  0  0  0  0  0  0  0
  146.5334  138.0833  153.5879 C   0  0  0  0  0  0  0  0  0  0  0  0
  147.1796  136.9236  153.4412 N   0  0  0  0  0  0  0  0  0  0  0  0
  145.6323  138.2338  154.4099 O   0  0  0  0  0  0  0  0  0  0  0  0
  148.5569  140.3195  154.1562 N   0  0  0  0  0  0  0  0  0  0  0  0
  151.3701  143.5177  158.3132 C   0  0  0  0  0  0  0  0  0  0  0  0
  150.2255  144.4226  158.7551 C   0  0  0  0  0  0  0  0  0  0  0  0
  152.6186  144.3592  158.0937 C   0  0  0  0  0  0  0  0  0  0  0  0
  155.3723  141.8847  161.1950 H   0  0  0  0  0  0  0  0  0  0  0  0
  155.0477  140.5257  160.1157 H   0  0  0  0  0  0  0  0  0  0  0  0
  154.5265  140.4552  161.8011 H   0  0  0  0  0  0  0  0  0  0  0  0
  152.4306  141.9385  162.5326 H   0  0  0  0  0  0  0  0  0  0  0  0
  151.7854  143.0929  161.3644 H   0  0  0  0  0  0  0  0  0  0  0  0
  153.3937  143.3316  162.0312 H   0  0  0  0  0  0  0  0  0  0  0  0
  153.2902  140.9725  158.6407 H   0  0  0  0  0  0  0  0  0  0  0  0
  150.6391  141.8106  159.5388 H   0  0  0  0  0  0  0  0  0  0  0  0
  151.9862  142.0923  156.7177 H   0  0  0  0  0  0  0  0  0  0  0  0
  150.6435  141.9269  155.0788 H   0  0  0  0  0  0  0  0  0  0  0  0
  147.3598  143.3769  154.7608 H   0  0  0  0  0  0  0  0  0  0  0  0
  145.8359  141.8299  153.1337 H   0  0  0  0  0  0  0  0  0  0  0  0
  146.1268  139.5347  152.0416 H   0  0  0  0  0  0  0  0  0  0  0  0
  147.7737  138.9295  152.0265 H   0  0  0  0  0  0  0  0  0  0  0  0
  146.9324  136.1302  154.0143 H   0  0  0  0  0  0  0  0  0  0  0  0
  147.9143  136.8447  152.7528 H   0  0  0  0  0  0  0  0  0  0  0  0
  149.8904  145.0421  157.9228 H   0  0  0  0  0  0  0  0  0  0  0  0
  150.5497  145.0774  159.5643 H   0  0  0  0  0  0  0  0  0  0  0  0
  149.3765  143.8486  159.1242 H   0  0  0  0  0  0  0  0  0  0  0  0
  152.4231  145.1421  157.3604 H   0  0  0  0  0  0  0  0  0  0  0  0
  153.4442  143.7499  157.7247 H   0  0  0  0  0  0  0  0  0  0  0  0
  152.9312  144.8270  159.0276 H   0  0  0  0  0  0  0  0  0  0  0  0
  1  2  1  0  0  0  0
  1 22  1  0  0  0  0
  1 23  1  0  0  0  0
  1 24  1  0  0  0  0
  2  3  1  0  0  0  0
  2  4  2  0  0  0  0
  3 25  1  0  0  0  0
  3 26  1  0  0  0  0
  3 27  1  0  0  0  0
  4  5  1  0  0  0  0
  4 28  1  0  0  0  0
  5 19  1  0  0  0  0
  5  6  1  0  0  0  0
  5 29  1  0  0  0  0
  6  7  1  0  0  0  0
  6 19  1  0  0  0  0
  6 30  1  0  0  0  0
  7  8  2  0  0  0  0
  7  9  1  0  0  0  0
  9 10  1  0  0  0  0
  9 31  1  0  0  0  0
 10 18  2  0  0  0  0
 10 11  1  0  0  0  0
 11 12  2  0  0  0  0
 11 32  1  0  0  0  0
 12 13  1  0  0  0  0
 12 33  1  0  0  0  0
 13 14  1  0  0  0  0
 13 18  1  0  0  0  0
 14 15  1  0  0  0  0
 14 34  1  0  0  0  0
 14 35  1  0  0  0  0
 15 16  1  0  0  0  0
 15 17  2  0  0  0  0
 16 36  1  0  0  0  0
 16 37  1  0  0  0  0
 19 20  1  0  0  0  0
 19 21  1  0  0  0  0
 20 38  1  0  0  0  0
 20 39  1  0  0  0  0
 20 40  1  0  0  0  0
 21 41  1  0  0  0  0
 21 42  1  0  0  0  0
 21 43  1  0  0  0  0
M  END
> <s_m_source_file>
AV-unprocessed.smi

> <i_m_source_file_index>
901

> <i_lp_mmshare_version>
43012

> <i_f3d_flags>
0

> <s_epik_input>
W0NIM11DKFtDSDNdKT1bQ0hdW0NAQEhdKEMxKFtDSDNdKVtDSDNdKVtDQEhdMUMoPU8pW05IXWMyW2NIXVtjSF1uKG4yKVtDSDJdQyg9TylbTkgyXQ==

> <s_epik_cmdline>
J2VwaWtfcHl0aG9uJywgJy1waCcsICc3LjAnLCAnLXRuJywgJzgnLCAnLW1hJywgJzIwMCcsICctbWV0YWxfYmluZGluZycsICctaW1hZScsICc8aW5maWxlLm1hZT4nLCAnLW9tYWUnLCAnPG91dGZpbGUubWFlPic=

> <r_lp_tautomer_probability>
1

> <r_epik_Ionization_Penalty>
1.01454e-05

> <r_epik_Ionization_Penalty_Charging>
0

> <r_epik_Ionization_Penalty_Neutral>
1.01454e-05

> <r_epik_State_Penalty>
-0

> <r_epik_Charging_Adjusted_Penalty>
0

> <i_epik_Tot_Q>
0

> <i_epik_Tot_abs_Q>
0

> <r_epik_Metal_State_Penalty>
-0

> <b_epik_Metal_Only>
0

> <s_lp_Force_Field>
OPLS_2005

> <r_lp_Energy>
20.5353

> <b_lp_Chiralities_Consistent>
1

> <s_lp_Variant>
AV-unprocessed.smi:901-1

> <Gold.Version>
5.8.1

> <Gold.Id.Protein>
6NUR|6NUR_protein|mol2

> <Gold.PLP.Fitness>
44.4962

> <Gold.PLP.PLP>
-42.4128

> <Gold.PLP.part.hbond>
-1.4825

> <Gold.PLP.part.metal>
0.0000

> <Gold.PLP.part.buried>
-1.8806

> <Gold.PLP.part.nonpolar>
-39.4650

> <Gold.PLP.part.repulsive>
0.4675

> <Gold.PLP.ligand.clash>
0.0000

> <Gold.PLP.ligand.torsion>
1.3967

> <Gold.PLP.Chemscore.Hbond>
1.0000

> <Gold.PLP.Chemscore.CHOScore>
0.5515

> <Gold.PLP.Chemscore.Metal>
0.0000

> <Gold.Chemscore.Hbonds>
donor molecule, donor type, donor heavy atom, donor atom, acceptor molecule, acceptor atom, score
      L1  H    16    37       P1  7948  0.91
      L1  C    12    33       P1 10175  0.32

> <Gold.PLP.Chemscore.Internal.Correction>
0.2224

> <Gold.Rescore>
     Score         DG    S(hbond)    S(metal)    S(lipo)     H(rot)  DE(clash)    DE(int)     intcor
     14.90     -16.61       1.00        0.00     113.22       2.13       0.43       1.27       ----

> <Gold.Chemscore.Fitness>
14.9022

> <Gold.Chemscore.DG>
-16.6080

> <Gold.Chemscore.ZeroCoef>
-5.4800

> <Gold.Chemscore.Hbond>
0.9988

> <Gold.Chemscore.Metal>
0.0000

> <Gold.Chemscore.Lipo>
113.2226

> <Gold.Chemscore.Internal_Hbond>
0.0000

> <Gold.Chemscore.DEClash>
0.4344

> <Gold.Chemscore.DEInternal>
1.2713

> <Gold.Chemscore.Rot>
2.1309

> <Gold.Chemscore.Internal.Correction>
   9.000000E+99

> <Gold.Chemscore.Hbonds>
donor molecule, donor type, donor heavy atom, donor atom, acceptor molecule, acceptor atom, score
      L1  H    16    37       P1  7948  0.88

> <Gold.Chemscore.Hbond.Weighted>
-3.3361

> <Gold.Chemscore.Metal.Weighted>
-0.0000

> <Gold.Chemscore.Lipo.Weighted>
-13.2470

> <Gold.Chemscore.Internal_Hbond.Weighted>
0.0000

> <Gold.Chemscore.DEClash.Weighted>
0.4344

> <Gold.Chemscore.DEInternal.Weighted>
1.2713

> <Gold.Chemscore.Rot.Weighted>
5.4552

> <Gold.Chemscore.Internal.Correction.Weighted>
   9.000000E+99

> <Gold.Protein.RotatedTorsions>
[ 6907 6896 6895 6894 ] final   -9.13 input  -60.11 | X-H torsion
[ 7974 7965 7964 7962 ] final  161.69 input  175.53 | X-H torsion
[ 8008 7997 7996 7995 ] final  -43.27 input   59.86 | X-H torsion
[ 10167 10162 10161 10158 ] final  136.24 input  -65.29 | X-H torsion
[ 10718 10713 10712 10709 ] final -105.95 input   66.30 | X-H torsion
[ 10763 10752 10751 10750 ] final -154.38 input  -60.55 | X-H torsion
[ 11005 11000 10999 10996 ] final   36.97 input  -57.11 | X-H torsion

> <Gold.Protein.ActiveResidues>
 VAL166  LYS551  ARG553  GLY616  TRP617  ASP618  TYR619  PRO620  LYS621  CYS622 
 ASP623  PHE694  ASN695  SER759  ASP760  ASP761  ALA762  ILE779  LEU786  VAL792 
 PHE793  MET794  SER795  GLU796  ALA797  LYS798  CYS799  TRP800  GLU811  SER814 

> <Gold.Protein.RotatedAtoms>
  151.4227  135.1000  159.9618 H   0  0  0  0  0  0  0  0  0  0  0  0  # atno 6907 bound_to 6896
  152.4983  133.8692  159.7300 H   0  0  0  0  0  0  0  0  0  0  0  0  # atno 6908 bound_to 6896
  150.9212  133.6821  159.2859 H   0  0  0  0  0  0  0  0  0  0  0  0  # atno 6909 bound_to 6896
  144.7673  139.7933  143.6310 H   0  0  0  0  0  0  0  0  0  0  0  0  # atno 7974 bound_to 7965
  154.3997  140.1452  156.3492 H   0  0  0  0  0  0  0  0  0  0  0  0  # atno 8008 bound_to 7997
  155.8285  140.3466  155.5536 H   0  0  0  0  0  0  0  0  0  0  0  0  # atno 8009 bound_to 7997
  155.8213  140.0898  157.1838 H   0  0  0  0  0  0  0  0  0  0  0  0  # atno 8010 bound_to 7997
  139.5187  144.6475  151.5398 H   0  0  0  0  0  0  0  0  0  0  0  0  # atno 10167 bound_to 10162
  156.0368  130.5588  150.7611 H   0  0  0  0  0  0  0  0  0  0  0  0  # atno 10718 bound_to 10713
  154.7862  135.3191  154.7880 H   0  0  0  0  0  0  0  0  0  0  0  0  # atno 10763 bound_to 10752
  153.8579  135.6856  153.4790 H   0  0  0  0  0  0  0  0  0  0  0  0  # atno 10764 bound_to 10752
  153.1515  135.4697  154.9582 H   0  0  0  0  0  0  0  0  0  0  0  0  # atno 10765 bound_to 10752
  140.2272  134.3570  155.7979 H   0  0  0  0  0  0  0  0  0  0  0  0  # atno 11005 bound_to 11000
  146.1792  139.4976  142.9878 LP  0  0  0  0  0  0  0  0  0  0  0  0  # atno 17320 bound_to 7965
  145.6430  141.0280  143.1801 LP  0  0  0  0  0  0  0  0  0  0  0  0  # atno 17321 bound_to 7965
  140.6266  143.9157  150.6569 LP  0  0  0  0  0  0  0  0  0  0  0  0  # atno 17342 bound_to 10162
  140.2448  143.3637  152.1456 LP  0  0  0  0  0  0  0  0  0  0  0  0  # atno 17343 bound_to 10162
  157.5130  131.0927  151.0174 LP  0  0  0  0  0  0  0  0  0  0  0  0  # atno 17370 bound_to 10713
  157.0525  130.5793  149.5372 LP  0  0  0  0  0  0  0  0  0  0  0  0  # atno 17371 bound_to 10713
  141.2220  133.7226  156.8673 LP  0  0  0  0  0  0  0  0  0  0  0  0  # atno 17394 bound_to 11000
  140.1787  134.9048  157.2923 LP  0  0  0  0  0  0  0  0  0  0  0  0  # atno 17395 bound_to 11000

$$$$
