AV-unprocessed.smi:271|AV-procd|sdf|2052|dock9
  -GOLD-   2262021293D 1   1.00000     0.00000
 Structure written by MMmdl.
 58 60  0  0  0  0  0  0  0  0  1 V2000
  151.2091  143.6700  159.8906 C   0  0  0  0  0  0  0  0  0  0  0  0
  152.1281  143.2952  158.7156 C   0  0  0  0  0  0  0  0  0  0  0  0
  152.8545  144.5409  158.1855 C   0  0  0  0  0  0  0  0  0  0  0  0
  151.3655  142.5848  157.5799 C   0  0  0  0  0  0  0  0  0  0  0  0
  150.6762  141.2774  158.0190 C   0  0  0  0  0  0  0  0  0  0  0  0
  150.0793  140.5416  156.9049 N   0  0  0  0  0  0  0  0  0  0  0  0
  150.9846  140.1002  155.8425 C   0  0  0  0  0  0  0  0  0  0  0  0
  151.5451  138.6898  156.0828 C   0  0  0  0  0  0  0  0  0  0  0  0
  152.7529  138.7042  156.9208 C   0  0  0  0  0  0  0  0  0  0  0  0
  153.7034  138.7149  157.5804 N   0  0  0  0  0  0  0  0  0  0  0  0
  149.0530  139.7234  157.2578 C   0  0  0  0  0  0  0  0  0  0  0  0
  147.7933  139.9911  156.8202 N   0  0  0  0  0  0  0  0  0  0  0  0
  146.7793  139.1834  157.1432 C   0  0  0  0  0  0  0  0  0  0  0  0
  146.8012  138.0714  157.8797 N   0  0  0  0  0  0  0  0  0  0  0  0
  148.0611  137.7954  158.3217 C   0  0  0  0  0  0  0  0  0  0  0  0
  149.2329  138.5608  158.0601 C   0  0  0  0  0  0  0  0  0  0  0  0
  150.3278  137.9753  158.6854 N   0  0  0  0  0  0  0  0  0  0  0  0
  149.8339  136.9202  159.2737 C   0  0  0  0  0  0  0  0  0  0  0  0
  148.4817  136.7322  159.1014 N   0  0  0  0  0  0  0  0  0  0  0  0
  147.6832  135.6476  159.6467 C   0  0  0  0  0  0  0  0  0  0  0  0
  147.9960  135.3427  161.1324 C   0  0  1  0  0  0  0  0  0  0  0  0
  147.7098  136.5840  162.0105 C   0  0  0  0  0  0  0  0  0  0  0  0
  146.5373  137.2414  161.5764 O   0  0  0  0  0  0  0  0  0  0  0  0
  147.2933  134.0514  161.6384 C   0  0  1  0  0  0  0  0  0  0  0  0
  145.7907  134.1795  161.8972 C   0  0  0  0  0  0  0  0  0  0  0  0
  145.1781  132.9959  161.1487 C   0  0  0  0  0  0  0  0  0  0  0  0
  146.2460  132.0699  161.0366 O   0  0  0  0  0  0  0  0  0  0  0  0
  147.4034  132.8256  160.7214 C   0  0  0  0  0  0  0  0  0  0  0  0
  150.4043  144.3314  159.5685 H   0  0  0  0  0  0  0  0  0  0  0  0
  151.7662  144.1843  160.6742 H   0  0  0  0  0  0  0  0  0  0  0  0
  150.7558  142.7899  160.3458 H   0  0  0  0  0  0  0  0  0  0  0  0
  152.8913  142.6118  159.0901 H   0  0  0  0  0  0  0  0  0  0  0  0
  152.1504  145.2659  157.7758 H   0  0  0  0  0  0  0  0  0  0  0  0
  153.5598  144.2792  157.3964 H   0  0  0  0  0  0  0  0  0  0  0  0
  153.4192  145.0352  158.9767 H   0  0  0  0  0  0  0  0  0  0  0  0
  150.6334  143.2695  157.1501 H   0  0  0  0  0  0  0  0  0  0  0  0
  152.0688  142.3545  156.7788 H   0  0  0  0  0  0  0  0  0  0  0  0
  151.3864  140.6483  158.5540 H   0  0  0  0  0  0  0  0  0  0  0  0
  149.8832  141.4962  158.7336 H   0  0  0  0  0  0  0  0  0  0  0  0
  150.4430  140.1069  154.8960 H   0  0  0  0  0  0  0  0  0  0  0  0
  151.8009  140.8148  155.7287 H   0  0  0  0  0  0  0  0  0  0  0  0
  150.8157  138.0458  156.5729 H   0  0  0  0  0  0  0  0  0  0  0  0
  151.8053  138.2193  155.1345 H   0  0  0  0  0  0  0  0  0  0  0  0
  145.8127  139.4680  156.7544 H   0  0  0  0  0  0  0  0  0  0  0  0
  150.4464  136.2429  159.8512 H   0  0  0  0  0  0  0  0  0  0  0  0
  146.6345  135.9209  159.5263 H   0  0  0  0  0  0  0  0  0  0  0  0
  147.8380  134.7558  159.0386 H   0  0  0  0  0  0  0  0  0  0  0  0
  149.0670  135.1447  161.2013 H   0  0  0  0  0  0  0  0  0  0  0  0
  147.5862  136.3064  163.0574 H   0  0  0  0  0  0  0  0  0  0  0  0
  148.5255  137.3043  161.9677 H   0  0  0  0  0  0  0  0  0  0  0  0
  145.9438  137.3130  162.3085 H   0  0  0  0  0  0  0  0  0  0  0  0
  147.7280  133.7699  162.5980 H   0  0  0  0  0  0  0  0  0  0  0  0
  145.5929  134.0917  162.9663 H   0  0  0  0  0  0  0  0  0  0  0  0
  145.3618  135.1267  161.5711 H   0  0  0  0  0  0  0  0  0  0  0  0
  144.3230  132.5641  161.6692 H   0  0  0  0  0  0  0  0  0  0  0  0
  144.8549  133.2962  160.1506 H   0  0  0  0  0  0  0  0  0  0  0  0
  147.3698  133.0908  159.6648 H   0  0  0  0  0  0  0  0  0  0  0  0
  148.3122  132.2504  160.8966 H   0  0  0  0  0  0  0  0  0  0  0  0
  1  2  1  0  0  0  0
  1 29  1  0  0  0  0
  1 30  1  0  0  0  0
  1 31  1  0  0  0  0
  2  3  1  0  0  0  0
  2  4  1  0  0  0  0
  2 32  1  0  0  0  0
  3 33  1  0  0  0  0
  3 34  1  0  0  0  0
  3 35  1  0  0  0  0
  4  5  1  0  0  0  0
  4 36  1  0  0  0  0
  4 37  1  0  0  0  0
  5  6  1  0  0  0  0
  5 38  1  0  0  0  0
  5 39  1  0  0  0  0
  6  7  1  0  0  0  0
  6 11  1  0  0  0  0
  7  8  1  0  0  0  0
  7 40  1  0  0  0  0
  7 41  1  0  0  0  0
  8  9  1  0  0  0  0
  8 42  1  0  0  0  0
  8 43  1  0  0  0  0
  9 10  3  0  0  0  0
 11 16  1  0  0  0  0
 11 12  2  0  0  0  0
 12 13  1  0  0  0  0
 13 14  2  0  0  0  0
 13 44  1  0  0  0  0
 14 15  1  0  0  0  0
 15 19  1  0  0  0  0
 15 16  2  0  0  0  0
 16 17  1  0  0  0  0
 17 18  2  0  0  0  0
 18 19  1  0  0  0  0
 18 45  1  0  0  0  0
 19 20  1  0  0  0  0
 20 21  1  0  0  0  0
 20 46  1  0  0  0  0
 20 47  1  0  0  0  0
 21 22  1  0  0  0  0
 21 24  1  0  0  0  0
 21 48  1  0  0  0  0
 22 23  1  0  0  0  0
 22 49  1  0  0  0  0
 22 50  1  0  0  0  0
 23 51  1  0  0  0  0
 24 28  1  0  0  0  0
 24 25  1  0  0  0  0
 24 52  1  0  0  0  0
 25 26  1  0  0  0  0
 25 53  1  0  0  0  0
 25 54  1  0  0  0  0
 26 27  1  0  0  0  0
 26 55  1  0  0  0  0
 26 56  1  0  0  0  0
 27 28  1  0  0  0  0
 28 57  1  0  0  0  0
 28 58  1  0  0  0  0
M  END
> <s_m_source_file>
AV-unprocessed.smi

> <i_m_source_file_index>
271

> <i_lp_mmshare_version>
43012

> <i_f3d_flags>
0

> <s_epik_input>
W0NIM11bQ0hdKFtDSDNdKVtDSDJdW0NIMl1OKFtDSDJdW0NIMl1DI04pYyhuW2NIXW4xKWMoYzEyKW5bY0hdbjJbQ0gyXVtDQEhdKFtDSDJdW09IXSlbQ0BASF0zW0NIMl1bQ0gyXU9bQ0gyXTM=

> <s_epik_cmdline>
J2VwaWtfcHl0aG9uJywgJy1waCcsICc3LjAnLCAnLXRuJywgJzgnLCAnLW1hJywgJzIwMCcsICctbWV0YWxfYmluZGluZycsICctaW1hZScsICc8aW5maWxlLm1hZT4nLCAnLW9tYWUnLCAnPG91dGZpbGUubWFlPic=

> <r_lp_tautomer_probability>
1

> <r_epik_Ionization_Penalty>
0.000825874

> <r_epik_Ionization_Penalty_Charging>
0

> <r_epik_Ionization_Penalty_Neutral>
0.000825874

> <r_epik_State_Penalty>
0.000396768

> <r_epik_Charging_Adjusted_Penalty>
0.000396768

> <i_epik_Tot_Q>
0

> <i_epik_Tot_abs_Q>
0

> <r_epik_Metal_State_Penalty>
-0

> <b_epik_Metal_Only>
0

> <s_lp_Force_Field>
OPLS_2005

> <r_lp_Energy>
37.4576

> <b_lp_Chiralities_Consistent>
1

> <s_lp_Variant>
AV-unprocessed.smi:271-4

> <Gold.Version>
5.8.1

> <Gold.Id.Protein>
6NUR|6NUR_protein|mol2

> <Gold.PLP.Fitness>
48.4181

> <Gold.PLP.PLP>
-44.2627

> <Gold.PLP.part.hbond>
-2.2562

> <Gold.PLP.part.metal>
0.0000

> <Gold.PLP.part.buried>
-3.1922

> <Gold.PLP.part.nonpolar>
-38.4072

> <Gold.PLP.part.repulsive>
0.0589

> <Gold.PLP.ligand.clash>
0.0000

> <Gold.PLP.ligand.torsion>
1.3977

> <Gold.PLP.Chemscore.Hbond>
1.9280

> <Gold.PLP.Chemscore.CHOScore>
0.0000

> <Gold.PLP.Chemscore.Metal>
0.0000

> <Gold.Chemscore.Hbonds>
donor molecule, donor type, donor heavy atom, donor atom, acceptor molecule, acceptor atom, score
      P1  H  6934  6947       L1    23  1.00
      P1  H  7997  8009       L1    10  1.00

> <Gold.PLP.Chemscore.Internal.Correction>
1.1668

> <Gold.Rescore>
     Score         DG    S(hbond)    S(metal)    S(lipo)     H(rot)  DE(clash)    DE(int)     intcor
     10.58     -12.10       0.89        0.00     113.53       3.77       0.08       1.44       ----

> <Gold.Chemscore.Fitness>
10.5777

> <Gold.Chemscore.DG>
-12.0983

> <Gold.Chemscore.ZeroCoef>
-5.4800

> <Gold.Chemscore.Hbond>
0.8929

> <Gold.Chemscore.Metal>
0.0000

> <Gold.Chemscore.Lipo>
113.5273

> <Gold.Chemscore.Internal_Hbond>
0.0000

> <Gold.Chemscore.DEClash>
0.0799

> <Gold.Chemscore.DEInternal>
1.4407

> <Gold.Chemscore.Rot>
3.7683

> <Gold.Chemscore.Internal.Correction>
   9.000000E+99

> <Gold.Chemscore.Hbonds>
donor molecule, donor type, donor heavy atom, donor atom, acceptor molecule, acceptor atom, score
      P1  H  6934  6947       L1    23  0.39
      P1  H  7997  8009       L1    10  0.75

> <Gold.Chemscore.Hbond.Weighted>
-2.9824

> <Gold.Chemscore.Metal.Weighted>
-0.0000

> <Gold.Chemscore.Lipo.Weighted>
-13.2827

> <Gold.Chemscore.Internal_Hbond.Weighted>
0.0000

> <Gold.Chemscore.DEClash.Weighted>
0.0799

> <Gold.Chemscore.DEInternal.Weighted>
1.4407

> <Gold.Chemscore.Rot.Weighted>
9.6468

> <Gold.Chemscore.Internal.Correction.Weighted>
   9.000000E+99

> <Gold.Protein.RotatedTorsions>
[ 6907 6896 6895 6894 ] final   73.63 input  -60.11 | X-H torsion
[ 7974 7965 7964 7962 ] final    0.69 input  175.53 | X-H torsion
[ 8008 7997 7996 7995 ] final  143.76 input   59.86 | X-H torsion
[ 10167 10162 10161 10158 ] final  -99.66 input  -65.29 | X-H torsion
[ 10718 10713 10712 10709 ] final   51.60 input   66.30 | X-H torsion
[ 10763 10752 10751 10750 ] final  174.25 input  -60.55 | X-H torsion
[ 11005 11000 10999 10996 ] final  -98.64 input  -57.11 | X-H torsion

> <Gold.Protein.ActiveResidues>
 VAL166  LYS551  ARG553  GLY616  TRP617  ASP618  TYR619  PRO620  LYS621  CYS622 
 ASP623  PHE694  ASN695  SER759  ASP760  ASP761  ALA762  ILE779  LEU786  VAL792 
 PHE793  MET794  SER795  GLU796  ALA797  LYS798  CYS799  TRP800  GLU811  SER814 

> <Gold.Protein.RotatedAtoms>
  152.4933  134.4393  159.9538 H   0  0  0  0  0  0  0  0  0  0  0  0  # atno 6907 bound_to 6896
  151.4376  133.3646  159.2785 H   0  0  0  0  0  0  0  0  0  0  0  0  # atno 6908 bound_to 6896
  150.9110  134.8550  159.7485 H   0  0  0  0  0  0  0  0  0  0  0  0  # atno 6909 bound_to 6896
  146.2436  140.1100  142.8344 H   0  0  0  0  0  0  0  0  0  0  0  0  # atno 7974 bound_to 7965
  156.2923  140.2254  156.4943 H   0  0  0  0  0  0  0  0  0  0  0  0  # atno 8008 bound_to 7997
  154.7744  140.0464  157.1099 H   0  0  0  0  0  0  0  0  0  0  0  0  # atno 8009 bound_to 7997
  154.9834  140.3081  155.4940 H   0  0  0  0  0  0  0  0  0  0  0  0  # atno 8010 bound_to 7997
  140.2601  143.3413  152.0634 H   0  0  0  0  0  0  0  0  0  0  0  0  # atno 10167 bound_to 10162
  157.4996  130.8429  149.8301 H   0  0  0  0  0  0  0  0  0  0  0  0  # atno 10718 bound_to 10713
  154.4513  135.2765  155.1779 H   0  0  0  0  0  0  0  0  0  0  0  0  # atno 10763 bound_to 10752
  154.3605  135.6130  153.5692 H   0  0  0  0  0  0  0  0  0  0  0  0  # atno 10764 bound_to 10752
  152.9847  135.5833  154.4858 H   0  0  0  0  0  0  0  0  0  0  0  0  # atno 10765 bound_to 10752
  141.1338  133.8260  157.0866 H   0  0  0  0  0  0  0  0  0  0  0  0  # atno 11005 bound_to 11000
  145.0495  140.9007  143.5004 LP  0  0  0  0  0  0  0  0  0  0  0  0  # atno 17320 bound_to 7965
  145.1195  139.2703  143.5596 LP  0  0  0  0  0  0  0  0  0  0  0  0  # atno 17321 bound_to 7965
  139.5019  144.6724  151.6210 LP  0  0  0  0  0  0  0  0  0  0  0  0  # atno 17342 bound_to 10162
  140.5972  143.9674  150.6362 LP  0  0  0  0  0  0  0  0  0  0  0  0  # atno 17343 bound_to 10162
  156.0221  130.3792  150.1930 LP  0  0  0  0  0  0  0  0  0  0  0  0  # atno 17370 bound_to 10713
  157.0120  130.9954  151.3363 LP  0  0  0  0  0  0  0  0  0  0  0  0  # atno 17371 bound_to 10713
  140.0418  134.9850  157.0976 LP  0  0  0  0  0  0  0  0  0  0  0  0  # atno 17394 bound_to 11000
  140.4123  134.1968  155.7163 LP  0  0  0  0  0  0  0  0  0  0  0  0  # atno 17395 bound_to 11000

$$$$
