AV-unprocessed.smi:2079|AV-procd|sdf|8479|dock1
  -GOLD-   2272011183D 1   1.00000     0.00000
 Structure written by MMmdl.
 41 42  0  0  0  0  0  0  0  0  3 V2000
  147.0707  136.1707  163.1157 C   0  0  0  0  0  0  0  0  0  0  0  0
  147.5796  136.0193  161.7231 C   0  0  0  0  0  0  0  0  0  0  0  0
  147.9472  134.9320  160.9826 C   0  0  0  0  0  0  0  0  0  0  0  0
  148.3287  135.5011  159.7370 C   0  0  0  0  0  0  0  0  0  0  0  0
  148.7834  134.8273  158.6692 N   0  5  0  0  0  0  0  0  0  0  0  0
  148.9082  135.4495  157.4747 C   0  0  0  0  0  0  0  0  0  0  0  0
  149.2322  136.6250  157.2898 O   0  0  0  0  0  0  0  0  0  0  0  0
  148.6396  134.6608  156.4260 N   0  0  0  0  0  0  0  0  0  0  0  0
  148.7047  135.0750  155.0315 C   0  0  0  0  0  0  0  0  0  0  0  0
  147.7923  134.1906  154.1647 C   0  0  0  0  0  0  0  0  0  0  0  0
  147.0023  134.9837  153.1801 N   0  3  2  0  0  0  0  0  0  0  0  0
  146.3860  136.1805  153.8231 C   0  0  0  0  0  0  0  0  0  0  0  0
  145.6939  137.0923  152.8014 C   0  0  0  0  0  0  0  0  0  0  0  0
  144.6227  136.3163  152.0358 C   0  0  0  0  0  0  0  0  0  0  0  0
  145.2598  135.0884  151.3807 C   0  0  0  0  0  0  0  0  0  0  0  0
  145.9922  134.1903  152.4042 C   0  0  1  0  0  0  0  0  0  0  0  0
  146.6072  132.9956  151.6439 C   0  0  0  0  0  0  0  0  0  0  0  0
  148.2195  136.8191  159.7285 N   0  0  0  0  0  0  0  0  0  0  0  0
  147.7332  137.1591  160.9965 O   0  0  0  0  0  0  0  0  0  0  0  0
  147.8924  136.1400  163.8312 H   0  0  0  0  0  0  0  0  0  0  0  0
  146.3765  135.3675  163.3624 H   0  0  0  0  0  0  0  0  0  0  0  0
  146.5474  137.1187  163.2411 H   0  0  0  0  0  0  0  0  0  0  0  0
  147.9408  133.8946  161.2821 H   0  0  0  0  0  0  0  0  0  0  0  0
  148.3775  133.7045  156.6165 H   0  0  0  0  0  0  0  0  0  0  0  0
  148.4179  136.1246  154.9740 H   0  0  0  0  0  0  0  0  0  0  0  0
  149.7364  135.0009  154.6835 H   0  0  0  0  0  0  0  0  0  0  0  0
  148.4440  133.4771  153.6676 H   0  0  0  0  0  0  0  0  0  0  0  0
  147.1194  133.5996  154.7881 H   0  0  0  0  0  0  0  0  0  0  0  0
  145.6669  135.8566  154.5772 H   0  0  0  0  0  0  0  0  0  0  0  0
  147.1379  136.7694  154.3456 H   0  0  0  0  0  0  0  0  0  0  0  0
  145.2435  137.9462  153.3086 H   0  0  0  0  0  0  0  0  0  0  0  0
  146.4312  137.4962  152.1061 H   0  0  0  0  0  0  0  0  0  0  0  0
  143.8271  136.0074  152.7149 H   0  0  0  0  0  0  0  0  0  0  0  0
  144.1622  136.9526  151.2795 H   0  0  0  0  0  0  0  0  0  0  0  0
  144.4859  134.5170  150.8664 H   0  0  0  0  0  0  0  0  0  0  0  0
  145.9608  135.4149  150.6107 H   0  0  0  0  0  0  0  0  0  0  0  0
  145.2545  133.8026  153.1089 H   0  0  0  0  0  0  0  0  0  0  0  0
  145.8865  132.5656  150.9475 H   0  0  0  0  0  0  0  0  0  0  0  0
  146.8996  132.1815  152.3056 H   0  0  0  0  0  0  0  0  0  0  0  0
  147.4801  133.2979  151.0642 H   0  0  0  0  0  0  0  0  0  0  0  0
  147.6657  135.3258  152.4996 H   0  0  0  0  0  0  0  0  0  0  0  0
  1  2  1  0  0  0  0
  1 20  1  0  0  0  0
  1 21  1  0  0  0  0
  1 22  1  0  0  0  0
  2 19  1  0  0  0  0
  2  3  2  0  0  0  0
  3  4  1  0  0  0  0
  3 23  1  0  0  0  0
  4  5  1  0  0  0  0
  4 18  2  0  0  0  0
  5  6  1  0  0  0  0
  6  7  2  0  0  0  0
  6  8  1  0  0  0  0
  8  9  1  0  0  0  0
  8 24  1  0  0  0  0
  9 10  1  0  0  0  0
  9 25  1  0  0  0  0
  9 26  1  0  0  0  0
 10 11  1  0  0  0  0
 10 27  1  0  0  0  0
 10 28  1  0  0  0  0
 11 16  1  0  0  0  0
 11 12  1  0  0  0  0
 11 41  1  0  0  0  0
 12 13  1  0  0  0  0
 12 29  1  0  0  0  0
 12 30  1  0  0  0  0
 13 14  1  0  0  0  0
 13 31  1  0  0  0  0
 13 32  1  0  0  0  0
 14 15  1  0  0  0  0
 14 33  1  0  0  0  0
 14 34  1  0  0  0  0
 15 16  1  0  0  0  0
 15 35  1  0  0  0  0
 15 36  1  0  0  0  0
 16 17  1  0  0  0  0
 16 37  1  0  0  0  0
 17 38  1  0  0  0  0
 17 39  1  0  0  0  0
 17 40  1  0  0  0  0
 18 19  1  0  0  0  0
M  CHG  1   5  -1
M  CHG  1  11   1
M  END
> <s_m_source_file>
AV-unprocessed.smi

> <i_m_source_file_index>
2079

> <i_lp_mmshare_version>
43012

> <i_f3d_flags>
0

> <s_epik_input>
W0NIM11jMVtjSF1jKG5vMSlbTkhdQyg9TylbTkhdW0NIMl1bQ0gyXU4yW0NIMl1bQ0gyXVtDSDJdW0NIMl1bQ0BIXTJbQ0gzXQ==

> <s_epik_cmdline>
J2VwaWtfcHl0aG9uJywgJy1waCcsICc3LjAnLCAnLXRuJywgJzgnLCAnLW1hJywgJzIwMCcsICctbWV0YWxfYmluZGluZycsICctaW1hZScsICc8aW5maWxlLm1hZT4nLCAnLW9tYWUnLCAnPG91dGZpbGUubWFlPic=

> <r_epik_Ionization_Penalty>
6.22371

> <r_epik_Ionization_Penalty_Charging>
6.22362

> <r_epik_Ionization_Penalty_Neutral>
9.40454e-05

> <r_epik_State_Penalty>
6.22363

> <r_epik_Charging_Adjusted_Penalty>
12.4472

> <i_epik_Tot_Q>
0

> <i_epik_Tot_abs_Q>
2

> <r_epik_Metal_State_Penalty>
2.16675

> <b_epik_Metal_Only>
1

> <s_lp_Force_Field>
OPLS_2005

> <r_lp_Energy>
9.22117

> <b_lp_Chiralities_Consistent>
1

> <s_lp_Variant>
AV-unprocessed.smi:2079-5

> <Gold.Version>
5.8.1

> <Gold.Id.Protein>
6NUR|6NUR_protein|mol2

> <Gold.PLP.Fitness>
41.7115

> <Gold.PLP.PLP>
-25.9044

> <Gold.PLP.part.hbond>
-4.0000

> <Gold.PLP.part.metal>
0.0000

> <Gold.PLP.part.buried>
-1.9989

> <Gold.PLP.part.nonpolar>
-19.4624

> <Gold.PLP.part.repulsive>
0.0245

> <Gold.PLP.ligand.clash>
0.0000

> <Gold.PLP.ligand.torsion>
0.8158

> <Gold.PLP.Chemscore.Hbond>
5.7760

> <Gold.PLP.Chemscore.CHOScore>
0.0000

> <Gold.PLP.Chemscore.Metal>
0.0000

> <Gold.Chemscore.Hbonds>
donor molecule, donor type, donor heavy atom, donor atom, acceptor molecule, acceptor atom, score
      L1  H    11    41       P1  7948  2.00
      P1  H  6896  6907       L1     5  1.67
      P1  H  6931  6943       L1    19  0.91
      P1  H  6934  6947       L1    19  0.88

> <Gold.PLP.Chemscore.Internal.Correction>
0.1106

> <Gold.Rescore>
     Score         DG    S(hbond)    S(metal)    S(lipo)     H(rot)  DE(clash)    DE(int)     intcor
     14.02     -16.54       2.40        0.00      59.63       1.54       0.08       2.44       ----

> <Gold.Chemscore.Fitness>
14.0170

> <Gold.Chemscore.DG>
-16.5400

> <Gold.Chemscore.ZeroCoef>
-5.4800

> <Gold.Chemscore.Hbond>
2.4037

> <Gold.Chemscore.Metal>
0.0000

> <Gold.Chemscore.Lipo>
59.6273

> <Gold.Chemscore.Internal_Hbond>
0.0000

> <Gold.Chemscore.DEClash>
0.0849

> <Gold.Chemscore.DEInternal>
2.4381

> <Gold.Chemscore.Rot>
1.5409

> <Gold.Chemscore.Internal.Correction>
   9.000000E+99

> <Gold.Chemscore.Hbonds>
donor molecule, donor type, donor heavy atom, donor atom, acceptor molecule, acceptor atom, score
      L1  H    11    41       P1  7948  0.99
      P1  H  6896  6907       L1     5  0.14
      P1  H  6931  6943       L1    19  0.41
      P1  H  6934  6947       L1    19  0.52

> <Gold.Chemscore.Hbond.Weighted>
-8.0283

> <Gold.Chemscore.Metal.Weighted>
-0.0000

> <Gold.Chemscore.Lipo.Weighted>
-6.9764

> <Gold.Chemscore.Internal_Hbond.Weighted>
0.0000

> <Gold.Chemscore.DEClash.Weighted>
0.0849

> <Gold.Chemscore.DEInternal.Weighted>
2.4381

> <Gold.Chemscore.Rot.Weighted>
3.9446

> <Gold.Chemscore.Internal.Correction.Weighted>
   9.000000E+99

> <Gold.Protein.RotatedTorsions>
[ 6907 6896 6895 6894 ] final  -92.88 input  -60.11 | X-H torsion
[ 7974 7965 7964 7962 ] final    4.52 input  175.53 | X-H torsion
[ 8008 7997 7996 7995 ] final  -36.87 input   59.86 | X-H torsion
[ 10167 10162 10161 10158 ] final  106.69 input  -65.29 | X-H torsion
[ 10718 10713 10712 10709 ] final  115.44 input   66.30 | X-H torsion
[ 10763 10752 10751 10750 ] final   94.39 input  -60.55 | X-H torsion
[ 11005 11000 10999 10996 ] final  -23.62 input  -57.11 | X-H torsion

> <Gold.Protein.ActiveResidues>
 VAL166  LYS551  ARG553  GLY616  TRP617  ASP618  TYR619  PRO620  LYS621  CYS622 
 ASP623  PHE694  ASN695  SER759  ASP760  ASP761  ALA762  ILE779  LEU786  VAL792 
 PHE793  MET794  SER795  GLU796  ALA797  LYS798  CYS799  TRP800  GLU811  SER814 

> <Gold.Protein.RotatedAtoms>
  150.6913  134.2053  159.4337 H   0  0  0  0  0  0  0  0  0  0  0  0  # atno 6907 bound_to 6896
  152.0017  134.9922  160.0574 H   0  0  0  0  0  0  0  0  0  0  0  0  # atno 6908 bound_to 6896
  152.1572  133.4524  159.4879 H   0  0  0  0  0  0  0  0  0  0  0  0  # atno 6909 bound_to 6896
  146.2443  140.0522  142.8374 H   0  0  0  0  0  0  0  0  0  0  0  0  # atno 7974 bound_to 7965
  154.4064  140.1619  156.2445 H   0  0  0  0  0  0  0  0  0  0  0  0  # atno 8008 bound_to 7997
  155.9172  140.3423  155.6122 H   0  0  0  0  0  0  0  0  0  0  0  0  # atno 8009 bound_to 7997
  155.7265  140.0775  157.2298 H   0  0  0  0  0  0  0  0  0  0  0  0  # atno 8010 bound_to 7997
  139.6988  144.7097  151.1221 H   0  0  0  0  0  0  0  0  0  0  0  0  # atno 10167 bound_to 10162
  157.6222  131.1012  150.7330 H   0  0  0  0  0  0  0  0  0  0  0  0  # atno 10718 bound_to 10713
  153.2411  135.4291  155.0698 H   0  0  0  0  0  0  0  0  0  0  0  0  # atno 10763 bound_to 10752
  154.8341  135.3403  154.6648 H   0  0  0  0  0  0  0  0  0  0  0  0  # atno 10764 bound_to 10752
  153.7072  135.7025  153.5103 H   0  0  0  0  0  0  0  0  0  0  0  0  # atno 10765 bound_to 10752
  140.8768  133.7681  156.0253 H   0  0  0  0  0  0  0  0  0  0  0  0  # atno 11005 bound_to 11000
  145.0974  140.9324  143.4733 LP  0  0  0  0  0  0  0  0  0  0  0  0  # atno 17320 bound_to 7965
  145.0708  139.3033  143.5833 LP  0  0  0  0  0  0  0  0  0  0  0  0  # atno 17321 bound_to 7965
  140.7704  143.5453  150.9265 LP  0  0  0  0  0  0  0  0  0  0  0  0  # atno 17342 bound_to 10162
  139.9134  143.6692  152.3111 LP  0  0  0  0  0  0  0  0  0  0  0  0  # atno 17343 bound_to 10162
  156.7685  130.4821  149.5423 LP  0  0  0  0  0  0  0  0  0  0  0  0  # atno 17370 bound_to 10713
  156.1373  130.6220  151.0418 LP  0  0  0  0  0  0  0  0  0  0  0  0  # atno 17371 bound_to 10713
  140.8508  134.2956  157.5276 LP  0  0  0  0  0  0  0  0  0  0  0  0  # atno 17394 bound_to 11000
  139.8716  134.9467  156.3945 LP  0  0  0  0  0  0  0  0  0  0  0  0  # atno 17395 bound_to 11000

$$$$
