AV-unprocessed.smi:1830|AV-procd|sdf|7450|dock8
  -GOLD-   22720 9143D 1   1.00000     0.00000
 Structure written by MMmdl.
 54 57  0  0  0  0  0  0  0  0  3 V2000
  149.1424  133.8262  155.7223 O   0  0  0  0  0  0  0  0  0  0  0  0
  149.0743  134.4956  154.6918 C   0  0  0  0  0  0  0  0  0  0  0  0
  149.4817  135.7697  154.6100 N   0  0  0  0  0  0  0  0  0  0  0  0
  150.0509  136.5353  155.7144 C   0  0  0  0  0  0  0  0  0  0  0  0
  151.3326  137.2900  155.2950 C   0  0  2  0  0  0  0  0  0  0  0  0
  151.9716  138.0871  156.4583 C   0  0  0  0  0  0  0  0  0  0  0  0
  151.1739  139.3018  156.7082 N   0  3  1  0  0  0  0  0  0  0  0  0
  151.6087  140.2091  157.7841 C   0  0  0  0  0  0  0  0  0  0  0  0
  151.0130  141.5808  157.4095 C   0  0  0  0  0  0  0  0  0  0  0  0
  150.3990  141.4019  156.0094 C   0  0  0  0  0  0  0  0  0  0  0  0
  151.0606  140.1243  155.5019 C   0  0  2  0  0  0  0  0  0  0  0  0
  150.3376  139.3222  154.4138 C   0  0  0  0  0  0  0  0  0  0  0  0
  151.0986  138.1382  154.1593 O   0  0  0  0  0  0  0  0  0  0  0  0
  148.5744  134.0648  153.5216 N   0  0  0  0  0  0  0  0  0  0  0  0
  148.0062  132.7922  153.2294 C   0  0  0  0  0  0  0  0  0  0  0  0
  148.5273  131.6050  153.8057 C   0  0  0  0  0  0  0  0  0  0  0  0
  147.9310  130.3632  153.5182 C   0  0  0  0  0  0  0  0  0  0  0  0
  146.8236  130.3248  152.6539 C   0  0  0  0  0  0  0  0  0  0  0  0
  146.3643  131.4680  152.1046 N   0  3  0  0  0  0  0  0  0  0  0  0
  146.9047  132.6917  152.3302 C   0  0  0  0  0  0  0  0  0  0  0  0
  146.3249  133.8004  151.6725 N   0  0  0  0  0  0  0  0  0  0  0  0
  145.8578  134.9513  152.4368 C   0  0  0  0  0  0  0  0  0  0  0  0
  145.0069  135.7552  151.4582 C   0  0  0  0  0  0  0  0  0  0  0  0
  144.3538  134.6624  150.6168 C   0  0  0  0  0  0  0  0  0  0  0  0
  145.4212  133.5645  150.5509 C   0  0  0  0  0  0  0  0  0  0  0  0
  149.3889  136.2462  153.7248 H   0  0  0  0  0  0  0  0  0  0  0  0
  149.2903  137.2247  156.0796 H   0  0  0  0  0  0  0  0  0  0  0  0
  150.2680  135.8643  156.5474 H   0  0  0  0  0  0  0  0  0  0  0  0
  152.0635  136.5460  154.9772 H   0  0  0  0  0  0  0  0  0  0  0  0
  152.0286  137.4807  157.3629 H   0  0  0  0  0  0  0  0  0  0  0  0
  152.9928  138.3717  156.1994 H   0  0  0  0  0  0  0  0  0  0  0  0
  151.2671  139.8541  158.7567 H   0  0  0  0  0  0  0  0  0  0  0  0
  152.6981  140.2668  157.8062 H   0  0  0  0  0  0  0  0  0  0  0  0
  150.2577  141.9022  158.1274 H   0  0  0  0  0  0  0  0  0  0  0  0
  151.7965  142.3393  157.3961 H   0  0  0  0  0  0  0  0  0  0  0  0
  149.3205  141.2605  156.0936 H   0  0  0  0  0  0  0  0  0  0  0  0
  150.5763  142.2567  155.3561 H   0  0  0  0  0  0  0  0  0  0  0  0
  152.0651  140.3733  155.1525 H   0  0  0  0  0  0  0  0  0  0  0  0
  149.3176  139.0746  154.7087 H   0  0  0  0  0  0  0  0  0  0  0  0
  150.2709  139.9038  153.4944 H   0  0  0  0  0  0  0  0  0  0  0  0
  148.4912  134.7572  152.7918 H   0  0  0  0  0  0  0  0  0  0  0  0
  149.3829  131.6273  154.4636 H   0  0  0  0  0  0  0  0  0  0  0  0
  148.3174  129.4545  153.9566 H   0  0  0  0  0  0  0  0  0  0  0  0
  146.3001  129.4204  152.3794 H   0  0  0  0  0  0  0  0  0  0  0  0
  145.2416  134.6280  153.2768 H   0  0  0  0  0  0  0  0  0  0  0  0
  146.6913  135.5377  152.8247 H   0  0  0  0  0  0  0  0  0  0  0  0
  144.2848  136.4040  151.9552 H   0  0  0  0  0  0  0  0  0  0  0  0
  145.6466  136.3766  150.8298 H   0  0  0  0  0  0  0  0  0  0  0  0
  143.4695  134.2846  151.1318 H   0  0  0  0  0  0  0  0  0  0  0  0
  144.0438  135.0115  149.6314 H   0  0  0  0  0  0  0  0  0  0  0  0
  145.9846  133.6500  149.6212 H   0  0  0  0  0  0  0  0  0  0  0  0
  144.9708  132.5714  150.5876 H   0  0  0  0  0  0  0  0  0  0  0  0
  150.2372  139.0072  156.9445 H   0  0  0  0  0  0  0  0  0  0  0  0
  145.5654  131.4057  151.4732 H   0  0  0  0  0  0  0  0  0  0  0  0
  1  2  2  0  0  0  0
  2  3  1  0  0  0  0
  2 14  1  0  0  0  0
  3  4  1  0  0  0  0
  3 26  1  0  0  0  0
  4  5  1  0  0  0  0
  4 27  1  0  0  0  0
  4 28  1  0  0  0  0
  5 13  1  0  0  0  0
  5  6  1  0  0  0  0
  5 29  1  0  0  0  0
  6  7  1  0  0  0  0
  6 30  1  0  0  0  0
  6 31  1  0  0  0  0
  7 11  1  0  0  0  0
  7  8  1  0  0  0  0
  7 53  1  0  0  0  0
  8  9  1  0  0  0  0
  8 32  1  0  0  0  0
  8 33  1  0  0  0  0
  9 10  1  0  0  0  0
  9 34  1  0  0  0  0
  9 35  1  0  0  0  0
 10 11  1  0  0  0  0
 10 36  1  0  0  0  0
 10 37  1  0  0  0  0
 11 12  1  0  0  0  0
 11 38  1  0  0  0  0
 12 13  1  0  0  0  0
 12 39  1  0  0  0  0
 12 40  1  0  0  0  0
 14 15  1  0  0  0  0
 14 41  1  0  0  0  0
 15 20  1  0  0  0  0
 15 16  2  0  0  0  0
 16 17  1  0  0  0  0
 16 42  1  0  0  0  0
 17 18  2  0  0  0  0
 17 43  1  0  0  0  0
 18 19  1  0  0  0  0
 18 44  1  0  0  0  0
 19 20  2  0  0  0  0
 19 54  1  0  0  0  0
 20 21  1  0  0  0  0
 21 25  1  0  0  0  0
 21 22  1  0  0  0  0
 22 23  1  0  0  0  0
 22 45  1  0  0  0  0
 22 46  1  0  0  0  0
 23 24  1  0  0  0  0
 23 47  1  0  0  0  0
 23 48  1  0  0  0  0
 24 25  1  0  0  0  0
 24 49  1  0  0  0  0
 24 50  1  0  0  0  0
 25 51  1  0  0  0  0
 25 52  1  0  0  0  0
M  CHG  1   7   1
M  CHG  1  19   1
M  END
> <s_m_source_file>
AV-unprocessed.smi

> <i_m_source_file_index>
1830

> <i_lp_mmshare_version>
43012

> <i_f3d_flags>
0

> <s_epik_input>
W0NIMl0xW0NIMl1bQ0gyXVtDQEhdKE4xMilbQ0gyXU9bQ0BASF0oW0NIMl0yKVtDSDJdW05IXUMoPU8pW05IXWMzW2NIXVtjSF1bY0hdbmMzTjRbQ0gyXVtDSDJdW0NIMl1bQ0gyXTQ=

> <s_epik_cmdline>
J2VwaWtfcHl0aG9uJywgJy1waCcsICc3LjAnLCAnLXRuJywgJzgnLCAnLW1hJywgJzIwMCcsICctbWV0YWxfYmluZGluZycsICctaW1hZScsICc8aW5maWxlLm1hZT4nLCAnLW9tYWUnLCAnPG91dGZpbGUubWFlPic=

> <r_lp_tautomer_probability>
0.999994

> <r_epik_Ionization_Penalty>
1.29113

> <r_epik_Ionization_Penalty_Charging>
1.29111

> <r_epik_Ionization_Penalty_Neutral>
1.88144e-05

> <r_epik_State_Penalty>
1.32676

> <r_epik_Charging_Adjusted_Penalty>
2.61787

> <i_epik_Tot_Q>
2

> <i_epik_Tot_abs_Q>
2

> <r_epik_Metal_State_Penalty>
1.40425

> <b_epik_Metal_Only>
0

> <s_lp_Force_Field>
OPLS_2005

> <r_lp_Energy>
76.6475

> <b_lp_Chiralities_Consistent>
1

> <s_lp_Variant>
AV-unprocessed.smi:1830-19

> <Gold.Version>
5.8.1

> <Gold.Id.Protein>
6NUR|6NUR_protein|mol2

> <Gold.PLP.Fitness>
46.6502

> <Gold.PLP.PLP>
-41.3633

> <Gold.PLP.part.hbond>
-2.3579

> <Gold.PLP.part.metal>
0.0000

> <Gold.PLP.part.buried>
-3.5768

> <Gold.PLP.part.nonpolar>
-35.0491

> <Gold.PLP.part.repulsive>
0.4953

> <Gold.PLP.ligand.clash>
0.0000

> <Gold.PLP.ligand.torsion>
0.5552

> <Gold.PLP.Chemscore.Hbond>
2.0000

> <Gold.PLP.Chemscore.CHOScore>
0.0000

> <Gold.PLP.Chemscore.Metal>
0.0000

> <Gold.Chemscore.Hbonds>
donor molecule, donor type, donor heavy atom, donor atom, acceptor molecule, acceptor atom, score
      L1  H     3    26       P1  7948  1.00
      L1  H    14    41       P1  7948  1.00

> <Gold.PLP.Chemscore.Internal.Correction>
0.3974

> <Gold.Rescore>
     Score         DG    S(hbond)    S(metal)    S(lipo)     H(rot)  DE(clash)    DE(int)     intcor
     15.08     -17.67       1.58        0.00      90.31       1.43       0.05       2.55       ----

> <Gold.Chemscore.Fitness>
15.0773

> <Gold.Chemscore.DG>
-17.6681

> <Gold.Chemscore.ZeroCoef>
-5.4800

> <Gold.Chemscore.Hbond>
1.5798

> <Gold.Chemscore.Metal>
0.0000

> <Gold.Chemscore.Lipo>
90.3120

> <Gold.Chemscore.Internal_Hbond>
0.0000

> <Gold.Chemscore.DEClash>
0.0452

> <Gold.Chemscore.DEInternal>
2.5456

> <Gold.Chemscore.Rot>
1.4278

> <Gold.Chemscore.Internal.Correction>
   9.000000E+99

> <Gold.Chemscore.Hbonds>
donor molecule, donor type, donor heavy atom, donor atom, acceptor molecule, acceptor atom, score
      L1  H     3    26       P1  7948  0.74
      L1  H    14    41       P1  7948  0.34

> <Gold.Chemscore.Hbond.Weighted>
-5.2766

> <Gold.Chemscore.Metal.Weighted>
-0.0000

> <Gold.Chemscore.Lipo.Weighted>
-10.5665

> <Gold.Chemscore.Internal_Hbond.Weighted>
0.0000

> <Gold.Chemscore.DEClash.Weighted>
0.0452

> <Gold.Chemscore.DEInternal.Weighted>
2.5456

> <Gold.Chemscore.Rot.Weighted>
3.6551

> <Gold.Chemscore.Internal.Correction.Weighted>
   9.000000E+99

> <Gold.Protein.RotatedTorsions>
[ 6907 6896 6895 6894 ] final  165.33 input  -60.11 | X-H torsion
[ 7974 7965 7964 7962 ] final   90.16 input  175.53 | X-H torsion
[ 8008 7997 7996 7995 ] final -167.91 input   59.86 | X-H torsion
[ 10167 10162 10161 10158 ] final  -93.27 input  -65.29 | X-H torsion
[ 10718 10713 10712 10709 ] final  -14.68 input   66.30 | X-H torsion
[ 10763 10752 10751 10750 ] final -163.25 input  -60.55 | X-H torsion
[ 11005 11000 10999 10996 ] final  -73.30 input  -57.11 | X-H torsion

> <Gold.Protein.ActiveResidues>
 VAL166  LYS551  ARG553  GLY616  TRP617  ASP618  TYR619  PRO620  LYS621  CYS622 
 ASP623  PHE694  ASN695  SER759  ASP760  ASP761  ALA762  ILE779  LEU786  VAL792 
 PHE793  MET794  SER795  GLU796  ALA797  LYS798  CYS799  TRP800  GLU811  SER814 

> <Gold.Protein.RotatedAtoms>
  151.8960  133.3527  159.3814 H   0  0  0  0  0  0  0  0  0  0  0  0  # atno 6907 bound_to 6896
  150.7091  134.4876  159.5509 H   0  0  0  0  0  0  0  0  0  0  0  0  # atno 6908 bound_to 6896
  152.2455  134.8186  160.0505 H   0  0  0  0  0  0  0  0  0  0  0  0  # atno 6909 bound_to 6896
  145.5227  139.2280  143.2663 H   0  0  0  0  0  0  0  0  0  0  0  0  # atno 7974 bound_to 7965
  155.8843  140.1014  157.1464 H   0  0  0  0  0  0  0  0  0  0  0  0  # atno 8008 bound_to 7997
  154.4008  140.1323  156.4299 H   0  0  0  0  0  0  0  0  0  0  0  0  # atno 8009 bound_to 7997
  155.7607  140.3463  155.5199 H   0  0  0  0  0  0  0  0  0  0  0  0  # atno 8010 bound_to 7997
  140.3263  143.3020  151.9991 H   0  0  0  0  0  0  0  0  0  0  0  0  # atno 10167 bound_to 10162
  156.6126  130.4853  149.6195 H   0  0  0  0  0  0  0  0  0  0  0  0  # atno 10718 bound_to 10713
  154.7140  135.3012  154.9153 H   0  0  0  0  0  0  0  0  0  0  0  0  # atno 10763 bound_to 10752
  154.0046  135.6702  153.4765 H   0  0  0  0  0  0  0  0  0  0  0  0  # atno 10764 bound_to 10752
  153.0778  135.5025  154.8355 H   0  0  0  0  0  0  0  0  0  0  0  0  # atno 10765 bound_to 10752
  141.1621  133.6874  156.7191 H   0  0  0  0  0  0  0  0  0  0  0  0  # atno 11005 bound_to 11000
  146.2096  140.6039  142.9066 LP  0  0  0  0  0  0  0  0  0  0  0  0  # atno 17320 bound_to 7965
  144.7668  140.5547  143.6698 LP  0  0  0  0  0  0  0  0  0  0  0  0  # atno 17321 bound_to 7965
  139.4864  144.6271  151.7143 LP  0  0  0  0  0  0  0  0  0  0  0  0  # atno 17342 bound_to 10162
  140.5438  144.0537  150.6099 LP  0  0  0  0  0  0  0  0  0  0  0  0  # atno 17343 bound_to 10162
  156.2377  130.6833  151.1526 LP  0  0  0  0  0  0  0  0  0  0  0  0  # atno 17370 bound_to 10713
  157.7250  131.0656  150.5971 LP  0  0  0  0  0  0  0  0  0  0  0  0  # atno 17371 bound_to 10713
  140.2830  134.8302  157.3950 LP  0  0  0  0  0  0  0  0  0  0  0  0  # atno 17394 bound_to 11000
  140.1416  134.4964  155.8027 LP  0  0  0  0  0  0  0  0  0  0  0  0  # atno 17395 bound_to 11000

$$$$
