AV-unprocessed.smi:2275|AV-procd|sdf|9170|dock10
  -GOLD-   2272012383D 1   1.00000     0.00000
 Structure written by MMmdl.
 38 39  0  0  0  0  0  0  0  0  1 V2000
  155.7115  133.4057  165.2442 C   0  0  0  0  0  0  0  0  0  0  0  0
  155.3830  134.6575  164.4500 C   0  0  0  0  0  0  0  0  0  0  0  0
  155.2389  135.8280  165.2006 N   0  0  0  0  0  0  0  0  0  0  0  0
  154.9519  136.9417  164.6098 C   0  0  0  0  0  0  0  0  0  0  0  0
  154.7791  137.0152  163.2181 N   0  0  0  0  0  0  0  0  0  0  0  0
  154.4501  138.3420  162.6714 C   0  0  0  0  0  0  0  0  0  0  0  0
  155.5749  138.9004  161.7712 C   0  0  2  0  0  0  0  0  0  0  0  0
  156.7203  139.2064  162.5412 O   0  0  0  0  0  0  0  0  0  0  0  0
  155.1634  140.1754  161.0149 C   0  0  0  0  0  0  0  0  0  0  0  0
  154.7093  141.1620  161.9341 O   0  0  0  0  0  0  0  0  0  0  0  0
  153.8194  142.1141  161.4853 C   0  0  0  0  0  0  0  0  0  0  0  0
  153.3887  143.0776  162.4208 C   0  0  0  0  0  0  0  0  0  0  0  0
  152.4808  144.0881  162.0501 C   0  0  0  0  0  0  0  0  0  0  0  0
  151.9921  144.1451  160.7319 C   0  0  0  0  0  0  0  0  0  0  0  0
  152.4121  143.1895  159.7880 C   0  0  0  0  0  0  0  0  0  0  0  0
  153.3198  142.1785  160.1595 C   0  0  0  0  0  0  0  0  0  0  0  0
  154.9174  135.9246  162.4097 C   0  0  0  0  0  0  0  0  0  0  0  0
  154.7851  136.0053  161.1870 O   0  0  0  0  0  0  0  0  0  0  0  0
  155.2345  134.6623  163.0970 C   0  0  0  0  0  0  0  0  0  0  0  0
  155.3775  133.4188  162.2284 C   0  0  0  0  0  0  0  0  0  0  0  0
  154.9254  132.6599  165.1231 H   0  0  0  0  0  0  0  0  0  0  0  0
  155.8048  133.6236  166.3089 H   0  0  0  0  0  0  0  0  0  0  0  0
  156.6556  132.9762  164.9082 H   0  0  0  0  0  0  0  0  0  0  0  0
  154.8317  137.8829  165.1491 H   0  0  0  0  0  0  0  0  0  0  0  0
  153.5327  138.2540  162.0861 H   0  0  0  0  0  0  0  0  0  0  0  0
  154.1982  139.0584  163.4564 H   0  0  0  0  0  0  0  0  0  0  0  0
  155.8718  138.1572  161.0301 H   0  0  0  0  0  0  0  0  0  0  0  0
  157.3058  138.4654  162.5182 H   0  0  0  0  0  0  0  0  0  0  0  0
  155.9963  140.5478  160.4156 H   0  0  0  0  0  0  0  0  0  0  0  0
  154.3494  139.9277  160.3319 H   0  0  0  0  0  0  0  0  0  0  0  0
  153.7598  143.0418  163.4346 H   0  0  0  0  0  0  0  0  0  0  0  0
  152.1601  144.8192  162.7774 H   0  0  0  0  0  0  0  0  0  0  0  0
  151.2961  144.9200  160.4459 H   0  0  0  0  0  0  0  0  0  0  0  0
  152.0376  143.2315  158.7757 H   0  0  0  0  0  0  0  0  0  0  0  0
  153.6174  141.4634  159.4076 H   0  0  0  0  0  0  0  0  0  0  0  0
  156.1876  133.5521  161.5109 H   0  0  0  0  0  0  0  0  0  0  0  0
  154.4573  133.2411  161.6708 H   0  0  0  0  0  0  0  0  0  0  0  0
  155.5909  132.5175  162.8003 H   0  0  0  0  0  0  0  0  0  0  0  0
  1  2  1  0  0  0  0
  1 21  1  0  0  0  0
  1 22  1  0  0  0  0
  1 23  1  0  0  0  0
  2 19  2  0  0  0  0
  2  3  1  0  0  0  0
  3  4  2  0  0  0  0
  4  5  1  0  0  0  0
  4 24  1  0  0  0  0
  5  6  1  0  0  0  0
  5 17  1  0  0  0  0
  6  7  1  0  0  0  0
  6 25  1  0  0  0  0
  6 26  1  0  0  0  0
  7  8  1  0  0  0  0
  7  9  1  0  0  0  0
  7 27  1  0  0  0  0
  8 28  1  0  0  0  0
  9 10  1  0  0  0  0
  9 29  1  0  0  0  0
  9 30  1  0  0  0  0
 10 11  1  0  0  0  0
 11 16  1  0  0  0  0
 11 12  2  0  0  0  0
 12 13  1  0  0  0  0
 12 31  1  0  0  0  0
 13 14  2  0  0  0  0
 13 32  1  0  0  0  0
 14 15  1  0  0  0  0
 14 33  1  0  0  0  0
 15 16  2  0  0  0  0
 15 34  1  0  0  0  0
 16 35  1  0  0  0  0
 17 18  2  0  0  0  0
 17 19  1  0  0  0  0
 19 20  1  0  0  0  0
 20 36  1  0  0  0  0
 20 37  1  0  0  0  0
 20 38  1  0  0  0  0
M  END
> <s_m_source_file>
AV-unprocessed.smi

> <i_m_source_file_index>
2275

> <i_lp_mmshare_version>
43012

> <i_f3d_flags>
0

> <s_epik_input>
W0NIM11jMW5bY0hdbihjKD1PKWMxW0NIM10pW0NIMl1bQ0BIXShbT0hdKVtDSDJdT2MyW2NIXVtjSF1bY0hdW2NIXVtjSF0y

> <s_epik_cmdline>
J2VwaWtfcHl0aG9uJywgJy1waCcsICc3LjAnLCAnLXRuJywgJzgnLCAnLW1hJywgJzIwMCcsICctbWV0YWxfYmluZGluZycsICctaW1hZScsICc8aW5maWxlLm1hZT4nLCAnLW9tYWUnLCAnPG91dGZpbGUubWFlPic=

> <r_lp_tautomer_probability>
1

> <r_epik_Ionization_Penalty>
4.18311e-05

> <r_epik_Ionization_Penalty_Charging>
1.04093e-07

> <r_epik_Ionization_Penalty_Neutral>
4.1727e-05

> <r_epik_State_Penalty>
-0

> <r_epik_Charging_Adjusted_Penalty>
1.04093e-07

> <i_epik_Tot_Q>
0

> <i_epik_Tot_abs_Q>
0

> <r_epik_Metal_State_Penalty>
-0

> <b_epik_Metal_Only>
0

> <s_lp_Force_Field>
OPLS_2005

> <r_lp_Energy>
24.2901

> <b_lp_Chiralities_Consistent>
1

> <s_lp_Variant>
AV-unprocessed.smi:2275-1

> <Gold.Version>
5.8.1

> <Gold.Id.Protein>
6NUR|6NUR_protein|mol2

> <Gold.PLP.Fitness>
46.5575

> <Gold.PLP.PLP>
-46.9860

> <Gold.PLP.part.hbond>
-0.6278

> <Gold.PLP.part.metal>
0.0000

> <Gold.PLP.part.buried>
-5.5008

> <Gold.PLP.part.nonpolar>
-40.7891

> <Gold.PLP.part.repulsive>
0.0996

> <Gold.PLP.ligand.clash>
0.0000

> <Gold.PLP.ligand.torsion>
0.2373

> <Gold.PLP.Chemscore.Hbond>
0.0000

> <Gold.PLP.Chemscore.CHOScore>
0.0000

> <Gold.PLP.Chemscore.Metal>
0.0000

> <Gold.PLP.Chemscore.Internal.Correction>
0.0462

> <Gold.Rescore>
     Score         DG    S(hbond)    S(metal)    S(lipo)     H(rot)  DE(clash)    DE(int)     intcor
     12.31     -12.71       0.00        0.00     113.96       2.38       0.13       0.27       ----

> <Gold.Chemscore.Fitness>
12.3058

> <Gold.Chemscore.DG>
-12.7137

> <Gold.Chemscore.ZeroCoef>
-5.4800

> <Gold.Chemscore.Hbond>
0.0000

> <Gold.Chemscore.Metal>
0.0000

> <Gold.Chemscore.Lipo>
113.9596

> <Gold.Chemscore.Internal_Hbond>
0.0000

> <Gold.Chemscore.DEClash>
0.1344

> <Gold.Chemscore.DEInternal>
0.2735

> <Gold.Chemscore.Rot>
2.3826

> <Gold.Chemscore.Internal.Correction>
   9.000000E+99

> <Gold.Chemscore.Hbond.Weighted>
-0.0000

> <Gold.Chemscore.Metal.Weighted>
-0.0000

> <Gold.Chemscore.Lipo.Weighted>
-13.3333

> <Gold.Chemscore.Internal_Hbond.Weighted>
0.0000

> <Gold.Chemscore.DEClash.Weighted>
0.1344

> <Gold.Chemscore.DEInternal.Weighted>
0.2735

> <Gold.Chemscore.Rot.Weighted>
6.0996

> <Gold.Chemscore.Internal.Correction.Weighted>
   9.000000E+99

> <Gold.Protein.RotatedTorsions>
[ 6907 6896 6895 6894 ] final  109.95 input  -60.11 | X-H torsion
[ 7974 7965 7964 7962 ] final  -24.64 input  175.53 | X-H torsion
[ 8008 7997 7996 7995 ] final    3.58 input   59.86 | X-H torsion
[ 10167 10162 10161 10158 ] final  105.45 input  -65.29 | X-H torsion
[ 10718 10713 10712 10709 ] final -129.51 input   66.30 | X-H torsion
[ 10763 10752 10751 10750 ] final  -37.92 input  -60.55 | X-H torsion
[ 11005 11000 10999 10996 ] final  -81.49 input  -57.11 | X-H torsion

> <Gold.Protein.ActiveResidues>
 VAL166  LYS551  ARG553  GLY616  TRP617  ASP618  TYR619  PRO620  LYS621  CYS622 
 ASP623  PHE694  ASN695  SER759  ASP760  ASP761  ALA762  ILE779  LEU786  VAL792 
 PHE793  MET794  SER795  GLU796  ALA797  LYS798  CYS799  TRP800  GLU811  SER814 

> <Gold.Protein.RotatedAtoms>
  152.5043  133.8870  159.7374 H   0  0  0  0  0  0  0  0  0  0  0  0  # atno 6907 bound_to 6896
  150.9318  133.6749  159.2816 H   0  0  0  0  0  0  0  0  0  0  0  0  # atno 6908 bound_to 6896
  151.4091  135.0987  159.9632 H   0  0  0  0  0  0  0  0  0  0  0  0  # atno 6909 bound_to 6896
  146.1542  140.4779  142.8598 H   0  0  0  0  0  0  0  0  0  0  0  0  # atno 7974 bound_to 7965
  154.7054  140.2681  155.6680 H   0  0  0  0  0  0  0  0  0  0  0  0  # atno 8008 bound_to 7997
  156.2778  140.2764  156.1602 H   0  0  0  0  0  0  0  0  0  0  0  0  # atno 8009 bound_to 7997
  155.0708  140.0372  157.2598 H   0  0  0  0  0  0  0  0  0  0  0  0  # atno 8010 bound_to 7997
  139.7091  144.7081  151.1056 H   0  0  0  0  0  0  0  0  0  0  0  0  # atno 10167 bound_to 10162
  156.2054  130.6884  151.0588 H   0  0  0  0  0  0  0  0  0  0  0  0  # atno 10718 bound_to 10713
  153.9043  135.6799  153.4754 H   0  0  0  0  0  0  0  0  0  0  0  0  # atno 10763 bound_to 10752
  153.1112  135.4782  154.9036 H   0  0  0  0  0  0  0  0  0  0  0  0  # atno 10764 bound_to 10752
  154.7559  135.3197  154.8425 H   0  0  0  0  0  0  0  0  0  0  0  0  # atno 10765 bound_to 10752
  141.1666  133.7199  156.8430 H   0  0  0  0  0  0  0  0  0  0  0  0  # atno 11005 bound_to 11000
  144.7942  140.6090  143.6521 LP  0  0  0  0  0  0  0  0  0  0  0  0  # atno 17320 bound_to 7965
  145.4749  139.1500  143.3793 LP  0  0  0  0  0  0  0  0  0  0  0  0  # atno 17321 bound_to 7965
  140.7729  143.5317  150.9415 LP  0  0  0  0  0  0  0  0  0  0  0  0  # atno 17342 bound_to 10162
  139.9001  143.6846  152.3132 LP  0  0  0  0  0  0  0  0  0  0  0  0  # atno 17343 bound_to 10162
  157.7009  131.0776  150.6823 LP  0  0  0  0  0  0  0  0  0  0  0  0  # atno 17370 bound_to 10713
  156.6881  130.4587  149.5608 LP  0  0  0  0  0  0  0  0  0  0  0  0  # atno 17371 bound_to 10713
  140.1970  134.8925  157.3125 LP  0  0  0  0  0  0  0  0  0  0  0  0  # atno 17394 bound_to 11000
  140.2229  134.4002  155.7557 LP  0  0  0  0  0  0  0  0  0  0  0  0  # atno 17395 bound_to 11000

$$$$
