AV-unprocessed.smi:2881|AV-procd|sdf|11064|dock9
  -GOLD-   2272015533D 1   1.00000     0.00000
 Structure written by MMmdl.
 40 42  0  0  0  0  0  0  0  0  1 V2000
  151.8013  145.9463  160.2478 C   0  0  0  0  0  0  0  0  0  0  0  0
  151.7758  144.5685  159.6550 C   0  0  0  0  0  0  0  0  0  0  0  0
  151.9729  143.3217  160.3177 C   0  0  0  0  0  0  0  0  0  0  0  0
  151.8425  142.3881  159.3277 C   0  0  0  0  0  0  0  0  0  0  0  0
  151.9398  140.8942  159.3591 C   0  0  0  0  0  0  0  0  0  0  0  0
  152.3977  140.2952  158.0240 C   0  0  0  0  0  0  0  0  0  0  0  0
  153.4703  139.6968  157.9283 O   0  0  0  0  0  0  0  0  0  0  0  0
  151.5633  140.4816  156.9901 N   0  0  0  0  0  0  0  0  0  0  0  0
  151.7814  140.0198  155.6176 C   0  0  1  0  0  0  0  0  0  0  0  0
  151.8539  138.4745  155.5256 C   0  0  1  0  0  0  0  0  0  0  0  0
  150.6599  137.8105  156.2444 C   0  0  0  0  0  0  0  0  0  0  0  0
  149.4754  138.1770  155.3324 C   0  0  0  0  0  0  0  0  0  0  0  0
  150.1515  138.9540  154.1826 C   0  0  2  0  0  0  0  0  0  0  0  0
  151.4833  138.2217  154.0677 C   0  0  0  0  0  0  0  0  0  0  0  0
  150.6220  140.3567  154.6327 C   0  0  1  0  0  0  0  0  0  0  0  0
  149.4907  141.2931  155.1157 C   0  0  0  0  0  0  0  0  0  0  0  0
  150.0268  142.4093  155.7945 O   0  0  0  0  0  0  0  0  0  0  0  0
  151.5904  143.0906  158.1704 N   0  0  0  0  0  0  0  0  0  0  0  0
  151.5457  144.4224  158.3587 N   0  0  0  0  0  0  0  0  0  0  0  0
  151.4422  142.6792  157.2599 H   0  0  0  0  0  0  0  0  0  0  0  0
  152.1189  145.9203  161.2904 H   0  0  0  0  0  0  0  0  0  0  0  0
  150.8131  146.4057  160.2133 H   0  0  0  0  0  0  0  0  0  0  0  0
  152.4911  146.5951  159.7075 H   0  0  0  0  0  0  0  0  0  0  0  0
  152.1768  143.1408  161.3628 H   0  0  0  0  0  0  0  0  0  0  0  0
  150.9692  140.4668  159.6131 H   0  0  0  0  0  0  0  0  0  0  0  0
  152.6305  140.5878  160.1458 H   0  0  0  0  0  0  0  0  0  0  0  0
  150.7058  140.9858  157.1633 H   0  0  0  0  0  0  0  0  0  0  0  0
  152.7116  140.4346  155.2241 H   0  0  0  0  0  0  0  0  0  0  0  0
  152.8194  138.0671  155.8267 H   0  0  0  0  0  0  0  0  0  0  0  0
  150.7912  136.7281  156.2743 H   0  0  0  0  0  0  0  0  0  0  0  0
  150.5205  138.1433  157.2726 H   0  0  0  0  0  0  0  0  0  0  0  0
  148.9970  137.2725  154.9548 H   0  0  0  0  0  0  0  0  0  0  0  0
  148.7112  138.7555  155.8499 H   0  0  0  0  0  0  0  0  0  0  0  0
  149.5637  138.9696  153.2643 H   0  0  0  0  0  0  0  0  0  0  0  0
  152.1744  138.6813  153.3587 H   0  0  0  0  0  0  0  0  0  0  0  0
  151.3774  137.1630  153.8237 H   0  0  0  0  0  0  0  0  0  0  0  0
  151.0654  140.8296  153.7539 H   0  0  0  0  0  0  0  0  0  0  0  0
  148.9262  141.6641  154.2599 H   0  0  0  0  0  0  0  0  0  0  0  0
  148.7811  140.7830  155.7665 H   0  0  0  0  0  0  0  0  0  0  0  0
  149.3652  143.0826  155.8385 H   0  0  0  0  0  0  0  0  0  0  0  0
  1 21  1  0  0  0  0
  1 22  1  0  0  0  0
  1 23  1  0  0  0  0
  1  2  1  0  0  0  0
  2 19  2  0  0  0  0
  2  3  1  0  0  0  0
  3  4  2  0  0  0  0
  3 24  1  0  0  0  0
  4 18  1  0  0  0  0
  4  5  1  0  0  0  0
  5  6  1  0  0  0  0
  5 25  1  0  0  0  0
  5 26  1  0  0  0  0
  6  7  2  0  0  0  0
  6  8  1  0  0  0  0
  8  9  1  0  0  0  0
  8 27  1  0  0  0  0
  9 15  1  0  0  0  0
  9 10  1  0  0  0  0
  9 28  1  0  0  0  0
 10 14  1  0  0  0  0
 10 11  1  0  0  0  0
 10 29  1  0  0  0  0
 11 12  1  0  0  0  0
 11 30  1  0  0  0  0
 11 31  1  0  0  0  0
 12 13  1  0  0  0  0
 12 32  1  0  0  0  0
 12 33  1  0  0  0  0
 13 14  1  0  0  0  0
 13 15  1  0  0  0  0
 13 34  1  0  0  0  0
 14 35  1  0  0  0  0
 14 36  1  0  0  0  0
 15 16  1  0  0  0  0
 15 37  1  0  0  0  0
 16 17  1  0  0  0  0
 16 38  1  0  0  0  0
 16 39  1  0  0  0  0
 17 40  1  0  0  0  0
 18 19  1  0  0  0  0
 18 20  1  0  0  0  0
M  END
> <s_m_source_file>
AV-unprocessed.smi

> <i_m_source_file_index>
2881

> <i_lp_mmshare_version>
43012

> <i_f3d_flags>
0

> <s_epik_input>
W0NIM11jMVtjSF1jKG5bbkhdMSlbQ0gyXUMoPU8pW05IXVtDQEhdKFtDQEBIXTIzKVtDQEhdKFtDSDJdW09IXSlbQ0BASF0oW0NIMl0zKVtDSDJdW0NIMl0y

> <s_epik_cmdline>
J2VwaWtfcHl0aG9uJywgJy1waCcsICc3LjAnLCAnLXRuJywgJzgnLCAnLW1hJywgJzIwMCcsICctbWV0YWxfYmluZGluZycsICctaW1hZScsICc8aW5maWxlLm1hZT4nLCAnLW9tYWUnLCAnPG91dGZpbGUubWFlPic=

> <r_lp_tautomer_probability>
0.5

> <r_epik_Ionization_Penalty>
0.00013396

> <r_epik_Ionization_Penalty_Charging>
0

> <r_epik_Ionization_Penalty_Neutral>
0.00013396

> <r_epik_State_Penalty>
0.41068

> <r_epik_Charging_Adjusted_Penalty>
0.41068

> <i_epik_Tot_Q>
0

> <i_epik_Tot_abs_Q>
0

> <r_epik_Metal_State_Penalty>
0.41066

> <b_epik_Metal_Only>
0

> <s_lp_Force_Field>
OPLS_2005

> <r_lp_Energy>
49.8973

> <b_lp_Chiralities_Consistent>
1

> <s_lp_Variant>
AV-unprocessed.smi:2881-10

> <Gold.Version>
5.8.1

> <Gold.Id.Protein>
6NUR|6NUR_protein|mol2

> <Gold.PLP.Fitness>
41.9850

> <Gold.PLP.PLP>
-36.9673

> <Gold.PLP.part.hbond>
-2.0000

> <Gold.PLP.part.metal>
0.0000

> <Gold.PLP.part.buried>
-1.3560

> <Gold.PLP.part.nonpolar>
-32.2776

> <Gold.PLP.part.repulsive>
0.2382

> <Gold.PLP.ligand.clash>
0.0000

> <Gold.PLP.ligand.torsion>
0.4986

> <Gold.PLP.Chemscore.Hbond>
2.0000

> <Gold.PLP.Chemscore.CHOScore>
0.0000

> <Gold.PLP.Chemscore.Metal>
0.0000

> <Gold.Chemscore.Hbonds>
donor molecule, donor type, donor heavy atom, donor atom, acceptor molecule, acceptor atom, score
      L1  H    17    40       P1  8028  1.00
      P1  H  7997  8010       L1     7  0.91

> <Gold.PLP.Chemscore.Internal.Correction>
0.0149

> <Gold.Rescore>
     Score         DG    S(hbond)    S(metal)    S(lipo)     H(rot)  DE(clash)    DE(int)     intcor
     15.77     -16.37       1.71        0.00      93.96       2.28       0.16       0.43       ----

> <Gold.Chemscore.Fitness>
15.7734

> <Gold.Chemscore.DG>
-16.3651

> <Gold.Chemscore.ZeroCoef>
-5.4800

> <Gold.Chemscore.Hbond>
1.7116

> <Gold.Chemscore.Metal>
0.0000

> <Gold.Chemscore.Lipo>
93.9635

> <Gold.Chemscore.Internal_Hbond>
0.0000

> <Gold.Chemscore.DEClash>
0.1627

> <Gold.Chemscore.DEInternal>
0.4290

> <Gold.Chemscore.Rot>
2.2755

> <Gold.Chemscore.Internal.Correction>
   9.000000E+99

> <Gold.Chemscore.Hbonds>
donor molecule, donor type, donor heavy atom, donor atom, acceptor molecule, acceptor atom, score
      L1  H    17    40       P1  8028  0.95
      P1  H  7997  8010       L1     7  0.87

> <Gold.Chemscore.Hbond.Weighted>
-5.7166

> <Gold.Chemscore.Metal.Weighted>
-0.0000

> <Gold.Chemscore.Lipo.Weighted>
-10.9937

> <Gold.Chemscore.Internal_Hbond.Weighted>
0.0000

> <Gold.Chemscore.DEClash.Weighted>
0.1627

> <Gold.Chemscore.DEInternal.Weighted>
0.4290

> <Gold.Chemscore.Rot.Weighted>
5.8252

> <Gold.Chemscore.Internal.Correction.Weighted>
   9.000000E+99

> <Gold.Protein.RotatedTorsions>
[ 6907 6896 6895 6894 ] final -156.82 input  -60.11 | X-H torsion
[ 7974 7965 7964 7962 ] final  148.31 input  175.53 | X-H torsion
[ 8008 7997 7996 7995 ] final   45.18 input   59.86 | X-H torsion
[ 10167 10162 10161 10158 ] final -166.10 input  -65.29 | X-H torsion
[ 10718 10713 10712 10709 ] final  111.30 input   66.30 | X-H torsion
[ 10763 10752 10751 10750 ] final   21.51 input  -60.55 | X-H torsion
[ 11005 11000 10999 10996 ] final  139.88 input  -57.11 | X-H torsion

> <Gold.Protein.ActiveResidues>
 VAL166  LYS551  ARG553  GLY616  TRP617  ASP618  TYR619  PRO620  LYS621  CYS622 
 ASP623  PHE694  ASN695  SER759  ASP760  ASP761  ALA762  ILE779  LEU786  VAL792 
 PHE793  MET794  SER795  GLU796  ALA797  LYS798  CYS799  TRP800  GLU811  SER814 

> <Gold.Protein.RotatedAtoms>
  151.2934  133.4155  159.2634 H   0  0  0  0  0  0  0  0  0  0  0  0  # atno 6907 bound_to 6896
  151.0257  134.9503  159.8094 H   0  0  0  0  0  0  0  0  0  0  0  0  # atno 6908 bound_to 6896
  152.5334  134.2896  159.9091 H   0  0  0  0  0  0  0  0  0  0  0  0  # atno 6909 bound_to 6896
  144.8523  139.6138  143.5968 H   0  0  0  0  0  0  0  0  0  0  0  0  # atno 7974 bound_to 7965
  155.3316  140.3403  155.4239 H   0  0  0  0  0  0  0  0  0  0  0  0  # atno 8008 bound_to 7997
  156.1859  140.1680  156.8223 H   0  0  0  0  0  0  0  0  0  0  0  0  # atno 8009 bound_to 7997
  154.5385  140.0730  156.8453 H   0  0  0  0  0  0  0  0  0  0  0  0  # atno 8010 bound_to 7997
  139.6137  144.0762  152.1867 H   0  0  0  0  0  0  0  0  0  0  0  0  # atno 10167 bound_to 10162
  157.6451  131.0948  150.6728 H   0  0  0  0  0  0  0  0  0  0  0  0  # atno 10718 bound_to 10713
  153.0989  135.6667  153.9710 H   0  0  0  0  0  0  0  0  0  0  0  0  # atno 10763 bound_to 10752
  153.9286  135.3006  155.3447 H   0  0  0  0  0  0  0  0  0  0  0  0  # atno 10764 bound_to 10752
  154.7409  135.5080  153.9196 H   0  0  0  0  0  0  0  0  0  0  0  0  # atno 10765 bound_to 10752
  140.0286  134.9362  157.0618 H   0  0  0  0  0  0  0  0  0  0  0  0  # atno 11005 bound_to 11000
  146.2795  139.6840  142.9239 LP  0  0  0  0  0  0  0  0  0  0  0  0  # atno 17320 bound_to 7965
  145.4475  141.0426  143.2823 LP  0  0  0  0  0  0  0  0  0  0  0  0  # atno 17321 bound_to 7965
  140.0387  144.6024  150.7428 LP  0  0  0  0  0  0  0  0  0  0  0  0  # atno 17342 bound_to 10162
  140.7337  143.2720  151.3860 LP  0  0  0  0  0  0  0  0  0  0  0  0  # atno 17343 bound_to 10162
  156.7047  130.4633  149.5563 LP  0  0  0  0  0  0  0  0  0  0  0  0  # atno 17370 bound_to 10713
  156.1771  130.6475  151.0907 LP  0  0  0  0  0  0  0  0  0  0  0  0  # atno 17371 bound_to 10713
  140.4263  134.1827  155.7166 LP  0  0  0  0  0  0  0  0  0  0  0  0  # atno 17394 bound_to 11000
  141.1818  133.8398  157.1231 LP  0  0  0  0  0  0  0  0  0  0  0  0  # atno 17395 bound_to 11000

$$$$
