AV-unprocessed.smi:2247|AV-procd|sdf|9088|dock1
  -GOLD-   2272012293D 1   1.00000     0.00000
 Structure written by MMmdl.
 34 35  0  0  0  0  0  0  0  0  1 V2000
  153.9167  141.1970  160.4002 C   0  0  0  0  0  0  0  0  0  0  0  0
  153.3748  142.6035  160.7124 C   0  0  0  0  0  0  0  0  0  0  0  0
  152.6052  142.6417  162.0419 C   0  0  0  0  0  0  0  0  0  0  0  0
  152.5453  143.1409  159.6255 N   0  0  0  0  0  0  0  0  0  0  0  0
  152.8187  144.4238  158.9978 C   0  0  0  0  0  0  0  0  0  0  0  0
  151.9578  144.4234  157.7310 C   0  0  0  0  0  0  0  0  0  0  0  0
  150.8516  143.3851  157.9759 C   0  0  1  0  0  0  0  0  0  0  0  0
  150.6084  142.6132  156.7580 N   0  0  0  0  0  0  0  0  0  0  0  0
  149.6967  141.6377  156.6206 C   0  0  0  0  0  0  0  0  0  0  0  0
  148.9604  141.3042  157.5546 O   0  0  0  0  0  0  0  0  0  0  0  0
  149.7217  141.1402  155.3267 N   0  0  0  0  0  0  0  0  0  0  0  0
  150.2148  139.9600  155.1111 C   0  0  0  0  0  0  0  0  0  0  0  0
  150.3350  139.3015  153.8978 N   0  0  0  0  0  0  0  0  0  0  0  0
  150.8950  138.0761  154.1322 C   0  0  0  0  0  0  0  0  0  0  0  0
  151.1197  137.9667  155.4385 C   0  0  0  0  0  0  0  0  0  0  0  0
  150.7135  139.1048  156.0671 O   0  0  0  0  0  0  0  0  0  0  0  0
  151.4914  142.5275  159.0690 C   0  0  0  0  0  0  0  0  0  0  0  0
  151.0551  141.4218  159.3900 O   0  0  0  0  0  0  0  0  0  0  0  0
  154.6032  140.8655  161.1795 H   0  0  0  0  0  0  0  0  0  0  0  0
  154.4647  141.1860  159.4573 H   0  0  0  0  0  0  0  0  0  0  0  0
  153.1179  140.4578  160.3357 H   0  0  0  0  0  0  0  0  0  0  0  0
  154.2457  143.2530  160.8185 H   0  0  0  0  0  0  0  0  0  0  0  0
  153.2253  142.2812  162.8630 H   0  0  0  0  0  0  0  0  0  0  0  0
  151.7122  142.0172  162.0007 H   0  0  0  0  0  0  0  0  0  0  0  0
  152.2913  143.6564  162.2894 H   0  0  0  0  0  0  0  0  0  0  0  0
  152.5153  145.2284  159.6691 H   0  0  0  0  0  0  0  0  0  0  0  0
  153.8770  144.5471  158.7650 H   0  0  0  0  0  0  0  0  0  0  0  0
  151.5523  145.4115  157.5116 H   0  0  0  0  0  0  0  0  0  0  0  0
  152.5785  144.1344  156.8805 H   0  0  0  0  0  0  0  0  0  0  0  0
  149.9471  143.8592  158.3605 H   0  0  0  0  0  0  0  0  0  0  0  0
  151.1783  142.8393  155.9558 H   0  0  0  0  0  0  0  0  0  0  0  0
  150.0649  139.6256  152.9803 H   0  0  0  0  0  0  0  0  0  0  0  0
  151.0773  137.3931  153.3156 H   0  0  0  0  0  0  0  0  0  0  0  0
  151.5408  137.1805  156.0473 H   0  0  0  0  0  0  0  0  0  0  0  0
  1  2  1  0  0  0  0
  1 19  1  0  0  0  0
  1 20  1  0  0  0  0
  1 21  1  0  0  0  0
  2  3  1  0  0  0  0
  2  4  1  0  0  0  0
  2 22  1  0  0  0  0
  3 23  1  0  0  0  0
  3 24  1  0  0  0  0
  3 25  1  0  0  0  0
  4 17  1  0  0  0  0
  4  5  1  0  0  0  0
  5  6  1  0  0  0  0
  5 26  1  0  0  0  0
  5 27  1  0  0  0  0
  6  7  1  0  0  0  0
  6 28  1  0  0  0  0
  6 29  1  0  0  0  0
  7  8  1  0  0  0  0
  7 17  1  0  0  0  0
  7 30  1  0  0  0  0
  8 31  1  0  0  0  0
  8  9  1  0  0  0  0
  9 11  1  0  0  0  0
  9 10  2  0  0  0  0
 11 12  2  0  0  0  0
 12 16  1  0  0  0  0
 12 13  1  0  0  0  0
 13 32  1  0  0  0  0
 13 14  1  0  0  0  0
 14 33  1  0  0  0  0
 14 15  2  0  0  0  0
 15 34  1  0  0  0  0
 15 16  1  0  0  0  0
 17 18  2  0  0  0  0
M  END
> <s_m_source_file>
AV-unprocessed.smi

> <i_m_source_file_index>
2247

> <i_lp_mmshare_version>
43012

> <i_f3d_flags>
0

> <s_epik_input>
W0NIM11bQ0hdKFtDSDNdKU4xW0NIMl1bQ0gyXVtDQEhdKEMxPU8pW05IXUMoPU8pW05IXWMybltjSF1bY0hdbzI=

> <s_epik_cmdline>
J2VwaWtfcHl0aG9uJywgJy1waCcsICc3LjAnLCAnLXRuJywgJzgnLCAnLW1hJywgJzIwMCcsICctbWV0YWxfYmluZGluZycsICctaW1hZScsICc8aW5maWxlLm1hZT4nLCAnLW9tYWUnLCAnPG91dGZpbGUubWFlPic=

> <r_lp_tautomer_probability>
0.107061

> <r_epik_Ionization_Penalty>
0.180736

> <r_epik_Ionization_Penalty_Charging>
0.180388

> <r_epik_Ionization_Penalty_Neutral>
0.000348501

> <r_epik_State_Penalty>
2.44396

> <r_epik_Charging_Adjusted_Penalty>
2.62435

> <i_epik_Tot_Q>
0

> <i_epik_Tot_abs_Q>
0

> <r_epik_Metal_State_Penalty>
4.38331

> <b_epik_Metal_Only>
0

> <s_lp_Force_Field>
OPLS_2005

> <r_lp_Energy>
44.8331

> <b_lp_Chiralities_Consistent>
1

> <s_lp_Variant>
AV-unprocessed.smi:2247-3

> <Gold.Version>
5.8.1

> <Gold.Id.Protein>
6NUR|6NUR_protein|mol2

> <Gold.PLP.Fitness>
44.6380

> <Gold.PLP.PLP>
-40.2844

> <Gold.PLP.part.hbond>
-2.8990

> <Gold.PLP.part.metal>
0.0000

> <Gold.PLP.part.buried>
-5.1067

> <Gold.PLP.part.nonpolar>
-32.8825

> <Gold.PLP.part.repulsive>
1.3062

> <Gold.PLP.ligand.clash>
0.0000

> <Gold.PLP.ligand.torsion>
0.8881

> <Gold.PLP.Chemscore.Hbond>
1.0000

> <Gold.PLP.Chemscore.CHOScore>
1.0109

> <Gold.PLP.Chemscore.Metal>
0.0000

> <Gold.Chemscore.Hbonds>
donor molecule, donor type, donor heavy atom, donor atom, acceptor molecule, acceptor atom, score
      L1  H    13    32       P1  7957  1.00
      L1  C    14    33       P1  7948  0.03
      L1  C    14    33       P1  7949  1.00

> <Gold.PLP.Chemscore.Internal.Correction>
0.0971

> <Gold.Rescore>
     Score         DG    S(hbond)    S(metal)    S(lipo)     H(rot)  DE(clash)    DE(int)     intcor
     13.37     -15.42       0.99        0.00      85.90       1.33       0.02       2.03       ----

> <Gold.Chemscore.Fitness>
13.3726

> <Gold.Chemscore.DG>
-15.4162

> <Gold.Chemscore.ZeroCoef>
-5.4800

> <Gold.Chemscore.Hbond>
0.9882

> <Gold.Chemscore.Metal>
0.0000

> <Gold.Chemscore.Lipo>
85.8996

> <Gold.Chemscore.Internal_Hbond>
0.0000

> <Gold.Chemscore.DEClash>
0.0158

> <Gold.Chemscore.DEInternal>
2.0278

> <Gold.Chemscore.Rot>
1.3338

> <Gold.Chemscore.Internal.Correction>
   9.000000E+99

> <Gold.Chemscore.Hbonds>
donor molecule, donor type, donor heavy atom, donor atom, acceptor molecule, acceptor atom, score
      L1  H    13    32       P1  7957  0.99

> <Gold.Chemscore.Hbond.Weighted>
-3.3004

> <Gold.Chemscore.Metal.Weighted>
-0.0000

> <Gold.Chemscore.Lipo.Weighted>
-10.0503

> <Gold.Chemscore.Internal_Hbond.Weighted>
0.0000

> <Gold.Chemscore.DEClash.Weighted>
0.0158

> <Gold.Chemscore.DEInternal.Weighted>
2.0278

> <Gold.Chemscore.Rot.Weighted>
3.4145

> <Gold.Chemscore.Internal.Correction.Weighted>
   9.000000E+99

> <Gold.Protein.RotatedTorsions>
[ 6907 6896 6895 6894 ] final  -32.85 input  -60.11 | X-H torsion
[ 7974 7965 7964 7962 ] final  -32.61 input  175.53 | X-H torsion
[ 8008 7997 7996 7995 ] final  -53.91 input   59.86 | X-H torsion
[ 10167 10162 10161 10158 ] final -166.94 input  -65.29 | X-H torsion
[ 10718 10713 10712 10709 ] final -108.28 input   66.30 | X-H torsion
[ 10763 10752 10751 10750 ] final  -47.77 input  -60.55 | X-H torsion
[ 11005 11000 10999 10996 ] final   44.00 input  -57.11 | X-H torsion

> <Gold.Protein.ActiveResidues>
 VAL166  LYS551  ARG553  GLY616  TRP617  ASP618  TYR619  PRO620  LYS621  CYS622 
 ASP623  PHE694  ASN695  SER759  ASP760  ASP761  ALA762  ILE779  LEU786  VAL792 
 PHE793  MET794  SER795  GLU796  ALA797  LYS798  CYS799  TRP800  GLU811  SER814 

> <Gold.Protein.RotatedAtoms>
  151.0733  134.9812  159.8319 H   0  0  0  0  0  0  0  0  0  0  0  0  # atno 6907 bound_to 6896
  152.5411  134.2272  159.8820 H   0  0  0  0  0  0  0  0  0  0  0  0  # atno 6908 bound_to 6896
  151.2298  133.4413  159.2637 H   0  0  0  0  0  0  0  0  0  0  0  0  # atno 6909 bound_to 6896
  146.0976  140.5814  142.8835 H   0  0  0  0  0  0  0  0  0  0  0  0  # atno 7974 bound_to 7965
  154.4147  140.1189  156.5230 H   0  0  0  0  0  0  0  0  0  0  0  0  # atno 8008 bound_to 7997
  155.6683  140.3496  155.4789 H   0  0  0  0  0  0  0  0  0  0  0  0  # atno 8009 bound_to 7997
  155.9655  140.1131  157.0848 H   0  0  0  0  0  0  0  0  0  0  0  0  # atno 8010 bound_to 7997
  139.6082  144.0870  152.1814 H   0  0  0  0  0  0  0  0  0  0  0  0  # atno 10167 bound_to 10162
  156.0478  130.5705  150.7939 H   0  0  0  0  0  0  0  0  0  0  0  0  # atno 10718 bound_to 10713
  154.0668  135.6610  153.4819 H   0  0  0  0  0  0  0  0  0  0  0  0  # atno 10763 bound_to 10752
  153.0406  135.5148  154.7606 H   0  0  0  0  0  0  0  0  0  0  0  0  # atno 10764 bound_to 10752
  154.6659  135.3022  154.9773 H   0  0  0  0  0  0  0  0  0  0  0  0  # atno 10765 bound_to 10752
  140.1592  134.4363  155.8329 H   0  0  0  0  0  0  0  0  0  0  0  0  # atno 11005 bound_to 11000
  144.7407  140.4935  143.6871 LP  0  0  0  0  0  0  0  0  0  0  0  0  # atno 17320 bound_to 7965
  145.5917  139.1496  143.3178 LP  0  0  0  0  0  0  0  0  0  0  0  0  # atno 17321 bound_to 7965
  140.0482  144.5954  150.7357 LP  0  0  0  0  0  0  0  0  0  0  0  0  # atno 17342 bound_to 10162
  140.7300  143.2678  151.3986 LP  0  0  0  0  0  0  0  0  0  0  0  0  # atno 17343 bound_to 10162
  157.5372  131.0939  150.9877 LP  0  0  0  0  0  0  0  0  0  0  0  0  # atno 17370 bound_to 10713
  157.0168  130.5658  149.5327 LP  0  0  0  0  0  0  0  0  0  0  0  0  # atno 17371 bound_to 10713
  141.2207  133.6906  156.7563 LP  0  0  0  0  0  0  0  0  0  0  0  0  # atno 17394 bound_to 11000
  140.2510  134.8540  157.3667 LP  0  0  0  0  0  0  0  0  0  0  0  0  # atno 17395 bound_to 11000

$$$$
