AV-unprocessed.smi:72|AV-procd|sdf|756|dock3
  -GOLD-   2262017 93D 1   1.00000     0.00000
 Structure written by MMmdl.
 29 30  0  0  0  0  0  0  0  0  1 V2000
  145.9827  143.5365  157.9853 N   0  0  0  0  0  0  0  0  0  0  0  0
  146.7484  142.8094  157.0982 C   0  0  0  0  0  0  0  0  0  0  0  0
  147.9773  142.3375  157.5775 N   0  0  0  0  0  0  0  0  0  0  0  0
  148.6958  141.6457  156.7509 C   0  0  0  0  0  0  0  0  0  0  0  0
  148.2332  141.3573  155.4016 N   0  0  0  0  0  0  0  0  0  0  0  0
  149.0585  140.5668  154.3968 C   0  0  1  0  0  0  0  0  0  0  0  0
  150.3882  140.4926  154.8236 O   0  0  0  0  0  0  0  0  0  0  0  0
  150.6087  139.2588  155.5003 C   0  0  2  0  0  0  0  0  0  0  0  0
  152.1109  138.9506  155.6259 C   0  0  0  0  0  0  0  0  0  0  0  0
  152.8600  139.9104  154.9113 O   0  0  0  0  0  0  0  0  0  0  0  0
  149.7944  138.2823  154.6467 C   0  0  2  0  0  0  0  0  0  0  0  0
  150.5355  137.8768  153.5061 O   0  0  0  0  0  0  0  0  0  0  0  0
  148.5577  139.1086  154.2870 C   0  0  2  0  0  0  0  0  0  0  0  0
  148.0491  138.7873  153.0059 O   0  0  0  0  0  0  0  0  0  0  0  0
  146.9917  141.9052  154.9726 C   0  0  0  0  0  0  0  0  0  0  0  0
  146.6027  141.7264  153.8186 O   0  0  0  0  0  0  0  0  0  0  0  0
  146.2523  142.6397  155.9069 N   0  0  0  0  0  0  0  0  0  0  0  0
  149.0014  141.1392  153.4691 H   0  0  0  0  0  0  0  0  0  0  0  0
  150.1543  139.2986  156.4921 H   0  0  0  0  0  0  0  0  0  0  0  0
  149.5269  137.3869  155.2088 H   0  0  0  0  0  0  0  0  0  0  0  0
  147.7811  138.9336  155.0331 H   0  0  0  0  0  0  0  0  0  0  0  0
  145.0821  143.9278  157.7505 H   0  0  0  0  0  0  0  0  0  0  0  0
  146.2640  143.7275  158.9357 H   0  0  0  0  0  0  0  0  0  0  0  0
  149.6751  141.2491  157.0182 H   0  0  0  0  0  0  0  0  0  0  0  0
  152.4202  139.0068  156.6700 H   0  0  0  0  0  0  0  0  0  0  0  0
  152.3440  137.9469  155.2690 H   0  0  0  0  0  0  0  0  0  0  0  0
  153.0044  139.5871  154.0353 H   0  0  0  0  0  0  0  0  0  0  0  0
  149.9247  137.6265  152.8296 H   0  0  0  0  0  0  0  0  0  0  0  0
  148.5675  138.0817  152.6498 H   0  0  0  0  0  0  0  0  0  0  0  0
  1  2  1  0  0  0  0
  1 22  1  0  0  0  0
  1 23  1  0  0  0  0
  2 17  2  0  0  0  0
  2  3  1  0  0  0  0
  3  4  2  0  0  0  0
  4  5  1  0  0  0  0
  4 24  1  0  0  0  0
  5  6  1  0  0  0  0
  5 15  1  0  0  0  0
  6 18  1  0  0  0  0
  6 13  1  0  0  0  0
  6  7  1  0  0  0  0
  7  8  1  0  0  0  0
  8 19  1  0  0  0  0
  8  9  1  0  0  0  0
  8 11  1  0  0  0  0
  9 10  1  0  0  0  0
  9 25  1  0  0  0  0
  9 26  1  0  0  0  0
 10 27  1  0  0  0  0
 11 20  1  0  0  0  0
 11 12  1  0  0  0  0
 11 13  1  0  0  0  0
 12 28  1  0  0  0  0
 13 21  1  0  0  0  0
 13 14  1  0  0  0  0
 14 29  1  0  0  0  0
 15 16  2  0  0  0  0
 15 17  1  0  0  0  0
M  END
> <s_m_source_file>
AV-unprocessed.smi

> <i_m_source_file_index>
72

> <i_lp_mmshare_version>
43012

> <i_f3d_flags>
0

> <s_epik_input>
W05IMl1jMW5bY0hdbihjKD1PKW4xKVtDQEBIXTJPW0NASF0oW0NIMl1bT0hdKVtDQEBIXShbT0hdKVtDQEhdMltPSF0=

> <s_epik_cmdline>
J2VwaWtfcHl0aG9uJywgJy1waCcsICc3LjAnLCAnLXRuJywgJzgnLCAnLW1hJywgJzIwMCcsICctbWV0YWxfYmluZGluZycsICctaW1hZScsICc8aW5maWxlLm1hZT4nLCAnLW9tYWUnLCAnPG91dGZpbGUubWFlPic=

> <r_lp_tautomer_probability>
4.77166e-05

> <r_epik_Ionization_Penalty>
1.3546

> <r_epik_Ionization_Penalty_Charging>
1.46833e-10

> <r_epik_Ionization_Penalty_Neutral>
1.3546

> <r_epik_State_Penalty>
3.51908

> <r_epik_Charging_Adjusted_Penalty>
3.51908

> <i_epik_Tot_Q>
0

> <i_epik_Tot_abs_Q>
0

> <r_epik_Metal_State_Penalty>
3.44088

> <b_epik_Metal_Only>
1

> <s_epik_Chemistry_Notes>
This compound contains an acetal/aminal-like group ( X-CH(R)-Y where X, Y are N, S, or O) that may be acid/base labile, releasing an aldehyde.

> <s_lp_Force_Field>
OPLS_2005

> <r_lp_Energy>
31.1202

> <b_lp_Chiralities_Consistent>
1

> <s_lp_Variant>
AV-unprocessed.smi:72-94

> <Gold.Version>
5.8.1

> <Gold.Id.Protein>
6NUR|6NUR_protein|mol2

> <Gold.PLP.Fitness>
33.4784

> <Gold.PLP.PLP>
-23.9342

> <Gold.PLP.part.hbond>
-7.8590

> <Gold.PLP.part.metal>
0.0000

> <Gold.PLP.part.buried>
-1.7025

> <Gold.PLP.part.nonpolar>
-14.5466

> <Gold.PLP.part.repulsive>
0.6125

> <Gold.PLP.ligand.clash>
0.0000

> <Gold.PLP.ligand.torsion>
1.2296

> <Gold.PLP.Chemscore.Hbond>
3.9920

> <Gold.PLP.Chemscore.CHOScore>
0.0000

> <Gold.PLP.Chemscore.Metal>
0.0000

> <Gold.Chemscore.Hbonds>
donor molecule, donor type, donor heavy atom, donor atom, acceptor molecule, acceptor atom, score
      L1  H    12    28       P1  7948  0.94
      L1  H    14    29       P1  7948  1.00
      P1  H  7989  7998       L1     7  0.99
      P1  H  7997  8008       L1    10  1.00

> <Gold.PLP.Chemscore.Internal.Correction>
0.0275

> <Gold.Rescore>
     Score         DG    S(hbond)    S(metal)    S(lipo)     H(rot)  DE(clash)    DE(int)     intcor
      7.41      -8.73       3.38        0.00      20.19       4.06       0.04       1.27       ----

> <Gold.Chemscore.Fitness>
7.4147

> <Gold.Chemscore.DG>
-8.7307

> <Gold.Chemscore.ZeroCoef>
-5.4800

> <Gold.Chemscore.Hbond>
3.3779

> <Gold.Chemscore.Metal>
0.0000

> <Gold.Chemscore.Lipo>
20.1875

> <Gold.Chemscore.Internal_Hbond>
0.0000

> <Gold.Chemscore.DEClash>
0.0442

> <Gold.Chemscore.DEInternal>
1.2717

> <Gold.Chemscore.Rot>
4.0600

> <Gold.Chemscore.Internal.Correction>
   9.000000E+99

> <Gold.Chemscore.Hbonds>
donor molecule, donor type, donor heavy atom, donor atom, acceptor molecule, acceptor atom, score
      L1  H    12    28       P1  7948  0.20
      L1  H    14    29       P1  7948  0.94
      P1  H  7989  7998       L1     7  0.75
      P1  H  7997  8008       L1    10  0.56

> <Gold.Chemscore.Hbond.Weighted>
-11.2823

> <Gold.Chemscore.Metal.Weighted>
-0.0000

> <Gold.Chemscore.Lipo.Weighted>
-2.3619

> <Gold.Chemscore.Internal_Hbond.Weighted>
0.0000

> <Gold.Chemscore.DEClash.Weighted>
0.0442

> <Gold.Chemscore.DEInternal.Weighted>
1.2717

> <Gold.Chemscore.Rot.Weighted>
10.3936

> <Gold.Chemscore.Internal.Correction.Weighted>
   9.000000E+99

> <Gold.Protein.RotatedTorsions>
[ 6907 6896 6895 6894 ] final  150.90 input  -60.11 | X-H torsion
[ 7974 7965 7964 7962 ] final -105.89 input  175.53 | X-H torsion
[ 8008 7997 7996 7995 ] final  -13.15 input   59.86 | X-H torsion
[ 10167 10162 10161 10158 ] final  -65.06 input  -65.29 | X-H torsion
[ 10718 10713 10712 10709 ] final  128.91 input   66.30 | X-H torsion
[ 10763 10752 10751 10750 ] final    7.51 input  -60.55 | X-H torsion
[ 11005 11000 10999 10996 ] final  -44.74 input  -57.11 | X-H torsion

> <Gold.Protein.ActiveResidues>
 VAL166  LYS551  ARG553  GLY616  TRP617  ASP618  TYR619  PRO620  LYS621  CYS622 
 ASP623  PHE694  ASN695  SER759  ASP760  ASP761  ALA762  ILE779  LEU786  VAL792 
 PHE793  MET794  SER795  GLU796  ALA797  LYS798  CYS799  TRP800  GLU811  SER814 

> <Gold.Protein.RotatedAtoms>
  152.1080  133.4285  159.4617 H   0  0  0  0  0  0  0  0  0  0  0  0  # atno 6907 bound_to 6896
  150.6866  134.2681  159.4586 H   0  0  0  0  0  0  0  0  0  0  0  0  # atno 6908 bound_to 6896
  152.0548  134.9631  160.0625 H   0  0  0  0  0  0  0  0  0  0  0  0  # atno 6909 bound_to 6896
  145.2247  140.9148  143.3239 H   0  0  0  0  0  0  0  0  0  0  0  0  # atno 7974 bound_to 7965
  154.5316  140.2257  155.8794 H   0  0  0  0  0  0  0  0  0  0  0  0  # atno 8008 bound_to 7997
  156.1770  140.3109  155.9041 H   0  0  0  0  0  0  0  0  0  0  0  0  # atno 8009 bound_to 7997
  155.3439  140.0452  157.3036 H   0  0  0  0  0  0  0  0  0  0  0  0  # atno 8010 bound_to 7997
  140.5757  143.2321  151.6448 H   0  0  0  0  0  0  0  0  0  0  0  0  # atno 10167 bound_to 10162
  157.5202  131.1098  150.9164 H   0  0  0  0  0  0  0  0  0  0  0  0  # atno 10718 bound_to 10713
  153.2355  135.6897  153.7842 H   0  0  0  0  0  0  0  0  0  0  0  0  # atno 10763 bound_to 10752
  153.6990  135.3300  155.3221 H   0  0  0  0  0  0  0  0  0  0  0  0  # atno 10764 bound_to 10752
  154.8333  135.4563  154.1257 H   0  0  0  0  0  0  0  0  0  0  0  0  # atno 10765 bound_to 10752
  141.0470  133.6757  156.2915 H   0  0  0  0  0  0  0  0  0  0  0  0  # atno 11005 bound_to 11000
  144.9732  139.3859  143.6298 LP  0  0  0  0  0  0  0  0  0  0  0  0  # atno 17320 bound_to 7965
  146.3367  139.8839  142.8820 LP  0  0  0  0  0  0  0  0  0  0  0  0  # atno 17321 bound_to 7965
  139.5141  144.3421  152.0731 LP  0  0  0  0  0  0  0  0  0  0  0  0  # atno 17342 bound_to 10162
  140.2564  144.4114  150.6202 LP  0  0  0  0  0  0  0  0  0  0  0  0  # atno 17343 bound_to 10162
  156.9777  130.5515  149.5294 LP  0  0  0  0  0  0  0  0  0  0  0  0  # atno 17370 bound_to 10713
  156.0348  130.5437  150.8626 LP  0  0  0  0  0  0  0  0  0  0  0  0  # atno 17371 bound_to 10713
  140.6127  134.5442  157.5536 LP  0  0  0  0  0  0  0  0  0  0  0  0  # atno 17394 bound_to 11000
  139.9320  134.7946  156.0905 LP  0  0  0  0  0  0  0  0  0  0  0  0  # atno 17395 bound_to 11000

$$$$
