AV-unprocessed.smi:848|AV-procd|sdf|3942|dock8
  -GOLD-   22720 1413D 1   1.00000     0.00000
 Structure written by MMmdl.
 47 49  0  0  0  0  0  0  0  0  2 V2000
  153.9853  141.1531  161.2412 C   0  0  0  0  0  0  0  0  0  0  0  0
  153.1074  141.8504  160.2223 C   0  0  0  0  0  0  0  0  0  0  0  0
  152.9991  143.2554  160.2207 C   0  0  0  0  0  0  0  0  0  0  0  0
  152.1806  143.8991  159.2728 C   0  0  0  0  0  0  0  0  0  0  0  0
  152.0666  145.4097  159.2759 C   0  0  0  0  0  0  0  0  0  0  0  0
  151.4689  143.1323  158.3277 C   0  0  0  0  0  0  0  0  0  0  0  0
  151.5666  141.7260  158.3150 C   0  0  0  0  0  0  0  0  0  0  0  0
  150.8376  141.0594  157.3536 O   0  0  0  0  0  0  0  0  0  0  0  0
  150.5238  141.7436  156.1478 C   0  0  0  0  0  0  0  0  0  0  0  0
  150.0701  140.7130  155.1018 C   0  0  1  0  0  0  0  0  0  0  0  0
  151.1466  139.8325  154.8471 O   0  0  0  0  0  0  0  0  0  0  0  0
  148.8507  139.9015  155.5840 C   0  0  0  0  0  0  0  0  0  0  0  0
  147.5675  140.4766  155.1448 N   0  0  0  0  0  0  0  0  0  0  0  0
  146.8057  140.1904  154.0489 C   0  0  0  0  0  0  0  0  0  0  0  0
  147.0991  139.1821  152.9869 C   0  0  0  0  0  0  0  0  0  0  0  0
  147.3106  137.8914  153.5142 O   0  0  0  0  0  0  0  0  0  0  0  0
  145.7071  140.9952  154.0994 N   0  3  0  0  0  0  0  0  0  0  0  0
  145.7647  141.8040  155.2344 C   0  0  0  0  0  0  0  0  0  0  0  0
  144.8843  142.7722  155.7075 C   0  0  0  0  0  0  0  0  0  0  0  0
  145.2392  143.4167  156.9107 C   0  0  0  0  0  0  0  0  0  0  0  0
  146.4279  143.0904  157.5949 C   0  0  0  0  0  0  0  0  0  0  0  0
  147.3129  142.1077  157.1047 C   0  0  0  0  0  0  0  0  0  0  0  0
  146.9565  141.4758  155.9130 C   0  0  0  0  0  0  0  0  0  0  0  0
  152.3936  141.0890  159.2744 C   0  0  0  0  0  0  0  0  0  0  0  0
  154.5987  141.8667  161.7917 H   0  0  0  0  0  0  0  0  0  0  0  0
  154.6510  140.4444  160.7481 H   0  0  0  0  0  0  0  0  0  0  0  0
  153.3702  140.6071  161.9566 H   0  0  0  0  0  0  0  0  0  0  0  0
  153.5432  143.8421  160.9467 H   0  0  0  0  0  0  0  0  0  0  0  0
  151.5775  145.7725  158.3712 H   0  0  0  0  0  0  0  0  0  0  0  0
  153.0555  145.8659  159.3320 H   0  0  0  0  0  0  0  0  0  0  0  0
  151.4851  145.7417  160.1361 H   0  0  0  0  0  0  0  0  0  0  0  0
  150.8388  143.6246  157.6014 H   0  0  0  0  0  0  0  0  0  0  0  0
  149.7558  142.5044  156.3002 H   0  0  0  0  0  0  0  0  0  0  0  0
  151.4260  142.2457  155.7942 H   0  0  0  0  0  0  0  0  0  0  0  0
  149.8102  141.2260  154.1756 H   0  0  0  0  0  0  0  0  0  0  0  0
  151.4627  139.5030  155.6749 H   0  0  0  0  0  0  0  0  0  0  0  0
  148.9126  138.8630  155.2587 H   0  0  0  0  0  0  0  0  0  0  0  0
  148.8337  139.8712  156.6736 H   0  0  0  0  0  0  0  0  0  0  0  0
  146.2669  139.1437  152.2834 H   0  0  0  0  0  0  0  0  0  0  0  0
  147.9798  139.4884  152.4226 H   0  0  0  0  0  0  0  0  0  0  0  0
  147.9031  137.4261  152.9434 H   0  0  0  0  0  0  0  0  0  0  0  0
  143.9718  143.0223  155.1864 H   0  0  0  0  0  0  0  0  0  0  0  0
  144.5855  144.1744  157.3181 H   0  0  0  0  0  0  0  0  0  0  0  0
  146.6655  143.6029  158.5158 H   0  0  0  0  0  0  0  0  0  0  0  0
  148.2162  141.8609  157.6427 H   0  0  0  0  0  0  0  0  0  0  0  0
  152.4959  140.0148  159.3029 H   0  0  0  0  0  0  0  0  0  0  0  0
  144.9692  140.9853  153.4071 H   0  0  0  0  0  0  0  0  0  0  0  0
  1  2  1  0  0  0  0
  1 25  1  0  0  0  0
  1 26  1  0  0  0  0
  1 27  1  0  0  0  0
  2 24  1  0  0  0  0
  2  3  2  0  0  0  0
  3  4  1  0  0  0  0
  3 28  1  0  0  0  0
  4  5  1  0  0  0  0
  4  6  2  0  0  0  0
  5 29  1  0  0  0  0
  5 30  1  0  0  0  0
  5 31  1  0  0  0  0
  6  7  1  0  0  0  0
  6 32  1  0  0  0  0
  7  8  1  0  0  0  0
  7 24  2  0  0  0  0
  8  9  1  0  0  0  0
  9 10  1  0  0  0  0
  9 33  1  0  0  0  0
  9 34  1  0  0  0  0
 10 11  1  0  0  0  0
 10 12  1  0  0  0  0
 10 35  1  0  0  0  0
 11 36  1  0  0  0  0
 12 13  1  0  0  0  0
 12 37  1  0  0  0  0
 12 38  1  0  0  0  0
 13 23  1  0  0  0  0
 13 14  1  0  0  0  0
 14 15  1  0  0  0  0
 14 17  2  0  0  0  0
 15 16  1  0  0  0  0
 15 39  1  0  0  0  0
 15 40  1  0  0  0  0
 16 41  1  0  0  0  0
 17 18  1  0  0  0  0
 17 47  1  0  0  0  0
 18 23  2  0  0  0  0
 18 19  1  0  0  0  0
 19 20  2  0  0  0  0
 19 42  1  0  0  0  0
 20 21  1  0  0  0  0
 20 43  1  0  0  0  0
 21 22  2  0  0  0  0
 21 44  1  0  0  0  0
 22 23  1  0  0  0  0
 22 45  1  0  0  0  0
 24 46  1  0  0  0  0
M  CHG  1  17   1
M  END
> <s_m_source_file>
AV-unprocessed.smi

> <i_m_source_file_index>
848

> <i_lp_mmshare_version>
43012

> <i_f3d_flags>
0

> <s_epik_input>
W0NIM11jMVtjSF1jKFtDSDNdKVtjSF1jKFtjSF0xKU9bQ0gyXVtDQEhdKFtPSF0pW0NIMl1uKGMobjIpW0NIMl1bT0hdKWMoYzIzKVtjSF1bY0hdW2NIXVtjSF0z

> <s_epik_cmdline>
J2VwaWtfcHl0aG9uJywgJy1waCcsICc3LjAnLCAnLXRuJywgJzgnLCAnLW1hJywgJzIwMCcsICctbWV0YWxfYmluZGluZycsICctaW1hZScsICc8aW5maWxlLm1hZT4nLCAnLW9tYWUnLCAnPG91dGZpbGUubWFlPic=

> <r_lp_tautomer_probability>
1

> <r_epik_Ionization_Penalty>
1.43292

> <r_epik_Ionization_Penalty_Charging>
1.43206

> <r_epik_Ionization_Penalty_Neutral>
0.000858184

> <r_epik_State_Penalty>
1.51673

> <r_epik_Charging_Adjusted_Penalty>
2.94879

> <i_epik_Tot_Q>
1

> <i_epik_Tot_abs_Q>
1

> <r_epik_Metal_State_Penalty>
5.56186

> <b_epik_Metal_Only>
0

> <s_lp_Force_Field>
OPLS_2005

> <r_lp_Energy>
19.6511

> <b_lp_Chiralities_Consistent>
1

> <s_lp_Variant>
AV-unprocessed.smi:848-4

> <Gold.Version>
5.8.1

> <Gold.Id.Protein>
6NUR|6NUR_protein|mol2

> <Gold.PLP.Fitness>
56.0522

> <Gold.PLP.PLP>
-46.5212

> <Gold.PLP.part.hbond>
-3.0000

> <Gold.PLP.part.metal>
0.0000

> <Gold.PLP.part.buried>
-4.9791

> <Gold.PLP.part.nonpolar>
-39.1459

> <Gold.PLP.part.repulsive>
0.0296

> <Gold.PLP.ligand.clash>
0.0000

> <Gold.PLP.ligand.torsion>
1.2494

> <Gold.PLP.Chemscore.Hbond>
4.0000

> <Gold.PLP.Chemscore.CHOScore>
0.0000

> <Gold.PLP.Chemscore.Metal>
0.0000

> <Gold.Chemscore.Hbonds>
donor molecule, donor type, donor heavy atom, donor atom, acceptor molecule, acceptor atom, score
      L1  H    16    41       P1  7948  1.00
      L1  H    17    47       P1 10175  2.00
      P1  H  7989  7998       L1    11  0.45

> <Gold.PLP.Chemscore.Internal.Correction>
0.0299

> <Gold.Rescore>
     Score         DG    S(hbond)    S(metal)    S(lipo)     H(rot)  DE(clash)    DE(int)     intcor
     19.65     -20.97       2.63        0.00     123.86       3.05       0.06       1.26       ----

> <Gold.Chemscore.Fitness>
19.6457

> <Gold.Chemscore.DG>
-20.9654

> <Gold.Chemscore.ZeroCoef>
-5.4800

> <Gold.Chemscore.Hbond>
2.6334

> <Gold.Chemscore.Metal>
0.0000

> <Gold.Chemscore.Lipo>
123.8610

> <Gold.Chemscore.Internal_Hbond>
0.0000

> <Gold.Chemscore.DEClash>
0.0642

> <Gold.Chemscore.DEInternal>
1.2555

> <Gold.Chemscore.Rot>
3.0476

> <Gold.Chemscore.Internal.Correction>
   9.000000E+99

> <Gold.Chemscore.Hbonds>
donor molecule, donor type, donor heavy atom, donor atom, acceptor molecule, acceptor atom, score
      L1  H    16    41       P1  7948  1.00
      L1  H    17    47       P1 10175  0.60
      P1  H  7989  7998       L1    11  0.02

> <Gold.Chemscore.Hbond.Weighted>
-8.7955

> <Gold.Chemscore.Metal.Weighted>
-0.0000

> <Gold.Chemscore.Lipo.Weighted>
-14.4917

> <Gold.Chemscore.Internal_Hbond.Weighted>
0.0000

> <Gold.Chemscore.DEClash.Weighted>
0.0642

> <Gold.Chemscore.DEInternal.Weighted>
1.2555

> <Gold.Chemscore.Rot.Weighted>
7.8018

> <Gold.Chemscore.Internal.Correction.Weighted>
   9.000000E+99

> <Gold.Protein.RotatedTorsions>
[ 6907 6896 6895 6894 ] final  125.15 input  -60.11 | X-H torsion
[ 7974 7965 7964 7962 ] final  -92.69 input  175.53 | X-H torsion
[ 8008 7997 7996 7995 ] final  162.44 input   59.86 | X-H torsion
[ 10167 10162 10161 10158 ] final   15.14 input  -65.29 | X-H torsion
[ 10718 10713 10712 10709 ] final  -39.79 input   66.30 | X-H torsion
[ 10763 10752 10751 10750 ] final  165.34 input  -60.55 | X-H torsion
[ 11005 11000 10999 10996 ] final -135.17 input  -57.11 | X-H torsion

> <Gold.Protein.ActiveResidues>
 VAL166  LYS551  ARG553  GLY616  TRP617  ASP618  TYR619  PRO620  LYS621  CYS622 
 ASP623  PHE694  ASN695  SER759  ASP760  ASP761  ALA762  ILE779  LEU786  VAL792 
 PHE793  MET794  SER795  GLU796  ALA797  LYS798  CYS799  TRP800  GLU811  SER814 

> <Gold.Protein.RotatedAtoms>
  152.4017  133.6828  159.6321 H   0  0  0  0  0  0  0  0  0  0  0  0  # atno 6907 bound_to 6896
  150.7907  133.8779  159.3286 H   0  0  0  0  0  0  0  0  0  0  0  0  # atno 6908 bound_to 6896
  151.6543  135.0999  160.0218 H   0  0  0  0  0  0  0  0  0  0  0  0  # atno 6909 bound_to 6896
  145.3964  140.9533  143.2311 H   0  0  0  0  0  0  0  0  0  0  0  0  # atno 7974 bound_to 7965
  156.2031  140.1750  156.7857 H   0  0  0  0  0  0  0  0  0  0  0  0  # atno 8008 bound_to 7997
  154.5618  140.0698  156.8862 H   0  0  0  0  0  0  0  0  0  0  0  0  # atno 8009 bound_to 7997
  155.2833  140.3350  155.4259 H   0  0  0  0  0  0  0  0  0  0  0  0  # atno 8010 bound_to 7997
  140.5887  143.8838  150.6854 H   0  0  0  0  0  0  0  0  0  0  0  0  # atno 10167 bound_to 10162
  156.2885  130.4225  149.8263 H   0  0  0  0  0  0  0  0  0  0  0  0  # atno 10718 bound_to 10713
  154.3226  135.2755  155.2512 H   0  0  0  0  0  0  0  0  0  0  0  0  # atno 10763 bound_to 10752
  154.4859  135.5846  153.6427 H   0  0  0  0  0  0  0  0  0  0  0  0  # atno 10764 bound_to 10752
  152.9875  135.6122  154.3412 H   0  0  0  0  0  0  0  0  0  0  0  0  # atno 10765 bound_to 10752
  140.8922  134.1796  157.4519 H   0  0  0  0  0  0  0  0  0  0  0  0  # atno 11005 bound_to 11000
  144.8404  139.5481  143.6903 LP  0  0  0  0  0  0  0  0  0  0  0  0  # atno 17320 bound_to 7965
  146.2773  139.6785  142.9254 LP  0  0  0  0  0  0  0  0  0  0  0  0  # atno 17321 bound_to 7965
  140.2355  143.3703  152.1530 LP  0  0  0  0  0  0  0  0  0  0  0  0  # atno 17342 bound_to 10162
  139.5214  144.7045  151.5394 LP  0  0  0  0  0  0  0  0  0  0  0  0  # atno 17343 bound_to 10162
  156.5685  130.8414  151.3349 LP  0  0  0  0  0  0  0  0  0  0  0  0  # atno 17370 bound_to 10713
  157.7335  130.9732  150.1983 LP  0  0  0  0  0  0  0  0  0  0  0  0  # atno 17371 bound_to 10713
  139.8731  134.9863  156.5320 LP  0  0  0  0  0  0  0  0  0  0  0  0  # atno 17394 bound_to 11000
  140.8332  133.8262  155.9004 LP  0  0  0  0  0  0  0  0  0  0  0  0  # atno 17395 bound_to 11000

$$$$
