AV-unprocessed.smi:2145|AV-procd|sdf|8735|dock4
  -GOLD-   2272011503D 1   1.00000     0.00000
 Structure written by MMmdl.
 44 46  0  0  0  0  0  0  0  0  1 V2000
  153.1144  142.7564  160.8975 C   0  0  0  0  0  0  0  0  0  0  0  0
  152.2688  143.2975  159.7458 C   0  0  0  0  0  0  0  0  0  0  0  0
  151.8527  144.4538  159.8103 O   0  0  0  0  0  0  0  0  0  0  0  0
  151.9908  142.3865  158.5993 C   0  0  0  0  0  0  0  0  0  0  0  0
  151.0722  142.7842  157.6023 C   0  0  0  0  0  0  0  0  0  0  0  0
  150.7910  141.9416  156.5100 C   0  0  0  0  0  0  0  0  0  0  0  0
  151.4176  140.6862  156.3855 C   0  0  0  0  0  0  0  0  0  0  0  0
  151.0836  139.9245  155.2862 O   0  0  0  0  0  0  0  0  0  0  0  0
  151.6892  138.6461  155.1478 C   0  0  0  0  0  0  0  0  0  0  0  0
  150.6291  137.6426  154.6598 C   0  0  1  0  0  0  0  0  0  0  0  0
  151.2910  136.6080  153.9623 O   0  0  0  0  0  0  0  0  0  0  0  0
  149.8239  136.9754  155.7955 C   0  0  0  0  0  0  0  0  0  0  0  0
  149.1173  135.7722  155.3760 N   0  0  0  0  0  0  0  0  0  0  0  0
  147.8342  135.6630  154.9516 C   0  0  0  0  0  0  0  0  0  0  0  0
  146.9294  136.8499  154.8536 C   0  0  0  0  0  0  0  0  0  0  0  0
  147.4319  134.4349  154.6242 N   0  0  0  0  0  0  0  0  0  0  0  0
  148.5626  133.6748  154.8517 C   0  0  0  0  0  0  0  0  0  0  0  0
  148.7841  132.2880  154.6927 C   0  0  0  0  0  0  0  0  0  0  0  0
  150.0428  131.7270  154.9930 C   0  0  0  0  0  0  0  0  0  0  0  0
  151.0958  132.5426  155.4558 C   0  0  0  0  0  0  0  0  0  0  0  0
  150.8966  133.9268  155.6204 C   0  0  0  0  0  0  0  0  0  0  0  0
  149.6382  134.4820  155.3193 C   0  0  0  0  0  0  0  0  0  0  0  0
  152.3395  140.2855  157.3839 C   0  0  0  0  0  0  0  0  0  0  0  0
  152.6216  141.1267  158.4776 C   0  0  0  0  0  0  0  0  0  0  0  0
  152.6227  141.9026  161.3638 H   0  0  0  0  0  0  0  0  0  0  0  0
  153.2574  143.5237  161.6584 H   0  0  0  0  0  0  0  0  0  0  0  0
  154.0961  142.4457  160.5393 H   0  0  0  0  0  0  0  0  0  0  0  0
  150.5715  143.7399  157.6644 H   0  0  0  0  0  0  0  0  0  0  0  0
  150.0845  142.2639  155.7592 H   0  0  0  0  0  0  0  0  0  0  0  0
  152.5392  138.6737  154.4636 H   0  0  0  0  0  0  0  0  0  0  0  0
  152.0581  138.3496  156.1292 H   0  0  0  0  0  0  0  0  0  0  0  0
  149.9435  138.1413  153.9747 H   0  0  0  0  0  0  0  0  0  0  0  0
  151.3182  136.8363  153.0453 H   0  0  0  0  0  0  0  0  0  0  0  0
  150.4817  136.7209  156.6272 H   0  0  0  0  0  0  0  0  0  0  0  0
  149.0933  137.6784  156.1976 H   0  0  0  0  0  0  0  0  0  0  0  0
  145.9524  136.5535  154.4700 H   0  0  0  0  0  0  0  0  0  0  0  0
  147.3504  137.5928  154.1760 H   0  0  0  0  0  0  0  0  0  0  0  0
  146.7873  137.3024  155.8344 H   0  0  0  0  0  0  0  0  0  0  0  0
  147.9840  131.6549  154.3388 H   0  0  0  0  0  0  0  0  0  0  0  0
  150.2005  130.6658  154.8679 H   0  0  0  0  0  0  0  0  0  0  0  0
  152.0567  132.1049  155.6840 H   0  0  0  0  0  0  0  0  0  0  0  0
  151.7008  134.5531  155.9772 H   0  0  0  0  0  0  0  0  0  0  0  0
  152.8457  139.3333  157.3363 H   0  0  0  0  0  0  0  0  0  0  0  0
  153.3303  140.7807  159.2151 H   0  0  0  0  0  0  0  0  0  0  0  0
  1  2  1  0  0  0  0
  1 25  1  0  0  0  0
  1 26  1  0  0  0  0
  1 27  1  0  0  0  0
  2  3  2  0  0  0  0
  2  4  1  0  0  0  0
  4 24  1  0  0  0  0
  4  5  2  0  0  0  0
  5  6  1  0  0  0  0
  5 28  1  0  0  0  0
  6  7  2  0  0  0  0
  6 29  1  0  0  0  0
  7  8  1  0  0  0  0
  7 23  1  0  0  0  0
  8  9  1  0  0  0  0
  9 10  1  0  0  0  0
  9 30  1  0  0  0  0
  9 31  1  0  0  0  0
 10 11  1  0  0  0  0
 10 12  1  0  0  0  0
 10 32  1  0  0  0  0
 11 33  1  0  0  0  0
 12 13  1  0  0  0  0
 12 34  1  0  0  0  0
 12 35  1  0  0  0  0
 13 22  1  0  0  0  0
 13 14  1  0  0  0  0
 14 15  1  0  0  0  0
 14 16  2  0  0  0  0
 15 36  1  0  0  0  0
 15 37  1  0  0  0  0
 15 38  1  0  0  0  0
 16 17  1  0  0  0  0
 17 22  2  0  0  0  0
 17 18  1  0  0  0  0
 18 19  2  0  0  0  0
 18 39  1  0  0  0  0
 19 20  1  0  0  0  0
 19 40  1  0  0  0  0
 20 21  2  0  0  0  0
 20 41  1  0  0  0  0
 21 22  1  0  0  0  0
 21 42  1  0  0  0  0
 23 24  2  0  0  0  0
 23 43  1  0  0  0  0
 24 44  1  0  0  0  0
M  END
> <s_m_source_file>
AV-unprocessed.smi

> <i_m_source_file_index>
2145

> <i_lp_mmshare_version>
43012

> <i_f3d_flags>
0

> <s_epik_input>
W0NIM11DKD1PKWMxW2NIXVtjSF1jKFtjSF1bY0hdMSlPW0NIMl1bQ0BIXShbT0hdKVtDSDJdbihjKG4yKVtDSDNdKWMoYzIzKVtjSF1bY0hdW2NIXVtjSF0z

> <s_epik_cmdline>
J2VwaWtfcHl0aG9uJywgJy1waCcsICc3LjAnLCAnLXRuJywgJzgnLCAnLW1hJywgJzIwMCcsICctbWV0YWxfYmluZGluZycsICctaW1hZScsICc8aW5maWxlLm1hZT4nLCAnLW9tYWUnLCAnPG91dGZpbGUubWFlPic=

> <r_lp_tautomer_probability>
0.99995

> <r_epik_Ionization_Penalty>
0.109398

> <r_epik_Ionization_Penalty_Charging>
0

> <r_epik_Ionization_Penalty_Neutral>
0.109398

> <r_epik_State_Penalty>
0.0991698

> <r_epik_Charging_Adjusted_Penalty>
0.0991698

> <i_epik_Tot_Q>
0

> <i_epik_Tot_abs_Q>
0

> <r_epik_Metal_State_Penalty>
0.000107943

> <b_epik_Metal_Only>
0

> <s_lp_Force_Field>
OPLS_2005

> <r_lp_Energy>
22.9418

> <b_lp_Chiralities_Consistent>
1

> <s_lp_Variant>
AV-unprocessed.smi:2145-2

> <Gold.Version>
5.8.1

> <Gold.Id.Protein>
6NUR|6NUR_protein|mol2

> <Gold.PLP.Fitness>
48.9013

> <Gold.PLP.PLP>
-42.5568

> <Gold.PLP.part.hbond>
-3.6120

> <Gold.PLP.part.metal>
0.0000

> <Gold.PLP.part.buried>
-4.5356

> <Gold.PLP.part.nonpolar>
-34.5418

> <Gold.PLP.part.repulsive>
0.1839

> <Gold.PLP.ligand.clash>
0.0000

> <Gold.PLP.ligand.torsion>
1.1230

> <Gold.PLP.Chemscore.Hbond>
2.7840

> <Gold.PLP.Chemscore.CHOScore>
0.0000

> <Gold.PLP.Chemscore.Metal>
0.0000

> <Gold.Chemscore.Hbonds>
donor molecule, donor type, donor heavy atom, donor atom, acceptor molecule, acceptor atom, score
      L1  H    11    33       P1  7949  0.74
      P1  H  7989  7998       L1     8  0.84
      P1  H 10752 10765       L1    11  1.00

> <Gold.PLP.Chemscore.Internal.Correction>
0.2385

> <Gold.Rescore>
     Score         DG    S(hbond)    S(metal)    S(lipo)     H(rot)  DE(clash)    DE(int)     intcor
     16.51     -19.41       2.07        0.00     108.54       2.22       0.79       2.11       ----

> <Gold.Chemscore.Fitness>
16.5085

> <Gold.Chemscore.DG>
-19.4069

> <Gold.Chemscore.ZeroCoef>
-5.4800

> <Gold.Chemscore.Hbond>
2.0672

> <Gold.Chemscore.Metal>
0.0000

> <Gold.Chemscore.Lipo>
108.5405

> <Gold.Chemscore.Internal_Hbond>
0.0000

> <Gold.Chemscore.DEClash>
0.7872

> <Gold.Chemscore.DEInternal>
2.1112

> <Gold.Chemscore.Rot>
2.2176

> <Gold.Chemscore.Internal.Correction>
   9.000000E+99

> <Gold.Chemscore.Hbonds>
donor molecule, donor type, donor heavy atom, donor atom, acceptor molecule, acceptor atom, score
      L1  H    11    33       P1  7949  0.55
      P1  H  7989  7998       L1     8  0.22
      P1  H 10752 10765       L1    11  0.74

> <Gold.Chemscore.Hbond.Weighted>
-6.9046

> <Gold.Chemscore.Metal.Weighted>
-0.0000

> <Gold.Chemscore.Lipo.Weighted>
-12.6992

> <Gold.Chemscore.Internal_Hbond.Weighted>
0.0000

> <Gold.Chemscore.DEClash.Weighted>
0.7872

> <Gold.Chemscore.DEInternal.Weighted>
2.1112

> <Gold.Chemscore.Rot.Weighted>
5.6769

> <Gold.Chemscore.Internal.Correction.Weighted>
   9.000000E+99

> <Gold.Protein.RotatedTorsions>
[ 6907 6896 6895 6894 ] final  143.24 input  -60.11 | X-H torsion
[ 7974 7965 7964 7962 ] final   90.95 input  175.53 | X-H torsion
[ 8008 7997 7996 7995 ] final -173.62 input   59.86 | X-H torsion
[ 10167 10162 10161 10158 ] final   70.04 input  -65.29 | X-H torsion
[ 10718 10713 10712 10709 ] final   99.17 input   66.30 | X-H torsion
[ 10763 10752 10751 10750 ] final  176.38 input  -60.55 | X-H torsion
[ 11005 11000 10999 10996 ] final -167.87 input  -57.11 | X-H torsion

> <Gold.Protein.ActiveResidues>
 VAL166  LYS551  ARG553  GLY616  TRP617  ASP618  TYR619  PRO620  LYS621  CYS622 
 ASP623  PHE694  ASN695  SER759  ASP760  ASP761  ALA762  ILE779  LEU786  VAL792 
 PHE793  MET794  SER795  GLU796  ALA797  LYS798  CYS799  TRP800  GLU811  SER814 

> <Gold.Protein.RotatedAtoms>
  152.2087  133.4895  159.5097 H   0  0  0  0  0  0  0  0  0  0  0  0  # atno 6907 bound_to 6896
  150.6985  134.1495  159.4144 H   0  0  0  0  0  0  0  0  0  0  0  0  # atno 6908 bound_to 6896
  151.9414  135.0211  160.0587 H   0  0  0  0  0  0  0  0  0  0  0  0  # atno 6909 bound_to 6896
  145.5122  139.2277  143.2718 H   0  0  0  0  0  0  0  0  0  0  0  0  # atno 7974 bound_to 7965
  155.9597  140.1142  157.0906 H   0  0  0  0  0  0  0  0  0  0  0  0  # atno 8008 bound_to 7997
  154.4129  140.1184  156.5230 H   0  0  0  0  0  0  0  0  0  0  0  0  # atno 8009 bound_to 7997
  155.6736  140.3473  155.4830 H   0  0  0  0  0  0  0  0  0  0  0  0  # atno 8010 bound_to 7997
  140.0613  144.5230  150.7292 H   0  0  0  0  0  0  0  0  0  0  0  0  # atno 10167 bound_to 10162
  157.6881  131.0662  150.4908 H   0  0  0  0  0  0  0  0  0  0  0  0  # atno 10718 bound_to 10713
  154.4804  135.2774  155.1575 H   0  0  0  0  0  0  0  0  0  0  0  0  # atno 10763 bound_to 10752
  154.3288  135.6194  153.5545 H   0  0  0  0  0  0  0  0  0  0  0  0  # atno 10764 bound_to 10752
  152.9874  135.5760  154.5203 H   0  0  0  0  0  0  0  0  0  0  0  0  # atno 10765 bound_to 10752
  140.5483  134.5453  157.5116 H   0  0  0  0  0  0  0  0  0  0  0  0  # atno 11005 bound_to 11000
  146.2159  140.5929  142.9038 LP  0  0  0  0  0  0  0  0  0  0  0  0  # atno 17320 bound_to 7965
  144.7721  140.5660  143.6663 LP  0  0  0  0  0  0  0  0  0  0  0  0  # atno 17321 bound_to 7965
  140.7170  143.2554  151.4401 LP  0  0  0  0  0  0  0  0  0  0  0  0  # atno 17342 bound_to 10162
  139.5892  144.1536  152.2067 LP  0  0  0  0  0  0  0  0  0  0  0  0  # atno 17343 bound_to 10162
  156.5235  130.4167  149.6238 LP  0  0  0  0  0  0  0  0  0  0  0  0  # atno 17370 bound_to 10713
  156.3133  130.7241  151.2138 LP  0  0  0  0  0  0  0  0  0  0  0  0  # atno 17371 bound_to 10713
  139.9468  134.7688  156.0543 LP  0  0  0  0  0  0  0  0  0  0  0  0  # atno 17394 bound_to 11000
  141.1186  133.6620  156.3158 LP  0  0  0  0  0  0  0  0  0  0  0  0  # atno 17395 bound_to 11000

$$$$
