AV-unprocessed.smi:3168|AV-procd|sdf|12101|dock3
  -GOLD-   2272017533D 1   1.00000     0.00000
 Structure written by MMmdl.
 33 34  0  0  0  0  0  0  0  0  1 V2000
  149.9380  138.0362  155.2759 C   0  0  0  0  0  0  0  0  0  0  0  0
  150.7025  139.3721  155.1738 C   0  0  2  0  0  0  0  0  0  0  0  0
  151.9052  139.4525  156.1304 C   0  0  0  0  0  0  0  0  0  0  0  0
  153.0580  139.4173  155.6981 O   0  0  0  0  0  0  0  0  0  0  0  0
  151.6172  139.5753  157.4364 N   0  0  0  0  0  0  0  0  0  0  0  0
  152.5980  139.7023  158.5078 C   0  0  0  0  0  0  0  0  0  0  0  0
  152.2433  140.8605  159.4540 C   0  0  1  0  0  0  0  0  0  0  0  0
  153.2880  141.1066  160.5400 C   0  0  0  0  0  0  0  0  0  0  0  0
  153.0023  142.5428  160.9148 C   0  0  0  0  0  0  0  0  0  0  0  0
  152.6577  143.1620  159.5622 C   0  0  0  0  0  0  0  0  0  0  0  0
  152.1693  142.0972  158.7494 O   0  0  0  0  0  0  0  0  0  0  0  0
  149.8193  140.5195  155.3539 N   0  0  0  0  0  0  0  0  0  0  0  0
  148.7555  140.9043  154.5625 C   0  0  0  0  0  0  0  0  0  0  0  0
  148.2424  142.0528  155.0935 C   0  0  0  0  0  0  0  0  0  0  0  0
  149.0734  142.3045  156.2201 C   0  0  0  0  0  0  0  0  0  0  0  0
  150.0184  141.3911  156.3703 N   0  0  0  0  0  0  0  0  0  0  0  0
  150.5965  137.1894  155.0788 H   0  0  0  0  0  0  0  0  0  0  0  0
  149.1285  137.9956  154.5466 H   0  0  0  0  0  0  0  0  0  0  0  0
  149.4994  137.8905  156.2640 H   0  0  0  0  0  0  0  0  0  0  0  0
  151.1047  139.4335  154.1614 H   0  0  0  0  0  0  0  0  0  0  0  0
  150.6445  139.5958  157.7060 H   0  0  0  0  0  0  0  0  0  0  0  0
  152.6002  138.7644  159.0639 H   0  0  0  0  0  0  0  0  0  0  0  0
  153.6062  139.8247  158.1085 H   0  0  0  0  0  0  0  0  0  0  0  0
  151.2755  140.6809  159.9256 H   0  0  0  0  0  0  0  0  0  0  0  0
  153.1980  140.4189  161.3813 H   0  0  0  0  0  0  0  0  0  0  0  0
  154.2965  141.0208  160.1322 H   0  0  0  0  0  0  0  0  0  0  0  0
  152.1389  142.5889  161.5798 H   0  0  0  0  0  0  0  0  0  0  0  0
  153.8408  143.0345  161.4085 H   0  0  0  0  0  0  0  0  0  0  0  0
  151.9214  143.9610  159.6523 H   0  0  0  0  0  0  0  0  0  0  0  0
  153.5493  143.5755  159.0900 H   0  0  0  0  0  0  0  0  0  0  0  0
  148.4552  140.3346  153.6953 H   0  0  0  0  0  0  0  0  0  0  0  0
  147.4033  142.6274  154.7303 H   0  0  0  0  0  0  0  0  0  0  0  0
  149.0208  143.1198  156.9267 H   0  0  0  0  0  0  0  0  0  0  0  0
  1  2  1  0  0  0  0
  1 17  1  0  0  0  0
  1 18  1  0  0  0  0
  1 19  1  0  0  0  0
  2  3  1  0  0  0  0
  2 12  1  0  0  0  0
  2 20  1  0  0  0  0
  3  4  2  0  0  0  0
  3  5  1  0  0  0  0
  5  6  1  0  0  0  0
  5 21  1  0  0  0  0
  6  7  1  0  0  0  0
  6 22  1  0  0  0  0
  6 23  1  0  0  0  0
  7 11  1  0  0  0  0
  7  8  1  0  0  0  0
  7 24  1  0  0  0  0
  8  9  1  0  0  0  0
  8 25  1  0  0  0  0
  8 26  1  0  0  0  0
  9 10  1  0  0  0  0
  9 27  1  0  0  0  0
  9 28  1  0  0  0  0
 10 11  1  0  0  0  0
 10 29  1  0  0  0  0
 10 30  1  0  0  0  0
 12 16  1  0  0  0  0
 12 13  1  0  0  0  0
 13 14  2  0  0  0  0
 13 31  1  0  0  0  0
 14 15  1  0  0  0  0
 14 32  1  0  0  0  0
 15 16  2  0  0  0  0
 15 33  1  0  0  0  0
M  END
> <s_m_source_file>
AV-unprocessed.smi

> <i_m_source_file_index>
3168

> <i_lp_mmshare_version>
43012

> <i_f3d_flags>
0

> <s_epik_input>
bjFbY0hdW2NIXVtjSF1uMVtDQEhdKFtDSDNdKUMoPU8pW05IXVtDSDJdW0NAQEhdMltDSDJdW0NIMl1bQ0gyXU8y

> <s_epik_cmdline>
J2VwaWtfcHl0aG9uJywgJy1waCcsICc3LjAnLCAnLXRuJywgJzgnLCAnLW1hJywgJzIwMCcsICctbWV0YWxfYmluZGluZycsICctaW1hZScsICc8aW5maWxlLm1hZT4nLCAnLW9tYWUnLCAnPG91dGZpbGUubWFlPic=

> <r_lp_tautomer_probability>
1

> <r_epik_Ionization_Penalty>
4.14877e-05

> <r_epik_Ionization_Penalty_Charging>
0

> <r_epik_Ionization_Penalty_Neutral>
4.14877e-05

> <r_epik_State_Penalty>
-0

> <r_epik_Charging_Adjusted_Penalty>
0

> <i_epik_Tot_Q>
0

> <i_epik_Tot_abs_Q>
0

> <r_epik_Metal_State_Penalty>
-0

> <b_epik_Metal_Only>
0

> <s_lp_Force_Field>
OPLS_2005

> <r_lp_Energy>
21.5397

> <b_lp_Chiralities_Consistent>
1

> <s_lp_Variant>
AV-unprocessed.smi:3168-3

> <Gold.Version>
5.8.1

> <Gold.Id.Protein>
6NUR|6NUR_protein|mol2

> <Gold.PLP.Fitness>
39.8093

> <Gold.PLP.PLP>
-31.7642

> <Gold.PLP.part.hbond>
-0.8590

> <Gold.PLP.part.metal>
0.0000

> <Gold.PLP.part.buried>
0.4509

> <Gold.PLP.part.nonpolar>
-31.2119

> <Gold.PLP.part.repulsive>
0.1298

> <Gold.PLP.ligand.clash>
0.0000

> <Gold.PLP.ligand.torsion>
0.2828

> <Gold.PLP.Chemscore.Hbond>
1.0000

> <Gold.PLP.Chemscore.CHOScore>
1.8355

> <Gold.PLP.Chemscore.Metal>
0.0000

> <Gold.Chemscore.Hbonds>
donor molecule, donor type, donor heavy atom, donor atom, acceptor molecule, acceptor atom, score
      P1  H  7997  8008       L1     4  1.00
      L1  C    13    31       P1  7957  0.33
      L1  C    15    33       P1  8028  0.43

> <Gold.PLP.Chemscore.Internal.Correction>
0.1042

> <Gold.Rescore>
     Score         DG    S(hbond)    S(metal)    S(lipo)     H(rot)  DE(clash)    DE(int)     intcor
     11.86     -13.70       0.95        0.00      78.39       1.61       0.07       1.77       ----

> <Gold.Chemscore.Fitness>
11.8641

> <Gold.Chemscore.DG>
-13.6988

> <Gold.Chemscore.ZeroCoef>
-5.4800

> <Gold.Chemscore.Hbond>
0.9484

> <Gold.Chemscore.Metal>
0.0000

> <Gold.Chemscore.Lipo>
78.3855

> <Gold.Chemscore.Internal_Hbond>
0.0000

> <Gold.Chemscore.DEClash>
0.0655

> <Gold.Chemscore.DEInternal>
1.7692

> <Gold.Chemscore.Rot>
1.6094

> <Gold.Chemscore.Internal.Correction>
   9.000000E+99

> <Gold.Chemscore.Hbonds>
donor molecule, donor type, donor heavy atom, donor atom, acceptor molecule, acceptor atom, score
      P1  H  7997  8008       L1     4  0.96

> <Gold.Chemscore.Hbond.Weighted>
-3.1677

> <Gold.Chemscore.Metal.Weighted>
-0.0000

> <Gold.Chemscore.Lipo.Weighted>
-9.1711

> <Gold.Chemscore.Internal_Hbond.Weighted>
0.0000

> <Gold.Chemscore.DEClash.Weighted>
0.0655

> <Gold.Chemscore.DEInternal.Weighted>
1.7692

> <Gold.Chemscore.Rot.Weighted>
4.1201

> <Gold.Chemscore.Internal.Correction.Weighted>
   9.000000E+99

> <Gold.Protein.RotatedTorsions>
[ 6907 6896 6895 6894 ] final -161.97 input  -60.11 | X-H torsion
[ 7974 7965 7964 7962 ] final -171.70 input  175.53 | X-H torsion
[ 8008 7997 7996 7995 ] final  -28.80 input   59.86 | X-H torsion
[ 10167 10162 10161 10158 ] final   89.76 input  -65.29 | X-H torsion
[ 10718 10713 10712 10709 ] final   22.92 input   66.30 | X-H torsion
[ 10763 10752 10751 10750 ] final -119.93 input  -60.55 | X-H torsion
[ 11005 11000 10999 10996 ] final   69.48 input  -57.11 | X-H torsion

> <Gold.Protein.ActiveResidues>
 VAL166  LYS551  ARG553  GLY616  TRP617  ASP618  TYR619  PRO620  LYS621  CYS622 
 ASP623  PHE694  ASN695  SER759  ASP760  ASP761  ALA762  ILE779  LEU786  VAL792 
 PHE793  MET794  SER795  GLU796  ALA797  LYS798  CYS799  TRP800  GLU811  SER814 

> <Gold.Protein.RotatedAtoms>
  151.3730  133.3848  159.2701 H   0  0  0  0  0  0  0  0  0  0  0  0  # atno 6907 bound_to 6896
  150.9636  134.9021  159.7756 H   0  0  0  0  0  0  0  0  0  0  0  0  # atno 6908 bound_to 6896
  152.5158  134.3690  159.9364 H   0  0  0  0  0  0  0  0  0  0  0  0  # atno 6909 bound_to 6896
  144.7154  140.1882  143.6351 H   0  0  0  0  0  0  0  0  0  0  0  0  # atno 7974 bound_to 7965
  154.4317  140.1835  156.1146 H   0  0  0  0  0  0  0  0  0  0  0  0  # atno 8008 bound_to 7997
  156.0191  140.3342  155.6994 H   0  0  0  0  0  0  0  0  0  0  0  0  # atno 8009 bound_to 7997
  155.6002  140.0639  157.2726 H   0  0  0  0  0  0  0  0  0  0  0  0  # atno 8010 bound_to 7997
  139.8540  144.6578  150.9136 H   0  0  0  0  0  0  0  0  0  0  0  0  # atno 10167 bound_to 10162
  157.1590  130.6708  149.6037 H   0  0  0  0  0  0  0  0  0  0  0  0  # atno 10718 bound_to 10713
  154.8631  135.4221  154.2377 H   0  0  0  0  0  0  0  0  0  0  0  0  # atno 10763 bound_to 10752
  153.3349  135.6990  153.6922 H   0  0  0  0  0  0  0  0  0  0  0  0  # atno 10764 bound_to 10752
  153.5923  135.3552  155.2888 H   0  0  0  0  0  0  0  0  0  0  0  0  # atno 10765 bound_to 10752
  139.9651  134.6994  156.0563 H   0  0  0  0  0  0  0  0  0  0  0  0  # atno 11005 bound_to 11000
  145.8793  139.2314  143.1615 LP  0  0  0  0  0  0  0  0  0  0  0  0  # atno 17320 bound_to 7965
  146.0010  140.8520  143.0018 LP  0  0  0  0  0  0  0  0  0  0  0  0  # atno 17321 bound_to 7965
  140.7784  143.3802  151.1491 LP  0  0  0  0  0  0  0  0  0  0  0  0  # atno 17342 bound_to 10162
  139.7437  143.8884  152.3057 LP  0  0  0  0  0  0  0  0  0  0  0  0  # atno 17343 bound_to 10162
  155.9757  130.4718  150.6477 LP  0  0  0  0  0  0  0  0  0  0  0  0  # atno 17370 bound_to 10713
  157.4150  131.0829  151.1185 LP  0  0  0  0  0  0  0  0  0  0  0  0  # atno 17371 bound_to 10713
  141.1330  133.6582  156.3517 LP  0  0  0  0  0  0  0  0  0  0  0  0  # atno 17394 bound_to 11000
  140.5414  134.6116  157.5381 LP  0  0  0  0  0  0  0  0  0  0  0  0  # atno 17395 bound_to 11000

$$$$
