AV-unprocessed.smi:2275|AV-procd|sdf|9170|dock5
  -GOLD-   2272012383D 1   1.00000     0.00000
 Structure written by MMmdl.
 38 39  0  0  0  0  0  0  0  0  1 V2000
  148.8555  133.7320  157.3403 C   0  0  0  0  0  0  0  0  0  0  0  0
  149.6353  134.9911  157.0051 C   0  0  0  0  0  0  0  0  0  0  0  0
  149.8394  135.8756  158.0683 N   0  0  0  0  0  0  0  0  0  0  0  0
  150.4871  136.9777  157.8749 C   0  0  0  0  0  0  0  0  0  0  0  0
  151.0009  137.3197  156.6135 N   0  0  0  0  0  0  0  0  0  0  0  0
  151.7141  138.6048  156.5269 C   0  0  0  0  0  0  0  0  0  0  0  0
  150.8819  139.6897  155.8071 C   0  0  2  0  0  0  0  0  0  0  0  0
  151.0979  139.6352  154.4111 O   0  0  0  0  0  0  0  0  0  0  0  0
  151.2158  141.1156  156.2784 C   0  0  0  0  0  0  0  0  0  0  0  0
  151.6245  141.0952  157.6412 O   0  0  0  0  0  0  0  0  0  0  0  0
  151.7570  142.2973  158.3025 C   0  0  0  0  0  0  0  0  0  0  0  0
  152.1621  142.2427  159.6523 C   0  0  0  0  0  0  0  0  0  0  0  0
  152.3240  143.4215  160.4054 C   0  0  0  0  0  0  0  0  0  0  0  0
  152.0810  144.6738  159.8119 C   0  0  0  0  0  0  0  0  0  0  0  0
  151.6751  144.7436  158.4663 C   0  0  0  0  0  0  0  0  0  0  0  0
  151.5126  143.5641  157.7135 C   0  0  0  0  0  0  0  0  0  0  0  0
  150.8604  136.5069  155.5265 C   0  0  0  0  0  0  0  0  0  0  0  0
  151.3347  136.8071  154.4292 O   0  0  0  0  0  0  0  0  0  0  0  0
  150.1128  135.2606  155.7594 C   0  0  0  0  0  0  0  0  0  0  0  0
  149.9192  134.3365  154.5636 C   0  0  0  0  0  0  0  0  0  0  0  0
  147.9364  133.6854  156.7555 H   0  0  0  0  0  0  0  0  0  0  0  0
  148.5823  133.7029  158.3960 H   0  0  0  0  0  0  0  0  0  0  0  0
  149.4515  132.8446  157.1261 H   0  0  0  0  0  0  0  0  0  0  0  0
  150.6759  137.6998  158.6712 H   0  0  0  0  0  0  0  0  0  0  0  0
  151.9407  138.9405  157.5407 H   0  0  0  0  0  0  0  0  0  0  0  0
  152.6937  138.4996  156.0554 H   0  0  0  0  0  0  0  0  0  0  0  0
  149.8171  139.5257  155.9769 H   0  0  0  0  0  0  0  0  0  0  0  0
  150.6433  138.8829  154.0648 H   0  0  0  0  0  0  0  0  0  0  0  0
  151.9854  141.5562  155.6420 H   0  0  0  0  0  0  0  0  0  0  0  0
  150.3194  141.7311  156.1876 H   0  0  0  0  0  0  0  0  0  0  0  0
  152.3518  141.2855  160.1154 H   0  0  0  0  0  0  0  0  0  0  0  0
  152.6348  143.3640  161.4380 H   0  0  0  0  0  0  0  0  0  0  0  0
  152.2054  145.5789  160.3882 H   0  0  0  0  0  0  0  0  0  0  0  0
  151.4877  145.7041  158.0092 H   0  0  0  0  0  0  0  0  0  0  0  0
  151.1991  143.6586  156.6849 H   0  0  0  0  0  0  0  0  0  0  0  0
  150.8862  134.0094  154.1804 H   0  0  0  0  0  0  0  0  0  0  0  0
  149.3975  134.8614  153.7626 H   0  0  0  0  0  0  0  0  0  0  0  0
  149.3411  133.4447  154.7992 H   0  0  0  0  0  0  0  0  0  0  0  0
  1  2  1  0  0  0  0
  1 21  1  0  0  0  0
  1 22  1  0  0  0  0
  1 23  1  0  0  0  0
  2 19  2  0  0  0  0
  2  3  1  0  0  0  0
  3  4  2  0  0  0  0
  4  5  1  0  0  0  0
  4 24  1  0  0  0  0
  5  6  1  0  0  0  0
  5 17  1  0  0  0  0
  6  7  1  0  0  0  0
  6 25  1  0  0  0  0
  6 26  1  0  0  0  0
  7  8  1  0  0  0  0
  7  9  1  0  0  0  0
  7 27  1  0  0  0  0
  8 28  1  0  0  0  0
  9 10  1  0  0  0  0
  9 29  1  0  0  0  0
  9 30  1  0  0  0  0
 10 11  1  0  0  0  0
 11 16  1  0  0  0  0
 11 12  2  0  0  0  0
 12 13  1  0  0  0  0
 12 31  1  0  0  0  0
 13 14  2  0  0  0  0
 13 32  1  0  0  0  0
 14 15  1  0  0  0  0
 14 33  1  0  0  0  0
 15 16  2  0  0  0  0
 15 34  1  0  0  0  0
 16 35  1  0  0  0  0
 17 18  2  0  0  0  0
 17 19  1  0  0  0  0
 19 20  1  0  0  0  0
 20 36  1  0  0  0  0
 20 37  1  0  0  0  0
 20 38  1  0  0  0  0
M  END
> <s_m_source_file>
AV-unprocessed.smi

> <i_m_source_file_index>
2275

> <i_lp_mmshare_version>
43012

> <i_f3d_flags>
0

> <s_epik_input>
W0NIM11jMW5bY0hdbihjKD1PKWMxW0NIM10pW0NIMl1bQ0BIXShbT0hdKVtDSDJdT2MyW2NIXVtjSF1bY0hdW2NIXVtjSF0y

> <s_epik_cmdline>
J2VwaWtfcHl0aG9uJywgJy1waCcsICc3LjAnLCAnLXRuJywgJzgnLCAnLW1hJywgJzIwMCcsICctbWV0YWxfYmluZGluZycsICctaW1hZScsICc8aW5maWxlLm1hZT4nLCAnLW9tYWUnLCAnPG91dGZpbGUubWFlPic=

> <r_lp_tautomer_probability>
1

> <r_epik_Ionization_Penalty>
4.18311e-05

> <r_epik_Ionization_Penalty_Charging>
1.04093e-07

> <r_epik_Ionization_Penalty_Neutral>
4.1727e-05

> <r_epik_State_Penalty>
-0

> <r_epik_Charging_Adjusted_Penalty>
1.04093e-07

> <i_epik_Tot_Q>
0

> <i_epik_Tot_abs_Q>
0

> <r_epik_Metal_State_Penalty>
-0

> <b_epik_Metal_Only>
0

> <s_lp_Force_Field>
OPLS_2005

> <r_lp_Energy>
24.2901

> <b_lp_Chiralities_Consistent>
1

> <s_lp_Variant>
AV-unprocessed.smi:2275-1

> <Gold.Version>
5.8.1

> <Gold.Id.Protein>
6NUR|6NUR_protein|mol2

> <Gold.PLP.Fitness>
45.2620

> <Gold.PLP.PLP>
-38.3566

> <Gold.PLP.part.hbond>
-3.0000

> <Gold.PLP.part.metal>
0.0000

> <Gold.PLP.part.buried>
-5.8582

> <Gold.PLP.part.nonpolar>
-29.4531

> <Gold.PLP.part.repulsive>
0.3232

> <Gold.PLP.ligand.clash>
0.0000

> <Gold.PLP.ligand.torsion>
0.8817

> <Gold.PLP.Chemscore.Hbond>
2.8640

> <Gold.PLP.Chemscore.CHOScore>
0.0000

> <Gold.PLP.Chemscore.Metal>
0.0000

> <Gold.Chemscore.Hbonds>
donor molecule, donor type, donor heavy atom, donor atom, acceptor molecule, acceptor atom, score
      P1  H  6896  6907       L1     3  0.76
      P1  H  7989  7998       L1     8  1.00
      P1  H 10752 10764       L1    18  0.83

> <Gold.PLP.Chemscore.Internal.Correction>
0.0767

> <Gold.Rescore>
     Score         DG    S(hbond)    S(metal)    S(lipo)     H(rot)  DE(clash)    DE(int)     intcor
     16.81     -19.08       2.25        0.00     104.11       2.38       0.05       2.21       ----

> <Gold.Chemscore.Fitness>
16.8125

> <Gold.Chemscore.DG>
-19.0776

> <Gold.Chemscore.ZeroCoef>
-5.4800

> <Gold.Chemscore.Hbond>
2.2506

> <Gold.Chemscore.Metal>
0.0000

> <Gold.Chemscore.Lipo>
104.1051

> <Gold.Chemscore.Internal_Hbond>
0.0000

> <Gold.Chemscore.DEClash>
0.0544

> <Gold.Chemscore.DEInternal>
2.2107

> <Gold.Chemscore.Rot>
2.3826

> <Gold.Chemscore.Internal.Correction>
   9.000000E+99

> <Gold.Chemscore.Hbonds>
donor molecule, donor type, donor heavy atom, donor atom, acceptor molecule, acceptor atom, score
      P1  H  6896  6907       L1     3  0.30
      P1  H  7989  7998       L1     8  0.98
      P1  H 10752 10764       L1    18  0.64

> <Gold.Chemscore.Hbond.Weighted>
-7.5169

> <Gold.Chemscore.Metal.Weighted>
-0.0000

> <Gold.Chemscore.Lipo.Weighted>
-12.1803

> <Gold.Chemscore.Internal_Hbond.Weighted>
0.0000

> <Gold.Chemscore.DEClash.Weighted>
0.0544

> <Gold.Chemscore.DEInternal.Weighted>
2.2107

> <Gold.Chemscore.Rot.Weighted>
6.0996

> <Gold.Chemscore.Internal.Correction.Weighted>
   9.000000E+99

> <Gold.Protein.RotatedTorsions>
[ 6907 6896 6895 6894 ] final  -58.92 input  -60.11 | X-H torsion
[ 7974 7965 7964 7962 ] final -101.90 input  175.53 | X-H torsion
[ 8008 7997 7996 7995 ] final  -43.89 input   59.86 | X-H torsion
[ 10167 10162 10161 10158 ] final   68.36 input  -65.29 | X-H torsion
[ 10718 10713 10712 10709 ] final  172.64 input   66.30 | X-H torsion
[ 10763 10752 10751 10750 ] final  -97.30 input  -60.55 | X-H torsion
[ 11005 11000 10999 10996 ] final  -32.53 input  -57.11 | X-H torsion

> <Gold.Protein.ActiveResidues>
 VAL166  LYS551  ARG553  GLY616  TRP617  ASP618  TYR619  PRO620  LYS621  CYS622 
 ASP623  PHE694  ASN695  SER759  ASP760  ASP761  ALA762  ILE779  LEU786  VAL792 
 PHE793  MET794  SER795  GLU796  ALA797  LYS798  CYS799  TRP800  GLU811  SER814 

> <Gold.Protein.RotatedAtoms>
  150.7970  134.7036  159.6563 H   0  0  0  0  0  0  0  0  0  0  0  0  # atno 6907 bound_to 6896
  152.4083  134.6165  160.0049 H   0  0  0  0  0  0  0  0  0  0  0  0  # atno 6908 bound_to 6896
  151.6416  133.3289  159.3167 H   0  0  0  0  0  0  0  0  0  0  0  0  # atno 6909 bound_to 6896
  145.2757  140.9312  143.2961 H   0  0  0  0  0  0  0  0  0  0  0  0  # atno 7974 bound_to 7965
  154.3997  140.1436  156.3594 H   0  0  0  0  0  0  0  0  0  0  0  0  # atno 8008 bound_to 7997
  155.8195  140.3470  155.5485 H   0  0  0  0  0  0  0  0  0  0  0  0  # atno 8009 bound_to 7997
  155.8303  140.0911  157.1787 H   0  0  0  0  0  0  0  0  0  0  0  0  # atno 8010 bound_to 7997
  140.0795  144.5083  150.7171 H   0  0  0  0  0  0  0  0  0  0  0  0  # atno 10167 bound_to 10162
  156.9760  131.0104  151.2893 H   0  0  0  0  0  0  0  0  0  0  0  0  # atno 10718 bound_to 10713
  154.7316  135.5051  153.8973 H   0  0  0  0  0  0  0  0  0  0  0  0  # atno 10763 bound_to 10752
  153.0955  135.6671  153.9779 H   0  0  0  0  0  0  0  0  0  0  0  0  # atno 10764 bound_to 10752
  153.9579  135.3051  155.3414 H   0  0  0  0  0  0  0  0  0  0  0  0  # atno 10765 bound_to 10752
  140.9560  133.7192  156.1294 H   0  0  0  0  0  0  0  0  0  0  0  0  # atno 11005 bound_to 11000
  144.9297  139.4313  143.6501 LP  0  0  0  0  0  0  0  0  0  0  0  0  # atno 17320 bound_to 7965
  146.3232  139.8201  142.8928 LP  0  0  0  0  0  0  0  0  0  0  0  0  # atno 17321 bound_to 7965
  140.7085  143.2486  151.4654 LP  0  0  0  0  0  0  0  0  0  0  0  0  # atno 17342 bound_to 10162
  139.5788  144.1758  152.1939 LP  0  0  0  0  0  0  0  0  0  0  0  0  # atno 17343 bound_to 10162
  157.5559  130.8213  149.8204 LP  0  0  0  0  0  0  0  0  0  0  0  0  # atno 17370 bound_to 10713
  156.0263  130.3778  150.1813 LP  0  0  0  0  0  0  0  0  0  0  0  0  # atno 17371 bound_to 10713
  140.7536  134.4018  157.5537 LP  0  0  0  0  0  0  0  0  0  0  0  0  # atno 17394 bound_to 11000
  139.8862  134.8915  156.2597 LP  0  0  0  0  0  0  0  0  0  0  0  0  # atno 17395 bound_to 11000

$$$$
