AV-unprocessed.smi:1866|AV-procd|sdf|7558|dock3
  -GOLD-   22720 9273D 1   1.00000     0.00000
 Structure written by MMmdl.
 29 30  0  0  0  0  0  0  0  0  2 V2000
  153.4532  142.3107  162.7865 C   0  0  0  0  0  0  0  0  0  0  0  0
  152.6816  142.7189  161.5786 C   0  0  0  0  0  0  0  0  0  0  0  0
  151.7868  143.7096  161.5944 N   0  0  0  0  0  0  0  0  0  0  0  0
  151.1978  143.9017  160.3529 N   0  0  0  0  0  0  0  0  0  0  0  0
  151.6466  143.0497  159.4204 C   0  0  0  0  0  0  0  0  0  0  0  0
  151.2060  143.0736  158.1516 N   0  5  0  0  0  0  0  0  0  0  0  0
  150.7178  141.9471  157.5838 C   0  0  0  0  0  0  0  0  0  0  0  0
  150.8239  140.8013  158.0266 O   0  0  0  0  0  0  0  0  0  0  0  0
  150.0726  142.1644  156.4278 N   0  0  0  0  0  0  0  0  0  0  0  0
  149.4219  141.1607  155.5839 C   0  0  2  0  0  0  0  0  0  0  0  0
  148.0528  140.8130  156.2086 C   0  0  0  0  0  0  0  0  0  0  0  0
  148.1873  139.9136  157.4413 C   0  0  0  0  0  0  0  0  0  0  0  0
  148.8814  138.6023  157.0545 C   0  0  0  0  0  0  0  0  0  0  0  0
  150.0428  138.8096  156.1927 N   0  0  0  0  0  0  0  0  0  0  0  0
  150.3272  139.9111  155.4736 C   0  0  0  0  0  0  0  0  0  0  0  0
  151.3022  139.9367  154.7250 O   0  0  0  0  0  0  0  0  0  0  0  0
  152.8751  141.9351  160.0197 S   0  0  0  0  0  0  0  0  0  0  0  0
  152.8229  141.7156  163.4473 H   0  0  0  0  0  0  0  0  0  0  0  0
  153.7997  143.1910  163.3285 H   0  0  0  0  0  0  0  0  0  0  0  0
  154.3201  141.7156  162.4991 H   0  0  0  0  0  0  0  0  0  0  0  0
  150.0149  143.1211  156.1121 H   0  0  0  0  0  0  0  0  0  0  0  0
  149.2583  141.5724  154.5864 H   0  0  0  0  0  0  0  0  0  0  0  0
  147.5150  141.7259  156.4684 H   0  0  0  0  0  0  0  0  0  0  0  0
  147.4369  140.3062  155.4642 H   0  0  0  0  0  0  0  0  0  0  0  0
  148.7647  140.4257  158.2122 H   0  0  0  0  0  0  0  0  0  0  0  0
  147.2077  139.7071  157.8729 H   0  0  0  0  0  0  0  0  0  0  0  0
  149.1874  138.0576  157.9478 H   0  0  0  0  0  0  0  0  0  0  0  0
  148.1817  137.9606  156.5182 H   0  0  0  0  0  0  0  0  0  0  0  0
  150.6752  138.0282  156.1002 H   0  0  0  0  0  0  0  0  0  0  0  0
  1  2  1  0  0  0  0
  1 18  1  0  0  0  0
  1 19  1  0  0  0  0
  1 20  1  0  0  0  0
  2 17  1  0  0  0  0
  2  3  2  0  0  0  0
  3  4  1  0  0  0  0
  4  5  2  0  0  0  0
  5  6  1  0  0  0  0
  5 17  1  0  0  0  0
  6  7  1  0  0  0  0
  7  8  2  0  0  0  0
  7  9  1  0  0  0  0
  9 10  1  0  0  0  0
  9 21  1  0  0  0  0
 10 15  1  0  0  0  0
 10 11  1  0  0  0  0
 10 22  1  0  0  0  0
 11 12  1  0  0  0  0
 11 23  1  0  0  0  0
 11 24  1  0  0  0  0
 12 13  1  0  0  0  0
 12 25  1  0  0  0  0
 12 26  1  0  0  0  0
 13 14  1  0  0  0  0
 13 27  1  0  0  0  0
 13 28  1  0  0  0  0
 14 15  1  0  0  0  0
 14 29  1  0  0  0  0
 15 16  2  0  0  0  0
M  CHG  1   6  -1
M  END
> <s_m_source_file>
AV-unprocessed.smi

> <i_m_source_file_index>
1866

> <i_lp_mmshare_version>
43012

> <i_f3d_flags>
0

> <s_epik_input>
W0NIM11jMW5uYyhzMSlbTkhdQyg9TylbTkhdW0NAQEhdMltDSDJdW0NIMl1bQ0gyXVtOSF1DMj1P

> <s_epik_cmdline>
J2VwaWtfcHl0aG9uJywgJy1waCcsICc3LjAnLCAnLXRuJywgJzgnLCAnLW1hJywgJzIwMCcsICctbWV0YWxfYmluZGluZycsICctaW1hZScsICc8aW5maWxlLm1hZT4nLCAnLW9tYWUnLCAnPG91dGZpbGUubWFlPic=

> <r_lp_tautomer_probability>
1

> <r_epik_Ionization_Penalty>
3.97471

> <r_epik_Ionization_Penalty_Charging>
3.84029

> <r_epik_Ionization_Penalty_Neutral>
0.134427

> <r_epik_State_Penalty>
3.83938

> <r_epik_Charging_Adjusted_Penalty>
7.67966

> <i_epik_Tot_Q>
-1

> <i_epik_Tot_abs_Q>
1

> <r_epik_Metal_State_Penalty>
0.577306

> <b_epik_Metal_Only>
1

> <s_lp_Force_Field>
OPLS_2005

> <r_lp_Energy>
8.91555

> <b_lp_Chiralities_Consistent>
1

> <s_lp_Variant>
AV-unprocessed.smi:1866-3

> <Gold.Version>
5.8.1

> <Gold.Id.Protein>
6NUR|6NUR_protein|mol2

> <Gold.PLP.Fitness>
31.7076

> <Gold.PLP.PLP>
-27.3055

> <Gold.PLP.part.hbond>
-1.9771

> <Gold.PLP.part.metal>
0.0000

> <Gold.PLP.part.buried>
-7.0736

> <Gold.PLP.part.nonpolar>
-20.4702

> <Gold.PLP.part.repulsive>
0.5074

> <Gold.PLP.ligand.clash>
0.0379

> <Gold.PLP.ligand.torsion>
0.7745

> <Gold.PLP.Chemscore.Hbond>
1.9920

> <Gold.PLP.Chemscore.CHOScore>
0.0000

> <Gold.PLP.Chemscore.Metal>
0.0000

> <Gold.Chemscore.Hbonds>
donor molecule, donor type, donor heavy atom, donor atom, acceptor molecule, acceptor atom, score
      L1  H     9    21       P1  8028  0.99
      P1  H  7989  7998       L1    16  1.00

> <Gold.PLP.Chemscore.Internal.Correction>
0.0131

> <Gold.Rescore>
     Score         DG    S(hbond)    S(metal)    S(lipo)     H(rot)  DE(clash)    DE(int)     intcor
     10.90     -14.50       1.99        0.00      42.03       1.00       0.00       3.60       ----

> <Gold.Chemscore.Fitness>
10.9034

> <Gold.Chemscore.DG>
-14.4998

> <Gold.Chemscore.ZeroCoef>
-5.4800

> <Gold.Chemscore.Hbond>
1.9948

> <Gold.Chemscore.Metal>
0.0000

> <Gold.Chemscore.Lipo>
42.0254

> <Gold.Chemscore.Internal_Hbond>
0.0000

> <Gold.Chemscore.DEClash>
0.0000

> <Gold.Chemscore.DEInternal>
3.5963

> <Gold.Chemscore.Rot>
1.0000

> <Gold.Chemscore.Internal.Correction>
   9.000000E+99

> <Gold.Chemscore.Hbonds>
donor molecule, donor type, donor heavy atom, donor atom, acceptor molecule, acceptor atom, score
      L1  H     9    21       P1  8028  0.89
      P1  H  7989  7998       L1    16  0.97

> <Gold.Chemscore.Hbond.Weighted>
-6.6628

> <Gold.Chemscore.Metal.Weighted>
-0.0000

> <Gold.Chemscore.Lipo.Weighted>
-4.9170

> <Gold.Chemscore.Internal_Hbond.Weighted>
0.0000

> <Gold.Chemscore.DEClash.Weighted>
0.0000

> <Gold.Chemscore.DEInternal.Weighted>
3.5963

> <Gold.Chemscore.Rot.Weighted>
2.5600

> <Gold.Chemscore.Internal.Correction.Weighted>
   9.000000E+99

> <Gold.Protein.RotatedTorsions>
[ 6907 6896 6895 6894 ] final   13.57 input  -60.11 | X-H torsion
[ 7974 7965 7964 7962 ] final   53.05 input  175.53 | X-H torsion
[ 8008 7997 7996 7995 ] final   34.68 input   59.86 | X-H torsion
[ 10167 10162 10161 10158 ] final  120.43 input  -65.29 | X-H torsion
[ 10718 10713 10712 10709 ] final   55.58 input   66.30 | X-H torsion
[ 10763 10752 10751 10750 ] final  170.85 input  -60.55 | X-H torsion
[ 11005 11000 10999 10996 ] final -172.33 input  -57.11 | X-H torsion

> <Gold.Protein.ActiveResidues>
 VAL166  LYS551  ARG553  GLY616  TRP617  ASP618  TYR619  PRO620  LYS621  CYS622 
 ASP623  PHE694  ASN695  SER759  ASP760  ASP761  ALA762  ILE779  LEU786  VAL792 
 PHE793  MET794  SER795  GLU796  ALA797  LYS798  CYS799  TRP800  GLU811  SER814 

> <Gold.Protein.RotatedAtoms>
  151.7883  135.0742  160.0383 H   0  0  0  0  0  0  0  0  0  0  0  0  # atno 6907 bound_to 6896
  152.3174  133.5813  159.5730 H   0  0  0  0  0  0  0  0  0  0  0  0  # atno 6908 bound_to 6896
  150.7351  133.9978  159.3670 H   0  0  0  0  0  0  0  0  0  0  0  0  # atno 6909 bound_to 6896
  145.9751  139.4187  143.0166 H   0  0  0  0  0  0  0  0  0  0  0  0  # atno 7974 bound_to 7965
  155.1587  140.3281  155.4416 H   0  0  0  0  0  0  0  0  0  0  0  0  # atno 8008 bound_to 7997
  156.2550  140.1964  156.6646 H   0  0  0  0  0  0  0  0  0  0  0  0  # atno 8009 bound_to 7997
  154.6420  140.0569  156.9843 H   0  0  0  0  0  0  0  0  0  0  0  0  # atno 8010 bound_to 7997
  139.5982  144.7048  151.3125 H   0  0  0  0  0  0  0  0  0  0  0  0  # atno 10167 bound_to 10162
  157.5357  130.8661  149.8750 H   0  0  0  0  0  0  0  0  0  0  0  0  # atno 10718 bound_to 10713
  154.4035  135.2755  155.2082 H   0  0  0  0  0  0  0  0  0  0  0  0  # atno 10763 bound_to 10752
  154.4098  135.6025  153.5949 H   0  0  0  0  0  0  0  0  0  0  0  0  # atno 10764 bound_to 10752
  152.9831  135.5946  154.4306 H   0  0  0  0  0  0  0  0  0  0  0  0  # atno 10765 bound_to 10752
  140.4982  134.5919  157.4978 H   0  0  0  0  0  0  0  0  0  0  0  0  # atno 11005 bound_to 11000
  145.7850  140.9840  143.1079 LP  0  0  0  0  0  0  0  0  0  0  0  0  # atno 17320 bound_to 7965
  144.6847  139.9611  143.7480 LP  0  0  0  0  0  0  0  0  0  0  0  0  # atno 17321 bound_to 7965
  140.7229  143.7086  150.7788 LP  0  0  0  0  0  0  0  0  0  0  0  0  # atno 17342 bound_to 10162
  140.0656  143.5111  152.2606 LP  0  0  0  0  0  0  0  0  0  0  0  0  # atno 17343 bound_to 10162
  156.0457  130.3728  150.1325 LP  0  0  0  0  0  0  0  0  0  0  0  0  # atno 17370 bound_to 10713
  156.9507  130.9774  151.3499 LP  0  0  0  0  0  0  0  0  0  0  0  0  # atno 17371 bound_to 10713
  139.9729  134.7263  156.0006 LP  0  0  0  0  0  0  0  0  0  0  0  0  # atno 17394 bound_to 11000
  141.1449  133.6558  156.3839 LP  0  0  0  0  0  0  0  0  0  0  0  0  # atno 17395 bound_to 11000

$$$$
