AV-unprocessed.smi:2138|AV-procd|sdf|8711|dock1
  -GOLD-   2272011473D 1   1.00000     0.00000
 Structure written by MMmdl.
 46 47  0  0  0  0  0  0  0  0  1 V2000
  145.9552  132.1055  149.4413 C   0  0  0  0  0  0  0  0  0  0  0  0
  144.7619  132.7846  149.7906 O   0  0  0  0  0  0  0  0  0  0  0  0
  144.1841  132.2862  150.9854 C   0  0  0  0  0  0  0  0  0  0  0  0
  144.8794  132.9351  152.1852 C   0  0  0  0  0  0  0  0  0  0  0  0
  146.1534  132.3228  152.3614 O   0  0  0  0  0  0  0  0  0  0  0  0
  147.1263  133.0134  153.0550 C   0  0  0  0  0  0  0  0  0  0  0  0
  148.4135  132.4493  153.1527 C   0  0  0  0  0  0  0  0  0  0  0  0
  149.4143  133.1492  153.8540 C   0  0  0  0  0  0  0  0  0  0  0  0
  149.0924  134.3953  154.4452 C   0  0  0  0  0  0  0  0  0  0  0  0
  150.0045  135.2156  155.1649 N   0  0  0  0  0  0  0  0  0  0  0  0
  150.0708  136.5578  155.2446 C   0  0  0  0  0  0  0  0  0  0  0  0
  149.3222  137.3358  154.6538 O   0  0  0  0  0  0  0  0  0  0  0  0
  151.1883  137.1151  156.1417 C   0  0  1  0  0  0  0  0  0  0  0  0
  152.2060  137.9443  155.3359 C   0  0  0  0  0  0  0  0  0  0  0  0
  152.0060  139.3650  155.8369 C   0  0  0  0  0  0  0  0  0  0  0  0
  152.5970  140.3256  155.3458 O   0  0  0  0  0  0  0  0  0  0  0  0
  151.1214  139.4045  156.8441 N   0  0  0  0  0  0  0  0  0  0  0  0
  150.6524  140.5792  157.5901 C   0  0  0  0  0  0  0  0  0  0  0  0
  149.9391  141.5857  156.6704 C   0  0  0  0  0  0  0  0  0  0  0  0
  151.7930  141.2324  158.3897 C   0  0  0  0  0  0  0  0  0  0  0  0
  150.6490  138.0804  157.2184 C   0  0  0  0  0  0  0  0  0  0  0  0
  147.7753  134.8735  154.2841 C   0  0  0  0  0  0  0  0  0  0  0  0
  146.8122  134.2086  153.6124 N   0  0  0  0  0  0  0  0  0  0  0  0
  146.3602  132.5266  148.5210 H   0  0  0  0  0  0  0  0  0  0  0  0
  145.7702  131.0438  149.2728 H   0  0  0  0  0  0  0  0  0  0  0  0
  146.7115  132.2099  150.2206 H   0  0  0  0  0  0  0  0  0  0  0  0
  143.1161  132.5081  151.0078 H   0  0  0  0  0  0  0  0  0  0  0  0
  144.2978  131.2020  151.0307 H   0  0  0  0  0  0  0  0  0  0  0  0
  144.9962  134.0052  152.0060 H   0  0  0  0  0  0  0  0  0  0  0  0
  144.2664  132.8058  153.0790 H   0  0  0  0  0  0  0  0  0  0  0  0
  148.6319  131.4971  152.6920 H   0  0  0  0  0  0  0  0  0  0  0  0
  150.4007  132.7177  153.9090 H   0  0  0  0  0  0  0  0  0  0  0  0
  150.7235  134.7148  155.6668 H   0  0  0  0  0  0  0  0  0  0  0  0
  151.7016  136.2843  156.6290 H   0  0  0  0  0  0  0  0  0  0  0  0
  153.2272  137.6255  155.5469 H   0  0  0  0  0  0  0  0  0  0  0  0
  152.0559  137.8969  154.2559 H   0  0  0  0  0  0  0  0  0  0  0  0
  149.9142  140.2313  158.3143 H   0  0  0  0  0  0  0  0  0  0  0  0
  149.5065  142.4014  157.2499 H   0  0  0  0  0  0  0  0  0  0  0  0
  149.1283  141.1072  156.1197 H   0  0  0  0  0  0  0  0  0  0  0  0
  150.6207  142.0278  155.9435 H   0  0  0  0  0  0  0  0  0  0  0  0
  151.4144  142.0372  159.0203 H   0  0  0  0  0  0  0  0  0  0  0  0
  152.5540  141.6605  157.7369 H   0  0  0  0  0  0  0  0  0  0  0  0
  152.2806  140.5069  159.0416 H   0  0  0  0  0  0  0  0  0  0  0  0
  149.5598  138.0694  157.2919 H   0  0  0  0  0  0  0  0  0  0  0  0
  151.0458  137.8226  158.2012 H   0  0  0  0  0  0  0  0  0  0  0  0
  147.4814  135.8225  154.7084 H   0  0  0  0  0  0  0  0  0  0  0  0
  1  2  1  0  0  0  0
  1 24  1  0  0  0  0
  1 25  1  0  0  0  0
  1 26  1  0  0  0  0
  2  3  1  0  0  0  0
  3  4  1  0  0  0  0
  3 27  1  0  0  0  0
  3 28  1  0  0  0  0
  4  5  1  0  0  0  0
  4 29  1  0  0  0  0
  4 30  1  0  0  0  0
  5  6  1  0  0  0  0
  6 23  1  0  0  0  0
  6  7  2  0  0  0  0
  7  8  1  0  0  0  0
  7 31  1  0  0  0  0
  8  9  2  0  0  0  0
  8 32  1  0  0  0  0
  9 10  1  0  0  0  0
  9 22  1  0  0  0  0
 10 11  1  0  0  0  0
 10 33  1  0  0  0  0
 11 12  2  0  0  0  0
 11 13  1  0  0  0  0
 13 21  1  0  0  0  0
 13 14  1  0  0  0  0
 13 34  1  0  0  0  0
 14 15  1  0  0  0  0
 14 35  1  0  0  0  0
 14 36  1  0  0  0  0
 15 16  2  0  0  0  0
 15 17  1  0  0  0  0
 17 18  1  0  0  0  0
 17 21  1  0  0  0  0
 18 19  1  0  0  0  0
 18 20  1  0  0  0  0
 18 37  1  0  0  0  0
 19 38  1  0  0  0  0
 19 39  1  0  0  0  0
 19 40  1  0  0  0  0
 20 41  1  0  0  0  0
 20 42  1  0  0  0  0
 20 43  1  0  0  0  0
 21 44  1  0  0  0  0
 21 45  1  0  0  0  0
 22 23  2  0  0  0  0
 22 46  1  0  0  0  0
M  END
> <s_m_source_file>
AV-unprocessed.smi

> <i_m_source_file_index>
2138

> <i_lp_mmshare_version>
43012

> <i_f3d_flags>
0

> <s_epik_input>
W0NIM11PW0NIMl1bQ0gyXU9jMVtjSF1bY0hdYyhbY0hdbjEpW05IXUMoPU8pW0NAQEhdMltDSDJdQyg9TylOKFtDSDJdMilbQ0hdKFtDSDNdKVtDSDNd

> <s_epik_cmdline>
J2VwaWtfcHl0aG9uJywgJy1waCcsICc3LjAnLCAnLXRuJywgJzgnLCAnLW1hJywgJzIwMCcsICctbWV0YWxfYmluZGluZycsICctaW1hZScsICc8aW5maWxlLm1hZT4nLCAnLW9tYWUnLCAnPG91dGZpbGUubWFlPic=

> <r_lp_tautomer_probability>
1

> <r_epik_Ionization_Penalty>
1.72652e-05

> <r_epik_Ionization_Penalty_Charging>
0

> <r_epik_Ionization_Penalty_Neutral>
1.72652e-05

> <r_epik_State_Penalty>
-0

> <r_epik_Charging_Adjusted_Penalty>
0

> <i_epik_Tot_Q>
0

> <i_epik_Tot_abs_Q>
0

> <r_epik_Metal_State_Penalty>
-0

> <b_epik_Metal_Only>
0

> <s_lp_Force_Field>
OPLS_2005

> <r_lp_Energy>
21.5992

> <b_lp_Chiralities_Consistent>
1

> <s_lp_Variant>
AV-unprocessed.smi:2138-2

> <Gold.Version>
5.8.1

> <Gold.Id.Protein>
6NUR|6NUR_protein|mol2

> <Gold.PLP.Fitness>
34.8313

> <Gold.PLP.PLP>
-31.3376

> <Gold.PLP.part.hbond>
-2.0000

> <Gold.PLP.part.metal>
0.0000

> <Gold.PLP.part.buried>
-0.9495

> <Gold.PLP.part.nonpolar>
-29.8449

> <Gold.PLP.part.repulsive>
2.1493

> <Gold.PLP.ligand.clash>
0.0000

> <Gold.PLP.ligand.torsion>
0.6039

> <Gold.PLP.Chemscore.Hbond>
1.4917

> <Gold.PLP.Chemscore.CHOScore>
0.0000

> <Gold.PLP.Chemscore.Metal>
0.0000

> <Gold.Chemscore.Hbonds>
donor molecule, donor type, donor heavy atom, donor atom, acceptor molecule, acceptor atom, score
      P1  H  7989  7998       L1    16  0.35
      P1  H  7997  8009       L1    16  1.00

> <Gold.PLP.Chemscore.Internal.Correction>
0.2265

> <Gold.Rescore>
     Score         DG    S(hbond)    S(metal)    S(lipo)     H(rot)  DE(clash)    DE(int)     intcor
      9.04     -13.58       1.25        0.00      77.54       2.00       1.52       3.02       ----

> <Gold.Chemscore.Fitness>
9.0371

> <Gold.Chemscore.DG>
-13.5835

> <Gold.Chemscore.ZeroCoef>
-5.4800

> <Gold.Chemscore.Hbond>
1.2457

> <Gold.Chemscore.Metal>
0.0000

> <Gold.Chemscore.Lipo>
77.5367

> <Gold.Chemscore.Internal_Hbond>
0.0000

> <Gold.Chemscore.DEClash>
1.5223

> <Gold.Chemscore.DEInternal>
3.0241

> <Gold.Chemscore.Rot>
2.0035

> <Gold.Chemscore.Internal.Correction>
   9.000000E+99

> <Gold.Chemscore.Hbonds>
donor molecule, donor type, donor heavy atom, donor atom, acceptor molecule, acceptor atom, score
      P1  H  7989  7998       L1    16  0.26
      P1  H  7997  8009       L1    16  0.63

> <Gold.Chemscore.Hbond.Weighted>
-4.1608

> <Gold.Chemscore.Metal.Weighted>
-0.0000

> <Gold.Chemscore.Lipo.Weighted>
-9.0718

> <Gold.Chemscore.Internal_Hbond.Weighted>
0.0000

> <Gold.Chemscore.DEClash.Weighted>
1.5223

> <Gold.Chemscore.DEInternal.Weighted>
3.0241

> <Gold.Chemscore.Rot.Weighted>
5.1290

> <Gold.Chemscore.Internal.Correction.Weighted>
   9.000000E+99

> <Gold.Protein.RotatedTorsions>
[ 6907 6896 6895 6894 ] final   61.18 input  -60.11 | X-H torsion
[ 7974 7965 7964 7962 ] final  -18.83 input  175.53 | X-H torsion
[ 8008 7997 7996 7995 ] final -133.00 input   59.86 | X-H torsion
[ 10167 10162 10161 10158 ] final  -38.25 input  -65.29 | X-H torsion
[ 10718 10713 10712 10709 ] final   75.57 input   66.30 | X-H torsion
[ 10763 10752 10751 10750 ] final  116.84 input  -60.55 | X-H torsion
[ 11005 11000 10999 10996 ] final   96.04 input  -57.11 | X-H torsion

> <Gold.Protein.ActiveResidues>
 VAL166  LYS551  ARG553  GLY616  TRP617  ASP618  TYR619  PRO620  LYS621  CYS622 
 ASP623  PHE694  ASN695  SER759  ASP760  ASP761  ALA762  ILE779  LEU786  VAL792 
 PHE793  MET794  SER795  GLU796  ALA797  LYS798  CYS799  TRP800  GLU811  SER814 

> <Gold.Protein.RotatedAtoms>
  152.4067  134.6195  160.0046 H   0  0  0  0  0  0  0  0  0  0  0  0  # atno 6907 bound_to 6896
  151.6384  133.3322  159.3132 H   0  0  0  0  0  0  0  0  0  0  0  0  # atno 6908 bound_to 6896
  150.7961  134.7063  159.6623 H   0  0  0  0  0  0  0  0  0  0  0  0  # atno 6909 bound_to 6896
  146.1872  140.3976  142.8471 H   0  0  0  0  0  0  0  0  0  0  0  0  # atno 7974 bound_to 7965
  155.3382  140.0470  157.3044 H   0  0  0  0  0  0  0  0  0  0  0  0  # atno 8008 bound_to 7997
  154.5291  140.2251  155.8801 H   0  0  0  0  0  0  0  0  0  0  0  0  # atno 8009 bound_to 7997
  156.1770  140.3083  155.9084 H   0  0  0  0  0  0  0  0  0  0  0  0  # atno 8010 bound_to 7997
  140.7097  143.3289  151.2615 H   0  0  0  0  0  0  0  0  0  0  0  0  # atno 10167 bound_to 10162
  157.6639  130.9733  150.1373 H   0  0  0  0  0  0  0  0  0  0  0  0  # atno 10718 bound_to 10713
  153.5433  135.3554  155.2728 H   0  0  0  0  0  0  0  0  0  0  0  0  # atno 10763 bound_to 10752
  154.8715  135.4096  154.3019 H   0  0  0  0  0  0  0  0  0  0  0  0  # atno 10764 bound_to 10752
  153.3731  135.7065  153.6691 H   0  0  0  0  0  0  0  0  0  0  0  0  # atno 10765 bound_to 10752
  139.8784  134.8930  156.4099 H   0  0  0  0  0  0  0  0  0  0  0  0  # atno 11005 bound_to 11000
  144.8420  140.6871  143.6223 LP  0  0  0  0  0  0  0  0  0  0  0  0  # atno 17320 bound_to 7965
  145.3902  139.1618  143.4233 LP  0  0  0  0  0  0  0  0  0  0  0  0  # atno 17321 bound_to 7965
  139.6765  143.9928  152.2784 LP  0  0  0  0  0  0  0  0  0  0  0  0  # atno 17342 bound_to 10162
  139.9544  144.6599  150.8140 LP  0  0  0  0  0  0  0  0  0  0  0  0  # atno 17343 bound_to 10162
  156.2204  130.3673  149.8562 LP  0  0  0  0  0  0  0  0  0  0  0  0  # atno 17370 bound_to 10713
  156.6417  130.8707  151.3515 LP  0  0  0  0  0  0  0  0  0  0  0  0  # atno 17371 bound_to 10713
  140.9207  133.7647  155.9903 LP  0  0  0  0  0  0  0  0  0  0  0  0  # atno 17394 bound_to 11000
  140.8442  134.3030  157.5301 LP  0  0  0  0  0  0  0  0  0  0  0  0  # atno 17395 bound_to 11000

$$$$
