AV-unprocessed.smi:618|AV-procd|sdf|3079|dock2
  -GOLD-   22720 0 03D 1   1.00000     0.00000
 Structure written by MMmdl.
 41 43  0  0  0  0  0  0  0  0  2 V2000
  146.8004  137.2693  155.7882 O   0  0  0  0  0  0  0  0  0  0  0  0
  147.4660  136.9554  154.8024 C   0  0  0  0  0  0  0  0  0  0  0  0
  147.1061  135.9879  153.9475 N   0  0  0  0  0  0  0  0  0  0  0  0
  145.9047  135.1654  154.0629 C   0  0  0  0  0  0  0  0  0  0  0  0
  145.6690  134.2567  152.8386 C   0  0  1  0  0  0  0  0  0  0  0  0
  145.5856  135.0231  151.5006 C   0  0  0  0  0  0  0  0  0  0  0  0
  145.4537  134.1054  150.3453 N   0  3  2  0  0  0  0  0  0  0  0  0
  144.0993  133.5791  150.0693 C   0  0  0  0  0  0  0  0  0  0  0  0
  144.2981  132.2005  149.4196 C   0  0  0  0  0  0  0  0  0  0  0  0
  145.8154  132.0114  149.3129 C   0  0  0  0  0  0  0  0  0  0  0  0
  146.3896  132.9627  150.3638 C   0  0  2  0  0  0  0  0  0  0  0  0
  146.4602  132.3128  151.7641 C   0  0  0  0  0  0  0  0  0  0  0  0
  146.7159  133.2969  152.7557 O   0  0  0  0  0  0  0  0  0  0  0  0
  148.6246  137.5242  154.4275 N   0  0  0  0  0  0  0  0  0  0  0  0
  149.3555  138.5664  155.0607 C   0  0  0  0  0  0  0  0  0  0  0  0
  149.2105  138.9407  156.4192 C   0  0  0  0  0  0  0  0  0  0  0  0
  150.0098  139.9834  156.9259 C   0  0  0  0  0  0  0  0  0  0  0  0
  150.9276  140.6098  156.0608 C   0  0  0  0  0  0  0  0  0  0  0  0
  151.0847  140.2566  154.7680 N   0  0  0  0  0  0  0  0  0  0  0  0
  150.3152  139.2561  154.2891 C   0  0  0  0  0  0  0  0  0  0  0  0
  147.7072  135.8062  153.1571 H   0  0  0  0  0  0  0  0  0  0  0  0
  145.9361  134.5694  154.9766 H   0  0  0  0  0  0  0  0  0  0  0  0
  145.0580  135.8432  154.1742 H   0  0  0  0  0  0  0  0  0  0  0  0
  144.7308  133.7270  153.0115 H   0  0  0  0  0  0  0  0  0  0  0  0
  144.7613  135.7372  151.5071 H   0  0  0  0  0  0  0  0  0  0  0  0
  146.4980  135.5996  151.3458 H   0  0  0  0  0  0  0  0  0  0  0  0
  143.5222  133.4772  150.9891 H   0  0  0  0  0  0  0  0  0  0  0  0
  143.5608  134.2649  149.4147 H   0  0  0  0  0  0  0  0  0  0  0  0
  143.8658  131.4265  150.0551 H   0  0  0  0  0  0  0  0  0  0  0  0
  143.8146  132.1313  148.4446 H   0  0  0  0  0  0  0  0  0  0  0  0
  146.1254  130.9753  149.4548 H   0  0  0  0  0  0  0  0  0  0  0  0
  146.1495  132.3214  148.3218 H   0  0  0  0  0  0  0  0  0  0  0  0
  147.3850  133.3068  150.0796 H   0  0  0  0  0  0  0  0  0  0  0  0
  145.5380  131.7818  152.0066 H   0  0  0  0  0  0  0  0  0  0  0  0
  147.2602  131.5725  151.7905 H   0  0  0  0  0  0  0  0  0  0  0  0
  149.0137  137.1983  153.5549 H   0  0  0  0  0  0  0  0  0  0  0  0
  148.5194  138.4482  157.0844 H   0  0  0  0  0  0  0  0  0  0  0  0
  149.9236  140.2940  157.9566 H   0  0  0  0  0  0  0  0  0  0  0  0
  151.5561  141.4119  156.4184 H   0  0  0  0  0  0  0  0  0  0  0  0
  150.4707  138.9990  153.2513 H   0  0  0  0  0  0  0  0  0  0  0  0
  145.6941  134.6410  149.5232 H   0  0  0  0  0  0  0  0  0  0  0  0
  1  2  2  0  0  0  0
  2  3  1  0  0  0  0
  2 14  1  0  0  0  0
  3  4  1  0  0  0  0
  3 21  1  0  0  0  0
  4  5  1  0  0  0  0
  4 22  1  0  0  0  0
  4 23  1  0  0  0  0
  5 13  1  0  0  0  0
  5  6  1  0  0  0  0
  5 24  1  0  0  0  0
  6  7  1  0  0  0  0
  6 25  1  0  0  0  0
  6 26  1  0  0  0  0
  7 11  1  0  0  0  0
  7  8  1  0  0  0  0
  7 41  1  0  0  0  0
  8  9  1  0  0  0  0
  8 27  1  0  0  0  0
  8 28  1  0  0  0  0
  9 10  1  0  0  0  0
  9 29  1  0  0  0  0
  9 30  1  0  0  0  0
 10 11  1  0  0  0  0
 10 31  1  0  0  0  0
 10 32  1  0  0  0  0
 11 12  1  0  0  0  0
 11 33  1  0  0  0  0
 12 13  1  0  0  0  0
 12 34  1  0  0  0  0
 12 35  1  0  0  0  0
 14 15  1  0  0  0  0
 14 36  1  0  0  0  0
 15 20  1  0  0  0  0
 15 16  2  0  0  0  0
 16 17  1  0  0  0  0
 16 37  1  0  0  0  0
 17 18  2  0  0  0  0
 17 38  1  0  0  0  0
 18 19  1  0  0  0  0
 18 39  1  0  0  0  0
 19 20  2  0  0  0  0
 20 40  1  0  0  0  0
M  CHG  1   7   1
M  END
> <s_m_source_file>
AV-unprocessed.smi

> <i_m_source_file_index>
618

> <i_lp_mmshare_version>
43012

> <i_f3d_flags>
0

> <s_epik_input>
W2NIXTFuW2NIXVtjSF1bY0hdYzFbTkhdQyg9TylbTkhdW0NIMl1bQ0BIXShbQ0gyXTIpT1tDSDJdW0NAQEhdKE4yMylbQ0gyXVtDSDJdW0NIMl0z

> <s_epik_cmdline>
J2VwaWtfcHl0aG9uJywgJy1waCcsICc3LjAnLCAnLXRuJywgJzgnLCAnLW1hJywgJzIwMCcsICctbWV0YWxfYmluZGluZycsICctaW1hZScsICc8aW5maWxlLm1hZT4nLCAnLW9tYWUnLCAnPG91dGZpbGUubWFlPic=

> <r_epik_Ionization_Penalty>
0.111044

> <r_epik_Ionization_Penalty_Charging>
0.10673

> <r_epik_Ionization_Penalty_Neutral>
0.00431361

> <r_epik_State_Penalty>
0.0978747

> <r_epik_Charging_Adjusted_Penalty>
0.204605

> <i_epik_Tot_Q>
1

> <i_epik_Tot_abs_Q>
1

> <r_epik_Metal_State_Penalty>
0.0947591

> <b_epik_Metal_Only>
0

> <s_lp_Force_Field>
OPLS_2005

> <r_lp_Energy>
40.8554

> <b_lp_Chiralities_Consistent>
1

> <s_lp_Variant>
AV-unprocessed.smi:618-6

> <Gold.Version>
5.8.1

> <Gold.Id.Protein>
6NUR|6NUR_protein|mol2

> <Gold.PLP.Fitness>
44.7502

> <Gold.PLP.PLP>
-29.9788

> <Gold.PLP.part.hbond>
-3.9777

> <Gold.PLP.part.metal>
0.0000

> <Gold.PLP.part.buried>
-3.2116

> <Gold.PLP.part.nonpolar>
-24.1281

> <Gold.PLP.part.repulsive>
0.2810

> <Gold.PLP.ligand.clash>
0.0000

> <Gold.PLP.ligand.torsion>
0.1156

> <Gold.PLP.Chemscore.Hbond>
4.0000

> <Gold.PLP.Chemscore.CHOScore>
1.0000

> <Gold.PLP.Chemscore.Metal>
0.0000

> <Gold.Chemscore.Hbonds>
donor molecule, donor type, donor heavy atom, donor atom, acceptor molecule, acceptor atom, score
      L1  H     3    21       P1  7948  1.00
      L1  H     7    41       P1  7921  1.00
      L1  H    14    36       P1  7948  1.00
      P1  H  7989  7998       L1    19  0.96
      L1  C    20    40       P1  7957  1.00

> <Gold.PLP.Chemscore.Internal.Correction>
0.0027

> <Gold.Rescore>
     Score         DG    S(hbond)    S(metal)    S(lipo)     H(rot)  DE(clash)    DE(int)     intcor
     23.06     -24.18       3.64        0.00      83.66       1.27       0.08       1.03       ----

> <Gold.Chemscore.Fitness>
23.0628

> <Gold.Chemscore.DG>
-24.1750

> <Gold.Chemscore.ZeroCoef>
-5.4800

> <Gold.Chemscore.Hbond>
3.6366

> <Gold.Chemscore.Metal>
0.0000

> <Gold.Chemscore.Lipo>
83.6633

> <Gold.Chemscore.Internal_Hbond>
0.0000

> <Gold.Chemscore.DEClash>
0.0849

> <Gold.Chemscore.DEInternal>
1.0273

> <Gold.Chemscore.Rot>
1.2656

> <Gold.Chemscore.Internal.Correction>
   9.000000E+99

> <Gold.Chemscore.Hbonds>
donor molecule, donor type, donor heavy atom, donor atom, acceptor molecule, acceptor atom, score
      L1  H     3    21       P1  7948  0.99
      L1  H     7    41       P1  7921  0.87
      L1  H    14    36       P1  7948  0.97
      P1  H  7989  7998       L1    19  0.31

> <Gold.Chemscore.Hbond.Weighted>
-12.1463

> <Gold.Chemscore.Metal.Weighted>
-0.0000

> <Gold.Chemscore.Lipo.Weighted>
-9.7886

> <Gold.Chemscore.Internal_Hbond.Weighted>
0.0000

> <Gold.Chemscore.DEClash.Weighted>
0.0849

> <Gold.Chemscore.DEInternal.Weighted>
1.0273

> <Gold.Chemscore.Rot.Weighted>
3.2399

> <Gold.Chemscore.Internal.Correction.Weighted>
   9.000000E+99

> <Gold.Protein.RotatedTorsions>
[ 6907 6896 6895 6894 ] final   94.73 input  -60.11 | X-H torsion
[ 7974 7965 7964 7962 ] final -148.34 input  175.53 | X-H torsion
[ 8008 7997 7996 7995 ] final -174.64 input   59.86 | X-H torsion
[ 10167 10162 10161 10158 ] final  114.52 input  -65.29 | X-H torsion
[ 10718 10713 10712 10709 ] final -162.50 input   66.30 | X-H torsion
[ 10763 10752 10751 10750 ] final -143.67 input  -60.55 | X-H torsion
[ 11005 11000 10999 10996 ] final   99.09 input  -57.11 | X-H torsion

> <Gold.Protein.ActiveResidues>
 VAL166  LYS551  ARG553  GLY616  TRP617  ASP618  TYR619  PRO620  LYS621  CYS622 
 ASP623  PHE694  ASN695  SER759  ASP760  ASP761  ALA762  ILE779  LEU786  VAL792 
 PHE793  MET794  SER795  GLU796  ALA797  LYS798  CYS799  TRP800  GLU811  SER814 

> <Gold.Protein.RotatedAtoms>
  152.5448  134.1148  159.8373 H   0  0  0  0  0  0  0  0  0  0  0  0  # atno 6907 bound_to 6896
  151.1211  133.5096  159.2609 H   0  0  0  0  0  0  0  0  0  0  0  0  # atno 6908 bound_to 6896
  151.1778  135.0357  159.8834 H   0  0  0  0  0  0  0  0  0  0  0  0  # atno 6909 bound_to 6896
  144.8036  140.5209  143.5690 H   0  0  0  0  0  0  0  0  0  0  0  0  # atno 7974 bound_to 7965
  155.9726  140.1166  157.0798 H   0  0  0  0  0  0  0  0  0  0  0  0  # atno 8008 bound_to 7997
  154.4160  140.1160  156.5395 H   0  0  0  0  0  0  0  0  0  0  0  0  # atno 8009 bound_to 7997
  155.6576  140.3473  155.4773 H   0  0  0  0  0  0  0  0  0  0  0  0  # atno 8010 bound_to 7997
  139.6382  144.7122  151.2290 H   0  0  0  0  0  0  0  0  0  0  0  0  # atno 10167 bound_to 10162
  156.6113  130.8852  151.2937 H   0  0  0  0  0  0  0  0  0  0  0  0  # atno 10718 bound_to 10713
  154.8460  135.3461  154.6225 H   0  0  0  0  0  0  0  0  0  0  0  0  # atno 10763 bound_to 10752
  153.6834  135.6979  153.5116 H   0  0  0  0  0  0  0  0  0  0  0  0  # atno 10764 bound_to 10752
  153.2651  135.4310  155.0888 H   0  0  0  0  0  0  0  0  0  0  0  0  # atno 10765 bound_to 10752
  139.8771  134.9079  156.4553 H   0  0  0  0  0  0  0  0  0  0  0  0  # atno 11005 bound_to 11000
  145.5494  139.1476  143.3403 LP  0  0  0  0  0  0  0  0  0  0  0  0  # atno 17320 bound_to 7965
  146.2322  140.5632  142.8970 LP  0  0  0  0  0  0  0  0  0  0  0  0  # atno 17321 bound_to 7965
  140.7477  143.6358  150.8381 LP  0  0  0  0  0  0  0  0  0  0  0  0  # atno 17342 bound_to 10162
  139.9992  143.5763  152.2882 LP  0  0  0  0  0  0  0  0  0  0  0  0  # atno 17343 bound_to 10162
  157.7253  130.9614  150.1610 LP  0  0  0  0  0  0  0  0  0  0  0  0  # atno 17370 bound_to 10713
  156.2387  130.3689  149.8361 LP  0  0  0  0  0  0  0  0  0  0  0  0  # atno 17371 bound_to 10713
  140.8902  133.7853  155.9564 LP  0  0  0  0  0  0  0  0  0  0  0  0  # atno 17394 bound_to 11000
  140.8761  134.2668  157.5167 LP  0  0  0  0  0  0  0  0  0  0  0  0  # atno 17395 bound_to 11000

$$$$
