AV-unprocessed.smi:3128|AV-procd|sdf|11919|dock4
  -GOLD-   2272017303D 1   1.00000     0.00000
 Structure written by MMmdl.
 40 40  0  0  0  0  0  0  0  0  2 V2000
  149.8631  138.5250  154.2801 C   0  0  0  0  0  0  0  0  0  0  0  0
  150.2701  139.5939  153.2472 C   0  0  0  0  0  0  0  0  0  0  0  0
  151.1037  140.6856  153.9422 C   0  0  0  0  0  0  0  0  0  0  0  0
  149.0453  140.1761  152.4925 C   0  0  1  0  0  0  0  0  0  0  0  0
  149.3698  141.4471  151.6873 C   0  0  0  0  0  0  0  0  0  0  0  0
  148.4969  139.1791  151.5725 N   0  0  0  0  0  0  0  0  0  0  0  0
  147.5242  139.3866  150.6709 C   0  0  0  0  0  0  0  0  0  0  0  0
  146.9673  140.4728  150.5073 O   0  0  0  0  0  0  0  0  0  0  0  0
  147.1376  138.1796  149.8149 C   0  0  0  0  0  0  0  0  0  0  0  0
  146.7190  137.0245  150.6350 N   0  3  0  0  0  0  0  0  0  0  0  0
  146.3990  135.8170  149.8495 C   0  0  0  0  0  0  0  0  0  0  0  0
  144.9192  135.4356  149.9965 C   0  0  0  0  0  0  0  0  0  0  0  0
  144.7582  134.0295  150.3124 N   0  0  0  0  0  0  0  0  0  0  0  0
  145.7162  133.1245  150.7192 C   0  0  0  0  0  0  0  0  0  0  0  0
  145.0910  131.9231  150.8937 C   0  0  0  0  0  0  0  0  0  0  0  0
  143.7332  132.1974  150.5677 C   0  0  0  0  0  0  0  0  0  0  0  0
  143.5374  133.4594  150.2200 N   0  0  0  0  0  0  0  0  0  0  0  0
  149.1751  138.9344  155.0207 H   0  0  0  0  0  0  0  0  0  0  0  0
  150.7339  138.1429  154.8138 H   0  0  0  0  0  0  0  0  0  0  0  0
  149.3781  137.6683  153.8121 H   0  0  0  0  0  0  0  0  0  0  0  0
  150.9182  139.1067  152.5170 H   0  0  0  0  0  0  0  0  0  0  0  0
  150.4972  141.2646  154.6394 H   0  0  0  0  0  0  0  0  0  0  0  0
  151.5449  141.3776  153.2252 H   0  0  0  0  0  0  0  0  0  0  0  0
  151.9293  140.2496  154.5056 H   0  0  0  0  0  0  0  0  0  0  0  0
  148.2922  140.4385  153.2381 H   0  0  0  0  0  0  0  0  0  0  0  0
  149.6619  142.2732  152.3351 H   0  0  0  0  0  0  0  0  0  0  0  0
  148.5011  141.7836  151.1202 H   0  0  0  0  0  0  0  0  0  0  0  0
  150.1804  141.2725  150.9789 H   0  0  0  0  0  0  0  0  0  0  0  0
  148.8969  138.2535  151.6282 H   0  0  0  0  0  0  0  0  0  0  0  0
  146.3222  138.4695  149.1510 H   0  0  0  0  0  0  0  0  0  0  0  0
  147.9834  137.8896  149.1895 H   0  0  0  0  0  0  0  0  0  0  0  0
  147.4654  136.8055  151.2792 H   0  0  0  0  0  0  0  0  0  0  0  0
  146.6386  136.0020  148.8012 H   0  0  0  0  0  0  0  0  0  0  0  0
  147.0298  134.9925  150.1846 H   0  0  0  0  0  0  0  0  0  0  0  0
  144.4511  136.0242  150.7869 H   0  0  0  0  0  0  0  0  0  0  0  0
  144.3736  135.6493  149.0760 H   0  0  0  0  0  0  0  0  0  0  0  0
  146.7509  133.4061  150.8482 H   0  0  0  0  0  0  0  0  0  0  0  0
  145.5351  130.9901  151.2076 H   0  0  0  0  0  0  0  0  0  0  0  0
  142.8905  131.5217  150.5733 H   0  0  0  0  0  0  0  0  0  0  0  0
  145.9032  137.2916  151.1680 H   0  0  0  0  0  0  0  0  0  0  0  0
  1  2  1  0  0  0  0
  1 18  1  0  0  0  0
  1 19  1  0  0  0  0
  1 20  1  0  0  0  0
  2  3  1  0  0  0  0
  2  4  1  0  0  0  0
  2 21  1  0  0  0  0
  3 22  1  0  0  0  0
  3 23  1  0  0  0  0
  3 24  1  0  0  0  0
  4  5  1  0  0  0  0
  4  6  1  0  0  0  0
  4 25  1  0  0  0  0
  5 26  1  0  0  0  0
  5 27  1  0  0  0  0
  5 28  1  0  0  0  0
  6  7  1  0  0  0  0
  6 29  1  0  0  0  0
  7  8  2  0  0  0  0
  7  9  1  0  0  0  0
  9 10  1  0  0  0  0
  9 30  1  0  0  0  0
  9 31  1  0  0  0  0
 10 11  1  0  0  0  0
 10 32  1  0  0  0  0
 10 40  1  0  0  0  0
 11 12  1  0  0  0  0
 11 33  1  0  0  0  0
 11 34  1  0  0  0  0
 12 13  1  0  0  0  0
 12 35  1  0  0  0  0
 12 36  1  0  0  0  0
 13 17  1  0  0  0  0
 13 14  1  0  0  0  0
 14 15  2  0  0  0  0
 14 37  1  0  0  0  0
 15 16  1  0  0  0  0
 15 38  1  0  0  0  0
 16 17  2  0  0  0  0
 16 39  1  0  0  0  0
M  CHG  1  10   1
M  END
> <s_m_source_file>
AV-unprocessed.smi

> <i_m_source_file_index>
3128

> <i_lp_mmshare_version>
43012

> <i_f3d_flags>
0

> <s_epik_input>
W0NIM11bQ0hdKFtDSDNdKVtDQEhdKFtDSDNdKVtOSF1DKD1PKVtDSDJdW05IXVtDSDJdW0NIMl1uMVtjSF1bY0hdW2NIXW4x

> <s_epik_cmdline>
J2VwaWtfcHl0aG9uJywgJy1waCcsICc3LjAnLCAnLXRuJywgJzgnLCAnLW1hJywgJzIwMCcsICctbWV0YWxfYmluZGluZycsICctaW1hZScsICc8aW5maWxlLm1hZT4nLCAnLW9tYWUnLCAnPG91dGZpbGUubWFlPic=

> <r_lp_tautomer_probability>
1

> <r_epik_Ionization_Penalty>
0.20724

> <r_epik_Ionization_Penalty_Charging>
0.207237

> <r_epik_Ionization_Penalty_Neutral>
3.20642e-06

> <r_epik_State_Penalty>
0.197613

> <r_epik_Charging_Adjusted_Penalty>
0.40485

> <i_epik_Tot_Q>
1

> <i_epik_Tot_abs_Q>
1

> <r_epik_Metal_State_Penalty>
0.197789

> <b_epik_Metal_Only>
0

> <s_lp_Force_Field>
OPLS_2005

> <r_lp_Energy>
4.49363

> <b_lp_Chiralities_Consistent>
1

> <s_lp_Variant>
AV-unprocessed.smi:3128-2

> <Gold.Version>
5.8.1

> <Gold.Id.Protein>
6NUR|6NUR_protein|mol2

> <Gold.PLP.Fitness>
48.2978

> <Gold.PLP.PLP>
-38.8591

> <Gold.PLP.part.hbond>
-3.0000

> <Gold.PLP.part.metal>
0.0000

> <Gold.PLP.part.buried>
-4.1646

> <Gold.PLP.part.nonpolar>
-33.3865

> <Gold.PLP.part.repulsive>
1.0062

> <Gold.PLP.ligand.clash>
0.0000

> <Gold.PLP.ligand.torsion>
1.1546

> <Gold.PLP.Chemscore.Hbond>
3.0000

> <Gold.PLP.Chemscore.CHOScore>
0.8735

> <Gold.PLP.Chemscore.Metal>
0.0000

> <Gold.Chemscore.Hbonds>
donor molecule, donor type, donor heavy atom, donor atom, acceptor molecule, acceptor atom, score
      L1  H     6    29       P1  7948  1.00
      L1  H    10    32       P1  7948  2.00
      L1  C    16    39       P1 10952  0.88

> <Gold.PLP.Chemscore.Internal.Correction>
0.1275

> <Gold.Rescore>
     Score         DG    S(hbond)    S(metal)    S(lipo)     H(rot)  DE(clash)    DE(int)     intcor
     14.08     -16.77       1.97        0.00      89.24       2.24       0.03       2.65       ----

> <Gold.Chemscore.Fitness>
14.0825

> <Gold.Chemscore.DG>
-16.7661

> <Gold.Chemscore.ZeroCoef>
-5.4800

> <Gold.Chemscore.Hbond>
1.9711

> <Gold.Chemscore.Metal>
0.0000

> <Gold.Chemscore.Lipo>
89.2405

> <Gold.Chemscore.Internal_Hbond>
0.0000

> <Gold.Chemscore.DEClash>
0.0296

> <Gold.Chemscore.DEInternal>
2.6540

> <Gold.Chemscore.Rot>
2.2416

> <Gold.Chemscore.Internal.Correction>
   9.000000E+99

> <Gold.Chemscore.Hbonds>
donor molecule, donor type, donor heavy atom, donor atom, acceptor molecule, acceptor atom, score
      L1  H     6    29       P1  7948  0.76
      L1  H    10    32       P1  7948  0.99

> <Gold.Chemscore.Hbond.Weighted>
-6.5835

> <Gold.Chemscore.Metal.Weighted>
-0.0000

> <Gold.Chemscore.Lipo.Weighted>
-10.4411

> <Gold.Chemscore.Internal_Hbond.Weighted>
0.0000

> <Gold.Chemscore.DEClash.Weighted>
0.0296

> <Gold.Chemscore.DEInternal.Weighted>
2.6540

> <Gold.Chemscore.Rot.Weighted>
5.7385

> <Gold.Chemscore.Internal.Correction.Weighted>
   9.000000E+99

> <Gold.Protein.RotatedTorsions>
[ 6907 6896 6895 6894 ] final  -22.83 input  -60.11 | X-H torsion
[ 7974 7965 7964 7962 ] final -119.78 input  175.53 | X-H torsion
[ 8008 7997 7996 7995 ] final   31.41 input   59.86 | X-H torsion
[ 10167 10162 10161 10158 ] final    2.19 input  -65.29 | X-H torsion
[ 10718 10713 10712 10709 ] final   -7.43 input   66.30 | X-H torsion
[ 10763 10752 10751 10750 ] final -160.02 input  -60.55 | X-H torsion
[ 11005 11000 10999 10996 ] final -142.66 input  -57.11 | X-H torsion

> <Gold.Protein.ActiveResidues>
 VAL166  LYS551  ARG553  GLY616  TRP617  ASP618  TYR619  PRO620  LYS621  CYS622 
 ASP623  PHE694  ASN695  SER759  ASP760  ASP761  ALA762  ILE779  LEU786  VAL792 
 PHE793  MET794  SER795  GLU796  ALA797  LYS798  CYS799  TRP800  GLU811  SER814 

> <Gold.Protein.RotatedAtoms>
  151.2128  135.0488  159.8917 H   0  0  0  0  0  0  0  0  0  0  0  0  # atno 6907 bound_to 6896
  152.5423  134.0726  159.8211 H   0  0  0  0  0  0  0  0  0  0  0  0  # atno 6908 bound_to 6896
  151.0882  133.5289  159.2648 H   0  0  0  0  0  0  0  0  0  0  0  0  # atno 6909 bound_to 6896
  145.0586  140.8273  143.4166 H   0  0  0  0  0  0  0  0  0  0  0  0  # atno 7974 bound_to 7965
  155.1060  140.3234  155.4534 H   0  0  0  0  0  0  0  0  0  0  0  0  # atno 8008 bound_to 7997
  156.2704  140.2052  156.6133 H   0  0  0  0  0  0  0  0  0  0  0  0  # atno 8009 bound_to 7997
  154.6792  140.0528  157.0235 H   0  0  0  0  0  0  0  0  0  0  0  0  # atno 8010 bound_to 7997
  140.6647  143.7211  150.7804 H   0  0  0  0  0  0  0  0  0  0  0  0  # atno 10167 bound_to 10162
  156.7173  130.5140  149.5877 H   0  0  0  0  0  0  0  0  0  0  0  0  # atno 10718 bound_to 10713
  154.7426  135.3072  154.8702 H   0  0  0  0  0  0  0  0  0  0  0  0  # atno 10763 bound_to 10752
  153.9512  135.6763  153.4748 H   0  0  0  0  0  0  0  0  0  0  0  0  # atno 10764 bound_to 10752
  153.1024  135.4906  154.8815 H   0  0  0  0  0  0  0  0  0  0  0  0  # atno 10765 bound_to 10752
  140.8203  134.2639  157.4903 H   0  0  0  0  0  0  0  0  0  0  0  0  # atno 11005 bound_to 11000
  145.1437  139.2557  143.5477 LP  0  0  0  0  0  0  0  0  0  0  0  0  # atno 17320 bound_to 7965
  146.3523  140.1120  142.8603 LP  0  0  0  0  0  0  0  0  0  0  0  0  # atno 17321 bound_to 7965
  140.0886  143.4899  152.2491 LP  0  0  0  0  0  0  0  0  0  0  0  0  # atno 17342 bound_to 10162
  139.5892  144.7543  151.3443 LP  0  0  0  0  0  0  0  0  0  0  0  0  # atno 17343 bound_to 10162
  156.1619  130.6380  151.0730 LP  0  0  0  0  0  0  0  0  0  0  0  0  # atno 17370 bound_to 10713
  157.6912  131.0809  150.7101 LP  0  0  0  0  0  0  0  0  0  0  0  0  # atno 17371 bound_to 10713
  139.8709  134.9531  156.4136 LP  0  0  0  0  0  0  0  0  0  0  0  0  # atno 17394 bound_to 11000
  140.9106  133.7714  155.9787 LP  0  0  0  0  0  0  0  0  0  0  0  0  # atno 17395 bound_to 11000

$$$$
