AV-unprocessed.smi:1737|AV-procd|sdf|6994|dock2
  -GOLD-   22720 8203D 1   1.00000     0.00000
 Structure written by MMmdl.
 42 43  0  0  0  0  0  0  0  0  1 V2000
  147.4515  132.2570  152.8446 C   0  0  0  0  0  0  0  0  0  0  0  0
  146.1726  132.5028  152.0602 C   0  0  0  0  0  0  0  0  0  0  0  0
  145.4474  131.4008  151.5592 C   0  0  0  0  0  0  0  0  0  0  0  0
  144.2638  131.6298  150.8373 C   0  0  0  0  0  0  0  0  0  0  0  0
  143.8526  132.9599  150.6462 C   0  0  0  0  0  0  0  0  0  0  0  0
  144.5400  134.0188  151.1201 N   0  0  0  0  0  0  0  0  0  0  0  0
  145.6854  133.8153  151.8183 C   0  0  0  0  0  0  0  0  0  0  0  0
  146.4628  134.8851  152.3457 N   0  0  0  0  0  0  0  0  0  0  0  0
  146.1220  135.7828  153.2874 C   0  0  0  0  0  0  0  0  0  0  0  0
  145.0411  135.8259  153.8759 O   0  0  0  0  0  0  0  0  0  0  0  0
  147.1220  136.6454  153.5182 N   0  0  0  0  0  0  0  0  0  0  0  0
  147.0798  137.7379  154.4868 C   0  0  0  0  0  0  0  0  0  0  0  0
  147.7622  139.0434  153.9832 C   0  0  1  0  0  0  0  0  0  0  0  0
  146.6792  140.1378  153.8047 C   0  0  0  0  0  0  0  0  0  0  0  0
  148.8857  139.4822  154.8441 N   0  0  0  0  0  0  0  0  0  0  0  0
  149.2008  140.9062  154.6803 C   0  0  0  0  0  0  0  0  0  0  0  0
  150.3829  141.3609  155.5534 C   0  0  0  0  0  0  0  0  0  0  0  0
  151.5276  140.5744  155.2546 O   0  0  0  0  0  0  0  0  0  0  0  0
  151.2936  139.1902  155.4729 C   0  0  0  0  0  0  0  0  0  0  0  0
  150.1155  138.7178  154.6030 C   0  0  0  0  0  0  0  0  0  0  0  0
  147.6732  131.1921  152.9204 H   0  0  0  0  0  0  0  0  0  0  0  0
  147.3592  132.6533  153.8563 H   0  0  0  0  0  0  0  0  0  0  0  0
  148.2980  132.7419  152.3577 H   0  0  0  0  0  0  0  0  0  0  0  0
  145.7913  130.3901  151.7243 H   0  0  0  0  0  0  0  0  0  0  0  0
  143.6859  130.8082  150.4408 H   0  0  0  0  0  0  0  0  0  0  0  0
  142.9481  133.1808  150.0990 H   0  0  0  0  0  0  0  0  0  0  0  0
  147.3885  134.9780  151.9551 H   0  0  0  0  0  0  0  0  0  0  0  0
  147.9756  136.5397  152.9902 H   0  0  0  0  0  0  0  0  0  0  0  0
  146.0347  137.9358  154.7268 H   0  0  0  0  0  0  0  0  0  0  0  0
  147.5376  137.3623  155.4008 H   0  0  0  0  0  0  0  0  0  0  0  0
  148.1658  138.8344  152.9915 H   0  0  0  0  0  0  0  0  0  0  0  0
  145.8305  139.7933  153.2151 H   0  0  0  0  0  0  0  0  0  0  0  0
  147.0581  141.0080  153.2704 H   0  0  0  0  0  0  0  0  0  0  0  0
  146.2950  140.4733  154.7684 H   0  0  0  0  0  0  0  0  0  0  0  0
  149.4203  141.1192  153.6330 H   0  0  0  0  0  0  0  0  0  0  0  0
  148.3473  141.5224  154.9573 H   0  0  0  0  0  0  0  0  0  0  0  0
  150.6124  142.4094  155.3629 H   0  0  0  0  0  0  0  0  0  0  0  0
  150.1376  141.2745  156.6131 H   0  0  0  0  0  0  0  0  0  0  0  0
  152.1965  138.6335  155.2221 H   0  0  0  0  0  0  0  0  0  0  0  0
  151.0896  139.0098  156.5294 H   0  0  0  0  0  0  0  0  0  0  0  0
  149.9660  137.6631  154.8235 H   0  0  0  0  0  0  0  0  0  0  0  0
  150.3928  138.7859  153.5499 H   0  0  0  0  0  0  0  0  0  0  0  0
  1  2  1  0  0  0  0
  1 21  1  0  0  0  0
  1 22  1  0  0  0  0
  1 23  1  0  0  0  0
  2  7  1  0  0  0  0
  2  3  2  0  0  0  0
  3  4  1  0  0  0  0
  3 24  1  0  0  0  0
  4  5  2  0  0  0  0
  4 25  1  0  0  0  0
  5  6  1  0  0  0  0
  5 26  1  0  0  0  0
  6  7  2  0  0  0  0
  7  8  1  0  0  0  0
  8  9  1  0  0  0  0
  8 27  1  0  0  0  0
  9 10  2  0  0  0  0
  9 11  1  0  0  0  0
 11 12  1  0  0  0  0
 11 28  1  0  0  0  0
 12 13  1  0  0  0  0
 12 29  1  0  0  0  0
 12 30  1  0  0  0  0
 13 14  1  0  0  0  0
 13 15  1  0  0  0  0
 13 31  1  0  0  0  0
 14 32  1  0  0  0  0
 14 33  1  0  0  0  0
 14 34  1  0  0  0  0
 15 20  1  0  0  0  0
 15 16  1  0  0  0  0
 16 17  1  0  0  0  0
 16 35  1  0  0  0  0
 16 36  1  0  0  0  0
 17 18  1  0  0  0  0
 17 37  1  0  0  0  0
 17 38  1  0  0  0  0
 18 19  1  0  0  0  0
 19 20  1  0  0  0  0
 19 39  1  0  0  0  0
 19 40  1  0  0  0  0
 20 41  1  0  0  0  0
 20 42  1  0  0  0  0
M  END
> <s_m_source_file>
AV-unprocessed.smi

> <i_m_source_file_index>
1737

> <i_lp_mmshare_version>
43012

> <i_f3d_flags>
0

> <s_epik_input>
W0NIM11jMVtjSF1bY0hdW2NIXW5jMVtOSF1DKD1PKVtOSF1bQ0gyXVtDQEhdKFtDSDNdKU4yW0NIMl1bQ0gyXU9bQ0gyXVtDSDJdMg==

> <s_epik_cmdline>
J2VwaWtfcHl0aG9uJywgJy1waCcsICc3LjAnLCAnLXRuJywgJzgnLCAnLW1hJywgJzIwMCcsICctbWV0YWxfYmluZGluZycsICctaW1hZScsICc8aW5maWxlLm1hZT4nLCAnLW9tYWUnLCAnPG91dGZpbGUubWFlPic=

> <r_epik_Ionization_Penalty>
0.266048

> <r_epik_Ionization_Penalty_Charging>
0

> <r_epik_Ionization_Penalty_Neutral>
0.266048

> <r_epik_State_Penalty>
0.257924

> <r_epik_Charging_Adjusted_Penalty>
0.257924

> <i_epik_Tot_Q>
0

> <i_epik_Tot_abs_Q>
0

> <r_epik_Metal_State_Penalty>
0.257922

> <b_epik_Metal_Only>
0

> <s_lp_Force_Field>
OPLS_2005

> <r_lp_Energy>
31.0805

> <b_lp_Chiralities_Consistent>
1

> <s_lp_Variant>
AV-unprocessed.smi:1737-2

> <Gold.Version>
5.8.1

> <Gold.Id.Protein>
6NUR|6NUR_protein|mol2

> <Gold.PLP.Fitness>
38.8486

> <Gold.PLP.PLP>
-31.6332

> <Gold.PLP.part.hbond>
-2.9319

> <Gold.PLP.part.metal>
0.0000

> <Gold.PLP.part.buried>
-3.8951

> <Gold.PLP.part.nonpolar>
-25.4862

> <Gold.PLP.part.repulsive>
0.2944

> <Gold.PLP.ligand.clash>
0.0000

> <Gold.PLP.ligand.torsion>
1.9293

> <Gold.PLP.Chemscore.Hbond>
2.6800

> <Gold.PLP.Chemscore.CHOScore>
1.0000

> <Gold.PLP.Chemscore.Metal>
0.0000

> <Gold.Chemscore.Hbonds>
donor molecule, donor type, donor heavy atom, donor atom, acceptor molecule, acceptor atom, score
      L1  H     8    27       P1  7948  0.88
      L1  H    11    28       P1  7948  0.99
      P1  H  7989  7998       L1    18  0.80
      L1  C     5    26       P1 10186  1.00

> <Gold.PLP.Chemscore.Internal.Correction>
0.0339

> <Gold.Rescore>
     Score         DG    S(hbond)    S(metal)    S(lipo)     H(rot)  DE(clash)    DE(int)     intcor
     15.65     -17.54       2.02        0.00      77.56       1.47       0.01       1.88       ----

> <Gold.Chemscore.Fitness>
15.6489

> <Gold.Chemscore.DG>
-17.5367

> <Gold.Chemscore.ZeroCoef>
-5.4800

> <Gold.Chemscore.Hbond>
2.0172

> <Gold.Chemscore.Metal>
0.0000

> <Gold.Chemscore.Lipo>
77.5570

> <Gold.Chemscore.Internal_Hbond>
0.0000

> <Gold.Chemscore.DEClash>
0.0128

> <Gold.Chemscore.DEInternal>
1.8751

> <Gold.Chemscore.Rot>
1.4667

> <Gold.Chemscore.Internal.Correction>
   9.000000E+99

> <Gold.Chemscore.Hbonds>
donor molecule, donor type, donor heavy atom, donor atom, acceptor molecule, acceptor atom, score
      L1  H     8    27       P1  7948  0.77
      L1  H    11    28       P1  7948  0.92
      P1  H  7989  7998       L1    18  0.15

> <Gold.Chemscore.Hbond.Weighted>
-6.7374

> <Gold.Chemscore.Metal.Weighted>
-0.0000

> <Gold.Chemscore.Lipo.Weighted>
-9.0742

> <Gold.Chemscore.Internal_Hbond.Weighted>
0.0000

> <Gold.Chemscore.DEClash.Weighted>
0.0128

> <Gold.Chemscore.DEInternal.Weighted>
1.8751

> <Gold.Chemscore.Rot.Weighted>
3.7549

> <Gold.Chemscore.Internal.Correction.Weighted>
   9.000000E+99

> <Gold.Protein.RotatedTorsions>
[ 6907 6896 6895 6894 ] final  -91.96 input  -60.11 | X-H torsion
[ 7974 7965 7964 7962 ] final   17.02 input  175.53 | X-H torsion
[ 8008 7997 7996 7995 ] final  131.45 input   59.86 | X-H torsion
[ 10167 10162 10161 10158 ] final   48.56 input  -65.29 | X-H torsion
[ 10718 10713 10712 10709 ] final  -84.68 input   66.30 | X-H torsion
[ 10763 10752 10751 10750 ] final -131.33 input  -60.55 | X-H torsion
[ 11005 11000 10999 10996 ] final -142.03 input  -57.11 | X-H torsion

> <Gold.Protein.ActiveResidues>
 VAL166  LYS551  ARG553  GLY616  TRP617  ASP618  TYR619  PRO620  LYS621  CYS622 
 ASP623  PHE694  ASN695  SER759  ASP760  ASP761  ALA762  ILE779  LEU786  VAL792 
 PHE793  MET794  SER795  GLU796  ALA797  LYS798  CYS799  TRP800  GLU811  SER814 

> <Gold.Protein.RotatedAtoms>
  150.6899  134.2196  159.4391 H   0  0  0  0  0  0  0  0  0  0  0  0  # atno 6907 bound_to 6896
  152.0153  134.9851  160.0578 H   0  0  0  0  0  0  0  0  0  0  0  0  # atno 6908 bound_to 6896
  152.1449  133.4451  159.4822 H   0  0  0  0  0  0  0  0  0  0  0  0  # atno 6909 bound_to 6896
  146.2231  139.8663  142.8595 H   0  0  0  0  0  0  0  0  0  0  0  0  # atno 7974 bound_to 7965
  156.2970  140.2571  156.2927 H   0  0  0  0  0  0  0  0  0  0  0  0  # atno 8008 bound_to 7997
  154.9493  140.0394  157.2155 H   0  0  0  0  0  0  0  0  0  0  0  0  # atno 8009 bound_to 7997
  154.8051  140.2835  155.5898 H   0  0  0  0  0  0  0  0  0  0  0  0  # atno 8010 bound_to 7997
  140.2921  144.3034  150.6238 H   0  0  0  0  0  0  0  0  0  0  0  0  # atno 10167 bound_to 10162
  156.0004  130.4706  150.4447 H   0  0  0  0  0  0  0  0  0  0  0  0  # atno 10718 bound_to 10713
  154.8751  135.3834  154.4228 H   0  0  0  0  0  0  0  0  0  0  0  0  # atno 10763 bound_to 10752
  153.4930  135.7030  153.5879 H   0  0  0  0  0  0  0  0  0  0  0  0  # atno 10764 bound_to 10752
  153.4244  135.3893  155.2098 H   0  0  0  0  0  0  0  0  0  0  0  0  # atno 10765 bound_to 10752
  140.8266  134.2568  157.4876 H   0  0  0  0  0  0  0  0  0  0  0  0  # atno 11005 bound_to 11000
  145.2653  141.0091  143.3803 LP  0  0  0  0  0  0  0  0  0  0  0  0  # atno 17320 bound_to 7965
  144.9266  139.4348  143.6515 LP  0  0  0  0  0  0  0  0  0  0  0  0  # atno 17321 bound_to 7965
  140.5724  143.2179  151.7576 LP  0  0  0  0  0  0  0  0  0  0  0  0  # atno 17342 bound_to 10162
  139.4935  144.4198  151.9990 LP  0  0  0  0  0  0  0  0  0  0  0  0  # atno 17343 bound_to 10162
  157.2485  131.0541  151.2394 LP  0  0  0  0  0  0  0  0  0  0  0  0  # atno 17370 bound_to 10713
  157.3551  130.7102  149.6466 LP  0  0  0  0  0  0  0  0  0  0  0  0  # atno 17371 bound_to 10713
  139.8706  134.9564  156.4235 LP  0  0  0  0  0  0  0  0  0  0  0  0  # atno 17394 bound_to 11000
  140.9043  133.7757  155.9716 LP  0  0  0  0  0  0  0  0  0  0  0  0  # atno 17395 bound_to 11000

$$$$
