AV-unprocessed.smi:1645|AV-procd|sdf|6611|dock2
  -GOLD-   22720 7313D 1   1.00000     0.00000
 Structure written by MMmdl.
 56 59  0  0  0  0  0  0  0  0  3 V2000
  146.4361  136.7768  155.4027 O   0  0  0  0  0  0  0  0  0  0  0  0
  147.1619  136.4981  154.4486 C   0  0  0  0  0  0  0  0  0  0  0  0
  148.3633  137.0469  154.2015 N   0  0  0  0  0  0  0  0  0  0  0  0
  149.0378  138.0479  154.9501 C   0  0  0  0  0  0  0  0  0  0  0  0
  150.2270  138.6873  154.5187 C   0  0  0  0  0  0  0  0  0  0  0  0
  150.8295  139.6598  155.3427 C   0  0  0  0  0  0  0  0  0  0  0  0
  150.2419  139.9749  156.5890 C   0  0  0  0  0  0  0  0  0  0  0  0
  150.7686  140.9284  157.4696 N   0  0  0  0  0  0  0  0  0  0  0  0
  152.0018  140.4866  158.1164 C   0  0  0  0  0  0  0  0  0  0  0  0
  152.4365  141.4835  159.2046 C   0  0  0  0  0  0  0  0  0  0  0  0
  152.5528  142.9051  158.6316 C   0  0  0  0  0  0  0  0  0  0  0  0
  151.2417  143.3072  157.9371 C   0  0  0  0  0  0  0  0  0  0  0  0
  150.8363  142.2639  156.8817 C   0  0  0  0  0  0  0  0  0  0  0  0
  149.1165  139.3317  156.9692 N   0  3  0  0  0  0  0  0  0  0  0  0
  148.5094  138.3929  156.2117 C   0  0  0  0  0  0  0  0  0  0  0  0
  146.8491  135.5710  153.5324 N   0  0  0  0  0  0  0  0  0  0  0  0
  145.6174  134.7851  153.5369 C   0  0  1  0  0  0  0  0  0  0  0  0
  144.3891  135.5738  153.0640 C   0  0  0  0  0  0  0  0  0  0  0  0
  143.4786  134.5298  152.3922 C   0  0  0  0  0  0  0  0  0  0  0  0
  144.2057  133.2422  152.4617 N   0  3  1  0  0  0  0  0  0  0  0  0
  143.8637  132.2318  151.4279 C   0  0  0  0  0  0  0  0  0  0  0  0
  144.5293  132.5213  150.0723 C   0  0  0  0  0  0  0  0  0  0  0  0
  146.0429  132.6901  150.2389 C   0  0  0  0  0  0  0  0  0  0  0  0
  146.3277  133.8159  151.2384 C   0  0  0  0  0  0  0  0  0  0  0  0
  145.6437  133.5599  152.6066 C   0  0  1  0  0  0  0  0  0  0  0  0
  148.8849  136.6533  153.4317 H   0  0  0  0  0  0  0  0  0  0  0  0
  150.6960  138.4419  153.5783 H   0  0  0  0  0  0  0  0  0  0  0  0
  151.7347  140.1526  155.0187 H   0  0  0  0  0  0  0  0  0  0  0  0
  151.8535  139.4994  158.5564 H   0  0  0  0  0  0  0  0  0  0  0  0
  152.7916  140.3888  157.3702 H   0  0  0  0  0  0  0  0  0  0  0  0
  151.7096  141.4760  160.0181 H   0  0  0  0  0  0  0  0  0  0  0  0
  153.3884  141.1736  159.6366 H   0  0  0  0  0  0  0  0  0  0  0  0
  152.7927  143.6136  159.4249 H   0  0  0  0  0  0  0  0  0  0  0  0
  153.3748  142.9462  157.9157 H   0  0  0  0  0  0  0  0  0  0  0  0
  150.4488  143.4018  158.6805 H   0  0  0  0  0  0  0  0  0  0  0  0
  151.3486  144.2873  157.4714 H   0  0  0  0  0  0  0  0  0  0  0  0
  151.5588  142.2666  156.0644 H   0  0  0  0  0  0  0  0  0  0  0  0
  149.8682  142.5273  156.4534 H   0  0  0  0  0  0  0  0  0  0  0  0
  147.6168  137.9553  156.6349 H   0  0  0  0  0  0  0  0  0  0  0  0
  147.5026  135.3958  152.7830 H   0  0  0  0  0  0  0  0  0  0  0  0
  145.4203  134.4432  154.5554 H   0  0  0  0  0  0  0  0  0  0  0  0
  143.8930  136.0802  153.8925 H   0  0  0  0  0  0  0  0  0  0  0  0
  144.6712  136.3358  152.3358 H   0  0  0  0  0  0  0  0  0  0  0  0
  142.5162  134.4418  152.8967 H   0  0  0  0  0  0  0  0  0  0  0  0
  143.2866  134.8154  151.3572 H   0  0  0  0  0  0  0  0  0  0  0  0
  144.1979  131.2583  151.7889 H   0  0  0  0  0  0  0  0  0  0  0  0
  142.7804  132.1657  151.3206 H   0  0  0  0  0  0  0  0  0  0  0  0
  144.3203  131.7079  149.3770 H   0  0  0  0  0  0  0  0  0  0  0  0
  144.1035  133.4212  149.6273 H   0  0  0  0  0  0  0  0  0  0  0  0
  146.4871  131.7578  150.5900 H   0  0  0  0  0  0  0  0  0  0  0  0
  146.5043  132.9157  149.2769 H   0  0  0  0  0  0  0  0  0  0  0  0
  147.4054  133.9181  151.3699 H   0  0  0  0  0  0  0  0  0  0  0  0
  145.9818  134.7593  150.8138 H   0  0  0  0  0  0  0  0  0  0  0  0
  146.1409  132.7211  153.0958 H   0  0  0  0  0  0  0  0  0  0  0  0
  143.9314  132.8408  153.3471 H   0  0  0  0  0  0  0  0  0  0  0  0
  148.7057  139.5664  157.8734 H   0  0  0  0  0  0  0  0  0  0  0  0
  1  2  2  0  0  0  0
  2  3  1  0  0  0  0
  2 16  1  0  0  0  0
  3  4  1  0  0  0  0
  3 26  1  0  0  0  0
  4 15  1  0  0  0  0
  4  5  2  0  0  0  0
  5  6  1  0  0  0  0
  5 27  1  0  0  0  0
  6  7  2  0  0  0  0
  6 28  1  0  0  0  0
  7  8  1  0  0  0  0
  7 14  1  0  0  0  0
  8 13  1  0  0  0  0
  8  9  1  0  0  0  0
  9 10  1  0  0  0  0
  9 29  1  0  0  0  0
  9 30  1  0  0  0  0
 10 11  1  0  0  0  0
 10 31  1  0  0  0  0
 10 32  1  0  0  0  0
 11 12  1  0  0  0  0
 11 33  1  0  0  0  0
 11 34  1  0  0  0  0
 12 13  1  0  0  0  0
 12 35  1  0  0  0  0
 12 36  1  0  0  0  0
 13 37  1  0  0  0  0
 13 38  1  0  0  0  0
 14 15  2  0  0  0  0
 14 56  1  0  0  0  0
 15 39  1  0  0  0  0
 16 17  1  0  0  0  0
 16 40  1  0  0  0  0
 17 25  1  0  0  0  0
 17 18  1  0  0  0  0
 17 41  1  0  0  0  0
 18 19  1  0  0  0  0
 18 42  1  0  0  0  0
 18 43  1  0  0  0  0
 19 20  1  0  0  0  0
 19 44  1  0  0  0  0
 19 45  1  0  0  0  0
 20 25  1  0  0  0  0
 20 21  1  0  0  0  0
 20 55  1  0  0  0  0
 21 22  1  0  0  0  0
 21 46  1  0  0  0  0
 21 47  1  0  0  0  0
 22 23  1  0  0  0  0
 22 48  1  0  0  0  0
 22 49  1  0  0  0  0
 23 24  1  0  0  0  0
 23 50  1  0  0  0  0
 23 51  1  0  0  0  0
 24 25  1  0  0  0  0
 24 52  1  0  0  0  0
 24 53  1  0  0  0  0
 25 54  1  0  0  0  0
M  CHG  1  14   1
M  CHG  1  20   1
M  END
> <s_m_source_file>
AV-unprocessed.smi

> <i_m_source_file_index>
1645

> <i_lp_mmshare_version>
43012

> <i_f3d_flags>
0

> <s_epik_input>
W0NIMl0xW0NIMl1bQ0gyXVtDSDJdW0NASF0oTjEyKVtDQEBIXShbQ0gyXVtDSDJdMilbTkhdQyg9TylbTkhdYzNbY0hdW2NIXWMobltjSF0zKU40W0NIMl1bQ0gyXVtDSDJdW0NIMl1bQ0gyXTQ=

> <s_epik_cmdline>
J2VwaWtfcHl0aG9uJywgJy1waCcsICc3LjAnLCAnLXRuJywgJzgnLCAnLW1hJywgJzIwMCcsICctbWV0YWxfYmluZGluZycsICctaW1hZScsICc8aW5maWxlLm1hZT4nLCAnLW9tYWUnLCAnPG91dGZpbGUubWFlPic=

> <r_lp_tautomer_probability>
0.999994

> <r_epik_Ionization_Penalty>
1.26838

> <r_epik_Ionization_Penalty_Charging>
1.26836

> <r_epik_Ionization_Penalty_Neutral>
1.95562e-05

> <r_epik_State_Penalty>
1.33841

> <r_epik_Charging_Adjusted_Penalty>
2.60677

> <i_epik_Tot_Q>
2

> <i_epik_Tot_abs_Q>
2

> <r_epik_Metal_State_Penalty>
1.40601

> <b_epik_Metal_Only>
0

> <s_lp_Force_Field>
OPLS_2005

> <r_lp_Energy>
62.3043

> <b_lp_Chiralities_Consistent>
1

> <s_lp_Variant>
AV-unprocessed.smi:1645-12

> <Gold.Version>
5.8.1

> <Gold.Id.Protein>
6NUR|6NUR_protein|mol2

> <Gold.PLP.Fitness>
46.3259

> <Gold.PLP.PLP>
-37.8975

> <Gold.PLP.part.hbond>
-2.5603

> <Gold.PLP.part.metal>
0.0000

> <Gold.PLP.part.buried>
-6.2030

> <Gold.PLP.part.nonpolar>
-30.5716

> <Gold.PLP.part.repulsive>
0.0765

> <Gold.PLP.ligand.clash>
0.0000

> <Gold.PLP.ligand.torsion>
0.3371

> <Gold.PLP.Chemscore.Hbond>
2.9855

> <Gold.PLP.Chemscore.CHOScore>
0.0000

> <Gold.PLP.Chemscore.Metal>
0.0000

> <Gold.Chemscore.Hbonds>
donor molecule, donor type, donor heavy atom, donor atom, acceptor molecule, acceptor atom, score
      L1  H     3    26       P1  7948  1.00
      L1  H    16    40       P1  7948  0.85
      L1  H    20    55       P1 10957  1.24

> <Gold.PLP.Chemscore.Internal.Correction>
0.1461

> <Gold.Rescore>
     Score         DG    S(hbond)    S(metal)    S(lipo)     H(rot)  DE(clash)    DE(int)     intcor
     21.85     -23.76       2.60        0.00     107.90       1.18       0.04       1.87       ----

> <Gold.Chemscore.Fitness>
21.8491

> <Gold.Chemscore.DG>
-23.7551

> <Gold.Chemscore.ZeroCoef>
-5.4800

> <Gold.Chemscore.Hbond>
2.5990

> <Gold.Chemscore.Metal>
0.0000

> <Gold.Chemscore.Lipo>
107.8950

> <Gold.Chemscore.Internal_Hbond>
0.0000

> <Gold.Chemscore.DEClash>
0.0358

> <Gold.Chemscore.DEInternal>
1.8702

> <Gold.Chemscore.Rot>
1.1833

> <Gold.Chemscore.Internal.Correction>
   9.000000E+99

> <Gold.Chemscore.Hbonds>
donor molecule, donor type, donor heavy atom, donor atom, acceptor molecule, acceptor atom, score
      L1  H     3    26       P1  7948  0.93
      L1  H    16    40       P1  7948  0.83
      L1  H    20    55       P1 10957  0.33

> <Gold.Chemscore.Hbond.Weighted>
-8.6807

> <Gold.Chemscore.Metal.Weighted>
-0.0000

> <Gold.Chemscore.Lipo.Weighted>
-12.6237

> <Gold.Chemscore.Internal_Hbond.Weighted>
0.0000

> <Gold.Chemscore.DEClash.Weighted>
0.0358

> <Gold.Chemscore.DEInternal.Weighted>
1.8702

> <Gold.Chemscore.Rot.Weighted>
3.0293

> <Gold.Chemscore.Internal.Correction.Weighted>
   9.000000E+99

> <Gold.Protein.RotatedTorsions>
[ 6907 6896 6895 6894 ] final -100.35 input  -60.11 | X-H torsion
[ 7974 7965 7964 7962 ] final -167.08 input  175.53 | X-H torsion
[ 8008 7997 7996 7995 ] final -154.45 input   59.86 | X-H torsion
[ 10167 10162 10161 10158 ] final -117.03 input  -65.29 | X-H torsion
[ 10718 10713 10712 10709 ] final  123.59 input   66.30 | X-H torsion
[ 10763 10752 10751 10750 ] final  -43.76 input  -60.55 | X-H torsion
[ 11005 11000 10999 10996 ] final   54.49 input  -57.11 | X-H torsion

> <Gold.Protein.ActiveResidues>
 VAL166  LYS551  ARG553  GLY616  TRP617  ASP618  TYR619  PRO620  LYS621  CYS622 
 ASP623  PHE694  ASN695  SER759  ASP760  ASP761  ALA762  ILE779  LEU786  VAL792 
 PHE793  MET794  SER795  GLU796  ALA797  LYS798  CYS799  TRP800  GLU811  SER814 

> <Gold.Protein.RotatedAtoms>
  150.7113  134.0901  159.3928 H   0  0  0  0  0  0  0  0  0  0  0  0  # atno 6907 bound_to 6896
  151.8886  135.0423  160.0505 H   0  0  0  0  0  0  0  0  0  0  0  0  # atno 6908 bound_to 6896
  152.2510  133.5179  159.5362 H   0  0  0  0  0  0  0  0  0  0  0  0  # atno 6909 bound_to 6896
  144.7231  140.2571  143.6270 H   0  0  0  0  0  0  0  0  0  0  0  0  # atno 7974 bound_to 7965
  155.6865  140.0750  157.2464 H   0  0  0  0  0  0  0  0  0  0  0  0  # atno 8008 bound_to 7997
  154.4096  140.1672  156.2092 H   0  0  0  0  0  0  0  0  0  0  0  0  # atno 8009 bound_to 7997
  155.9489  140.3379  155.6394 H   0  0  0  0  0  0  0  0  0  0  0  0  # atno 8010 bound_to 7997
  140.0727  143.4861  152.1970 H   0  0  0  0  0  0  0  0  0  0  0  0  # atno 10167 bound_to 10162
  157.5653  131.1087  150.8466 H   0  0  0  0  0  0  0  0  0  0  0  0  # atno 10718 bound_to 10713
  154.0009  135.6693  153.4759 H   0  0  0  0  0  0  0  0  0  0  0  0  # atno 10763 bound_to 10752
  153.0663  135.4999  154.8203 H   0  0  0  0  0  0  0  0  0  0  0  0  # atno 10764 bound_to 10752
  154.7053  135.3087  154.9242 H   0  0  0  0  0  0  0  0  0  0  0  0  # atno 10765 bound_to 10752
  140.0682  134.5507  155.9076 H   0  0  0  0  0  0  0  0  0  0  0  0  # atno 11005 bound_to 11000
  145.8171  139.2028  143.1959 LP  0  0  0  0  0  0  0  0  0  0  0  0  # atno 17320 bound_to 7965
  146.0546  140.8034  142.9765 LP  0  0  0  0  0  0  0  0  0  0  0  0  # atno 17321 bound_to 7965
  139.5826  144.7517  151.3601 LP  0  0  0  0  0  0  0  0  0  0  0  0  # atno 17342 bound_to 10162
  140.7117  143.7373  150.7579 LP  0  0  0  0  0  0  0  0  0  0  0  0  # atno 17343 bound_to 10162
  156.8953  130.5227  149.5284 LP  0  0  0  0  0  0  0  0  0  0  0  0  # atno 17370 bound_to 10713
  156.0701  130.5736  150.9367 LP  0  0  0  0  0  0  0  0  0  0  0  0  # atno 17371 bound_to 10713
  141.2001  133.6610  156.5880 LP  0  0  0  0  0  0  0  0  0  0  0  0  # atno 17394 bound_to 11000
  140.3667  134.7641  157.4571 LP  0  0  0  0  0  0  0  0  0  0  0  0  # atno 17395 bound_to 11000

$$$$
