AV-unprocessed.smi:327|AV-procd|sdf|2346|dock9
  -GOLD-   2262022253D 1   1.00000     0.00000
 Structure written by MMmdl.
 47 48  0  0  0  0  0  0  0  0  1 V2000
  149.9634  134.0948  156.2222 C   0  0  0  0  0  0  0  0  0  0  0  0
  148.9646  134.9777  155.7434 O   0  0  0  0  0  0  0  0  0  0  0  0
  149.4826  136.2536  155.4050 C   0  0  0  0  0  0  0  0  0  0  0  0
  148.3465  137.2889  155.3734 C   0  0  0  0  0  0  0  0  0  0  0  0
  148.8588  138.6580  155.2449 N   0  0  0  0  0  0  0  0  0  0  0  0
  149.9303  138.9358  156.0777 N   0  0  0  0  0  0  0  0  0  0  0  0
  150.4708  140.1116  156.0731 C   0  0  0  0  0  0  0  0  0  0  0  0
  151.6149  140.4530  156.9632 C   0  0  0  0  0  0  0  0  0  0  0  0
  152.6087  139.7299  157.0521 O   0  0  0  0  0  0  0  0  0  0  0  0
  151.4852  141.6042  157.6475 N   0  0  0  0  0  0  0  0  0  0  0  0
  152.4762  142.1803  158.5532 C   0  0  0  0  0  0  0  0  0  0  0  0
  151.9249  142.1373  159.9951 C   0  0  0  0  0  0  0  0  0  0  0  0
  152.7299  142.9326  161.0426 C   0  0  0  0  0  0  0  0  0  0  0  0
  152.1044  144.2861  161.4380 C   0  0  0  0  0  0  0  0  0  0  0  0
  152.1161  145.3996  160.3707 C   0  0  0  0  0  0  0  0  0  0  0  0
  151.1859  145.1506  159.1659 C   0  0  0  0  0  0  0  0  0  0  0  0
  151.8841  144.6628  157.8819 C   0  0  0  0  0  0  0  0  0  0  0  0
  152.9512  143.5618  158.0446 C   0  0  0  0  0  0  0  0  0  0  0  0
  149.9721  141.1562  155.1948 C   0  0  0  0  0  0  0  0  0  0  0  0
  148.9234  140.8723  154.3919 C   0  0  0  0  0  0  0  0  0  0  0  0
  148.2878  139.5537  154.3837 C   0  0  0  0  0  0  0  0  0  0  0  0
  147.3257  139.2774  153.6679 O   0  0  0  0  0  0  0  0  0  0  0  0
  149.5132  133.1348  156.4740 H   0  0  0  0  0  0  0  0  0  0  0  0
  150.4406  134.4886  157.1206 H   0  0  0  0  0  0  0  0  0  0  0  0
  150.7299  133.9192  155.4663 H   0  0  0  0  0  0  0  0  0  0  0  0
  150.2530  136.5549  156.1170 H   0  0  0  0  0  0  0  0  0  0  0  0
  149.9533  136.2029  154.4221 H   0  0  0  0  0  0  0  0  0  0  0  0
  147.6963  137.0754  154.5233 H   0  0  0  0  0  0  0  0  0  0  0  0
  147.7109  137.1767  156.2533 H   0  0  0  0  0  0  0  0  0  0  0  0
  150.6352  142.1329  157.5139 H   0  0  0  0  0  0  0  0  0  0  0  0
  153.3552  141.5330  158.5487 H   0  0  0  0  0  0  0  0  0  0  0  0
  150.8763  142.4299  160.0258 H   0  0  0  0  0  0  0  0  0  0  0  0
  151.9176  141.0906  160.3023 H   0  0  0  0  0  0  0  0  0  0  0  0
  152.7700  142.3285  161.9498 H   0  0  0  0  0  0  0  0  0  0  0  0
  153.7706  143.0521  160.7420 H   0  0  0  0  0  0  0  0  0  0  0  0
  151.0826  144.1267  161.7844 H   0  0  0  0  0  0  0  0  0  0  0  0
  152.6476  144.6585  162.3072 H   0  0  0  0  0  0  0  0  0  0  0  0
  151.7744  146.3106  160.8633 H   0  0  0  0  0  0  0  0  0  0  0  0
  153.1331  145.6222  160.0477 H   0  0  0  0  0  0  0  0  0  0  0  0
  150.3727  144.4810  159.4414 H   0  0  0  0  0  0  0  0  0  0  0  0
  150.6878  146.0894  158.9205 H   0  0  0  0  0  0  0  0  0  0  0  0
  151.1287  144.3438  157.1630 H   0  0  0  0  0  0  0  0  0  0  0  0
  152.3739  145.5223  157.4229 H   0  0  0  0  0  0  0  0  0  0  0  0
  153.7708  143.9265  158.6613 H   0  0  0  0  0  0  0  0  0  0  0  0
  153.4105  143.4140  157.0664 H   0  0  0  0  0  0  0  0  0  0  0  0
  150.4221  142.1384  155.1791 H   0  0  0  0  0  0  0  0  0  0  0  0
  148.5413  141.6400  153.7352 H   0  0  0  0  0  0  0  0  0  0  0  0
  1  2  1  0  0  0  0
  1 23  1  0  0  0  0
  1 24  1  0  0  0  0
  1 25  1  0  0  0  0
  2  3  1  0  0  0  0
  3  4  1  0  0  0  0
  3 26  1  0  0  0  0
  3 27  1  0  0  0  0
  4  5  1  0  0  0  0
  4 28  1  0  0  0  0
  4 29  1  0  0  0  0
  5 21  1  0  0  0  0
  5  6  1  0  0  0  0
  6  7  2  0  0  0  0
  7  8  1  0  0  0  0
  7 19  1  0  0  0  0
  8  9  2  0  0  0  0
  8 10  1  0  0  0  0
 10 11  1  0  0  0  0
 10 30  1  0  0  0  0
 11 18  1  0  0  0  0
 11 12  1  0  0  0  0
 11 31  1  0  0  0  0
 12 13  1  0  0  0  0
 12 32  1  0  0  0  0
 12 33  1  0  0  0  0
 13 14  1  0  0  0  0
 13 34  1  0  0  0  0
 13 35  1  0  0  0  0
 14 15  1  0  0  0  0
 14 36  1  0  0  0  0
 14 37  1  0  0  0  0
 15 16  1  0  0  0  0
 15 38  1  0  0  0  0
 15 39  1  0  0  0  0
 16 17  1  0  0  0  0
 16 40  1  0  0  0  0
 16 41  1  0  0  0  0
 17 18  1  0  0  0  0
 17 42  1  0  0  0  0
 17 43  1  0  0  0  0
 18 44  1  0  0  0  0
 18 45  1  0  0  0  0
 19 20  2  0  0  0  0
 19 46  1  0  0  0  0
 20 21  1  0  0  0  0
 20 47  1  0  0  0  0
 21 22  2  0  0  0  0
M  END
> <s_m_source_file>
AV-unprocessed.smi

> <i_m_source_file_index>
327

> <i_lp_mmshare_version>
43012

> <i_f3d_flags>
0

> <s_epik_input>
W0NIM11PW0NIMl1bQ0gyXW4xbmMoW2NIXVtjSF1jMT1PKUMoPU8pW05IXVtDSF0yW0NIMl1bQ0gyXVtDSDJdW0NIMl1bQ0gyXVtDSDJdW0NIMl0y

> <s_epik_cmdline>
J2VwaWtfcHl0aG9uJywgJy1waCcsICc3LjAnLCAnLXRuJywgJzgnLCAnLW1hJywgJzIwMCcsICctbWV0YWxfYmluZGluZycsICctaW1hZScsICc8aW5maWxlLm1hZT4nLCAnLW9tYWUnLCAnPG91dGZpbGUubWFlPic=

> <r_lp_tautomer_probability>
1

> <r_epik_Ionization_Penalty>
5.81787e-07

> <r_epik_Ionization_Penalty_Charging>
6.75108e-09

> <r_epik_Ionization_Penalty_Neutral>
5.75036e-07

> <r_epik_State_Penalty>
-0

> <r_epik_Charging_Adjusted_Penalty>
6.75108e-09

> <i_epik_Tot_Q>
0

> <i_epik_Tot_abs_Q>
0

> <r_epik_Metal_State_Penalty>
-0

> <b_epik_Metal_Only>
0

> <s_lp_Force_Field>
OPLS_2005

> <r_lp_Energy>
41.0284

> <b_lp_Chiralities_Consistent>
1

> <s_lp_Variant>
AV-unprocessed.smi:327-1

> <Gold.Version>
5.8.1

> <Gold.Id.Protein>
6NUR|6NUR_protein|mol2

> <Gold.PLP.Fitness>
41.5836

> <Gold.PLP.PLP>
-40.8904

> <Gold.PLP.part.hbond>
-1.0000

> <Gold.PLP.part.metal>
0.0000

> <Gold.PLP.part.buried>
-3.5401

> <Gold.PLP.part.nonpolar>
-35.7290

> <Gold.PLP.part.repulsive>
0.3766

> <Gold.PLP.ligand.clash>
0.0000

> <Gold.PLP.ligand.torsion>
1.1783

> <Gold.PLP.Chemscore.Hbond>
1.0000

> <Gold.PLP.Chemscore.CHOScore>
0.0000

> <Gold.PLP.Chemscore.Metal>
0.0000

> <Gold.Chemscore.Hbonds>
donor molecule, donor type, donor heavy atom, donor atom, acceptor molecule, acceptor atom, score
      P1  H  7997  8010       L1     9  1.00

> <Gold.PLP.Chemscore.Internal.Correction>
0.0498

> <Gold.Rescore>
     Score         DG    S(hbond)    S(metal)    S(lipo)     H(rot)  DE(clash)    DE(int)     intcor
     17.60     -19.40       1.00        0.00     124.02       1.53       0.70       1.10       ----

> <Gold.Chemscore.Fitness>
17.6021

> <Gold.Chemscore.DG>
-19.4026

> <Gold.Chemscore.ZeroCoef>
-5.4800

> <Gold.Chemscore.Hbond>
0.9953

> <Gold.Chemscore.Metal>
0.0000

> <Gold.Chemscore.Lipo>
124.0220

> <Gold.Chemscore.Internal_Hbond>
0.0000

> <Gold.Chemscore.DEClash>
0.6980

> <Gold.Chemscore.DEInternal>
1.1026

> <Gold.Chemscore.Rot>
1.5283

> <Gold.Chemscore.Internal.Correction>
   9.000000E+99

> <Gold.Chemscore.Hbonds>
donor molecule, donor type, donor heavy atom, donor atom, acceptor molecule, acceptor atom, score
      P1  H  7997  8010       L1     9  0.99

> <Gold.Chemscore.Hbond.Weighted>
-3.3244

> <Gold.Chemscore.Metal.Weighted>
-0.0000

> <Gold.Chemscore.Lipo.Weighted>
-14.5106

> <Gold.Chemscore.Internal_Hbond.Weighted>
0.0000

> <Gold.Chemscore.DEClash.Weighted>
0.6980

> <Gold.Chemscore.DEInternal.Weighted>
1.1026

> <Gold.Chemscore.Rot.Weighted>
3.9124

> <Gold.Chemscore.Internal.Correction.Weighted>
   9.000000E+99

> <Gold.Protein.RotatedTorsions>
[ 6907 6896 6895 6894 ] final  144.04 input  -60.11 | X-H torsion
[ 7974 7965 7964 7962 ] final -146.42 input  175.53 | X-H torsion
[ 8008 7997 7996 7995 ] final   73.58 input   59.86 | X-H torsion
[ 10167 10162 10161 10158 ] final  -48.93 input  -65.29 | X-H torsion
[ 10718 10713 10712 10709 ] final   22.40 input   66.30 | X-H torsion
[ 10763 10752 10751 10750 ] final  136.19 input  -60.55 | X-H torsion
[ 11005 11000 10999 10996 ] final -146.25 input  -57.11 | X-H torsion

> <Gold.Protein.ActiveResidues>
 VAL166  LYS551  ARG553  GLY616  TRP617  ASP618  TYR619  PRO620  LYS621  CYS622 
 ASP623  PHE694  ASN695  SER759  ASP760  ASP761  ALA762  ILE779  LEU786  VAL792 
 PHE793  MET794  SER795  GLU796  ALA797  LYS798  CYS799  TRP800  GLU811  SER814 

> <Gold.Protein.RotatedAtoms>
  152.1987  133.4825  159.5046 H   0  0  0  0  0  0  0  0  0  0  0  0  # atno 6907 bound_to 6896
  150.6965  134.1618  159.4188 H   0  0  0  0  0  0  0  0  0  0  0  0  # atno 6908 bound_to 6896
  151.9535  135.0158  160.0594 H   0  0  0  0  0  0  0  0  0  0  0  0  # atno 6909 bound_to 6896
  144.8161  140.5459  143.5610 H   0  0  0  0  0  0  0  0  0  0  0  0  # atno 7974 bound_to 7965
  155.7858  140.3480  155.5322 H   0  0  0  0  0  0  0  0  0  0  0  0  # atno 8008 bound_to 7997
  155.8683  140.0982  157.1588 H   0  0  0  0  0  0  0  0  0  0  0  0  # atno 8009 bound_to 7997
  154.4016  140.1345  156.4034 H   0  0  0  0  0  0  0  0  0  0  0  0  # atno 8010 bound_to 7997
  140.6708  143.2719  151.4142 H   0  0  0  0  0  0  0  0  0  0  0  0  # atno 10167 bound_to 10162
  157.1518  130.6678  149.6014 H   0  0  0  0  0  0  0  0  0  0  0  0  # atno 10718 bound_to 10713
  153.8524  135.3077  155.3433 H   0  0  0  0  0  0  0  0  0  0  0  0  # atno 10763 bound_to 10752
  154.7885  135.4796  154.0003 H   0  0  0  0  0  0  0  0  0  0  0  0  # atno 10764 bound_to 10752
  153.1510  135.6843  153.8975 H   0  0  0  0  0  0  0  0  0  0  0  0  # atno 10765 bound_to 10752
  140.7839  134.3047  157.5036 H   0  0  0  0  0  0  0  0  0  0  0  0  # atno 11005 bound_to 11000
  145.5212  139.1476  143.3551 LP  0  0  0  0  0  0  0  0  0  0  0  0  # atno 17320 bound_to 7965
  146.2464  140.5352  142.8912 LP  0  0  0  0  0  0  0  0  0  0  0  0  # atno 17321 bound_to 7965
  139.5976  144.1364  152.2161 LP  0  0  0  0  0  0  0  0  0  0  0  0  # atno 17342 bound_to 10162
  140.0738  144.5757  150.7172 LP  0  0  0  0  0  0  0  0  0  0  0  0  # atno 17343 bound_to 10162
  155.9769  130.4742  150.6559 LP  0  0  0  0  0  0  0  0  0  0  0  0  # atno 17370 bound_to 10713
  157.4213  131.0837  151.1128 LP  0  0  0  0  0  0  0  0  0  0  0  0  # atno 17371 bound_to 10713
  139.8739  134.9335  156.3581 LP  0  0  0  0  0  0  0  0  0  0  0  0  # atno 17394 bound_to 11000
  140.9456  133.7485  156.0203 LP  0  0  0  0  0  0  0  0  0  0  0  0  # atno 17395 bound_to 11000

$$$$
