AV-unprocessed.smi:1947|AV-procd|sdf|7871|dock3
  -GOLD-   2272010 23D 1   1.00000     0.00000
 Structure written by MMmdl.
 38 39  0  0  0  0  0  0  0  0  2 V2000
  152.6237  138.7305  158.4723 C   0  0  0  0  0  0  0  0  0  0  0  0
  152.2636  140.0175  157.7141 C   0  0  2  0  0  0  0  0  0  0  0  0
  151.8520  141.1531  158.6731 C   0  0  0  0  0  0  0  0  0  0  0  0
  151.5275  142.4476  157.9105 C   0  0  0  0  0  0  0  0  0  0  0  0
  150.4531  142.2103  156.8386 C   0  0  0  0  0  0  0  0  0  0  0  0
  150.8641  141.0803  155.8799 C   0  0  0  0  0  0  0  0  0  0  0  0
  151.1785  139.7741  156.6412 C   0  0  2  0  0  0  0  0  0  0  0  0
  150.0055  139.2951  157.2876 O   0  0  0  0  0  0  0  0  0  0  0  0
  149.5368  138.0403  156.8170 C   0  0  0  0  0  0  0  0  0  0  0  0
  149.6300  137.0263  157.9607 C   0  0  0  0  0  0  0  0  0  0  0  0
  148.7505  137.4218  159.0529 N   0  0  0  0  0  0  0  0  0  0  0  0
  147.8240  136.6432  159.6250 C   0  0  0  0  0  0  0  0  0  0  0  0
  147.6592  135.4888  159.2242 O   0  0  0  0  0  0  0  0  0  0  0  0
  147.1485  137.2502  160.6273 N   0  5  0  0  0  0  0  0  0  0  0  0
  146.1079  136.6323  161.2097 C   0  0  0  0  0  0  0  0  0  0  0  0
  146.0958  135.3095  161.4399 N   0  0  0  0  0  0  0  0  0  0  0  0
  144.9234  134.8703  162.0399 N   0  0  0  0  0  0  0  0  0  0  0  0
  144.0743  135.8775  162.2417 C   0  0  0  0  0  0  0  0  0  0  0  0
  144.6285  137.4527  161.7154 S   0  0  0  0  0  0  0  0  0  0  0  0
  151.7730  138.3481  159.0372 H   0  0  0  0  0  0  0  0  0  0  0  0
  153.4368  138.9061  159.1771 H   0  0  0  0  0  0  0  0  0  0  0  0
  152.9461  137.9476  157.7855 H   0  0  0  0  0  0  0  0  0  0  0  0
  153.1671  140.3413  157.1952 H   0  0  0  0  0  0  0  0  0  0  0  0
  150.9829  140.8483  159.2582 H   0  0  0  0  0  0  0  0  0  0  0  0
  152.6515  141.3446  159.3895 H   0  0  0  0  0  0  0  0  0  0  0  0
  151.1933  143.2162  158.6080 H   0  0  0  0  0  0  0  0  0  0  0  0
  152.4341  142.8304  157.4400 H   0  0  0  0  0  0  0  0  0  0  0  0
  149.5060  141.9590  157.3183 H   0  0  0  0  0  0  0  0  0  0  0  0
  150.2789  143.1287  156.2773 H   0  0  0  0  0  0  0  0  0  0  0  0
  150.0810  140.9227  155.1390 H   0  0  0  0  0  0  0  0  0  0  0  0
  151.7471  141.3897  155.3196 H   0  0  0  0  0  0  0  0  0  0  0  0
  151.5461  139.0212  155.9412 H   0  0  0  0  0  0  0  0  0  0  0  0
  148.5081  138.1003  156.4611 H   0  0  0  0  0  0  0  0  0  0  0  0
  150.1523  137.7186  155.9761 H   0  0  0  0  0  0  0  0  0  0  0  0
  149.3356  136.0384  157.6039 H   0  0  0  0  0  0  0  0  0  0  0  0
  150.6586  136.9505  158.3171 H   0  0  0  0  0  0  0  0  0  0  0  0
  148.8595  138.3592  159.4113 H   0  0  0  0  0  0  0  0  0  0  0  0
  143.1148  135.6913  162.7002 H   0  0  0  0  0  0  0  0  0  0  0  0
  1  2  1  0  0  0  0
  1 20  1  0  0  0  0
  1 21  1  0  0  0  0
  1 22  1  0  0  0  0
  2  7  1  0  0  0  0
  2  3  1  0  0  0  0
  2 23  1  0  0  0  0
  3  4  1  0  0  0  0
  3 24  1  0  0  0  0
  3 25  1  0  0  0  0
  4  5  1  0  0  0  0
  4 26  1  0  0  0  0
  4 27  1  0  0  0  0
  5  6  1  0  0  0  0
  5 28  1  0  0  0  0
  5 29  1  0  0  0  0
  6  7  1  0  0  0  0
  6 30  1  0  0  0  0
  6 31  1  0  0  0  0
  7  8  1  0  0  0  0
  7 32  1  0  0  0  0
  8  9  1  0  0  0  0
  9 10  1  0  0  0  0
  9 33  1  0  0  0  0
  9 34  1  0  0  0  0
 10 11  1  0  0  0  0
 10 35  1  0  0  0  0
 10 36  1  0  0  0  0
 11 12  1  0  0  0  0
 11 37  1  0  0  0  0
 12 13  2  0  0  0  0
 12 14  1  0  0  0  0
 14 15  1  0  0  0  0
 15 19  1  0  0  0  0
 15 16  2  0  0  0  0
 16 17  1  0  0  0  0
 17 18  2  0  0  0  0
 18 19  1  0  0  0  0
 18 38  1  0  0  0  0
M  CHG  1  14  -1
M  END
> <s_m_source_file>
AV-unprocessed.smi

> <i_m_source_file_index>
1947

> <i_lp_mmshare_version>
43012

> <i_f3d_flags>
0

> <s_epik_input>
W0NIM11bQ0BASF0xW0NIMl1bQ0gyXVtDSDJdW0NIMl1bQ0BIXTFPW0NIMl1bQ0gyXVtOSF1DKD1PKVtOSF1jMm5uW2NIXXMy

> <s_epik_cmdline>
J2VwaWtfcHl0aG9uJywgJy1waCcsICc3LjAnLCAnLXRuJywgJzgnLCAnLW1hJywgJzIwMCcsICctbWV0YWxfYmluZGluZycsICctaW1hZScsICc8aW5maWxlLm1hZT4nLCAnLW9tYWUnLCAnPG91dGZpbGUubWFlPic=

> <r_lp_tautomer_probability>
1

> <r_epik_Ionization_Penalty>
3.35961

> <r_epik_Ionization_Penalty_Charging>
3.31977

> <r_epik_Ionization_Penalty_Neutral>
0.0398394

> <r_epik_State_Penalty>
3.31759

> <r_epik_Charging_Adjusted_Penalty>
6.63736

> <i_epik_Tot_Q>
-1

> <i_epik_Tot_abs_Q>
1

> <r_epik_Metal_State_Penalty>
0.484557

> <b_epik_Metal_Only>
1

> <s_lp_Force_Field>
OPLS_2005

> <r_lp_Energy>
9.4778

> <b_lp_Chiralities_Consistent>
1

> <s_lp_Variant>
AV-unprocessed.smi:1947-7

> <Gold.Version>
5.8.1

> <Gold.Id.Protein>
6NUR|6NUR_protein|mol2

> <Gold.PLP.Fitness>
37.7923

> <Gold.PLP.PLP>
-27.5056

> <Gold.PLP.part.hbond>
-2.9901

> <Gold.PLP.part.metal>
0.0000

> <Gold.PLP.part.buried>
-3.9620

> <Gold.PLP.part.nonpolar>
-21.2699

> <Gold.PLP.part.repulsive>
0.2426

> <Gold.PLP.ligand.clash>
0.0000

> <Gold.PLP.ligand.torsion>
1.4390

> <Gold.PLP.Chemscore.Hbond>
4.3284

> <Gold.PLP.Chemscore.CHOScore>
0.0000

> <Gold.PLP.Chemscore.Metal>
0.0000

> <Gold.Chemscore.Hbonds>
donor molecule, donor type, donor heavy atom, donor atom, acceptor molecule, acceptor atom, score
      P1  H  6934  6947       L1    14  2.00

> <Gold.PLP.Chemscore.Internal.Correction>
0.1796

> <Gold.Rescore>
     Score         DG    S(hbond)    S(metal)    S(lipo)     H(rot)  DE(clash)    DE(int)     intcor
     10.61     -13.54       1.72        0.00      61.39       1.90       0.06       2.87       ----

> <Gold.Chemscore.Fitness>
10.6085

> <Gold.Chemscore.DG>
-13.5417

> <Gold.Chemscore.ZeroCoef>
-5.4800

> <Gold.Chemscore.Hbond>
1.7182

> <Gold.Chemscore.Metal>
0.0000

> <Gold.Chemscore.Lipo>
61.3909

> <Gold.Chemscore.Internal_Hbond>
0.0000

> <Gold.Chemscore.DEClash>
0.0604

> <Gold.Chemscore.DEInternal>
2.8729

> <Gold.Chemscore.Rot>
1.8984

> <Gold.Chemscore.Internal.Correction>
   9.000000E+99

> <Gold.Chemscore.Hbonds>
donor molecule, donor type, donor heavy atom, donor atom, acceptor molecule, acceptor atom, score
      P1  H  6931  6943       L1    14  0.01
      P1  H  6934  6947       L1    14  0.85

> <Gold.Chemscore.Hbond.Weighted>
-5.7388

> <Gold.Chemscore.Metal.Weighted>
-0.0000

> <Gold.Chemscore.Lipo.Weighted>
-7.1827

> <Gold.Chemscore.Internal_Hbond.Weighted>
0.0000

> <Gold.Chemscore.DEClash.Weighted>
0.0604

> <Gold.Chemscore.DEInternal.Weighted>
2.8729

> <Gold.Chemscore.Rot.Weighted>
4.8598

> <Gold.Chemscore.Internal.Correction.Weighted>
   9.000000E+99

> <Gold.Protein.RotatedTorsions>
[ 6907 6896 6895 6894 ] final   43.95 input  -60.11 | X-H torsion
[ 7974 7965 7964 7962 ] final -177.60 input  175.53 | X-H torsion
[ 8008 7997 7996 7995 ] final -159.31 input   59.86 | X-H torsion
[ 10167 10162 10161 10158 ] final   70.33 input  -65.29 | X-H torsion
[ 10718 10713 10712 10709 ] final  -24.91 input   66.30 | X-H torsion
[ 10763 10752 10751 10750 ] final  -88.79 input  -60.55 | X-H torsion
[ 11005 11000 10999 10996 ] final   77.18 input  -57.11 | X-H torsion

> <Gold.Protein.ActiveResidues>
 VAL166  LYS551  ARG553  GLY616  TRP617  ASP618  TYR619  PRO620  LYS621  CYS622 
 ASP623  PHE694  ASN695  SER759  ASP760  ASP761  ALA762  ILE779  LEU786  VAL792 
 PHE793  MET794  SER795  GLU796  ALA797  LYS798  CYS799  TRP800  GLU811  SER814 

> <Gold.Protein.RotatedAtoms>
  152.2266  134.8362  160.0478 H   0  0  0  0  0  0  0  0  0  0  0  0  # atno 6907 bound_to 6896
  151.9126  133.3560  159.3877 H   0  0  0  0  0  0  0  0  0  0  0  0  # atno 6908 bound_to 6896
  150.7014  134.4642  159.5439 H   0  0  0  0  0  0  0  0  0  0  0  0  # atno 6909 bound_to 6896
  144.7128  140.0995  143.6417 H   0  0  0  0  0  0  0  0  0  0  0  0  # atno 7974 bound_to 7965
  155.7606  140.0838  157.2157 H   0  0  0  0  0  0  0  0  0  0  0  0  # atno 8008 bound_to 7997
  154.4004  140.1543  156.2885 H   0  0  0  0  0  0  0  0  0  0  0  0  # atno 8009 bound_to 7997
  155.8843  140.3419  155.5913 H   0  0  0  0  0  0  0  0  0  0  0  0  # atno 8010 bound_to 7997
  140.0581  144.5256  150.7314 H   0  0  0  0  0  0  0  0  0  0  0  0  # atno 10167 bound_to 10162
  156.4713  130.4525  149.6867 H   0  0  0  0  0  0  0  0  0  0  0  0  # atno 10718 bound_to 10713
  154.6483  135.5364  153.7871 H   0  0  0  0  0  0  0  0  0  0  0  0  # atno 10763 bound_to 10752
  153.0372  135.6476  154.1055 H   0  0  0  0  0  0  0  0  0  0  0  0  # atno 10764 bound_to 10752
  154.0975  135.2935  155.3238 H   0  0  0  0  0  0  0  0  0  0  0  0  # atno 10765 bound_to 10752
  139.9266  134.7662  156.1489 H   0  0  0  0  0  0  0  0  0  0  0  0  # atno 11005 bound_to 11000
  145.9550  139.2760  143.1190 LP  0  0  0  0  0  0  0  0  0  0  0  0  # atno 17320 bound_to 7965
  145.9282  140.9067  143.0370 LP  0  0  0  0  0  0  0  0  0  0  0  0  # atno 17321 bound_to 7965
  140.7185  143.2566  151.4357 LP  0  0  0  0  0  0  0  0  0  0  0  0  # atno 17342 bound_to 10162
  139.5911  144.1498  152.2089 LP  0  0  0  0  0  0  0  0  0  0  0  0  # atno 17343 bound_to 10162
  156.3615  130.7484  151.2457 LP  0  0  0  0  0  0  0  0  0  0  0  0  # atno 17370 bound_to 10713
  157.7491  131.0349  150.4337 LP  0  0  0  0  0  0  0  0  0  0  0  0  # atno 17371 bound_to 10713
  141.0827  133.6747  156.2370 LP  0  0  0  0  0  0  0  0  0  0  0  0  # atno 17394 bound_to 11000
  140.6320  134.5254  157.5560 LP  0  0  0  0  0  0  0  0  0  0  0  0  # atno 17395 bound_to 11000

$$$$
