AV-unprocessed.smi:3150|AV-procd|sdf|12014|dock2
  -GOLD-   2272017423D 1   1.00000     0.00000
 Structure written by MMmdl.
 32 33  0  0  0  0  0  0  0  0  2 V2000
  153.7813  141.9032  159.9070 C   0  0  0  0  0  0  0  0  0  0  0  0
  152.3118  141.4581  159.9589 C   0  0  1  0  0  0  0  0  0  0  0  0
  151.5051  142.6333  159.9464 O   0  0  0  0  0  0  0  0  0  0  0  0
  151.8822  143.6395  160.8786 C   0  0  0  0  0  0  0  0  0  0  0  0
  152.0778  144.9438  160.1364 C   0  0  0  0  0  0  0  0  0  0  0  0
  151.1233  145.3427  159.0335 C   0  0  0  0  0  0  0  0  0  0  0  0
  152.5391  144.9502  158.6963 C   0  0  0  0  0  0  0  0  0  0  0  0
  151.9541  140.5507  158.7700 C   0  0  0  0  0  0  0  0  0  0  0  0
  152.1704  139.3398  158.8382 O   0  0  0  0  0  0  0  0  0  0  0  0
  151.4265  141.1764  157.7016 N   0  0  0  0  0  0  0  0  0  0  0  0
  151.0141  140.6238  156.4579 C   0  0  0  0  0  0  0  0  0  0  0  0
  149.8613  140.9821  155.8382 N   0  0  0  0  0  0  0  0  0  0  0  0
  149.5397  140.4113  154.6590 C   0  0  0  0  0  0  0  0  0  0  0  0
  150.3440  139.4494  154.0231 C   0  0  0  0  0  0  0  0  0  0  0  0
  151.5412  139.0677  154.6530 C   0  0  0  0  0  0  0  0  0  0  0  0
  151.8849  139.6591  155.8852 C   0  0  0  0  0  0  0  0  0  0  0  0
  153.0502  139.2856  156.4986 O   0  5  0  0  0  0  0  0  0  0  0  0
  154.4547  141.0455  159.8947 H   0  0  0  0  0  0  0  0  0  0  0  0
  154.0325  142.5058  160.7799 H   0  0  0  0  0  0  0  0  0  0  0  0
  153.9879  142.5060  159.0218 H   0  0  0  0  0  0  0  0  0  0  0  0
  152.1530  140.9198  160.8956 H   0  0  0  0  0  0  0  0  0  0  0  0
  151.1272  143.7743  161.6541 H   0  0  0  0  0  0  0  0  0  0  0  0
  152.8190  143.3689  161.3671 H   0  0  0  0  0  0  0  0  0  0  0  0
  152.4405  145.7565  160.7628 H   0  0  0  0  0  0  0  0  0  0  0  0
  150.3331  144.6430  158.7685 H   0  0  0  0  0  0  0  0  0  0  0  0
  150.8603  146.3954  158.9532 H   0  0  0  0  0  0  0  0  0  0  0  0
  153.2226  145.7407  158.3928 H   0  0  0  0  0  0  0  0  0  0  0  0
  152.6926  143.9892  158.2092 H   0  0  0  0  0  0  0  0  0  0  0  0
  151.3117  142.1770  157.7759 H   0  0  0  0  0  0  0  0  0  0  0  0
  148.6118  140.7323  154.2093 H   0  0  0  0  0  0  0  0  0  0  0  0
  150.0506  139.0163  153.0786 H   0  0  0  0  0  0  0  0  0  0  0  0
  152.1856  138.3308  154.1957 H   0  0  0  0  0  0  0  0  0  0  0  0
  1  2  1  0  0  0  0
  1 18  1  0  0  0  0
  1 19  1  0  0  0  0
  1 20  1  0  0  0  0
  2  3  1  0  0  0  0
  2  8  1  0  0  0  0
  2 21  1  0  0  0  0
  3  4  1  0  0  0  0
  4  5  1  0  0  0  0
  4 22  1  0  0  0  0
  4 23  1  0  0  0  0
  5  7  1  0  0  0  0
  5  6  1  0  0  0  0
  5 24  1  0  0  0  0
  6  7  1  0  0  0  0
  6 25  1  0  0  0  0
  6 26  1  0  0  0  0
  7 27  1  0  0  0  0
  7 28  1  0  0  0  0
  8  9  2  0  0  0  0
  8 10  1  0  0  0  0
 10 29  1  0  0  0  0
 10 11  1  0  0  0  0
 11 16  2  0  0  0  0
 11 12  1  0  0  0  0
 12 13  2  0  0  0  0
 13 30  1  0  0  0  0
 13 14  1  0  0  0  0
 14 31  1  0  0  0  0
 14 15  2  0  0  0  0
 15 16  1  0  0  0  0
 15 32  1  0  0  0  0
 16 17  1  0  0  0  0
M  CHG  1  17  -1
M  END
> <s_m_source_file>
AV-unprocessed.smi

> <i_m_source_file_index>
3150

> <i_lp_mmshare_version>
43012

> <i_f3d_flags>
0

> <s_epik_input>
W0NIMl0xW0NIMl1bQ0hdMVtDSDJdT1tDQEBIXShbQ0gzXSlDKD1PKVtOSF1jMm5bY0hdW2NIXVtjSF1jMltPSF0=

> <s_epik_cmdline>
J2VwaWtfcHl0aG9uJywgJy1waCcsICc3LjAnLCAnLXRuJywgJzgnLCAnLW1hJywgJzIwMCcsICctbWV0YWxfYmluZGluZycsICctaW1hZScsICc8aW5maWxlLm1hZT4nLCAnLW9tYWUnLCAnPG91dGZpbGUubWFlPic=

> <r_epik_Ionization_Penalty>
4.12024

> <r_epik_Ionization_Penalty_Charging>
2.08551

> <r_epik_Ionization_Penalty_Neutral>
2.03473

> <r_epik_State_Penalty>
2.65726

> <r_epik_Charging_Adjusted_Penalty>
4.74277

> <i_epik_Tot_Q>
-1

> <i_epik_Tot_abs_Q>
1

> <r_epik_Metal_State_Penalty>
0.600747

> <b_epik_Metal_Only>
0

> <s_lp_Force_Field>
OPLS_2005

> <r_lp_Energy>
13.8702

> <b_lp_Chiralities_Consistent>
1

> <s_lp_Variant>
AV-unprocessed.smi:3150-8

> <Gold.Version>
5.8.1

> <Gold.Id.Protein>
6NUR|6NUR_protein|mol2

> <Gold.PLP.Fitness>
43.5572

> <Gold.PLP.PLP>
-40.4570

> <Gold.PLP.part.hbond>
-1.4593

> <Gold.PLP.part.metal>
0.0000

> <Gold.PLP.part.buried>
-3.2873

> <Gold.PLP.part.nonpolar>
-34.1702

> <Gold.PLP.part.repulsive>
0.1337

> <Gold.PLP.ligand.clash>
0.0000

> <Gold.PLP.ligand.torsion>
1.7520

> <Gold.PLP.Chemscore.Hbond>
2.0000

> <Gold.PLP.Chemscore.CHOScore>
0.0000

> <Gold.PLP.Chemscore.Metal>
0.0000

> <Gold.Chemscore.Hbonds>
donor molecule, donor type, donor heavy atom, donor atom, acceptor molecule, acceptor atom, score
      P1  H  7997  8009       L1    17  1.98

> <Gold.PLP.Chemscore.Internal.Correction>
0.6042

> <Gold.Rescore>
     Score         DG    S(hbond)    S(metal)    S(lipo)     H(rot)  DE(clash)    DE(int)     intcor
     13.76     -15.81       0.96        0.00      96.71       1.64       0.14       1.91       ----

> <Gold.Chemscore.Fitness>
13.7612

> <Gold.Chemscore.DG>
-15.8112

> <Gold.Chemscore.ZeroCoef>
-5.4800

> <Gold.Chemscore.Hbond>
0.9614

> <Gold.Chemscore.Metal>
0.0000

> <Gold.Chemscore.Lipo>
96.7100

> <Gold.Chemscore.Internal_Hbond>
0.0000

> <Gold.Chemscore.DEClash>
0.1355

> <Gold.Chemscore.DEInternal>
1.9145

> <Gold.Chemscore.Rot>
1.6387

> <Gold.Chemscore.Internal.Correction>
   9.000000E+99

> <Gold.Chemscore.Hbonds>
donor molecule, donor type, donor heavy atom, donor atom, acceptor molecule, acceptor atom, score
      P1  H  7997  8009       L1    17  0.92

> <Gold.Chemscore.Hbond.Weighted>
-3.2112

> <Gold.Chemscore.Metal.Weighted>
-0.0000

> <Gold.Chemscore.Lipo.Weighted>
-11.3151

> <Gold.Chemscore.Internal_Hbond.Weighted>
0.0000

> <Gold.Chemscore.DEClash.Weighted>
0.1355

> <Gold.Chemscore.DEInternal.Weighted>
1.9145

> <Gold.Chemscore.Rot.Weighted>
4.1950

> <Gold.Chemscore.Internal.Correction.Weighted>
   9.000000E+99

> <Gold.Protein.RotatedTorsions>
[ 6907 6896 6895 6894 ] final -155.26 input  -60.11 | X-H torsion
[ 7974 7965 7964 7962 ] final  125.77 input  175.53 | X-H torsion
[ 8008 7997 7996 7995 ] final -172.99 input   59.86 | X-H torsion
[ 10167 10162 10161 10158 ] final   25.35 input  -65.29 | X-H torsion
[ 10718 10713 10712 10709 ] final  161.44 input   66.30 | X-H torsion
[ 10763 10752 10751 10750 ] final  -51.70 input  -60.55 | X-H torsion
[ 11005 11000 10999 10996 ] final  -26.15 input  -57.11 | X-H torsion

> <Gold.Protein.ActiveResidues>
 VAL166  LYS551  ARG553  GLY616  TRP617  ASP618  TYR619  PRO620  LYS621  CYS622 
 ASP623  PHE694  ASN695  SER759  ASP760  ASP761  ALA762  ILE779  LEU786  VAL792 
 PHE793  MET794  SER795  GLU796  ALA797  LYS798  CYS799  TRP800  GLU811  SER814 

> <Gold.Protein.RotatedAtoms>
  151.2698  133.4261  159.2620 H   0  0  0  0  0  0  0  0  0  0  0  0  # atno 6907 bound_to 6896
  151.0455  134.9637  159.8194 H   0  0  0  0  0  0  0  0  0  0  0  0  # atno 6908 bound_to 6896
  152.5373  134.2655  159.9004 H   0  0  0  0  0  0  0  0  0  0  0  0  # atno 6909 bound_to 6896
  145.0692  139.3743  143.4966 H   0  0  0  0  0  0  0  0  0  0  0  0  # atno 7974 bound_to 7965
  155.9517  140.1127  157.0971 H   0  0  0  0  0  0  0  0  0  0  0  0  # atno 8008 bound_to 7997
  154.4111  140.1199  156.5127 H   0  0  0  0  0  0  0  0  0  0  0  0  # atno 8009 bound_to 7997
  155.6834  140.3473  155.4866 H   0  0  0  0  0  0  0  0  0  0  0  0  # atno 8010 bound_to 7997
  140.5113  144.0155  150.6374 H   0  0  0  0  0  0  0  0  0  0  0  0  # atno 10167 bound_to 10162
  157.1365  131.0530  151.2347 H   0  0  0  0  0  0  0  0  0  0  0  0  # atno 10718 bound_to 10713
  154.1308  135.6520  153.4922 H   0  0  0  0  0  0  0  0  0  0  0  0  # atno 10763 bound_to 10752
  153.0196  135.5292  154.7003 H   0  0  0  0  0  0  0  0  0  0  0  0  # atno 10764 bound_to 10752
  154.6237  135.2967  155.0267 H   0  0  0  0  0  0  0  0  0  0  0  0  # atno 10765 bound_to 10752
  140.9003  133.7528  156.0535 H   0  0  0  0  0  0  0  0  0  0  0  0  # atno 11005 bound_to 11000
  146.3528  140.0428  142.8641 LP  0  0  0  0  0  0  0  0  0  0  0  0  # atno 17320 bound_to 7965
  145.1313  140.9519  143.4542 LP  0  0  0  0  0  0  0  0  0  0  0  0  # atno 17321 bound_to 7965
  140.3478  143.2981  152.0519 LP  0  0  0  0  0  0  0  0  0  0  0  0  # atno 17342 bound_to 10162
  139.4897  144.6396  151.6905 LP  0  0  0  0  0  0  0  0  0  0  0  0  # atno 17343 bound_to 10162
  157.4345  130.7509  149.7018 LP  0  0  0  0  0  0  0  0  0  0  0  0  # atno 17370 bound_to 10713
  155.9797  130.4037  150.3571 LP  0  0  0  0  0  0  0  0  0  0  0  0  # atno 17371 bound_to 10713
  140.8238  134.3259  157.5373 LP  0  0  0  0  0  0  0  0  0  0  0  0  # atno 17394 bound_to 11000
  139.8741  134.9324  156.3554 LP  0  0  0  0  0  0  0  0  0  0  0  0  # atno 17395 bound_to 11000

$$$$
