AV-unprocessed.smi:249|AV-procd|sdf|1924|dock6
  -GOLD-   2262021 33D 1   1.00000     0.00000
 Structure written by MMmdl.
 64 67  0  0  0  0  0  0  0  0  2 V2000
  145.3134  131.8968  152.1052 C   0  0  0  0  0  0  0  0  0  0  0  0
  146.0017  131.5650  153.4381 C   0  0  0  0  0  0  0  0  0  0  0  0
  145.6134  132.4869  154.5464 N   0  3  2  0  0  0  0  0  0  0  0  0
  145.7287  133.9333  154.2048 C   0  0  0  0  0  0  0  0  0  0  0  0
  147.1972  134.3960  154.1439 C   0  0  0  0  0  0  0  0  0  0  0  0
  147.9224  134.0895  155.4691 C   0  0  2  0  0  0  0  0  0  0  0  0
  149.3260  134.5178  155.4535 N   0  0  0  0  0  0  0  0  0  0  0  0
  150.1338  134.3212  154.2499 C   0  0  0  0  0  0  0  0  0  0  0  0
  149.6081  135.6150  156.2034 C   0  0  0  0  0  0  0  0  0  0  0  0
  149.0375  135.7565  157.4298 N   0  0  0  0  0  0  0  0  0  0  0  0
  149.3204  136.8197  158.1882 C   0  0  0  0  0  0  0  0  0  0  0  0
  150.1362  137.8409  157.9212 N   0  0  0  0  0  0  0  0  0  0  0  0
  150.7087  137.7086  156.6910 C   0  0  0  0  0  0  0  0  0  0  0  0
  150.4963  136.6416  155.7730 C   0  0  0  0  0  0  0  0  0  0  0  0
  151.2316  136.8626  154.6139 N   0  0  0  0  0  0  0  0  0  0  0  0
  151.8529  137.9878  154.8392 C   0  0  0  0  0  0  0  0  0  0  0  0
  151.6169  138.5510  156.0731 N   0  0  0  0  0  0  0  0  0  0  0  0
  152.1750  139.7926  156.5802 C   0  0  0  0  0  0  0  0  0  0  0  0
  151.1253  140.8588  157.0041 C   0  0  2  0  0  0  0  0  0  0  0  0
  150.3527  141.3346  155.7500 C   0  0  0  0  0  0  0  0  0  0  0  0
  149.1734  142.0283  156.1029 O   0  0  0  0  0  0  0  0  0  0  0  0
  151.7461  142.0618  157.7764 C   0  0  1  0  0  0  0  0  0  0  0  0
  150.7412  142.9560  158.4882 C   0  0  0  0  0  0  0  0  0  0  0  0
  151.6160  143.7082  159.4805 C   0  0  0  0  0  0  0  0  0  0  0  0
  152.5696  142.7510  159.9130 O   0  0  0  0  0  0  0  0  0  0  0  0
  152.6666  141.7011  158.9552 C   0  0  0  0  0  0  0  0  0  0  0  0
  147.7582  132.6032  155.8430 C   0  0  0  0  0  0  0  0  0  0  0  0
  146.2666  132.2085  155.8628 C   0  0  2  0  0  0  0  0  0  0  0  0
  146.0435  130.7729  156.3715 C   0  0  0  0  0  0  0  0  0  0  0  0
  145.5019  131.1100  151.3747 H   0  0  0  0  0  0  0  0  0  0  0  0
  145.6821  132.8252  151.6704 H   0  0  0  0  0  0  0  0  0  0  0  0
  144.2332  131.9809  152.2264 H   0  0  0  0  0  0  0  0  0  0  0  0
  145.7086  130.5473  153.6884 H   0  0  0  0  0  0  0  0  0  0  0  0
  147.0831  131.5456  153.3052 H   0  0  0  0  0  0  0  0  0  0  0  0
  145.2159  134.1653  153.2730 H   0  0  0  0  0  0  0  0  0  0  0  0
  145.2052  134.5081  154.9705 H   0  0  0  0  0  0  0  0  0  0  0  0
  147.7029  133.9148  153.3070 H   0  0  0  0  0  0  0  0  0  0  0  0
  147.2307  135.4676  153.9425 H   0  0  0  0  0  0  0  0  0  0  0  0
  147.3966  134.6523  156.2391 H   0  0  0  0  0  0  0  0  0  0  0  0
  151.1867  134.5200  154.4545 H   0  0  0  0  0  0  0  0  0  0  0  0
  149.8109  134.9871  153.4494 H   0  0  0  0  0  0  0  0  0  0  0  0
  150.0666  133.2959  153.8891 H   0  0  0  0  0  0  0  0  0  0  0  0
  148.8261  136.8550  159.1479 H   0  0  0  0  0  0  0  0  0  0  0  0
  152.5157  138.4331  154.1113 H   0  0  0  0  0  0  0  0  0  0  0  0
  152.8265  139.5605  157.4238 H   0  0  0  0  0  0  0  0  0  0  0  0
  152.8240  140.1839  155.7966 H   0  0  0  0  0  0  0  0  0  0  0  0
  150.3960  140.3874  157.6639 H   0  0  0  0  0  0  0  0  0  0  0  0
  150.9461  142.0248  155.1524 H   0  0  0  0  0  0  0  0  0  0  0  0
  150.0980  140.4912  155.1076 H   0  0  0  0  0  0  0  0  0  0  0  0
  149.2286  142.9083  155.7630 H   0  0  0  0  0  0  0  0  0  0  0  0
  152.3069  142.6831  157.0759 H   0  0  0  0  0  0  0  0  0  0  0  0
  150.2123  143.6338  157.8177 H   0  0  0  0  0  0  0  0  0  0  0  0
  150.0042  142.3542  159.0226 H   0  0  0  0  0  0  0  0  0  0  0  0
  152.1373  144.5283  158.9853 H   0  0  0  0  0  0  0  0  0  0  0  0
  151.0493  144.1179  160.3168 H   0  0  0  0  0  0  0  0  0  0  0  0
  152.3454  140.7780  159.4390 H   0  0  0  0  0  0  0  0  0  0  0  0
  153.7040  141.5793  158.6466 H   0  0  0  0  0  0  0  0  0  0  0  0
  148.2962  131.9606  155.1468 H   0  0  0  0  0  0  0  0  0  0  0  0
  148.1983  132.4278  156.8256 H   0  0  0  0  0  0  0  0  0  0  0  0
  145.7686  132.8564  156.5865 H   0  0  0  0  0  0  0  0  0  0  0  0
  146.3523  130.6851  157.4136 H   0  0  0  0  0  0  0  0  0  0  0  0
  146.6221  130.0405  155.8087 H   0  0  0  0  0  0  0  0  0  0  0  0
  144.9913  130.4919  156.3186 H   0  0  0  0  0  0  0  0  0  0  0  0
  144.6288  132.3171  154.6943 H   0  0  0  0  0  0  0  0  0  0  0  0
  1  2  1  0  0  0  0
  1 30  1  0  0  0  0
  1 31  1  0  0  0  0
  1 32  1  0  0  0  0
  2  3  1  0  0  0  0
  2 33  1  0  0  0  0
  2 34  1  0  0  0  0
  3 28  1  0  0  0  0
  3  4  1  0  0  0  0
  3 64  1  0  0  0  0
  4  5  1  0  0  0  0
  4 35  1  0  0  0  0
  4 36  1  0  0  0  0
  5  6  1  0  0  0  0
  5 37  1  0  0  0  0
  5 38  1  0  0  0  0
  6  7  1  0  0  0  0
  6 27  1  0  0  0  0
  6 39  1  0  0  0  0
  7  8  1  0  0  0  0
  7  9  1  0  0  0  0
  8 40  1  0  0  0  0
  8 41  1  0  0  0  0
  8 42  1  0  0  0  0
  9 14  1  0  0  0  0
  9 10  2  0  0  0  0
 10 11  1  0  0  0  0
 11 12  2  0  0  0  0
 11 43  1  0  0  0  0
 12 13  1  0  0  0  0
 13 17  1  0  0  0  0
 13 14  2  0  0  0  0
 14 15  1  0  0  0  0
 15 16  2  0  0  0  0
 16 17  1  0  0  0  0
 16 44  1  0  0  0  0
 17 18  1  0  0  0  0
 18 19  1  0  0  0  0
 18 45  1  0  0  0  0
 18 46  1  0  0  0  0
 19 20  1  0  0  0  0
 19 22  1  0  0  0  0
 19 47  1  0  0  0  0
 20 21  1  0  0  0  0
 20 48  1  0  0  0  0
 20 49  1  0  0  0  0
 21 50  1  0  0  0  0
 22 26  1  0  0  0  0
 22 23  1  0  0  0  0
 22 51  1  0  0  0  0
 23 24  1  0  0  0  0
 23 52  1  0  0  0  0
 23 53  1  0  0  0  0
 24 25  1  0  0  0  0
 24 54  1  0  0  0  0
 24 55  1  0  0  0  0
 25 26  1  0  0  0  0
 26 56  1  0  0  0  0
 26 57  1  0  0  0  0
 27 28  1  0  0  0  0
 27 58  1  0  0  0  0
 27 59  1  0  0  0  0
 28 29  1  0  0  0  0
 28 60  1  0  0  0  0
 29 61  1  0  0  0  0
 29 62  1  0  0  0  0
 29 63  1  0  0  0  0
M  CHG  1   3   1
M  END
> <s_m_source_file>
AV-unprocessed.smi

> <i_m_source_file_index>
249

> <i_lp_mmshare_version>
43012

> <i_f3d_flags>
0

> <s_epik_input>
W0NIM11bQ0gyXU4xW0NIMl1bQ0gyXVtDQEhdKFtDSDJdW0NASF0xW0NIM10pTihbQ0gzXSljKG5bY0hdbjIpYyhjMjMpbltjSF1uM1tDSDJdW0NASF0oW0NIMl1bT0hdKVtDQEBIXTRbQ0gyXVtDSDJdT1tDSDJdNA==

> <s_epik_cmdline>
J2VwaWtfcHl0aG9uJywgJy1waCcsICc3LjAnLCAnLXRuJywgJzgnLCAnLW1hJywgJzIwMCcsICctbWV0YWxfYmluZGluZycsICctaW1hZScsICc8aW5maWxlLm1hZT4nLCAnLW9tYWUnLCAnPG91dGZpbGUubWFlPic=

> <r_lp_tautomer_probability>
1

> <r_epik_Ionization_Penalty>
0.00294688

> <r_epik_Ionization_Penalty_Charging>
0.00169971

> <r_epik_Ionization_Penalty_Neutral>
0.00124717

> <r_epik_State_Penalty>
-0

> <r_epik_Charging_Adjusted_Penalty>
0.00169971

> <i_epik_Tot_Q>
1

> <i_epik_Tot_abs_Q>
1

> <r_epik_Metal_State_Penalty>
-0

> <b_epik_Metal_Only>
0

> <s_lp_Force_Field>
OPLS_2005

> <r_lp_Energy>
54.5526

> <b_lp_Chiralities_Consistent>
1

> <s_lp_Variant>
AV-unprocessed.smi:249-27

> <Gold.Version>
5.8.1

> <Gold.Id.Protein>
6NUR|6NUR_protein|mol2

> <Gold.PLP.Fitness>
45.0014

> <Gold.PLP.PLP>
-34.3177

> <Gold.PLP.part.hbond>
-2.9402

> <Gold.PLP.part.metal>
0.0000

> <Gold.PLP.part.buried>
-6.8545

> <Gold.PLP.part.nonpolar>
-24.8672

> <Gold.PLP.part.repulsive>
0.1608

> <Gold.PLP.ligand.clash>
0.0000

> <Gold.PLP.ligand.torsion>
1.0108

> <Gold.PLP.Chemscore.Hbond>
3.8629

> <Gold.PLP.Chemscore.CHOScore>
0.0000

> <Gold.PLP.Chemscore.Metal>
0.0000

> <Gold.Chemscore.Hbonds>
donor molecule, donor type, donor heavy atom, donor atom, acceptor molecule, acceptor atom, score
      L1  H     3    64       P1 10957  2.00
      L1  H    21    50       P1  8028  1.00
      P1  H 10752 10765       L1    15  0.75

> <Gold.PLP.Chemscore.Internal.Correction>
1.1166

> <Gold.Rescore>
     Score         DG    S(hbond)    S(metal)    S(lipo)     H(rot)  DE(clash)    DE(int)     intcor
     13.10     -15.84       2.06        0.00      87.84       2.65       0.16       2.59       ----

> <Gold.Chemscore.Fitness>
13.0994

> <Gold.Chemscore.DG>
-15.8441

> <Gold.Chemscore.ZeroCoef>
-5.4800

> <Gold.Chemscore.Hbond>
2.0582

> <Gold.Chemscore.Metal>
0.0000

> <Gold.Chemscore.Lipo>
87.8427

> <Gold.Chemscore.Internal_Hbond>
0.0000

> <Gold.Chemscore.DEClash>
0.1580

> <Gold.Chemscore.DEInternal>
2.5868

> <Gold.Chemscore.Rot>
2.6515

> <Gold.Chemscore.Internal.Correction>
   9.000000E+99

> <Gold.Chemscore.Hbonds>
donor molecule, donor type, donor heavy atom, donor atom, acceptor molecule, acceptor atom, score
      L1  H     3    64       P1 10957  0.66
      L1  H    21    50       P1  8028  0.99
      P1  H 10752 10765       L1    15  0.13

> <Gold.Chemscore.Hbond.Weighted>
-6.8745

> <Gold.Chemscore.Metal.Weighted>
-0.0000

> <Gold.Chemscore.Lipo.Weighted>
-10.2776

> <Gold.Chemscore.Internal_Hbond.Weighted>
0.0000

> <Gold.Chemscore.DEClash.Weighted>
0.1580

> <Gold.Chemscore.DEInternal.Weighted>
2.5868

> <Gold.Chemscore.Rot.Weighted>
6.7880

> <Gold.Chemscore.Internal.Correction.Weighted>
   9.000000E+99

> <Gold.Protein.RotatedTorsions>
[ 6907 6896 6895 6894 ] final  117.22 input  -60.11 | X-H torsion
[ 7974 7965 7964 7962 ] final  178.75 input  175.53 | X-H torsion
[ 8008 7997 7996 7995 ] final  115.46 input   59.86 | X-H torsion
[ 10167 10162 10161 10158 ] final  164.80 input  -65.29 | X-H torsion
[ 10718 10713 10712 10709 ] final   41.57 input   66.30 | X-H torsion
[ 10763 10752 10751 10750 ] final  171.54 input  -60.55 | X-H torsion
[ 11005 11000 10999 10996 ] final   53.01 input  -57.11 | X-H torsion

> <Gold.Protein.ActiveResidues>
 VAL166  LYS551  ARG553  GLY616  TRP617  ASP618  TYR619  PRO620  LYS621  CYS622 
 ASP623  PHE694  ASN695  SER759  ASP760  ASP761  ALA762  ILE779  LEU786  VAL792 
 PHE793  MET794  SER795  GLU796  ALA797  LYS798  CYS799  TRP800  GLU811  SER814 

> <Gold.Protein.RotatedAtoms>
  152.4626  133.7855  159.6873 H   0  0  0  0  0  0  0  0  0  0  0  0  # atno 6907 bound_to 6896
  150.8576  133.7681  159.3009 H   0  0  0  0  0  0  0  0  0  0  0  0  # atno 6908 bound_to 6896
  151.5257  135.1071  159.9942 H   0  0  0  0  0  0  0  0  0  0  0  0  # atno 6909 bound_to 6896
  144.7153  140.0445  143.6436 H   0  0  0  0  0  0  0  0  0  0  0  0  # atno 7974 bound_to 7965
  156.2383  140.2938  156.0372 H   0  0  0  0  0  0  0  0  0  0  0  0  # atno 8008 bound_to 7997
  155.2028  140.0410  157.2937 H   0  0  0  0  0  0  0  0  0  0  0  0  # atno 8009 bound_to 7997
  154.6119  140.2454  155.7665 H   0  0  0  0  0  0  0  0  0  0  0  0  # atno 8010 bound_to 7997
  139.4895  144.4198  151.9200 H   0  0  0  0  0  0  0  0  0  0  0  0  # atno 10167 bound_to 10162
  157.3951  130.7828  149.7302 H   0  0  0  0  0  0  0  0  0  0  0  0  # atno 10718 bound_to 10713
  154.4133  135.2756  155.2022 H   0  0  0  0  0  0  0  0  0  0  0  0  # atno 10763 bound_to 10752
  154.3999  135.6047  153.5894 H   0  0  0  0  0  0  0  0  0  0  0  0  # atno 10764 bound_to 10752
  152.9831  135.5924  154.4418 H   0  0  0  0  0  0  0  0  0  0  0  0  # atno 10765 bound_to 10752
  140.0802  134.5348  155.8954 H   0  0  0  0  0  0  0  0  0  0  0  0  # atno 11005 bound_to 11000
  145.9996  139.3080  143.0935 LP  0  0  0  0  0  0  0  0  0  0  0  0  # atno 17320 bound_to 7965
  145.8809  140.9363  143.0602 LP  0  0  0  0  0  0  0  0  0  0  0  0  # atno 17321 bound_to 7965
  140.3641  144.2936  150.5929 LP  0  0  0  0  0  0  0  0  0  0  0  0  # atno 17342 bound_to 10162
  140.5376  143.2230  151.8137 LP  0  0  0  0  0  0  0  0  0  0  0  0  # atno 17343 bound_to 10162
  155.9808  130.4025  150.3506 LP  0  0  0  0  0  0  0  0  0  0  0  0  # atno 17370 bound_to 10713
  157.1627  131.0349  151.2833 LP  0  0  0  0  0  0  0  0  0  0  0  0  # atno 17371 bound_to 10713
  141.2044  133.6639  156.6119 LP  0  0  0  0  0  0  0  0  0  0  0  0  # atno 17394 bound_to 11000
  140.3498  134.7778  157.4459 LP  0  0  0  0  0  0  0  0  0  0  0  0  # atno 17395 bound_to 11000

$$$$
