AV-unprocessed.smi:2382|AV-procd|sdf|9459|dock1
  -GOLD-   2272013 83D 1   1.00000     0.00000
 Structure written by MMmdl.
 38 39  0  0  0  0  0  0  0  0  2 V2000
  150.9604  138.8297  154.5854 C   0  0  0  0  0  0  0  0  0  0  0  0
  149.6214  139.3246  154.1518 C   0  0  0  0  0  0  0  0  0  0  0  0
  148.7124  138.5837  153.4631 N   0  3  0  0  0  0  0  0  0  0  0  0
  147.6098  139.3091  153.2236 N   0  0  0  0  0  0  0  0  0  0  0  0
  146.5020  138.6941  152.4921 C   0  0  0  0  0  0  0  0  0  0  0  0
  147.7449  140.5593  153.7505 C   0  0  0  0  0  0  0  0  0  0  0  0
  146.7059  141.6300  153.6784 C   0  0  0  0  0  0  0  0  0  0  0  0
  149.0188  140.5744  154.3319 C   0  0  0  0  0  0  0  0  0  0  0  0
  149.6450  141.7381  155.0425 C   0  0  0  0  0  0  0  0  0  0  0  0
  150.1253  141.3603  156.4533 C   0  0  0  0  0  0  0  0  0  0  0  0
  150.5080  142.5375  157.2229 N   0  0  0  0  0  0  0  0  0  0  0  0
  151.1063  142.5067  158.4242 C   0  0  0  0  0  0  0  0  0  0  0  0
  151.4233  141.4674  159.0024 O   0  0  0  0  0  0  0  0  0  0  0  0
  151.3831  143.7282  158.9073 N   0  0  0  0  0  0  0  0  0  0  0  0
  152.2564  144.1738  159.9883 C   0  0  0  0  0  0  0  0  0  0  0  0
  151.9281  145.5970  159.5411 C   0  0  0  0  0  0  0  0  0  0  0  0
  151.3592  145.0249  158.2439 C   0  0  0  0  0  0  0  0  0  0  0  0
  151.1432  139.0990  155.6261 H   0  0  0  0  0  0  0  0  0  0  0  0
  151.7419  139.2743  153.9689 H   0  0  0  0  0  0  0  0  0  0  0  0
  151.0178  137.7447  154.4933 H   0  0  0  0  0  0  0  0  0  0  0  0
  146.0129  139.4492  151.8759 H   0  0  0  0  0  0  0  0  0  0  0  0
  145.7869  138.2864  153.2071 H   0  0  0  0  0  0  0  0  0  0  0  0
  146.8764  137.8953  151.8500 H   0  0  0  0  0  0  0  0  0  0  0  0
  146.8613  142.3704  154.4630 H   0  0  0  0  0  0  0  0  0  0  0  0
  145.7099  141.2049  153.8048 H   0  0  0  0  0  0  0  0  0  0  0  0
  146.7522  142.1318  152.7118 H   0  0  0  0  0  0  0  0  0  0  0  0
  150.4834  142.1170  154.4568 H   0  0  0  0  0  0  0  0  0  0  0  0
  148.9372  142.5653  155.1069 H   0  0  0  0  0  0  0  0  0  0  0  0
  149.3311  140.8439  156.9929 H   0  0  0  0  0  0  0  0  0  0  0  0
  150.9657  140.6660  156.3988 H   0  0  0  0  0  0  0  0  0  0  0  0
  150.3047  143.4394  156.8170 H   0  0  0  0  0  0  0  0  0  0  0  0
  151.9006  143.9369  160.9916 H   0  0  0  0  0  0  0  0  0  0  0  0
  153.3035  143.9005  159.8490 H   0  0  0  0  0  0  0  0  0  0  0  0
  151.1683  146.0724  160.1637 H   0  0  0  0  0  0  0  0  0  0  0  0
  152.7996  146.2385  159.4059 H   0  0  0  0  0  0  0  0  0  0  0  0
  152.0414  145.0972  157.3955 H   0  0  0  0  0  0  0  0  0  0  0  0
  150.3624  145.3938  157.9996 H   0  0  0  0  0  0  0  0  0  0  0  0
  148.7881  137.6253  153.1461 H   0  0  0  0  0  0  0  0  0  0  0  0
  1  2  1  0  0  0  0
  1 18  1  0  0  0  0
  1 19  1  0  0  0  0
  1 20  1  0  0  0  0
  2  8  1  0  0  0  0
  2  3  2  0  0  0  0
  3  4  1  0  0  0  0
  3 38  1  0  0  0  0
  4  5  1  0  0  0  0
  4  6  1  0  0  0  0
  5 21  1  0  0  0  0
  5 22  1  0  0  0  0
  5 23  1  0  0  0  0
  6  7  1  0  0  0  0
  6  8  2  0  0  0  0
  7 24  1  0  0  0  0
  7 25  1  0  0  0  0
  7 26  1  0  0  0  0
  8  9  1  0  0  0  0
  9 10  1  0  0  0  0
  9 27  1  0  0  0  0
  9 28  1  0  0  0  0
 10 11  1  0  0  0  0
 10 29  1  0  0  0  0
 10 30  1  0  0  0  0
 11 12  1  0  0  0  0
 11 31  1  0  0  0  0
 12 13  2  0  0  0  0
 12 14  1  0  0  0  0
 14 17  1  0  0  0  0
 14 15  1  0  0  0  0
 15 16  1  0  0  0  0
 15 32  1  0  0  0  0
 15 33  1  0  0  0  0
 16 17  1  0  0  0  0
 16 34  1  0  0  0  0
 16 35  1  0  0  0  0
 17 36  1  0  0  0  0
 17 37  1  0  0  0  0
M  CHG  1   3   1
M  END
> <s_m_source_file>
AV-unprocessed.smi

> <i_m_source_file_index>
2382

> <i_lp_mmshare_version>
43012

> <i_f3d_flags>
0

> <s_epik_input>
W0NIM11jMW5uKFtDSDNdKWMoW0NIM10pYzFbQ0gyXVtDSDJdW05IXUMoPU8pTjJbQ0gyXVtDSDJdW0NIMl0y

> <s_epik_cmdline>
J2VwaWtfcHl0aG9uJywgJy1waCcsICc3LjAnLCAnLXRuJywgJzgnLCAnLW1hJywgJzIwMCcsICctbWV0YWxfYmluZGluZycsICctaW1hZScsICc8aW5maWxlLm1hZT4nLCAnLW9tYWUnLCAnPG91dGZpbGUubWFlPic=

> <r_lp_tautomer_probability>
1

> <r_epik_Ionization_Penalty>
2.28506

> <r_epik_Ionization_Penalty_Charging>
2.285

> <r_epik_Ionization_Penalty_Neutral>
5.95173e-05

> <r_epik_State_Penalty>
2.43458

> <r_epik_Charging_Adjusted_Penalty>
4.71958

> <i_epik_Tot_Q>
1

> <i_epik_Tot_abs_Q>
1

> <r_epik_Metal_State_Penalty>
2.44703

> <b_epik_Metal_Only>
0

> <s_lp_Force_Field>
OPLS_2005

> <r_lp_Energy>
26.6321

> <b_lp_Chiralities_Consistent>
1

> <s_lp_Variant>
AV-unprocessed.smi:2382-2

> <Gold.Version>
5.8.1

> <Gold.Id.Protein>
6NUR|6NUR_protein|mol2

> <Gold.PLP.Fitness>
48.4943

> <Gold.PLP.PLP>
-41.0781

> <Gold.PLP.part.hbond>
-2.6667

> <Gold.PLP.part.metal>
0.0000

> <Gold.PLP.part.buried>
-0.9204

> <Gold.PLP.part.nonpolar>
-37.4398

> <Gold.PLP.part.repulsive>
0.0732

> <Gold.PLP.ligand.clash>
0.0000

> <Gold.PLP.ligand.torsion>
0.1844

> <Gold.PLP.Chemscore.Hbond>
2.5320

> <Gold.PLP.Chemscore.CHOScore>
0.0000

> <Gold.PLP.Chemscore.Metal>
0.0000

> <Gold.Chemscore.Hbonds>
donor molecule, donor type, donor heavy atom, donor atom, acceptor molecule, acceptor atom, score
      L1  H     3    38       P1  7948  2.00
      L1  H    11    31       P1  8028  0.51

> <Gold.PLP.Chemscore.Internal.Correction>
0.1891

> <Gold.Rescore>
     Score         DG    S(hbond)    S(metal)    S(lipo)     H(rot)  DE(clash)    DE(int)     intcor
     18.64     -19.02       1.80        0.00      95.90       1.45       0.14       0.24       ----

> <Gold.Chemscore.Fitness>
18.6435

> <Gold.Chemscore.DG>
-19.0232

> <Gold.Chemscore.ZeroCoef>
-5.4800

> <Gold.Chemscore.Hbond>
1.8032

> <Gold.Chemscore.Metal>
0.0000

> <Gold.Chemscore.Lipo>
95.9005

> <Gold.Chemscore.Internal_Hbond>
0.0000

> <Gold.Chemscore.DEClash>
0.1407

> <Gold.Chemscore.DEInternal>
0.2390

> <Gold.Chemscore.Rot>
1.4453

> <Gold.Chemscore.Internal.Correction>
   9.000000E+99

> <Gold.Chemscore.Hbonds>
donor molecule, donor type, donor heavy atom, donor atom, acceptor molecule, acceptor atom, score
      L1  H     3    38       P1  7948  0.98
      L1  H    11    31       P1  8028  0.49

> <Gold.Chemscore.Hbond.Weighted>
-6.0227

> <Gold.Chemscore.Metal.Weighted>
-0.0000

> <Gold.Chemscore.Lipo.Weighted>
-11.2204

> <Gold.Chemscore.Internal_Hbond.Weighted>
0.0000

> <Gold.Chemscore.DEClash.Weighted>
0.1407

> <Gold.Chemscore.DEInternal.Weighted>
0.2390

> <Gold.Chemscore.Rot.Weighted>
3.6999

> <Gold.Chemscore.Internal.Correction.Weighted>
   9.000000E+99

> <Gold.Protein.RotatedTorsions>
[ 6907 6896 6895 6894 ] final -124.37 input  -60.11 | X-H torsion
[ 7974 7965 7964 7962 ] final   45.57 input  175.53 | X-H torsion
[ 8008 7997 7996 7995 ] final    6.08 input   59.86 | X-H torsion
[ 10167 10162 10161 10158 ] final  121.30 input  -65.29 | X-H torsion
[ 10718 10713 10712 10709 ] final  112.25 input   66.30 | X-H torsion
[ 10763 10752 10751 10750 ] final  -28.96 input  -60.55 | X-H torsion
[ 11005 11000 10999 10996 ] final -119.80 input  -57.11 | X-H torsion

> <Gold.Protein.ActiveResidues>
 VAL166  LYS551  ARG553  GLY616  TRP617  ASP618  TYR619  PRO620  LYS621  CYS622 
 ASP623  PHE694  ASN695  SER759  ASP760  ASP761  ALA762  ILE779  LEU786  VAL792 
 PHE793  MET794  SER795  GLU796  ALA797  LYS798  CYS799  TRP800  GLU811  SER814 

> <Gold.Protein.RotatedAtoms>
  150.8762  133.7436  159.2945 H   0  0  0  0  0  0  0  0  0  0  0  0  # atno 6907 bound_to 6896
  151.5032  135.1061  159.9844 H   0  0  0  0  0  0  0  0  0  0  0  0  # atno 6908 bound_to 6896
  152.4729  133.8025  159.7016 H   0  0  0  0  0  0  0  0  0  0  0  0  # atno 6909 bound_to 6896
  146.0468  139.4950  142.9743 H   0  0  0  0  0  0  0  0  0  0  0  0  # atno 7974 bound_to 7965
  154.7365  140.2740  155.6410 H   0  0  0  0  0  0  0  0  0  0  0  0  # atno 8008 bound_to 7997
  156.2863  140.2705  156.2005 H   0  0  0  0  0  0  0  0  0  0  0  0  # atno 8009 bound_to 7997
  155.0314  140.0371  157.2465 H   0  0  0  0  0  0  0  0  0  0  0  0  # atno 8010 bound_to 7997
  139.5928  144.7031  151.3248 H   0  0  0  0  0  0  0  0  0  0  0  0  # atno 10167 bound_to 10162
  157.6402  131.0964  150.6867 H   0  0  0  0  0  0  0  0  0  0  0  0  # atno 10718 bound_to 10713
  153.7568  135.6922  153.4934 H   0  0  0  0  0  0  0  0  0  0  0  0  # atno 10763 bound_to 10752
  153.1965  135.4452  155.0213 H   0  0  0  0  0  0  0  0  0  0  0  0  # atno 10764 bound_to 10752
  154.8167  135.3402  154.7086 H   0  0  0  0  0  0  0  0  0  0  0  0  # atno 10765 bound_to 10752
  141.0190  134.0153  157.3310 H   0  0  0  0  0  0  0  0  0  0  0  0  # atno 11005 bound_to 11000
  145.6792  141.0196  143.1615 LP  0  0  0  0  0  0  0  0  0  0  0  0  # atno 17320 bound_to 7965
  144.7102  139.8401  143.7417 LP  0  0  0  0  0  0  0  0  0  0  0  0  # atno 17321 bound_to 7965
  140.7187  143.7195  150.7707 LP  0  0  0  0  0  0  0  0  0  0  0  0  # atno 17342 bound_to 10162
  140.0754  143.5020  152.2558 LP  0  0  0  0  0  0  0  0  0  0  0  0  # atno 17343 bound_to 10162
  156.7192  130.4675  149.5527 LP  0  0  0  0  0  0  0  0  0  0  0  0  # atno 17370 bound_to 10713
  156.1677  130.6416  151.0798 LP  0  0  0  0  0  0  0  0  0  0  0  0  # atno 17371 bound_to 10713
  139.9134  135.0193  156.7784 LP  0  0  0  0  0  0  0  0  0  0  0  0  # atno 17394 bound_to 11000
  140.6606  133.9648  155.7803 LP  0  0  0  0  0  0  0  0  0  0  0  0  # atno 17395 bound_to 11000

$$$$
