AV-unprocessed.smi:2517|AV-procd|sdf|9900|dock10
  -GOLD-   2272013533D 1   1.00000     0.00000
 Structure written by MMmdl.
 41 42  0  0  0  0  0  0  0  0  1 V2000
  152.9180  138.3672  154.5373 C   0  0  0  0  0  0  0  0  0  0  0  0
  151.4646  138.0919  154.1363 C   0  0  0  0  0  0  0  0  0  0  0  0
  150.5596  139.2441  154.4764 C   0  0  0  0  0  0  0  0  0  0  0  0
  151.0322  140.2772  155.1606 N   0  0  0  0  0  0  0  0  0  0  0  0
  149.9860  141.1278  155.2883 N   0  0  0  0  0  0  0  0  0  0  0  0
  150.1703  142.3755  155.9975 C   0  0  0  0  0  0  0  0  0  0  0  0
  148.8421  140.6446  154.6865 C   0  0  0  0  0  0  0  0  0  0  0  0
  149.1884  139.4346  154.1545 C   0  0  0  0  0  0  0  0  0  0  0  0
  148.3934  138.5208  153.4165 N   0  0  0  0  0  0  0  0  0  0  0  0
  147.0532  138.4461  153.3824 C   0  0  0  0  0  0  0  0  0  0  0  0
  146.2858  139.1621  154.0259 O   0  0  0  0  0  0  0  0  0  0  0  0
  146.6416  137.4812  152.5510 N   0  0  0  0  0  0  0  0  0  0  0  0
  145.2455  137.1621  152.2841 C   0  0  0  0  0  0  0  0  0  0  0  0
  145.0230  135.6435  152.3023 C   0  0  0  0  0  0  0  0  0  0  0  0
  145.1864  135.0966  153.6112 O   0  0  0  0  0  0  0  0  0  0  0  0
  144.2775  135.5642  154.5994 C   0  0  0  0  0  0  0  0  0  0  0  0
  143.7007  135.1054  151.7234 C   0  0  0  0  0  0  0  0  0  0  0  0
  144.4408  134.7962  150.4209 C   0  0  0  0  0  0  0  0  0  0  0  0
  145.7313  134.7770  151.2416 C   0  0  0  0  0  0  0  0  0  0  0  0
  153.5582  137.5230  154.2815 H   0  0  0  0  0  0  0  0  0  0  0  0
  153.0058  138.5386  155.6104 H   0  0  0  0  0  0  0  0  0  0  0  0
  153.3058  139.2474  154.0240 H   0  0  0  0  0  0  0  0  0  0  0  0
  151.4179  137.8833  153.0673 H   0  0  0  0  0  0  0  0  0  0  0  0
  151.1174  137.1853  154.6334 H   0  0  0  0  0  0  0  0  0  0  0  0
  149.2534  142.9646  155.9634 H   0  0  0  0  0  0  0  0  0  0  0  0
  150.9759  142.9474  155.5360 H   0  0  0  0  0  0  0  0  0  0  0  0
  150.4238  142.1736  157.0384 H   0  0  0  0  0  0  0  0  0  0  0  0
  147.9142  141.1970  154.6905 H   0  0  0  0  0  0  0  0  0  0  0  0
  148.8999  137.8597  152.8458 H   0  0  0  0  0  0  0  0  0  0  0  0
  147.3361  136.9399  152.0573 H   0  0  0  0  0  0  0  0  0  0  0  0
  144.6311  137.6452  153.0451 H   0  0  0  0  0  0  0  0  0  0  0  0
  144.9358  137.5932  151.3315 H   0  0  0  0  0  0  0  0  0  0  0  0
  144.5713  135.1676  155.5712 H   0  0  0  0  0  0  0  0  0  0  0  0
  143.2600  135.2251  154.4061 H   0  0  0  0  0  0  0  0  0  0  0  0
  144.2777  136.6519  154.6720 H   0  0  0  0  0  0  0  0  0  0  0  0
  143.3456  134.2033  152.2253 H   0  0  0  0  0  0  0  0  0  0  0  0
  142.9055  135.8446  151.6238 H   0  0  0  0  0  0  0  0  0  0  0  0
  144.1773  133.8439  149.9600 H   0  0  0  0  0  0  0  0  0  0  0  0
  144.4039  135.6193  149.7057 H   0  0  0  0  0  0  0  0  0  0  0  0
  146.5826  135.2540  150.7554 H   0  0  0  0  0  0  0  0  0  0  0  0
  145.9815  133.7754  151.5962 H   0  0  0  0  0  0  0  0  0  0  0  0
  1  2  1  0  0  0  0
  1 20  1  0  0  0  0
  1 21  1  0  0  0  0
  1 22  1  0  0  0  0
  2  3  1  0  0  0  0
  2 23  1  0  0  0  0
  2 24  1  0  0  0  0
  3  8  1  0  0  0  0
  3  4  2  0  0  0  0
  4  5  1  0  0  0  0
  5  6  1  0  0  0  0
  5  7  1  0  0  0  0
  6 25  1  0  0  0  0
  6 26  1  0  0  0  0
  6 27  1  0  0  0  0
  7  8  2  0  0  0  0
  7 28  1  0  0  0  0
  8  9  1  0  0  0  0
  9 10  1  0  0  0  0
  9 29  1  0  0  0  0
 10 11  2  0  0  0  0
 10 12  1  0  0  0  0
 12 13  1  0  0  0  0
 12 30  1  0  0  0  0
 13 14  1  0  0  0  0
 13 31  1  0  0  0  0
 13 32  1  0  0  0  0
 14 19  1  0  0  0  0
 14 15  1  0  0  0  0
 14 17  1  0  0  0  0
 15 16  1  0  0  0  0
 16 33  1  0  0  0  0
 16 34  1  0  0  0  0
 16 35  1  0  0  0  0
 17 18  1  0  0  0  0
 17 36  1  0  0  0  0
 17 37  1  0  0  0  0
 18 19  1  0  0  0  0
 18 38  1  0  0  0  0
 18 39  1  0  0  0  0
 19 40  1  0  0  0  0
 19 41  1  0  0  0  0
M  END
> <s_m_source_file>
AV-unprocessed.smi

> <i_m_source_file_index>
2517

> <i_lp_mmshare_version>
43012

> <i_f3d_flags>
0

> <s_epik_input>
W0NIM11bQ0gyXWMxbm4oW0NIM10pW2NIXWMxW05IXUMoPU8pW05IXVtDSDJdQzIoT1tDSDNdKVtDSDJdW0NIMl1bQ0gyXTI=

> <s_epik_cmdline>
J2VwaWtfcHl0aG9uJywgJy1waCcsICc3LjAnLCAnLXRuJywgJzgnLCAnLW1hJywgJzIwMCcsICctbWV0YWxfYmluZGluZycsICctaW1hZScsICc8aW5maWxlLm1hZT4nLCAnLW9tYWUnLCAnPG91dGZpbGUubWFlPic=

> <r_lp_tautomer_probability>
1

> <r_epik_Ionization_Penalty>
0.000729918

> <r_epik_Ionization_Penalty_Charging>
0

> <r_epik_Ionization_Penalty_Neutral>
0.000729918

> <r_epik_State_Penalty>
-0

> <r_epik_Charging_Adjusted_Penalty>
0

> <i_epik_Tot_Q>
0

> <i_epik_Tot_abs_Q>
0

> <r_epik_Metal_State_Penalty>
-0

> <b_epik_Metal_Only>
0

> <s_lp_Force_Field>
OPLS_2005

> <r_lp_Energy>
14.833

> <b_lp_Chiralities_Consistent>
1

> <s_lp_Variant>
AV-unprocessed.smi:2517-1

> <Gold.Version>
5.8.1

> <Gold.Id.Protein>
6NUR|6NUR_protein|mol2

> <Gold.PLP.Fitness>
37.6109

> <Gold.PLP.PLP>
-31.3935

> <Gold.PLP.part.hbond>
-4.0000

> <Gold.PLP.part.metal>
0.0000

> <Gold.PLP.part.buried>
0.6049

> <Gold.PLP.part.nonpolar>
-27.6664

> <Gold.PLP.part.repulsive>
0.3341

> <Gold.PLP.ligand.clash>
0.0000

> <Gold.PLP.ligand.torsion>
0.3901

> <Gold.PLP.Chemscore.Hbond>
2.2375

> <Gold.PLP.Chemscore.CHOScore>
0.0000

> <Gold.PLP.Chemscore.Metal>
0.0000

> <Gold.Chemscore.Hbonds>
donor molecule, donor type, donor heavy atom, donor atom, acceptor molecule, acceptor atom, score
      L1  H     9    29       P1  7948  1.00
      L1  H    12    30       P1  7948  1.00
      P1  H  7989  7998       L1     4  0.23

> <Gold.PLP.Chemscore.Internal.Correction>
0.2851

> <Gold.Rescore>
     Score         DG    S(hbond)    S(metal)    S(lipo)     H(rot)  DE(clash)    DE(int)     intcor
     13.87     -16.73       1.94        0.00      74.76       1.55       1.36       1.50       ----

> <Gold.Chemscore.Fitness>
13.8686

> <Gold.Chemscore.DG>
-16.7336

> <Gold.Chemscore.ZeroCoef>
-5.4800

> <Gold.Chemscore.Hbond>
1.9380

> <Gold.Chemscore.Metal>
0.0000

> <Gold.Chemscore.Lipo>
74.7573

> <Gold.Chemscore.Internal_Hbond>
0.0000

> <Gold.Chemscore.DEClash>
1.3646

> <Gold.Chemscore.DEInternal>
1.5004

> <Gold.Chemscore.Rot>
1.5493

> <Gold.Chemscore.Internal.Correction>
   9.000000E+99

> <Gold.Chemscore.Hbonds>
donor molecule, donor type, donor heavy atom, donor atom, acceptor molecule, acceptor atom, score
      L1  H     9    29       P1  7948  0.96
      L1  H    12    30       P1  7948  0.98

> <Gold.Chemscore.Hbond.Weighted>
-6.4731

> <Gold.Chemscore.Metal.Weighted>
-0.0000

> <Gold.Chemscore.Lipo.Weighted>
-8.7466

> <Gold.Chemscore.Internal_Hbond.Weighted>
0.0000

> <Gold.Chemscore.DEClash.Weighted>
1.3646

> <Gold.Chemscore.DEInternal.Weighted>
1.5004

> <Gold.Chemscore.Rot.Weighted>
3.9661

> <Gold.Chemscore.Internal.Correction.Weighted>
   9.000000E+99

> <Gold.Protein.RotatedTorsions>
[ 6907 6896 6895 6894 ] final   27.99 input  -60.11 | X-H torsion
[ 7974 7965 7964 7962 ] final   62.74 input  175.53 | X-H torsion
[ 8008 7997 7996 7995 ] final  133.30 input   59.86 | X-H torsion
[ 10167 10162 10161 10158 ] final  -56.45 input  -65.29 | X-H torsion
[ 10718 10713 10712 10709 ] final    5.02 input   66.30 | X-H torsion
[ 10763 10752 10751 10750 ] final  100.72 input  -60.55 | X-H torsion
[ 11005 11000 10999 10996 ] final   17.20 input  -57.11 | X-H torsion

> <Gold.Protein.ActiveResidues>
 VAL166  LYS551  ARG553  GLY616  TRP617  ASP618  TYR619  PRO620  LYS621  CYS622 
 ASP623  PHE694  ASN695  SER759  ASP760  ASP761  ALA762  ILE779  LEU786  VAL792 
 PHE793  MET794  SER795  GLU796  ALA797  LYS798  CYS799  TRP800  GLU811  SER814 

> <Gold.Protein.RotatedAtoms>
  152.0104  134.9879  160.0567 H   0  0  0  0  0  0  0  0  0  0  0  0  # atno 6907 bound_to 6896
  152.1434  133.4473  159.4786 H   0  0  0  0  0  0  0  0  0  0  0  0  # atno 6908 bound_to 6896
  150.6867  134.2196  159.4434 H   0  0  0  0  0  0  0  0  0  0  0  0  # atno 6909 bound_to 6896
  145.8699  139.3371  143.0769 H   0  0  0  0  0  0  0  0  0  0  0  0  # atno 7974 bound_to 7965
  156.2991  140.2525  156.3231 H   0  0  0  0  0  0  0  0  0  0  0  0  # atno 8008 bound_to 7997
  154.9216  140.0400  157.2020 H   0  0  0  0  0  0  0  0  0  0  0  0  # atno 8009 bound_to 7997
  154.8305  140.2875  155.5729 H   0  0  0  0  0  0  0  0  0  0  0  0  # atno 8010 bound_to 7997
  140.6316  143.2462  151.5226 H   0  0  0  0  0  0  0  0  0  0  0  0  # atno 10167 bound_to 10162
  156.9013  130.5722  149.5648 H   0  0  0  0  0  0  0  0  0  0  0  0  # atno 10718 bound_to 10713
  153.3175  135.4069  155.1388 H   0  0  0  0  0  0  0  0  0  0  0  0  # atno 10763 bound_to 10752
  154.8592  135.3579  154.5641 H   0  0  0  0  0  0  0  0  0  0  0  0  # atno 10764 bound_to 10752
  153.6073  135.7069  153.5419 H   0  0  0  0  0  0  0  0  0  0  0  0  # atno 10765 bound_to 10752
  140.4386  134.1345  155.7688 H   0  0  0  0  0  0  0  0  0  0  0  0  # atno 11005 bound_to 11000
  145.9149  140.9155  143.0435 LP  0  0  0  0  0  0  0  0  0  0  0  0  # atno 17320 bound_to 7965
  144.6726  140.1210  143.7450 LP  0  0  0  0  0  0  0  0  0  0  0  0  # atno 17321 bound_to 7965
  139.5530  144.2348  152.1563 LP  0  0  0  0  0  0  0  0  0  0  0  0  # atno 17342 bound_to 10162
  140.1593  144.5041  150.6642 LP  0  0  0  0  0  0  0  0  0  0  0  0  # atno 17343 bound_to 10162
  156.0581  130.5638  150.9134 LP  0  0  0  0  0  0  0  0  0  0  0  0  # atno 17370 bound_to 10713
  157.6024  131.0940  150.8937 LP  0  0  0  0  0  0  0  0  0  0  0  0  # atno 17371 bound_to 10713
  141.1715  133.8599  157.1555 LP  0  0  0  0  0  0  0  0  0  0  0  0  # atno 17394 bound_to 11000
  140.0085  134.9998  157.0344 LP  0  0  0  0  0  0  0  0  0  0  0  0  # atno 17395 bound_to 11000

$$$$
