AV-unprocessed.smi:1296|AV-procd|sdf|5414|dock8
  -GOLD-   22720 4573D 1   1.00000     0.00000
 Structure written by MMmdl.
 36 36  0  0  0  0  0  0  0  0  1 V2000
  146.2179  138.1237  152.4892 C   0  0  0  0  0  0  0  0  0  0  0  0
  147.1251  139.1374  153.1526 C   0  0  0  0  0  0  0  0  0  0  0  0
  146.5113  140.3538  153.4019 N   0  0  0  0  0  0  0  0  0  0  0  0
  147.2663  141.3503  153.9950 C   0  0  0  0  0  0  0  0  0  0  0  0
  146.5213  142.6532  154.2275 C   0  0  0  0  0  0  0  0  0  0  0  0
  148.5650  141.1426  154.3301 C   0  0  0  0  0  0  0  0  0  0  0  0
  149.4342  142.2166  154.9837 C   0  0  0  0  0  0  0  0  0  0  0  0
  150.1327  141.8272  156.2894 C   0  0  0  0  0  0  0  0  0  0  0  0
  150.2651  140.6449  156.6063 O   0  0  0  0  0  0  0  0  0  0  0  0
  150.5793  142.8434  157.0404 N   0  0  0  0  0  0  0  0  0  0  0  0
  151.2833  142.6872  158.3068 C   0  0  0  0  0  0  0  0  0  0  0  0
  151.7639  144.0427  158.8605 C   0  0  0  0  0  0  0  0  0  0  0  0
  152.8353  144.6947  157.9689 C   0  0  0  0  0  0  0  0  0  0  0  0
  152.2771  143.8912  160.2999 C   0  0  0  0  0  0  0  0  0  0  0  0
  149.1620  139.8149  154.0529 C   0  0  0  0  0  0  0  0  0  0  0  0
  150.3271  139.5576  154.3526 O   0  0  0  0  0  0  0  0  0  0  0  0
  148.3569  138.8423  153.4377 N   0  0  0  0  0  0  0  0  0  0  0  0
  145.5486  140.5503  153.1695 H   0  0  0  0  0  0  0  0  0  0  0  0
  146.7261  137.1662  152.3674 H   0  0  0  0  0  0  0  0  0  0  0  0
  145.9128  138.4758  151.5034 H   0  0  0  0  0  0  0  0  0  0  0  0
  145.3238  137.9603  153.0914 H   0  0  0  0  0  0  0  0  0  0  0  0
  146.9822  143.4623  153.6608 H   0  0  0  0  0  0  0  0  0  0  0  0
  146.5387  142.9185  155.2848 H   0  0  0  0  0  0  0  0  0  0  0  0
  145.4779  142.5801  153.9186 H   0  0  0  0  0  0  0  0  0  0  0  0
  148.8111  143.0877  155.1873 H   0  0  0  0  0  0  0  0  0  0  0  0
  150.1882  142.5739  154.2815 H   0  0  0  0  0  0  0  0  0  0  0  0
  150.4316  143.7856  156.7089 H   0  0  0  0  0  0  0  0  0  0  0  0
  150.6139  142.2084  159.0232 H   0  0  0  0  0  0  0  0  0  0  0  0
  152.1330  142.0166  158.1678 H   0  0  0  0  0  0  0  0  0  0  0  0
  150.9055  144.7155  158.8916 H   0  0  0  0  0  0  0  0  0  0  0  0
  153.7133  144.0549  157.8740 H   0  0  0  0  0  0  0  0  0  0  0  0
  153.1629  145.6481  158.3842 H   0  0  0  0  0  0  0  0  0  0  0  0
  152.4582  144.8932  156.9656 H   0  0  0  0  0  0  0  0  0  0  0  0
  153.1387  143.2241  160.3449 H   0  0  0  0  0  0  0  0  0  0  0  0
  151.5049  143.4823  160.9520 H   0  0  0  0  0  0  0  0  0  0  0  0
  152.5796  144.8535  160.7138 H   0  0  0  0  0  0  0  0  0  0  0  0
  1 19  1  0  0  0  0
  1 20  1  0  0  0  0
  1 21  1  0  0  0  0
  1  2  1  0  0  0  0
  2  3  1  0  0  0  0
  2 17  2  0  0  0  0
  3  4  1  0  0  0  0
  3 18  1  0  0  0  0
  4  6  2  0  0  0  0
  4  5  1  0  0  0  0
  5 22  1  0  0  0  0
  5 23  1  0  0  0  0
  5 24  1  0  0  0  0
  6 15  1  0  0  0  0
  6  7  1  0  0  0  0
  7  8  1  0  0  0  0
  7 25  1  0  0  0  0
  7 26  1  0  0  0  0
  8  9  2  0  0  0  0
  8 10  1  0  0  0  0
 10 11  1  0  0  0  0
 10 27  1  0  0  0  0
 11 12  1  0  0  0  0
 11 28  1  0  0  0  0
 11 29  1  0  0  0  0
 12 13  1  0  0  0  0
 12 14  1  0  0  0  0
 12 30  1  0  0  0  0
 13 31  1  0  0  0  0
 13 32  1  0  0  0  0
 13 33  1  0  0  0  0
 14 34  1  0  0  0  0
 14 35  1  0  0  0  0
 14 36  1  0  0  0  0
 15 16  2  0  0  0  0
 15 17  1  0  0  0  0
M  END
> <s_m_source_file>
AV-unprocessed.smi

> <i_m_source_file_index>
1296

> <i_lp_mmshare_version>
43012

> <i_f3d_flags>
0

> <s_epik_input>
W0NIM11jMW5jKFtDSDNdKWMoYyg9TylbbkhdMSlbQ0gyXUMoPU8pW05IXVtDSDJdW0NIXShbQ0gzXSlbQ0gzXQ==

> <s_epik_cmdline>
J2VwaWtfcHl0aG9uJywgJy1waCcsICc3LjAnLCAnLXRuJywgJzgnLCAnLW1hJywgJzIwMCcsICctbWV0YWxfYmluZGluZycsICctaW1hZScsICc8aW5maWxlLm1hZT4nLCAnLW9tYWUnLCAnPG91dGZpbGUubWFlPic=

> <r_lp_tautomer_probability>
0.156392

> <r_epik_Ionization_Penalty>
0.0142343

> <r_epik_Ionization_Penalty_Charging>
0.0141145

> <r_epik_Ionization_Penalty_Neutral>
0.000119779

> <r_epik_State_Penalty>
1.52879

> <r_epik_Charging_Adjusted_Penalty>
1.5429

> <i_epik_Tot_Q>
0

> <i_epik_Tot_abs_Q>
0

> <r_epik_Metal_State_Penalty>
1.70685

> <b_epik_Metal_Only>
0

> <s_lp_Force_Field>
OPLS_2005

> <r_lp_Energy>
9.70595

> <b_lp_Chiralities_Consistent>
1

> <s_lp_Variant>
AV-unprocessed.smi:1296-2

> <Gold.Version>
5.8.1

> <Gold.Id.Protein>
6NUR|6NUR_protein|mol2

> <Gold.PLP.Fitness>
42.4120

> <Gold.PLP.PLP>
-35.0857

> <Gold.PLP.part.hbond>
-3.0000

> <Gold.PLP.part.metal>
0.0000

> <Gold.PLP.part.buried>
0.4733

> <Gold.PLP.part.nonpolar>
-34.4666

> <Gold.PLP.part.repulsive>
2.3501

> <Gold.PLP.ligand.clash>
0.0000

> <Gold.PLP.ligand.torsion>
0.3259

> <Gold.PLP.Chemscore.Hbond>
2.6548

> <Gold.PLP.Chemscore.CHOScore>
0.0000

> <Gold.PLP.Chemscore.Metal>
0.0000

> <Gold.Chemscore.Hbonds>
donor molecule, donor type, donor heavy atom, donor atom, acceptor molecule, acceptor atom, score
      L1  H     3    18       P1 10175  1.00
      L1  H    10    27       P1  8028  0.63
      P1  H  7989  7998       L1    16  0.99

> <Gold.PLP.Chemscore.Internal.Correction>
0.0138

> <Gold.Rescore>
     Score         DG    S(hbond)    S(metal)    S(lipo)     H(rot)  DE(clash)    DE(int)     intcor
     12.46     -19.44       2.58        0.00      83.38       1.73       2.66       4.32       ----

> <Gold.Chemscore.Fitness>
12.4561

> <Gold.Chemscore.DG>
-19.4354

> <Gold.Chemscore.ZeroCoef>
-5.4800

> <Gold.Chemscore.Hbond>
2.5830

> <Gold.Chemscore.Metal>
0.0000

> <Gold.Chemscore.Lipo>
83.3832

> <Gold.Chemscore.Internal_Hbond>
0.0000

> <Gold.Chemscore.DEClash>
2.6602

> <Gold.Chemscore.DEInternal>
4.3192

> <Gold.Chemscore.Rot>
1.7296

> <Gold.Chemscore.Internal.Correction>
   9.000000E+99

> <Gold.Chemscore.Hbonds>
donor molecule, donor type, donor heavy atom, donor atom, acceptor molecule, acceptor atom, score
      L1  H     3    18       P1 10175  0.86
      L1  H    10    27       P1  8028  0.61
      P1  H  7989  7998       L1    16  0.72

> <Gold.Chemscore.Hbond.Weighted>
-8.6272

> <Gold.Chemscore.Metal.Weighted>
-0.0000

> <Gold.Chemscore.Lipo.Weighted>
-9.7558

> <Gold.Chemscore.Internal_Hbond.Weighted>
0.0000

> <Gold.Chemscore.DEClash.Weighted>
2.6602

> <Gold.Chemscore.DEInternal.Weighted>
4.3192

> <Gold.Chemscore.Rot.Weighted>
4.4277

> <Gold.Chemscore.Internal.Correction.Weighted>
   9.000000E+99

> <Gold.Protein.RotatedTorsions>
[ 6907 6896 6895 6894 ] final   16.89 input  -60.11 | X-H torsion
[ 7974 7965 7964 7962 ] final  172.79 input  175.53 | X-H torsion
[ 8008 7997 7996 7995 ] final   40.67 input   59.86 | X-H torsion
[ 10167 10162 10161 10158 ] final   50.25 input  -65.29 | X-H torsion
[ 10718 10713 10712 10709 ] final   18.01 input   66.30 | X-H torsion
[ 10763 10752 10751 10750 ] final  114.05 input  -60.55 | X-H torsion
[ 11005 11000 10999 10996 ] final -178.19 input  -57.11 | X-H torsion

> <Gold.Protein.ActiveResidues>
 VAL166  LYS551  ARG553  GLY616  TRP617  ASP618  TYR619  PRO620  LYS621  CYS622 
 ASP623  PHE694  ASN695  SER759  ASP760  ASP761  ALA762  ILE779  LEU786  VAL792 
 PHE793  MET794  SER795  GLU796  ALA797  LYS798  CYS799  TRP800  GLU811  SER814 

> <Gold.Protein.RotatedAtoms>
  151.8410  135.0590  160.0447 H   0  0  0  0  0  0  0  0  0  0  0  0  # atno 6907 bound_to 6896
  152.2809  133.5465  159.5505 H   0  0  0  0  0  0  0  0  0  0  0  0  # atno 6908 bound_to 6896
  150.7189  134.0481  159.3831 H   0  0  0  0  0  0  0  0  0  0  0  0  # atno 6909 bound_to 6896
  144.7259  139.9551  143.6433 H   0  0  0  0  0  0  0  0  0  0  0  0  # atno 7974 bound_to 7965
  155.2569  140.3356  155.4277 H   0  0  0  0  0  0  0  0  0  0  0  0  # atno 8008 bound_to 7997
  156.2191  140.1801  156.7561 H   0  0  0  0  0  0  0  0  0  0  0  0  # atno 8009 bound_to 7997
  154.5798  140.0655  156.9073 H   0  0  0  0  0  0  0  0  0  0  0  0  # atno 8010 bound_to 7997
  140.2743  144.3229  150.6281 H   0  0  0  0  0  0  0  0  0  0  0  0  # atno 10167 bound_to 10162
  157.0902  130.6424  149.5847 H   0  0  0  0  0  0  0  0  0  0  0  0  # atno 10718 bound_to 10713
  153.5016  135.3637  155.2542 H   0  0  0  0  0  0  0  0  0  0  0  0  # atno 10763 bound_to 10752
  154.8747  135.4001  154.3472 H   0  0  0  0  0  0  0  0  0  0  0  0  # atno 10764 bound_to 10752
  153.4109  135.7078  153.6426 H   0  0  0  0  0  0  0  0  0  0  0  0  # atno 10765 bound_to 10752
  140.4326  134.6505  157.4719 H   0  0  0  0  0  0  0  0  0  0  0  0  # atno 11005 bound_to 11000
  146.0681  139.3671  143.0540 LP  0  0  0  0  0  0  0  0  0  0  0  0  # atno 17320 bound_to 7965
  145.8004  140.9773  143.1002 LP  0  0  0  0  0  0  0  0  0  0  0  0  # atno 17321 bound_to 7965
  140.5864  143.2170  151.7335 LP  0  0  0  0  0  0  0  0  0  0  0  0  # atno 17342 bound_to 10162
  139.4980  144.4005  152.0186 LP  0  0  0  0  0  0  0  0  0  0  0  0  # atno 17343 bound_to 10162
  155.9900  130.4949  150.7238 LP  0  0  0  0  0  0  0  0  0  0  0  0  # atno 17370 bound_to 10713
  157.4727  131.0895  151.0624 LP  0  0  0  0  0  0  0  0  0  0  0  0  # atno 17371 bound_to 10713
  140.0124  134.6670  155.9360 LP  0  0  0  0  0  0  0  0  0  0  0  0  # atno 17394 bound_to 11000
  141.1739  133.6539  156.4755 LP  0  0  0  0  0  0  0  0  0  0  0  0  # atno 17395 bound_to 11000

$$$$
