AV-unprocessed.smi:910|AV-procd|sdf|4119|dock8
  -GOLD-   22720 2 13D 1   1.00000     0.00000
 Structure written by MMmdl.
 46 47  0  0  0  0  0  0  0  0  1 V2000
  146.6079  134.1716  159.4839 C   0  0  0  0  0  0  0  0  0  0  0  0
  147.5038  135.2866  159.9237 C   0  0  0  0  0  0  0  0  0  0  0  0
  148.2801  136.0076  159.0274 N   0  0  0  0  0  0  0  0  0  0  0  0
  148.9259  136.8972  159.7835 C   0  0  0  0  0  0  0  0  0  0  0  0
  149.8520  137.8719  159.3357 N   0  0  0  0  0  0  0  0  0  0  0  0
  151.1854  137.8684  159.4970 C   0  0  0  0  0  0  0  0  0  0  0  0
  151.8322  136.9783  160.0497 O   0  0  0  0  0  0  0  0  0  0  0  0
  151.7382  138.9770  158.9849 N   0  0  0  0  0  0  0  0  0  0  0  0
  153.1521  139.3291  159.0680 C   0  0  0  0  0  0  0  0  0  0  0  0
  153.3593  140.6641  159.7988 C   0  0  0  0  0  0  0  0  0  0  0  0
  153.0690  141.7225  158.8976 O   0  0  0  0  0  0  0  0  0  0  0  0
  152.2514  142.7519  159.4376 C   0  0  1  0  0  0  0  0  0  0  0  0
  152.9728  143.4058  160.6338 C   0  0  0  0  0  0  0  0  0  0  0  0
  152.1961  144.6200  161.1639 C   0  0  0  0  0  0  0  0  0  0  0  0
  151.9433  145.6432  160.0476 C   0  0  0  0  0  0  0  0  0  0  0  0
  151.2153  144.9958  158.8597 C   0  0  0  0  0  0  0  0  0  0  0  0
  151.9854  143.7770  158.3126 C   0  0  2  0  0  0  0  0  0  0  0  0
  151.2312  143.1410  157.1325 C   0  0  0  0  0  0  0  0  0  0  0  0
  148.6297  136.8121  161.1075 O   0  0  0  0  0  0  0  0  0  0  0  0
  147.7253  135.7864  161.1821 C   0  0  0  0  0  0  0  0  0  0  0  0
  147.1894  135.4280  162.5264 C   0  0  0  0  0  0  0  0  0  0  0  0
  146.6126  133.3543  160.2053 H   0  0  0  0  0  0  0  0  0  0  0  0
  146.9209  133.7632  158.5224 H   0  0  0  0  0  0  0  0  0  0  0  0
  145.5787  134.5149  159.3788 H   0  0  0  0  0  0  0  0  0  0  0  0
  149.4535  138.6681  158.8606 H   0  0  0  0  0  0  0  0  0  0  0  0
  151.1302  139.6528  158.5466 H   0  0  0  0  0  0  0  0  0  0  0  0
  153.7070  138.5327  159.5661 H   0  0  0  0  0  0  0  0  0  0  0  0
  153.5464  139.3980  158.0539 H   0  0  0  0  0  0  0  0  0  0  0  0
  152.7083  140.7147  160.6729 H   0  0  0  0  0  0  0  0  0  0  0  0
  154.3868  140.7397  160.1552 H   0  0  0  0  0  0  0  0  0  0  0  0
  151.2913  142.3480  159.7645 H   0  0  0  0  0  0  0  0  0  0  0  0
  153.1076  142.6831  161.4383 H   0  0  0  0  0  0  0  0  0  0  0  0
  153.9725  143.7195  160.3305 H   0  0  0  0  0  0  0  0  0  0  0  0
  151.2440  144.2916  161.5825 H   0  0  0  0  0  0  0  0  0  0  0  0
  152.7487  145.0880  161.9792 H   0  0  0  0  0  0  0  0  0  0  0  0
  151.3566  146.4772  160.4337 H   0  0  0  0  0  0  0  0  0  0  0  0
  152.8926  146.0616  159.7110 H   0  0  0  0  0  0  0  0  0  0  0  0
  150.2154  144.6900  159.1714 H   0  0  0  0  0  0  0  0  0  0  0  0
  151.0784  145.7357  158.0704 H   0  0  0  0  0  0  0  0  0  0  0  0
  152.9482  144.1298  157.9397 H   0  0  0  0  0  0  0  0  0  0  0  0
  150.2615  142.7521  157.4447 H   0  0  0  0  0  0  0  0  0  0  0  0
  151.7946  142.3143  156.6985 H   0  0  0  0  0  0  0  0  0  0  0  0
  151.0582  143.8688  156.3395 H   0  0  0  0  0  0  0  0  0  0  0  0
  146.1203  135.2213  162.4746 H   0  0  0  0  0  0  0  0  0  0  0  0
  147.3412  136.2399  163.2380 H   0  0  0  0  0  0  0  0  0  0  0  0
  147.6872  134.5395  162.9149 H   0  0  0  0  0  0  0  0  0  0  0  0
  1  2  1  0  0  0  0
  1 22  1  0  0  0  0
  1 23  1  0  0  0  0
  1 24  1  0  0  0  0
  2 20  2  0  0  0  0
  2  3  1  0  0  0  0
  3  4  2  0  0  0  0
  4  5  1  0  0  0  0
  4 19  1  0  0  0  0
  5  6  1  0  0  0  0
  5 25  1  0  0  0  0
  6  7  2  0  0  0  0
  6  8  1  0  0  0  0
  8  9  1  0  0  0  0
  8 26  1  0  0  0  0
  9 10  1  0  0  0  0
  9 27  1  0  0  0  0
  9 28  1  0  0  0  0
 10 11  1  0  0  0  0
 10 29  1  0  0  0  0
 10 30  1  0  0  0  0
 11 12  1  0  0  0  0
 12 17  1  0  0  0  0
 12 13  1  0  0  0  0
 12 31  1  0  0  0  0
 13 14  1  0  0  0  0
 13 32  1  0  0  0  0
 13 33  1  0  0  0  0
 14 15  1  0  0  0  0
 14 34  1  0  0  0  0
 14 35  1  0  0  0  0
 15 16  1  0  0  0  0
 15 36  1  0  0  0  0
 15 37  1  0  0  0  0
 16 17  1  0  0  0  0
 16 38  1  0  0  0  0
 16 39  1  0  0  0  0
 17 18  1  0  0  0  0
 17 40  1  0  0  0  0
 18 41  1  0  0  0  0
 18 42  1  0  0  0  0
 18 43  1  0  0  0  0
 19 20  1  0  0  0  0
 20 21  1  0  0  0  0
 21 44  1  0  0  0  0
 21 45  1  0  0  0  0
 21 46  1  0  0  0  0
M  END
> <s_m_source_file>
AV-unprocessed.smi

> <i_m_source_file_index>
910

> <i_lp_mmshare_version>
43012

> <i_f3d_flags>
0

> <s_epik_input>
W0NIM11jMW5jKG9jMVtDSDNdKVtOSF1DKD1PKVtOSF1bQ0gyXVtDSDJdT1tDQEBIXTJbQ0gyXVtDSDJdW0NIMl1bQ0gyXVtDQEhdMltDSDNd

> <s_epik_cmdline>
J2VwaWtfcHl0aG9uJywgJy1waCcsICc3LjAnLCAnLXRuJywgJzgnLCAnLW1hJywgJzIwMCcsICctbWV0YWxfYmluZGluZycsICctaW1hZScsICc8aW5maWxlLm1hZT4nLCAnLW9tYWUnLCAnPG91dGZpbGUubWFlPic=

> <r_lp_tautomer_probability>
0.785861

> <r_epik_Ionization_Penalty>
4.15957e-05

> <r_epik_Ionization_Penalty_Charging>
0

> <r_epik_Ionization_Penalty_Neutral>
4.15957e-05

> <r_epik_State_Penalty>
0.0240523

> <r_epik_Charging_Adjusted_Penalty>
0.0240523

> <i_epik_Tot_Q>
0

> <i_epik_Tot_abs_Q>
0

> <r_epik_Metal_State_Penalty>
0.057053

> <b_epik_Metal_Only>
0

> <s_lp_Force_Field>
OPLS_2005

> <r_lp_Energy>
8.26637

> <b_lp_Chiralities_Consistent>
1

> <s_lp_Variant>
AV-unprocessed.smi:910-4

> <Gold.Version>
5.8.1

> <Gold.Id.Protein>
6NUR|6NUR_protein|mol2

> <Gold.PLP.Fitness>
44.7524

> <Gold.PLP.PLP>
-40.9590

> <Gold.PLP.part.hbond>
-2.0000

> <Gold.PLP.part.metal>
0.0000

> <Gold.PLP.part.buried>
-4.4354

> <Gold.PLP.part.nonpolar>
-35.5398

> <Gold.PLP.part.repulsive>
0.3162

> <Gold.PLP.ligand.clash>
0.0000

> <Gold.PLP.ligand.torsion>
1.0999

> <Gold.PLP.Chemscore.Hbond>
1.9920

> <Gold.PLP.Chemscore.CHOScore>
0.0000

> <Gold.PLP.Chemscore.Metal>
0.0000

> <Gold.Chemscore.Hbonds>
donor molecule, donor type, donor heavy atom, donor atom, acceptor molecule, acceptor atom, score
      P1  H  6896  6908       L1     7  1.00
      P1  H  6931  6943       L1    19  1.00

> <Gold.PLP.Chemscore.Internal.Correction>
0.0173

> <Gold.Rescore>
     Score         DG    S(hbond)    S(metal)    S(lipo)     H(rot)  DE(clash)    DE(int)     intcor
     19.82     -21.11       1.85        0.00     116.95       1.66       0.17       1.11       ----

> <Gold.Chemscore.Fitness>
19.8245

> <Gold.Chemscore.DG>
-21.1091

> <Gold.Chemscore.ZeroCoef>
-5.4800

> <Gold.Chemscore.Hbond>
1.8533

> <Gold.Chemscore.Metal>
0.0000

> <Gold.Chemscore.Lipo>
116.9463

> <Gold.Chemscore.Internal_Hbond>
0.0000

> <Gold.Chemscore.DEClash>
0.1702

> <Gold.Chemscore.DEInternal>
1.1145

> <Gold.Chemscore.Rot>
1.6576

> <Gold.Chemscore.Internal.Correction>
   9.000000E+99

> <Gold.Chemscore.Hbonds>
donor molecule, donor type, donor heavy atom, donor atom, acceptor molecule, acceptor atom, score
      P1  H  6896  6908       L1     7  0.98
      P1  H  6931  6943       L1    19  0.74

> <Gold.Chemscore.Hbond.Weighted>
-6.1900

> <Gold.Chemscore.Metal.Weighted>
-0.0000

> <Gold.Chemscore.Lipo.Weighted>
-13.6827

> <Gold.Chemscore.Internal_Hbond.Weighted>
0.0000

> <Gold.Chemscore.DEClash.Weighted>
0.1702

> <Gold.Chemscore.DEInternal.Weighted>
1.1145

> <Gold.Chemscore.Rot.Weighted>
4.2436

> <Gold.Chemscore.Internal.Correction.Weighted>
   9.000000E+99

> <Gold.Protein.RotatedTorsions>
[ 6907 6896 6895 6894 ] final -132.37 input  -60.11 | X-H torsion
[ 7974 7965 7964 7962 ] final -122.54 input  175.53 | X-H torsion
[ 8008 7997 7996 7995 ] final  -16.55 input   59.86 | X-H torsion
[ 10167 10162 10161 10158 ] final -152.94 input  -65.29 | X-H torsion
[ 10718 10713 10712 10709 ] final  108.60 input   66.30 | X-H torsion
[ 10763 10752 10751 10750 ] final   70.23 input  -60.55 | X-H torsion
[ 11005 11000 10999 10996 ] final -105.65 input  -57.11 | X-H torsion

> <Gold.Protein.ActiveResidues>
 VAL166  LYS551  ARG553  GLY616  TRP617  ASP618  TYR619  PRO620  LYS621  CYS622 
 ASP623  PHE694  ASN695  SER759  ASP760  ASP761  ALA762  ILE779  LEU786  VAL792 
 PHE793  MET794  SER795  GLU796  ALA797  LYS798  CYS799  TRP800  GLU811  SER814 

> <Gold.Protein.RotatedAtoms>
  150.9616  133.6439  159.2753 H   0  0  0  0  0  0  0  0  0  0  0  0  # atno 6907 bound_to 6896
  151.3760  135.0930  159.9490 H   0  0  0  0  0  0  0  0  0  0  0  0  # atno 6908 bound_to 6896
  152.5149  133.9160  159.7566 H   0  0  0  0  0  0  0  0  0  0  0  0  # atno 6909 bound_to 6896
  145.0283  140.8046  143.4339 H   0  0  0  0  0  0  0  0  0  0  0  0  # atno 7974 bound_to 7965
  154.5045  140.2166  155.9280 H   0  0  0  0  0  0  0  0  0  0  0  0  # atno 8008 bound_to 7997
  156.1476  140.3168  155.8562 H   0  0  0  0  0  0  0  0  0  0  0  0  # atno 8009 bound_to 7997
  155.4002  140.0484  157.3028 H   0  0  0  0  0  0  0  0  0  0  0  0  # atno 8010 bound_to 7997
  139.7138  143.9065  152.2478 H   0  0  0  0  0  0  0  0  0  0  0  0  # atno 10167 bound_to 10162
  157.6579  131.0897  150.6330 H   0  0  0  0  0  0  0  0  0  0  0  0  # atno 10718 bound_to 10713
  153.0330  135.5181  154.7409 H   0  0  0  0  0  0  0  0  0  0  0  0  # atno 10763 bound_to 10752
  154.6409  135.2912  155.0107 H   0  0  0  0  0  0  0  0  0  0  0  0  # atno 10764 bound_to 10752
  154.1025  135.6634  153.4923 H   0  0  0  0  0  0  0  0  0  0  0  0  # atno 10765 bound_to 10752
  141.1043  133.8826  157.1760 H   0  0  0  0  0  0  0  0  0  0  0  0  # atno 11005 bound_to 11000
  145.1804  139.2355  143.5295 LP  0  0  0  0  0  0  0  0  0  0  0  0  # atno 17320 bound_to 7965
  146.3495  140.1576  142.8591 LP  0  0  0  0  0  0  0  0  0  0  0  0  # atno 17321 bound_to 7965
  139.8942  144.6948  150.8736 LP  0  0  0  0  0  0  0  0  0  0  0  0  # atno 17342 bound_to 10162
  140.7739  143.3563  151.1915 LP  0  0  0  0  0  0  0  0  0  0  0  0  # atno 17343 bound_to 10162
  156.6635  130.4519  149.5680 LP  0  0  0  0  0  0  0  0  0  0  0  0  # atno 17370 bound_to 10713
  156.2050  130.6643  151.1208 LP  0  0  0  0  0  0  0  0  0  0  0  0  # atno 17371 bound_to 10713
  139.9906  135.0066  156.9967 LP  0  0  0  0  0  0  0  0  0  0  0  0  # atno 17394 bound_to 11000
  140.4943  134.1162  155.7238 LP  0  0  0  0  0  0  0  0  0  0  0  0  # atno 17395 bound_to 11000

$$$$
