AV-unprocessed.smi:2875|AV-procd|sdf|11041|dock5
  -GOLD-   2272015503D 1   1.00000     0.00000
 Structure written by MMmdl.
 39 39  0  0  0  0  0  0  0  0  2 V2000
  144.5832  135.1342  161.8457 C   0  0  0  0  0  0  0  0  0  0  0  0
  145.4445  134.1963  162.7024 C   0  0  0  0  0  0  0  0  0  0  0  0
  146.7963  133.8123  162.0644 C   0  0  0  0  0  0  0  0  0  0  0  0
  147.3432  134.8777  161.1917 N   0  0  0  0  0  0  0  0  0  0  0  0
  147.6621  134.5851  159.8370 C   0  0  0  0  0  0  0  0  0  0  0  0
  147.4749  133.2957  159.3597 N   0  0  0  0  0  0  0  0  0  0  0  0
  148.1602  135.5594  159.0286 C   0  0  0  0  0  0  0  0  0  0  0  0
  148.4456  135.3280  157.6673 N   0  0  0  0  0  0  0  0  0  0  0  0
  147.6942  136.1193  156.6779 C   0  0  0  0  0  0  0  0  0  0  0  0
  148.6089  137.0583  155.8750 C   0  0  0  0  0  0  0  0  0  0  0  0
  147.8120  137.9663  155.1336 O   0  0  0  0  0  0  0  0  0  0  0  0
  148.5748  138.7582  154.2417 C   0  0  0  0  0  0  0  0  0  0  0  0
  149.3309  134.3779  157.2657 C   0  0  0  0  0  0  0  0  0  0  0  0
  149.6664  134.2373  155.7755 C   0  0  0  0  0  0  0  0  0  0  0  0
  149.9092  133.6334  158.0588 O   0  0  0  0  0  0  0  0  0  0  0  0
  148.3272  136.9139  159.5725 C   0  0  0  0  0  0  0  0  0  0  0  0
  148.7395  137.8250  158.8539 O   0  0  0  0  0  0  0  0  0  0  0  0
  148.0102  137.1150  160.8783 N   0  5  0  0  0  0  0  0  0  0  0  0
  147.5252  136.1375  161.6952 C   0  0  0  0  0  0  0  0  0  0  0  0
  147.2443  136.3621  162.8735 O   0  0  0  0  0  0  0  0  0  0  0  0
  143.6259  135.3284  162.3292 H   0  0  0  0  0  0  0  0  0  0  0  0
  144.3791  134.6986  160.8676 H   0  0  0  0  0  0  0  0  0  0  0  0
  145.0736  136.0958  161.6922 H   0  0  0  0  0  0  0  0  0  0  0  0
  145.6125  134.6572  163.6762 H   0  0  0  0  0  0  0  0  0  0  0  0
  144.8803  133.2843  162.8991 H   0  0  0  0  0  0  0  0  0  0  0  0
  147.5098  133.5848  162.8584 H   0  0  0  0  0  0  0  0  0  0  0  0
  146.6954  132.8603  161.5454 H   0  0  0  0  0  0  0  0  0  0  0  0
  147.1177  132.5563  159.9471 H   0  0  0  0  0  0  0  0  0  0  0  0
  147.7296  133.0378  158.4171 H   0  0  0  0  0  0  0  0  0  0  0  0
  147.1638  135.4515  155.9969 H   0  0  0  0  0  0  0  0  0  0  0  0
  146.9168  136.7116  157.1624 H   0  0  0  0  0  0  0  0  0  0  0  0
  149.2933  137.5923  156.5358 H   0  0  0  0  0  0  0  0  0  0  0  0
  149.2174  136.4730  155.1844 H   0  0  0  0  0  0  0  0  0  0  0  0
  147.9146  139.4300  153.6933 H   0  0  0  0  0  0  0  0  0  0  0  0
  149.1042  138.1378  153.5174 H   0  0  0  0  0  0  0  0  0  0  0  0
  149.3016  139.3671  154.7806 H   0  0  0  0  0  0  0  0  0  0  0  0
  149.9082  135.2039  155.3324 H   0  0  0  0  0  0  0  0  0  0  0  0
  148.8310  133.7993  155.2296 H   0  0  0  0  0  0  0  0  0  0  0  0
  150.5300  133.5862  155.6380 H   0  0  0  0  0  0  0  0  0  0  0  0
  1  2  1  0  0  0  0
  1 21  1  0  0  0  0
  1 22  1  0  0  0  0
  1 23  1  0  0  0  0
  2  3  1  0  0  0  0
  2 24  1  0  0  0  0
  2 25  1  0  0  0  0
  3  4  1  0  0  0  0
  3 26  1  0  0  0  0
  3 27  1  0  0  0  0
  4 19  1  0  0  0  0
  4  5  1  0  0  0  0
  5  6  1  0  0  0  0
  5  7  2  0  0  0  0
  6 28  1  0  0  0  0
  6 29  1  0  0  0  0
  7  8  1  0  0  0  0
  7 16  1  0  0  0  0
  8  9  1  0  0  0  0
  8 13  1  0  0  0  0
  9 10  1  0  0  0  0
  9 30  1  0  0  0  0
  9 31  1  0  0  0  0
 10 11  1  0  0  0  0
 10 32  1  0  0  0  0
 10 33  1  0  0  0  0
 11 12  1  0  0  0  0
 12 34  1  0  0  0  0
 12 35  1  0  0  0  0
 12 36  1  0  0  0  0
 13 14  1  0  0  0  0
 13 15  2  0  0  0  0
 14 37  1  0  0  0  0
 14 38  1  0  0  0  0
 14 39  1  0  0  0  0
 16 17  2  0  0  0  0
 16 18  1  0  0  0  0
 18 19  1  0  0  0  0
 19 20  2  0  0  0  0
M  CHG  1  18  -1
M  END
> <s_m_source_file>
AV-unprocessed.smi

> <i_m_source_file_index>
2875

> <i_lp_mmshare_version>
43012

> <i_f3d_flags>
0

> <s_epik_input>
W0NIM11bQ0gyXVtDSDJdbjFjKFtOSDJdKWMoYyg9TylbbkhdYzE9TylOKEMoPU8pW0NIM10pW0NIMl1bQ0gyXU9bQ0gzXQ==

> <s_epik_cmdline>
J2VwaWtfcHl0aG9uJywgJy1waCcsICc3LjAnLCAnLXRuJywgJzgnLCAnLW1hJywgJzIwMCcsICctbWV0YWxfYmluZGluZycsICctaW1hZScsICc8aW5maWxlLm1hZT4nLCAnLW9tYWUnLCAnPG91dGZpbGUubWFlPic=

> <r_lp_tautomer_probability>
1

> <r_epik_Ionization_Penalty>
7.11914

> <r_epik_Ionization_Penalty_Charging>
0.302695

> <r_epik_Ionization_Penalty_Neutral>
6.81644

> <r_epik_State_Penalty>
6.81644

> <r_epik_Charging_Adjusted_Penalty>
7.11913

> <i_epik_Tot_Q>
-1

> <i_epik_Tot_abs_Q>
1

> <r_epik_Metal_State_Penalty>
2.72963

> <b_epik_Metal_Only>
1

> <s_epik_Chemistry_Notes>
This compound has an imine and may undergo hydrolysis.

> <s_lp_Force_Field>
OPLS_2005

> <r_lp_Energy>
36.1064

> <b_lp_Chiralities_Consistent>
1

> <s_lp_Variant>
AV-unprocessed.smi:2875-2

> <Gold.Version>
5.8.1

> <Gold.Id.Protein>
6NUR|6NUR_protein|mol2

> <Gold.PLP.Fitness>
37.0249

> <Gold.PLP.PLP>
-24.1872

> <Gold.PLP.part.hbond>
-3.3901

> <Gold.PLP.part.metal>
0.0000

> <Gold.PLP.part.buried>
-4.2808

> <Gold.PLP.part.nonpolar>
-17.7003

> <Gold.PLP.part.repulsive>
0.0963

> <Gold.PLP.ligand.clash>
0.0000

> <Gold.PLP.ligand.torsion>
1.3844

> <Gold.PLP.Chemscore.Hbond>
4.4240

> <Gold.PLP.Chemscore.CHOScore>
0.0000

> <Gold.PLP.Chemscore.Metal>
0.0000

> <Gold.Chemscore.Hbonds>
donor molecule, donor type, donor heavy atom, donor atom, acceptor molecule, acceptor atom, score
      P1  H  6896  6908       L1    15  1.00
      P1  H  6931  6943       L1    18  1.86
      P1  H  6934  6947       L1    18  1.34

> <Gold.PLP.Chemscore.Internal.Correction>
2.3345

> <Gold.Rescore>
     Score         DG    S(hbond)    S(metal)    S(lipo)     H(rot)  DE(clash)    DE(int)     intcor
      7.71     -10.57       1.92        0.00      33.41       2.04       0.00       2.86       ----

> <Gold.Chemscore.Fitness>
7.7072

> <Gold.Chemscore.DG>
-10.5691

> <Gold.Chemscore.ZeroCoef>
-5.4800

> <Gold.Chemscore.Hbond>
1.9175

> <Gold.Chemscore.Metal>
0.0000

> <Gold.Chemscore.Lipo>
33.4122

> <Gold.Chemscore.Internal_Hbond>
0.0000

> <Gold.Chemscore.DEClash>
0.0000

> <Gold.Chemscore.DEInternal>
2.8620

> <Gold.Chemscore.Rot>
2.0409

> <Gold.Chemscore.Internal.Correction>
   9.000000E+99

> <Gold.Chemscore.Hbonds>
donor molecule, donor type, donor heavy atom, donor atom, acceptor molecule, acceptor atom, score
      P1  H  6896  6908       L1    15  0.91
      P1  H  6931  6943       L1    18  0.58
      P1  H  6934  6947       L1    18  0.32

> <Gold.Chemscore.Hbond.Weighted>
-6.4045

> <Gold.Chemscore.Metal.Weighted>
-0.0000

> <Gold.Chemscore.Lipo.Weighted>
-3.9092

> <Gold.Chemscore.Internal_Hbond.Weighted>
0.0000

> <Gold.Chemscore.DEClash.Weighted>
0.0000

> <Gold.Chemscore.DEInternal.Weighted>
2.8620

> <Gold.Chemscore.Rot.Weighted>
5.2246

> <Gold.Chemscore.Internal.Correction.Weighted>
   9.000000E+99

> <Gold.Protein.RotatedTorsions>
[ 6907 6896 6895 6894 ] final  107.83 input  -60.11 | X-H torsion
[ 7974 7965 7964 7962 ] final  -23.17 input  175.53 | X-H torsion
[ 8008 7997 7996 7995 ] final -100.74 input   59.86 | X-H torsion
[ 10167 10162 10161 10158 ] final  -38.55 input  -65.29 | X-H torsion
[ 10718 10713 10712 10709 ] final  167.82 input   66.30 | X-H torsion
[ 10763 10752 10751 10750 ] final -133.76 input  -60.55 | X-H torsion
[ 11005 11000 10999 10996 ] final -162.57 input  -57.11 | X-H torsion

> <Gold.Protein.ActiveResidues>
 VAL166  LYS551  ARG553  GLY616  TRP617  ASP618  TYR619  PRO620  LYS621  CYS622 
 ASP623  PHE694  ASN695  SER759  ASP760  ASP761  ALA762  ILE779  LEU786  VAL792 
 PHE793  MET794  SER795  GLU796  ALA797  LYS798  CYS799  TRP800  GLU811  SER814 

> <Gold.Protein.RotatedAtoms>
  152.5138  133.9177  159.7518 H   0  0  0  0  0  0  0  0  0  0  0  0  # atno 6907 bound_to 6896
  150.9556  133.6493  159.2771 H   0  0  0  0  0  0  0  0  0  0  0  0  # atno 6908 bound_to 6896
  151.3756  135.0936  159.9532 H   0  0  0  0  0  0  0  0  0  0  0  0  # atno 6909 bound_to 6896
  146.1632  140.4580  142.8563 H   0  0  0  0  0  0  0  0  0  0  0  0  # atno 7974 bound_to 7965
  154.8328  140.0439  157.1489 H   0  0  0  0  0  0  0  0  0  0  0  0  # atno 8008 bound_to 7997
  154.9133  140.3016  155.5234 H   0  0  0  0  0  0  0  0  0  0  0  0  # atno 8009 bound_to 7997
  156.2988  140.2354  156.4175 H   0  0  0  0  0  0  0  0  0  0  0  0  # atno 8010 bound_to 7997
  140.7089  143.3270  151.2656 H   0  0  0  0  0  0  0  0  0  0  0  0  # atno 10167 bound_to 10162
  157.0460  131.0300  151.2697 H   0  0  0  0  0  0  0  0  0  0  0  0  # atno 10718 bound_to 10713
  154.8728  135.3756  154.4625 H   0  0  0  0  0  0  0  0  0  0  0  0  # atno 10763 bound_to 10752
  153.5292  135.7028  153.5697 H   0  0  0  0  0  0  0  0  0  0  0  0  # atno 10764 bound_to 10752
  153.3909  135.3972  155.1888 H   0  0  0  0  0  0  0  0  0  0  0  0  # atno 10765 bound_to 10752
  140.6077  134.4881  157.5212 H   0  0  0  0  0  0  0  0  0  0  0  0  # atno 11005 bound_to 11000
  144.8056  140.6293  143.6449 LP  0  0  0  0  0  0  0  0  0  0  0  0  # atno 17320 bound_to 7965
  145.4535  139.1521  143.3905 LP  0  0  0  0  0  0  0  0  0  0  0  0  # atno 17321 bound_to 7965
  139.6741  143.9968  152.2771 LP  0  0  0  0  0  0  0  0  0  0  0  0  # atno 17342 bound_to 10162
  139.9576  144.6579  150.8110 LP  0  0  0  0  0  0  0  0  0  0  0  0  # atno 17343 bound_to 10162
  157.5067  130.7913  149.7661 LP  0  0  0  0  0  0  0  0  0  0  0  0  # atno 17370 bound_to 10713
  156.0022  130.3874  150.2561 LP  0  0  0  0  0  0  0  0  0  0  0  0  # atno 17371 bound_to 10713
  139.9205  134.8158  156.1227 LP  0  0  0  0  0  0  0  0  0  0  0  0  # atno 17394 bound_to 11000
  141.0829  133.6746  156.2374 LP  0  0  0  0  0  0  0  0  0  0  0  0  # atno 17395 bound_to 11000

$$$$
