AV-unprocessed.smi:2230|AV-procd|sdf|9036|dock4
  -GOLD-   2272012243D 1   1.00000     0.00000
 Structure written by MMmdl.
 29 30  0  0  0  0  0  0  0  0  2 V2000
  151.4586  139.0714  154.1721 O   0  0  0  0  0  0  0  0  0  0  0  0
  152.4648  139.0401  154.9156 C   0  0  0  0  0  0  0  0  0  0  0  0
  153.6410  138.8831  154.5195 O   0  5  0  0  0  0  0  0  0  0  0  0
  152.2534  139.2406  156.4243 C   0  0  1  0  0  0  0  0  0  0  0  0
  152.0802  140.7355  156.7839 C   0  0  0  0  0  0  0  0  0  0  0  0
  151.7948  140.8815  158.2066 N   0  0  0  0  0  0  0  0  0  0  0  0
  151.7538  142.2136  158.6463 C   0  0  0  0  0  0  0  0  0  0  0  0
  150.7946  143.0124  158.1169 N   0  0  0  0  0  0  0  0  0  0  0  0
  150.7274  144.2970  158.5214 C   0  0  0  0  0  0  0  0  0  0  0  0
  151.6044  144.8514  159.4707 C   0  0  0  0  0  0  0  0  0  0  0  0
  152.5998  144.0242  160.0226 C   0  0  0  0  0  0  0  0  0  0  0  0
  152.6869  142.6748  159.6112 C   0  0  0  0  0  0  0  0  0  0  0  0
  153.7542  141.7525  160.1953 C   0  0  0  0  0  0  0  0  0  0  0  0
  153.4159  140.4687  160.0689 F   0  0  0  0  0  0  0  0  0  0  0  0
  154.9131  141.9366  159.5623 F   0  0  0  0  0  0  0  0  0  0  0  0
  153.9220  142.0085  161.4928 F   0  0  0  0  0  0  0  0  0  0  0  0
  150.6563  140.0829  158.6384 C   0  0  0  0  0  0  0  0  0  0  0  0
  150.8791  138.6118  158.2551 C   0  0  0  0  0  0  0  0  0  0  0  0
  151.0973  138.5170  156.8514 O   0  0  0  0  0  0  0  0  0  0  0  0
  153.1311  138.8380  156.9332 H   0  0  0  0  0  0  0  0  0  0  0  0
  152.9859  141.2937  156.5421 H   0  0  0  0  0  0  0  0  0  0  0  0
  151.2671  141.1702  156.2002 H   0  0  0  0  0  0  0  0  0  0  0  0
  149.9499  144.9000  158.0764 H   0  0  0  0  0  0  0  0  0  0  0  0
  151.5160  145.8859  159.7684 H   0  0  0  0  0  0  0  0  0  0  0  0
  153.2821  144.4317  160.7534 H   0  0  0  0  0  0  0  0  0  0  0  0
  150.5267  140.1751  159.7174 H   0  0  0  0  0  0  0  0  0  0  0  0
  149.7447  140.4544  158.1681 H   0  0  0  0  0  0  0  0  0  0  0  0
  151.7280  138.1912  158.7966 H   0  0  0  0  0  0  0  0  0  0  0  0
  150.0047  138.0173  158.5194 H   0  0  0  0  0  0  0  0  0  0  0  0
  1  2  2  0  0  0  0
  2  3  1  0  0  0  0
  2  4  1  0  0  0  0
  4 19  1  0  0  0  0
  4  5  1  0  0  0  0
  4 20  1  0  0  0  0
  5  6  1  0  0  0  0
  5 21  1  0  0  0  0
  5 22  1  0  0  0  0
  6  7  1  0  0  0  0
  6 17  1  0  0  0  0
  7 12  1  0  0  0  0
  7  8  2  0  0  0  0
  8  9  1  0  0  0  0
  9 10  2  0  0  0  0
  9 23  1  0  0  0  0
 10 11  1  0  0  0  0
 10 24  1  0  0  0  0
 11 12  2  0  0  0  0
 11 25  1  0  0  0  0
 12 13  1  0  0  0  0
 13 14  1  0  0  0  0
 13 15  1  0  0  0  0
 13 16  1  0  0  0  0
 17 18  1  0  0  0  0
 17 26  1  0  0  0  0
 17 27  1  0  0  0  0
 18 19  1  0  0  0  0
 18 28  1  0  0  0  0
 18 29  1  0  0  0  0
M  CHG  1   3  -1
M  END
> <s_m_source_file>
AV-unprocessed.smi

> <i_m_source_file_index>
2230

> <i_lp_mmshare_version>
43012

> <i_f3d_flags>
0

> <s_epik_input>
Tz1DKFtPSF0pW0NAQEhdMVtDSDJdTihbQ0gyXVtDSDJdTzEpYzJuW2NIXVtjSF1bY0hdYzJDKEYpKEYpRg==

> <s_epik_cmdline>
J2VwaWtfcHl0aG9uJywgJy1waCcsICc3LjAnLCAnLXRuJywgJzgnLCAnLW1hJywgJzIwMCcsICctbWV0YWxfYmluZGluZycsICctaW1hZScsICc8aW5maWxlLm1hZT4nLCAnLW9tYWUnLCAnPG91dGZpbGUubWFlPic=

> <r_lp_tautomer_probability>
1

> <r_epik_Ionization_Penalty>
0.000150991

> <r_epik_Ionization_Penalty_Charging>
0.000148814

> <r_epik_Ionization_Penalty_Neutral>
2.17728e-06

> <r_epik_State_Penalty>
-0

> <r_epik_Charging_Adjusted_Penalty>
0.000148814

> <i_epik_Tot_Q>
-1

> <i_epik_Tot_abs_Q>
1

> <r_epik_Metal_State_Penalty>
-0

> <b_epik_Metal_Only>
0

> <s_lp_Force_Field>
OPLS_2005

> <r_lp_Energy>
24.6169

> <b_lp_Chiralities_Consistent>
1

> <s_lp_Variant>
AV-unprocessed.smi:2230-2

> <Gold.Version>
5.8.1

> <Gold.Id.Protein>
6NUR|6NUR_protein|mol2

> <Gold.PLP.Fitness>
45.5178

> <Gold.PLP.PLP>
-35.9402

> <Gold.PLP.part.hbond>
-2.0000

> <Gold.PLP.part.metal>
0.0000

> <Gold.PLP.part.buried>
-4.6749

> <Gold.PLP.part.nonpolar>
-29.4511

> <Gold.PLP.part.repulsive>
0.2940

> <Gold.PLP.ligand.clash>
0.0000

> <Gold.PLP.ligand.torsion>
1.5492

> <Gold.PLP.Chemscore.Hbond>
3.0000

> <Gold.PLP.Chemscore.CHOScore>
1.0147

> <Gold.PLP.Chemscore.Metal>
0.0000

> <Gold.Chemscore.Hbonds>
donor molecule, donor type, donor heavy atom, donor atom, acceptor molecule, acceptor atom, score
      P1  H  7989  7998       L1     1  0.95
      P1  H  7997  8009       L1     3  1.80
      L1  C     9    23       P1  8028  0.29
      L1  C     9    23       P1  8029  0.76

> <Gold.PLP.Chemscore.Internal.Correction>
0.6317

> <Gold.Rescore>
     Score         DG    S(hbond)    S(metal)    S(lipo)     H(rot)  DE(clash)    DE(int)     intcor
     10.42     -13.91       1.03        0.00      75.26       1.49       0.26       3.23       ----

> <Gold.Chemscore.Fitness>
10.4200

> <Gold.Chemscore.DG>
-13.9100

> <Gold.Chemscore.ZeroCoef>
-5.4800

> <Gold.Chemscore.Hbond>
1.0310

> <Gold.Chemscore.Metal>
0.0000

> <Gold.Chemscore.Lipo>
75.2551

> <Gold.Chemscore.Internal_Hbond>
0.0000

> <Gold.Chemscore.DEClash>
0.2596

> <Gold.Chemscore.DEInternal>
3.2304

> <Gold.Chemscore.Rot>
1.4916

> <Gold.Chemscore.Internal.Correction>
   9.000000E+99

> <Gold.Chemscore.Hbonds>
donor molecule, donor type, donor heavy atom, donor atom, acceptor molecule, acceptor atom, score
      P1  H  7989  7998       L1     1  0.21
      P1  H  7997  8009       L1     3  0.16

> <Gold.Chemscore.Hbond.Weighted>
-3.4437

> <Gold.Chemscore.Metal.Weighted>
-0.0000

> <Gold.Chemscore.Lipo.Weighted>
-8.8048

> <Gold.Chemscore.Internal_Hbond.Weighted>
0.0000

> <Gold.Chemscore.DEClash.Weighted>
0.2596

> <Gold.Chemscore.DEInternal.Weighted>
3.2304

> <Gold.Chemscore.Rot.Weighted>
3.8185

> <Gold.Chemscore.Internal.Correction.Weighted>
   9.000000E+99

> <Gold.Protein.RotatedTorsions>
[ 6907 6896 6895 6894 ] final  164.67 input  -60.11 | X-H torsion
[ 7974 7965 7964 7962 ] final  -79.77 input  175.53 | X-H torsion
[ 8008 7997 7996 7995 ] final -128.17 input   59.86 | X-H torsion
[ 10167 10162 10161 10158 ] final  140.98 input  -65.29 | X-H torsion
[ 10718 10713 10712 10709 ] final   59.15 input   66.30 | X-H torsion
[ 10763 10752 10751 10750 ] final  -73.93 input  -60.55 | X-H torsion
[ 11005 11000 10999 10996 ] final   70.62 input  -57.11 | X-H torsion

> <Gold.Protein.ActiveResidues>
 VAL166  LYS551  ARG553  GLY616  TRP617  ASP618  TYR619  PRO620  LYS621  CYS622 
 ASP623  PHE694  ASN695  SER759  ASP760  ASP761  ALA762  ILE779  LEU786  VAL792 
 PHE793  MET794  SER795  GLU796  ALA797  LYS798  CYS799  TRP800  GLU811  SER814 

> <Gold.Protein.RotatedAtoms>
  151.9062  133.3550  159.3847 H   0  0  0  0  0  0  0  0  0  0  0  0  # atno 6907 bound_to 6896
  150.7068  134.4778  159.5465 H   0  0  0  0  0  0  0  0  0  0  0  0  # atno 6908 bound_to 6896
  152.2376  134.8261  160.0516 H   0  0  0  0  0  0  0  0  0  0  0  0  # atno 6909 bound_to 6896
  145.5689  140.9469  143.1406 H   0  0  0  0  0  0  0  0  0  0  0  0  # atno 7974 bound_to 7965
  155.2582  140.0435  157.2994 H   0  0  0  0  0  0  0  0  0  0  0  0  # atno 8008 bound_to 7997
  154.5727  140.2378  155.8137 H   0  0  0  0  0  0  0  0  0  0  0  0  # atno 8009 bound_to 7997
  156.2135  140.2992  155.9793 H   0  0  0  0  0  0  0  0  0  0  0  0  # atno 8010 bound_to 7997
  139.5033  144.6200  151.6074 H   0  0  0  0  0  0  0  0  0  0  0  0  # atno 10167 bound_to 10162
  157.5653  130.8866  149.9177 H   0  0  0  0  0  0  0  0  0  0  0  0  # atno 10718 bound_to 10713
  154.4662  135.5881  153.6290 H   0  0  0  0  0  0  0  0  0  0  0  0  # atno 10763 bound_to 10752
  152.9829  135.6056  154.3424 H   0  0  0  0  0  0  0  0  0  0  0  0  # atno 10764 bound_to 10752
  154.3301  135.2842  155.2455 H   0  0  0  0  0  0  0  0  0  0  0  0  # atno 10765 bound_to 10752
  139.9588  134.7097  156.0693 H   0  0  0  0  0  0  0  0  0  0  0  0  # atno 11005 bound_to 11000
  144.7447  139.7352  143.7297 LP  0  0  0  0  0  0  0  0  0  0  0  0  # atno 17320 bound_to 7965
  146.1798  139.4986  142.9873 LP  0  0  0  0  0  0  0  0  0  0  0  0  # atno 17321 bound_to 7965
  140.5899  143.9798  150.6318 LP  0  0  0  0  0  0  0  0  0  0  0  0  # atno 17342 bound_to 10162
  140.2975  143.3283  152.1004 LP  0  0  0  0  0  0  0  0  0  0  0  0  # atno 17343 bound_to 10162
  156.0702  130.3686  150.0792 LP  0  0  0  0  0  0  0  0  0  0  0  0  # atno 17370 bound_to 10713
  156.8952  130.9602  151.3583 LP  0  0  0  0  0  0  0  0  0  0  0  0  # atno 17371 bound_to 10713
  141.1263  133.6598  156.3344 LP  0  0  0  0  0  0  0  0  0  0  0  0  # atno 17394 bound_to 11000
  140.5548  134.5992  157.5418 LP  0  0  0  0  0  0  0  0  0  0  0  0  # atno 17395 bound_to 11000

$$$$
