AV-unprocessed.smi:1758|AV-procd|sdf|7079|dock4
  -GOLD-   22720 8303D 1   1.00000     0.00000
 Structure written by MMmdl.
 44 46  0  0  0  0  0  0  0  0  2 V2000
  152.1774  140.6276  158.1865 C   0  0  0  0  0  0  0  0  0  0  0  0
  152.6614  139.1935  157.9375 C   0  0  0  0  0  0  0  0  0  0  0  0
  152.1938  138.6765  156.6656 N   0  0  0  0  0  0  0  0  0  0  0  0
  151.3160  137.6353  156.4368 C   0  0  0  0  0  0  0  0  0  0  0  0
  151.1905  137.5452  155.0831 C   0  0  0  0  0  0  0  0  0  0  0  0
  150.3754  136.6035  154.4067 N   0  0  0  0  0  0  0  0  0  0  0  0
  149.9896  135.3967  154.8511 C   0  0  0  0  0  0  0  0  0  0  0  0
  150.2716  134.9238  155.9518 O   0  0  0  0  0  0  0  0  0  0  0  0
  149.2471  134.7551  153.9378 N   0  0  0  0  0  0  0  0  0  0  0  0
  148.6916  133.4141  154.0967 C   0  0  2  0  0  0  0  0  0  0  0  0
  149.7559  132.3530  154.3494 C   0  0  0  0  0  0  0  0  0  0  0  0
  149.0175  131.0629  153.9892 C   0  0  0  0  0  0  0  0  0  0  0  0
  148.0912  131.4168  152.8892 N   0  3  1  0  0  0  0  0  0  0  0  0
  146.7985  130.6896  152.9150 C   0  0  0  0  0  0  0  0  0  0  0  0
  145.9139  131.1068  151.7254 C   0  0  0  0  0  0  0  0  0  0  0  0
  145.7921  132.6372  151.5686 C   0  0  0  0  0  0  0  0  0  0  0  0
  146.5338  133.4005  152.6766 C   0  0  0  0  0  0  0  0  0  0  0  0
  147.9896  132.9032  152.8268 C   0  0  1  0  0  0  0  0  0  0  0  0
  152.0237  138.5675  154.5466 C   0  0  0  0  0  0  0  0  0  0  0  0
  152.6226  139.2474  155.5126 N   0  0  0  0  0  0  0  0  0  0  0  0
  152.5493  141.0024  159.1402 H   0  0  0  0  0  0  0  0  0  0  0  0
  151.0885  140.6793  158.2121 H   0  0  0  0  0  0  0  0  0  0  0  0
  152.5269  141.3015  157.4039 H   0  0  0  0  0  0  0  0  0  0  0  0
  153.7515  139.1589  157.9496 H   0  0  0  0  0  0  0  0  0  0  0  0
  152.3142  138.5318  158.7321 H   0  0  0  0  0  0  0  0  0  0  0  0
  150.8684  137.0660  157.2383 H   0  0  0  0  0  0  0  0  0  0  0  0
  150.0701  136.8695  153.4819 H   0  0  0  0  0  0  0  0  0  0  0  0
  149.0666  135.2229  153.0613 H   0  0  0  0  0  0  0  0  0  0  0  0
  147.9950  133.3913  154.9379 H   0  0  0  0  0  0  0  0  0  0  0  0
  150.6061  132.4957  153.6802 H   0  0  0  0  0  0  0  0  0  0  0  0
  150.1260  132.3563  155.3751 H   0  0  0  0  0  0  0  0  0  0  0  0
  149.6959  130.2612  153.6962 H   0  0  0  0  0  0  0  0  0  0  0  0
  148.4518  130.7203  154.8575 H   0  0  0  0  0  0  0  0  0  0  0  0
  146.9846  129.6155  152.8829 H   0  0  0  0  0  0  0  0  0  0  0  0
  146.2823  130.8906  153.8552 H   0  0  0  0  0  0  0  0  0  0  0  0
  146.3246  130.6871  150.8061 H   0  0  0  0  0  0  0  0  0  0  0  0
  144.9232  130.6652  151.8394 H   0  0  0  0  0  0  0  0  0  0  0  0
  146.2002  132.9304  150.6004 H   0  0  0  0  0  0  0  0  0  0  0  0
  144.7421  132.9317  151.5543 H   0  0  0  0  0  0  0  0  0  0  0  0
  146.5216  134.4691  152.4602 H   0  0  0  0  0  0  0  0  0  0  0  0
  145.9964  133.2786  153.6183 H   0  0  0  0  0  0  0  0  0  0  0  0
  148.5620  133.2070  151.9486 H   0  0  0  0  0  0  0  0  0  0  0  0
  152.2145  138.8420  153.5197 H   0  0  0  0  0  0  0  0  0  0  0  0
  148.5485  131.1442  152.0307 H   0  0  0  0  0  0  0  0  0  0  0  0
  1  2  1  0  0  0  0
  1 21  1  0  0  0  0
  1 22  1  0  0  0  0
  1 23  1  0  0  0  0
  2  3  1  0  0  0  0
  2 24  1  0  0  0  0
  2 25  1  0  0  0  0
  3 20  1  0  0  0  0
  3  4  1  0  0  0  0
  4  5  2  0  0  0  0
  4 26  1  0  0  0  0
  5  6  1  0  0  0  0
  5 19  1  0  0  0  0
  6  7  1  0  0  0  0
  6 27  1  0  0  0  0
  7  8  2  0  0  0  0
  7  9  1  0  0  0  0
  9 10  1  0  0  0  0
  9 28  1  0  0  0  0
 10 18  1  0  0  0  0
 10 11  1  0  0  0  0
 10 29  1  0  0  0  0
 11 12  1  0  0  0  0
 11 30  1  0  0  0  0
 11 31  1  0  0  0  0
 12 13  1  0  0  0  0
 12 32  1  0  0  0  0
 12 33  1  0  0  0  0
 13 18  1  0  0  0  0
 13 14  1  0  0  0  0
 13 44  1  0  0  0  0
 14 15  1  0  0  0  0
 14 34  1  0  0  0  0
 14 35  1  0  0  0  0
 15 16  1  0  0  0  0
 15 36  1  0  0  0  0
 15 37  1  0  0  0  0
 16 17  1  0  0  0  0
 16 38  1  0  0  0  0
 16 39  1  0  0  0  0
 17 18  1  0  0  0  0
 17 40  1  0  0  0  0
 17 41  1  0  0  0  0
 18 42  1  0  0  0  0
 19 20  2  0  0  0  0
 19 43  1  0  0  0  0
M  CHG  1  13   1
M  END
> <s_m_source_file>
AV-unprocessed.smi

> <i_m_source_file_index>
1758

> <i_lp_mmshare_version>
43012

> <i_f3d_flags>
0

> <s_epik_input>
W0NIM11bQ0gyXW4xW2NIXWMoW2NIXW4xKVtOSF1DKD1PKVtOSF1bQ0BIXShbQ0gyXVtDSDJdMilbQ0BASF0oTjIzKVtDSDJdW0NIMl1bQ0gyXVtDSDJdMw==

> <s_epik_cmdline>
J2VwaWtfcHl0aG9uJywgJy1waCcsICc3LjAnLCAnLXRuJywgJzgnLCAnLW1hJywgJzIwMCcsICctbWV0YWxfYmluZGluZycsICctaW1hZScsICc8aW5maWxlLm1hZT4nLCAnLW9tYWUnLCAnPG91dGZpbGUubWFlPic=

> <r_lp_tautomer_probability>
1

> <r_epik_Ionization_Penalty>
0.00111541

> <r_epik_Ionization_Penalty_Charging>
0.000974069

> <r_epik_Ionization_Penalty_Neutral>
0.000141346

> <r_epik_State_Penalty>
0.000633842

> <r_epik_Charging_Adjusted_Penalty>
0.00160791

> <i_epik_Tot_Q>
1

> <i_epik_Tot_abs_Q>
1

> <r_epik_Metal_State_Penalty>
-0

> <b_epik_Metal_Only>
0

> <s_lp_Force_Field>
OPLS_2005

> <r_lp_Energy>
44.0828

> <b_lp_Chiralities_Consistent>
1

> <s_lp_Variant>
AV-unprocessed.smi:1758-1

> <Gold.Version>
5.8.1

> <Gold.Id.Protein>
6NUR|6NUR_protein|mol2

> <Gold.PLP.Fitness>
44.9565

> <Gold.PLP.PLP>
-34.3956

> <Gold.PLP.part.hbond>
-4.9982

> <Gold.PLP.part.metal>
0.0000

> <Gold.PLP.part.buried>
-3.6318

> <Gold.PLP.part.nonpolar>
-25.6785

> <Gold.PLP.part.repulsive>
0.1324

> <Gold.PLP.ligand.clash>
0.0000

> <Gold.PLP.ligand.torsion>
0.1856

> <Gold.PLP.Chemscore.Hbond>
3.6415

> <Gold.PLP.Chemscore.CHOScore>
0.0000

> <Gold.PLP.Chemscore.Metal>
0.0000

> <Gold.Chemscore.Hbonds>
donor molecule, donor type, donor heavy atom, donor atom, acceptor molecule, acceptor atom, score
      L1  H     6    27       P1  7948  0.79
      L1  H     9    28       P1  7948  0.90
      L1  H    13    44       P1 10747  1.00
      P1  H  7997  8009       L1    20  0.94

> <Gold.PLP.Chemscore.Internal.Correction>
0.0077

> <Gold.Rescore>
     Score         DG    S(hbond)    S(metal)    S(lipo)     H(rot)  DE(clash)    DE(int)     intcor
     18.87     -20.15       2.76        0.00      72.59       1.19       0.00       1.28       ----

> <Gold.Chemscore.Fitness>
18.8683

> <Gold.Chemscore.DG>
-20.1543

> <Gold.Chemscore.ZeroCoef>
-5.4800

> <Gold.Chemscore.Hbond>
2.7616

> <Gold.Chemscore.Metal>
0.0000

> <Gold.Chemscore.Lipo>
72.5876

> <Gold.Chemscore.Internal_Hbond>
0.0000

> <Gold.Chemscore.DEClash>
0.0038

> <Gold.Chemscore.DEInternal>
1.2822

> <Gold.Chemscore.Rot>
1.1884

> <Gold.Chemscore.Internal.Correction>
   9.000000E+99

> <Gold.Chemscore.Hbonds>
donor molecule, donor type, donor heavy atom, donor atom, acceptor molecule, acceptor atom, score
      L1  H     6    27       P1  7948  0.14
      L1  H     9    28       P1  7948  0.17
      L1  H    13    44       P1 10747  0.97
      P1  H  7997  8009       L1    20  0.31

> <Gold.Chemscore.Hbond.Weighted>
-9.2238

> <Gold.Chemscore.Metal.Weighted>
-0.0000

> <Gold.Chemscore.Lipo.Weighted>
-8.4927

> <Gold.Chemscore.Internal_Hbond.Weighted>
0.0000

> <Gold.Chemscore.DEClash.Weighted>
0.0038

> <Gold.Chemscore.DEInternal.Weighted>
1.2822

> <Gold.Chemscore.Rot.Weighted>
3.0423

> <Gold.Chemscore.Internal.Correction.Weighted>
   9.000000E+99

> <Gold.Protein.RotatedTorsions>
[ 6907 6896 6895 6894 ] final  135.14 input  -60.11 | X-H torsion
[ 7974 7965 7964 7962 ] final  -55.73 input  175.53 | X-H torsion
[ 8008 7997 7996 7995 ] final -148.70 input   59.86 | X-H torsion
[ 10167 10162 10161 10158 ] final  -10.91 input  -65.29 | X-H torsion
[ 10718 10713 10712 10709 ] final  -45.06 input   66.30 | X-H torsion
[ 10763 10752 10751 10750 ] final -111.49 input  -60.55 | X-H torsion
[ 11005 11000 10999 10996 ] final  -35.78 input  -57.11 | X-H torsion

> <Gold.Protein.ActiveResidues>
 VAL166  LYS551  ARG553  GLY616  TRP617  ASP618  TYR619  PRO620  LYS621  CYS622 
 ASP623  PHE694  ASN695  SER759  ASP760  ASP761  ALA762  ILE779  LEU786  VAL792 
 PHE793  MET794  SER795  GLU796  ALA797  LYS798  CYS799  TRP800  GLU811  SER814 

> <Gold.Protein.RotatedAtoms>
  152.3037  133.5681  159.5634 H   0  0  0  0  0  0  0  0  0  0  0  0  # atno 6907 bound_to 6896
  150.7289  134.0254  159.3724 H   0  0  0  0  0  0  0  0  0  0  0  0  # atno 6908 bound_to 6896
  151.8152  135.0669  160.0469 H   0  0  0  0  0  0  0  0  0  0  0  0  # atno 6909 bound_to 6896
  145.8708  140.8217  142.9889 H   0  0  0  0  0  0  0  0  0  0  0  0  # atno 7974 bound_to 7965
  155.5958  140.0657  157.2746 H   0  0  0  0  0  0  0  0  0  0  0  0  # atno 8008 bound_to 7997
  154.4292  140.1827  156.1169 H   0  0  0  0  0  0  0  0  0  0  0  0  # atno 8009 bound_to 7997
  156.0197  140.3318  155.7029 H   0  0  0  0  0  0  0  0  0  0  0  0  # atno 8010 bound_to 7997
  140.7125  143.5697  150.9106 H   0  0  0  0  0  0  0  0  0  0  0  0  # atno 10167 bound_to 10162
  156.2322  130.4173  149.8861 H   0  0  0  0  0  0  0  0  0  0  0  0  # atno 10718 bound_to 10713
  154.8302  135.4525  154.1046 H   0  0  0  0  0  0  0  0  0  0  0  0  # atno 10763 bound_to 10752
  153.2326  135.6907  153.7879 H   0  0  0  0  0  0  0  0  0  0  0  0  # atno 10764 bound_to 10752
  153.7256  135.3335  155.3252 H   0  0  0  0  0  0  0  0  0  0  0  0  # atno 10765 bound_to 10752
  140.9823  133.7049  156.1705 H   0  0  0  0  0  0  0  0  0  0  0  0  # atno 11005 bound_to 11000
  144.6726  140.1236  143.7448 LP  0  0  0  0  0  0  0  0  0  0  0  0  # atno 17320 bound_to 7965
  145.9139  139.2504  143.1421 LP  0  0  0  0  0  0  0  0  0  0  0  0  # atno 17321 bound_to 7965
  139.9423  143.6368  152.3050 LP  0  0  0  0  0  0  0  0  0  0  0  0  # atno 17342 bound_to 10162
  139.6857  144.7652  151.1529 LP  0  0  0  0  0  0  0  0  0  0  0  0  # atno 17343 bound_to 10162
  156.6471  130.8728  151.3524 LP  0  0  0  0  0  0  0  0  0  0  0  0  # atno 17370 bound_to 10713
  157.7138  130.9472  150.1182 LP  0  0  0  0  0  0  0  0  0  0  0  0  # atno 17371 bound_to 10713
  140.7168  134.4402  157.5578 LP  0  0  0  0  0  0  0  0  0  0  0  0  # atno 17394 bound_to 11000
  139.8955  134.8680  156.2127 LP  0  0  0  0  0  0  0  0  0  0  0  0  # atno 17395 bound_to 11000

$$$$
