AV-unprocessed.smi:269|AV-procd|sdf|2044|dock6
  -GOLD-   2262021263D 1   1.00000     0.00000
 Structure written by MMmdl.
 61 64  0  0  0  0  0  0  0  0  3 V2000
  143.9858  132.9115  148.6499 C   0  0  0  0  0  0  0  0  0  0  0  0
  143.4974  133.0191  150.0980 C   0  0  0  0  0  0  0  0  0  0  0  0
  144.6370  133.2136  150.9892 N   0  5  0  0  0  0  0  0  0  0  0  0
  145.4975  132.2193  151.3364 C   0  0  0  0  0  0  0  0  0  0  0  0
  145.3449  130.9935  151.3614 O   0  0  0  0  0  0  0  0  0  0  0  0
  146.8689  132.7848  151.7226 C   0  0  0  0  0  0  0  0  0  0  0  0
  147.1050  132.6036  153.1763 N   0  3  0  0  0  0  0  0  0  0  0  0
  146.5323  133.7107  153.9839 C   0  0  0  0  0  0  0  0  0  0  0  0
  146.7116  133.4524  155.4907 C   0  0  0  0  0  0  0  0  0  0  0  0
  148.1136  133.1973  155.8112 N   0  0  0  0  0  0  0  0  0  0  0  0
  148.8688  134.2817  156.1342 C   0  0  0  0  0  0  0  0  0  0  0  0
  150.1585  134.1122  156.5308 N   0  0  0  0  0  0  0  0  0  0  0  0
  150.9175  135.1660  156.8420 C   0  0  0  0  0  0  0  0  0  0  0  0
  150.5909  136.4585  156.8330 N   0  0  0  0  0  0  0  0  0  0  0  0
  149.2942  136.6402  156.4542 C   0  0  0  0  0  0  0  0  0  0  0  0
  148.3739  135.6174  156.0863 C   0  0  0  0  0  0  0  0  0  0  0  0
  147.1478  136.1854  155.7615 N   0  0  0  0  0  0  0  0  0  0  0  0
  147.3368  137.4673  155.9150 C   0  0  0  0  0  0  0  0  0  0  0  0
  148.5926  137.8298  156.3490 N   0  0  0  0  0  0  0  0  0  0  0  0
  149.0738  139.1822  156.6028 C   0  0  0  0  0  0  0  0  0  0  0  0
  149.6151  139.9414  155.3487 C   0  0  0  0  0  0  0  0  0  0  0  0
  148.4534  140.3668  154.4113 C   0  0  0  0  0  0  0  0  0  0  0  0
  148.9114  141.0821  153.2809 O   0  0  0  0  0  0  0  0  0  0  0  0
  150.3944  141.2220  155.7421 C   0  0  0  0  0  0  0  0  0  0  0  0
  151.7476  140.9170  156.4106 C   0  0  0  0  0  0  0  0  0  0  0  0
  152.5405  140.1106  155.5499 O   0  0  0  0  0  0  0  0  0  0  0  0
  151.9468  138.8476  155.2806 C   0  0  0  0  0  0  0  0  0  0  0  0
  150.5999  139.0410  154.5600 C   0  0  0  0  0  0  0  0  0  0  0  0
  148.7128  132.1171  155.0274 C   0  0  0  0  0  0  0  0  0  0  0  0
  148.5316  132.3490  153.5145 C   0  0  0  0  0  0  0  0  0  0  0  0
  143.1465  132.7606  147.9707 H   0  0  0  0  0  0  0  0  0  0  0  0
  144.6690  132.0712  148.5223 H   0  0  0  0  0  0  0  0  0  0  0  0
  144.5045  133.8186  148.3378 H   0  0  0  0  0  0  0  0  0  0  0  0
  142.7831  133.8402  150.1665 H   0  0  0  0  0  0  0  0  0  0  0  0
  142.9414  132.1155  150.3503 H   0  0  0  0  0  0  0  0  0  0  0  0
  147.6880  132.3489  151.1463 H   0  0  0  0  0  0  0  0  0  0  0  0
  146.8519  133.8478  151.4785 H   0  0  0  0  0  0  0  0  0  0  0  0
  147.0146  134.6490  153.7048 H   0  0  0  0  0  0  0  0  0  0  0  0
  145.4702  133.8193  153.7611 H   0  0  0  0  0  0  0  0  0  0  0  0
  146.3068  134.2915  156.0543 H   0  0  0  0  0  0  0  0  0  0  0  0
  146.1296  132.5788  155.7865 H   0  0  0  0  0  0  0  0  0  0  0  0
  151.9307  134.9417  157.1418 H   0  0  0  0  0  0  0  0  0  0  0  0
  146.5545  138.1865  155.7220 H   0  0  0  0  0  0  0  0  0  0  0  0
  148.2638  139.7356  157.0759 H   0  0  0  0  0  0  0  0  0  0  0  0
  149.8530  139.1163  157.3630 H   0  0  0  0  0  0  0  0  0  0  0  0
  147.8817  139.5023  154.0740 H   0  0  0  0  0  0  0  0  0  0  0  0
  147.7468  141.0054  154.9424 H   0  0  0  0  0  0  0  0  0  0  0  0
  148.9259  140.4970  152.5394 H   0  0  0  0  0  0  0  0  0  0  0  0
  150.5958  141.8116  154.8467 H   0  0  0  0  0  0  0  0  0  0  0  0
  149.7935  141.8659  156.3836 H   0  0  0  0  0  0  0  0  0  0  0  0
  152.2814  141.8470  156.6059 H   0  0  0  0  0  0  0  0  0  0  0  0
  151.6228  140.4225  157.3737 H   0  0  0  0  0  0  0  0  0  0  0  0
  152.6252  138.2748  154.6481 H   0  0  0  0  0  0  0  0  0  0  0  0
  151.8310  138.2798  156.2042 H   0  0  0  0  0  0  0  0  0  0  0  0
  150.1513  138.0681  154.3568 H   0  0  0  0  0  0  0  0  0  0  0  0
  150.8015  139.4881  153.5855 H   0  0  0  0  0  0  0  0  0  0  0  0
  149.7673  131.9883  155.2750 H   0  0  0  0  0  0  0  0  0  0  0  0
  148.2231  131.1854  155.3125 H   0  0  0  0  0  0  0  0  0  0  0  0
  148.9014  131.4775  152.9740 H   0  0  0  0  0  0  0  0  0  0  0  0
  149.1330  133.1973  153.1860 H   0  0  0  0  0  0  0  0  0  0  0  0
  146.5935  131.7723  153.4361 H   0  0  0  0  0  0  0  0  0  0  0  0
  1  2  1  0  0  0  0
  1 31  1  0  0  0  0
  1 32  1  0  0  0  0
  1 33  1  0  0  0  0
  2  3  1  0  0  0  0
  2 34  1  0  0  0  0
  2 35  1  0  0  0  0
  3  4  1  0  0  0  0
  4  5  2  0  0  0  0
  4  6  1  0  0  0  0
  6  7  1  0  0  0  0
  6 36  1  0  0  0  0
  6 37  1  0  0  0  0
  7 30  1  0  0  0  0
  7  8  1  0  0  0  0
  7 61  1  0  0  0  0
  8  9  1  0  0  0  0
  8 38  1  0  0  0  0
  8 39  1  0  0  0  0
  9 10  1  0  0  0  0
  9 40  1  0  0  0  0
  9 41  1  0  0  0  0
 10 11  1  0  0  0  0
 10 29  1  0  0  0  0
 11 16  1  0  0  0  0
 11 12  2  0  0  0  0
 12 13  1  0  0  0  0
 13 14  2  0  0  0  0
 13 42  1  0  0  0  0
 14 15  1  0  0  0  0
 15 19  1  0  0  0  0
 15 16  2  0  0  0  0
 16 17  1  0  0  0  0
 17 18  2  0  0  0  0
 18 19  1  0  0  0  0
 18 43  1  0  0  0  0
 19 20  1  0  0  0  0
 20 21  1  0  0  0  0
 20 44  1  0  0  0  0
 20 45  1  0  0  0  0
 21 28  1  0  0  0  0
 21 22  1  0  0  0  0
 21 24  1  0  0  0  0
 22 23  1  0  0  0  0
 22 46  1  0  0  0  0
 22 47  1  0  0  0  0
 23 48  1  0  0  0  0
 24 25  1  0  0  0  0
 24 49  1  0  0  0  0
 24 50  1  0  0  0  0
 25 26  1  0  0  0  0
 25 51  1  0  0  0  0
 25 52  1  0  0  0  0
 26 27  1  0  0  0  0
 27 28  1  0  0  0  0
 27 53  1  0  0  0  0
 27 54  1  0  0  0  0
 28 55  1  0  0  0  0
 28 56  1  0  0  0  0
 29 30  1  0  0  0  0
 29 57  1  0  0  0  0
 29 58  1  0  0  0  0
 30 59  1  0  0  0  0
 30 60  1  0  0  0  0
M  CHG  1   3  -1
M  CHG  1   7   1
M  END
> <s_m_source_file>
AV-unprocessed.smi

> <i_m_source_file_index>
269

> <i_lp_mmshare_version>
43012

> <i_f3d_flags>
0

> <s_epik_input>
W0NIM11bQ0gyXVtOSF1DKD1PKVtDSDJdTjFbQ0gyXVtDSDJdTihbQ0gyXVtDSDJdMSljKG5bY0hdbjIpYyhjMjMpbltjSF1uM1tDSDJdQzQoW0NIMl1bT0hdKVtDSDJdW0NIMl1PW0NIMl1bQ0gyXTQ=

> <s_epik_cmdline>
J2VwaWtfcHl0aG9uJywgJy1waCcsICc3LjAnLCAnLXRuJywgJzgnLCAnLW1hJywgJzIwMCcsICctbWV0YWxfYmluZGluZycsICctaW1hZScsICc8aW5maWxlLm1hZT4nLCAnLW9tYWUnLCAnPG91dGZpbGUubWFlPic=

> <r_lp_tautomer_probability>
1

> <r_epik_Ionization_Penalty>
6.2463

> <r_epik_Ionization_Penalty_Charging>
6.24626

> <r_epik_Ionization_Penalty_Neutral>
4.36947e-05

> <r_epik_State_Penalty>
6.38251

> <r_epik_Charging_Adjusted_Penalty>
12.6288

> <i_epik_Tot_Q>
0

> <i_epik_Tot_abs_Q>
2

> <r_epik_Metal_State_Penalty>
2.3175

> <b_epik_Metal_Only>
1

> <s_lp_Force_Field>
OPLS_2005

> <r_lp_Energy>
38.3131

> <b_lp_Chiralities_Consistent>
1

> <s_lp_Variant>
AV-unprocessed.smi:269-3

> <Gold.Version>
5.8.1

> <Gold.Id.Protein>
6NUR|6NUR_protein|mol2

> <Gold.PLP.Fitness>
42.9196

> <Gold.PLP.PLP>
-36.4682

> <Gold.PLP.part.hbond>
-3.6063

> <Gold.PLP.part.metal>
0.0000

> <Gold.PLP.part.buried>
-2.3572

> <Gold.PLP.part.nonpolar>
-30.6041

> <Gold.PLP.part.repulsive>
0.3055

> <Gold.PLP.ligand.clash>
0.0000

> <Gold.PLP.ligand.torsion>
1.4342

> <Gold.PLP.Chemscore.Hbond>
2.8902

> <Gold.PLP.Chemscore.CHOScore>
0.0000

> <Gold.PLP.Chemscore.Metal>
0.0000

> <Gold.Chemscore.Hbonds>
donor molecule, donor type, donor heavy atom, donor atom, acceptor molecule, acceptor atom, score
      L1  H    23    48       P1  7957  0.98
      P1  H  7989  7998       L1    26  0.05
      P1  H  7997  8010       L1    26  1.00
      P1  H  8011  8017       L1    23  0.60

> <Gold.PLP.Chemscore.Internal.Correction>
0.6494

> <Gold.Rescore>
     Score         DG    S(hbond)    S(metal)    S(lipo)     H(rot)  DE(clash)    DE(int)     intcor
      9.95     -13.11       1.77        0.00      86.43       3.28       0.11       3.05       ----

> <Gold.Chemscore.Fitness>
9.9510

> <Gold.Chemscore.DG>
-13.1142

> <Gold.Chemscore.ZeroCoef>
-5.4800

> <Gold.Chemscore.Hbond>
1.7732

> <Gold.Chemscore.Metal>
0.0000

> <Gold.Chemscore.Lipo>
86.4326

> <Gold.Chemscore.Internal_Hbond>
0.0000

> <Gold.Chemscore.DEClash>
0.1107

> <Gold.Chemscore.DEInternal>
3.0525

> <Gold.Chemscore.Rot>
3.2816

> <Gold.Chemscore.Internal.Correction>
   9.000000E+99

> <Gold.Chemscore.Hbonds>
donor molecule, donor type, donor heavy atom, donor atom, acceptor molecule, acceptor atom, score
      L1  H    23    48       P1  7957  0.92
      P1  H  7997  8010       L1    26  0.58
      P1  H  8011  8017       L1    23  0.04

> <Gold.Chemscore.Hbond.Weighted>
-5.9224

> <Gold.Chemscore.Metal.Weighted>
-0.0000

> <Gold.Chemscore.Lipo.Weighted>
-10.1126

> <Gold.Chemscore.Internal_Hbond.Weighted>
0.0000

> <Gold.Chemscore.DEClash.Weighted>
0.1107

> <Gold.Chemscore.DEInternal.Weighted>
3.0525

> <Gold.Chemscore.Rot.Weighted>
8.4009

> <Gold.Chemscore.Internal.Correction.Weighted>
   9.000000E+99

> <Gold.Protein.RotatedTorsions>
[ 6907 6896 6895 6894 ] final   31.37 input  -60.11 | X-H torsion
[ 7974 7965 7964 7962 ] final -141.86 input  175.53 | X-H torsion
[ 8008 7997 7996 7995 ] final   81.84 input   59.86 | X-H torsion
[ 10167 10162 10161 10158 ] final -101.64 input  -65.29 | X-H torsion
[ 10718 10713 10712 10709 ] final   86.61 input   66.30 | X-H torsion
[ 10763 10752 10751 10750 ] final   64.58 input  -60.55 | X-H torsion
[ 11005 11000 10999 10996 ] final   15.09 input  -57.11 | X-H torsion

> <Gold.Protein.ActiveResidues>
 VAL166  LYS551  ARG553  GLY616  TRP617  ASP618  TYR619  PRO620  LYS621  CYS622 
 ASP623  PHE694  ASN695  SER759  ASP760  ASP761  ALA762  ILE779  LEU786  VAL792 
 PHE793  MET794  SER795  GLU796  ALA797  LYS798  CYS799  TRP800  GLU811  SER814 

> <Gold.Protein.RotatedAtoms>
  152.0594  134.9604  160.0574 H   0  0  0  0  0  0  0  0  0  0  0  0  # atno 6907 bound_to 6896
  152.0973  133.4227  159.4579 H   0  0  0  0  0  0  0  0  0  0  0  0  # atno 6908 bound_to 6896
  150.6838  134.2720  159.4635 H   0  0  0  0  0  0  0  0  0  0  0  0  # atno 6909 bound_to 6896
  144.8487  140.6028  143.5404 H   0  0  0  0  0  0  0  0  0  0  0  0  # atno 7974 bound_to 7965
  155.9026  140.3432  155.6038 H   0  0  0  0  0  0  0  0  0  0  0  0  # atno 8008 bound_to 7997
  155.7482  140.0816  157.2232 H   0  0  0  0  0  0  0  0  0  0  0  0  # atno 8009 bound_to 7997
  154.4045  140.1558  156.2681 H   0  0  0  0  0  0  0  0  0  0  0  0  # atno 8010 bound_to 7997
  140.2391  143.3551  152.0818 H   0  0  0  0  0  0  0  0  0  0  0  0  # atno 10167 bound_to 10162
  157.6931  131.0222  150.2999 H   0  0  0  0  0  0  0  0  0  0  0  0  # atno 10718 bound_to 10713
  153.0061  135.5388  154.6532 H   0  0  0  0  0  0  0  0  0  0  0  0  # atno 10763 bound_to 10752
  154.5759  135.2845  155.0783 H   0  0  0  0  0  0  0  0  0  0  0  0  # atno 10764 bound_to 10752
  154.1931  135.6497  153.5118 H   0  0  0  0  0  0  0  0  0  0  0  0  # atno 10765 bound_to 10752
  140.4622  134.1115  155.7718 H   0  0  0  0  0  0  0  0  0  0  0  0  # atno 11005 bound_to 11000
  145.4544  139.1520  143.3900 LP  0  0  0  0  0  0  0  0  0  0  0  0  # atno 17320 bound_to 7965
  146.2766  140.4672  142.8793 LP  0  0  0  0  0  0  0  0  0  0  0  0  # atno 17321 bound_to 7965
  139.5083  144.6848  151.5916 LP  0  0  0  0  0  0  0  0  0  0  0  0  # atno 17342 bound_to 10162
  140.6127  143.9406  150.6465 LP  0  0  0  0  0  0  0  0  0  0  0  0  # atno 17343 bound_to 10162
  156.3516  130.3832  149.7324 LP  0  0  0  0  0  0  0  0  0  0  0  0  # atno 17370 bound_to 10713
  156.4800  130.8036  151.3051 LP  0  0  0  0  0  0  0  0  0  0  0  0  # atno 17371 bound_to 10713
  141.1616  133.8782  157.1833 LP  0  0  0  0  0  0  0  0  0  0  0  0  # atno 17394 bound_to 11000
  139.9938  135.0054  157.0035 LP  0  0  0  0  0  0  0  0  0  0  0  0  # atno 17395 bound_to 11000

$$$$
