AV-unprocessed.smi:3105|AV-procd|sdf|11819|dock10
  -GOLD-   2272017193D 1   1.00000     0.00000
 Structure written by MMmdl.
 34 34  0  0  0  0  0  0  0  0  2 V2000
  152.8059  139.4245  159.3647 C   0  0  0  0  0  0  0  0  0  0  0  0
  152.1199  140.7812  159.1111 C   0  0  2  0  0  0  0  0  0  0  0  0
  151.6902  140.8715  157.6957 N   0  3  0  0  0  0  0  0  0  0  0  0
  150.6856  139.8721  157.2691 C   0  0  0  0  0  0  0  0  0  0  0  0
  150.3315  140.0149  155.7757 C   0  0  0  0  0  0  0  0  0  0  0  0
  149.6158  141.3232  155.4114 C   0  0  0  0  0  0  0  0  0  0  0  0
  149.4341  142.1991  156.4022 N   0  0  0  0  0  0  0  0  0  0  0  0
  149.2331  141.5477  154.2642 O   0  0  0  0  0  0  0  0  0  0  0  0
  153.0407  141.9835  159.4587 C   0  0  2  0  0  0  0  0  0  0  0  0
  153.6142  141.9203  160.8867 C   0  0  0  0  0  0  0  0  0  0  0  0
  152.3615  143.2609  159.2667 N   0  0  0  0  0  0  0  0  0  0  0  0
  152.1902  144.2803  160.1808 C   0  0  0  0  0  0  0  0  0  0  0  0
  151.4774  145.2680  159.5638 C   0  0  0  0  0  0  0  0  0  0  0  0
  151.2425  144.7516  158.2596 C   0  0  0  0  0  0  0  0  0  0  0  0
  151.7694  143.5508  158.0855 N   0  0  0  0  0  0  0  0  0  0  0  0
  153.0623  139.2934  160.4154 H   0  0  0  0  0  0  0  0  0  0  0  0
  153.7230  139.3292  158.7828 H   0  0  0  0  0  0  0  0  0  0  0  0
  152.1599  138.5879  159.1000 H   0  0  0  0  0  0  0  0  0  0  0  0
  151.2305  140.8388  159.7407 H   0  0  0  0  0  0  0  0  0  0  0  0
  151.2753  141.7831  157.5640 H   0  0  0  0  0  0  0  0  0  0  0  0
  151.0450  138.8627  157.4697 H   0  0  0  0  0  0  0  0  0  0  0  0
  149.7831  140.0073  157.8660 H   0  0  0  0  0  0  0  0  0  0  0  0
  151.2488  139.9596  155.1879 H   0  0  0  0  0  0  0  0  0  0  0  0
  149.7122  139.1740  155.4600 H   0  0  0  0  0  0  0  0  0  0  0  0
  148.9744  143.0804  156.2231 H   0  0  0  0  0  0  0  0  0  0  0  0
  149.7634  141.9796  157.3318 H   0  0  0  0  0  0  0  0  0  0  0  0
  153.8847  141.9709  158.7670 H   0  0  0  0  0  0  0  0  0  0  0  0
  154.2806  141.0686  161.0190 H   0  0  0  0  0  0  0  0  0  0  0  0
  152.8216  141.8458  161.6320 H   0  0  0  0  0  0  0  0  0  0  0  0
  154.1967  142.8142  161.1123 H   0  0  0  0  0  0  0  0  0  0  0  0
  152.5856  144.2200  161.1842 H   0  0  0  0  0  0  0  0  0  0  0  0
  151.1651  146.2131  159.9827 H   0  0  0  0  0  0  0  0  0  0  0  0
  150.7070  145.2096  157.4408 H   0  0  0  0  0  0  0  0  0  0  0  0
  152.5041  140.8005  157.1012 H   0  0  0  0  0  0  0  0  0  0  0  0
  1  2  1  0  0  0  0
  1 16  1  0  0  0  0
  1 17  1  0  0  0  0
  1 18  1  0  0  0  0
  2  3  1  0  0  0  0
  2  9  1  0  0  0  0
  2 19  1  0  0  0  0
  3  4  1  0  0  0  0
  3 20  1  0  0  0  0
  3 34  1  0  0  0  0
  4  5  1  0  0  0  0
  4 21  1  0  0  0  0
  4 22  1  0  0  0  0
  5  6  1  0  0  0  0
  5 23  1  0  0  0  0
  5 24  1  0  0  0  0
  6  7  1  0  0  0  0
  6  8  2  0  0  0  0
  7 25  1  0  0  0  0
  7 26  1  0  0  0  0
  9 10  1  0  0  0  0
  9 11  1  0  0  0  0
  9 27  1  0  0  0  0
 10 28  1  0  0  0  0
 10 29  1  0  0  0  0
 10 30  1  0  0  0  0
 11 15  1  0  0  0  0
 11 12  1  0  0  0  0
 12 13  2  0  0  0  0
 12 31  1  0  0  0  0
 13 14  1  0  0  0  0
 13 32  1  0  0  0  0
 14 15  2  0  0  0  0
 14 33  1  0  0  0  0
M  CHG  1   3   1
M  END
> <s_m_source_file>
AV-unprocessed.smi

> <i_m_source_file_index>
3105

> <i_lp_mmshare_version>
43012

> <i_f3d_flags>
0

> <s_epik_input>
W05IMl1DKD1PKVtDSDJdW0NIMl1bTkhdW0NAQEhdKFtDSDNdKVtDQEhdKFtDSDNdKW4xW2NIXVtjSF1bY0hdbjE=

> <s_epik_cmdline>
J2VwaWtfcHl0aG9uJywgJy1waCcsICc3LjAnLCAnLXRuJywgJzgnLCAnLW1hJywgJzIwMCcsICctbWV0YWxfYmluZGluZycsICctaW1hZScsICc8aW5maWxlLm1hZT4nLCAnLW9tYWUnLCAnPG91dGZpbGUubWFlPic=

> <r_lp_tautomer_probability>
1

> <r_epik_Ionization_Penalty>
0.00475669

> <r_epik_Ionization_Penalty_Charging>
0.00474654

> <r_epik_Ionization_Penalty_Neutral>
1.01546e-05

> <r_epik_State_Penalty>
-0

> <r_epik_Charging_Adjusted_Penalty>
0.00474654

> <i_epik_Tot_Q>
1

> <i_epik_Tot_abs_Q>
1

> <r_epik_Metal_State_Penalty>
-0

> <b_epik_Metal_Only>
0

> <s_lp_Force_Field>
OPLS_2005

> <r_lp_Energy>
5.41696

> <b_lp_Chiralities_Consistent>
1

> <s_lp_Variant>
AV-unprocessed.smi:3105-1

> <Gold.Version>
5.8.1

> <Gold.Id.Protein>
6NUR|6NUR_protein|mol2

> <Gold.PLP.Fitness>
45.3929

> <Gold.PLP.PLP>
-37.2392

> <Gold.PLP.part.hbond>
-3.0000

> <Gold.PLP.part.metal>
0.0000

> <Gold.PLP.part.buried>
-4.3212

> <Gold.PLP.part.nonpolar>
-29.7515

> <Gold.PLP.part.repulsive>
0.4178

> <Gold.PLP.ligand.clash>
0.0000

> <Gold.PLP.ligand.torsion>
0.0789

> <Gold.PLP.Chemscore.Hbond>
1.7401

> <Gold.PLP.Chemscore.CHOScore>
1.0000

> <Gold.PLP.Chemscore.Metal>
0.0000

> <Gold.Chemscore.Hbonds>
donor molecule, donor type, donor heavy atom, donor atom, acceptor molecule, acceptor atom, score
      L1  H     7    25       P1  8028  1.00
      P1  H  8011  8017       L1     8  0.37
      L1  C    14    33       P1  8028  0.84
      L1  C    14    33       P1  8029  0.01

> <Gold.PLP.Chemscore.Internal.Correction>
0.0913

> <Gold.Rescore>
     Score         DG    S(hbond)    S(metal)    S(lipo)     H(rot)  DE(clash)    DE(int)     intcor
     11.39     -13.10       1.69        0.00      79.05       2.85       0.07       1.64       ----

> <Gold.Chemscore.Fitness>
11.3902

> <Gold.Chemscore.DG>
-13.0971

> <Gold.Chemscore.ZeroCoef>
-5.4800

> <Gold.Chemscore.Hbond>
1.6937

> <Gold.Chemscore.Metal>
0.0000

> <Gold.Chemscore.Lipo>
79.0544

> <Gold.Chemscore.Internal_Hbond>
0.0000

> <Gold.Chemscore.DEClash>
0.0659

> <Gold.Chemscore.DEInternal>
1.6411

> <Gold.Chemscore.Rot>
2.8473

> <Gold.Chemscore.Internal.Correction>
   9.000000E+99

> <Gold.Chemscore.Hbonds>
donor molecule, donor type, donor heavy atom, donor atom, acceptor molecule, acceptor atom, score
      L1  H     7    25       P1  8028  0.98
      P1  H  8011  8017       L1     8  0.36

> <Gold.Chemscore.Hbond.Weighted>
-5.6570

> <Gold.Chemscore.Metal.Weighted>
-0.0000

> <Gold.Chemscore.Lipo.Weighted>
-9.2494

> <Gold.Chemscore.Internal_Hbond.Weighted>
0.0000

> <Gold.Chemscore.DEClash.Weighted>
0.0659

> <Gold.Chemscore.DEInternal.Weighted>
1.6411

> <Gold.Chemscore.Rot.Weighted>
7.2892

> <Gold.Chemscore.Internal.Correction.Weighted>
   9.000000E+99

> <Gold.Protein.RotatedTorsions>
[ 6907 6896 6895 6894 ] final -151.50 input  -60.11 | X-H torsion
[ 7974 7965 7964 7962 ] final   65.86 input  175.53 | X-H torsion
[ 8008 7997 7996 7995 ] final   80.15 input   59.86 | X-H torsion
[ 10167 10162 10161 10158 ] final  100.64 input  -65.29 | X-H torsion
[ 10718 10713 10712 10709 ] final -168.68 input   66.30 | X-H torsion
[ 10763 10752 10751 10750 ] final  140.59 input  -60.55 | X-H torsion
[ 11005 11000 10999 10996 ] final  -76.82 input  -57.11 | X-H torsion

> <Gold.Protein.ActiveResidues>
 VAL166  LYS551  ARG553  GLY616  TRP617  ASP618  TYR619  PRO620  LYS621  CYS622 
 ASP623  PHE694  ASN695  SER759  ASP760  ASP761  ALA762  ILE779  LEU786  VAL792 
 PHE793  MET794  SER795  GLU796  ALA797  LYS798  CYS799  TRP800  GLU811  SER814 

> <Gold.Protein.RotatedAtoms>
  151.2140  133.4540  159.2598 H   0  0  0  0  0  0  0  0  0  0  0  0  # atno 6907 bound_to 6896
  151.0949  134.9938  159.8431 H   0  0  0  0  0  0  0  0  0  0  0  0  # atno 6908 bound_to 6896
  152.5438  134.2071  159.8788 H   0  0  0  0  0  0  0  0  0  0  0  0  # atno 6909 bound_to 6896
  145.8335  139.3153  143.0973 H   0  0  0  0  0  0  0  0  0  0  0  0  # atno 7974 bound_to 7965
  155.8795  140.3445  155.5878 H   0  0  0  0  0  0  0  0  0  0  0  0  # atno 8008 bound_to 7997
  155.7735  140.0848  157.2115 H   0  0  0  0  0  0  0  0  0  0  0  0  # atno 8009 bound_to 7997
  154.4023  140.1514  156.2957 H   0  0  0  0  0  0  0  0  0  0  0  0  # atno 8010 bound_to 7997
  139.7509  144.6984  151.0434 H   0  0  0  0  0  0  0  0  0  0  0  0  # atno 10167 bound_to 10162
  156.7005  130.9195  151.3079 H   0  0  0  0  0  0  0  0  0  0  0  0  # atno 10718 bound_to 10713
  153.9252  135.2996  155.3447 H   0  0  0  0  0  0  0  0  0  0  0  0  # atno 10763 bound_to 10752
  154.7555  135.4960  153.9370 H   0  0  0  0  0  0  0  0  0  0  0  0  # atno 10764 bound_to 10752
  153.1120  135.6761  153.9587 H   0  0  0  0  0  0  0  0  0  0  0  0  # atno 10765 bound_to 10752
  141.1656  133.6998  156.7726 H   0  0  0  0  0  0  0  0  0  0  0  0  # atno 11005 bound_to 11000
  145.9545  140.8883  143.0242 LP  0  0  0  0  0  0  0  0  0  0  0  0  # atno 17320 bound_to 7965
  144.6738  140.1726  143.7413 LP  0  0  0  0  0  0  0  0  0  0  0  0  # atno 17321 bound_to 7965
  140.7797  143.4810  151.0018 LP  0  0  0  0  0  0  0  0  0  0  0  0  # atno 17342 bound_to 10162
  139.8498  143.7454  152.3178 LP  0  0  0  0  0  0  0  0  0  0  0  0  # atno 17343 bound_to 10162
  157.6975  130.9297  150.0686 LP  0  0  0  0  0  0  0  0  0  0  0  0  # atno 17370 bound_to 10713
  156.1732  130.3647  149.9136 LP  0  0  0  0  0  0  0  0  0  0  0  0  # atno 17371 bound_to 10713
  140.2453  134.8582  157.3614 LP  0  0  0  0  0  0  0  0  0  0  0  0  # atno 17394 bound_to 11000
  140.1756  134.4554  155.7804 LP  0  0  0  0  0  0  0  0  0  0  0  0  # atno 17395 bound_to 11000

$$$$
