AV-unprocessed.smi:281|AV-procd|sdf|2116|dock10
  -GOLD-   2262021413D 1   1.00000     0.00000
 Structure written by MMmdl.
 55 59  0  0  0  0  0  0  0  0  1 V2000
  153.9632  141.5739  161.8124 C   0  0  0  0  0  0  0  0  0  0  0  0
  153.4662  141.8550  160.3910 C   0  0  1  0  0  0  0  0  0  0  0  0
  152.9676  140.5811  159.6914 C   0  0  0  0  0  0  0  0  0  0  0  0
  152.4222  140.9280  158.3880 N   0  0  0  0  0  0  0  0  0  0  0  0
  152.1348  139.8848  157.5823 C   0  0  0  0  0  0  0  0  0  0  0  0
  152.5558  139.9694  156.2970 N   0  0  0  0  0  0  0  0  0  0  0  0
  152.2948  138.9754  155.4425 C   0  0  0  0  0  0  0  0  0  0  0  0
  151.6369  137.8353  155.6634 N   0  0  0  0  0  0  0  0  0  0  0  0
  151.2070  137.7513  156.9555 C   0  0  0  0  0  0  0  0  0  0  0  0
  151.4068  138.7254  157.9738 C   0  0  0  0  0  0  0  0  0  0  0  0
  150.8097  138.3036  159.1558 N   0  0  0  0  0  0  0  0  0  0  0  0
  150.2930  137.1437  158.8551 C   0  0  0  0  0  0  0  0  0  0  0  0
  150.4931  136.7291  157.5574 N   0  0  0  0  0  0  0  0  0  0  0  0
  150.0283  135.4893  156.9538 C   0  0  0  0  0  0  0  0  0  0  0  0
  149.2207  135.6930  155.6483 C   0  0  2  0  0  0  0  0  0  0  0  0
  150.0941  136.1468  154.6308 O   0  0  0  0  0  0  0  0  0  0  0  0
  148.0868  136.7059  155.8201 C   0  0  0  0  0  0  0  0  0  0  0  0
  146.8313  135.8429  155.8102 C   0  0  0  0  0  0  0  0  0  0  0  0
  147.1641  134.8282  154.8802 O   0  0  0  0  0  0  0  0  0  0  0  0
  148.4947  134.4210  155.1648 C   0  0  0  0  0  0  0  0  0  0  0  0
  151.3473  141.9061  158.4676 C   0  0  0  0  0  0  0  0  0  0  0  0
  151.8094  143.1742  159.2231 C   0  0  1  0  0  0  0  0  0  0  0  0
  152.7818  144.0453  158.4153 C   0  0  0  0  0  0  0  0  0  0  0  0
  151.9539  145.2552  158.0045 C   0  0  0  0  0  0  0  0  0  0  0  0
  151.0898  145.4239  159.1122 O   0  0  0  0  0  0  0  0  0  0  0  0
  150.6167  144.1320  159.4641 C   0  0  2  0  0  0  0  0  0  0  0  0
  150.0390  144.1430  160.8867 C   0  0  0  0  0  0  0  0  0  0  0  0
  152.3933  142.7943  160.4769 O   0  0  0  0  0  0  0  0  0  0  0  0
  154.7921  140.8658  161.8061 H   0  0  0  0  0  0  0  0  0  0  0  0
  153.1693  141.1560  162.4322 H   0  0  0  0  0  0  0  0  0  0  0  0
  154.3120  142.4895  162.2905 H   0  0  0  0  0  0  0  0  0  0  0  0
  154.2891  142.2842  159.8185 H   0  0  0  0  0  0  0  0  0  0  0  0
  153.7851  139.8683  159.5746 H   0  0  0  0  0  0  0  0  0  0  0  0
  152.2021  140.1030  160.3030 H   0  0  0  0  0  0  0  0  0  0  0  0
  152.6654  139.1141  154.4376 H   0  0  0  0  0  0  0  0  0  0  0  0
  149.7472  136.5562  159.5790 H   0  0  0  0  0  0  0  0  0  0  0  0
  150.8976  134.8591  156.7612 H   0  0  0  0  0  0  0  0  0  0  0  0
  149.4249  134.9574  157.6910 H   0  0  0  0  0  0  0  0  0  0  0  0
  149.5781  136.3727  153.8720 H   0  0  0  0  0  0  0  0  0  0  0  0
  148.1716  137.3060  156.7268 H   0  0  0  0  0  0  0  0  0  0  0  0
  148.0462  137.3960  154.9756 H   0  0  0  0  0  0  0  0  0  0  0  0
  146.6495  135.4010  156.7913 H   0  0  0  0  0  0  0  0  0  0  0  0
  145.9414  136.3947  155.5067 H   0  0  0  0  0  0  0  0  0  0  0  0
  148.9617  133.9535  154.2968 H   0  0  0  0  0  0  0  0  0  0  0  0
  148.4442  133.6714  155.9548 H   0  0  0  0  0  0  0  0  0  0  0  0
  151.0037  142.1670  157.4653 H   0  0  0  0  0  0  0  0  0  0  0  0
  150.4996  141.4565  158.9871 H   0  0  0  0  0  0  0  0  0  0  0  0
  153.5988  144.3888  159.0509 H   0  0  0  0  0  0  0  0  0  0  0  0
  153.2232  143.5325  157.5600 H   0  0  0  0  0  0  0  0  0  0  0  0
  152.5622  146.1421  157.8264 H   0  0  0  0  0  0  0  0  0  0  0  0
  151.3704  145.0473  157.1064 H   0  0  0  0  0  0  0  0  0  0  0  0
  149.8120  143.8940  158.7655 H   0  0  0  0  0  0  0  0  0  0  0  0
  149.6899  143.1511  161.1748 H   0  0  0  0  0  0  0  0  0  0  0  0
  149.1925  144.8264  160.9547 H   0  0  0  0  0  0  0  0  0  0  0  0
  150.7812  144.4659  161.6173 H   0  0  0  0  0  0  0  0  0  0  0  0
  1  2  1  0  0  0  0
  1 29  1  0  0  0  0
  1 30  1  0  0  0  0
  1 31  1  0  0  0  0
  2 28  1  0  0  0  0
  2  3  1  0  0  0  0
  2 32  1  0  0  0  0
  3  4  1  0  0  0  0
  3 33  1  0  0  0  0
  3 34  1  0  0  0  0
  4  5  1  0  0  0  0
  4 21  1  0  0  0  0
  5 10  1  0  0  0  0
  5  6  2  0  0  0  0
  6  7  1  0  0  0  0
  7  8  2  0  0  0  0
  7 35  1  0  0  0  0
  8  9  1  0  0  0  0
  9 13  1  0  0  0  0
  9 10  2  0  0  0  0
 10 11  1  0  0  0  0
 11 12  2  0  0  0  0
 12 13  1  0  0  0  0
 12 36  1  0  0  0  0
 13 14  1  0  0  0  0
 14 15  1  0  0  0  0
 14 37  1  0  0  0  0
 14 38  1  0  0  0  0
 15 20  1  0  0  0  0
 15 16  1  0  0  0  0
 15 17  1  0  0  0  0
 16 39  1  0  0  0  0
 17 18  1  0  0  0  0
 17 40  1  0  0  0  0
 17 41  1  0  0  0  0
 18 19  1  0  0  0  0
 18 42  1  0  0  0  0
 18 43  1  0  0  0  0
 19 20  1  0  0  0  0
 20 44  1  0  0  0  0
 20 45  1  0  0  0  0
 21 22  1  0  0  0  0
 21 46  1  0  0  0  0
 21 47  1  0  0  0  0
 22 26  1  0  0  0  0
 22 23  1  0  0  0  0
 22 28  1  0  0  0  0
 23 24  1  0  0  0  0
 23 48  1  0  0  0  0
 23 49  1  0  0  0  0
 24 25  1  0  0  0  0
 24 50  1  0  0  0  0
 24 51  1  0  0  0  0
 25 26  1  0  0  0  0
 26 27  1  0  0  0  0
 26 52  1  0  0  0  0
 27 53  1  0  0  0  0
 27 54  1  0  0  0  0
 27 55  1  0  0  0  0
M  END
> <s_m_source_file>
AV-unprocessed.smi

> <i_m_source_file_index>
281

> <i_lp_mmshare_version>
43012

> <i_f3d_flags>
0

> <s_epik_input>
W0NIM11bQ0BASF0xT1tDSDJdW0NIMl1bQ0BAXTEyW0NIMl1OKFtDSDJdW0NASF0oTzIpW0NIM10pYyhuW2NIXW4zKWMoYzM0KW5bY0hdbjRbQ0gyXVtDQEBdNShbT0hdKVtDSDJdW0NIMl1PW0NIMl01

> <s_epik_cmdline>
J2VwaWtfcHl0aG9uJywgJy1waCcsICc3LjAnLCAnLXRuJywgJzgnLCAnLW1hJywgJzIwMCcsICctbWV0YWxfYmluZGluZycsICctaW1hZScsICc8aW5maWxlLm1hZT4nLCAnLW9tYWUnLCAnPG91dGZpbGUubWFlPic=

> <r_lp_tautomer_probability>
1

> <r_epik_Ionization_Penalty>
0.00571331

> <r_epik_Ionization_Penalty_Charging>
0

> <r_epik_Ionization_Penalty_Neutral>
0.00571331

> <r_epik_State_Penalty>
0.00399586

> <r_epik_Charging_Adjusted_Penalty>
0.00399586

> <i_epik_Tot_Q>
0

> <i_epik_Tot_abs_Q>
0

> <r_epik_Metal_State_Penalty>
-0

> <b_epik_Metal_Only>
0

> <s_lp_Force_Field>
OPLS_2005

> <r_lp_Energy>
55.1206

> <b_lp_Chiralities_Consistent>
1

> <s_lp_Variant>
AV-unprocessed.smi:281-16

> <Gold.Version>
5.8.1

> <Gold.Id.Protein>
6NUR|6NUR_protein|mol2

> <Gold.PLP.Fitness>
44.4925

> <Gold.PLP.PLP>
-39.5954

> <Gold.PLP.part.hbond>
-3.8757

> <Gold.PLP.part.metal>
0.0000

> <Gold.PLP.part.buried>
-5.0095

> <Gold.PLP.part.nonpolar>
-30.6781

> <Gold.PLP.part.repulsive>
0.2643

> <Gold.PLP.ligand.clash>
0.0000

> <Gold.PLP.ligand.torsion>
0.6168

> <Gold.PLP.Chemscore.Hbond>
1.9913

> <Gold.PLP.Chemscore.CHOScore>
0.0000

> <Gold.PLP.Chemscore.Metal>
0.0000

> <Gold.Chemscore.Hbonds>
donor molecule, donor type, donor heavy atom, donor atom, acceptor molecule, acceptor atom, score
      L1  H    16    39       P1  7948  0.88
      P1  H  7997  8009       L1     6  0.95

> <Gold.PLP.Chemscore.Internal.Correction>
0.1570

> <Gold.Rescore>
     Score         DG    S(hbond)    S(metal)    S(lipo)     H(rot)  DE(clash)    DE(int)     intcor
     18.02     -18.48       1.75        0.00     106.94       2.09       0.10       0.35       ----

> <Gold.Chemscore.Fitness>
18.0192

> <Gold.Chemscore.DG>
-18.4762

> <Gold.Chemscore.ZeroCoef>
-5.4800

> <Gold.Chemscore.Hbond>
1.7488

> <Gold.Chemscore.Metal>
0.0000

> <Gold.Chemscore.Lipo>
106.9442

> <Gold.Chemscore.Internal_Hbond>
0.0000

> <Gold.Chemscore.DEClash>
0.1047

> <Gold.Chemscore.DEInternal>
0.3523

> <Gold.Chemscore.Rot>
2.0927

> <Gold.Chemscore.Internal.Correction>
   9.000000E+99

> <Gold.Chemscore.Hbonds>
donor molecule, donor type, donor heavy atom, donor atom, acceptor molecule, acceptor atom, score
      L1  H    16    39       P1  7948  0.54
      P1  H  7997  8009       L1     6  0.16

> <Gold.Chemscore.Hbond.Weighted>
-5.8410

> <Gold.Chemscore.Metal.Weighted>
-0.0000

> <Gold.Chemscore.Lipo.Weighted>
-12.5125

> <Gold.Chemscore.Internal_Hbond.Weighted>
0.0000

> <Gold.Chemscore.DEClash.Weighted>
0.1047

> <Gold.Chemscore.DEInternal.Weighted>
0.3523

> <Gold.Chemscore.Rot.Weighted>
5.3573

> <Gold.Chemscore.Internal.Correction.Weighted>
   9.000000E+99

> <Gold.Protein.RotatedTorsions>
[ 6907 6896 6895 6894 ] final    9.52 input  -60.11 | X-H torsion
[ 7974 7965 7964 7962 ] final  -68.84 input  175.53 | X-H torsion
[ 8008 7997 7996 7995 ] final -179.29 input   59.86 | X-H torsion
[ 10167 10162 10161 10158 ] final  133.45 input  -65.29 | X-H torsion
[ 10718 10713 10712 10709 ] final -138.93 input   66.30 | X-H torsion
[ 10763 10752 10751 10750 ] final  -94.99 input  -60.55 | X-H torsion
[ 11005 11000 10999 10996 ] final -146.47 input  -57.11 | X-H torsion

> <Gold.Protein.ActiveResidues>
 VAL166  LYS551  ARG553  GLY616  TRP617  ASP618  TYR619  PRO620  LYS621  CYS622 
 ASP623  PHE694  ASN695  SER759  ASP760  ASP761  ALA762  ILE779  LEU786  VAL792 
 PHE793  MET794  SER795  GLU796  ALA797  LYS798  CYS799  TRP800  GLU811  SER814 

> <Gold.Protein.RotatedAtoms>
  151.7235  135.0889  160.0287 H   0  0  0  0  0  0  0  0  0  0  0  0  # atno 6907 bound_to 6896
  152.3587  133.6265  159.6007 H   0  0  0  0  0  0  0  0  0  0  0  0  # atno 6908 bound_to 6896
  150.7589  133.9375  159.3487 H   0  0  0  0  0  0  0  0  0  0  0  0  # atno 6909 bound_to 6896
  145.7114  140.9076  143.0678 H   0  0  0  0  0  0  0  0  0  0  0  0  # atno 7974 bound_to 7965
  156.0287  140.1277  157.0281 H   0  0  0  0  0  0  0  0  0  0  0  0  # atno 8008 bound_to 7997
  154.4341  140.1054  156.6139 H   0  0  0  0  0  0  0  0  0  0  0  0  # atno 8009 bound_to 7997
  155.5838  140.3468  155.4550 H   0  0  0  0  0  0  0  0  0  0  0  0  # atno 8010 bound_to 7997
  139.5297  144.6615  151.4997 H   0  0  0  0  0  0  0  0  0  0  0  0  # atno 10167 bound_to 10162
  156.3050  130.7450  151.1511 H   0  0  0  0  0  0  0  0  0  0  0  0  # atno 10718 bound_to 10713
  154.7107  135.5137  153.8662 H   0  0  0  0  0  0  0  0  0  0  0  0  # atno 10763 bound_to 10752
  153.0778  135.6622  154.0117 H   0  0  0  0  0  0  0  0  0  0  0  0  # atno 10764 bound_to 10752
  153.9960  135.3015  155.3387 H   0  0  0  0  0  0  0  0  0  0  0  0  # atno 10765 bound_to 10752
  140.7817  134.3071  157.5043 H   0  0  0  0  0  0  0  0  0  0  0  0  # atno 11005 bound_to 11000
  144.6941  139.9080  143.7462 LP  0  0  0  0  0  0  0  0  0  0  0  0  # atno 17320 bound_to 7965
  146.0709  139.3698  143.0524 LP  0  0  0  0  0  0  0  0  0  0  0  0  # atno 17321 bound_to 7965
  140.6466  143.8782  150.6743 LP  0  0  0  0  0  0  0  0  0  0  0  0  # atno 17342 bound_to 10162
  140.2134  143.3866  152.1700 LP  0  0  0  0  0  0  0  0  0  0  0  0  # atno 17343 bound_to 10162
  157.7377  131.0548  150.5338 LP  0  0  0  0  0  0  0  0  0  0  0  0  # atno 17370 bound_to 10713
  156.5470  130.4222  149.6126 LP  0  0  0  0  0  0  0  0  0  0  0  0  # atno 17371 bound_to 10713
  139.8742  134.9322  156.3548 LP  0  0  0  0  0  0  0  0  0  0  0  0  # atno 17394 bound_to 11000
  140.9476  133.7472  156.0229 LP  0  0  0  0  0  0  0  0  0  0  0  0  # atno 17395 bound_to 11000

$$$$
