AV-unprocessed.smi:2397|AV-procd|sdf|9496|dock7
  -GOLD-   2272013123D 1   1.00000     0.00000
 Structure written by MMmdl.
 37 38  0  0  0  0  0  0  0  0  2 V2000
  145.8276  137.4294  152.8544 C   0  0  0  0  0  0  0  0  0  0  0  0
  146.0579  138.0294  154.2497 C   0  0  0  0  0  0  0  0  0  0  0  0
  144.7517  138.2835  155.0176 C   0  0  0  0  0  0  0  0  0  0  0  0
  146.9376  139.2702  154.1974 C   0  0  0  0  0  0  0  0  0  0  0  0
  146.4895  140.3588  153.5522 N   0  3  0  0  0  0  0  0  0  0  0  0
  147.2618  141.4702  153.4945 C   0  0  0  0  0  0  0  0  0  0  0  0
  148.5278  141.4908  154.1074 C   0  0  0  0  0  0  0  0  0  0  0  0
  148.9371  140.3164  154.7750 C   0  0  0  0  0  0  0  0  0  0  0  0
  150.1790  140.1911  155.4305 N   0  0  0  0  0  0  0  0  0  0  0  0
  150.2607  141.0990  156.5737 C   0  0  0  0  0  0  0  0  0  0  0  0
  151.6734  141.0973  157.1731 C   0  0  0  0  0  0  0  0  0  0  0  0
  152.0272  139.7660  157.5183 O   0  0  0  0  0  0  0  0  0  0  0  0
  152.0802  138.9263  156.3718 C   0  0  0  0  0  0  0  0  0  0  0  0
  150.6913  138.8358  155.6955 C   0  0  2  0  0  0  0  0  0  0  0  0
  150.8266  137.9119  154.4677 C   0  0  0  0  0  0  0  0  0  0  0  0
  149.7167  137.5658  153.8065 N   0  0  0  0  0  0  0  0  0  0  0  0
  151.9338  137.4991  154.1315 O   0  0  0  0  0  0  0  0  0  0  0  0
  148.1340  139.2314  154.8004 N   0  0  0  0  0  0  0  0  0  0  0  0
  146.7743  137.1921  152.3682 H   0  0  0  0  0  0  0  0  0  0  0  0
  145.2845  138.1196  152.2079 H   0  0  0  0  0  0  0  0  0  0  0  0
  145.2477  136.5080  152.9148 H   0  0  0  0  0  0  0  0  0  0  0  0
  146.6055  137.2765  154.8193 H   0  0  0  0  0  0  0  0  0  0  0  0
  144.9533  138.6389  156.0285 H   0  0  0  0  0  0  0  0  0  0  0  0
  144.1621  137.3703  155.1005 H   0  0  0  0  0  0  0  0  0  0  0  0
  144.1347  139.0311  154.5180 H   0  0  0  0  0  0  0  0  0  0  0  0
  146.8417  142.3078  152.9573 H   0  0  0  0  0  0  0  0  0  0  0  0
  149.1448  142.3753  154.0555 H   0  0  0  0  0  0  0  0  0  0  0  0
  150.0005  142.1172  156.2810 H   0  0  0  0  0  0  0  0  0  0  0  0
  149.5375  140.7913  157.3308 H   0  0  0  0  0  0  0  0  0  0  0  0
  152.3990  141.5153  156.4730 H   0  0  0  0  0  0  0  0  0  0  0  0
  151.7023  141.7162  158.0701 H   0  0  0  0  0  0  0  0  0  0  0  0
  152.8351  139.3030  155.6786 H   0  0  0  0  0  0  0  0  0  0  0  0
  152.4141  137.9383  156.6915 H   0  0  0  0  0  0  0  0  0  0  0  0
  150.0191  138.3529  156.4062 H   0  0  0  0  0  0  0  0  0  0  0  0
  149.7760  136.9442  153.0127 H   0  0  0  0  0  0  0  0  0  0  0  0
  148.8198  137.9105  154.1177 H   0  0  0  0  0  0  0  0  0  0  0  0
  145.5734  140.3574  153.1026 H   0  0  0  0  0  0  0  0  0  0  0  0
  1  2  1  0  0  0  0
  1 19  1  0  0  0  0
  1 20  1  0  0  0  0
  1 21  1  0  0  0  0
  2  3  1  0  0  0  0
  2  4  1  0  0  0  0
  2 22  1  0  0  0  0
  3 23  1  0  0  0  0
  3 24  1  0  0  0  0
  3 25  1  0  0  0  0
  4 18  1  0  0  0  0
  4  5  2  0  0  0  0
  5  6  1  0  0  0  0
  5 37  1  0  0  0  0
  6  7  2  0  0  0  0
  6 26  1  0  0  0  0
  7  8  1  0  0  0  0
  7 27  1  0  0  0  0
  8  9  1  0  0  0  0
  8 18  2  0  0  0  0
  9 14  1  0  0  0  0
  9 10  1  0  0  0  0
 10 11  1  0  0  0  0
 10 28  1  0  0  0  0
 10 29  1  0  0  0  0
 11 12  1  0  0  0  0
 11 30  1  0  0  0  0
 11 31  1  0  0  0  0
 12 13  1  0  0  0  0
 13 14  1  0  0  0  0
 13 32  1  0  0  0  0
 13 33  1  0  0  0  0
 14 15  1  0  0  0  0
 14 34  1  0  0  0  0
 15 16  1  0  0  0  0
 15 17  2  0  0  0  0
 16 35  1  0  0  0  0
 16 36  1  0  0  0  0
M  CHG  1   5   1
M  END
> <s_m_source_file>
AV-unprocessed.smi

> <i_m_source_file_index>
2397

> <i_lp_mmshare_version>
43012

> <i_f3d_flags>
0

> <s_epik_input>
W0NIM11bQ0hdKFtDSDNdKWMxbltjSF1bY0hdYyhuMSlOMltDSDJdW0NIMl1PW0NIMl1bQ0BIXTJDKD1PKVtOSDJd

> <s_epik_cmdline>
J2VwaWtfcHl0aG9uJywgJy1waCcsICc3LjAnLCAnLXRuJywgJzgnLCAnLW1hJywgJzIwMCcsICctbWV0YWxfYmluZGluZycsICctaW1hZScsICc8aW5maWxlLm1hZT4nLCAnLW9tYWUnLCAnPG91dGZpbGUubWFlPic=

> <r_lp_tautomer_probability>
0.999336

> <r_epik_Ionization_Penalty>
1.74009

> <r_epik_Ionization_Penalty_Charging>
1.74009

> <r_epik_Ionization_Penalty_Neutral>
2.46902e-07

> <r_epik_State_Penalty>
1.8491

> <r_epik_Charging_Adjusted_Penalty>
3.5892

> <i_epik_Tot_Q>
1

> <i_epik_Tot_abs_Q>
1

> <r_epik_Metal_State_Penalty>
1.87997

> <b_epik_Metal_Only>
0

> <s_lp_Force_Field>
OPLS_2005

> <r_lp_Energy>
12.8895

> <b_lp_Chiralities_Consistent>
1

> <s_lp_Variant>
AV-unprocessed.smi:2397-4

> <Gold.Version>
5.8.1

> <Gold.Id.Protein>
6NUR|6NUR_protein|mol2

> <Gold.PLP.Fitness>
34.2672

> <Gold.PLP.PLP>
-23.4899

> <Gold.PLP.part.hbond>
-3.3313

> <Gold.PLP.part.metal>
0.0000

> <Gold.PLP.part.buried>
-4.6246

> <Gold.PLP.part.nonpolar>
-16.3428

> <Gold.PLP.part.repulsive>
0.3505

> <Gold.PLP.ligand.clash>
0.0000

> <Gold.PLP.ligand.torsion>
0.3935

> <Gold.PLP.Chemscore.Hbond>
3.7570

> <Gold.PLP.Chemscore.CHOScore>
0.0000

> <Gold.PLP.Chemscore.Metal>
0.0000

> <Gold.Chemscore.Hbonds>
donor molecule, donor type, donor heavy atom, donor atom, acceptor molecule, acceptor atom, score
      L1  H     5    37       P1 10175  2.00
      L1  H    16    35       P1  7948  0.94
      P1  H 10752 10764       L1    17  0.81

> <Gold.PLP.Chemscore.Internal.Correction>
0.2932

> <Gold.Rescore>
     Score         DG    S(hbond)    S(metal)    S(lipo)     H(rot)  DE(clash)    DE(int)     intcor
     11.88     -15.17       2.81        0.00      41.42       1.77       0.04       3.25       ----

> <Gold.Chemscore.Fitness>
11.8809

> <Gold.Chemscore.DG>
-15.1729

> <Gold.Chemscore.ZeroCoef>
-5.4800

> <Gold.Chemscore.Hbond>
2.8091

> <Gold.Chemscore.Metal>
0.0000

> <Gold.Chemscore.Lipo>
41.4199

> <Gold.Chemscore.Internal_Hbond>
0.0000

> <Gold.Chemscore.DEClash>
0.0373

> <Gold.Chemscore.DEInternal>
3.2547

> <Gold.Chemscore.Rot>
1.7717

> <Gold.Chemscore.Internal.Correction>
   9.000000E+99

> <Gold.Chemscore.Hbonds>
donor molecule, donor type, donor heavy atom, donor atom, acceptor molecule, acceptor atom, score
      L1  H     5    37       P1 10175  0.93
      L1  H    16    35       P1  7948  0.22
      P1  H 10752 10764       L1    17  0.76

> <Gold.Chemscore.Hbond.Weighted>
-9.3824

> <Gold.Chemscore.Metal.Weighted>
-0.0000

> <Gold.Chemscore.Lipo.Weighted>
-4.8461

> <Gold.Chemscore.Internal_Hbond.Weighted>
0.0000

> <Gold.Chemscore.DEClash.Weighted>
0.0373

> <Gold.Chemscore.DEInternal.Weighted>
3.2547

> <Gold.Chemscore.Rot.Weighted>
4.5357

> <Gold.Chemscore.Internal.Correction.Weighted>
   9.000000E+99

> <Gold.Protein.RotatedTorsions>
[ 6907 6896 6895 6894 ] final -109.34 input  -60.11 | X-H torsion
[ 7974 7965 7964 7962 ] final   97.84 input  175.53 | X-H torsion
[ 8008 7997 7996 7995 ] final   93.88 input   59.86 | X-H torsion
[ 10167 10162 10161 10158 ] final -108.76 input  -65.29 | X-H torsion
[ 10718 10713 10712 10709 ] final  137.94 input   66.30 | X-H torsion
[ 10763 10752 10751 10750 ] final  -80.38 input  -60.55 | X-H torsion
[ 11005 11000 10999 10996 ] final  137.08 input  -57.11 | X-H torsion

> <Gold.Protein.ActiveResidues>
 VAL166  LYS551  ARG553  GLY616  TRP617  ASP618  TYR619  PRO620  LYS621  CYS622 
 ASP623  PHE694  ASN695  SER759  ASP760  ASP761  ALA762  ILE779  LEU786  VAL792 
 PHE793  MET794  SER795  GLU796  ALA797  LYS798  CYS799  TRP800  GLU811  SER814 

> <Gold.Protein.RotatedAtoms>
  150.7556  133.9544  159.3495 H   0  0  0  0  0  0  0  0  0  0  0  0  # atno 6907 bound_to 6896
  151.7464  135.0840  160.0333 H   0  0  0  0  0  0  0  0  0  0  0  0  # atno 6908 bound_to 6896
  152.3495  133.6125  159.5970 H   0  0  0  0  0  0  0  0  0  0  0  0  # atno 6909 bound_to 6896
  145.4202  139.2322  143.3200 H   0  0  0  0  0  0  0  0  0  0  0  0  # atno 7974 bound_to 7965
  156.0517  140.3307  155.7359 H   0  0  0  0  0  0  0  0  0  0  0  0  # atno 8008 bound_to 7997
  155.5591  140.0617  157.2850 H   0  0  0  0  0  0  0  0  0  0  0  0  # atno 8009 bound_to 7997
  154.4439  140.1880  156.0752 H   0  0  0  0  0  0  0  0  0  0  0  0  # atno 8010 bound_to 7997
  140.1627  143.4107  152.1414 H   0  0  0  0  0  0  0  0  0  0  0  0  # atno 10167 bound_to 10162
  157.4307  131.1048  151.0253 H   0  0  0  0  0  0  0  0  0  0  0  0  # atno 10718 bound_to 10713
  154.5505  135.5663  153.6918 H   0  0  0  0  0  0  0  0  0  0  0  0  # atno 10763 bound_to 10752
  152.9988  135.6249  154.2380 H   0  0  0  0  0  0  0  0  0  0  0  0  # atno 10764 bound_to 10752
  154.2315  135.2865  155.2868 H   0  0  0  0  0  0  0  0  0  0  0  0  # atno 10765 bound_to 10752
  140.0090  134.9447  157.0237 H   0  0  0  0  0  0  0  0  0  0  0  0  # atno 11005 bound_to 11000
  146.2660  140.4925  142.8834 LP  0  0  0  0  0  0  0  0  0  0  0  0  # atno 17320 bound_to 7965
  144.8250  140.6614  143.6328 LP  0  0  0  0  0  0  0  0  0  0  0  0  # atno 17321 bound_to 7965
  139.5374  144.7223  151.4848 LP  0  0  0  0  0  0  0  0  0  0  0  0  # atno 17342 bound_to 10162
  140.6633  143.8452  150.6912 LP  0  0  0  0  0  0  0  0  0  0  0  0  # atno 17343 bound_to 10162
  157.1151  130.6038  149.5491 LP  0  0  0  0  0  0  0  0  0  0  0  0  # atno 17370 bound_to 10713
  155.9912  130.4966  150.7290 LP  0  0  0  0  0  0  0  0  0  0  0  0  # atno 17371 bound_to 10713
  140.4589  134.1505  155.7189 LP  0  0  0  0  0  0  0  0  0  0  0  0  # atno 17394 bound_to 11000
  141.1697  133.8632  157.1607 LP  0  0  0  0  0  0  0  0  0  0  0  0  # atno 17395 bound_to 11000

$$$$
