AV-unprocessed.smi:3079|AV-procd|sdf|11737|dock8
  -GOLD-   2272017133D 1   1.00000     0.00000
 Structure written by MMmdl.
 24 25  0  0  0  0  0  0  0  0  2 V2000
  150.3557  143.7947  157.7488 N   0  3  0  0  0  0  0  0  0  0  0  0
  151.7761  144.0983  157.5086 C   0  0  0  0  0  0  0  0  0  0  0  0
  152.4326  144.7217  158.7473 C   0  0  0  0  0  0  0  0  0  0  0  0
  152.6145  143.7348  159.8510 C   0  0  0  0  0  0  0  0  0  0  0  0
  153.3420  142.6218  159.7284 N   0  0  0  0  0  0  0  0  0  0  0  0
  153.3893  141.8765  160.9100 C   0  0  0  0  0  0  0  0  0  0  0  0
  154.1495  140.5865  160.9419 C   0  0  0  0  0  0  0  0  0  0  0  0
  155.1396  140.2908  162.0449 C   0  0  0  0  0  0  0  0  0  0  0  0
  155.6298  140.5562  160.6421 C   0  0  0  0  0  0  0  0  0  0  0  0
  152.6880  142.4512  161.9408 C   0  0  0  0  0  0  0  0  0  0  0  0
  151.9512  143.9566  161.4658 S   0  0  0  0  0  0  0  0  0  0  0  0
  149.8444  143.8702  156.8808 H   0  0  0  0  0  0  0  0  0  0  0  0
  149.9783  144.4498  158.4186 H   0  0  0  0  0  0  0  0  0  0  0  0
  152.2883  143.1764  157.2314 H   0  0  0  0  0  0  0  0  0  0  0  0
  151.8501  144.7770  156.6583 H   0  0  0  0  0  0  0  0  0  0  0  0
  153.4084  145.1354  158.4901 H   0  0  0  0  0  0  0  0  0  0  0  0
  151.8292  145.5517  159.1175 H   0  0  0  0  0  0  0  0  0  0  0  0
  153.5490  139.7561  160.5762 H   0  0  0  0  0  0  0  0  0  0  0  0
  155.3207  141.0625  162.7907 H   0  0  0  0  0  0  0  0  0  0  0  0
  155.1916  139.2674  162.4107 H   0  0  0  0  0  0  0  0  0  0  0  0
  156.0086  139.7100  160.0726 H   0  0  0  0  0  0  0  0  0  0  0  0
  156.1297  141.5050  160.4571 H   0  0  0  0  0  0  0  0  0  0  0  0
  152.5639  142.0830  162.9486 H   0  0  0  0  0  0  0  0  0  0  0  0
  150.2676  142.8552  158.1090 H   0  0  0  0  0  0  0  0  0  0  0  0
  1  2  1  0  0  0  0
  1 12  1  0  0  0  0
  1 13  1  0  0  0  0
  1 24  1  0  0  0  0
  2  3  1  0  0  0  0
  2 14  1  0  0  0  0
  2 15  1  0  0  0  0
  3  4  1  0  0  0  0
  3 16  1  0  0  0  0
  3 17  1  0  0  0  0
  4 11  1  0  0  0  0
  4  5  2  0  0  0  0
  5  6  1  0  0  0  0
  6  7  1  0  0  0  0
  6 10  2  0  0  0  0
  7  9  1  0  0  0  0
  7  8  1  0  0  0  0
  7 18  1  0  0  0  0
  8  9  1  0  0  0  0
  8 19  1  0  0  0  0
  8 20  1  0  0  0  0
  9 21  1  0  0  0  0
  9 22  1  0  0  0  0
 10 11  1  0  0  0  0
 10 23  1  0  0  0  0
M  CHG  1   1   1
M  END
> <s_m_source_file>
AV-unprocessed.smi

> <i_m_source_file_index>
3079

> <i_lp_mmshare_version>
43012

> <i_f3d_flags>
0

> <s_epik_input>
W05IMl1bQ0gyXVtDSDJdYzFuYyhbY0hdczEpW0NIXTJbQ0gyXVtDSDJdMg==

> <s_epik_cmdline>
J2VwaWtfcHl0aG9uJywgJy1waCcsICc3LjAnLCAnLXRuJywgJzgnLCAnLW1hJywgJzIwMCcsICctbWV0YWxfYmluZGluZycsICctaW1hZScsICc8aW5maWxlLm1hZT4nLCAnLW9tYWUnLCAnPG91dGZpbGUubWFlPic=

> <r_lp_tautomer_probability>
1

> <r_epik_Ionization_Penalty>
0.00466735

> <r_epik_Ionization_Penalty_Charging>
0.00465044

> <r_epik_Ionization_Penalty_Neutral>
1.6915e-05

> <r_epik_State_Penalty>
-0

> <r_epik_Charging_Adjusted_Penalty>
0.00465044

> <i_epik_Tot_Q>
1

> <i_epik_Tot_abs_Q>
1

> <r_epik_Metal_State_Penalty>
-0

> <b_epik_Metal_Only>
0

> <s_lp_Force_Field>
OPLS_2005

> <r_lp_Energy>
-1.43879

> <b_lp_Chiralities_Consistent>
1

> <s_lp_Variant>
AV-unprocessed.smi:3079-1

> <Gold.Version>
5.8.1

> <Gold.Id.Protein>
6NUR|6NUR_protein|mol2

> <Gold.PLP.Fitness>
41.3468

> <Gold.PLP.PLP>
-35.5004

> <Gold.PLP.part.hbond>
-1.7898

> <Gold.PLP.part.metal>
0.0000

> <Gold.PLP.part.buried>
-3.6186

> <Gold.PLP.part.nonpolar>
-30.0495

> <Gold.PLP.part.repulsive>
0.0488

> <Gold.PLP.ligand.clash>
0.0000

> <Gold.PLP.ligand.torsion>
0.1420

> <Gold.PLP.Chemscore.Hbond>
2.0000

> <Gold.PLP.Chemscore.CHOScore>
0.0000

> <Gold.PLP.Chemscore.Metal>
0.0000

> <Gold.Chemscore.Hbonds>
donor molecule, donor type, donor heavy atom, donor atom, acceptor molecule, acceptor atom, score
      L1  H     1    12       P1  8028  2.00

> <Gold.PLP.Chemscore.Internal.Correction>
0.1304

> <Gold.Rescore>
     Score         DG    S(hbond)    S(metal)    S(lipo)     H(rot)  DE(clash)    DE(int)     intcor
     16.48     -16.70       0.94        0.00     101.15       1.47       0.08       0.15       ----

> <Gold.Chemscore.Fitness>
16.4766

> <Gold.Chemscore.DG>
-16.7039

> <Gold.Chemscore.ZeroCoef>
-5.4800

> <Gold.Chemscore.Hbond>
0.9449

> <Gold.Chemscore.Metal>
0.0000

> <Gold.Chemscore.Lipo>
101.1505

> <Gold.Chemscore.Internal_Hbond>
0.0000

> <Gold.Chemscore.DEClash>
0.0815

> <Gold.Chemscore.DEInternal>
0.1458

> <Gold.Chemscore.Rot>
1.4714

> <Gold.Chemscore.Internal.Correction>
   9.000000E+99

> <Gold.Chemscore.Hbonds>
donor molecule, donor type, donor heavy atom, donor atom, acceptor molecule, acceptor atom, score
      L1  H     1    12       P1  8028  0.94

> <Gold.Chemscore.Hbond.Weighted>
-3.1560

> <Gold.Chemscore.Metal.Weighted>
-0.0000

> <Gold.Chemscore.Lipo.Weighted>
-11.8346

> <Gold.Chemscore.Internal_Hbond.Weighted>
0.0000

> <Gold.Chemscore.DEClash.Weighted>
0.0815

> <Gold.Chemscore.DEInternal.Weighted>
0.1458

> <Gold.Chemscore.Rot.Weighted>
3.7668

> <Gold.Chemscore.Internal.Correction.Weighted>
   9.000000E+99

> <Gold.Protein.RotatedTorsions>
[ 6907 6896 6895 6894 ] final  158.32 input  -60.11 | X-H torsion
[ 7974 7965 7964 7962 ] final   36.15 input  175.53 | X-H torsion
[ 8008 7997 7996 7995 ] final   12.06 input   59.86 | X-H torsion
[ 10167 10162 10161 10158 ] final  132.04 input  -65.29 | X-H torsion
[ 10718 10713 10712 10709 ] final   36.23 input   66.30 | X-H torsion
[ 10763 10752 10751 10750 ] final  -37.43 input  -60.55 | X-H torsion
[ 11005 11000 10999 10996 ] final   56.82 input  -57.11 | X-H torsion

> <Gold.Protein.ActiveResidues>
 VAL166  LYS551  ARG553  GLY616  TRP617  ASP618  TYR619  PRO620  LYS621  CYS622 
 ASP623  PHE694  ASN695  SER759  ASP760  ASP761  ALA762  ILE779  LEU786  VAL792 
 PHE793  MET794  SER795  GLU796  ALA797  LYS798  CYS799  TRP800  GLU811  SER814 

> <Gold.Protein.RotatedAtoms>
  152.0022  133.3830  159.4185 H   0  0  0  0  0  0  0  0  0  0  0  0  # atno 6907 bound_to 6896
  150.6909  134.3821  159.5048 H   0  0  0  0  0  0  0  0  0  0  0  0  # atno 6908 bound_to 6896
  152.1570  134.8942  160.0595 H   0  0  0  0  0  0  0  0  0  0  0  0  # atno 6909 bound_to 6896
  146.1232  139.6054  142.9276 H   0  0  0  0  0  0  0  0  0  0  0  0  # atno 7974 bound_to 7965
  154.8154  140.2875  155.5824 H   0  0  0  0  0  0  0  0  0  0  0  0  # atno 8008 bound_to 7997
  156.2992  140.2560  156.2980 H   0  0  0  0  0  0  0  0  0  0  0  0  # atno 8009 bound_to 7997
  154.9400  140.0381  157.2081 H   0  0  0  0  0  0  0  0  0  0  0  0  # atno 8010 bound_to 7997
  139.5357  144.6680  151.4794 H   0  0  0  0  0  0  0  0  0  0  0  0  # atno 10167 bound_to 10162
  157.3323  130.7504  149.6856 H   0  0  0  0  0  0  0  0  0  0  0  0  # atno 10718 bound_to 10713
  153.8962  135.6807  153.4758 H   0  0  0  0  0  0  0  0  0  0  0  0  # atno 10763 bound_to 10752
  153.1154  135.4764  154.9104 H   0  0  0  0  0  0  0  0  0  0  0  0  # atno 10764 bound_to 10752
  154.7598  135.3207  154.8354 H   0  0  0  0  0  0  0  0  0  0  0  0  # atno 10765 bound_to 10752
  140.0500  134.5751  155.9275 H   0  0  0  0  0  0  0  0  0  0  0  0  # atno 11005 bound_to 11000
  145.5421  141.0420  143.2325 LP  0  0  0  0  0  0  0  0  0  0  0  0  # atno 17320 bound_to 7965
  144.7617  139.6941  143.7231 LP  0  0  0  0  0  0  0  0  0  0  0  0  # atno 17321 bound_to 7965
  140.6562  143.8594  150.6837 LP  0  0  0  0  0  0  0  0  0  0  0  0  # atno 17342 bound_to 10162
  140.1975  143.3986  152.1817 LP  0  0  0  0  0  0  0  0  0  0  0  0  # atno 17343 bound_to 10162
  155.9697  130.4191  150.4361 LP  0  0  0  0  0  0  0  0  0  0  0  0  # atno 17370 bound_to 10713
  157.2395  131.0522  151.2445 LP  0  0  0  0  0  0  0  0  0  0  0  0  # atno 17371 bound_to 10713
  141.1925  133.6575  156.5507 LP  0  0  0  0  0  0  0  0  0  0  0  0  # atno 17394 bound_to 11000
  140.3933  134.7421  157.4735 LP  0  0  0  0  0  0  0  0  0  0  0  0  # atno 17395 bound_to 11000

$$$$
