AV-unprocessed.smi:111|AV-procd|sdf|1079|dock6
  -GOLD-   2262018163D 1   1.00000     0.00000
 Structure written by MMmdl.
 46 48  0  0  0  0  0  0  0  0  1 V2000
  149.8231  136.9711  156.4334 O   0  0  0  0  0  0  0  0  0  0  0  0
  150.3652  136.6524  157.4933 C   0  0  0  0  0  0  0  0  0  0  0  0
  149.6883  135.9000  158.5434 C   0  0  0  0  0  0  0  0  0  0  0  0
  148.4158  135.5072  158.3650 F   0  0  0  0  0  0  0  0  0  0  0  0
  150.3175  135.5955  159.6981 C   0  0  0  0  0  0  0  0  0  0  0  0
  151.6238  135.9668  159.9666 N   0  0  0  0  0  0  0  0  0  0  0  0
  152.2797  135.6211  161.2844 C   0  0  2  0  0  0  0  0  0  0  0  0
  152.3192  134.1010  161.4747 C   0  0  0  0  0  0  0  0  0  0  0  0
  151.0760  133.8573  162.3027 C   0  0  0  0  0  0  0  0  0  0  0  0
  151.0289  135.1149  163.1628 C   0  0  0  0  0  0  0  0  0  0  0  0
  151.5187  136.1600  162.3270 O   0  0  0  0  0  0  0  0  0  0  0  0
  152.3675  136.6718  158.9950 C   0  0  0  0  0  0  0  0  0  0  0  0
  153.5420  136.9810  159.2069 O   0  0  0  0  0  0  0  0  0  0  0  0
  151.7072  137.0011  157.7863 N   0  0  0  0  0  0  0  0  0  0  0  0
  152.4306  137.7670  156.7807 C   0  0  0  0  0  0  0  0  0  0  0  0
  151.8157  139.1550  156.4817 C   0  0  2  0  0  0  0  0  0  0  0  0
  152.5158  139.7140  155.3890 O   0  0  0  0  0  0  0  0  0  0  0  0
  151.8557  140.1472  157.6691 C   0  0  0  0  0  0  0  0  0  0  0  0
  151.0311  141.4266  157.4438 C   0  0  0  0  0  0  0  0  0  0  0  0
  151.3454  142.5255  158.4448 C   0  0  0  0  0  0  0  0  0  0  0  0
  152.2616  142.2972  159.4935 C   0  0  0  0  0  0  0  0  0  0  0  0
  152.5497  143.3205  160.4173 C   0  0  0  0  0  0  0  0  0  0  0  0
  151.9200  144.5747  160.2995 C   0  0  0  0  0  0  0  0  0  0  0  0
  151.0025  144.8054  159.2567 C   0  0  0  0  0  0  0  0  0  0  0  0
  150.7159  143.7831  158.3313 C   0  0  0  0  0  0  0  0  0  0  0  0
  149.7633  135.0378  160.4380 H   0  0  0  0  0  0  0  0  0  0  0  0
  153.2635  136.0929  161.2733 H   0  0  0  0  0  0  0  0  0  0  0  0
  152.3373  133.5625  160.5262 H   0  0  0  0  0  0  0  0  0  0  0  0
  153.2135  133.8456  162.0442 H   0  0  0  0  0  0  0  0  0  0  0  0
  150.1973  133.8040  161.6589 H   0  0  0  0  0  0  0  0  0  0  0  0
  151.1251  132.9403  162.8902 H   0  0  0  0  0  0  0  0  0  0  0  0
  150.0272  135.3348  163.5327 H   0  0  0  0  0  0  0  0  0  0  0  0
  151.6944  135.0126  164.0211 H   0  0  0  0  0  0  0  0  0  0  0  0
  153.4792  137.8437  157.0702 H   0  0  0  0  0  0  0  0  0  0  0  0
  152.4409  137.1419  155.8852 H   0  0  0  0  0  0  0  0  0  0  0  0
  150.7907  139.0286  156.1350 H   0  0  0  0  0  0  0  0  0  0  0  0
  152.5457  139.0751  154.6933 H   0  0  0  0  0  0  0  0  0  0  0  0
  151.5216  139.6696  158.5881 H   0  0  0  0  0  0  0  0  0  0  0  0
  152.8882  140.4357  157.8717 H   0  0  0  0  0  0  0  0  0  0  0  0
  151.2322  141.8136  156.4443 H   0  0  0  0  0  0  0  0  0  0  0  0
  149.9653  141.1954  157.4679 H   0  0  0  0  0  0  0  0  0  0  0  0
  152.7508  141.3390  159.5897 H   0  0  0  0  0  0  0  0  0  0  0  0
  153.2565  143.1441  161.2146 H   0  0  0  0  0  0  0  0  0  0  0  0
  152.1439  145.3605  161.0057 H   0  0  0  0  0  0  0  0  0  0  0  0
  150.5231  145.7685  159.1623 H   0  0  0  0  0  0  0  0  0  0  0  0
  150.0157  143.9686  157.5302 H   0  0  0  0  0  0  0  0  0  0  0  0
  1  2  2  0  0  0  0
  2 14  1  0  0  0  0
  2  3  1  0  0  0  0
  3  4  1  0  0  0  0
  3  5  2  0  0  0  0
  5  6  1  0  0  0  0
  5 26  1  0  0  0  0
  6  7  1  0  0  0  0
  6 12  1  0  0  0  0
  7 11  1  0  0  0  0
  7  8  1  0  0  0  0
  7 27  1  0  0  0  0
  8  9  1  0  0  0  0
  8 28  1  0  0  0  0
  8 29  1  0  0  0  0
  9 10  1  0  0  0  0
  9 30  1  0  0  0  0
  9 31  1  0  0  0  0
 10 11  1  0  0  0  0
 10 32  1  0  0  0  0
 10 33  1  0  0  0  0
 12 13  2  0  0  0  0
 12 14  1  0  0  0  0
 14 15  1  0  0  0  0
 15 16  1  0  0  0  0
 15 34  1  0  0  0  0
 15 35  1  0  0  0  0
 16 17  1  0  0  0  0
 16 18  1  0  0  0  0
 16 36  1  0  0  0  0
 17 37  1  0  0  0  0
 18 19  1  0  0  0  0
 18 38  1  0  0  0  0
 18 39  1  0  0  0  0
 19 20  1  0  0  0  0
 19 40  1  0  0  0  0
 19 41  1  0  0  0  0
 20 25  1  0  0  0  0
 20 21  2  0  0  0  0
 21 22  1  0  0  0  0
 21 42  1  0  0  0  0
 22 23  2  0  0  0  0
 22 43  1  0  0  0  0
 23 24  1  0  0  0  0
 23 44  1  0  0  0  0
 24 25  2  0  0  0  0
 24 45  1  0  0  0  0
 25 46  1  0  0  0  0
M  END
> <s_m_source_file>
AV-unprocessed.smi

> <i_m_source_file_index>
111

> <i_lp_mmshare_version>
43012

> <i_f3d_flags>
0

> <s_epik_input>
TzFbQ0gyXVtDSDJdW0NIMl1bQ0BIXTFuKFtjSF1jKEYpYzI9TyljKD1PKW4yW0NIMl1bQ0BIXShbT0hdKVtDSDJdW0NIMl1jM1tjSF1bY0hdW2NIXVtjSF1bY0hdMw==

> <s_epik_cmdline>
J2VwaWtfcHl0aG9uJywgJy1waCcsICc3LjAnLCAnLXRuJywgJzgnLCAnLW1hJywgJzIwMCcsICctbWV0YWxfYmluZGluZycsICctaW1hZScsICc8aW5maWxlLm1hZT4nLCAnLW9tYWUnLCAnPG91dGZpbGUubWFlPic=

> <r_lp_tautomer_probability>
1

> <r_epik_Ionization_Penalty>
1.88248e-07

> <r_epik_Ionization_Penalty_Charging>
4.03974e-08

> <r_epik_Ionization_Penalty_Neutral>
1.47851e-07

> <r_epik_State_Penalty>
-0

> <r_epik_Charging_Adjusted_Penalty>
4.03974e-08

> <i_epik_Tot_Q>
0

> <i_epik_Tot_abs_Q>
0

> <r_epik_Metal_State_Penalty>
-0

> <b_epik_Metal_Only>
0

> <s_epik_Chemistry_Notes>
This compound contains an acetal/aminal-like group ( X-CH(R)-Y where X, Y are N, S, or O) that may be acid/base labile, releasing an aldehyde.

> <s_lp_Force_Field>
OPLS_2005

> <r_lp_Energy>
34.4162

> <b_lp_Chiralities_Consistent>
1

> <s_lp_Variant>
AV-unprocessed.smi:111-1

> <Gold.Version>
5.8.1

> <Gold.Id.Protein>
6NUR|6NUR_protein|mol2

> <Gold.PLP.Fitness>
53.7265

> <Gold.PLP.PLP>
-42.6061

> <Gold.PLP.part.hbond>
-4.2687

> <Gold.PLP.part.metal>
0.0000

> <Gold.PLP.part.buried>
-6.1110

> <Gold.PLP.part.nonpolar>
-33.0066

> <Gold.PLP.part.repulsive>
0.0782

> <Gold.PLP.ligand.clash>
0.0000

> <Gold.PLP.ligand.torsion>
0.1362

> <Gold.PLP.Chemscore.Hbond>
3.7760

> <Gold.PLP.Chemscore.CHOScore>
0.0000

> <Gold.PLP.Chemscore.Metal>
0.0000

> <Gold.Chemscore.Hbonds>
donor molecule, donor type, donor heavy atom, donor atom, acceptor molecule, acceptor atom, score
      P1  H  7997  8010       L1    17  0.99

> <Gold.PLP.Chemscore.Internal.Correction>
0.0649

> <Gold.Rescore>
     Score         DG    S(hbond)    S(metal)    S(lipo)     H(rot)  DE(clash)    DE(int)     intcor
     19.77     -20.80       2.85        0.00     107.94       2.67       0.37       0.66       ----

> <Gold.Chemscore.Fitness>
19.7688

> <Gold.Chemscore.DG>
-20.7958

> <Gold.Chemscore.ZeroCoef>
-5.4800

> <Gold.Chemscore.Hbond>
2.8540

> <Gold.Chemscore.Metal>
0.0000

> <Gold.Chemscore.Lipo>
107.9447

> <Gold.Chemscore.Internal_Hbond>
0.0000

> <Gold.Chemscore.DEClash>
0.3673

> <Gold.Chemscore.DEInternal>
0.6596

> <Gold.Chemscore.Rot>
2.6743

> <Gold.Chemscore.Internal.Correction>
   9.000000E+99

> <Gold.Chemscore.Hbonds>
donor molecule, donor type, donor heavy atom, donor atom, acceptor molecule, acceptor atom, score
      P1  H  7997  8010       L1    17  0.42

> <Gold.Chemscore.Hbond.Weighted>
-9.5325

> <Gold.Chemscore.Metal.Weighted>
-0.0000

> <Gold.Chemscore.Lipo.Weighted>
-12.6295

> <Gold.Chemscore.Internal_Hbond.Weighted>
0.0000

> <Gold.Chemscore.DEClash.Weighted>
0.3673

> <Gold.Chemscore.DEInternal.Weighted>
0.6596

> <Gold.Chemscore.Rot.Weighted>
6.8463

> <Gold.Chemscore.Internal.Correction.Weighted>
   9.000000E+99

> <Gold.Protein.RotatedTorsions>
[ 6907 6896 6895 6894 ] final  -32.67 input  -60.11 | X-H torsion
[ 7974 7965 7964 7962 ] final   59.65 input  175.53 | X-H torsion
[ 8008 7997 7996 7995 ] final   90.75 input   59.86 | X-H torsion
[ 10167 10162 10161 10158 ] final  -60.19 input  -65.29 | X-H torsion
[ 10718 10713 10712 10709 ] final  -60.44 input   66.30 | X-H torsion
[ 10763 10752 10751 10750 ] final -104.51 input  -60.55 | X-H torsion
[ 11005 11000 10999 10996 ] final  100.46 input  -57.11 | X-H torsion

> <Gold.Protein.ActiveResidues>
 VAL166  LYS551  ARG553  GLY616  TRP617  ASP618  TYR619  PRO620  LYS621  CYS622 
 ASP623  PHE694  ASN695  SER759  ASP760  ASP761  ALA762  ILE779  LEU786  VAL792 
 PHE793  MET794  SER795  GLU796  ALA797  LYS798  CYS799  TRP800  GLU811  SER814 

> <Gold.Protein.RotatedAtoms>
  151.0757  134.9826  159.8330 H   0  0  0  0  0  0  0  0  0  0  0  0  # atno 6907 bound_to 6896
  152.5414  134.2244  159.8810 H   0  0  0  0  0  0  0  0  0  0  0  0  # atno 6908 bound_to 6896
  151.2271  133.4427  159.2636 H   0  0  0  0  0  0  0  0  0  0  0  0  # atno 6909 bound_to 6896
  145.9048  139.3608  143.0571 H   0  0  0  0  0  0  0  0  0  0  0  0  # atno 7974 bound_to 7965
  156.0157  140.3345  155.6986 H   0  0  0  0  0  0  0  0  0  0  0  0  # atno 8008 bound_to 7997
  155.6094  140.0664  157.2728 H   0  0  0  0  0  0  0  0  0  0  0  0  # atno 8009 bound_to 7997
  154.4297  140.1796  156.1244 H   0  0  0  0  0  0  0  0  0  0  0  0  # atno 8010 bound_to 7997
  140.6087  143.2381  151.5761 H   0  0  0  0  0  0  0  0  0  0  0  0  # atno 10167 bound_to 10162
  156.0990  130.4189  150.0855 H   0  0  0  0  0  0  0  0  0  0  0  0  # atno 10718 bound_to 10713
  154.7883  135.4783  153.9996 H   0  0  0  0  0  0  0  0  0  0  0  0  # atno 10763 bound_to 10752
  153.1593  135.6806  153.8773 H   0  0  0  0  0  0  0  0  0  0  0  0  # atno 10764 bound_to 10752
  153.8392  135.3181  155.3403 H   0  0  0  0  0  0  0  0  0  0  0  0  # atno 10765 bound_to 10752
  139.8771  134.9141  156.4760 H   0  0  0  0  0  0  0  0  0  0  0  0  # atno 11005 bound_to 11000
  145.8746  140.9399  143.0633 LP  0  0  0  0  0  0  0  0  0  0  0  0  # atno 17320 bound_to 7965
  144.6738  140.0700  143.7473 LP  0  0  0  0  0  0  0  0  0  0  0  0  # atno 17321 bound_to 7965
  139.5344  144.2822  152.1220 LP  0  0  0  0  0  0  0  0  0  0  0  0  # atno 17342 bound_to 10162
  140.2017  144.4651  150.6428 LP  0  0  0  0  0  0  0  0  0  0  0  0  # atno 17343 bound_to 10162
  156.8847  130.9568  151.3595 LP  0  0  0  0  0  0  0  0  0  0  0  0  # atno 17370 bound_to 10713
  157.6157  130.8616  149.9024 LP  0  0  0  0  0  0  0  0  0  0  0  0  # atno 17371 bound_to 10713
  140.8761  133.7952  155.9417 LP  0  0  0  0  0  0  0  0  0  0  0  0  # atno 17394 bound_to 11000
  140.8902  134.2504  157.5098 LP  0  0  0  0  0  0  0  0  0  0  0  0  # atno 17395 bound_to 11000

$$$$
