AV-unprocessed.smi:21|AV-procd|sdf|166|dock5
  -GOLD-   2262015413D 1   1.00000     0.00000
 Structure written by MMmdl.
 61 64  0  0  0  0  0  0  0  0  1 V2000
  153.4572  138.8314  160.8900 C   0  0  0  0  0  0  0  0  0  0  0  0
  153.7203  140.1095  160.3326 O   0  0  0  0  0  0  0  0  0  0  0  0
  152.5957  140.9773  160.3509 C   0  0  2  0  0  0  0  0  0  0  0  0
  151.4940  140.5525  159.3619 C   0  0  0  0  0  0  0  0  0  0  0  0
  151.3917  141.7221  158.3711 C   0  0  1  0  0  0  0  0  0  0  0  0
  149.9841  141.8917  157.7560 C   0  0  0  0  0  0  0  0  0  0  0  0
  149.7563  141.0366  156.5907 N   0  0  0  0  0  0  0  0  0  0  0  0
  150.8576  140.1836  156.1464 C   0  0  0  0  0  0  0  0  0  0  0  0
  148.7627  141.3408  155.7046 C   0  0  0  0  0  0  0  0  0  0  0  0
  148.8665  140.8749  154.4298 N   0  0  0  0  0  0  0  0  0  0  0  0
  147.9386  141.1623  153.5141 C   0  0  0  0  0  0  0  0  0  0  0  0
  146.8315  141.8902  153.6521 N   0  0  0  0  0  0  0  0  0  0  0  0
  146.7031  142.3537  154.9270 C   0  0  0  0  0  0  0  0  0  0  0  0
  147.6077  142.1284  156.0066 C   0  0  0  0  0  0  0  0  0  0  0  0
  147.1228  142.7590  157.1486 N   0  0  0  0  0  0  0  0  0  0  0  0
  146.0145  143.3293  156.7660 C   0  0  0  0  0  0  0  0  0  0  0  0
  145.6830  143.1312  155.4470 N   0  0  0  0  0  0  0  0  0  0  0  0
  144.5128  143.6525  154.7615 C   0  0  0  0  0  0  0  0  0  0  0  0
  144.5018  145.1967  154.6482 C   0  0  1  0  0  0  0  0  0  0  0  0
  145.4841  145.6635  153.5480 C   0  0  0  0  0  0  0  0  0  0  0  0
  145.0063  145.3014  152.2691 O   0  0  0  0  0  0  0  0  0  0  0  0
  143.0682  145.7758  154.4842 C   0  0  1  0  0  0  0  0  0  0  0  0
  142.1326  145.5542  155.6748 C   0  0  0  0  0  0  0  0  0  0  0  0
  141.5993  146.9492  155.9976 C   0  0  0  0  0  0  0  0  0  0  0  0
  141.7263  147.6523  154.7731 O   0  0  0  0  0  0  0  0  0  0  0  0
  142.9826  147.2874  154.2269 C   0  0  0  0  0  0  0  0  0  0  0  0
  151.8727  142.8778  159.1091 N   0  0  0  0  0  0  0  0  0  0  0  0
  152.2335  144.0059  158.2604 C   0  0  0  0  0  0  0  0  0  0  0  0
  153.0090  142.3642  159.8487 C   0  0  0  0  0  0  0  0  0  0  0  0
  152.1874  141.0658  161.3593 H   0  0  0  0  0  0  0  0  0  0  0  0
  152.1038  141.5223  157.5686 H   0  0  0  0  0  0  0  0  0  0  0  0
  154.3591  138.2218  160.8436 H   0  0  0  0  0  0  0  0  0  0  0  0
  152.6718  138.3062  160.3456 H   0  0  0  0  0  0  0  0  0  0  0  0
  153.1614  138.9119  161.9366 H   0  0  0  0  0  0  0  0  0  0  0  0
  151.7221  139.6209  158.8436 H   0  0  0  0  0  0  0  0  0  0  0  0
  150.5556  140.4122  159.9000 H   0  0  0  0  0  0  0  0  0  0  0  0
  149.2376  141.6625  158.5171 H   0  0  0  0  0  0  0  0  0  0  0  0
  149.7896  142.9272  157.4855 H   0  0  0  0  0  0  0  0  0  0  0  0
  150.4800  139.2459  155.7368 H   0  0  0  0  0  0  0  0  0  0  0  0
  151.5217  139.9344  156.9741 H   0  0  0  0  0  0  0  0  0  0  0  0
  151.4499  140.6839  155.3797 H   0  0  0  0  0  0  0  0  0  0  0  0
  148.1105  140.7528  152.5298 H   0  0  0  0  0  0  0  0  0  0  0  0
  145.4017  143.9095  157.4405 H   0  0  0  0  0  0  0  0  0  0  0  0
  144.4854  143.1982  153.7706 H   0  0  0  0  0  0  0  0  0  0  0  0
  143.6178  143.3068  155.2798 H   0  0  0  0  0  0  0  0  0  0  0  0
  144.8748  145.5903  155.5953 H   0  0  0  0  0  0  0  0  0  0  0  0
  145.6222  146.7444  153.5753 H   0  0  0  0  0  0  0  0  0  0  0  0
  146.4688  145.2147  153.6703 H   0  0  0  0  0  0  0  0  0  0  0  0
  144.3490  144.6299  152.3727 H   0  0  0  0  0  0  0  0  0  0  0  0
  142.5861  145.2805  153.6405 H   0  0  0  0  0  0  0  0  0  0  0  0
  141.3118  144.8996  155.3791 H   0  0  0  0  0  0  0  0  0  0  0  0
  142.6112  145.0944  156.5393 H   0  0  0  0  0  0  0  0  0  0  0  0
  140.5677  146.9354  156.3495 H   0  0  0  0  0  0  0  0  0  0  0  0
  142.2150  147.4319  156.7585 H   0  0  0  0  0  0  0  0  0  0  0  0
  143.7624  147.8436  154.7467 H   0  0  0  0  0  0  0  0  0  0  0  0
  143.0405  147.5368  153.1678 H   0  0  0  0  0  0  0  0  0  0  0  0
  152.6468  144.8184  158.8589 H   0  0  0  0  0  0  0  0  0  0  0  0
  151.3616  144.3957  157.7360 H   0  0  0  0  0  0  0  0  0  0  0  0
  152.9778  143.7202  157.5158 H   0  0  0  0  0  0  0  0  0  0  0  0
  153.2968  143.0319  160.6611 H   0  0  0  0  0  0  0  0  0  0  0  0
  153.8683  142.2665  159.1825 H   0  0  0  0  0  0  0  0  0  0  0  0
  1  2  1  0  0  0  0
  1 32  1  0  0  0  0
  1 33  1  0  0  0  0
  1 34  1  0  0  0  0
  2  3  1  0  0  0  0
  3 30  1  0  0  0  0
  3 29  1  0  0  0  0
  3  4  1  0  0  0  0
  4  5  1  0  0  0  0
  4 35  1  0  0  0  0
  4 36  1  0  0  0  0
  5 31  1  0  0  0  0
  5  6  1  0  0  0  0
  5 27  1  0  0  0  0
  6  7  1  0  0  0  0
  6 37  1  0  0  0  0
  6 38  1  0  0  0  0
  7  8  1  0  0  0  0
  7  9  1  0  0  0  0
  8 39  1  0  0  0  0
  8 40  1  0  0  0  0
  8 41  1  0  0  0  0
  9 14  1  0  0  0  0
  9 10  2  0  0  0  0
 10 11  1  0  0  0  0
 11 12  2  0  0  0  0
 11 42  1  0  0  0  0
 12 13  1  0  0  0  0
 13 17  1  0  0  0  0
 13 14  2  0  0  0  0
 14 15  1  0  0  0  0
 15 16  2  0  0  0  0
 16 17  1  0  0  0  0
 16 43  1  0  0  0  0
 17 18  1  0  0  0  0
 18 19  1  0  0  0  0
 18 44  1  0  0  0  0
 18 45  1  0  0  0  0
 19 20  1  0  0  0  0
 19 22  1  0  0  0  0
 19 46  1  0  0  0  0
 20 21  1  0  0  0  0
 20 47  1  0  0  0  0
 20 48  1  0  0  0  0
 21 49  1  0  0  0  0
 22 26  1  0  0  0  0
 22 23  1  0  0  0  0
 22 50  1  0  0  0  0
 23 24  1  0  0  0  0
 23 51  1  0  0  0  0
 23 52  1  0  0  0  0
 24 25  1  0  0  0  0
 24 53  1  0  0  0  0
 24 54  1  0  0  0  0
 25 26  1  0  0  0  0
 26 55  1  0  0  0  0
 26 56  1  0  0  0  0
 27 28  1  0  0  0  0
 27 29  1  0  0  0  0
 28 57  1  0  0  0  0
 28 58  1  0  0  0  0
 28 59  1  0  0  0  0
 29 60  1  0  0  0  0
 29 61  1  0  0  0  0
M  END
> <s_m_source_file>
AV-unprocessed.smi

> <i_m_source_file_index>
21

> <i_lp_mmshare_version>
43012

> <i_f3d_flags>
0

> <s_epik_input>
W0NIM11PW0NASF0xW0NIMl1bQ0BIXShOKFtDSDNdKVtDSDJdMSlbQ0gyXU4oW0NIM10pYyhuW2NIXW4yKWMoYzIzKW5bY0hdbjNbQ0gyXVtDQEhdKFtDSDJdW09IXSlbQ0BASF00W0NIMl1bQ0gyXU9bQ0gyXTQ=

> <s_epik_cmdline>
J2VwaWtfcHl0aG9uJywgJy1waCcsICc3LjAnLCAnLXRuJywgJzgnLCAnLW1hJywgJzIwMCcsICctbWV0YWxfYmluZGluZycsICctaW1hZScsICc8aW5maWxlLm1hZT4nLCAnLW9tYWUnLCAnPG91dGZpbGUubWFlPic=

> <r_lp_tautomer_probability>
1

> <r_epik_Ionization_Penalty>
2.17574

> <r_epik_Ionization_Penalty_Charging>
0

> <r_epik_Ionization_Penalty_Neutral>
2.17574

> <r_epik_State_Penalty>
2.31336

> <r_epik_Charging_Adjusted_Penalty>
2.31336

> <i_epik_Tot_Q>
0

> <i_epik_Tot_abs_Q>
0

> <r_epik_Metal_State_Penalty>
2.31025

> <b_epik_Metal_Only>
0

> <s_lp_Force_Field>
OPLS_2005

> <r_lp_Energy>
69.2807

> <b_lp_Chiralities_Consistent>
1

> <s_lp_Variant>
AV-unprocessed.smi:21-46

> <Gold.Version>
5.8.1

> <Gold.Id.Protein>
6NUR|6NUR_protein|mol2

> <Gold.PLP.Fitness>
53.8063

> <Gold.PLP.PLP>
-48.8551

> <Gold.PLP.part.hbond>
-2.0000

> <Gold.PLP.part.metal>
0.0000

> <Gold.PLP.part.buried>
-8.1994

> <Gold.PLP.part.nonpolar>
-39.7495

> <Gold.PLP.part.repulsive>
0.5404

> <Gold.PLP.ligand.clash>
0.0000

> <Gold.PLP.ligand.torsion>
0.8934

> <Gold.PLP.Chemscore.Hbond>
1.0000

> <Gold.PLP.Chemscore.CHOScore>
1.0000

> <Gold.PLP.Chemscore.Metal>
0.0000

> <Gold.Chemscore.Hbonds>
donor molecule, donor type, donor heavy atom, donor atom, acceptor molecule, acceptor atom, score
      L1  C    11    42       P1  7957  1.00

> <Gold.PLP.Chemscore.Internal.Correction>
0.7380

> <Gold.Rescore>
     Score         DG    S(hbond)    S(metal)    S(lipo)     H(rot)  DE(clash)    DE(int)     intcor
     10.95     -12.75       0.88        0.00     102.86       3.00       0.03       1.77       ----

> <Gold.Chemscore.Fitness>
10.9500

> <Gold.Chemscore.DG>
-12.7501

> <Gold.Chemscore.ZeroCoef>
-5.4800

> <Gold.Chemscore.Hbond>
0.8752

> <Gold.Chemscore.Metal>
0.0000

> <Gold.Chemscore.Lipo>
102.8632

> <Gold.Chemscore.Internal_Hbond>
0.0000

> <Gold.Chemscore.DEClash>
0.0281

> <Gold.Chemscore.DEInternal>
1.7720

> <Gold.Chemscore.Rot>
3.0031

> <Gold.Chemscore.Internal.Correction>
   9.000000E+99

> <Gold.Chemscore.Hbond.Weighted>
-2.9231

> <Gold.Chemscore.Metal.Weighted>
-0.0000

> <Gold.Chemscore.Lipo.Weighted>
-12.0350

> <Gold.Chemscore.Internal_Hbond.Weighted>
0.0000

> <Gold.Chemscore.DEClash.Weighted>
0.0281

> <Gold.Chemscore.DEInternal.Weighted>
1.7720

> <Gold.Chemscore.Rot.Weighted>
7.6880

> <Gold.Chemscore.Internal.Correction.Weighted>
   9.000000E+99

> <Gold.Protein.RotatedTorsions>
[ 6907 6896 6895 6894 ] final  -49.78 input  -60.11 | X-H torsion
[ 7974 7965 7964 7962 ] final  115.61 input  175.53 | X-H torsion
[ 8008 7997 7996 7995 ] final  109.58 input   59.86 | X-H torsion
[ 10167 10162 10161 10158 ] final  118.00 input  -65.29 | X-H torsion
[ 10718 10713 10712 10709 ] final  114.87 input   66.30 | X-H torsion
[ 10763 10752 10751 10750 ] final  -32.54 input  -60.55 | X-H torsion
[ 11005 11000 10999 10996 ] final  -72.19 input  -57.11 | X-H torsion

> <Gold.Protein.ActiveResidues>
 VAL166  LYS551  ARG553  GLY616  TRP617  ASP618  TYR619  PRO620  LYS621  CYS622 
 ASP623  PHE694  ASN695  SER759  ASP760  ASP761  ALA762  ILE779  LEU786  VAL792 
 PHE793  MET794  SER795  GLU796  ALA797  LYS798  CYS799  TRP800  GLU811  SER814 

> <Gold.Protein.RotatedAtoms>
  150.8771  134.8156  159.7197 H   0  0  0  0  0  0  0  0  0  0  0  0  # atno 6907 bound_to 6896
  152.4754  134.4854  159.9688 H   0  0  0  0  0  0  0  0  0  0  0  0  # atno 6908 bound_to 6896
  151.4934  133.3481  159.2892 H   0  0  0  0  0  0  0  0  0  0  0  0  # atno 6909 bound_to 6896
  145.1898  139.3006  143.4374 H   0  0  0  0  0  0  0  0  0  0  0  0  # atno 7974 bound_to 7965
  156.1990  140.3055  155.9486 H   0  0  0  0  0  0  0  0  0  0  0  0  # atno 8008 bound_to 7997
  155.2999  140.0446  157.3046 H   0  0  0  0  0  0  0  0  0  0  0  0  # atno 8009 bound_to 7997
  154.5546  140.2302  155.8440 H   0  0  0  0  0  0  0  0  0  0  0  0  # atno 8010 bound_to 7997
  139.6141  144.7088  151.2779 H   0  0  0  0  0  0  0  0  0  0  0  0  # atno 10167 bound_to 10162
  157.6256  131.1004  150.7248 H   0  0  0  0  0  0  0  0  0  0  0  0  # atno 10718 bound_to 10713
  153.8155  135.6879  153.4834 H   0  0  0  0  0  0  0  0  0  0  0  0  # atno 10763 bound_to 10752
  153.1602  135.4583  154.9759 H   0  0  0  0  0  0  0  0  0  0  0  0  # atno 10764 bound_to 10752
  154.7949  135.3315  154.7632 H   0  0  0  0  0  0  0  0  0  0  0  0  # atno 10765 bound_to 10752
  141.1604  133.6839  156.7021 H   0  0  0  0  0  0  0  0  0  0  0  0  # atno 11005 bound_to 11000
  146.3438  140.2107  142.8590 LP  0  0  0  0  0  0  0  0  0  0  0  0  # atno 17320 bound_to 7965
  145.0052  140.8667  143.5257 LP  0  0  0  0  0  0  0  0  0  0  0  0  # atno 17321 bound_to 7965
  140.7339  143.6782  150.8023 LP  0  0  0  0  0  0  0  0  0  0  0  0  # atno 17342 bound_to 10162
  140.0382  143.5374  152.2730 LP  0  0  0  0  0  0  0  0  0  0  0  0  # atno 17343 bound_to 10162
  156.7597  130.4794  149.5439 LP  0  0  0  0  0  0  0  0  0  0  0  0  # atno 17370 bound_to 10713
  156.1426  130.6255  151.0487 LP  0  0  0  0  0  0  0  0  0  0  0  0  # atno 17371 bound_to 10713
  140.2951  134.8209  157.4050 LP  0  0  0  0  0  0  0  0  0  0  0  0  # atno 17394 bound_to 11000
  140.1312  134.5093  155.8104 LP  0  0  0  0  0  0  0  0  0  0  0  0  # atno 17395 bound_to 11000

$$$$
