AV-unprocessed.smi:1436|AV-procd|sdf|5862|dock4
  -GOLD-   22720 5533D 1   1.00000     0.00000
 Structure written by MMmdl.
 44 45  0  0  0  0  0  0  0  0  2 V2000
  149.5348  141.2253  156.3999 C   0  0  0  0  0  0  0  0  0  0  0  0
  150.5879  140.2808  155.8955 C   0  0  0  0  0  0  0  0  0  0  0  0
  151.8654  140.5545  156.0983 N   0  0  0  0  0  0  0  0  0  0  0  0
  152.5797  139.4948  155.5314 O   0  0  0  0  0  0  0  0  0  0  0  0
  151.6932  138.6107  155.0082 C   0  0  0  0  0  0  0  0  0  0  0  0
  152.2617  137.3886  154.3705 C   0  0  0  0  0  0  0  0  0  0  0  0
  150.4121  139.0482  155.2038 C   0  0  0  0  0  0  0  0  0  0  0  0
  149.1175  138.3847  154.8097 C   0  0  0  0  0  0  0  0  0  0  0  0
  149.1277  136.9536  155.3397 C   0  0  0  0  0  0  0  0  0  0  0  0
  148.7804  136.7244  156.4975 O   0  0  0  0  0  0  0  0  0  0  0  0
  149.5885  136.0151  154.4978 N   0  0  0  0  0  0  0  0  0  0  0  0
  149.8872  134.6260  154.8434 C   0  0  1  0  0  0  0  0  0  0  0  0
  150.5641  134.5742  156.2196 C   0  0  0  0  0  0  0  0  0  0  0  0
  148.5979  133.7738  154.8058 C   0  0  0  0  0  0  0  0  0  0  0  0
  147.8280  133.9285  153.5437 N   0  3  0  0  0  0  0  0  0  0  0  0
  147.9586  132.7750  152.6211 C   0  0  0  0  0  0  0  0  0  0  0  0
  147.1964  133.0531  151.3152 C   0  0  0  0  0  0  0  0  0  0  0  0
  145.8299  133.3126  151.6120 O   0  0  0  0  0  0  0  0  0  0  0  0
  145.6726  134.4610  152.4363 C   0  0  0  0  0  0  0  0  0  0  0  0
  146.3993  134.2465  153.7754 C   0  0  0  0  0  0  0  0  0  0  0  0
  148.9325  140.7558  157.1779 H   0  0  0  0  0  0  0  0  0  0  0  0
  148.8625  141.5243  155.5956 H   0  0  0  0  0  0  0  0  0  0  0  0
  149.9709  142.1321  156.8209 H   0  0  0  0  0  0  0  0  0  0  0  0
  151.9905  136.4975  154.9367 H   0  0  0  0  0  0  0  0  0  0  0  0
  153.3498  137.4395  154.3227 H   0  0  0  0  0  0  0  0  0  0  0  0
  151.8853  137.2728  153.3539 H   0  0  0  0  0  0  0  0  0  0  0  0
  148.2557  138.9131  155.2190 H   0  0  0  0  0  0  0  0  0  0  0  0
  148.9831  138.3734  153.7271 H   0  0  0  0  0  0  0  0  0  0  0  0
  149.8261  136.3067  153.5603 H   0  0  0  0  0  0  0  0  0  0  0  0
  150.5975  134.2108  154.1272 H   0  0  0  0  0  0  0  0  0  0  0  0
  150.8165  133.5493  156.4931 H   0  0  0  0  0  0  0  0  0  0  0  0
  149.9164  134.9767  156.9994 H   0  0  0  0  0  0  0  0  0  0  0  0
  151.4890  135.1523  156.2238 H   0  0  0  0  0  0  0  0  0  0  0  0
  148.8240  132.7205  154.9774 H   0  0  0  0  0  0  0  0  0  0  0  0
  147.9634  134.0880  155.6363 H   0  0  0  0  0  0  0  0  0  0  0  0
  149.0063  132.5839  152.3926 H   0  0  0  0  0  0  0  0  0  0  0  0
  147.5672  131.8756  153.0986 H   0  0  0  0  0  0  0  0  0  0  0  0
  147.6343  133.8971  150.7799 H   0  0  0  0  0  0  0  0  0  0  0  0
  147.2568  132.1894  150.6531 H   0  0  0  0  0  0  0  0  0  0  0  0
  146.0544  135.3436  151.9235 H   0  0  0  0  0  0  0  0  0  0  0  0
  144.6094  134.6297  152.6085 H   0  0  0  0  0  0  0  0  0  0  0  0
  145.9291  133.4338  154.3314 H   0  0  0  0  0  0  0  0  0  0  0  0
  146.3130  135.1469  154.3847 H   0  0  0  0  0  0  0  0  0  0  0  0
  148.2204  134.7284  153.0675 H   0  0  0  0  0  0  0  0  0  0  0  0
  1  2  1  0  0  0  0
  1 21  1  0  0  0  0
  1 22  1  0  0  0  0
  1 23  1  0  0  0  0
  2  7  1  0  0  0  0
  2  3  2  0  0  0  0
  3  4  1  0  0  0  0
  4  5  1  0  0  0  0
  5  6  1  0  0  0  0
  5  7  2  0  0  0  0
  6 24  1  0  0  0  0
  6 25  1  0  0  0  0
  6 26  1  0  0  0  0
  7  8  1  0  0  0  0
  8  9  1  0  0  0  0
  8 27  1  0  0  0  0
  8 28  1  0  0  0  0
  9 10  2  0  0  0  0
  9 11  1  0  0  0  0
 11 12  1  0  0  0  0
 11 29  1  0  0  0  0
 12 13  1  0  0  0  0
 12 14  1  0  0  0  0
 12 30  1  0  0  0  0
 13 31  1  0  0  0  0
 13 32  1  0  0  0  0
 13 33  1  0  0  0  0
 14 15  1  0  0  0  0
 14 34  1  0  0  0  0
 14 35  1  0  0  0  0
 15 20  1  0  0  0  0
 15 16  1  0  0  0  0
 15 44  1  0  0  0  0
 16 17  1  0  0  0  0
 16 36  1  0  0  0  0
 16 37  1  0  0  0  0
 17 18  1  0  0  0  0
 17 38  1  0  0  0  0
 17 39  1  0  0  0  0
 18 19  1  0  0  0  0
 19 20  1  0  0  0  0
 19 40  1  0  0  0  0
 19 41  1  0  0  0  0
 20 42  1  0  0  0  0
 20 43  1  0  0  0  0
M  CHG  1  15   1
M  END
> <s_m_source_file>
AV-unprocessed.smi

> <i_m_source_file_index>
1436

> <i_lp_mmshare_version>
43012

> <i_f3d_flags>
0

> <s_epik_input>
W0NIM11jMW5vYyhbQ0gzXSljMVtDSDJdQyg9TylbTkhdW0NASF0oW0NIM10pW0NIMl1OMltDSDJdW0NIMl1PW0NIMl1bQ0gyXTI=

> <s_epik_cmdline>
J2VwaWtfcHl0aG9uJywgJy1waCcsICc3LjAnLCAnLXRuJywgJzgnLCAnLW1hJywgJzIwMCcsICctbWV0YWxfYmluZGluZycsICctaW1hZScsICc8aW5maWxlLm1hZT4nLCAnLW9tYWUnLCAnPG91dGZpbGUubWFlPic=

> <r_epik_Ionization_Penalty>
0.663207

> <r_epik_Ionization_Penalty_Charging>
0.663207

> <r_epik_Ionization_Penalty_Neutral>
1.07515e-07

> <r_epik_State_Penalty>
0.682743

> <r_epik_Charging_Adjusted_Penalty>
1.34595

> <i_epik_Tot_Q>
1

> <i_epik_Tot_abs_Q>
1

> <r_epik_Metal_State_Penalty>
0.682743

> <b_epik_Metal_Only>
0

> <s_lp_Force_Field>
OPLS_2005

> <r_lp_Energy>
13.3676

> <b_lp_Chiralities_Consistent>
1

> <s_lp_Variant>
AV-unprocessed.smi:1436-4

> <Gold.Version>
5.8.1

> <Gold.Id.Protein>
6NUR|6NUR_protein|mol2

> <Gold.PLP.Fitness>
37.1390

> <Gold.PLP.PLP>
-28.8547

> <Gold.PLP.part.hbond>
-4.5373

> <Gold.PLP.part.metal>
0.0000

> <Gold.PLP.part.buried>
0.0577

> <Gold.PLP.part.nonpolar>
-23.6041

> <Gold.PLP.part.repulsive>
0.1729

> <Gold.PLP.ligand.clash>
0.0000

> <Gold.PLP.ligand.torsion>
1.4198

> <Gold.PLP.Chemscore.Hbond>
3.6953

> <Gold.PLP.Chemscore.CHOScore>
0.0000

> <Gold.PLP.Chemscore.Metal>
0.0000

> <Gold.Chemscore.Hbonds>
donor molecule, donor type, donor heavy atom, donor atom, acceptor molecule, acceptor atom, score
      L1  H    11    29       P1  7948  0.68
      L1  H    15    44       P1  7948  2.00
      P1  H  7997  8010       L1     4  0.85

> <Gold.PLP.Chemscore.Internal.Correction>
0.0382

> <Gold.Rescore>
     Score         DG    S(hbond)    S(metal)    S(lipo)     H(rot)  DE(clash)    DE(int)     intcor
     13.55     -16.23       2.25        0.00      66.80       1.79       0.07       2.60       ----

> <Gold.Chemscore.Fitness>
13.5512

> <Gold.Chemscore.DG>
-16.2305

> <Gold.Chemscore.ZeroCoef>
-5.4800

> <Gold.Chemscore.Hbond>
2.2536

> <Gold.Chemscore.Metal>
0.0000

> <Gold.Chemscore.Lipo>
66.7966

> <Gold.Chemscore.Internal_Hbond>
0.0000

> <Gold.Chemscore.DEClash>
0.0744

> <Gold.Chemscore.DEInternal>
2.6049

> <Gold.Chemscore.Rot>
1.7936

> <Gold.Chemscore.Internal.Correction>
   9.000000E+99

> <Gold.Chemscore.Hbonds>
donor molecule, donor type, donor heavy atom, donor atom, acceptor molecule, acceptor atom, score
      L1  H    11    29       P1  7948  0.15
      L1  H    15    44       P1  7948  0.70
      P1  H  7997  8010       L1     4  0.14

> <Gold.Chemscore.Hbond.Weighted>
-7.5269

> <Gold.Chemscore.Metal.Weighted>
-0.0000

> <Gold.Chemscore.Lipo.Weighted>
-7.8152

> <Gold.Chemscore.Internal_Hbond.Weighted>
0.0000

> <Gold.Chemscore.DEClash.Weighted>
0.0744

> <Gold.Chemscore.DEInternal.Weighted>
2.6049

> <Gold.Chemscore.Rot.Weighted>
4.5916

> <Gold.Chemscore.Internal.Correction.Weighted>
   9.000000E+99

> <Gold.Protein.RotatedTorsions>
[ 6907 6896 6895 6894 ] final -116.25 input  -60.11 | X-H torsion
[ 7974 7965 7964 7962 ] final -103.00 input  175.53 | X-H torsion
[ 8008 7997 7996 7995 ] final  101.37 input   59.86 | X-H torsion
[ 10167 10162 10161 10158 ] final  174.09 input  -65.29 | X-H torsion
[ 10718 10713 10712 10709 ] final   -5.11 input   66.30 | X-H torsion
[ 10763 10752 10751 10750 ] final -176.22 input  -60.55 | X-H torsion
[ 11005 11000 10999 10996 ] final -110.77 input  -57.11 | X-H torsion

> <Gold.Protein.ActiveResidues>
 VAL166  LYS551  ARG553  GLY616  TRP617  ASP618  TYR619  PRO620  LYS621  CYS622 
 ASP623  PHE694  ASN695  SER759  ASP760  ASP761  ALA762  ILE779  LEU786  VAL792 
 PHE793  MET794  SER795  GLU796  ALA797  LYS798  CYS799  TRP800  GLU811  SER814 

> <Gold.Protein.RotatedAtoms>
  150.8041  133.8544  159.3214 H   0  0  0  0  0  0  0  0  0  0  0  0  # atno 6907 bound_to 6896
  151.6348  135.1017  160.0138 H   0  0  0  0  0  0  0  0  0  0  0  0  # atno 6908 bound_to 6896
  152.4130  133.6954  159.6449 H   0  0  0  0  0  0  0  0  0  0  0  0  # atno 6909 bound_to 6896
  145.2616  140.9271  143.3038 H   0  0  0  0  0  0  0  0  0  0  0  0  # atno 7974 bound_to 7965
  156.1293  140.3198  155.8325 H   0  0  0  0  0  0  0  0  0  0  0  0  # atno 8008 bound_to 7997
  155.4361  140.0522  157.3031 H   0  0  0  0  0  0  0  0  0  0  0  0  # atno 8009 bound_to 7997
  154.4887  140.2083  155.9610 H   0  0  0  0  0  0  0  0  0  0  0  0  # atno 8010 bound_to 7997
  139.5130  144.3187  152.0223 H   0  0  0  0  0  0  0  0  0  0  0  0  # atno 10167 bound_to 10162
  156.7514  130.5241  149.5803 H   0  0  0  0  0  0  0  0  0  0  0  0  # atno 10718 bound_to 10713
  154.5750  135.2831  155.0789 H   0  0  0  0  0  0  0  0  0  0  0  0  # atno 10763 bound_to 10752
  154.2147  135.6402  153.5130 H   0  0  0  0  0  0  0  0  0  0  0  0  # atno 10764 bound_to 10752
  153.0070  135.5500  154.6386 H   0  0  0  0  0  0  0  0  0  0  0  0  # atno 10765 bound_to 10752
  141.0773  133.9280  157.2363 H   0  0  0  0  0  0  0  0  0  0  0  0  # atno 11005 bound_to 11000
  144.9414  139.4185  143.6447 LP  0  0  0  0  0  0  0  0  0  0  0  0  # atno 17320 bound_to 7965
  146.3273  139.8375  142.8896 LP  0  0  0  0  0  0  0  0  0  0  0  0  # atno 17321 bound_to 7965
  140.2629  144.4047  150.6179 LP  0  0  0  0  0  0  0  0  0  0  0  0  # atno 17342 bound_to 10162
  140.6144  143.2171  151.6821 LP  0  0  0  0  0  0  0  0  0  0  0  0  # atno 17343 bound_to 10162
  156.1398  130.6237  151.0452 LP  0  0  0  0  0  0  0  0  0  0  0  0  # atno 17370 bound_to 10713
  157.6775  131.0846  150.7456 LP  0  0  0  0  0  0  0  0  0  0  0  0  # atno 17371 bound_to 10713
  139.9585  135.0160  156.9196 LP  0  0  0  0  0  0  0  0  0  0  0  0  # atno 17394 bound_to 11000
  140.5545  134.0594  155.7379 LP  0  0  0  0  0  0  0  0  0  0  0  0  # atno 17395 bound_to 11000

$$$$
