AV-unprocessed.smi:1668|AV-procd|sdf|6682|dock5
  -GOLD-   22720 7403D 1   1.00000     0.00000
 Structure written by MMmdl.
 44 46  0  0  0  0  0  0  0  0  1 V2000
  146.3280  142.1293  153.8095 C   0  0  0  0  0  0  0  0  0  0  0  0
  146.9409  142.1061  155.0904 O   0  0  0  0  0  0  0  0  0  0  0  0
  148.1500  141.4569  155.2193 C   0  0  0  0  0  0  0  0  0  0  0  0
  148.7716  140.7185  154.1852 C   0  0  0  0  0  0  0  0  0  0  0  0
  150.0072  140.0830  154.4063 C   0  0  0  0  0  0  0  0  0  0  0  0
  150.6566  140.1721  155.6628 C   0  0  0  0  0  0  0  0  0  0  0  0
  151.8637  139.5614  155.9360 O   0  0  0  0  0  0  0  0  0  0  0  0
  152.4952  138.8147  154.9068 C   0  0  0  0  0  0  0  0  0  0  0  0
  150.0413  140.9181  156.6980 C   0  0  0  0  0  0  0  0  0  0  0  0
  150.7039  141.0268  158.0698 C   0  0  1  0  0  0  0  0  0  0  0  0
  150.6840  139.7945  158.7654 O   0  0  0  0  0  0  0  0  0  0  0  0
  152.1673  141.4929  157.9340 C   0  0  0  0  0  0  0  0  0  0  0  0
  152.8838  141.4142  159.2057 N   0  0  0  0  0  0  0  0  0  0  0  0
  153.7980  140.4800  159.5597 C   0  0  0  0  0  0  0  0  0  0  0  0
  154.1901  139.5490  158.8566 O   0  0  0  0  0  0  0  0  0  0  0  0
  154.2009  140.7468  160.8244 N   0  0  0  0  0  0  0  0  0  0  0  0
  155.1732  139.9980  161.6118 C   0  0  0  0  0  0  0  0  0  0  0  0
  153.5185  141.8749  161.2964 C   0  0  0  0  0  0  0  0  0  0  0  0
  153.5758  142.5372  162.5346 C   0  0  0  0  0  0  0  0  0  0  0  0
  152.7429  143.6687  162.7008 C   0  0  0  0  0  0  0  0  0  0  0  0
  151.8906  144.1045  161.6528 C   0  0  0  0  0  0  0  0  0  0  0  0
  151.8537  143.4185  160.4163 C   0  0  0  0  0  0  0  0  0  0  0  0
  152.6906  142.2973  160.2780 C   0  0  0  0  0  0  0  0  0  0  0  0
  148.7945  141.5427  156.4678 C   0  0  0  0  0  0  0  0  0  0  0  0
  145.3921  142.6846  153.8688 H   0  0  0  0  0  0  0  0  0  0  0  0
  146.0927  141.1228  153.4609 H   0  0  0  0  0  0  0  0  0  0  0  0
  146.9606  142.6282  153.0741 H   0  0  0  0  0  0  0  0  0  0  0  0
  148.3183  140.6200  153.2106 H   0  0  0  0  0  0  0  0  0  0  0  0
  150.4370  139.5269  153.5874 H   0  0  0  0  0  0  0  0  0  0  0  0
  153.4290  138.4009  155.2874 H   0  0  0  0  0  0  0  0  0  0  0  0
  152.7386  139.4434  154.0493 H   0  0  0  0  0  0  0  0  0  0  0  0
  151.8736  137.9801  154.5803 H   0  0  0  0  0  0  0  0  0  0  0  0
  150.1436  141.7349  158.6810 H   0  0  0  0  0  0  0  0  0  0  0  0
  149.8917  139.3338  158.5351 H   0  0  0  0  0  0  0  0  0  0  0  0
  152.6852  140.9388  157.1494 H   0  0  0  0  0  0  0  0  0  0  0  0
  152.1895  142.5372  157.6193 H   0  0  0  0  0  0  0  0  0  0  0  0
  155.9099  140.6736  162.0469 H   0  0  0  0  0  0  0  0  0  0  0  0
  155.7088  139.2635  161.0091 H   0  0  0  0  0  0  0  0  0  0  0  0
  154.6721  139.4697  162.4231 H   0  0  0  0  0  0  0  0  0  0  0  0
  154.2268  142.1990  163.3274 H   0  0  0  0  0  0  0  0  0  0  0  0
  152.7560  144.2076  163.6366 H   0  0  0  0  0  0  0  0  0  0  0  0
  151.2630  144.9709  161.8001 H   0  0  0  0  0  0  0  0  0  0  0  0
  151.2089  143.7470  159.6154 H   0  0  0  0  0  0  0  0  0  0  0  0
  148.3160  142.0983  157.2610 H   0  0  0  0  0  0  0  0  0  0  0  0
  1  2  1  0  0  0  0
  1 25  1  0  0  0  0
  1 26  1  0  0  0  0
  1 27  1  0  0  0  0
  2  3  1  0  0  0  0
  3 24  1  0  0  0  0
  3  4  2  0  0  0  0
  4  5  1  0  0  0  0
  4 28  1  0  0  0  0
  5  6  2  0  0  0  0
  5 29  1  0  0  0  0
  6  7  1  0  0  0  0
  6  9  1  0  0  0  0
  7  8  1  0  0  0  0
  8 30  1  0  0  0  0
  8 31  1  0  0  0  0
  8 32  1  0  0  0  0
  9 10  1  0  0  0  0
  9 24  2  0  0  0  0
 10 11  1  0  0  0  0
 10 12  1  0  0  0  0
 10 33  1  0  0  0  0
 11 34  1  0  0  0  0
 12 13  1  0  0  0  0
 12 35  1  0  0  0  0
 12 36  1  0  0  0  0
 13 23  1  0  0  0  0
 13 14  1  0  0  0  0
 14 15  2  0  0  0  0
 14 16  1  0  0  0  0
 16 17  1  0  0  0  0
 16 18  1  0  0  0  0
 17 37  1  0  0  0  0
 17 38  1  0  0  0  0
 17 39  1  0  0  0  0
 18 23  2  0  0  0  0
 18 19  1  0  0  0  0
 19 20  2  0  0  0  0
 19 40  1  0  0  0  0
 20 21  1  0  0  0  0
 20 41  1  0  0  0  0
 21 22  2  0  0  0  0
 21 42  1  0  0  0  0
 22 23  1  0  0  0  0
 22 43  1  0  0  0  0
 24 44  1  0  0  0  0
M  END
> <s_m_source_file>
AV-unprocessed.smi

> <i_m_source_file_index>
1668

> <i_lp_mmshare_version>
43012

> <i_f3d_flags>
0

> <s_epik_input>
W0NIM11PYzFbY0hdW2NIXWMoT1tDSDNdKWMoW2NIXTEpW0NASF0oW09IXSlbQ0gyXW4oYyg9TyluMltDSDNdKWMoYzIzKVtjSF1bY0hdW2NIXVtjSF0z

> <s_epik_cmdline>
J2VwaWtfcHl0aG9uJywgJy1waCcsICc3LjAnLCAnLXRuJywgJzgnLCAnLW1hJywgJzIwMCcsICctbWV0YWxfYmluZGluZycsICctaW1hZScsICc8aW5maWxlLm1hZT4nLCAnLW9tYWUnLCAnPG91dGZpbGUubWFlPic=

> <r_lp_tautomer_probability>
1

> <r_epik_Ionization_Penalty>
1.34538e-06

> <r_epik_Ionization_Penalty_Charging>
1.76928e-09

> <r_epik_Ionization_Penalty_Neutral>
1.34362e-06

> <r_epik_State_Penalty>
-0

> <r_epik_Charging_Adjusted_Penalty>
1.76928e-09

> <i_epik_Tot_Q>
0

> <i_epik_Tot_abs_Q>
0

> <r_epik_Metal_State_Penalty>
-0

> <b_epik_Metal_Only>
0

> <s_lp_Force_Field>
OPLS_2005

> <r_lp_Energy>
50.494

> <b_lp_Chiralities_Consistent>
1

> <s_lp_Variant>
AV-unprocessed.smi:1668-2

> <Gold.Version>
5.8.1

> <Gold.Id.Protein>
6NUR|6NUR_protein|mol2

> <Gold.PLP.Fitness>
55.7759

> <Gold.PLP.PLP>
-53.5982

> <Gold.PLP.part.hbond>
-1.0000

> <Gold.PLP.part.metal>
0.0000

> <Gold.PLP.part.buried>
-3.3826

> <Gold.PLP.part.nonpolar>
-48.6716

> <Gold.PLP.part.repulsive>
0.1742

> <Gold.PLP.ligand.clash>
0.0000

> <Gold.PLP.ligand.torsion>
0.4230

> <Gold.PLP.Chemscore.Hbond>
1.0000

> <Gold.PLP.Chemscore.CHOScore>
0.0000

> <Gold.PLP.Chemscore.Metal>
0.0000

> <Gold.Chemscore.Hbonds>
donor molecule, donor type, donor heavy atom, donor atom, acceptor molecule, acceptor atom, score
      P1  H  7997  8009       L1    15  1.00

> <Gold.PLP.Chemscore.Internal.Correction>
0.0238

> <Gold.Rescore>
     Score         DG    S(hbond)    S(metal)    S(lipo)     H(rot)  DE(clash)    DE(int)     intcor
     16.90     -19.26       0.97        0.00     139.28       2.24       0.65       1.70       ----

> <Gold.Chemscore.Fitness>
16.9003

> <Gold.Chemscore.DG>
-19.2563

> <Gold.Chemscore.ZeroCoef>
-5.4800

> <Gold.Chemscore.Hbond>
0.9661

> <Gold.Chemscore.Metal>
0.0000

> <Gold.Chemscore.Lipo>
139.2828

> <Gold.Chemscore.Internal_Hbond>
0.0000

> <Gold.Chemscore.DEClash>
0.6514

> <Gold.Chemscore.DEInternal>
1.7046

> <Gold.Chemscore.Rot>
2.2448

> <Gold.Chemscore.Internal.Correction>
   9.000000E+99

> <Gold.Chemscore.Hbonds>
donor molecule, donor type, donor heavy atom, donor atom, acceptor molecule, acceptor atom, score
      P1  H  7997  8009       L1    15  0.92

> <Gold.Chemscore.Hbond.Weighted>
-3.2269

> <Gold.Chemscore.Metal.Weighted>
-0.0000

> <Gold.Chemscore.Lipo.Weighted>
-16.2961

> <Gold.Chemscore.Internal_Hbond.Weighted>
0.0000

> <Gold.Chemscore.DEClash.Weighted>
0.6514

> <Gold.Chemscore.DEInternal.Weighted>
1.7046

> <Gold.Chemscore.Rot.Weighted>
5.7467

> <Gold.Chemscore.Internal.Correction.Weighted>
   9.000000E+99

> <Gold.Protein.RotatedTorsions>
[ 6907 6896 6895 6894 ] final  -80.90 input  -60.11 | X-H torsion
[ 7974 7965 7964 7962 ] final  -95.37 input  175.53 | X-H torsion
[ 8008 7997 7996 7995 ] final  120.46 input   59.86 | X-H torsion
[ 10167 10162 10161 10158 ] final  -28.73 input  -65.29 | X-H torsion
[ 10718 10713 10712 10709 ] final  -55.14 input   66.30 | X-H torsion
[ 10763 10752 10751 10750 ] final  159.91 input  -60.55 | X-H torsion
[ 11005 11000 10999 10996 ] final   14.07 input  -57.11 | X-H torsion

> <Gold.Protein.ActiveResidues>
 VAL166  LYS551  ARG553  GLY616  TRP617  ASP618  TYR619  PRO620  LYS621  CYS622 
 ASP623  PHE694  ASN695  SER759  ASP760  ASP761  ALA762  ILE779  LEU786  VAL792 
 PHE793  MET794  SER795  GLU796  ALA797  LYS798  CYS799  TRP800  GLU811  SER814 

> <Gold.Protein.RotatedAtoms>
  150.6921  134.3899  159.5071 H   0  0  0  0  0  0  0  0  0  0  0  0  # atno 6907 bound_to 6896
  152.1689  134.8848  160.0545 H   0  0  0  0  0  0  0  0  0  0  0  0  # atno 6908 bound_to 6896
  151.9882  133.3746  159.4171 H   0  0  0  0  0  0  0  0  0  0  0  0  # atno 6909 bound_to 6896
  145.3609  140.9491  143.2501 H   0  0  0  0  0  0  0  0  0  0  0  0  # atno 7974 bound_to 7965
  156.2643  140.2830  156.1154 H   0  0  0  0  0  0  0  0  0  0  0  0  # atno 8008 bound_to 7997
  155.1213  140.0392  157.2768 H   0  0  0  0  0  0  0  0  0  0  0  0  # atno 8009 bound_to 7997
  154.6668  140.2579  155.7055 H   0  0  0  0  0  0  0  0  0  0  0  0  # atno 8010 bound_to 7997
  140.7267  143.3986  151.1304 H   0  0  0  0  0  0  0  0  0  0  0  0  # atno 10167 bound_to 10162
  156.1393  130.4155  150.0131 H   0  0  0  0  0  0  0  0  0  0  0  0  # atno 10718 bound_to 10713
  154.2391  135.2775  155.2860 H   0  0  0  0  0  0  0  0  0  0  0  0  # atno 10763 bound_to 10752
  154.5560  135.5661  153.6967 H   0  0  0  0  0  0  0  0  0  0  0  0  # atno 10764 bound_to 10752
  153.0003  135.6286  154.2535 H   0  0  0  0  0  0  0  0  0  0  0  0  # atno 10765 bound_to 10752
  140.4736  134.1006  155.7737 H   0  0  0  0  0  0  0  0  0  0  0  0  # atno 11005 bound_to 11000
  144.8647  139.5126  143.6796 LP  0  0  0  0  0  0  0  0  0  0  0  0  # atno 17320 bound_to 7965
  146.2927  139.7187  142.9149 LP  0  0  0  0  0  0  0  0  0  0  0  0  # atno 17321 bound_to 7965
  139.7602  143.8646  152.3098 LP  0  0  0  0  0  0  0  0  0  0  0  0  # atno 17342 bound_to 10162
  139.8530  144.7155  150.9191 LP  0  0  0  0  0  0  0  0  0  0  0  0  # atno 17343 bound_to 10162
  156.8021  130.9294  151.3646 LP  0  0  0  0  0  0  0  0  0  0  0  0  # atno 17370 bound_to 10713
  157.6561  130.8926  149.9732 LP  0  0  0  0  0  0  0  0  0  0  0  0  # atno 17371 bound_to 10713
  141.1565  133.8873  157.1963 LP  0  0  0  0  0  0  0  0  0  0  0  0  # atno 17394 bound_to 11000
  139.9870  135.0078  156.9885 LP  0  0  0  0  0  0  0  0  0  0  0  0  # atno 17395 bound_to 11000

$$$$
