AV-unprocessed.smi:2811|AV-procd|sdf|10832|dock3
  -GOLD-   2272015273D 1   1.00000     0.00000
 Structure written by MMmdl.
 38 40  0  0  0  0  0  0  0  0  1 V2000
  152.0204  145.8915  160.1595 C   0  0  0  0  0  0  0  0  0  0  0  0
  152.0103  144.5199  159.5182 C   0  0  0  0  0  0  0  0  0  0  0  0
  152.8616  143.5012  159.9860 C   0  0  0  0  0  0  0  0  0  0  0  0
  152.8047  142.2456  159.3515 C   0  0  0  0  0  0  0  0  0  0  0  0
  153.6888  141.1032  159.8056 C   0  0  0  0  0  0  0  0  0  0  0  0
  151.9722  141.9777  158.3231 N   0  0  0  0  0  0  0  0  0  0  0  0
  151.1453  142.9497  157.8612 C   0  0  0  0  0  0  0  0  0  0  0  0
  150.2243  142.7858  156.7842 N   0  0  0  0  0  0  0  0  0  0  0  0
  150.0548  141.7838  155.8945 C   0  0  0  0  0  0  0  0  0  0  0  0
  150.7652  140.7803  155.9259 O   0  0  0  0  0  0  0  0  0  0  0  0
  149.0760  141.9485  154.9912 N   0  0  0  0  0  0  0  0  0  0  0  0
  148.7158  140.9939  153.9494 C   0  0  1  0  0  0  0  0  0  0  0  0
  148.8280  139.5372  154.4162 C   0  0  0  0  0  0  0  0  0  0  0  0
  147.3954  139.0283  154.2083 C   0  0  2  0  0  0  0  0  0  0  0  0
  147.0357  138.9044  152.7203 C   0  0  0  0  0  0  0  0  0  0  0  0
  146.8853  140.3695  152.3093 C   0  0  0  0  0  0  0  0  0  0  0  0
  147.2170  141.0945  153.6200 C   0  0  1  0  0  0  0  0  0  0  0  0
  146.6617  140.1879  154.5587 O   0  0  0  0  0  0  0  0  0  0  0  0
  151.1425  144.2373  158.4438 C   0  0  0  0  0  0  0  0  0  0  0  0
  152.9730  146.0850  160.6536 H   0  0  0  0  0  0  0  0  0  0  0  0
  151.2264  145.9643  160.9028 H   0  0  0  0  0  0  0  0  0  0  0  0
  151.8636  146.6685  159.4107 H   0  0  0  0  0  0  0  0  0  0  0  0
  153.5383  143.6775  160.8094 H   0  0  0  0  0  0  0  0  0  0  0  0
  154.5296  141.4689  160.3952 H   0  0  0  0  0  0  0  0  0  0  0  0
  154.0881  140.5600  158.9483 H   0  0  0  0  0  0  0  0  0  0  0  0
  153.1173  140.4061  160.4185 H   0  0  0  0  0  0  0  0  0  0  0  0
  149.5882  143.5599  156.6620 H   0  0  0  0  0  0  0  0  0  0  0  0
  148.5349  142.8009  155.0350 H   0  0  0  0  0  0  0  0  0  0  0  0
  149.3164  141.1809  153.0573 H   0  0  0  0  0  0  0  0  0  0  0  0
  149.5586  138.9665  153.8419 H   0  0  0  0  0  0  0  0  0  0  0  0
  149.1027  139.4720  155.4702 H   0  0  0  0  0  0  0  0  0  0  0  0
  147.1497  138.1454  154.7989 H   0  0  0  0  0  0  0  0  0  0  0  0
  147.8047  138.3808  152.1509 H   0  0  0  0  0  0  0  0  0  0  0  0
  146.0922  138.3731  152.5908 H   0  0  0  0  0  0  0  0  0  0  0  0
  147.5499  140.6538  151.4927 H   0  0  0  0  0  0  0  0  0  0  0  0
  145.8592  140.5766  152.0031 H   0  0  0  0  0  0  0  0  0  0  0  0
  146.8093  142.1048  153.6749 H   0  0  0  0  0  0  0  0  0  0  0  0
  150.4790  145.0048  158.0715 H   0  0  0  0  0  0  0  0  0  0  0  0
  1  2  1  0  0  0  0
  1 20  1  0  0  0  0
  1 21  1  0  0  0  0
  1 22  1  0  0  0  0
  2 19  1  0  0  0  0
  2  3  2  0  0  0  0
  3  4  1  0  0  0  0
  3 23  1  0  0  0  0
  4  5  1  0  0  0  0
  4  6  2  0  0  0  0
  5 24  1  0  0  0  0
  5 25  1  0  0  0  0
  5 26  1  0  0  0  0
  6  7  1  0  0  0  0
  7  8  1  0  0  0  0
  7 19  2  0  0  0  0
  8  9  1  0  0  0  0
  8 27  1  0  0  0  0
  9 10  2  0  0  0  0
  9 11  1  0  0  0  0
 11 12  1  0  0  0  0
 11 28  1  0  0  0  0
 12 17  1  0  0  0  0
 12 13  1  0  0  0  0
 12 29  1  0  0  0  0
 13 14  1  0  0  0  0
 13 30  1  0  0  0  0
 13 31  1  0  0  0  0
 14 18  1  0  0  0  0
 14 15  1  0  0  0  0
 14 32  1  0  0  0  0
 15 16  1  0  0  0  0
 15 33  1  0  0  0  0
 15 34  1  0  0  0  0
 16 17  1  0  0  0  0
 16 35  1  0  0  0  0
 16 36  1  0  0  0  0
 17 18  1  0  0  0  0
 17 37  1  0  0  0  0
 19 38  1  0  0  0  0
M  END
> <s_m_source_file>
AV-unprocessed.smi

> <i_m_source_file_index>
2811

> <i_lp_mmshare_version>
43012

> <i_f3d_flags>
0

> <s_epik_input>
W0NIM11jMVtjSF1jKFtDSDNdKW5jKFtjSF0xKVtOSF1DKD1PKVtOSF1bQ0BIXShbQ0gyXVtDQEBIXTIzKVtDQEBIXShPMylbQ0gyXVtDSDJdMg==

> <s_epik_cmdline>
J2VwaWtfcHl0aG9uJywgJy1waCcsICc3LjAnLCAnLXRuJywgJzgnLCAnLW1hJywgJzIwMCcsICctbWV0YWxfYmluZGluZycsICctaW1hZScsICc8aW5maWxlLm1hZT4nLCAnLW9tYWUnLCAnPG91dGZpbGUubWFlPic=

> <r_lp_tautomer_probability>
1

> <r_epik_Ionization_Penalty>
0.000281548

> <r_epik_Ionization_Penalty_Charging>
0

> <r_epik_Ionization_Penalty_Neutral>
0.000281548

> <r_epik_State_Penalty>
-0

> <r_epik_Charging_Adjusted_Penalty>
0

> <i_epik_Tot_Q>
0

> <i_epik_Tot_abs_Q>
0

> <r_epik_Metal_State_Penalty>
-0

> <b_epik_Metal_Only>
0

> <s_lp_Force_Field>
OPLS_2005

> <r_lp_Energy>
40.4481

> <b_lp_Chiralities_Consistent>
1

> <s_lp_Variant>
AV-unprocessed.smi:2811-4

> <Gold.Version>
5.8.1

> <Gold.Id.Protein>
6NUR|6NUR_protein|mol2

> <Gold.PLP.Fitness>
45.7131

> <Gold.PLP.PLP>
-41.1704

> <Gold.PLP.part.hbond>
-2.0000

> <Gold.PLP.part.metal>
0.0000

> <Gold.PLP.part.buried>
-0.4715

> <Gold.PLP.part.nonpolar>
-38.2717

> <Gold.PLP.part.repulsive>
0.3736

> <Gold.PLP.ligand.clash>
0.0000

> <Gold.PLP.ligand.torsion>
0.3700

> <Gold.PLP.Chemscore.Hbond>
1.7520

> <Gold.PLP.Chemscore.CHOScore>
0.0000

> <Gold.PLP.Chemscore.Metal>
0.0000

> <Gold.Chemscore.Hbonds>
donor molecule, donor type, donor heavy atom, donor atom, acceptor molecule, acceptor atom, score
      L1  H     8    27       P1  8028  1.00
      L1  H    11    28       P1  8028  0.74

> <Gold.PLP.Chemscore.Internal.Correction>
0.0268

> <Gold.Rescore>
     Score         DG    S(hbond)    S(metal)    S(lipo)     H(rot)  DE(clash)    DE(int)     intcor
     18.06     -21.79       1.85        0.00     108.51       1.00       0.69       3.04       ----

> <Gold.Chemscore.Fitness>
18.0643

> <Gold.Chemscore.DG>
-21.7945

> <Gold.Chemscore.ZeroCoef>
-5.4800

> <Gold.Chemscore.Hbond>
1.8499

> <Gold.Chemscore.Metal>
0.0000

> <Gold.Chemscore.Lipo>
108.5110

> <Gold.Chemscore.Internal_Hbond>
0.0000

> <Gold.Chemscore.DEClash>
0.6905

> <Gold.Chemscore.DEInternal>
3.0396

> <Gold.Chemscore.Rot>
1.0000

> <Gold.Chemscore.Internal.Correction>
   9.000000E+99

> <Gold.Chemscore.Hbonds>
donor molecule, donor type, donor heavy atom, donor atom, acceptor molecule, acceptor atom, score
      L1  H     8    27       P1  8028  0.94
      L1  H    11    28       P1  8028  0.67

> <Gold.Chemscore.Hbond.Weighted>
-6.1787

> <Gold.Chemscore.Metal.Weighted>
-0.0000

> <Gold.Chemscore.Lipo.Weighted>
-12.6958

> <Gold.Chemscore.Internal_Hbond.Weighted>
0.0000

> <Gold.Chemscore.DEClash.Weighted>
0.6905

> <Gold.Chemscore.DEInternal.Weighted>
3.0396

> <Gold.Chemscore.Rot.Weighted>
2.5600

> <Gold.Chemscore.Internal.Correction.Weighted>
   9.000000E+99

> <Gold.Protein.RotatedTorsions>
[ 6907 6896 6895 6894 ] final  164.04 input  -60.11 | X-H torsion
[ 7974 7965 7964 7962 ] final -119.35 input  175.53 | X-H torsion
[ 8008 7997 7996 7995 ] final  171.36 input   59.86 | X-H torsion
[ 10167 10162 10161 10158 ] final -120.55 input  -65.29 | X-H torsion
[ 10718 10713 10712 10709 ] final   72.57 input   66.30 | X-H torsion
[ 10763 10752 10751 10750 ] final  171.37 input  -60.55 | X-H torsion
[ 11005 11000 10999 10996 ] final   90.76 input  -57.11 | X-H torsion

> <Gold.Protein.ActiveResidues>
 VAL166  LYS551  ARG553  GLY616  TRP617  ASP618  TYR619  PRO620  LYS621  CYS622 
 ASP623  PHE694  ASN695  SER759  ASP760  ASP761  ALA762  ILE779  LEU786  VAL792 
 PHE793  MET794  SER795  GLU796  ALA797  LYS798  CYS799  TRP800  GLU811  SER814 

> <Gold.Protein.RotatedAtoms>
  151.9159  133.3573  159.3879 H   0  0  0  0  0  0  0  0  0  0  0  0  # atno 6907 bound_to 6896
  150.7047  134.4684  159.5423 H   0  0  0  0  0  0  0  0  0  0  0  0  # atno 6908 bound_to 6896
  152.2299  134.8332  160.0526 H   0  0  0  0  0  0  0  0  0  0  0  0  # atno 6909 bound_to 6896
  145.0635  140.8307  143.4138 H   0  0  0  0  0  0  0  0  0  0  0  0  # atno 7974 bound_to 7965
  156.1278  140.1514  156.9110 H   0  0  0  0  0  0  0  0  0  0  0  0  # atno 8008 bound_to 7997
  154.4885  140.0858  156.7582 H   0  0  0  0  0  0  0  0  0  0  0  0  # atno 8009 bound_to 7997
  155.4311  140.3427  155.4282 H   0  0  0  0  0  0  0  0  0  0  0  0  # atno 8010 bound_to 7997
  140.0346  143.5214  152.2160 H   0  0  0  0  0  0  0  0  0  0  0  0  # atno 10167 bound_to 10162
  157.6507  130.9585  150.0947 H   0  0  0  0  0  0  0  0  0  0  0  0  # atno 10718 bound_to 10713
  154.4109  135.2756  155.2037 H   0  0  0  0  0  0  0  0  0  0  0  0  # atno 10763 bound_to 10752
  154.4024  135.6041  153.5908 H   0  0  0  0  0  0  0  0  0  0  0  0  # atno 10764 bound_to 10752
  152.9831  135.5929  154.4390 H   0  0  0  0  0  0  0  0  0  0  0  0  # atno 10765 bound_to 10752
  139.8850  134.8633  156.3330 H   0  0  0  0  0  0  0  0  0  0  0  0  # atno 11005 bound_to 11000
  145.1380  139.2590  143.5505 LP  0  0  0  0  0  0  0  0  0  0  0  0  # atno 17320 bound_to 7965
  146.3525  140.1049  142.8606 LP  0  0  0  0  0  0  0  0  0  0  0  0  # atno 17321 bound_to 7965
  139.6053  144.7594  151.3076 LP  0  0  0  0  0  0  0  0  0  0  0  0  # atno 17342 bound_to 10162
  140.7287  143.6928  150.7908 LP  0  0  0  0  0  0  0  0  0  0  0  0  # atno 17343 bound_to 10162
  156.1887  130.3653  149.8939 LP  0  0  0  0  0  0  0  0  0  0  0  0  # atno 17370 bound_to 10713
  156.6873  130.8882  151.3583 LP  0  0  0  0  0  0  0  0  0  0  0  0  # atno 17371 bound_to 10713
  140.9710  133.7327  156.0534 LP  0  0  0  0  0  0  0  0  0  0  0  0  # atno 17394 bound_to 11000
  140.7871  134.3660  157.5474 LP  0  0  0  0  0  0  0  0  0  0  0  0  # atno 17395 bound_to 11000

$$$$
