AV-unprocessed.smi:2224|AV-procd|sdf|8997|dock7
  -GOLD-   2272012203D 1   1.00000     0.00000
 Structure written by MMmdl.
 44 46  0  0  0  0  0  0  0  0  1 V2000
  151.8779  145.7428  160.1851 C   0  0  0  0  0  0  0  0  0  0  0  0
  152.1270  144.2799  159.8840 C   0  0  0  0  0  0  0  0  0  0  0  0
  152.9429  143.4981  160.7240 C   0  0  0  0  0  0  0  0  0  0  0  0
  153.1358  142.1434  160.3897 C   0  0  0  0  0  0  0  0  0  0  0  0
  153.9985  141.2443  161.2503 C   0  0  0  0  0  0  0  0  0  0  0  0
  152.5746  141.5649  159.3065 N   0  0  0  0  0  0  0  0  0  0  0  0
  151.7872  142.3080  158.4899 C   0  0  0  0  0  0  0  0  0  0  0  0
  151.1501  141.7948  157.3285 N   0  0  0  0  0  0  0  0  0  0  0  0
  151.4802  140.7047  156.6137 C   0  0  0  0  0  0  0  0  0  0  0  0
  152.4321  139.9593  156.8470 O   0  0  0  0  0  0  0  0  0  0  0  0
  150.6286  140.5140  155.5966 N   0  0  0  0  0  0  0  0  0  0  0  0
  150.7151  139.4053  154.6398 C   0  0  2  0  0  0  0  0  0  0  0  0
  149.4179  139.2005  153.8525 C   0  0  2  0  0  0  0  0  0  0  0  0
  148.2050  140.0105  153.5678 C   0  0  0  0  0  0  0  0  0  0  0  0
  147.1651  138.8711  153.7485 C   0  0  0  0  0  0  0  0  0  0  0  0
  147.8915  137.7531  154.3209 O   0  0  0  0  0  0  0  0  0  0  0  0
  148.9539  138.3637  155.0263 C   0  0  1  0  0  0  0  0  0  0  0  0
  150.4328  137.9674  155.2337 C   0  0  0  0  0  0  0  0  0  0  0  0
  150.9551  136.7597  154.4346 C   0  0  0  0  0  0  0  0  0  0  0  0
  150.8450  137.7141  156.6881 C   0  0  0  0  0  0  0  0  0  0  0  0
  151.5435  143.6751  158.7524 C   0  0  0  0  0  0  0  0  0  0  0  0
  152.3322  146.0357  161.1321 H   0  0  0  0  0  0  0  0  0  0  0  0
  150.8073  145.9393  160.2460 H   0  0  0  0  0  0  0  0  0  0  0  0
  152.2987  146.3671  159.3966 H   0  0  0  0  0  0  0  0  0  0  0  0
  153.4080  143.9248  161.6008 H   0  0  0  0  0  0  0  0  0  0  0  0
  154.5614  141.8220  161.9842 H   0  0  0  0  0  0  0  0  0  0  0  0
  154.7105  140.6936  160.6350 H   0  0  0  0  0  0  0  0  0  0  0  0
  153.3775  140.5252  161.7849 H   0  0  0  0  0  0  0  0  0  0  0  0
  150.3432  142.3118  157.0125 H   0  0  0  0  0  0  0  0  0  0  0  0
  149.8724  141.1707  155.4713 H   0  0  0  0  0  0  0  0  0  0  0  0
  151.5967  139.4431  153.9977 H   0  0  0  0  0  0  0  0  0  0  0  0
  149.6460  138.5986  152.9693 H   0  0  0  0  0  0  0  0  0  0  0  0
  148.0634  140.8134  154.2923 H   0  0  0  0  0  0  0  0  0  0  0  0
  148.1995  140.4289  152.5611 H   0  0  0  0  0  0  0  0  0  0  0  0
  146.3593  139.1827  154.4143 H   0  0  0  0  0  0  0  0  0  0  0  0
  146.7216  138.5695  152.7993 H   0  0  0  0  0  0  0  0  0  0  0  0
  148.5651  138.9489  155.8661 H   0  0  0  0  0  0  0  0  0  0  0  0
  150.4376  135.8440  154.7218 H   0  0  0  0  0  0  0  0  0  0  0  0
  152.0193  136.5995  154.6099 H   0  0  0  0  0  0  0  0  0  0  0  0
  150.8342  136.8646  153.3577 H   0  0  0  0  0  0  0  0  0  0  0  0
  150.5170  136.7330  157.0328 H   0  0  0  0  0  0  0  0  0  0  0  0
  150.4121  138.4461  157.3701 H   0  0  0  0  0  0  0  0  0  0  0  0
  151.9279  137.7612  156.8092 H   0  0  0  0  0  0  0  0  0  0  0  0
  150.9142  144.2569  158.0943 H   0  0  0  0  0  0  0  0  0  0  0  0
  1  2  1  0  0  0  0
  1 22  1  0  0  0  0
  1 23  1  0  0  0  0
  1 24  1  0  0  0  0
  2 21  1  0  0  0  0
  2  3  2  0  0  0  0
  3  4  1  0  0  0  0
  3 25  1  0  0  0  0
  4  5  1  0  0  0  0
  4  6  2  0  0  0  0
  5 26  1  0  0  0  0
  5 27  1  0  0  0  0
  5 28  1  0  0  0  0
  6  7  1  0  0  0  0
  7  8  1  0  0  0  0
  7 21  2  0  0  0  0
  8  9  1  0  0  0  0
  8 29  1  0  0  0  0
  9 10  2  0  0  0  0
  9 11  1  0  0  0  0
 11 12  1  0  0  0  0
 11 30  1  0  0  0  0
 12 18  1  0  0  0  0
 12 13  1  0  0  0  0
 12 31  1  0  0  0  0
 13 17  1  0  0  0  0
 13 14  1  0  0  0  0
 13 32  1  0  0  0  0
 14 15  1  0  0  0  0
 14 33  1  0  0  0  0
 14 34  1  0  0  0  0
 15 16  1  0  0  0  0
 15 35  1  0  0  0  0
 15 36  1  0  0  0  0
 16 17  1  0  0  0  0
 17 18  1  0  0  0  0
 17 37  1  0  0  0  0
 18 19  1  0  0  0  0
 18 20  1  0  0  0  0
 19 38  1  0  0  0  0
 19 39  1  0  0  0  0
 19 40  1  0  0  0  0
 20 41  1  0  0  0  0
 20 42  1  0  0  0  0
 20 43  1  0  0  0  0
 21 44  1  0  0  0  0
M  END
> <s_m_source_file>
AV-unprocessed.smi

> <i_m_source_file_index>
2224

> <i_lp_mmshare_version>
43012

> <i_f3d_flags>
0

> <s_epik_input>
W0NIM11jMVtjSF1jKFtDSDNdKW5jKFtjSF0xKVtOSF1DKD1PKVtOSF1bQ0BIXTJDKFtDSDNdKShbQ0gzXSlbQ0BIXShbQ0BASF0yMylPW0NIMl1bQ0gyXTM=

> <s_epik_cmdline>
J2VwaWtfcHl0aG9uJywgJy1waCcsICc3LjAnLCAnLXRuJywgJzgnLCAnLW1hJywgJzIwMCcsICctbWV0YWxfYmluZGluZycsICctaW1hZScsICc8aW5maWxlLm1hZT4nLCAnLW9tYWUnLCAnPG91dGZpbGUubWFlPic=

> <r_lp_tautomer_probability>
1

> <r_epik_Ionization_Penalty>
0.000276544

> <r_epik_Ionization_Penalty_Charging>
0

> <r_epik_Ionization_Penalty_Neutral>
0.000276544

> <r_epik_State_Penalty>
-0

> <r_epik_Charging_Adjusted_Penalty>
0

> <i_epik_Tot_Q>
0

> <i_epik_Tot_abs_Q>
0

> <r_epik_Metal_State_Penalty>
-0

> <b_epik_Metal_Only>
0

> <s_lp_Force_Field>
OPLS_2005

> <r_lp_Energy>
64.3879

> <b_lp_Chiralities_Consistent>
1

> <s_lp_Variant>
AV-unprocessed.smi:2224-7

> <Gold.Version>
5.8.1

> <Gold.Id.Protein>
6NUR|6NUR_protein|mol2

> <Gold.PLP.Fitness>
39.4693

> <Gold.PLP.PLP>
-36.6817

> <Gold.PLP.part.hbond>
-1.0000

> <Gold.PLP.part.metal>
0.0000

> <Gold.PLP.part.buried>
-3.0908

> <Gold.PLP.part.nonpolar>
-32.4605

> <Gold.PLP.part.repulsive>
0.2810

> <Gold.PLP.ligand.clash>
0.0000

> <Gold.PLP.ligand.torsion>
0.2357

> <Gold.PLP.Chemscore.Hbond>
1.0000

> <Gold.PLP.Chemscore.CHOScore>
0.0000

> <Gold.PLP.Chemscore.Metal>
0.0000

> <Gold.Chemscore.Hbonds>
donor molecule, donor type, donor heavy atom, donor atom, acceptor molecule, acceptor atom, score
      P1  H  7997  8009       L1    10  1.00

> <Gold.PLP.Chemscore.Internal.Correction>
0.2589

> <Gold.Rescore>
     Score         DG    S(hbond)    S(metal)    S(lipo)     H(rot)  DE(clash)    DE(int)     intcor
     14.88     -19.49       0.98        0.00     113.67       1.00       1.95       2.66       ----

> <Gold.Chemscore.Fitness>
14.8809

> <Gold.Chemscore.DG>
-19.4947

> <Gold.Chemscore.ZeroCoef>
-5.4800

> <Gold.Chemscore.Hbond>
0.9806

> <Gold.Chemscore.Metal>
0.0000

> <Gold.Chemscore.Lipo>
113.6713

> <Gold.Chemscore.Internal_Hbond>
0.0000

> <Gold.Chemscore.DEClash>
1.9501

> <Gold.Chemscore.DEInternal>
2.6637

> <Gold.Chemscore.Rot>
1.0000

> <Gold.Chemscore.Internal.Correction>
   9.000000E+99

> <Gold.Chemscore.Hbonds>
donor molecule, donor type, donor heavy atom, donor atom, acceptor molecule, acceptor atom, score
      P1  H  7997  8009       L1    10  0.99

> <Gold.Chemscore.Hbond.Weighted>
-3.2752

> <Gold.Chemscore.Metal.Weighted>
-0.0000

> <Gold.Chemscore.Lipo.Weighted>
-13.2995

> <Gold.Chemscore.Internal_Hbond.Weighted>
0.0000

> <Gold.Chemscore.DEClash.Weighted>
1.9501

> <Gold.Chemscore.DEInternal.Weighted>
2.6637

> <Gold.Chemscore.Rot.Weighted>
2.5600

> <Gold.Chemscore.Internal.Correction.Weighted>
   9.000000E+99

> <Gold.Protein.RotatedTorsions>
[ 6907 6896 6895 6894 ] final  -18.44 input  -60.11 | X-H torsion
[ 7974 7965 7964 7962 ] final  160.41 input  175.53 | X-H torsion
[ 8008 7997 7996 7995 ] final -174.92 input   59.86 | X-H torsion
[ 10167 10162 10161 10158 ] final -172.21 input  -65.29 | X-H torsion
[ 10718 10713 10712 10709 ] final  159.68 input   66.30 | X-H torsion
[ 10763 10752 10751 10750 ] final  -30.92 input  -60.55 | X-H torsion
[ 11005 11000 10999 10996 ] final  -79.77 input  -57.11 | X-H torsion

> <Gold.Protein.ActiveResidues>
 VAL166  LYS551  ARG553  GLY616  TRP617  ASP618  TYR619  PRO620  LYS621  CYS622 
 ASP623  PHE694  ASN695  SER759  ASP760  ASP761  ALA762  ILE779  LEU786  VAL792 
 PHE793  MET794  SER795  GLU796  ALA797  LYS798  CYS799  TRP800  GLU811  SER814 

> <Gold.Protein.RotatedAtoms>
  151.2782  135.0705  159.9159 H   0  0  0  0  0  0  0  0  0  0  0  0  # atno 6907 bound_to 6896
  152.5339  134.0059  159.7926 H   0  0  0  0  0  0  0  0  0  0  0  0  # atno 6908 bound_to 6896
  151.0308  133.5741  159.2692 H   0  0  0  0  0  0  0  0  0  0  0  0  # atno 6909 bound_to 6896
  144.7739  139.7753  143.6286 H   0  0  0  0  0  0  0  0  0  0  0  0  # atno 7974 bound_to 7965
  155.9761  140.1172  157.0768 H   0  0  0  0  0  0  0  0  0  0  0  0  # atno 8008 bound_to 7997
  154.4170  140.1153  156.5440 H   0  0  0  0  0  0  0  0  0  0  0  0  # atno 8009 bound_to 7997
  155.6532  140.3473  155.4758 H   0  0  0  0  0  0  0  0  0  0  0  0  # atno 8010 bound_to 7997
  139.5757  144.1537  152.1447 H   0  0  0  0  0  0  0  0  0  0  0  0  # atno 10167 bound_to 10162
  157.1609  131.0587  151.2232 H   0  0  0  0  0  0  0  0  0  0  0  0  # atno 10718 bound_to 10713
  153.7889  135.6899  153.4875 H   0  0  0  0  0  0  0  0  0  0  0  0  # atno 10763 bound_to 10752
  153.1762  135.4523  154.9967 H   0  0  0  0  0  0  0  0  0  0  0  0  # atno 10764 bound_to 10752
  154.8052  135.3354  154.7387 H   0  0  0  0  0  0  0  0  0  0  0  0  # atno 10765 bound_to 10752
  141.1667  133.7120  156.8173 H   0  0  0  0  0  0  0  0  0  0  0  0  # atno 11005 bound_to 11000
  146.1904  139.5142  142.9808 LP  0  0  0  0  0  0  0  0  0  0  0  0  # atno 17320 bound_to 7965
  145.6244  141.0316  143.1897 LP  0  0  0  0  0  0  0  0  0  0  0  0  # atno 17321 bound_to 7965
  140.1080  144.5482  150.6944 LP  0  0  0  0  0  0  0  0  0  0  0  0  # atno 17342 bound_to 10162
  140.7040  143.2454  151.4781 LP  0  0  0  0  0  0  0  0  0  0  0  0  # atno 17343 bound_to 10162
  157.4133  130.7397  149.6856 LP  0  0  0  0  0  0  0  0  0  0  0  0  # atno 17370 bound_to 10713
  155.9754  130.4089  150.3853 LP  0  0  0  0  0  0  0  0  0  0  0  0  # atno 17371 bound_to 10713
  140.2144  134.8803  157.3310 LP  0  0  0  0  0  0  0  0  0  0  0  0  # atno 17394 bound_to 11000
  140.2053  134.4205  155.7641 LP  0  0  0  0  0  0  0  0  0  0  0  0  # atno 17395 bound_to 11000

$$$$
