AV-unprocessed.smi:542|AV-procd|sdf|2874|dock3
  -GOLD-   2262023363D 1   1.00000     0.00000
 Structure written by MMmdl.
 45 47  0  0  0  0  0  0  0  0  2 V2000
  148.7968  139.3230  153.9412 C   0  0  0  0  0  0  0  0  0  0  0  0
  149.8736  140.1537  154.3380 O   0  0  0  0  0  0  0  0  0  0  0  0
  150.2067  139.9929  155.7065 C   0  0  0  0  0  0  0  0  0  0  0  0
  151.6267  140.5365  155.9366 C   0  0  0  0  0  0  0  0  0  0  0  0
  152.2207  140.0403  157.1754 N   0  0  0  0  0  0  0  0  0  0  0  0
  152.4294  140.6983  158.3535 C   0  0  0  0  0  0  0  0  0  0  0  0
  152.1053  142.0471  158.5607 N   0  0  0  0  0  0  0  0  0  0  0  0
  151.2190  142.8884  157.7522 C   0  0  0  0  0  0  0  0  0  0  0  0
  150.1938  143.6487  158.6140 C   0  0  0  0  0  0  0  0  0  0  0  0
  150.9024  144.5283  159.6561 C   0  0  0  0  0  0  0  0  0  0  0  0
  149.9046  145.2352  160.5839 C   0  0  0  0  0  0  0  0  0  0  0  0
  151.9052  143.6657  160.4394 C   0  0  0  0  0  0  0  0  0  0  0  0
  152.8456  142.9103  159.4837 C   0  0  0  0  0  0  0  0  0  0  0  0
  152.9450  139.9346  159.3206 N   0  0  0  0  0  0  0  0  0  0  0  0
  153.0922  138.6997  158.7125 C   0  0  0  0  0  0  0  0  0  0  0  0
  152.6536  138.7323  157.4267 C   0  0  0  0  0  0  0  0  0  0  0  0
  152.6489  137.5512  156.5327 C   0  0  0  0  0  0  0  0  0  0  0  0
  152.2113  137.6218  155.3863 O   0  0  0  0  0  0  0  0  0  0  0  0
  153.1692  136.4386  157.1410 N   0  5  0  0  0  0  0  0  0  0  0  0
  153.6336  136.3659  158.4363 C   0  0  0  0  0  0  0  0  0  0  0  0
  154.0881  135.3222  158.9066 O   0  0  0  0  0  0  0  0  0  0  0  0
  153.5953  137.4776  159.2360 N   0  0  0  0  0  0  0  0  0  0  0  0
  154.0745  137.4284  160.6203 C   0  0  0  0  0  0  0  0  0  0  0  0
  148.5829  139.4798  152.8840 H   0  0  0  0  0  0  0  0  0  0  0  0
  147.8923  139.5538  154.5056 H   0  0  0  0  0  0  0  0  0  0  0  0
  149.0388  138.2690  154.0830 H   0  0  0  0  0  0  0  0  0  0  0  0
  149.4859  140.5241  156.3280 H   0  0  0  0  0  0  0  0  0  0  0  0
  150.1422  138.9404  155.9819 H   0  0  0  0  0  0  0  0  0  0  0  0
  152.2730  140.2914  155.0978 H   0  0  0  0  0  0  0  0  0  0  0  0
  151.6136  141.6258  155.9652 H   0  0  0  0  0  0  0  0  0  0  0  0
  151.8297  143.6019  157.1973 H   0  0  0  0  0  0  0  0  0  0  0  0
  150.7077  142.3004  156.9964 H   0  0  0  0  0  0  0  0  0  0  0  0
  149.5610  144.2643  157.9742 H   0  0  0  0  0  0  0  0  0  0  0  0
  149.5315  142.9423  159.1151 H   0  0  0  0  0  0  0  0  0  0  0  0
  151.4640  145.2969  159.1231 H   0  0  0  0  0  0  0  0  0  0  0  0
  149.3083  144.5164  161.1468 H   0  0  0  0  0  0  0  0  0  0  0  0
  149.2192  145.8644  160.0156 H   0  0  0  0  0  0  0  0  0  0  0  0
  150.4209  145.8738  161.3010 H   0  0  0  0  0  0  0  0  0  0  0  0
  152.4907  144.2915  161.1137 H   0  0  0  0  0  0  0  0  0  0  0  0
  151.3723  142.9485  161.0655 H   0  0  0  0  0  0  0  0  0  0  0  0
  153.5425  142.3136  160.0731 H   0  0  0  0  0  0  0  0  0  0  0  0
  153.4515  143.6143  158.9120 H   0  0  0  0  0  0  0  0  0  0  0  0
  153.5240  136.6780  161.1890 H   0  0  0  0  0  0  0  0  0  0  0  0
  153.9577  138.3786  161.1406 H   0  0  0  0  0  0  0  0  0  0  0  0
  155.1336  137.1688  160.6480 H   0  0  0  0  0  0  0  0  0  0  0  0
  1  2  1  0  0  0  0
  1 24  1  0  0  0  0
  1 25  1  0  0  0  0
  1 26  1  0  0  0  0
  2  3  1  0  0  0  0
  3  4  1  0  0  0  0
  3 27  1  0  0  0  0
  3 28  1  0  0  0  0
  4  5  1  0  0  0  0
  4 29  1  0  0  0  0
  4 30  1  0  0  0  0
  5 16  1  0  0  0  0
  5  6  1  0  0  0  0
  6  7  1  0  0  0  0
  6 14  2  0  0  0  0
  7 13  1  0  0  0  0
  7  8  1  0  0  0  0
  8  9  1  0  0  0  0
  8 31  1  0  0  0  0
  8 32  1  0  0  0  0
  9 10  1  0  0  0  0
  9 33  1  0  0  0  0
  9 34  1  0  0  0  0
 10 11  1  0  0  0  0
 10 12  1  0  0  0  0
 10 35  1  0  0  0  0
 11 36  1  0  0  0  0
 11 37  1  0  0  0  0
 11 38  1  0  0  0  0
 12 13  1  0  0  0  0
 12 39  1  0  0  0  0
 12 40  1  0  0  0  0
 13 41  1  0  0  0  0
 13 42  1  0  0  0  0
 14 15  1  0  0  0  0
 15 22  1  0  0  0  0
 15 16  2  0  0  0  0
 16 17  1  0  0  0  0
 17 18  2  0  0  0  0
 17 19  1  0  0  0  0
 19 20  1  0  0  0  0
 20 21  2  0  0  0  0
 20 22  1  0  0  0  0
 22 23  1  0  0  0  0
 23 43  1  0  0  0  0
 23 44  1  0  0  0  0
 23 45  1  0  0  0  0
M  CHG  1  19  -1
M  END
> <s_m_source_file>
AV-unprocessed.smi

> <i_m_source_file_index>
542

> <i_lp_mmshare_version>
43012

> <i_f3d_flags>
0

> <s_epik_input>
W0NIM11uMWMoPU8pW25IXWMoPU8pYyhjMTIpbihbQ0gyXVtDSDJdT1tDSDNdKWMobjIpTjNbQ0gyXVtDSDJdW0NIXShbQ0gzXSlbQ0gyXVtDSDJdMw==

> <s_epik_cmdline>
J2VwaWtfcHl0aG9uJywgJy1waCcsICc3LjAnLCAnLXRuJywgJzgnLCAnLW1hJywgJzIwMCcsICctbWV0YWxfYmluZGluZycsICctaW1hZScsICc8aW5maWxlLm1hZT4nLCAnLW9tYWUnLCAnPG91dGZpbGUubWFlPic=

> <r_lp_tautomer_probability>
1

> <r_epik_Ionization_Penalty>
5.11335

> <r_epik_Ionization_Penalty_Charging>
0.0783784

> <r_epik_Ionization_Penalty_Neutral>
5.03497

> <r_epik_State_Penalty>
5.01923

> <r_epik_Charging_Adjusted_Penalty>
5.09761

> <i_epik_Tot_Q>
-1

> <i_epik_Tot_abs_Q>
1

> <r_epik_Metal_State_Penalty>
1.13361

> <b_epik_Metal_Only>
1

> <s_lp_Force_Field>
OPLS_2005

> <r_lp_Energy>
42.8721

> <b_lp_Chiralities_Consistent>
1

> <s_lp_Variant>
AV-unprocessed.smi:542-2

> <Gold.Version>
5.8.1

> <Gold.Id.Protein>
6NUR|6NUR_protein|mol2

> <Gold.PLP.Fitness>
45.4807

> <Gold.PLP.PLP>
-34.8157

> <Gold.PLP.part.hbond>
-4.0000

> <Gold.PLP.part.metal>
0.0000

> <Gold.PLP.part.buried>
-1.3106

> <Gold.PLP.part.nonpolar>
-30.3693

> <Gold.PLP.part.repulsive>
0.1595

> <Gold.PLP.ligand.clash>
0.0342

> <Gold.PLP.ligand.torsion>
0.5684

> <Gold.PLP.Chemscore.Hbond>
3.9020

> <Gold.PLP.Chemscore.CHOScore>
0.0000

> <Gold.PLP.Chemscore.Metal>
0.0000

> <Gold.Chemscore.Hbonds>
donor molecule, donor type, donor heavy atom, donor atom, acceptor molecule, acceptor atom, score
      P1  H  6896  6908       L1    21  0.89
      P1  H  7989  7998       L1     2  0.86
      P1  H 10752 10765       L1    19  1.30

> <Gold.PLP.Chemscore.Internal.Correction>
0.1300

> <Gold.Rescore>
     Score         DG    S(hbond)    S(metal)    S(lipo)     H(rot)  DE(clash)    DE(int)     intcor
     13.94     -16.29       1.32        0.00      86.25       1.44       0.70       1.65       ----

> <Gold.Chemscore.Fitness>
13.9432

> <Gold.Chemscore.DG>
-16.2947

> <Gold.Chemscore.ZeroCoef>
-5.4800

> <Gold.Chemscore.Hbond>
1.3183

> <Gold.Chemscore.Metal>
0.0000

> <Gold.Chemscore.Lipo>
86.2474

> <Gold.Chemscore.Internal_Hbond>
0.0000

> <Gold.Chemscore.DEClash>
0.7004

> <Gold.Chemscore.DEInternal>
1.6511

> <Gold.Chemscore.Rot>
1.4372

> <Gold.Chemscore.Internal.Correction>
   9.000000E+99

> <Gold.Chemscore.Hbonds>
donor molecule, donor type, donor heavy atom, donor atom, acceptor molecule, acceptor atom, score
      P1  H  6896  6908       L1    21  0.57
      P1  H  7989  7998       L1     2  0.35
      P1  H 10752 10765       L1    19  0.16

> <Gold.Chemscore.Hbond.Weighted>
-4.4031

> <Gold.Chemscore.Metal.Weighted>
-0.0000

> <Gold.Chemscore.Lipo.Weighted>
-10.0909

> <Gold.Chemscore.Internal_Hbond.Weighted>
0.0000

> <Gold.Chemscore.DEClash.Weighted>
0.7004

> <Gold.Chemscore.DEInternal.Weighted>
1.6511

> <Gold.Chemscore.Rot.Weighted>
3.6793

> <Gold.Chemscore.Internal.Correction.Weighted>
   9.000000E+99

> <Gold.Protein.RotatedTorsions>
[ 6907 6896 6895 6894 ] final  -35.87 input  -60.11 | X-H torsion
[ 7974 7965 7964 7962 ] final   33.90 input  175.53 | X-H torsion
[ 8008 7997 7996 7995 ] final  151.67 input   59.86 | X-H torsion
[ 10167 10162 10161 10158 ] final  -75.18 input  -65.29 | X-H torsion
[ 10718 10713 10712 10709 ] final -116.18 input   66.30 | X-H torsion
[ 10763 10752 10751 10750 ] final -101.62 input  -60.55 | X-H torsion
[ 11005 11000 10999 10996 ] final  -43.39 input  -57.11 | X-H torsion

> <Gold.Protein.ActiveResidues>
 VAL166  LYS551  ARG553  GLY616  TRP617  ASP618  TYR619  PRO620  LYS621  CYS622 
 ASP623  PHE694  ASN695  SER759  ASP760  ASP761  ALA762  ILE779  LEU786  VAL792 
 PHE793  MET794  SER795  GLU796  ALA797  LYS798  CYS799  TRP800  GLU811  SER814 

> <Gold.Protein.RotatedAtoms>
  151.0343  134.9561  159.8127 H   0  0  0  0  0  0  0  0  0  0  0  0  # atno 6907 bound_to 6896
  152.5352  134.2740  159.8992 H   0  0  0  0  0  0  0  0  0  0  0  0  # atno 6908 bound_to 6896
  151.2750  133.4194  159.2657 H   0  0  0  0  0  0  0  0  0  0  0  0  # atno 6909 bound_to 6896
  146.1389  139.6338  142.9176 H   0  0  0  0  0  0  0  0  0  0  0  0  # atno 7974 bound_to 7965
  156.2664  140.2041  156.6212 H   0  0  0  0  0  0  0  0  0  0  0  0  # atno 8008 bound_to 7997
  154.6756  140.0545  157.0236 H   0  0  0  0  0  0  0  0  0  0  0  0  # atno 8009 bound_to 7997
  155.1074  140.3212  155.4533 H   0  0  0  0  0  0  0  0  0  0  0  0  # atno 8010 bound_to 7997
  140.4965  143.2369  151.7823 H   0  0  0  0  0  0  0  0  0  0  0  0  # atno 10167 bound_to 10162
  156.0946  130.6121  150.9002 H   0  0  0  0  0  0  0  0  0  0  0  0  # atno 10718 bound_to 10713
  154.7672  135.4891  153.9577 H   0  0  0  0  0  0  0  0  0  0  0  0  # atno 10763 bound_to 10752
  153.1322  135.6755  153.9167 H   0  0  0  0  0  0  0  0  0  0  0  0  # atno 10764 bound_to 10752
  153.8867  135.3125  155.3425 H   0  0  0  0  0  0  0  0  0  0  0  0  # atno 10765 bound_to 10752
  141.0381  133.6791  156.2727 H   0  0  0  0  0  0  0  0  0  0  0  0  # atno 11005 bound_to 11000
  145.5091  141.0436  143.2498 LP  0  0  0  0  0  0  0  0  0  0  0  0  # atno 17320 bound_to 7965
  144.7771  139.6607  143.7170 LP  0  0  0  0  0  0  0  0  0  0  0  0  # atno 17321 bound_to 7965
  139.4862  144.4580  151.9575 LP  0  0  0  0  0  0  0  0  0  0  0  0  # atno 17342 bound_to 10162
  140.3668  144.2905  150.5925 LP  0  0  0  0  0  0  0  0  0  0  0  0  # atno 17343 bound_to 10162
  157.6103  131.0936  150.8806 LP  0  0  0  0  0  0  0  0  0  0  0  0  # atno 17370 bound_to 10713
  156.8947  130.5225  149.5285 LP  0  0  0  0  0  0  0  0  0  0  0  0  # atno 17371 bound_to 10713
  140.6285  134.5288  157.5556 LP  0  0  0  0  0  0  0  0  0  0  0  0  # atno 17394 bound_to 11000
  139.9255  134.8064  156.1081 LP  0  0  0  0  0  0  0  0  0  0  0  0  # atno 17395 bound_to 11000

$$$$
