AV-unprocessed.smi:153|AV-procd|sdf|1254|dock10
  -GOLD-   2262018493D 1   1.00000     0.00000
 Structure written by MMmdl.
 60 63  0  0  0  0  0  0  0  0  2 V2000
  153.4424  142.2877  161.0468 C   0  0  0  0  0  0  0  0  0  0  0  0
  152.6944  143.4138  160.3236 C   0  0  2  0  0  0  0  0  0  0  0  0
  151.8311  144.0537  161.2550 O   0  0  0  0  0  0  0  0  0  0  0  0
  150.8658  144.7736  160.5140 C   0  0  0  0  0  0  0  0  0  0  0  0
  150.4780  143.7652  159.4435 C   0  0  0  0  0  0  0  0  0  0  0  0
  151.7902  143.0503  159.1062 C   0  0  1  0  0  0  0  0  0  0  0  0
  152.3329  143.6890  157.9643 O   0  0  0  0  0  0  0  0  0  0  0  0
  151.5160  141.5474  158.7983 C   0  0  0  0  0  0  0  0  0  0  0  0
  150.5242  141.2711  157.7646 N   0  0  0  0  0  0  0  0  0  0  0  0
  149.8970  142.1905  156.9566 C   0  0  0  0  0  0  0  0  0  0  0  0
  149.0624  141.6916  156.0884 N   0  0  0  0  0  0  0  0  0  0  0  0
  149.1394  140.3154  156.2764 C   0  0  0  0  0  0  0  0  0  0  0  0
  148.5246  139.1788  155.6619 C   0  0  0  0  0  0  0  0  0  0  0  0
  147.6025  139.2269  154.6564 N   0  0  0  0  0  0  0  0  0  0  0  0
  147.0166  140.5030  154.2625 C   0  0  0  0  0  0  0  0  0  0  0  0
  147.4658  138.0970  153.7333 C   0  0  0  0  0  0  0  0  0  0  0  0
  146.6437  138.4560  152.4784 C   0  0  1  0  0  0  0  0  0  0  0  0
  147.5274  138.5533  151.3786 O   0  0  0  0  0  0  0  0  0  0  0  0
  145.6105  137.3609  152.1459 C   0  0  0  0  0  0  0  0  0  0  0  0
  146.2383  136.0419  151.8754 N   0  3  0  0  0  0  0  0  0  0  0  0
  146.4188  135.2374  153.1073 C   0  0  0  0  0  0  0  0  0  0  0  0
  147.1297  133.9121  152.7857 C   0  0  0  0  0  0  0  0  0  0  0  0
  146.3857  133.1965  151.8074 O   0  0  0  0  0  0  0  0  0  0  0  0
  146.2790  133.9200  150.5879 C   0  0  0  0  0  0  0  0  0  0  0  0
  145.5392  135.2457  150.8360 C   0  0  0  0  0  0  0  0  0  0  0  0
  148.9026  137.9572  156.1254 N   0  0  0  0  0  0  0  0  0  0  0  0
  149.8042  137.8399  157.1026 C   0  0  0  0  0  0  0  0  0  0  0  0
  150.4488  138.8034  157.7585 N   0  0  0  0  0  0  0  0  0  0  0  0
  150.0761  140.0380  157.3164 C   0  0  0  0  0  0  0  0  0  0  0  0
  154.2074  141.8525  160.4061 H   0  0  0  0  0  0  0  0  0  0  0  0
  152.7688  141.5000  161.3834 H   0  0  0  0  0  0  0  0  0  0  0  0
  153.9530  142.6760  161.9282 H   0  0  0  0  0  0  0  0  0  0  0  0
  153.4308  144.1645  160.0277 H   0  0  0  0  0  0  0  0  0  0  0  0
  150.0227  145.0779  161.1344 H   0  0  0  0  0  0  0  0  0  0  0  0
  151.3183  145.6647  160.0757 H   0  0  0  0  0  0  0  0  0  0  0  0
  149.7669  143.0615  159.8789 H   0  0  0  0  0  0  0  0  0  0  0  0
  149.9902  144.2264  158.5834 H   0  0  0  0  0  0  0  0  0  0  0  0
  151.7307  143.5810  157.2439 H   0  0  0  0  0  0  0  0  0  0  0  0
  152.4435  141.0355  158.5403 H   0  0  0  0  0  0  0  0  0  0  0  0
  151.1605  141.0593  159.7070 H   0  0  0  0  0  0  0  0  0  0  0  0
  150.0745  143.2533  157.0296 H   0  0  0  0  0  0  0  0  0  0  0  0
  146.5906  141.0158  155.1254 H   0  0  0  0  0  0  0  0  0  0  0  0
  146.2126  140.3595  153.5405 H   0  0  0  0  0  0  0  0  0  0  0  0
  147.7659  141.1471  153.8013 H   0  0  0  0  0  0  0  0  0  0  0  0
  148.4268  137.6545  153.4676 H   0  0  0  0  0  0  0  0  0  0  0  0
  146.9450  137.3112  154.2815 H   0  0  0  0  0  0  0  0  0  0  0  0
  146.1456  139.4132  152.6284 H   0  0  0  0  0  0  0  0  0  0  0  0
  148.1595  139.2330  151.5604 H   0  0  0  0  0  0  0  0  0  0  0  0
  144.9182  137.2710  152.9851 H   0  0  0  0  0  0  0  0  0  0  0  0
  145.0071  137.6513  151.2844 H   0  0  0  0  0  0  0  0  0  0  0  0
  147.0065  135.7988  153.8349 H   0  0  0  0  0  0  0  0  0  0  0  0
  145.4463  135.0407  153.5618 H   0  0  0  0  0  0  0  0  0  0  0  0
  148.1457  134.0905  152.4296 H   0  0  0  0  0  0  0  0  0  0  0  0
  147.2102  133.3014  153.6851 H   0  0  0  0  0  0  0  0  0  0  0  0
  147.2705  134.0989  150.1681 H   0  0  0  0  0  0  0  0  0  0  0  0
  145.7322  133.3146  149.8648 H   0  0  0  0  0  0  0  0  0  0  0  0
  144.5148  135.0454  151.1539 H   0  0  0  0  0  0  0  0  0  0  0  0
  145.4805  135.8002  149.9005 H   0  0  0  0  0  0  0  0  0  0  0  0
  150.0410  136.8298  157.4028 H   0  0  0  0  0  0  0  0  0  0  0  0
  147.1663  136.2375  151.5265 H   0  0  0  0  0  0  0  0  0  0  0  0
  1  2  1  0  0  0  0
  1 30  1  0  0  0  0
  1 31  1  0  0  0  0
  1 32  1  0  0  0  0
  2  6  1  0  0  0  0
  2  3  1  0  0  0  0
  2 33  1  0  0  0  0
  3  4  1  0  0  0  0
  4  5  1  0  0  0  0
  4 34  1  0  0  0  0
  4 35  1  0  0  0  0
  5  6  1  0  0  0  0
  5 36  1  0  0  0  0
  5 37  1  0  0  0  0
  6  7  1  0  0  0  0
  6  8  1  0  0  0  0
  7 38  1  0  0  0  0
  8  9  1  0  0  0  0
  8 39  1  0  0  0  0
  8 40  1  0  0  0  0
  9 29  1  0  0  0  0
  9 10  1  0  0  0  0
 10 11  2  0  0  0  0
 10 41  1  0  0  0  0
 11 12  1  0  0  0  0
 12 29  2  0  0  0  0
 12 13  1  0  0  0  0
 13 14  1  0  0  0  0
 13 26  2  0  0  0  0
 14 15  1  0  0  0  0
 14 16  1  0  0  0  0
 15 42  1  0  0  0  0
 15 43  1  0  0  0  0
 15 44  1  0  0  0  0
 16 17  1  0  0  0  0
 16 45  1  0  0  0  0
 16 46  1  0  0  0  0
 17 18  1  0  0  0  0
 17 19  1  0  0  0  0
 17 47  1  0  0  0  0
 18 48  1  0  0  0  0
 19 20  1  0  0  0  0
 19 49  1  0  0  0  0
 19 50  1  0  0  0  0
 20 25  1  0  0  0  0
 20 21  1  0  0  0  0
 20 60  1  0  0  0  0
 21 22  1  0  0  0  0
 21 51  1  0  0  0  0
 21 52  1  0  0  0  0
 22 23  1  0  0  0  0
 22 53  1  0  0  0  0
 22 54  1  0  0  0  0
 23 24  1  0  0  0  0
 24 25  1  0  0  0  0
 24 55  1  0  0  0  0
 24 56  1  0  0  0  0
 25 57  1  0  0  0  0
 25 58  1  0  0  0  0
 26 27  1  0  0  0  0
 27 28  2  0  0  0  0
 27 59  1  0  0  0  0
 28 29  1  0  0  0  0
M  CHG  1  20   1
M  END
> <s_m_source_file>
AV-unprocessed.smi

> <i_m_source_file_index>
153

> <i_lp_mmshare_version>
43012

> <i_f3d_flags>
0

> <s_epik_input>
W0NIMl0xW0NIMl1PW0NAQEhdKFtDSDNdKVtDQEBdMShbT0hdKVtDSDJdbihbY0hdbjIpYyhjMjMpbltjSF1uYzNOKFtDSDNdKVtDSDJdW0NASF0oW09IXSlbQ0gyXU40W0NIMl1bQ0gyXU9bQ0gyXVtDSDJdNA==

> <s_epik_cmdline>
J2VwaWtfcHl0aG9uJywgJy1waCcsICc3LjAnLCAnLXRuJywgJzgnLCAnLW1hJywgJzIwMCcsICctbWV0YWxfYmluZGluZycsICctaW1hZScsICc8aW5maWxlLm1hZT4nLCAnLW9tYWUnLCAnPG91dGZpbGUubWFlPic=

> <r_lp_tautomer_probability>
1

> <r_epik_Ionization_Penalty>
0.403509

> <r_epik_Ionization_Penalty_Charging>
0.40072

> <r_epik_Ionization_Penalty_Neutral>
0.00278876

> <r_epik_State_Penalty>
0.400058

> <r_epik_Charging_Adjusted_Penalty>
0.800778

> <i_epik_Tot_Q>
1

> <i_epik_Tot_abs_Q>
1

> <r_epik_Metal_State_Penalty>
0.400321

> <b_epik_Metal_Only>
0

> <s_lp_Force_Field>
OPLS_2005

> <r_lp_Energy>
49.6176

> <b_lp_Chiralities_Consistent>
1

> <s_lp_Variant>
AV-unprocessed.smi:153-5

> <Gold.Version>
5.8.1

> <Gold.Id.Protein>
6NUR|6NUR_protein|mol2

> <Gold.PLP.Fitness>
50.4365

> <Gold.PLP.PLP>
-39.3370

> <Gold.PLP.part.hbond>
-4.0000

> <Gold.PLP.part.metal>
0.0000

> <Gold.PLP.part.buried>
-3.4066

> <Gold.PLP.part.nonpolar>
-32.3574

> <Gold.PLP.part.repulsive>
0.8856

> <Gold.PLP.ligand.clash>
0.3316

> <Gold.PLP.ligand.torsion>
1.3614

> <Gold.PLP.Chemscore.Hbond>
3.7420

> <Gold.PLP.Chemscore.CHOScore>
0.8031

> <Gold.PLP.Chemscore.Metal>
0.0000

> <Gold.Chemscore.Hbonds>
donor molecule, donor type, donor heavy atom, donor atom, acceptor molecule, acceptor atom, score
      L1  H    18    48       P1  7957  0.96
      L1  H    20    60       P1  7948  1.95
      P1  H  7954  7966       L1    18  1.00
      L1  C    10    41       P1  8028  0.81

> <Gold.PLP.Chemscore.Internal.Correction>
0.5187

> <Gold.Rescore>
     Score         DG    S(hbond)    S(metal)    S(lipo)     H(rot)  DE(clash)    DE(int)     intcor
     10.97     -15.57       2.14        0.00     104.39       3.62       0.86       3.74       ----

> <Gold.Chemscore.Fitness>
10.9702

> <Gold.Chemscore.DG>
-15.5709

> <Gold.Chemscore.ZeroCoef>
-5.4800

> <Gold.Chemscore.Hbond>
2.1375

> <Gold.Chemscore.Metal>
0.0000

> <Gold.Chemscore.Lipo>
104.3947

> <Gold.Chemscore.Internal_Hbond>
0.0000

> <Gold.Chemscore.DEClash>
0.8561

> <Gold.Chemscore.DEInternal>
3.7446

> <Gold.Chemscore.Rot>
3.6182

> <Gold.Chemscore.Internal.Correction>
   9.000000E+99

> <Gold.Chemscore.Hbonds>
donor molecule, donor type, donor heavy atom, donor atom, acceptor molecule, acceptor atom, score
      L1  H    18    48       P1  7957  0.85
      L1  H    20    60       P1  7948  0.92
      P1  H  7954  7966       L1    18  0.24

> <Gold.Chemscore.Hbond.Weighted>
-7.1392

> <Gold.Chemscore.Metal.Weighted>
-0.0000

> <Gold.Chemscore.Lipo.Weighted>
-12.2142

> <Gold.Chemscore.Internal_Hbond.Weighted>
0.0000

> <Gold.Chemscore.DEClash.Weighted>
0.8561

> <Gold.Chemscore.DEInternal.Weighted>
3.7446

> <Gold.Chemscore.Rot.Weighted>
9.2625

> <Gold.Chemscore.Internal.Correction.Weighted>
   9.000000E+99

> <Gold.Protein.RotatedTorsions>
[ 6907 6896 6895 6894 ] final   30.41 input  -60.11 | X-H torsion
[ 7974 7965 7964 7962 ] final  139.68 input  175.53 | X-H torsion
[ 8008 7997 7996 7995 ] final  164.21 input   59.86 | X-H torsion
[ 10167 10162 10161 10158 ] final   77.49 input  -65.29 | X-H torsion
[ 10718 10713 10712 10709 ] final  138.17 input   66.30 | X-H torsion
[ 10763 10752 10751 10750 ] final   56.66 input  -60.55 | X-H torsion
[ 11005 11000 10999 10996 ] final  177.23 input  -57.11 | X-H torsion

> <Gold.Protein.ActiveResidues>
 VAL166  LYS551  ARG553  GLY616  TRP617  ASP618  TYR619  PRO620  LYS621  CYS622 
 ASP623  PHE694  ASN695  SER759  ASP760  ASP761  ALA762  ILE779  LEU786  VAL792 
 PHE793  MET794  SER795  GLU796  ALA797  LYS798  CYS799  TRP800  GLU811  SER814 

> <Gold.Protein.RotatedAtoms>
  152.0456  134.9685  160.0574 H   0  0  0  0  0  0  0  0  0  0  0  0  # atno 6907 bound_to 6896
  152.1106  133.4294  159.4637 H   0  0  0  0  0  0  0  0  0  0  0  0  # atno 6908 bound_to 6896
  150.6843  134.2571  159.4577 H   0  0  0  0  0  0  0  0  0  0  0  0  # atno 6909 bound_to 6896
  144.9257  139.5111  143.5642 H   0  0  0  0  0  0  0  0  0  0  0  0  # atno 7974 bound_to 7965
  156.1898  140.1703  156.8115 H   0  0  0  0  0  0  0  0  0  0  0  0  # atno 8008 bound_to 7997
  154.5457  140.0727  156.8617 H   0  0  0  0  0  0  0  0  0  0  0  0  # atno 8009 bound_to 7997
  155.3127  140.3368  155.4246 H   0  0  0  0  0  0  0  0  0  0  0  0  # atno 8010 bound_to 7997
  139.9810  144.5826  150.7900 H   0  0  0  0  0  0  0  0  0  0  0  0  # atno 10167 bound_to 10162
  157.4282  131.1046  151.0279 H   0  0  0  0  0  0  0  0  0  0  0  0  # atno 10718 bound_to 10713
  152.9836  135.5668  154.5264 H   0  0  0  0  0  0  0  0  0  0  0  0  # atno 10763 bound_to 10752
  154.4744  135.2786  155.1621 H   0  0  0  0  0  0  0  0  0  0  0  0  # atno 10764 bound_to 10752
  154.3155  135.6279  153.5538 H   0  0  0  0  0  0  0  0  0  0  0  0  # atno 10765 bound_to 10752
  140.3818  134.6939  157.4455 H   0  0  0  0  0  0  0  0  0  0  0  0  # atno 11005 bound_to 11000
  146.3225  139.8169  142.8934 LP  0  0  0  0  0  0  0  0  0  0  0  0  # atno 17320 bound_to 7965
  145.3224  141.0247  143.3493 LP  0  0  0  0  0  0  0  0  0  0  0  0  # atno 17321 bound_to 7965
  140.7489  143.2929  151.3281 LP  0  0  0  0  0  0  0  0  0  0  0  0  # atno 17342 bound_to 10162
  139.6410  144.0540  152.2554 LP  0  0  0  0  0  0  0  0  0  0  0  0  # atno 17343 bound_to 10162
  157.1185  130.6052  149.5499 LP  0  0  0  0  0  0  0  0  0  0  0  0  # atno 17370 bound_to 10713
  155.9904  130.4955  150.7255 LP  0  0  0  0  0  0  0  0  0  0  0  0  # atno 17371 bound_to 10713
  140.0473  134.6182  155.8906 LP  0  0  0  0  0  0  0  0  0  0  0  0  # atno 17394 bound_to 11000
  141.1921  133.6574  156.5485 LP  0  0  0  0  0  0  0  0  0  0  0  0  # atno 17395 bound_to 11000

$$$$
