AV-unprocessed.smi:1278|AV-procd|sdf|5351|dock8
  -GOLD-   22720 4483D 1   1.00000     0.00000
 Structure written by MMmdl.
 38 39  0  0  0  0  0  0  0  0  3 V2000
  153.5240  141.6655  161.3203 C   0  0  0  0  0  0  0  0  0  0  0  0
  153.0972  142.8723  160.4729 C   0  0  2  0  0  0  0  0  0  0  0  0
  152.2025  143.8328  161.2743 C   0  0  0  0  0  0  0  0  0  0  0  0
  151.7700  145.0134  160.3959 C   0  0  0  0  0  0  0  0  0  0  0  0
  151.0906  144.5207  159.1083 C   0  0  0  0  0  0  0  0  0  0  0  0
  151.9785  143.5996  158.3530 N   0  3  2  0  0  0  0  0  0  0  0  0
  151.3990  143.2138  157.0428 C   0  0  0  0  0  0  0  0  0  0  0  0
  150.2736  142.1714  157.1839 C   0  0  0  0  0  0  0  0  0  0  0  0
  149.2931  142.3058  156.1135 N   0  0  0  0  0  0  0  0  0  0  0  0
  148.7034  141.2922  155.4640 C   0  0  0  0  0  0  0  0  0  0  0  0
  148.9936  140.1281  155.7505 O   0  0  0  0  0  0  0  0  0  0  0  0
  147.8125  141.6908  154.5290 N   0  5  0  0  0  0  0  0  0  0  0  0
  147.4149  140.8357  153.5728 C   0  0  0  0  0  0  0  0  0  0  0  0
  147.4559  139.5064  153.7207 N   0  0  0  0  0  0  0  0  0  0  0  0
  146.9902  138.8091  152.6044 C   0  0  0  0  0  0  0  0  0  0  0  0
  146.5789  139.6269  151.5854 C   0  0  0  0  0  0  0  0  0  0  0  0
  146.7612  141.3072  152.0016 S   0  0  0  0  0  0  0  0  0  0  0  0
  152.3819  142.4301  159.1801 C   0  0  0  0  0  0  0  0  0  0  0  0
  152.6617  141.0766  161.6352 H   0  0  0  0  0  0  0  0  0  0  0  0
  154.0554  141.9836  162.2178 H   0  0  0  0  0  0  0  0  0  0  0  0
  154.1892  141.0077  160.7601 H   0  0  0  0  0  0  0  0  0  0  0  0
  154.0028  143.4107  160.1891 H   0  0  0  0  0  0  0  0  0  0  0  0
  151.3201  143.3045  161.6383 H   0  0  0  0  0  0  0  0  0  0  0  0
  152.7320  144.1995  162.1546 H   0  0  0  0  0  0  0  0  0  0  0  0
  151.0913  145.6613  160.9510 H   0  0  0  0  0  0  0  0  0  0  0  0
  152.6399  145.6210  160.1426 H   0  0  0  0  0  0  0  0  0  0  0  0
  150.1543  144.0128  159.3452 H   0  0  0  0  0  0  0  0  0  0  0  0
  150.8368  145.3814  158.4883 H   0  0  0  0  0  0  0  0  0  0  0  0
  151.0503  144.1066  156.5213 H   0  0  0  0  0  0  0  0  0  0  0  0
  152.1790  142.7794  156.4157 H   0  0  0  0  0  0  0  0  0  0  0  0
  150.6908  141.1651  157.1357 H   0  0  0  0  0  0  0  0  0  0  0  0
  149.7659  142.2504  158.1454 H   0  0  0  0  0  0  0  0  0  0  0  0
  149.0300  143.2429  155.8448 H   0  0  0  0  0  0  0  0  0  0  0  0
  146.9874  137.7294  152.6216 H   0  0  0  0  0  0  0  0  0  0  0  0
  146.1802  139.3465  150.6223 H   0  0  0  0  0  0  0  0  0  0  0  0
  153.0484  141.7821  158.6118 H   0  0  0  0  0  0  0  0  0  0  0  0
  151.4991  141.8351  159.4213 H   0  0  0  0  0  0  0  0  0  0  0  0
  152.8184  144.1222  158.1490 H   0  0  0  0  0  0  0  0  0  0  0  0
  1  2  1  0  0  0  0
  1 19  1  0  0  0  0
  1 20  1  0  0  0  0
  1 21  1  0  0  0  0
  2 18  1  0  0  0  0
  2  3  1  0  0  0  0
  2 22  1  0  0  0  0
  3  4  1  0  0  0  0
  3 23  1  0  0  0  0
  3 24  1  0  0  0  0
  4  5  1  0  0  0  0
  4 25  1  0  0  0  0
  4 26  1  0  0  0  0
  5  6  1  0  0  0  0
  5 27  1  0  0  0  0
  5 28  1  0  0  0  0
  6  7  1  0  0  0  0
  6 18  1  0  0  0  0
  6 38  1  0  0  0  0
  7  8  1  0  0  0  0
  7 29  1  0  0  0  0
  7 30  1  0  0  0  0
  8  9  1  0  0  0  0
  8 31  1  0  0  0  0
  8 32  1  0  0  0  0
  9 10  1  0  0  0  0
  9 33  1  0  0  0  0
 10 11  2  0  0  0  0
 10 12  1  0  0  0  0
 12 13  1  0  0  0  0
 13 17  1  0  0  0  0
 13 14  2  0  0  0  0
 14 15  1  0  0  0  0
 15 16  2  0  0  0  0
 15 34  1  0  0  0  0
 16 17  1  0  0  0  0
 16 35  1  0  0  0  0
 18 36  1  0  0  0  0
 18 37  1  0  0  0  0
M  CHG  1   6   1
M  CHG  1  12  -1
M  END
> <s_m_source_file>
AV-unprocessed.smi

> <i_m_source_file_index>
1278

> <i_lp_mmshare_version>
43012

> <i_f3d_flags>
0

> <s_epik_input>
W0NIM11bQ0BASF0xW0NIMl1bQ0gyXVtDSDJdTihbQ0gyXTEpW0NIMl1bQ0gyXVtOSF1DKD1PKVtOSF1jMm5bY0hdW2NIXXMy

> <s_epik_cmdline>
J2VwaWtfcHl0aG9uJywgJy1waCcsICc3LjAnLCAnLXRuJywgJzgnLCAnLW1hJywgJzIwMCcsICctbWV0YWxfYmluZGluZycsICctaW1hZScsICc8aW5maWxlLm1hZT4nLCAnLW9tYWUnLCAnPG91dGZpbGUubWFlPic=

> <r_lp_tautomer_probability>
0.999

> <r_epik_Ionization_Penalty>
6.22019

> <r_epik_Ionization_Penalty_Charging>
5.38911

> <r_epik_Ionization_Penalty_Neutral>
0.831074

> <r_epik_State_Penalty>
5.38904

> <r_epik_Charging_Adjusted_Penalty>
10.7782

> <i_epik_Tot_Q>
0

> <i_epik_Tot_abs_Q>
2

> <r_epik_Metal_State_Penalty>
1.41502

> <b_epik_Metal_Only>
1

> <s_lp_Force_Field>
OPLS_2005

> <r_lp_Energy>
5.98005

> <b_lp_Chiralities_Consistent>
1

> <s_lp_Variant>
AV-unprocessed.smi:1278-5

> <Gold.Version>
5.8.1

> <Gold.Id.Protein>
6NUR|6NUR_protein|mol2

> <Gold.PLP.Fitness>
41.9074

> <Gold.PLP.PLP>
-34.6088

> <Gold.PLP.part.hbond>
-1.0000

> <Gold.PLP.part.metal>
0.0000

> <Gold.PLP.part.buried>
-1.3884

> <Gold.PLP.part.nonpolar>
-33.7375

> <Gold.PLP.part.repulsive>
0.4492

> <Gold.PLP.ligand.clash>
0.0000

> <Gold.PLP.ligand.torsion>
0.5944

> <Gold.PLP.Chemscore.Hbond>
1.0000

> <Gold.PLP.Chemscore.CHOScore>
1.8173

> <Gold.PLP.Chemscore.Metal>
0.0000

> <Gold.Chemscore.Hbonds>
donor molecule, donor type, donor heavy atom, donor atom, acceptor molecule, acceptor atom, score
      L1  H     9    33       P1  8028  0.91
      L1  C    15    34       P1  7948  0.79
      L1  C    16    35       P1 10171  1.00

> <Gold.PLP.Chemscore.Internal.Correction>
0.0354

> <Gold.Rescore>
     Score         DG    S(hbond)    S(metal)    S(lipo)     H(rot)  DE(clash)    DE(int)     intcor
     14.71     -17.63       1.00        0.00     109.60       1.57       0.68       2.24       ----

> <Gold.Chemscore.Fitness>
14.7106

> <Gold.Chemscore.DG>
-17.6289

> <Gold.Chemscore.ZeroCoef>
-5.4800

> <Gold.Chemscore.Hbond>
0.9997

> <Gold.Chemscore.Metal>
0.0000

> <Gold.Chemscore.Lipo>
109.5981

> <Gold.Chemscore.Internal_Hbond>
0.0000

> <Gold.Chemscore.DEClash>
0.6757

> <Gold.Chemscore.DEInternal>
2.2426

> <Gold.Chemscore.Rot>
1.5676

> <Gold.Chemscore.Internal.Correction>
   9.000000E+99

> <Gold.Chemscore.Hbonds>
donor molecule, donor type, donor heavy atom, donor atom, acceptor molecule, acceptor atom, score
      L1  H     9    33       P1  8028  0.87

> <Gold.Chemscore.Hbond.Weighted>
-3.3390

> <Gold.Chemscore.Metal.Weighted>
-0.0000

> <Gold.Chemscore.Lipo.Weighted>
-12.8230

> <Gold.Chemscore.Internal_Hbond.Weighted>
0.0000

> <Gold.Chemscore.DEClash.Weighted>
0.6757

> <Gold.Chemscore.DEInternal.Weighted>
2.2426

> <Gold.Chemscore.Rot.Weighted>
4.0130

> <Gold.Chemscore.Internal.Correction.Weighted>
   9.000000E+99

> <Gold.Protein.RotatedTorsions>
[ 6907 6896 6895 6894 ] final  -54.63 input  -60.11 | X-H torsion
[ 7974 7965 7964 7962 ] final -159.19 input  175.53 | X-H torsion
[ 8008 7997 7996 7995 ] final  179.90 input   59.86 | X-H torsion
[ 10167 10162 10161 10158 ] final  -77.32 input  -65.29 | X-H torsion
[ 10718 10713 10712 10709 ] final   -4.94 input   66.30 | X-H torsion
[ 10763 10752 10751 10750 ] final   76.70 input  -60.55 | X-H torsion
[ 11005 11000 10999 10996 ] final -103.53 input  -57.11 | X-H torsion

> <Gold.Protein.ActiveResidues>
 VAL166  LYS551  ARG553  GLY616  TRP617  ASP618  TYR619  PRO620  LYS621  CYS622 
 ASP623  PHE694  ASN695  SER759  ASP760  ASP761  ALA762  ILE779  LEU786  VAL792 
 PHE793  MET794  SER795  GLU796  ALA797  LYS798  CYS799  TRP800  GLU811  SER814 

> <Gold.Protein.RotatedAtoms>
  150.8321  134.7579  159.6862 H   0  0  0  0  0  0  0  0  0  0  0  0  # atno 6907 bound_to 6896
  152.4424  134.5560  159.9890 H   0  0  0  0  0  0  0  0  0  0  0  0  # atno 6908 bound_to 6896
  151.5719  133.3351  159.3027 H   0  0  0  0  0  0  0  0  0  0  0  0  # atno 6909 bound_to 6896
  144.7475  140.3720  143.6074 H   0  0  0  0  0  0  0  0  0  0  0  0  # atno 7974 bound_to 7965
  156.0381  140.1297  157.0185 H   0  0  0  0  0  0  0  0  0  0  0  0  # atno 8008 bound_to 7997
  154.4379  140.1036  156.6267 H   0  0  0  0  0  0  0  0  0  0  0  0  # atno 8009 bound_to 7997
  155.5707  140.3466  155.4517 H   0  0  0  0  0  0  0  0  0  0  0  0  # atno 8010 bound_to 7997
  140.4781  143.2409  151.8101 H   0  0  0  0  0  0  0  0  0  0  0  0  # atno 10167 bound_to 10162
  156.7539  130.5248  149.5798 H   0  0  0  0  0  0  0  0  0  0  0  0  # atno 10718 bound_to 10713
  153.0744  135.4942  154.8373 H   0  0  0  0  0  0  0  0  0  0  0  0  # atno 10763 bound_to 10752
  154.7067  135.3012  154.9261 H   0  0  0  0  0  0  0  0  0  0  0  0  # atno 10764 bound_to 10752
  153.9968  135.6771  153.4810 H   0  0  0  0  0  0  0  0  0  0  0  0  # atno 10765 bound_to 10752
  141.1142  133.8647  157.1497 H   0  0  0  0  0  0  0  0  0  0  0  0  # atno 11005 bound_to 11000
  145.7068  139.1674  143.2561 LP  0  0  0  0  0  0  0  0  0  0  0  0  # atno 17320 bound_to 7965
  146.1376  140.7102  142.9382 LP  0  0  0  0  0  0  0  0  0  0  0  0  # atno 17321 bound_to 7965
  139.4829  144.4808  151.9309 LP  0  0  0  0  0  0  0  0  0  0  0  0  # atno 17342 bound_to 10162
  140.3893  144.2636  150.5901 LP  0  0  0  0  0  0  0  0  0  0  0  0  # atno 17343 bound_to 10162
  156.1383  130.6226  151.0431 LP  0  0  0  0  0  0  0  0  0  0  0  0  # atno 17370 bound_to 10713
  157.6765  131.0849  150.7482 LP  0  0  0  0  0  0  0  0  0  0  0  0  # atno 17371 bound_to 10713
  140.0053  135.0011  157.0279 LP  0  0  0  0  0  0  0  0  0  0  0  0  # atno 17394 bound_to 11000
  140.4693  134.1403  155.7201 LP  0  0  0  0  0  0  0  0  0  0  0  0  # atno 17395 bound_to 11000

$$$$
