AV-unprocessed.smi:2884|AV-procd|sdf|11085|dock3
  -GOLD-   2272015553D 1   1.00000     0.00000
 Structure written by MMmdl.
 41 42  0  0  0  0  0  0  0  0  2 V2000
  156.8199  140.3143  159.5412 C   0  0  0  0  0  0  0  0  0  0  0  0
  155.5788  139.5034  159.9365 C   0  0  0  0  0  0  0  0  0  0  0  0
  154.4584  140.3722  160.5210 C   0  0  0  0  0  0  0  0  0  0  0  0
  154.1550  141.3910  159.5753 O   0  0  0  0  0  0  0  0  0  0  0  0
  153.0380  142.2618  159.7878 C   0  0  0  0  0  0  0  0  0  0  0  0
  151.8301  141.3030  159.6243 C   0  0  0  0  0  0  0  0  0  0  0  0
  151.8423  140.5910  158.3527 N   0  0  0  0  0  0  0  0  0  0  0  0
  151.8292  139.2210  158.1139 C   0  0  0  0  0  0  0  0  0  0  0  0
  151.7826  138.2158  159.2056 C   0  0  0  0  0  0  0  0  0  0  0  0
  151.7626  136.9618  158.9794 N   0  0  0  0  0  0  0  0  0  0  0  0
  151.7814  136.4473  157.6284 N   0  5  0  0  0  0  0  0  0  0  0  0
  151.8187  137.3085  156.5668 C   0  0  0  0  0  0  0  0  0  0  0  0
  151.8308  136.9121  155.4027 O   0  0  0  0  0  0  0  0  0  0  0  0
  151.8444  138.7502  156.8409 C   0  0  0  0  0  0  0  0  0  0  0  0
  151.8834  139.8435  155.4956 Cl  0  0  0  0  0  0  0  0  0  0  0  0
  153.0687  142.9249  161.1934 C   0  0  0  0  0  0  0  0  0  0  0  0
  151.8969  143.9001  161.4054 C   0  0  0  0  0  0  0  0  0  0  0  0
  151.8665  144.9774  160.3090 C   0  0  0  0  0  0  0  0  0  0  0  0
  151.8318  144.3552  158.9035 C   0  0  0  0  0  0  0  0  0  0  0  0
  152.9939  143.3649  158.6982 C   0  0  0  0  0  0  0  0  0  0  0  0
  157.5864  139.6674  159.1143 H   0  0  0  0  0  0  0  0  0  0  0  0
  157.2574  140.8174  160.4035 H   0  0  0  0  0  0  0  0  0  0  0  0
  156.5745  141.0753  158.8001 H   0  0  0  0  0  0  0  0  0  0  0  0
  155.2035  138.9805  159.0566 H   0  0  0  0  0  0  0  0  0  0  0  0
  155.8590  138.7334  160.6561 H   0  0  0  0  0  0  0  0  0  0  0  0
  153.5976  139.7425  160.7398 H   0  0  0  0  0  0  0  0  0  0  0  0
  154.8004  140.8085  161.4587 H   0  0  0  0  0  0  0  0  0  0  0  0
  151.8294  140.5465  160.4071 H   0  0  0  0  0  0  0  0  0  0  0  0
  150.8941  141.8455  159.7490 H   0  0  0  0  0  0  0  0  0  0  0  0
  151.7598  141.1838  157.5396 H   0  0  0  0  0  0  0  0  0  0  0  0
  151.7613  138.6026  160.2263 H   0  0  0  0  0  0  0  0  0  0  0  0
  153.0764  142.1702  161.9802 H   0  0  0  0  0  0  0  0  0  0  0  0
  153.9852  143.4984  161.3227 H   0  0  0  0  0  0  0  0  0  0  0  0
  150.9516  143.3574  161.4202 H   0  0  0  0  0  0  0  0  0  0  0  0
  151.9868  144.3744  162.3829 H   0  0  0  0  0  0  0  0  0  0  0  0
  151.0022  145.6272  160.4497 H   0  0  0  0  0  0  0  0  0  0  0  0
  152.7482  145.6132  160.4016 H   0  0  0  0  0  0  0  0  0  0  0  0
  150.8762  143.8555  158.7446 H   0  0  0  0  0  0  0  0  0  0  0  0
  151.8862  145.1441  158.1528 H   0  0  0  0  0  0  0  0  0  0  0  0
  153.9164  143.9442  158.7092 H   0  0  0  0  0  0  0  0  0  0  0  0
  152.9289  142.9144  157.7072 H   0  0  0  0  0  0  0  0  0  0  0  0
  1  2  1  0  0  0  0
  1 21  1  0  0  0  0
  1 22  1  0  0  0  0
  1 23  1  0  0  0  0
  2  3  1  0  0  0  0
  2 24  1  0  0  0  0
  2 25  1  0  0  0  0
  3  4  1  0  0  0  0
  3 26  1  0  0  0  0
  3 27  1  0  0  0  0
  4  5  1  0  0  0  0
  5 20  1  0  0  0  0
  5  6  1  0  0  0  0
  5 16  1  0  0  0  0
  6  7  1  0  0  0  0
  6 28  1  0  0  0  0
  6 29  1  0  0  0  0
  7  8  1  0  0  0  0
  7 30  1  0  0  0  0
  8 14  2  0  0  0  0
  8  9  1  0  0  0  0
  9 10  2  0  0  0  0
  9 31  1  0  0  0  0
 10 11  1  0  0  0  0
 11 12  1  0  0  0  0
 12 13  2  0  0  0  0
 12 14  1  0  0  0  0
 14 15  1  0  0  0  0
 16 17  1  0  0  0  0
 16 32  1  0  0  0  0
 16 33  1  0  0  0  0
 17 18  1  0  0  0  0
 17 34  1  0  0  0  0
 17 35  1  0  0  0  0
 18 19  1  0  0  0  0
 18 36  1  0  0  0  0
 18 37  1  0  0  0  0
 19 20  1  0  0  0  0
 19 38  1  0  0  0  0
 19 39  1  0  0  0  0
 20 40  1  0  0  0  0
 20 41  1  0  0  0  0
M  CHG  1  11  -1
M  END
> <s_m_source_file>
AV-unprocessed.smi

> <i_m_source_file_index>
2884

> <i_lp_mmshare_version>
43012

> <i_f3d_flags>
0

> <s_epik_input>
W0NIMl0xW0NIMl1bQ0gyXVtDSDJdW0NIMl1DMShPW0NIMl1bQ0gyXVtDSDNdKVtDSDJdW05IXWMyW2NIXW5bbkhdYyg9TyljMkNs

> <s_epik_cmdline>
J2VwaWtfcHl0aG9uJywgJy1waCcsICc3LjAnLCAnLXRuJywgJzgnLCAnLW1hJywgJzIwMCcsICctbWV0YWxfYmluZGluZycsICctaW1hZScsICc8aW5maWxlLm1hZT4nLCAnLW9tYWUnLCAnPG91dGZpbGUubWFlPic=

> <r_lp_tautomer_probability>
0.986175

> <r_epik_Ionization_Penalty>
3.75229

> <r_epik_Ionization_Penalty_Charging>
0.0129106

> <r_epik_Ionization_Penalty_Neutral>
3.73938

> <r_epik_State_Penalty>
3.73863

> <r_epik_Charging_Adjusted_Penalty>
3.75154

> <i_epik_Tot_Q>
-1

> <i_epik_Tot_abs_Q>
1

> <r_epik_Metal_State_Penalty>
0.55642

> <b_epik_Metal_Only>
1

> <s_lp_Force_Field>
OPLS_2005

> <r_lp_Energy>
41.2708

> <b_lp_Chiralities_Consistent>
1

> <s_lp_Variant>
AV-unprocessed.smi:2884-3

> <Gold.Version>
5.8.1

> <Gold.Id.Protein>
6NUR|6NUR_protein|mol2

> <Gold.PLP.Fitness>
46.7698

> <Gold.PLP.PLP>
-41.3894

> <Gold.PLP.part.hbond>
-2.4174

> <Gold.PLP.part.metal>
0.0000

> <Gold.PLP.part.buried>
-4.5037

> <Gold.PLP.part.nonpolar>
-33.8628

> <Gold.PLP.part.repulsive>
0.1693

> <Gold.PLP.ligand.clash>
0.0000

> <Gold.PLP.ligand.torsion>
0.0741

> <Gold.PLP.Chemscore.Hbond>
1.8358

> <Gold.PLP.Chemscore.CHOScore>
0.0000

> <Gold.PLP.Chemscore.Metal>
0.0000

> <Gold.Chemscore.Hbonds>
donor molecule, donor type, donor heavy atom, donor atom, acceptor molecule, acceptor atom, score
      P1  H  6896  6908       L1    10  0.79
      P1  H 10752 10765       L1    13  1.00

> <Gold.PLP.Chemscore.Internal.Correction>
0.0212

> <Gold.Rescore>
     Score         DG    S(hbond)    S(metal)    S(lipo)     H(rot)  DE(clash)    DE(int)     intcor
     19.68     -19.96       1.36        0.00     122.19       1.71       0.24       0.05       ----

> <Gold.Chemscore.Fitness>
19.6795

> <Gold.Chemscore.DG>
-19.9649

> <Gold.Chemscore.ZeroCoef>
-5.4800

> <Gold.Chemscore.Hbond>
1.3648

> <Gold.Chemscore.Metal>
0.0000

> <Gold.Chemscore.Lipo>
122.1873

> <Gold.Chemscore.Internal_Hbond>
0.0000

> <Gold.Chemscore.DEClash>
0.2360

> <Gold.Chemscore.DEInternal>
0.0495

> <Gold.Chemscore.Rot>
1.7068

> <Gold.Chemscore.Internal.Correction>
   9.000000E+99

> <Gold.Chemscore.Hbonds>
donor molecule, donor type, donor heavy atom, donor atom, acceptor molecule, acceptor atom, score
      P1  H  6896  6908       L1    10  0.15
      P1  H 10752 10765       L1    13  0.98

> <Gold.Chemscore.Hbond.Weighted>
-4.5584

> <Gold.Chemscore.Metal.Weighted>
-0.0000

> <Gold.Chemscore.Lipo.Weighted>
-14.2959

> <Gold.Chemscore.Internal_Hbond.Weighted>
0.0000

> <Gold.Chemscore.DEClash.Weighted>
0.2360

> <Gold.Chemscore.DEInternal.Weighted>
0.0495

> <Gold.Chemscore.Rot.Weighted>
4.3694

> <Gold.Chemscore.Internal.Correction.Weighted>
   9.000000E+99

> <Gold.Protein.RotatedTorsions>
[ 6907 6896 6895 6894 ] final -115.92 input  -60.11 | X-H torsion
[ 7974 7965 7964 7962 ] final  -57.61 input  175.53 | X-H torsion
[ 8008 7997 7996 7995 ] final  -66.39 input   59.86 | X-H torsion
[ 10167 10162 10161 10158 ] final -179.64 input  -65.29 | X-H torsion
[ 10718 10713 10712 10709 ] final   91.19 input   66.30 | X-H torsion
[ 10763 10752 10751 10750 ] final -173.35 input  -60.55 | X-H torsion
[ 11005 11000 10999 10996 ] final -175.59 input  -57.11 | X-H torsion

> <Gold.Protein.ActiveResidues>
 VAL166  LYS551  ARG553  GLY616  TRP617  ASP618  TYR619  PRO620  LYS621  CYS622 
 ASP623  PHE694  ASN695  SER759  ASP760  ASP761  ALA762  ILE779  LEU786  VAL792 
 PHE793  MET794  SER795  GLU796  ALA797  LYS798  CYS799  TRP800  GLU811  SER814 

> <Gold.Protein.RotatedAtoms>
  150.8015  133.8590  159.3226 H   0  0  0  0  0  0  0  0  0  0  0  0  # atno 6907 bound_to 6896
  151.6401  135.1012  160.0149 H   0  0  0  0  0  0  0  0  0  0  0  0  # atno 6908 bound_to 6896
  152.4103  133.6913  159.6426 H   0  0  0  0  0  0  0  0  0  0  0  0  # atno 6909 bound_to 6896
  145.8491  140.8365  142.9995 H   0  0  0  0  0  0  0  0  0  0  0  0  # atno 7974 bound_to 7965
  154.4731  140.0914  156.7195 H   0  0  0  0  0  0  0  0  0  0  0  0  # atno 8008 bound_to 7997
  155.4669  140.3463  155.4302 H   0  0  0  0  0  0  0  0  0  0  0  0  # atno 8009 bound_to 7997
  156.1072  140.1438  156.9376 H   0  0  0  0  0  0  0  0  0  0  0  0  # atno 8010 bound_to 7997
  139.5377  144.2450  152.0830 H   0  0  0  0  0  0  0  0  0  0  0  0  # atno 10167 bound_to 10162
  157.6960  131.0398  150.3692 H   0  0  0  0  0  0  0  0  0  0  0  0  # atno 10718 bound_to 10713
  154.6089  135.2862  155.0454 H   0  0  0  0  0  0  0  0  0  0  0  0  # atno 10763 bound_to 10752
  154.1692  135.6475  153.5009 H   0  0  0  0  0  0  0  0  0  0  0  0  # atno 10764 bound_to 10752
  153.0187  135.5397  154.6835 H   0  0  0  0  0  0  0  0  0  0  0  0  # atno 10765 bound_to 10752
  140.4616  134.6249  157.4845 H   0  0  0  0  0  0  0  0  0  0  0  0  # atno 11005 bound_to 11000
  144.6730  140.0926  143.7464 LP  0  0  0  0  0  0  0  0  0  0  0  0  # atno 17320 bound_to 7965
  145.9378  139.2649  143.1287 LP  0  0  0  0  0  0  0  0  0  0  0  0  # atno 17321 bound_to 7965
  140.1924  144.4739  150.6472 LP  0  0  0  0  0  0  0  0  0  0  0  0  # atno 17342 bound_to 10162
  140.6592  143.2247  151.5896 LP  0  0  0  0  0  0  0  0  0  0  0  0  # atno 17343 bound_to 10162
  156.4119  130.3936  149.6885 LP  0  0  0  0  0  0  0  0  0  0  0  0  # atno 17370 bound_to 10713
  156.4167  130.7748  151.2764 LP  0  0  0  0  0  0  0  0  0  0  0  0  # atno 17371 bound_to 10713
  139.9942  134.6938  155.9638 LP  0  0  0  0  0  0  0  0  0  0  0  0  # atno 17394 bound_to 11000
  141.1619  133.6538  156.4346 LP  0  0  0  0  0  0  0  0  0  0  0  0  # atno 17395 bound_to 11000

$$$$
