AV-unprocessed.smi:3112|AV-procd|sdf|11836|dock4
  -GOLD-   2272017213D 1   1.00000     0.00000
 Structure written by MMmdl.
 37 37  0  0  0  0  0  0  0  0  2 V2000
  146.9832  139.8811  152.1258 C   0  0  0  0  0  0  0  0  0  0  0  0
  146.9965  140.2931  153.6042 C   0  0  0  0  0  0  0  0  0  0  0  0
  148.1235  141.2813  153.9555 C   0  0  2  0  0  0  0  0  0  0  0  0
  149.3702  140.6468  153.7456 O   0  0  0  0  0  0  0  0  0  0  0  0
  148.0546  141.7330  155.4235 C   0  0  0  0  0  0  0  0  0  0  0  0
  149.4019  142.0468  155.9460 N   0  3  0  0  0  0  0  0  0  0  0  0
  149.7546  141.4190  157.2405 C   0  0  2  0  0  0  0  0  0  0  0  0
  148.9026  142.0677  158.3469 C   0  0  0  0  0  0  0  0  0  0  0  0
  151.2879  141.4707  157.5041 C   0  0  2  0  0  0  0  0  0  0  0  0
  151.8038  140.2392  158.2745 C   0  0  0  0  0  0  0  0  0  0  0  0
  151.7145  142.7223  158.1258 N   0  0  0  0  0  0  0  0  0  0  0  0
  151.5976  144.0004  157.6167 C   0  0  0  0  0  0  0  0  0  0  0  0
  152.0986  144.8629  158.5488 C   0  0  0  0  0  0  0  0  0  0  0  0
  152.4985  144.0117  159.6155 C   0  0  0  0  0  0  0  0  0  0  0  0
  152.2607  142.7351  159.3637 N   0  0  0  0  0  0  0  0  0  0  0  0
  146.1525  139.2057  151.9208 H   0  0  0  0  0  0  0  0  0  0  0  0
  147.9025  139.3663  151.8456 H   0  0  0  0  0  0  0  0  0  0  0  0
  146.8723  140.7489  151.4752 H   0  0  0  0  0  0  0  0  0  0  0  0
  146.0342  140.7493  153.8394 H   0  0  0  0  0  0  0  0  0  0  0  0
  147.0699  139.4033  154.2314 H   0  0  0  0  0  0  0  0  0  0  0  0
  148.0569  142.1521  153.3017 H   0  0  0  0  0  0  0  0  0  0  0  0
  149.2902  140.0643  153.0049 H   0  0  0  0  0  0  0  0  0  0  0  0
  147.4383  142.6292  155.5058 H   0  0  0  0  0  0  0  0  0  0  0  0
  147.5745  140.9608  156.0243 H   0  0  0  0  0  0  0  0  0  0  0  0
  150.0913  141.7775  155.2583 H   0  0  0  0  0  0  0  0  0  0  0  0
  149.4545  140.3715  157.1844 H   0  0  0  0  0  0  0  0  0  0  0  0
  149.0967  141.6214  159.3217 H   0  0  0  0  0  0  0  0  0  0  0  0
  147.8396  141.9355  158.1425 H   0  0  0  0  0  0  0  0  0  0  0  0
  149.0846  143.1393  158.4261 H   0  0  0  0  0  0  0  0  0  0  0  0
  151.7960  141.4268  156.5412 H   0  0  0  0  0  0  0  0  0  0  0  0
  151.5488  139.3173  157.7514 H   0  0  0  0  0  0  0  0  0  0  0  0
  151.3886  140.1724  159.2800 H   0  0  0  0  0  0  0  0  0  0  0  0
  152.8896  140.2687  158.3711 H   0  0  0  0  0  0  0  0  0  0  0  0
  151.1717  144.1894  156.6421 H   0  0  0  0  0  0  0  0  0  0  0  0
  152.1677  145.9385  158.4796 H   0  0  0  0  0  0  0  0  0  0  0  0
  152.9472  144.2817  160.5603 H   0  0  0  0  0  0  0  0  0  0  0  0
  149.4497  143.0484  156.0660 H   0  0  0  0  0  0  0  0  0  0  0  0
  1  2  1  0  0  0  0
  1 16  1  0  0  0  0
  1 17  1  0  0  0  0
  1 18  1  0  0  0  0
  2  3  1  0  0  0  0
  2 19  1  0  0  0  0
  2 20  1  0  0  0  0
  3  4  1  0  0  0  0
  3  5  1  0  0  0  0
  3 21  1  0  0  0  0
  4 22  1  0  0  0  0
  5  6  1  0  0  0  0
  5 23  1  0  0  0  0
  5 24  1  0  0  0  0
  6  7  1  0  0  0  0
  6 25  1  0  0  0  0
  6 37  1  0  0  0  0
  7  8  1  0  0  0  0
  7  9  1  0  0  0  0
  7 26  1  0  0  0  0
  8 27  1  0  0  0  0
  8 28  1  0  0  0  0
  8 29  1  0  0  0  0
  9 10  1  0  0  0  0
  9 11  1  0  0  0  0
  9 30  1  0  0  0  0
 10 31  1  0  0  0  0
 10 32  1  0  0  0  0
 10 33  1  0  0  0  0
 11 15  1  0  0  0  0
 11 12  1  0  0  0  0
 12 13  2  0  0  0  0
 12 34  1  0  0  0  0
 13 14  1  0  0  0  0
 13 35  1  0  0  0  0
 14 15  2  0  0  0  0
 14 36  1  0  0  0  0
M  CHG  1   6   1
M  END
> <s_m_source_file>
AV-unprocessed.smi

> <i_m_source_file_index>
3112

> <i_lp_mmshare_version>
43012

> <i_f3d_flags>
0

> <s_epik_input>
W0NIM11bQ0gyXVtDQEhdKFtPSF0pW0NIMl1bTkhdW0NASF0oW0NIM10pW0NASF0oW0NIM10pbjFbY0hdW2NIXVtjSF1uMQ==

> <s_epik_cmdline>
J2VwaWtfcHl0aG9uJywgJy1waCcsICc3LjAnLCAnLXRuJywgJzgnLCAnLW1hJywgJzIwMCcsICctbWV0YWxfYmluZGluZycsICctaW1hZScsICc8aW5maWxlLm1hZT4nLCAnLW9tYWUnLCAnPG91dGZpbGUubWFlPic=

> <r_lp_tautomer_probability>
1

> <r_epik_Ionization_Penalty>
0.0154842

> <r_epik_Ionization_Penalty_Charging>
0.0154724

> <r_epik_Ionization_Penalty_Neutral>
1.17979e-05

> <r_epik_State_Penalty>
0.0121607

> <r_epik_Charging_Adjusted_Penalty>
0.0276331

> <i_epik_Tot_Q>
1

> <i_epik_Tot_abs_Q>
1

> <r_epik_Metal_State_Penalty>
0.0121863

> <b_epik_Metal_Only>
0

> <s_lp_Force_Field>
OPLS_2005

> <r_lp_Energy>
12.3071

> <b_lp_Chiralities_Consistent>
1

> <s_lp_Variant>
AV-unprocessed.smi:3112-1

> <Gold.Version>
5.8.1

> <Gold.Id.Protein>
6NUR|6NUR_protein|mol2

> <Gold.PLP.Fitness>
45.0889

> <Gold.PLP.PLP>
-35.1961

> <Gold.PLP.part.hbond>
-3.9870

> <Gold.PLP.part.metal>
0.0000

> <Gold.PLP.part.buried>
0.4095

> <Gold.PLP.part.nonpolar>
-31.0156

> <Gold.PLP.part.repulsive>
0.1302

> <Gold.PLP.ligand.clash>
0.0000

> <Gold.PLP.ligand.torsion>
1.6008

> <Gold.PLP.Chemscore.Hbond>
3.2909

> <Gold.PLP.Chemscore.CHOScore>
1.0000

> <Gold.PLP.Chemscore.Metal>
0.0000

> <Gold.Chemscore.Hbonds>
donor molecule, donor type, donor heavy atom, donor atom, acceptor molecule, acceptor atom, score
      L1  H     4    22       P1  7957  0.80
      L1  H     6    37       P1  8028  2.00
      P1  H  7989  7998       L1     4  0.14
      P1  H  8011  8017       L1     4  0.04
      L1  C    12    34       P1  8028  1.00

> <Gold.PLP.Chemscore.Internal.Correction>
0.2216

> <Gold.Rescore>
     Score         DG    S(hbond)    S(metal)    S(lipo)     H(rot)  DE(clash)    DE(int)     intcor
     14.14     -16.15       1.91        0.00      89.29       2.41       0.68       1.33       ----

> <Gold.Chemscore.Fitness>
14.1432

> <Gold.Chemscore.DG>
-16.1527

> <Gold.Chemscore.ZeroCoef>
-5.4800

> <Gold.Chemscore.Hbond>
1.9140

> <Gold.Chemscore.Metal>
0.0000

> <Gold.Chemscore.Lipo>
89.2884

> <Gold.Chemscore.Internal_Hbond>
0.0000

> <Gold.Chemscore.DEClash>
0.6774

> <Gold.Chemscore.DEInternal>
1.3320

> <Gold.Chemscore.Rot>
2.4089

> <Gold.Chemscore.Internal.Correction>
   9.000000E+99

> <Gold.Chemscore.Hbonds>
donor molecule, donor type, donor heavy atom, donor atom, acceptor molecule, acceptor atom, score
      L1  H     4    22       P1  7957  0.80
      L1  H     6    37       P1  8028  0.95
      P1  H  7989  7998       L1     4  0.01

> <Gold.Chemscore.Hbond.Weighted>
-6.3926

> <Gold.Chemscore.Metal.Weighted>
-0.0000

> <Gold.Chemscore.Lipo.Weighted>
-10.4467

> <Gold.Chemscore.Internal_Hbond.Weighted>
0.0000

> <Gold.Chemscore.DEClash.Weighted>
0.6774

> <Gold.Chemscore.DEInternal.Weighted>
1.3320

> <Gold.Chemscore.Rot.Weighted>
6.1667

> <Gold.Chemscore.Internal.Correction.Weighted>
   9.000000E+99

> <Gold.Protein.RotatedTorsions>
[ 6907 6896 6895 6894 ] final -145.93 input  -60.11 | X-H torsion
[ 7974 7965 7964 7962 ] final   -6.76 input  175.53 | X-H torsion
[ 8008 7997 7996 7995 ] final    5.90 input   59.86 | X-H torsion
[ 10167 10162 10161 10158 ] final  134.11 input  -65.29 | X-H torsion
[ 10718 10713 10712 10709 ] final  149.98 input   66.30 | X-H torsion
[ 10763 10752 10751 10750 ] final   22.64 input  -60.55 | X-H torsion
[ 11005 11000 10999 10996 ] final  167.28 input  -57.11 | X-H torsion

> <Gold.Protein.ActiveResidues>
 VAL166  LYS551  ARG553  GLY616  TRP617  ASP618  TYR619  PRO620  LYS621  CYS622 
 ASP623  PHE694  ASN695  SER759  ASP760  ASP761  ALA762  ILE779  LEU786  VAL792 
 PHE793  MET794  SER795  GLU796  ALA797  LYS798  CYS799  TRP800  GLU811  SER814 

> <Gold.Protein.RotatedAtoms>
  151.1346  133.5013  159.2598 H   0  0  0  0  0  0  0  0  0  0  0  0  # atno 6907 bound_to 6896
  151.1721  135.0322  159.8766 H   0  0  0  0  0  0  0  0  0  0  0  0  # atno 6908 bound_to 6896
  152.5461  134.1208  159.8451 H   0  0  0  0  0  0  0  0  0  0  0  0  # atno 6909 bound_to 6896
  146.2323  140.2218  142.8337 H   0  0  0  0  0  0  0  0  0  0  0  0  # atno 7974 bound_to 7965
  154.7343  140.2736  155.6429 H   0  0  0  0  0  0  0  0  0  0  0  0  # atno 8008 bound_to 7997
  156.2857  140.2709  156.1977 H   0  0  0  0  0  0  0  0  0  0  0  0  # atno 8009 bound_to 7997
  155.0341  140.0371  157.2475 H   0  0  0  0  0  0  0  0  0  0  0  0  # atno 8010 bound_to 7997
  139.5269  144.6583  151.5093 H   0  0  0  0  0  0  0  0  0  0  0  0  # atno 10167 bound_to 10162
  157.2893  131.0850  151.1474 H   0  0  0  0  0  0  0  0  0  0  0  0  # atno 10718 bound_to 10713
  153.0900  135.6644  153.9873 H   0  0  0  0  0  0  0  0  0  0  0  0  # atno 10763 bound_to 10752
  153.9472  135.2987  155.3441 H   0  0  0  0  0  0  0  0  0  0  0  0  # atno 10764 bound_to 10752
  154.7313  135.5121  153.9042 H   0  0  0  0  0  0  0  0  0  0  0  0  # atno 10765 bound_to 10752
  140.2752  134.7795  157.3710 H   0  0  0  0  0  0  0  0  0  0  0  0  # atno 11005 bound_to 11000
  144.9626  140.8290  143.5504 LP  0  0  0  0  0  0  0  0  0  0  0  0  # atno 17320 bound_to 7965
  145.2190  139.2168  143.5103 LP  0  0  0  0  0  0  0  0  0  0  0  0  # atno 17321 bound_to 7965
  140.6419  143.8872  150.6700 LP  0  0  0  0  0  0  0  0  0  0  0  0  # atno 17342 bound_to 10162
  140.2209  143.3810  152.1644 LP  0  0  0  0  0  0  0  0  0  0  0  0  # atno 17343 bound_to 10162
  157.2877  130.6781  149.6098 LP  0  0  0  0  0  0  0  0  0  0  0  0  # atno 17370 bound_to 10713
  155.9666  130.4430  150.5405 LP  0  0  0  0  0  0  0  0  0  0  0  0  # atno 17371 bound_to 10713
  140.1335  134.5064  155.8086 LP  0  0  0  0  0  0  0  0  0  0  0  0  # atno 17394 bound_to 11000
  141.2171  133.6799  156.7083 LP  0  0  0  0  0  0  0  0  0  0  0  0  # atno 17395 bound_to 11000

$$$$
