AV-unprocessed.smi:193|AV-procd|sdf|1502|dock6
  -GOLD-   2262019333D 1   1.00000     0.00000
 Structure written by MMmdl.
 62 66  0  0  0  0  0  0  0  0  2 V2000
  149.2305  141.6556  155.1252 C   0  0  0  0  0  0  0  0  0  0  0  0
  150.3122  141.1859  156.1099 C   0  0  2  0  0  0  0  0  0  0  0  0
  149.7502  140.1195  157.0697 C   0  0  0  0  0  0  0  0  0  0  0  0
  150.7867  139.1900  157.5150 N   0  0  0  0  0  0  0  0  0  0  0  0
  150.2878  137.9888  157.8739 C   0  0  0  0  0  0  0  0  0  0  0  0
  149.8066  137.8623  159.1343 N   0  0  0  0  0  0  0  0  0  0  0  0
  149.3053  136.6910  159.5401 C   0  0  0  0  0  0  0  0  0  0  0  0
  149.1923  135.5491  158.8572 N   0  0  0  0  0  0  0  0  0  0  0  0
  149.6754  135.6780  157.5878 C   0  0  0  0  0  0  0  0  0  0  0  0
  150.2382  136.8536  157.0182 C   0  0  0  0  0  0  0  0  0  0  0  0
  150.6234  136.6111  155.7054 N   0  0  0  0  0  0  0  0  0  0  0  0
  150.3026  135.3608  155.5087 C   0  0  0  0  0  0  0  0  0  0  0  0
  149.7229  134.7261  156.5845 N   0  0  0  0  0  0  0  0  0  0  0  0
  149.2682  133.3447  156.6397 C   0  0  0  0  0  0  0  0  0  0  0  0
  150.4161  132.3051  156.6129 C   0  0  0  0  0  0  0  0  0  0  0  0
  151.5813  132.9389  157.1123 O   0  0  0  0  0  0  0  0  0  0  0  0
  150.0832  131.1090  157.5278 C   0  0  0  0  0  0  0  0  0  0  0  0
  151.1165  129.9751  157.4004 C   0  0  0  0  0  0  0  0  0  0  0  0
  151.2307  129.5708  156.0416 O   0  0  0  0  0  0  0  0  0  0  0  0
  151.7080  130.6106  155.1969 C   0  0  0  0  0  0  0  0  0  0  0  0
  150.7145  131.7858  155.1892 C   0  0  0  0  0  0  0  0  0  0  0  0
  151.8237  139.6522  158.4325 C   0  0  0  0  0  0  0  0  0  0  0  0
  152.5828  140.8903  157.9315 C   0  0  0  0  0  0  0  0  0  0  0  0
  151.7321  142.0995  158.0429 N   0  3  1  0  0  0  0  0  0  0  0  0
  152.4910  143.2818  158.5144 C   0  0  1  0  0  0  0  0  0  0  0  0
  151.8530  143.9957  159.6851 C   0  0  0  0  0  0  0  0  0  0  0  0
  153.0893  143.1507  159.9038 C   0  0  1  0  0  0  0  0  0  0  0  0
  153.0096  141.8802  160.7306 C   0  0  0  0  0  0  0  0  0  0  0  0
  150.9277  142.4084  156.8311 C   0  0  0  0  0  0  0  0  0  0  0  0
  148.3927  142.1201  155.6460 H   0  0  0  0  0  0  0  0  0  0  0  0
  148.8380  140.8206  154.5437 H   0  0  0  0  0  0  0  0  0  0  0  0
  149.6303  142.3844  154.4193 H   0  0  0  0  0  0  0  0  0  0  0  0
  151.0871  140.7151  155.5028 H   0  0  0  0  0  0  0  0  0  0  0  0
  149.2644  140.5887  157.9263 H   0  0  0  0  0  0  0  0  0  0  0  0
  148.9768  139.5481  156.5526 H   0  0  0  0  0  0  0  0  0  0  0  0
  148.9435  136.6643  160.5575 H   0  0  0  0  0  0  0  0  0  0  0  0
  150.4754  134.8636  154.5651 H   0  0  0  0  0  0  0  0  0  0  0  0
  148.6638  133.2203  157.5394 H   0  0  0  0  0  0  0  0  0  0  0  0
  148.5941  133.1775  155.7985 H   0  0  0  0  0  0  0  0  0  0  0  0
  151.6744  133.7754  156.6825 H   0  0  0  0  0  0  0  0  0  0  0  0
  150.0070  131.4304  158.5675 H   0  0  0  0  0  0  0  0  0  0  0  0
  149.1034  130.7117  157.2596 H   0  0  0  0  0  0  0  0  0  0  0  0
  152.0904  130.2835  157.7836 H   0  0  0  0  0  0  0  0  0  0  0  0
  150.8025  129.1172  157.9951 H   0  0  0  0  0  0  0  0  0  0  0  0
  152.6974  130.9344  155.5235 H   0  0  0  0  0  0  0  0  0  0  0  0
  151.8241  130.2162  154.1873 H   0  0  0  0  0  0  0  0  0  0  0  0
  149.7851  131.4495  154.7281 H   0  0  0  0  0  0  0  0  0  0  0  0
  151.0995  132.5852  154.5551 H   0  0  0  0  0  0  0  0  0  0  0  0
  151.3911  139.8532  159.4131 H   0  0  0  0  0  0  0  0  0  0  0  0
  152.5404  138.8413  158.5729 H   0  0  0  0  0  0  0  0  0  0  0  0
  153.4569  141.0119  158.5729 H   0  0  0  0  0  0  0  0  0  0  0  0
  152.9725  140.7590  156.9213 H   0  0  0  0  0  0  0  0  0  0  0  0
  153.0035  143.8551  157.7438 H   0  0  0  0  0  0  0  0  0  0  0  0
  151.9742  145.0756  159.7423 H   0  0  0  0  0  0  0  0  0  0  0  0
  150.9082  143.6161  160.0705 H   0  0  0  0  0  0  0  0  0  0  0  0
  154.0164  143.6995  160.0584 H   0  0  0  0  0  0  0  0  0  0  0  0
  152.0254  141.4169  160.6552 H   0  0  0  0  0  0  0  0  0  0  0  0
  153.1970  142.1087  161.7800 H   0  0  0  0  0  0  0  0  0  0  0  0
  153.7607  141.1652  160.3943 H   0  0  0  0  0  0  0  0  0  0  0  0
  151.5476  142.9566  156.1200 H   0  0  0  0  0  0  0  0  0  0  0  0
  150.1332  143.0916  157.1338 H   0  0  0  0  0  0  0  0  0  0  0  0
  151.0693  141.8905  158.7758 H   0  0  0  0  0  0  0  0  0  0  0  0
  1  2  1  0  0  0  0
  1 30  1  0  0  0  0
  1 31  1  0  0  0  0
  1 32  1  0  0  0  0
  2 29  1  0  0  0  0
  2  3  1  0  0  0  0
  2 33  1  0  0  0  0
  3  4  1  0  0  0  0
  3 34  1  0  0  0  0
  3 35  1  0  0  0  0
  4  5  1  0  0  0  0
  4 22  1  0  0  0  0
  5 10  1  0  0  0  0
  5  6  2  0  0  0  0
  6  7  1  0  0  0  0
  7  8  2  0  0  0  0
  7 36  1  0  0  0  0
  8  9  1  0  0  0  0
  9 13  1  0  0  0  0
  9 10  2  0  0  0  0
 10 11  1  0  0  0  0
 11 12  2  0  0  0  0
 12 13  1  0  0  0  0
 12 37  1  0  0  0  0
 13 14  1  0  0  0  0
 14 15  1  0  0  0  0
 14 38  1  0  0  0  0
 14 39  1  0  0  0  0
 15 21  1  0  0  0  0
 15 16  1  0  0  0  0
 15 17  1  0  0  0  0
 16 40  1  0  0  0  0
 17 18  1  0  0  0  0
 17 41  1  0  0  0  0
 17 42  1  0  0  0  0
 18 19  1  0  0  0  0
 18 43  1  0  0  0  0
 18 44  1  0  0  0  0
 19 20  1  0  0  0  0
 20 21  1  0  0  0  0
 20 45  1  0  0  0  0
 20 46  1  0  0  0  0
 21 47  1  0  0  0  0
 21 48  1  0  0  0  0
 22 23  1  0  0  0  0
 22 49  1  0  0  0  0
 22 50  1  0  0  0  0
 23 24  1  0  0  0  0
 23 51  1  0  0  0  0
 23 52  1  0  0  0  0
 24 25  1  0  0  0  0
 24 29  1  0  0  0  0
 24 62  1  0  0  0  0
 25 27  1  0  0  0  0
 25 26  1  0  0  0  0
 25 53  1  0  0  0  0
 26 27  1  0  0  0  0
 26 54  1  0  0  0  0
 26 55  1  0  0  0  0
 27 28  1  0  0  0  0
 27 56  1  0  0  0  0
 28 57  1  0  0  0  0
 28 58  1  0  0  0  0
 28 59  1  0  0  0  0
 29 60  1  0  0  0  0
 29 61  1  0  0  0  0
M  CHG  1  24   1
M  END
> <s_m_source_file>
AV-unprocessed.smi

> <i_m_source_file_index>
193

> <i_lp_mmshare_version>
43012

> <i_f3d_flags>
0

> <s_epik_input>
W0NIM11bQ0BASF0xW0NIMl1bQ0BIXTFOKFtDSDJdMilbQ0gyXVtDSDJdTihbQ0gyXVtDQEhdMltDSDNdKWMobltjSF1uMyljKGMzNCluW2NIXW40W0NIMl1DNShbT0hdKVtDSDJdW0NIMl1PW0NIMl1bQ0gyXTU=

> <s_epik_cmdline>
J2VwaWtfcHl0aG9uJywgJy1waCcsICc3LjAnLCAnLXRuJywgJzgnLCAnLW1hJywgJzIwMCcsICctbWV0YWxfYmluZGluZycsICctaW1hZScsICc8aW5maWxlLm1hZT4nLCAnLW9tYWUnLCAnPG91dGZpbGUubWFlPic=

> <r_lp_tautomer_probability>
1

> <r_epik_Ionization_Penalty>
0.0540825

> <r_epik_Ionization_Penalty_Charging>
0.0538476

> <r_epik_Ionization_Penalty_Neutral>
0.000234891

> <r_epik_State_Penalty>
0.0200719

> <r_epik_Charging_Adjusted_Penalty>
0.0739194

> <i_epik_Tot_Q>
1

> <i_epik_Tot_abs_Q>
1

> <r_epik_Metal_State_Penalty>
0.0199414

> <b_epik_Metal_Only>
0

> <s_lp_Force_Field>
OPLS_2005

> <r_lp_Energy>
58.7768

> <b_lp_Chiralities_Consistent>
1

> <s_lp_Variant>
AV-unprocessed.smi:193-7

> <Gold.Version>
5.8.1

> <Gold.Id.Protein>
6NUR|6NUR_protein|mol2

> <Gold.PLP.Fitness>
43.6120

> <Gold.PLP.PLP>
-41.4162

> <Gold.PLP.part.hbond>
-2.4932

> <Gold.PLP.part.metal>
0.0000

> <Gold.PLP.part.buried>
-5.5350

> <Gold.PLP.part.nonpolar>
-33.6801

> <Gold.PLP.part.repulsive>
0.1258

> <Gold.PLP.ligand.clash>
0.0154

> <Gold.PLP.ligand.torsion>
1.8589

> <Gold.PLP.Chemscore.Hbond>
1.4500

> <Gold.PLP.Chemscore.CHOScore>
0.0000

> <Gold.PLP.Chemscore.Metal>
0.0000

> <Gold.Chemscore.Hbonds>
donor molecule, donor type, donor heavy atom, donor atom, acceptor molecule, acceptor atom, score
      P1  H  6896  6907       L1     8  0.76
      P1  H  6896  6909       L1    16  0.43

> <Gold.PLP.Chemscore.Internal.Correction>
1.5791

> <Gold.Rescore>
     Score         DG    S(hbond)    S(metal)    S(lipo)     H(rot)  DE(clash)    DE(int)     intcor
     12.27     -15.23       0.62        0.00     113.83       2.20       0.00       2.96       ----

> <Gold.Chemscore.Fitness>
12.2734

> <Gold.Chemscore.DG>
-15.2348

> <Gold.Chemscore.ZeroCoef>
-5.4800

> <Gold.Chemscore.Hbond>
0.6208

> <Gold.Chemscore.Metal>
0.0000

> <Gold.Chemscore.Lipo>
113.8267

> <Gold.Chemscore.Internal_Hbond>
0.0000

> <Gold.Chemscore.DEClash>
0.0029

> <Gold.Chemscore.DEInternal>
2.9585

> <Gold.Chemscore.Rot>
2.2018

> <Gold.Chemscore.Internal.Correction>
   9.000000E+99

> <Gold.Chemscore.Hbonds>
donor molecule, donor type, donor heavy atom, donor atom, acceptor molecule, acceptor atom, score
      P1  H  6896  6907       L1     8  0.03
      P1  H  6896  6909       L1    16  0.25

> <Gold.Chemscore.Hbond.Weighted>
-2.0736

> <Gold.Chemscore.Metal.Weighted>
-0.0000

> <Gold.Chemscore.Lipo.Weighted>
-13.3177

> <Gold.Chemscore.Internal_Hbond.Weighted>
0.0000

> <Gold.Chemscore.DEClash.Weighted>
0.0029

> <Gold.Chemscore.DEInternal.Weighted>
2.9585

> <Gold.Chemscore.Rot.Weighted>
5.6366

> <Gold.Chemscore.Internal.Correction.Weighted>
   9.000000E+99

> <Gold.Protein.RotatedTorsions>
[ 6907 6896 6895 6894 ] final  -64.59 input  -60.11 | X-H torsion
[ 7974 7965 7964 7962 ] final  -42.31 input  175.53 | X-H torsion
[ 8008 7997 7996 7995 ] final   12.44 input   59.86 | X-H torsion
[ 10167 10162 10161 10158 ] final  141.77 input  -65.29 | X-H torsion
[ 10718 10713 10712 10709 ] final  -91.29 input   66.30 | X-H torsion
[ 10763 10752 10751 10750 ] final  102.92 input  -60.55 | X-H torsion
[ 11005 11000 10999 10996 ] final   21.18 input  -57.11 | X-H torsion

> <Gold.Protein.ActiveResidues>
 VAL166  LYS551  ARG553  GLY616  TRP617  ASP618  TYR619  PRO620  LYS621  CYS622 
 ASP623  PHE694  ASN695  SER759  ASP760  ASP761  ALA762  ILE779  LEU786  VAL792 
 PHE793  MET794  SER795  GLU796  ALA797  LYS798  CYS799  TRP800  GLU811  SER814 

> <Gold.Protein.RotatedAtoms>
  150.7576  134.6278  159.6169 H   0  0  0  0  0  0  0  0  0  0  0  0  # atno 6907 bound_to 6896
  152.3565  134.6930  160.0229 H   0  0  0  0  0  0  0  0  0  0  0  0  # atno 6908 bound_to 6896
  151.7334  133.3282  159.3383 H   0  0  0  0  0  0  0  0  0  0  0  0  # atno 6909 bound_to 6896
  146.0128  140.6943  142.9216 H   0  0  0  0  0  0  0  0  0  0  0  0  # atno 7974 bound_to 7965
  154.8206  140.2883  155.5789 H   0  0  0  0  0  0  0  0  0  0  0  0  # atno 8008 bound_to 7997
  156.2997  140.2551  156.3043 H   0  0  0  0  0  0  0  0  0  0  0  0  # atno 8009 bound_to 7997
  154.9343  140.0383  157.2053 H   0  0  0  0  0  0  0  0  0  0  0  0  # atno 8010 bound_to 7997
  139.5011  144.6150  151.6185 H   0  0  0  0  0  0  0  0  0  0  0  0  # atno 10167 bound_to 10162
  155.9993  130.4942  150.5453 H   0  0  0  0  0  0  0  0  0  0  0  0  # atno 10718 bound_to 10713
  153.3459  135.3994  155.1608 H   0  0  0  0  0  0  0  0  0  0  0  0  # atno 10763 bound_to 10752
  154.8653  135.3645  154.5285 H   0  0  0  0  0  0  0  0  0  0  0  0  # atno 10764 bound_to 10752
  153.5733  135.7078  153.5555 H   0  0  0  0  0  0  0  0  0  0  0  0  # atno 10765 bound_to 10752
  140.3945  134.1784  155.7663 H   0  0  0  0  0  0  0  0  0  0  0  0  # atno 11005 bound_to 11000
  144.6959  140.3429  143.7196 LP  0  0  0  0  0  0  0  0  0  0  0  0  # atno 17320 bound_to 7965
  145.7315  139.1737  143.2427 LP  0  0  0  0  0  0  0  0  0  0  0  0  # atno 17321 bound_to 7965
  140.5835  143.9904  150.6282 LP  0  0  0  0  0  0  0  0  0  0  0  0  # atno 17342 bound_to 10162
  140.3061  143.3228  152.0924 LP  0  0  0  0  0  0  0  0  0  0  0  0  # atno 17343 bound_to 10162
  157.3383  131.0712  151.1807 LP  0  0  0  0  0  0  0  0  0  0  0  0  # atno 17370 bound_to 10713
  157.2665  130.6683  149.5999 LP  0  0  0  0  0  0  0  0  0  0  0  0  # atno 17371 bound_to 10713
  141.1879  133.8271  157.1014 LP  0  0  0  0  0  0  0  0  0  0  0  0  # atno 17394 bound_to 11000
  140.0382  134.9867  157.0911 LP  0  0  0  0  0  0  0  0  0  0  0  0  # atno 17395 bound_to 11000

$$$$
