AV-unprocessed.smi:80|AV-procd|sdf|785|dock8
  -GOLD-   2262017153D 1   1.00000     0.00000
 Structure written by MMmdl.
 51 54  0  0  0  0  0  0  0  0  1 V2000
  147.5354  133.5907  162.1446 N   0  0  0  0  0  0  0  0  0  0  0  0
  146.7661  134.4286  161.9316 C   0  0  0  0  0  0  0  0  0  0  0  0
  145.7863  135.4930  161.6577 C   0  0  0  0  0  0  0  0  0  0  0  0
  146.3434  136.6332  160.7951 C   0  0  0  0  0  0  0  0  0  0  0  0
  147.3994  137.1720  161.1291 O   0  0  0  0  0  0  0  0  0  0  0  0
  145.6512  137.0120  159.6954 N   0  0  0  0  0  0  0  0  0  0  0  0
  146.0785  138.0403  158.7385 C   0  0  0  0  0  0  0  0  0  0  0  0
  146.4226  137.3574  157.4026 C   0  0  0  0  0  0  0  0  0  0  0  0
  145.2952  136.5540  156.9328 N   0  0  0  0  0  0  0  0  0  0  0  0
  145.4856  136.0206  155.7088 C   0  0  0  0  0  0  0  0  0  0  0  0
  146.7657  135.8766  155.2886 N   0  0  0  0  0  0  0  0  0  0  0  0
  147.0167  135.3514  154.0854 C   0  0  0  0  0  0  0  0  0  0  0  0
  146.1511  134.9137  153.1680 N   0  0  0  0  0  0  0  0  0  0  0  0
  144.8616  135.0559  153.5910 C   0  0  0  0  0  0  0  0  0  0  0  0
  144.4420  135.5998  154.8375 C   0  0  0  0  0  0  0  0  0  0  0  0
  143.0551  135.5954  154.9152 N   0  0  0  0  0  0  0  0  0  0  0  0
  142.6757  135.0829  153.7765 C   0  0  0  0  0  0  0  0  0  0  0  0
  143.6957  134.7148  152.9261 N   0  0  0  0  0  0  0  0  0  0  0  0
  143.5684  134.1500  151.6119 C   0  0  0  0  0  0  0  0  0  0  0  0
  143.7783  132.6515  151.3896 C   0  0  0  0  0  0  0  0  0  0  0  0
  144.4412  132.9351  150.0221 C   0  0  0  0  0  0  0  0  0  0  0  0
  145.7470  132.1623  149.7815 C   0  0  0  0  0  0  0  0  0  0  0  0
  146.6777  132.3823  150.8219 O   0  0  0  0  0  0  0  0  0  0  0  0
  143.5534  132.7267  148.7751 C   0  0  0  0  0  0  0  0  0  0  0  0
  143.3639  133.9068  148.0211 O   0  0  0  0  0  0  0  0  0  0  0  0
  144.6195  134.3867  150.5228 C   0  0  0  0  0  0  0  0  0  0  0  0
  144.7383  135.6145  157.9056 C   0  0  0  0  0  0  0  0  0  0  0  0
  144.4356  136.3276  159.2373 C   0  0  0  0  0  0  0  0  0  0  0  0
  144.9338  135.0307  161.1594 H   0  0  0  0  0  0  0  0  0  0  0  0
  145.4532  135.8810  162.6207 H   0  0  0  0  0  0  0  0  0  0  0  0
  145.2633  138.7506  158.5933 H   0  0  0  0  0  0  0  0  0  0  0  0
  146.9255  138.6329  159.0797 H   0  0  0  0  0  0  0  0  0  0  0  0
  146.6736  138.1099  156.6540 H   0  0  0  0  0  0  0  0  0  0  0  0
  147.3017  136.7243  157.5290 H   0  0  0  0  0  0  0  0  0  0  0  0
  148.0604  135.2687  153.8198 H   0  0  0  0  0  0  0  0  0  0  0  0
  141.6316  134.9623  153.5278 H   0  0  0  0  0  0  0  0  0  0  0  0
  142.5884  134.4527  151.2410 H   0  0  0  0  0  0  0  0  0  0  0  0
  144.4668  132.2192  152.1174 H   0  0  0  0  0  0  0  0  0  0  0  0
  142.8547  132.0736  151.3421 H   0  0  0  0  0  0  0  0  0  0  0  0
  145.5593  131.0895  149.7269 H   0  0  0  0  0  0  0  0  0  0  0  0
  146.2038  132.4438  148.8322 H   0  0  0  0  0  0  0  0  0  0  0  0
  147.4990  131.9825  150.5796 H   0  0  0  0  0  0  0  0  0  0  0  0
  143.9871  131.9820  148.1073 H   0  0  0  0  0  0  0  0  0  0  0  0
  142.5689  132.3540  149.0597 H   0  0  0  0  0  0  0  0  0  0  0  0
  144.2091  134.2931  147.8492 H   0  0  0  0  0  0  0  0  0  0  0  0
  144.3456  135.1537  149.7975 H   0  0  0  0  0  0  0  0  0  0  0  0
  145.6181  134.5723  150.9197 H   0  0  0  0  0  0  0  0  0  0  0  0
  143.8256  135.1706  157.5062 H   0  0  0  0  0  0  0  0  0  0  0  0
  145.4421  134.7992  158.0770 H   0  0  0  0  0  0  0  0  0  0  0  0
  144.0522  135.6091  159.9630 H   0  0  0  0  0  0  0  0  0  0  0  0
  143.6424  137.0632  159.0963 H   0  0  0  0  0  0  0  0  0  0  0  0
  1  2  3  0  0  0  0
  2  3  1  0  0  0  0
  3  4  1  0  0  0  0
  3 29  1  0  0  0  0
  3 30  1  0  0  0  0
  4  5  2  0  0  0  0
  4  6  1  0  0  0  0
  6 28  1  0  0  0  0
  6  7  1  0  0  0  0
  7  8  1  0  0  0  0
  7 31  1  0  0  0  0
  7 32  1  0  0  0  0
  8  9  1  0  0  0  0
  8 33  1  0  0  0  0
  8 34  1  0  0  0  0
  9 10  1  0  0  0  0
  9 27  1  0  0  0  0
 10 15  1  0  0  0  0
 10 11  2  0  0  0  0
 11 12  1  0  0  0  0
 12 13  2  0  0  0  0
 12 35  1  0  0  0  0
 13 14  1  0  0  0  0
 14 18  1  0  0  0  0
 14 15  2  0  0  0  0
 15 16  1  0  0  0  0
 16 17  2  0  0  0  0
 17 18  1  0  0  0  0
 17 36  1  0  0  0  0
 18 19  1  0  0  0  0
 19 26  1  0  0  0  0
 19 20  1  0  0  0  0
 19 37  1  0  0  0  0
 20 21  1  0  0  0  0
 20 38  1  0  0  0  0
 20 39  1  0  0  0  0
 21 22  1  0  0  0  0
 21 24  1  0  0  0  0
 21 26  1  0  0  0  0
 22 23  1  0  0  0  0
 22 40  1  0  0  0  0
 22 41  1  0  0  0  0
 23 42  1  0  0  0  0
 24 25  1  0  0  0  0
 24 43  1  0  0  0  0
 24 44  1  0  0  0  0
 25 45  1  0  0  0  0
 26 46  1  0  0  0  0
 26 47  1  0  0  0  0
 27 28  1  0  0  0  0
 27 48  1  0  0  0  0
 27 49  1  0  0  0  0
 28 50  1  0  0  0  0
 28 51  1  0  0  0  0
M  END
> <s_m_source_file>
AV-unprocessed.smi

> <i_m_source_file_index>
80

> <i_lp_mmshare_version>
43012

> <i_f3d_flags>
0

> <s_epik_input>
TiNDW0NIMl1DKD1PKU4xW0NIMl1bQ0gyXU4oW0NIMl1bQ0gyXTEpYyhuW2NIXW4yKWMoYzIzKW5bY0hdbjNbQ0hdKFtDSDJdNClbQ0gyXUM0KFtDSDJdW09IXSlbQ0gyXVtPSF0=

> <s_epik_cmdline>
J2VwaWtfcHl0aG9uJywgJy1waCcsICc3LjAnLCAnLXRuJywgJzgnLCAnLW1hJywgJzIwMCcsICctbWV0YWxfYmluZGluZycsICctaW1hZScsICc8aW5maWxlLm1hZT4nLCAnLW9tYWUnLCAnPG91dGZpbGUubWFlPic=

> <r_lp_tautomer_probability>
1

> <r_epik_Ionization_Penalty>
0.000827394

> <r_epik_Ionization_Penalty_Charging>
0

> <r_epik_Ionization_Penalty_Neutral>
0.000827394

> <r_epik_State_Penalty>
0.000406949

> <r_epik_Charging_Adjusted_Penalty>
0.000406949

> <i_epik_Tot_Q>
0

> <i_epik_Tot_abs_Q>
0

> <r_epik_Metal_State_Penalty>
-0

> <b_epik_Metal_Only>
0

> <s_lp_Force_Field>
OPLS_2005

> <r_lp_Energy>
60.4217

> <b_lp_Chiralities_Consistent>
1

> <s_lp_Variant>
AV-unprocessed.smi:80-1

> <Gold.Version>
5.8.1

> <Gold.Id.Protein>
6NUR|6NUR_protein|mol2

> <Gold.PLP.Fitness>
51.1293

> <Gold.PLP.PLP>
-37.8079

> <Gold.PLP.part.hbond>
-6.9606

> <Gold.PLP.part.metal>
0.0000

> <Gold.PLP.part.buried>
-4.9470

> <Gold.PLP.part.nonpolar>
-25.6766

> <Gold.PLP.part.repulsive>
0.1974

> <Gold.PLP.ligand.clash>
0.0000

> <Gold.PLP.ligand.torsion>
2.1914

> <Gold.PLP.Chemscore.Hbond>
4.8413

> <Gold.PLP.Chemscore.CHOScore>
0.8502

> <Gold.PLP.Chemscore.Metal>
0.0000

> <Gold.Chemscore.Hbonds>
donor molecule, donor type, donor heavy atom, donor atom, acceptor molecule, acceptor atom, score
      L1  H    23    42       P1 10747  1.00
      L1  H    25    45       P1  7921  1.00
      P1  H  6931  6943       L1     5  0.70
      P1  H  6934  6947       L1     5  1.00
      P1  H 10192 10197       L1    25  0.99
      L1  C    12    35       P1  7948  0.87

> <Gold.PLP.Chemscore.Internal.Correction>
0.6298

> <Gold.Rescore>
     Score         DG    S(hbond)    S(metal)    S(lipo)     H(rot)  DE(clash)    DE(int)     intcor
     14.51     -16.71       4.22        0.00      59.05       3.82       0.17       2.03       ----

> <Gold.Chemscore.Fitness>
14.5065

> <Gold.Chemscore.DG>
-16.7127

> <Gold.Chemscore.ZeroCoef>
-5.4800

> <Gold.Chemscore.Hbond>
4.2198

> <Gold.Chemscore.Metal>
0.0000

> <Gold.Chemscore.Lipo>
59.0454

> <Gold.Chemscore.Internal_Hbond>
0.0000

> <Gold.Chemscore.DEClash>
0.1728

> <Gold.Chemscore.DEInternal>
2.0334

> <Gold.Chemscore.Rot>
3.8164

> <Gold.Chemscore.Internal.Correction>
   9.000000E+99

> <Gold.Chemscore.Hbonds>
donor molecule, donor type, donor heavy atom, donor atom, acceptor molecule, acceptor atom, score
      L1  H    23    42       P1 10747  1.00
      L1  H    25    45       P1  7921  0.98
      P1  H  6931  6943       L1     5  0.68
      P1  H  6934  6947       L1     5  0.62
      P1  H 10192 10197       L1    25  0.46

> <Gold.Chemscore.Hbond.Weighted>
-14.0943

> <Gold.Chemscore.Metal.Weighted>
-0.0000

> <Gold.Chemscore.Lipo.Weighted>
-6.9083

> <Gold.Chemscore.Internal_Hbond.Weighted>
0.0000

> <Gold.Chemscore.DEClash.Weighted>
0.1728

> <Gold.Chemscore.DEInternal.Weighted>
2.0334

> <Gold.Chemscore.Rot.Weighted>
9.7699

> <Gold.Chemscore.Internal.Correction.Weighted>
   9.000000E+99

> <Gold.Protein.RotatedTorsions>
[ 6907 6896 6895 6894 ] final  176.92 input  -60.11 | X-H torsion
[ 7974 7965 7964 7962 ] final   92.68 input  175.53 | X-H torsion
[ 8008 7997 7996 7995 ] final   76.69 input   59.86 | X-H torsion
[ 10167 10162 10161 10158 ] final  130.29 input  -65.29 | X-H torsion
[ 10718 10713 10712 10709 ] final   65.08 input   66.30 | X-H torsion
[ 10763 10752 10751 10750 ] final -158.80 input  -60.55 | X-H torsion
[ 11005 11000 10999 10996 ] final  108.96 input  -57.11 | X-H torsion

> <Gold.Protein.ActiveResidues>
 VAL166  LYS551  ARG553  GLY616  TRP617  ASP618  TYR619  PRO620  LYS621  CYS622 
 ASP623  PHE694  ASN695  SER759  ASP760  ASP761  ALA762  ILE779  LEU786  VAL792 
 PHE793  MET794  SER795  GLU796  ALA797  LYS798  CYS799  TRP800  GLU811  SER814 

> <Gold.Protein.RotatedAtoms>
  151.7124  133.3312  159.3293 H   0  0  0  0  0  0  0  0  0  0  0  0  # atno 6907 bound_to 6896
  150.7688  134.6520  159.6303 H   0  0  0  0  0  0  0  0  0  0  0  0  # atno 6908 bound_to 6896
  152.3703  134.6746  160.0230 H   0  0  0  0  0  0  0  0  0  0  0  0  # atno 6909 bound_to 6896
  145.4890  139.2277  143.2840 H   0  0  0  0  0  0  0  0  0  0  0  0  # atno 7974 bound_to 7965
  155.8310  140.3466  155.5572 H   0  0  0  0  0  0  0  0  0  0  0  0  # atno 8008 bound_to 7997
  155.8242  140.0917  157.1851 H   0  0  0  0  0  0  0  0  0  0  0  0  # atno 8009 bound_to 7997
  154.4004  140.1424  156.3524 H   0  0  0  0  0  0  0  0  0  0  0  0  # atno 8010 bound_to 7997
  139.5437  144.6754  151.4542 H   0  0  0  0  0  0  0  0  0  0  0  0  # atno 10167 bound_to 10162
  157.6082  130.9194  149.9929 H   0  0  0  0  0  0  0  0  0  0  0  0  # atno 10718 bound_to 10713
  154.7527  135.3096  154.8527 H   0  0  0  0  0  0  0  0  0  0  0  0  # atno 10763 bound_to 10752
  153.9310  135.6785  153.4750 H   0  0  0  0  0  0  0  0  0  0  0  0  # atno 10764 bound_to 10752
  153.1123  135.4860  154.8985 H   0  0  0  0  0  0  0  0  0  0  0  0  # atno 10765 bound_to 10752
  139.8853  134.9445  156.6052 H   0  0  0  0  0  0  0  0  0  0  0  0  # atno 11005 bound_to 11000
  146.2295  140.5683  142.8981 LP  0  0  0  0  0  0  0  0  0  0  0  0  # atno 17320 bound_to 7965
  144.7845  140.5908  143.6583 LP  0  0  0  0  0  0  0  0  0  0  0  0  # atno 17321 bound_to 7965
  140.6677  143.8362  150.6961 LP  0  0  0  0  0  0  0  0  0  0  0  0  # atno 17342 bound_to 10162
  140.1776  143.4141  152.1956 LP  0  0  0  0  0  0  0  0  0  0  0  0  # atno 17343 bound_to 10162
  156.1175  130.3647  149.9943 LP  0  0  0  0  0  0  0  0  0  0  0  0  # atno 17370 bound_to 10713
  156.8030  130.9297  151.3645 LP  0  0  0  0  0  0  0  0  0  0  0  0  # atno 17371 bound_to 10713
  140.7853  133.8626  155.8601 LP  0  0  0  0  0  0  0  0  0  0  0  0  # atno 17394 bound_to 11000
  140.9724  134.1513  157.4565 LP  0  0  0  0  0  0  0  0  0  0  0  0  # atno 17395 bound_to 11000

$$$$
