AV-unprocessed.smi:2204|AV-procd|sdf|8937|dock4
  -GOLD-   2272012153D 1   1.00000     0.00000
 Structure written by MMmdl.
 39 40  0  0  0  0  0  0  0  0  1 V2000
  151.9953  144.5850  157.4494 C   0  0  0  0  0  0  0  0  0  0  0  0
  152.2897  143.7052  158.6281 C   0  0  0  0  0  0  0  0  0  0  0  0
  152.3913  144.0732  159.9988 C   0  0  0  0  0  0  0  0  0  0  0  0
  152.6797  142.9028  160.6423 C   0  0  0  0  0  0  0  0  0  0  0  0
  152.9104  142.6335  162.0931 C   0  0  0  0  0  0  0  0  0  0  0  0
  152.7333  141.9152  159.6739 N   0  0  0  0  0  0  0  0  0  0  0  0
  153.0055  140.4935  159.8236 C   0  0  0  0  0  0  0  0  0  0  0  0
  152.8816  139.7423  158.4941 C   0  0  0  0  0  0  0  0  0  0  0  0
  153.8281  139.0861  158.0582 O   0  0  0  0  0  0  0  0  0  0  0  0
  151.6973  139.8374  157.8686 N   0  0  0  0  0  0  0  0  0  0  0  0
  151.3428  139.2065  156.5979 C   0  0  2  0  0  0  0  0  0  0  0  0
  152.5196  139.3674  155.6241 C   0  0  0  0  0  0  0  0  0  0  0  0
  150.0433  139.8164  156.0298 C   0  0  2  0  0  0  0  0  0  0  0  0
  149.6477  139.3259  154.6348 C   0  0  0  0  0  0  0  0  0  0  0  0
  148.7809  140.4616  154.1440 C   0  0  0  0  0  0  0  0  0  0  0  0
  149.5192  141.6750  154.6997 C   0  0  0  0  0  0  0  0  0  0  0  0
  150.1744  141.2294  155.8849 O   0  0  0  0  0  0  0  0  0  0  0  0
  152.4931  142.4115  158.4404 N   0  0  0  0  0  0  0  0  0  0  0  0
  151.7783  145.6059  157.7644 H   0  0  0  0  0  0  0  0  0  0  0  0
  151.1326  144.2200  156.8912 H   0  0  0  0  0  0  0  0  0  0  0  0
  152.8444  144.6219  156.7668 H   0  0  0  0  0  0  0  0  0  0  0  0
  152.2734  145.0505  160.4427 H   0  0  0  0  0  0  0  0  0  0  0  0
  152.9120  143.5611  162.6658 H   0  0  0  0  0  0  0  0  0  0  0  0
  153.8704  142.1422  162.2512 H   0  0  0  0  0  0  0  0  0  0  0  0
  152.1284  141.9909  162.4976 H   0  0  0  0  0  0  0  0  0  0  0  0
  154.0127  140.3604  160.2183 H   0  0  0  0  0  0  0  0  0  0  0  0
  152.3193  140.0791  160.5641 H   0  0  0  0  0  0  0  0  0  0  0  0
  150.9811  140.3981  158.3067 H   0  0  0  0  0  0  0  0  0  0  0  0
  151.1865  138.1370  156.7494 H   0  0  0  0  0  0  0  0  0  0  0  0
  152.3119  138.8825  154.6700 H   0  0  0  0  0  0  0  0  0  0  0  0
  153.4276  138.9177  156.0273 H   0  0  0  0  0  0  0  0  0  0  0  0
  152.7291  140.4187  155.4232 H   0  0  0  0  0  0  0  0  0  0  0  0
  149.2135  139.6322  156.7145 H   0  0  0  0  0  0  0  0  0  0  0  0
  150.5268  139.2285  153.9960 H   0  0  0  0  0  0  0  0  0  0  0  0
  149.1271  138.3680  154.6507 H   0  0  0  0  0  0  0  0  0  0  0  0
  148.6760  140.4855  153.0589 H   0  0  0  0  0  0  0  0  0  0  0  0
  147.7856  140.3905  154.5846 H   0  0  0  0  0  0  0  0  0  0  0  0
  150.2779  142.0153  153.9940 H   0  0  0  0  0  0  0  0  0  0  0  0
  148.8485  142.5097  154.9049 H   0  0  0  0  0  0  0  0  0  0  0  0
  1  2  1  0  0  0  0
  1 19  1  0  0  0  0
  1 20  1  0  0  0  0
  1 21  1  0  0  0  0
  2 18  2  0  0  0  0
  2  3  1  0  0  0  0
  3  4  2  0  0  0  0
  3 22  1  0  0  0  0
  4  5  1  0  0  0  0
  4  6  1  0  0  0  0
  5 23  1  0  0  0  0
  5 24  1  0  0  0  0
  5 25  1  0  0  0  0
  6  7  1  0  0  0  0
  6 18  1  0  0  0  0
  7  8  1  0  0  0  0
  7 26  1  0  0  0  0
  7 27  1  0  0  0  0
  8  9  2  0  0  0  0
  8 10  1  0  0  0  0
 10 11  1  0  0  0  0
 10 28  1  0  0  0  0
 11 12  1  0  0  0  0
 11 13  1  0  0  0  0
 11 29  1  0  0  0  0
 12 30  1  0  0  0  0
 12 31  1  0  0  0  0
 12 32  1  0  0  0  0
 13 17  1  0  0  0  0
 13 14  1  0  0  0  0
 13 33  1  0  0  0  0
 14 15  1  0  0  0  0
 14 34  1  0  0  0  0
 14 35  1  0  0  0  0
 15 16  1  0  0  0  0
 15 36  1  0  0  0  0
 15 37  1  0  0  0  0
 16 17  1  0  0  0  0
 16 38  1  0  0  0  0
 16 39  1  0  0  0  0
M  END
> <s_m_source_file>
AV-unprocessed.smi

> <i_m_source_file_index>
2204

> <i_lp_mmshare_version>
43012

> <i_f3d_flags>
0

> <s_epik_input>
W0NIM11jMVtjSF1jKFtDSDNdKW4objEpW0NIMl1DKD1PKVtOSF1bQ0BIXShbQ0gzXSlbQ0BASF0yW0NIMl1bQ0gyXVtDSDJdTzI=

> <s_epik_cmdline>
J2VwaWtfcHl0aG9uJywgJy1waCcsICc3LjAnLCAnLXRuJywgJzgnLCAnLW1hJywgJzIwMCcsICctbWV0YWxfYmluZGluZycsICctaW1hZScsICc8aW5maWxlLm1hZT4nLCAnLW9tYWUnLCAnPG91dGZpbGUubWFlPic=

> <r_lp_tautomer_probability>
1

> <r_epik_Ionization_Penalty>
0.000433354

> <r_epik_Ionization_Penalty_Charging>
0

> <r_epik_Ionization_Penalty_Neutral>
0.000433354

> <r_epik_State_Penalty>
-0

> <r_epik_Charging_Adjusted_Penalty>
0

> <i_epik_Tot_Q>
0

> <i_epik_Tot_abs_Q>
0

> <r_epik_Metal_State_Penalty>
-0

> <b_epik_Metal_Only>
0

> <s_lp_Force_Field>
OPLS_2005

> <r_lp_Energy>
17.0674

> <b_lp_Chiralities_Consistent>
1

> <s_lp_Variant>
AV-unprocessed.smi:2204-1

> <Gold.Version>
5.8.1

> <Gold.Id.Protein>
6NUR|6NUR_protein|mol2

> <Gold.PLP.Fitness>
43.0861

> <Gold.PLP.PLP>
-40.5673

> <Gold.PLP.part.hbond>
-1.0000

> <Gold.PLP.part.metal>
0.0000

> <Gold.PLP.part.buried>
-0.2759

> <Gold.PLP.part.nonpolar>
-37.4235

> <Gold.PLP.part.repulsive>
0.1410

> <Gold.PLP.ligand.clash>
0.0000

> <Gold.PLP.ligand.torsion>
0.2489

> <Gold.PLP.Chemscore.Hbond>
1.0000

> <Gold.PLP.Chemscore.CHOScore>
0.0000

> <Gold.PLP.Chemscore.Metal>
0.0000

> <Gold.Chemscore.Hbonds>
donor molecule, donor type, donor heavy atom, donor atom, acceptor molecule, acceptor atom, score
      P1  H  7997  8008       L1     9  1.00

> <Gold.PLP.Chemscore.Internal.Correction>
0.0165

> <Gold.Rescore>
     Score         DG    S(hbond)    S(metal)    S(lipo)     H(rot)  DE(clash)    DE(int)     intcor
     14.04     -17.49       0.96        0.00     108.17       1.50       0.42       3.04       ----

> <Gold.Chemscore.Fitness>
14.0356

> <Gold.Chemscore.DG>
-17.4884

> <Gold.Chemscore.ZeroCoef>
-5.4800

> <Gold.Chemscore.Hbond>
0.9563

> <Gold.Chemscore.Metal>
0.0000

> <Gold.Chemscore.Lipo>
108.1689

> <Gold.Chemscore.Internal_Hbond>
0.0000

> <Gold.Chemscore.DEClash>
0.4171

> <Gold.Chemscore.DEInternal>
3.0357

> <Gold.Chemscore.Rot>
1.5005

> <Gold.Chemscore.Internal.Correction>
   9.000000E+99

> <Gold.Chemscore.Hbonds>
donor molecule, donor type, donor heavy atom, donor atom, acceptor molecule, acceptor atom, score
      P1  H  7997  8008       L1     9  0.81

> <Gold.Chemscore.Hbond.Weighted>
-3.1939

> <Gold.Chemscore.Metal.Weighted>
-0.0000

> <Gold.Chemscore.Lipo.Weighted>
-12.6558

> <Gold.Chemscore.Internal_Hbond.Weighted>
0.0000

> <Gold.Chemscore.DEClash.Weighted>
0.4171

> <Gold.Chemscore.DEInternal.Weighted>
3.0357

> <Gold.Chemscore.Rot.Weighted>
3.8412

> <Gold.Chemscore.Internal.Correction.Weighted>
   9.000000E+99

> <Gold.Protein.RotatedTorsions>
[ 6907 6896 6895 6894 ] final   -5.11 input  -60.11 | X-H torsion
[ 7974 7965 7964 7962 ] final  124.27 input  175.53 | X-H torsion
[ 8008 7997 7996 7995 ] final -107.16 input   59.86 | X-H torsion
[ 10167 10162 10161 10158 ] final  129.54 input  -65.29 | X-H torsion
[ 10718 10713 10712 10709 ] final   52.27 input   66.30 | X-H torsion
[ 10763 10752 10751 10750 ] final  100.84 input  -60.55 | X-H torsion
[ 11005 11000 10999 10996 ] final  -79.06 input  -57.11 | X-H torsion

> <Gold.Protein.ActiveResidues>
 VAL166  LYS551  ARG553  GLY616  TRP617  ASP618  TYR619  PRO620  LYS621  CYS622 
 ASP623  PHE694  ASN695  SER759  ASP760  ASP761  ALA762  ILE779  LEU786  VAL792 
 PHE793  MET794  SER795  GLU796  ALA797  LYS798  CYS799  TRP800  GLU811  SER814 

> <Gold.Protein.RotatedAtoms>
  151.4869  135.1055  159.9792 H   0  0  0  0  0  0  0  0  0  0  0  0  # atno 6907 bound_to 6896
  152.4757  133.8128  159.7023 H   0  0  0  0  0  0  0  0  0  0  0  0  # atno 6908 bound_to 6896
  150.8793  133.7332  159.2963 H   0  0  0  0  0  0  0  0  0  0  0  0  # atno 6909 bound_to 6896
  145.0863  139.3619  143.4883 H   0  0  0  0  0  0  0  0  0  0  0  0  # atno 7974 bound_to 7965
  154.9252  140.0406  157.2019 H   0  0  0  0  0  0  0  0  0  0  0  0  # atno 8008 bound_to 7997
  154.8214  140.2884  155.5762 H   0  0  0  0  0  0  0  0  0  0  0  0  # atno 8009 bound_to 7997
  156.2980  140.2518  156.3122 H   0  0  0  0  0  0  0  0  0  0  0  0  # atno 8010 bound_to 7997
  139.5472  144.6784  151.4434 H   0  0  0  0  0  0  0  0  0  0  0  0  # atno 10167 bound_to 10162
  157.5059  130.8468  149.8374 H   0  0  0  0  0  0  0  0  0  0  0  0  # atno 10718 bound_to 10713
  153.3190  135.4065  155.1401 H   0  0  0  0  0  0  0  0  0  0  0  0  # atno 10763 bound_to 10752
  154.8596  135.3583  154.5621 H   0  0  0  0  0  0  0  0  0  0  0  0  # atno 10764 bound_to 10752
  153.6054  135.7069  153.5427 H   0  0  0  0  0  0  0  0  0  0  0  0  # atno 10765 bound_to 10752
  141.1666  133.7089  156.8065 H   0  0  0  0  0  0  0  0  0  0  0  0  # atno 11005 bound_to 11000
  146.3531  140.0677  142.8625 LP  0  0  0  0  0  0  0  0  0  0  0  0  # atno 17320 bound_to 7965
  145.1118  140.9410  143.4652 LP  0  0  0  0  0  0  0  0  0  0  0  0  # atno 17321 bound_to 7965
  140.6724  143.8263  150.7016 LP  0  0  0  0  0  0  0  0  0  0  0  0  # atno 17342 bound_to 10162
  140.1692  143.4209  152.2013 LP  0  0  0  0  0  0  0  0  0  0  0  0  # atno 17343 bound_to 10162
  156.0258  130.3780  150.1828 LP  0  0  0  0  0  0  0  0  0  0  0  0  # atno 17370 bound_to 10713
  157.0018  130.9924  151.3389 LP  0  0  0  0  0  0  0  0  0  0  0  0  # atno 17371 bound_to 10713
  140.2218  134.8751  157.3385 LP  0  0  0  0  0  0  0  0  0  0  0  0  # atno 17394 bound_to 11000
  140.1980  134.4290  155.7678 LP  0  0  0  0  0  0  0  0  0  0  0  0  # atno 17395 bound_to 11000

$$$$
