AV-unprocessed.smi:67|AV-procd|sdf|634|dock5
  -GOLD-   2262016533D 1   1.00000     0.00000
 Structure written by MMmdl.
 48 50  0  0  0  0  0  0  0  0  2 V2000
  149.4513  141.1464  153.3619 O   0  0  0  0  0  0  0  0  0  0  0  0
  148.6510  140.6074  154.3991 C   0  0  2  0  0  0  0  0  0  0  0  0
  149.4259  139.3815  154.9414 C   0  0  0  0  0  0  0  0  0  0  0  0
  150.3970  139.6566  156.0037 N   0  0  0  0  0  0  0  0  0  0  0  0
  151.7550  139.2926  155.5929 C   0  0  0  0  0  0  0  0  0  0  0  0
  152.8153  139.6886  156.6344 C   0  0  0  0  0  0  0  0  0  0  0  0
  152.4642  139.0908  158.0141 C   0  0  0  0  0  0  0  0  0  0  0  0
  153.4144  139.3666  159.0465 O   0  0  0  0  0  0  0  0  0  0  0  0
  153.3484  140.4835  159.8580 C   0  0  0  0  0  0  0  0  0  0  0  0
  153.8435  140.5811  161.1825 C   0  0  0  0  0  0  0  0  0  0  0  0
  153.7184  141.7820  161.9060 C   0  0  0  0  0  0  0  0  0  0  0  0
  153.0955  142.9004  161.3238 C   0  0  0  0  0  0  0  0  0  0  0  0
  152.5896  142.8210  160.0100 C   0  0  0  0  0  0  0  0  0  0  0  0
  151.9159  144.0189  159.3579 C   0  0  0  0  0  0  0  0  0  0  0  0
  150.6964  143.6871  158.9332 F   0  0  0  0  0  0  0  0  0  0  0  0
  151.7982  145.0385  160.2092 F   0  0  0  0  0  0  0  0  0  0  0  0
  152.6413  144.4156  158.3129 F   0  0  0  0  0  0  0  0  0  0  0  0
  152.7276  141.6156  159.2898 C   0  0  0  0  0  0  0  0  0  0  0  0
  150.9887  139.3143  158.4099 C   0  0  0  0  0  0  0  0  0  0  0  0
  150.0666  138.9360  157.2395 C   0  0  0  0  0  0  0  0  0  0  0  0
  147.2383  140.3776  153.8495 C   0  0  0  0  0  0  0  0  0  0  0  0
  146.6200  141.7770  153.8657 C   0  0  0  0  0  0  0  0  0  0  0  0
  147.2527  142.4880  154.9945 N   0  3  0  0  0  0  0  0  0  0  0  0
  148.4328  141.7175  155.4395 C   0  0  0  0  0  0  0  0  0  0  0  0
  149.5872  140.4779  152.7072 H   0  0  0  0  0  0  0  0  0  0  0  0
  148.7257  138.6148  155.2783 H   0  0  0  0  0  0  0  0  0  0  0  0
  149.9372  138.9346  154.0868 H   0  0  0  0  0  0  0  0  0  0  0  0
  151.8094  138.2198  155.4014 H   0  0  0  0  0  0  0  0  0  0  0  0
  152.0001  139.7857  154.6514 H   0  0  0  0  0  0  0  0  0  0  0  0
  153.7949  139.3302  156.3174 H   0  0  0  0  0  0  0  0  0  0  0  0
  152.8889  140.7726  156.6593 H   0  0  0  0  0  0  0  0  0  0  0  0
  152.5589  138.0118  157.8841 H   0  0  0  0  0  0  0  0  0  0  0  0
  154.3267  139.7580  161.6793 H   0  0  0  0  0  0  0  0  0  0  0  0
  154.1029  141.8451  162.9133 H   0  0  0  0  0  0  0  0  0  0  0  0
  153.0109  143.8153  161.8916 H   0  0  0  0  0  0  0  0  0  0  0  0
  152.3485  141.5553  158.2799 H   0  0  0  0  0  0  0  0  0  0  0  0
  150.7460  138.7046  159.2807 H   0  0  0  0  0  0  0  0  0  0  0  0
  150.7833  140.3414  158.6991 H   0  0  0  0  0  0  0  0  0  0  0  0
  149.0344  139.1182  157.5322 H   0  0  0  0  0  0  0  0  0  0  0  0
  150.1353  137.8608  157.0648 H   0  0  0  0  0  0  0  0  0  0  0  0
  147.2193  139.9082  152.8651 H   0  0  0  0  0  0  0  0  0  0  0  0
  146.6566  139.7571  154.5302 H   0  0  0  0  0  0  0  0  0  0  0  0
  146.8626  142.3070  152.9437 H   0  0  0  0  0  0  0  0  0  0  0  0
  145.5344  141.7545  153.9641 H   0  0  0  0  0  0  0  0  0  0  0  0
  147.5356  143.4096  154.6925 H   0  0  0  0  0  0  0  0  0  0  0  0
  148.1898  141.2853  156.4110 H   0  0  0  0  0  0  0  0  0  0  0  0
  149.3052  142.3579  155.5764 H   0  0  0  0  0  0  0  0  0  0  0  0
  146.6010  142.5662  155.7621 H   0  0  0  0  0  0  0  0  0  0  0  0
  1  2  1  0  0  0  0
  1 25  1  0  0  0  0
  2 24  1  0  0  0  0
  2  3  1  0  0  0  0
  2 21  1  0  0  0  0
  3  4  1  0  0  0  0
  3 26  1  0  0  0  0
  3 27  1  0  0  0  0
  4 20  1  0  0  0  0
  4  5  1  0  0  0  0
  5  6  1  0  0  0  0
  5 28  1  0  0  0  0
  5 29  1  0  0  0  0
  6  7  1  0  0  0  0
  6 30  1  0  0  0  0
  6 31  1  0  0  0  0
  7  8  1  0  0  0  0
  7 19  1  0  0  0  0
  7 32  1  0  0  0  0
  8  9  1  0  0  0  0
  9 18  1  0  0  0  0
  9 10  2  0  0  0  0
 10 11  1  0  0  0  0
 10 33  1  0  0  0  0
 11 12  2  0  0  0  0
 11 34  1  0  0  0  0
 12 13  1  0  0  0  0
 12 35  1  0  0  0  0
 13 14  1  0  0  0  0
 13 18  2  0  0  0  0
 14 15  1  0  0  0  0
 14 16  1  0  0  0  0
 14 17  1  0  0  0  0
 18 36  1  0  0  0  0
 19 20  1  0  0  0  0
 19 37  1  0  0  0  0
 19 38  1  0  0  0  0
 20 39  1  0  0  0  0
 20 40  1  0  0  0  0
 21 22  1  0  0  0  0
 21 41  1  0  0  0  0
 21 42  1  0  0  0  0
 22 23  1  0  0  0  0
 22 43  1  0  0  0  0
 22 44  1  0  0  0  0
 23 24  1  0  0  0  0
 23 45  1  0  0  0  0
 23 48  1  0  0  0  0
 24 46  1  0  0  0  0
 24 47  1  0  0  0  0
M  CHG  1  23   1
M  END
> <s_m_source_file>
AV-unprocessed.smi

> <i_m_source_file_index>
67

> <i_lp_mmshare_version>
43012

> <i_f3d_flags>
0

> <s_epik_input>
W0NIMl0xW05IXVtDSDJdW0NIMl1bQ0BAXTEoW09IXSlbQ0gyXU4yW0NIMl1bQ0gyXVtDSF0oW0NIMl1bQ0gyXTIpT2MzW2NIXVtjSF1bY0hdYyhDKEYpKEYpRilbY0hdMw==

> <s_epik_cmdline>
J2VwaWtfcHl0aG9uJywgJy1waCcsICc3LjAnLCAnLXRuJywgJzgnLCAnLW1hJywgJzIwMCcsICctbWV0YWxfYmluZGluZycsICctaW1hZScsICc8aW5maWxlLm1hZT4nLCAnLW9tYWUnLCAnPG91dGZpbGUubWFlPic=

> <r_lp_tautomer_probability>
1

> <r_epik_Ionization_Penalty>
1.18002

> <r_epik_Ionization_Penalty_Charging>
0.00399663

> <r_epik_Ionization_Penalty_Neutral>
1.17602

> <r_epik_State_Penalty>
1.25421

> <r_epik_Charging_Adjusted_Penalty>
1.25821

> <i_epik_Tot_Q>
1

> <i_epik_Tot_abs_Q>
1

> <r_epik_Metal_State_Penalty>
1.25387

> <b_epik_Metal_Only>
0

> <s_lp_Force_Field>
OPLS_2005

> <r_lp_Energy>
62.5676

> <b_lp_Chiralities_Consistent>
1

> <s_lp_Variant>
AV-unprocessed.smi:67-6

> <Gold.Version>
5.8.1

> <Gold.Id.Protein>
6NUR|6NUR_protein|mol2

> <Gold.PLP.Fitness>
58.3205

> <Gold.PLP.PLP>
-53.1384

> <Gold.PLP.part.hbond>
-3.6232

> <Gold.PLP.part.metal>
0.0000

> <Gold.PLP.part.buried>
-2.2741

> <Gold.PLP.part.nonpolar>
-47.3334

> <Gold.PLP.part.repulsive>
0.1197

> <Gold.PLP.ligand.clash>
0.4347

> <Gold.PLP.ligand.torsion>
1.9484

> <Gold.PLP.Chemscore.Hbond>
2.9064

> <Gold.PLP.Chemscore.CHOScore>
0.0000

> <Gold.PLP.Chemscore.Metal>
0.0000

> <Gold.Chemscore.Hbonds>
donor molecule, donor type, donor heavy atom, donor atom, acceptor molecule, acceptor atom, score
      L1  H     1    25       P1  7957  0.98
      L1  H    23    45       P1  8028  1.05
      P1  H  8011  8017       L1     1  0.70

> <Gold.PLP.Chemscore.Internal.Correction>
0.7944

> <Gold.Rescore>
     Score         DG    S(hbond)    S(metal)    S(lipo)     H(rot)  DE(clash)    DE(int)     intcor
     16.37     -20.39       1.43        0.00     134.41       2.19       2.19       1.83       ----

> <Gold.Chemscore.Fitness>
16.3674

> <Gold.Chemscore.DG>
-20.3916

> <Gold.Chemscore.ZeroCoef>
-5.4800

> <Gold.Chemscore.Hbond>
1.4336

> <Gold.Chemscore.Metal>
0.0000

> <Gold.Chemscore.Lipo>
134.4141

> <Gold.Chemscore.Internal_Hbond>
0.0000

> <Gold.Chemscore.DEClash>
2.1942

> <Gold.Chemscore.DEInternal>
1.8300

> <Gold.Chemscore.Rot>
2.1887

> <Gold.Chemscore.Internal.Correction>
   9.000000E+99

> <Gold.Chemscore.Hbonds>
donor molecule, donor type, donor heavy atom, donor atom, acceptor molecule, acceptor atom, score
      L1  H     1    25       P1  7957  0.92
      L1  H    23    45       P1  8028  0.15
      P1  H  8011  8017       L1     1  0.07

> <Gold.Chemscore.Hbond.Weighted>
-4.7883

> <Gold.Chemscore.Metal.Weighted>
-0.0000

> <Gold.Chemscore.Lipo.Weighted>
-15.7265

> <Gold.Chemscore.Internal_Hbond.Weighted>
0.0000

> <Gold.Chemscore.DEClash.Weighted>
2.1942

> <Gold.Chemscore.DEInternal.Weighted>
1.8300

> <Gold.Chemscore.Rot.Weighted>
5.6032

> <Gold.Chemscore.Internal.Correction.Weighted>
   9.000000E+99

> <Gold.Protein.RotatedTorsions>
[ 6907 6896 6895 6894 ] final   15.29 input  -60.11 | X-H torsion
[ 7974 7965 7964 7962 ] final   29.46 input  175.53 | X-H torsion
[ 8008 7997 7996 7995 ] final  147.48 input   59.86 | X-H torsion
[ 10167 10162 10161 10158 ] final  -72.33 input  -65.29 | X-H torsion
[ 10718 10713 10712 10709 ] final  -11.14 input   66.30 | X-H torsion
[ 10763 10752 10751 10750 ] final  148.65 input  -60.55 | X-H torsion
[ 11005 11000 10999 10996 ] final    0.07 input  -57.11 | X-H torsion

> <Gold.Protein.ActiveResidues>
 VAL166  LYS551  ARG553  GLY616  TRP617  ASP618  TYR619  PRO620  LYS621  CYS622 
 ASP623  PHE694  ASN695  SER759  ASP760  ASP761  ALA762  ILE779  LEU786  VAL792 
 PHE793  MET794  SER795  GLU796  ALA797  LYS798  CYS799  TRP800  GLU811  SER814 

> <Gold.Protein.RotatedAtoms>
  151.8157  135.0667  160.0418 H   0  0  0  0  0  0  0  0  0  0  0  0  # atno 6907 bound_to 6896
  152.2988  133.5630  159.5613 H   0  0  0  0  0  0  0  0  0  0  0  0  # atno 6908 bound_to 6896
  150.7263  134.0238  159.3752 H   0  0  0  0  0  0  0  0  0  0  0  0  # atno 6909 bound_to 6896
  146.1670  139.6919  142.8994 H   0  0  0  0  0  0  0  0  0  0  0  0  # atno 7974 bound_to 7965
  156.2823  140.2154  156.5545 H   0  0  0  0  0  0  0  0  0  0  0  0  # atno 8008 bound_to 7997
  154.7264  140.0499  157.0709 H   0  0  0  0  0  0  0  0  0  0  0  0  # atno 8009 bound_to 7997
  155.0411  140.3146  155.4727 H   0  0  0  0  0  0  0  0  0  0  0  0  # atno 8010 bound_to 7997
  140.5201  143.2333  151.7444 H   0  0  0  0  0  0  0  0  0  0  0  0  # atno 10167 bound_to 10162
  156.6634  130.4988  149.6023 H   0  0  0  0  0  0  0  0  0  0  0  0  # atno 10718 bound_to 10713
  154.0583  135.2876  155.3329 H   0  0  0  0  0  0  0  0  0  0  0  0  # atno 10763 bound_to 10752
  154.6825  135.5258  153.8285 H   0  0  0  0  0  0  0  0  0  0  0  0  # atno 10764 bound_to 10752
  153.0533  135.6585  154.0773 H   0  0  0  0  0  0  0  0  0  0  0  0  # atno 10765 bound_to 10752
  140.6306  133.9579  155.8272 H   0  0  0  0  0  0  0  0  0  0  0  0  # atno 11005 bound_to 11000
  145.4441  141.0424  143.2841 LP  0  0  0  0  0  0  0  0  0  0  0  0  # atno 17320 bound_to 7965
  144.8107  139.5968  143.7031 LP  0  0  0  0  0  0  0  0  0  0  0  0  # atno 17321 bound_to 7965
  139.4921  144.4267  151.9918 LP  0  0  0  0  0  0  0  0  0  0  0  0  # atno 17342 bound_to 10162
  140.3363  144.3256  150.5976 LP  0  0  0  0  0  0  0  0  0  0  0  0  # atno 17343 bound_to 10162
  156.1994  130.6610  151.1150 LP  0  0  0  0  0  0  0  0  0  0  0  0  # atno 17370 bound_to 10713
  157.7102  131.0738  150.6528 LP  0  0  0  0  0  0  0  0  0  0  0  0  # atno 17371 bound_to 10713
  141.0678  134.0251  157.3569 LP  0  0  0  0  0  0  0  0  0  0  0  0  # atno 17394 bound_to 11000
  139.9117  135.0191  156.7720 LP  0  0  0  0  0  0  0  0  0  0  0  0  # atno 17395 bound_to 11000

$$$$
