AV-unprocessed.smi:1718|AV-procd|sdf|6929|dock8
  -GOLD-   22720 8143D 1   1.00000     0.00000
 Structure written by MMmdl.
 39 40  0  0  0  0  0  0  0  0  2 V2000
  151.1531  138.8525  156.3282 C   0  0  0  0  0  0  0  0  0  0  0  0
  151.0803  138.9062  157.8615 C   0  0  1  0  0  0  0  0  0  0  0  0
  150.6726  140.2215  158.2273 O   0  0  0  0  0  0  0  0  0  0  0  0
  151.4652  141.2755  157.6925 C   0  0  0  0  0  0  0  0  0  0  0  0
  151.9012  142.1945  158.8393 C   0  0  1  0  0  0  0  0  0  0  0  0
  153.1445  141.7113  159.5858 C   0  0  0  0  0  0  0  0  0  0  0  0
  153.6963  143.0087  160.1301 C   0  0  0  0  0  0  0  0  0  0  0  0
  153.4202  143.9683  158.9768 C   0  0  0  0  0  0  0  0  0  0  0  0
  152.2383  143.4872  158.3417 O   0  0  0  0  0  0  0  0  0  0  0  0
  150.0851  137.8720  158.4122 C   0  0  0  0  0  0  0  0  0  0  0  0
  150.5106  136.8620  158.9727 O   0  0  0  0  0  0  0  0  0  0  0  0
  148.7840  138.1694  158.2279 N   0  0  0  0  0  0  0  0  0  0  0  0
  147.6424  137.4196  158.5568 C   0  0  0  0  0  0  0  0  0  0  0  0
  147.3564  136.9480  159.8019 C   0  0  0  0  0  0  0  0  0  0  0  0
  146.1635  136.1591  160.0821 C   0  0  0  0  0  0  0  0  0  0  0  0
  145.7594  135.7069  161.4742 C   0  0  0  0  0  0  0  0  0  0  0  0
  144.5377  136.1421  161.7839 F   0  0  0  0  0  0  0  0  0  0  0  0
  145.7542  134.3762  161.5355 F   0  0  0  0  0  0  0  0  0  0  0  0
  146.6132  136.1621  162.3913 F   0  0  0  0  0  0  0  0  0  0  0  0
  145.3874  135.9647  158.9559 C   0  0  0  0  0  0  0  0  0  0  0  0
  145.6131  136.3691  157.6867 N   0  5  0  0  0  0  0  0  0  0  0  0
  146.7312  137.1074  157.4365 C   0  0  0  0  0  0  0  0  0  0  0  0
  146.9944  137.5148  156.3045 O   0  0  0  0  0  0  0  0  0  0  0  0
  151.4403  137.8599  155.9798 H   0  0  0  0  0  0  0  0  0  0  0  0
  151.8926  139.5595  155.9520 H   0  0  0  0  0  0  0  0  0  0  0  0
  150.1956  139.1050  155.8713 H   0  0  0  0  0  0  0  0  0  0  0  0
  152.0789  138.7124  158.2582 H   0  0  0  0  0  0  0  0  0  0  0  0
  152.3431  140.8990  157.1665 H   0  0  0  0  0  0  0  0  0  0  0  0
  150.8727  141.8409  156.9718 H   0  0  0  0  0  0  0  0  0  0  0  0
  151.0804  142.3243  159.5464 H   0  0  0  0  0  0  0  0  0  0  0  0
  152.9167  140.9815  160.3631 H   0  0  0  0  0  0  0  0  0  0  0  0
  153.8609  141.2628  158.8959 H   0  0  0  0  0  0  0  0  0  0  0  0
  153.1365  143.3119  161.0160 H   0  0  0  0  0  0  0  0  0  0  0  0
  154.7525  142.9508  160.3940 H   0  0  0  0  0  0  0  0  0  0  0  0
  153.3021  144.9989  159.3120 H   0  0  0  0  0  0  0  0  0  0  0  0
  154.2369  143.9381  158.2544 H   0  0  0  0  0  0  0  0  0  0  0  0
  148.5851  139.0727  157.8223 H   0  0  0  0  0  0  0  0  0  0  0  0
  148.0258  137.1265  160.6274 H   0  0  0  0  0  0  0  0  0  0  0  0
  144.4387  135.4041  159.0973 H   0  0  0  0  0  0  0  0  0  0  0  0
  1  2  1  0  0  0  0
  1 24  1  0  0  0  0
  1 25  1  0  0  0  0
  1 26  1  0  0  0  0
  2  3  1  0  0  0  0
  2 10  1  0  0  0  0
  2 27  1  0  0  0  0
  3  4  1  0  0  0  0
  4  5  1  0  0  0  0
  4 28  1  0  0  0  0
  4 29  1  0  0  0  0
  5  9  1  0  0  0  0
  5  6  1  0  0  0  0
  5 30  1  0  0  0  0
  6  7  1  0  0  0  0
  6 31  1  0  0  0  0
  6 32  1  0  0  0  0
  7  8  1  0  0  0  0
  7 33  1  0  0  0  0
  7 34  1  0  0  0  0
  8  9  1  0  0  0  0
  8 35  1  0  0  0  0
  8 36  1  0  0  0  0
 10 11  2  0  0  0  0
 10 12  1  0  0  0  0
 12 13  1  0  0  0  0
 12 37  1  0  0  0  0
 13 22  1  0  0  0  0
 13 14  2  0  0  0  0
 14 15  1  0  0  0  0
 14 38  1  0  0  0  0
 15 16  1  0  0  0  0
 15 20  2  0  0  0  0
 16 17  1  0  0  0  0
 16 18  1  0  0  0  0
 16 19  1  0  0  0  0
 20 21  1  0  0  0  0
 20 39  1  0  0  0  0
 21 22  1  0  0  0  0
 22 23  2  0  0  0  0
M  CHG  1  21  -1
M  END
> <s_m_source_file>
AV-unprocessed.smi

> <i_m_source_file_index>
1718

> <i_lp_mmshare_version>
43012

> <i_f3d_flags>
0

> <s_epik_input>
TzFbQ0gyXVtDSDJdW0NIMl1bQ0BIXTFbQ0gyXU9bQ0BASF0oW0NIM10pQyg9TylbTkhdYzJbY0hdYyhDKEYpKEYpRilbY0hdW25IXWMyPU8=

> <s_epik_cmdline>
J2VwaWtfcHl0aG9uJywgJy1waCcsICc3LjAnLCAnLXRuJywgJzgnLCAnLW1hJywgJzIwMCcsICctbWV0YWxfYmluZGluZycsICctaW1hZScsICc8aW5maWxlLm1hZT4nLCAnLW9tYWUnLCAnPG91dGZpbGUubWFlPic=

> <r_epik_Ionization_Penalty>
2.5466

> <r_epik_Ionization_Penalty_Charging>
0.0575837

> <r_epik_Ionization_Penalty_Neutral>
2.48901

> <r_epik_State_Penalty>
2.6532

> <r_epik_Charging_Adjusted_Penalty>
2.71078

> <i_epik_Tot_Q>
-1

> <i_epik_Tot_abs_Q>
1

> <r_epik_Metal_State_Penalty>
0.516196

> <b_epik_Metal_Only>
0

> <s_lp_Force_Field>
OPLS_2005

> <r_lp_Energy>
35.9934

> <b_lp_Chiralities_Consistent>
1

> <s_lp_Variant>
AV-unprocessed.smi:1718-8

> <Gold.Version>
5.8.1

> <Gold.Id.Protein>
6NUR|6NUR_protein|mol2

> <Gold.PLP.Fitness>
44.4765

> <Gold.PLP.PLP>
-44.4846

> <Gold.PLP.part.hbond>
-0.9729

> <Gold.PLP.part.metal>
0.0000

> <Gold.PLP.part.buried>
-6.9774

> <Gold.PLP.part.nonpolar>
-37.1436

> <Gold.PLP.part.repulsive>
0.3006

> <Gold.PLP.ligand.clash>
0.0000

> <Gold.PLP.ligand.torsion>
1.5564

> <Gold.PLP.Chemscore.Hbond>
0.9913

> <Gold.PLP.Chemscore.CHOScore>
0.0000

> <Gold.PLP.Chemscore.Metal>
0.0000

> <Gold.Chemscore.Hbonds>
donor molecule, donor type, donor heavy atom, donor atom, acceptor molecule, acceptor atom, score
      P1  H  6896  6909       L1    11  0.43

> <Gold.PLP.Chemscore.Internal.Correction>
0.1310

> <Gold.Rescore>
     Score         DG    S(hbond)    S(metal)    S(lipo)     H(rot)  DE(clash)    DE(int)     intcor
     13.02     -14.48       0.99        0.00      89.03       1.85       0.00       1.45       ----

> <Gold.Chemscore.Fitness>
13.0242

> <Gold.Chemscore.DG>
-14.4759

> <Gold.Chemscore.ZeroCoef>
-5.4800

> <Gold.Chemscore.Hbond>
0.9890

> <Gold.Chemscore.Metal>
0.0000

> <Gold.Chemscore.Lipo>
89.0343

> <Gold.Chemscore.Internal_Hbond>
0.0000

> <Gold.Chemscore.DEClash>
0.0005

> <Gold.Chemscore.DEInternal>
1.4512

> <Gold.Chemscore.Rot>
1.8455

> <Gold.Chemscore.Internal.Correction>
   9.000000E+99

> <Gold.Chemscore.Hbonds>
donor molecule, donor type, donor heavy atom, donor atom, acceptor molecule, acceptor atom, score
      P1  H  6896  6909       L1    11  0.44

> <Gold.Chemscore.Hbond.Weighted>
-3.3033

> <Gold.Chemscore.Metal.Weighted>
-0.0000

> <Gold.Chemscore.Lipo.Weighted>
-10.4170

> <Gold.Chemscore.Internal_Hbond.Weighted>
0.0000

> <Gold.Chemscore.DEClash.Weighted>
0.0005

> <Gold.Chemscore.DEInternal.Weighted>
1.4512

> <Gold.Chemscore.Rot.Weighted>
4.7245

> <Gold.Chemscore.Internal.Correction.Weighted>
   9.000000E+99

> <Gold.Protein.RotatedTorsions>
[ 6907 6896 6895 6894 ] final  117.93 input  -60.11 | X-H torsion
[ 7974 7965 7964 7962 ] final  -28.09 input  175.53 | X-H torsion
[ 8008 7997 7996 7995 ] final   74.73 input   59.86 | X-H torsion
[ 10167 10162 10161 10158 ] final  -74.00 input  -65.29 | X-H torsion
[ 10718 10713 10712 10709 ] final   78.89 input   66.30 | X-H torsion
[ 10763 10752 10751 10750 ] final  140.75 input  -60.55 | X-H torsion
[ 11005 11000 10999 10996 ] final  -15.27 input  -57.11 | X-H torsion

> <Gold.Protein.ActiveResidues>
 VAL166  LYS551  ARG553  GLY616  TRP617  ASP618  TYR619  PRO620  LYS621  CYS622 
 ASP623  PHE694  ASN695  SER759  ASP760  ASP761  ALA762  ILE779  LEU786  VAL792 
 PHE793  MET794  SER795  GLU796  ALA797  LYS798  CYS799  TRP800  GLU811  SER814 

> <Gold.Protein.RotatedAtoms>
  152.4578  133.7759  159.6824 H   0  0  0  0  0  0  0  0  0  0  0  0  # atno 6907 bound_to 6896
  150.8511  133.7776  159.3031 H   0  0  0  0  0  0  0  0  0  0  0  0  # atno 6908 bound_to 6896
  151.5371  135.1071  159.9969 H   0  0  0  0  0  0  0  0  0  0  0  0  # atno 6909 bound_to 6896
  146.1312  140.5238  142.8692 H   0  0  0  0  0  0  0  0  0  0  0  0  # atno 7974 bound_to 7965
  155.8025  140.3476  155.5411 H   0  0  0  0  0  0  0  0  0  0  0  0  # atno 8008 bound_to 7997
  155.8523  140.0958  157.1687 H   0  0  0  0  0  0  0  0  0  0  0  0  # atno 8009 bound_to 7997
  154.4008  140.1374  156.3847 H   0  0  0  0  0  0  0  0  0  0  0  0  # atno 8010 bound_to 7997
  140.5064  143.2352  151.7667 H   0  0  0  0  0  0  0  0  0  0  0  0  # atno 10167 bound_to 10162
  157.6759  130.9889  150.1852 H   0  0  0  0  0  0  0  0  0  0  0  0  # atno 10718 bound_to 10713
  153.9279  135.2993  155.3446 H   0  0  0  0  0  0  0  0  0  0  0  0  # atno 10763 bound_to 10752
  154.7542  135.4966  153.9347 H   0  0  0  0  0  0  0  0  0  0  0  0  # atno 10764 bound_to 10752
  153.1107  135.6758  153.9610 H   0  0  0  0  0  0  0  0  0  0  0  0  # atno 10765 bound_to 10752
  140.7949  133.8258  155.9415 H   0  0  0  0  0  0  0  0  0  0  0  0  # atno 11005 bound_to 11000
  144.7693  140.5601  143.6681 LP  0  0  0  0  0  0  0  0  0  0  0  0  # atno 17320 bound_to 7965
  145.5256  139.1476  143.3528 LP  0  0  0  0  0  0  0  0  0  0  0  0  # atno 17321 bound_to 7965
  139.4884  144.4452  151.9718 LP  0  0  0  0  0  0  0  0  0  0  0  0  # atno 17342 bound_to 10162
  140.3543  144.3051  150.5944 LP  0  0  0  0  0  0  0  0  0  0  0  0  # atno 17343 bound_to 10162
  156.2576  130.3707  149.8165 LP  0  0  0  0  0  0  0  0  0  0  0  0  # atno 17370 bound_to 10713
  156.5920  130.8510  151.3410 LP  0  0  0  0  0  0  0  0  0  0  0  0  # atno 17371 bound_to 10713
  140.9352  134.1971  157.4836 LP  0  0  0  0  0  0  0  0  0  0  0  0  # atno 17394 bound_to 11000
  139.8727  134.9849  156.5260 LP  0  0  0  0  0  0  0  0  0  0  0  0  # atno 17395 bound_to 11000

$$$$
