AV-unprocessed.smi:527|AV-procd|sdf|2830|dock1
  -GOLD-   2262023313D 1   1.00000     0.00000
 Structure written by MMmdl.
 43 44  0  0  0  0  0  0  0  0  2 V2000
  148.7423  140.4225  154.4477 C   0  0  0  0  0  0  0  0  0  0  0  0
  149.2529  138.9714  154.3905 C   0  0  1  0  0  0  0  0  0  0  0  0
  150.7956  138.9606  154.3968 C   0  0  0  0  0  0  0  0  0  0  0  0
  151.3660  137.5378  154.3283 C   0  0  0  0  0  0  0  0  0  0  0  0
  150.8208  136.6720  155.4727 C   0  0  0  0  0  0  0  0  0  0  0  0
  149.2793  136.6498  155.4889 C   0  0  2  0  0  0  0  0  0  0  0  0
  148.7547  135.9072  154.3417 N   0  0  0  0  0  0  0  0  0  0  0  0
  148.1858  134.6942  154.3888 C   0  0  0  0  0  0  0  0  0  0  0  0
  148.0333  134.0556  155.4321 O   0  0  0  0  0  0  0  0  0  0  0  0
  147.8106  134.2922  153.1596 N   0  0  0  0  0  0  0  0  0  0  0  0
  147.2094  133.1326  152.8229 C   0  0  0  0  0  0  0  0  0  0  0  0
  146.9207  132.2258  153.6057 O   0  0  0  0  0  0  0  0  0  0  0  0
  146.8563  132.9750  151.3436 C   0  0  0  0  0  0  0  0  0  0  0  0
  145.4047  132.8904  151.1576 N   0  0  0  0  0  0  0  0  0  0  0  0
  144.5564  131.9334  151.6539 C   0  0  0  0  0  0  0  0  0  0  0  0
  143.2994  132.2587  151.2131 C   0  0  0  0  0  0  0  0  0  0  0  0
  143.4332  133.3985  150.4661 N   0  3  0  0  0  0  0  0  0  0  0  0
  144.7141  133.7808  150.4326 C   0  0  0  0  0  0  0  0  0  0  0  0
  148.6928  138.0847  155.5386 C   0  0  2  0  0  0  0  0  0  0  0  0
  147.1515  138.0557  155.5836 C   0  0  0  0  0  0  0  0  0  0  0  0
  148.9744  140.8878  155.4062 H   0  0  0  0  0  0  0  0  0  0  0  0
  147.6643  140.4784  154.2985 H   0  0  0  0  0  0  0  0  0  0  0  0
  149.2006  141.0289  153.6659 H   0  0  0  0  0  0  0  0  0  0  0  0
  148.9231  138.5507  153.4395 H   0  0  0  0  0  0  0  0  0  0  0  0
  151.1757  139.5408  153.5554 H   0  0  0  0  0  0  0  0  0  0  0  0
  151.1626  139.4527  155.2987 H   0  0  0  0  0  0  0  0  0  0  0  0
  151.1160  137.0864  153.3674 H   0  0  0  0  0  0  0  0  0  0  0  0
  152.4547  137.5728  154.3776 H   0  0  0  0  0  0  0  0  0  0  0  0
  151.2185  135.6592  155.3978 H   0  0  0  0  0  0  0  0  0  0  0  0
  151.1828  137.0672  156.4226 H   0  0  0  0  0  0  0  0  0  0  0  0
  148.9626  136.1333  156.3972 H   0  0  0  0  0  0  0  0  0  0  0  0
  148.8274  136.3631  153.4440 H   0  0  0  0  0  0  0  0  0  0  0  0
  147.9943  134.9371  152.4055 H   0  0  0  0  0  0  0  0  0  0  0  0
  147.2304  133.8184  150.7613 H   0  0  0  0  0  0  0  0  0  0  0  0
  147.3135  132.0705  150.9392 H   0  0  0  0  0  0  0  0  0  0  0  0
  144.9009  131.1127  152.2661 H   0  0  0  0  0  0  0  0  0  0  0  0
  142.3453  131.7763  151.3697 H   0  0  0  0  0  0  0  0  0  0  0  0
  145.1125  134.6370  149.9174 H   0  0  0  0  0  0  0  0  0  0  0  0
  149.0241  138.5262  156.4798 H   0  0  0  0  0  0  0  0  0  0  0  0
  146.7250  137.7461  154.6291 H   0  0  0  0  0  0  0  0  0  0  0  0
  146.7386  139.0333  155.8307 H   0  0  0  0  0  0  0  0  0  0  0  0
  146.7963  137.3621  156.3465 H   0  0  0  0  0  0  0  0  0  0  0  0
  142.6746  133.8835  150.0028 H   0  0  0  0  0  0  0  0  0  0  0  0
  1  2  1  0  0  0  0
  1 21  1  0  0  0  0
  1 22  1  0  0  0  0
  1 23  1  0  0  0  0
  2 19  1  0  0  0  0
  2  3  1  0  0  0  0
  2 24  1  0  0  0  0
  3  4  1  0  0  0  0
  3 25  1  0  0  0  0
  3 26  1  0  0  0  0
  4  5  1  0  0  0  0
  4 27  1  0  0  0  0
  4 28  1  0  0  0  0
  5  6  1  0  0  0  0
  5 29  1  0  0  0  0
  5 30  1  0  0  0  0
  6  7  1  0  0  0  0
  6 19  1  0  0  0  0
  6 31  1  0  0  0  0
  7  8  1  0  0  0  0
  7 32  1  0  0  0  0
  8  9  2  0  0  0  0
  8 10  1  0  0  0  0
 10 11  1  0  0  0  0
 10 33  1  0  0  0  0
 11 12  2  0  0  0  0
 11 13  1  0  0  0  0
 13 14  1  0  0  0  0
 13 34  1  0  0  0  0
 13 35  1  0  0  0  0
 14 18  1  0  0  0  0
 14 15  1  0  0  0  0
 15 16  2  0  0  0  0
 15 36  1  0  0  0  0
 16 17  1  0  0  0  0
 16 37  1  0  0  0  0
 17 18  2  0  0  0  0
 17 43  1  0  0  0  0
 18 38  1  0  0  0  0
 19 20  1  0  0  0  0
 19 39  1  0  0  0  0
 20 40  1  0  0  0  0
 20 41  1  0  0  0  0
 20 42  1  0  0  0  0
M  CHG  1  17   1
M  END
> <s_m_source_file>
AV-unprocessed.smi

> <i_m_source_file_index>
527

> <i_lp_mmshare_version>
43012

> <i_f3d_flags>
0

> <s_epik_input>
W0NIM11bQ0BASF0xW0NIMl1bQ0gyXVtDSDJdW0NASF0oW0NASF0xW0NIM10pW05IXUMoPU8pW05IXUMoPU8pW0NIMl1uMltjSF1bY0hdbltjSF0y

> <s_epik_cmdline>
J2VwaWtfcHl0aG9uJywgJy1waCcsICc3LjAnLCAnLXRuJywgJzgnLCAnLW1hJywgJzIwMCcsICctbWV0YWxfYmluZGluZycsICctaW1hZScsICc8aW5maWxlLm1hZT4nLCAnLW9tYWUnLCAnPG91dGZpbGUubWFlPic=

> <r_lp_tautomer_probability>
1

> <r_epik_Ionization_Penalty>
0.816441

> <r_epik_Ionization_Penalty_Charging>
0

> <r_epik_Ionization_Penalty_Neutral>
0.816441

> <r_epik_State_Penalty>
0.849034

> <r_epik_Charging_Adjusted_Penalty>
0.849034

> <i_epik_Tot_Q>
1

> <i_epik_Tot_abs_Q>
1

> <r_epik_Metal_State_Penalty>
0.984327

> <b_epik_Metal_Only>
0

> <s_lp_Force_Field>
OPLS_2005

> <r_lp_Energy>
15.9829

> <b_lp_Chiralities_Consistent>
1

> <s_lp_Variant>
AV-unprocessed.smi:527-16

> <Gold.Version>
5.8.1

> <Gold.Id.Protein>
6NUR|6NUR_protein|mol2

> <Gold.PLP.Fitness>
45.4120

> <Gold.PLP.PLP>
-30.7238

> <Gold.PLP.part.hbond>
-3.0000

> <Gold.PLP.part.metal>
0.0000

> <Gold.PLP.part.buried>
-3.3177

> <Gold.PLP.part.nonpolar>
-25.1984

> <Gold.PLP.part.repulsive>
0.1636

> <Gold.PLP.ligand.clash>
0.0000

> <Gold.PLP.ligand.torsion>
0.1154

> <Gold.PLP.Chemscore.Hbond>
3.9520

> <Gold.PLP.Chemscore.CHOScore>
1.0000

> <Gold.PLP.Chemscore.Metal>
0.0000

> <Gold.Chemscore.Hbonds>
donor molecule, donor type, donor heavy atom, donor atom, acceptor molecule, acceptor atom, score
      L1  H     7    32       P1  7948  0.96
      L1  H    10    33       P1  7948  0.93
      L1  H    17    43       P1 10186  2.00
      L1  C    18    38       P1  7921  1.00

> <Gold.PLP.Chemscore.Internal.Correction>
0.0629

> <Gold.Rescore>
     Score         DG    S(hbond)    S(metal)    S(lipo)     H(rot)  DE(clash)    DE(int)     intcor
     15.77     -17.50       2.74        0.00      61.91       1.71       0.09       1.63       ----

> <Gold.Chemscore.Fitness>
15.7721

> <Gold.Chemscore.DG>
-17.4968

> <Gold.Chemscore.ZeroCoef>
-5.4800

> <Gold.Chemscore.Hbond>
2.7362

> <Gold.Chemscore.Metal>
0.0000

> <Gold.Chemscore.Lipo>
61.9068

> <Gold.Chemscore.Internal_Hbond>
0.0000

> <Gold.Chemscore.DEClash>
0.0931

> <Gold.Chemscore.DEInternal>
1.6316

> <Gold.Chemscore.Rot>
1.7052

> <Gold.Chemscore.Internal.Correction>
   9.000000E+99

> <Gold.Chemscore.Hbonds>
donor molecule, donor type, donor heavy atom, donor atom, acceptor molecule, acceptor atom, score
      L1  H     7    32       P1  7948  0.90
      L1  H    10    33       P1  7948  0.71
      L1  H    17    43       P1 10186  1.00

> <Gold.Chemscore.Hbond.Weighted>
-9.1390

> <Gold.Chemscore.Metal.Weighted>
-0.0000

> <Gold.Chemscore.Lipo.Weighted>
-7.2431

> <Gold.Chemscore.Internal_Hbond.Weighted>
0.0000

> <Gold.Chemscore.DEClash.Weighted>
0.0931

> <Gold.Chemscore.DEInternal.Weighted>
1.6316

> <Gold.Chemscore.Rot.Weighted>
4.3653

> <Gold.Chemscore.Internal.Correction.Weighted>
   9.000000E+99

> <Gold.Protein.RotatedTorsions>
[ 6907 6896 6895 6894 ] final   54.07 input  -60.11 | X-H torsion
[ 7974 7965 7964 7962 ] final   -0.88 input  175.53 | X-H torsion
[ 8008 7997 7996 7995 ] final  -31.10 input   59.86 | X-H torsion
[ 10167 10162 10161 10158 ] final   58.58 input  -65.29 | X-H torsion
[ 10718 10713 10712 10709 ] final -136.10 input   66.30 | X-H torsion
[ 10763 10752 10751 10750 ] final    6.23 input  -60.55 | X-H torsion
[ 11005 11000 10999 10996 ] final   27.21 input  -57.11 | X-H torsion

> <Gold.Protein.ActiveResidues>
 VAL166  LYS551  ARG553  GLY616  TRP617  ASP618  TYR619  PRO620  LYS621  CYS622 
 ASP623  PHE694  ASN695  SER759  ASP760  ASP761  ALA762  ILE779  LEU786  VAL792 
 PHE793  MET794  SER795  GLU796  ALA797  LYS798  CYS799  TRP800  GLU811  SER814 

> <Gold.Protein.RotatedAtoms>
  152.3402  134.7145  160.0265 H   0  0  0  0  0  0  0  0  0  0  0  0  # atno 6907 bound_to 6896
  151.7532  133.3323  159.3405 H   0  0  0  0  0  0  0  0  0  0  0  0  # atno 6908 bound_to 6896
  150.7475  134.6105  159.6128 H   0  0  0  0  0  0  0  0  0  0  0  0  # atno 6909 bound_to 6896
  146.2423  140.1337  142.8337 H   0  0  0  0  0  0  0  0  0  0  0  0  # atno 7974 bound_to 7965
  154.4226  140.1773  156.1513 H   0  0  0  0  0  0  0  0  0  0  0  0  # atno 8008 bound_to 7997
  155.9913  140.3368  155.6731 H   0  0  0  0  0  0  0  0  0  0  0  0  # atno 8009 bound_to 7997
  155.6369  140.0676  157.2622 H   0  0  0  0  0  0  0  0  0  0  0  0  # atno 8010 bound_to 7997
  140.1857  144.4137  150.6594 H   0  0  0  0  0  0  0  0  0  0  0  0  # atno 10167 bound_to 10162
  156.2734  130.7278  151.1253 H   0  0  0  0  0  0  0  0  0  0  0  0  # atno 10718 bound_to 10713
  153.2501  135.6913  153.7688 H   0  0  0  0  0  0  0  0  0  0  0  0  # atno 10763 bound_to 10752
  153.6786  135.3332  155.3173 H   0  0  0  0  0  0  0  0  0  0  0  0  # atno 10764 bound_to 10752
  154.8391  135.4517  154.1455 H   0  0  0  0  0  0  0  0  0  0  0  0  # atno 10765 bound_to 10752
  140.3287  134.2462  155.7705 H   0  0  0  0  0  0  0  0  0  0  0  0  # atno 11005 bound_to 11000
  145.0305  140.8867  143.5112 LP  0  0  0  0  0  0  0  0  0  0  0  0  # atno 17320 bound_to 7965
  145.1400  139.2578  143.5495 LP  0  0  0  0  0  0  0  0  0  0  0  0  # atno 17321 bound_to 7965
  140.6490  143.2220  151.6121 LP  0  0  0  0  0  0  0  0  0  0  0  0  # atno 17342 bound_to 10162
  139.5277  144.3009  152.1074 LP  0  0  0  0  0  0  0  0  0  0  0  0  # atno 17343 bound_to 10162
  157.7291  131.0626  150.5789 LP  0  0  0  0  0  0  0  0  0  0  0  0  # atno 17370 bound_to 10713
  156.5887  130.4323  149.5946 LP  0  0  0  0  0  0  0  0  0  0  0  0  # atno 17371 bound_to 10713
  141.2069  133.7821  157.0151 LP  0  0  0  0  0  0  0  0  0  0  0  0  # atno 17394 bound_to 11000
  140.0879  134.9610  157.1730 LP  0  0  0  0  0  0  0  0  0  0  0  0  # atno 17395 bound_to 11000

$$$$
