AV-unprocessed.smi:3279|AV-procd|sdf|12551|dock5
  -GOLD-   2272018473D 1   1.00000     0.00000
 Structure written by MMmdl.
 36 36  0  0  0  0  0  0  0  0  1 V2000
  148.7188  139.0004  153.7824 C   0  0  0  0  0  0  0  0  0  0  0  0
  149.3997  140.1584  154.5334 C   0  0  1  0  0  0  0  0  0  0  0  0
  148.4617  140.8966  155.5121 C   0  0  0  0  0  0  0  0  0  0  0  0
  149.1453  141.9641  156.2366 N   0  0  0  0  0  0  0  0  0  0  0  0
  149.9638  141.7981  157.2874 C   0  0  0  0  0  0  0  0  0  0  0  0
  150.2458  140.6996  157.7653 O   0  0  0  0  0  0  0  0  0  0  0  0
  150.5567  143.0695  157.8889 C   0  0  0  0  0  0  0  0  0  0  0  0
  151.1707  142.7335  159.1301 O   0  0  0  0  0  0  0  0  0  0  0  0
  152.0497  143.6876  159.7310 C   0  0  0  0  0  0  0  0  0  0  0  0
  153.1129  143.9556  158.6538 C   0  0  0  0  0  0  0  0  0  0  0  0
  152.7248  143.0947  160.9834 C   0  0  0  0  0  0  0  0  0  0  0  0
  151.3114  144.9998  160.0632 C   0  0  0  0  0  0  0  0  0  0  0  0
  150.6407  139.6895  155.2293 C   0  0  0  0  0  0  0  0  0  0  0  0
  151.8810  140.1019  154.9938 N   0  0  0  0  0  0  0  0  0  0  0  0
  152.6458  139.3750  155.8916 N   0  0  0  0  0  0  0  0  0  0  0  0
  151.9053  138.5843  156.6159 N   0  0  0  0  0  0  0  0  0  0  0  0
  150.6321  138.7776  156.2041 N   0  0  0  0  0  0  0  0  0  0  0  0
  149.8394  138.2911  156.5975 H   0  0  0  0  0  0  0  0  0  0  0  0
  149.4141  138.5213  153.0925 H   0  0  0  0  0  0  0  0  0  0  0  0
  147.8686  139.3452  153.1943 H   0  0  0  0  0  0  0  0  0  0  0  0
  148.3579  138.2379  154.4737 H   0  0  0  0  0  0  0  0  0  0  0  0
  149.7143  140.8835  153.7806 H   0  0  0  0  0  0  0  0  0  0  0  0
  147.5841  141.2763  154.9859 H   0  0  0  0  0  0  0  0  0  0  0  0
  148.0861  140.1934  156.2562 H   0  0  0  0  0  0  0  0  0  0  0  0
  148.9760  142.9084  155.9211 H   0  0  0  0  0  0  0  0  0  0  0  0
  151.2804  143.4895  157.1901 H   0  0  0  0  0  0  0  0  0  0  0  0
  149.7526  143.7932  158.0187 H   0  0  0  0  0  0  0  0  0  0  0  0
  153.8553  144.6768  158.9974 H   0  0  0  0  0  0  0  0  0  0  0  0
  152.6614  144.3540  157.7445 H   0  0  0  0  0  0  0  0  0  0  0  0
  153.6415  143.0409  158.3835 H   0  0  0  0  0  0  0  0  0  0  0  0
  153.1908  142.1338  160.7628 H   0  0  0  0  0  0  0  0  0  0  0  0
  152.0177  142.9435  161.7987 H   0  0  0  0  0  0  0  0  0  0  0  0
  153.5034  143.7594  161.3587 H   0  0  0  0  0  0  0  0  0  0  0  0
  152.0121  145.7708  160.3853 H   0  0  0  0  0  0  0  0  0  0  0  0
  150.5897  144.8716  160.8698 H   0  0  0  0  0  0  0  0  0  0  0  0
  150.7767  145.3838  159.1939 H   0  0  0  0  0  0  0  0  0  0  0  0
  1  2  1  0  0  0  0
  1 19  1  0  0  0  0
  1 20  1  0  0  0  0
  1 21  1  0  0  0  0
  2  3  1  0  0  0  0
  2 13  1  0  0  0  0
  2 22  1  0  0  0  0
  3  4  1  0  0  0  0
  3 23  1  0  0  0  0
  3 24  1  0  0  0  0
  4  5  1  0  0  0  0
  4 25  1  0  0  0  0
  5  6  2  0  0  0  0
  5  7  1  0  0  0  0
  7  8  1  0  0  0  0
  7 26  1  0  0  0  0
  7 27  1  0  0  0  0
  8  9  1  0  0  0  0
  9 10  1  0  0  0  0
  9 11  1  0  0  0  0
  9 12  1  0  0  0  0
 10 28  1  0  0  0  0
 10 29  1  0  0  0  0
 10 30  1  0  0  0  0
 11 31  1  0  0  0  0
 11 32  1  0  0  0  0
 11 33  1  0  0  0  0
 12 34  1  0  0  0  0
 12 35  1  0  0  0  0
 12 36  1  0  0  0  0
 13 17  1  0  0  0  0
 13 14  2  0  0  0  0
 14 15  1  0  0  0  0
 15 16  2  0  0  0  0
 16 17  1  0  0  0  0
 17 18  1  0  0  0  0
M  END
> <s_m_source_file>
AV-unprocessed.smi

> <i_m_source_file_index>
3279

> <i_lp_mmshare_version>
43012

> <i_f3d_flags>
0

> <s_epik_input>
W25IXTFubm5jMVtDQEhdKFtDSDNdKVtDSDJdW05IXUMoPU8pW0NIMl1PQyhbQ0gzXSkoW0NIM10pW0NIM10=

> <s_epik_cmdline>
J2VwaWtfcHl0aG9uJywgJy1waCcsICc3LjAnLCAnLXRuJywgJzgnLCAnLW1hJywgJzIwMCcsICctbWV0YWxfYmluZGluZycsICctaW1hZScsICc8aW5maWxlLm1hZT4nLCAnLW9tYWUnLCAnPG91dGZpbGUubWFlPic=

> <r_lp_tautomer_probability>
0.3

> <r_epik_Ionization_Penalty>
1.45055

> <r_epik_Ionization_Penalty_Charging>
0

> <r_epik_Ionization_Penalty_Neutral>
1.45055

> <r_epik_State_Penalty>
2.31845

> <r_epik_Charging_Adjusted_Penalty>
2.31845

> <i_epik_Tot_Q>
0

> <i_epik_Tot_abs_Q>
0

> <r_epik_Metal_State_Penalty>
2.36898

> <b_epik_Metal_Only>
0

> <s_lp_Force_Field>
OPLS_2005

> <r_lp_Energy>
7.01933

> <b_lp_Chiralities_Consistent>
1

> <s_lp_Variant>
AV-unprocessed.smi:3279-4

> <Gold.Version>
5.8.1

> <Gold.Id.Protein>
6NUR|6NUR_protein|mol2

> <Gold.PLP.Fitness>
39.0560

> <Gold.PLP.PLP>
-31.0990

> <Gold.PLP.part.hbond>
-3.0000

> <Gold.PLP.part.metal>
0.0000

> <Gold.PLP.part.buried>
-3.0630

> <Gold.PLP.part.nonpolar>
-24.3902

> <Gold.PLP.part.repulsive>
0.1495

> <Gold.PLP.ligand.clash>
0.0000

> <Gold.PLP.ligand.torsion>
0.3452

> <Gold.PLP.Chemscore.Hbond>
2.8320

> <Gold.PLP.Chemscore.CHOScore>
0.0000

> <Gold.PLP.Chemscore.Metal>
0.0000

> <Gold.Chemscore.Hbonds>
donor molecule, donor type, donor heavy atom, donor atom, acceptor molecule, acceptor atom, score
      L1  H     4    25       P1  8028  1.00
      P1  H  7989  7998       L1    14  0.88
      P1  H  7997  8009       L1    15  1.00

> <Gold.PLP.Chemscore.Internal.Correction>
0.1516

> <Gold.Rescore>
     Score         DG    S(hbond)    S(metal)    S(lipo)     H(rot)  DE(clash)    DE(int)     intcor
     14.34     -15.97       2.65        0.00      73.18       2.71       0.12       1.50       ----

> <Gold.Chemscore.Fitness>
14.3398

> <Gold.Chemscore.DG>
-15.9680

> <Gold.Chemscore.ZeroCoef>
-5.4800

> <Gold.Chemscore.Hbond>
2.6531

> <Gold.Chemscore.Metal>
0.0000

> <Gold.Chemscore.Lipo>
73.1833

> <Gold.Chemscore.Internal_Hbond>
0.0000

> <Gold.Chemscore.DEClash>
0.1243

> <Gold.Chemscore.DEInternal>
1.5038

> <Gold.Chemscore.Rot>
2.7094

> <Gold.Chemscore.Internal.Correction>
   9.000000E+99

> <Gold.Chemscore.Hbonds>
donor molecule, donor type, donor heavy atom, donor atom, acceptor molecule, acceptor atom, score
      L1  H     4    25       P1  8028  1.00
      P1  H  7989  7998       L1    14  0.26
      P1  H  7997  8009       L1    15  0.74

> <Gold.Chemscore.Hbond.Weighted>
-8.8615

> <Gold.Chemscore.Metal.Weighted>
-0.0000

> <Gold.Chemscore.Lipo.Weighted>
-8.5624

> <Gold.Chemscore.Internal_Hbond.Weighted>
0.0000

> <Gold.Chemscore.DEClash.Weighted>
0.1243

> <Gold.Chemscore.DEInternal.Weighted>
1.5038

> <Gold.Chemscore.Rot.Weighted>
6.9360

> <Gold.Chemscore.Internal.Correction.Weighted>
   9.000000E+99

> <Gold.Protein.RotatedTorsions>
[ 6907 6896 6895 6894 ] final   60.36 input  -60.11 | X-H torsion
[ 7974 7965 7964 7962 ] final  -33.32 input  175.53 | X-H torsion
[ 8008 7997 7996 7995 ] final -144.67 input   59.86 | X-H torsion
[ 10167 10162 10161 10158 ] final -157.37 input  -65.29 | X-H torsion
[ 10718 10713 10712 10709 ] final -163.81 input   66.30 | X-H torsion
[ 10763 10752 10751 10750 ] final -140.34 input  -60.55 | X-H torsion
[ 11005 11000 10999 10996 ] final   26.15 input  -57.11 | X-H torsion

> <Gold.Protein.ActiveResidues>
 VAL166  LYS551  ARG553  GLY616  TRP617  ASP618  TYR619  PRO620  LYS621  CYS622 
 ASP623  PHE694  ASN695  SER759  ASP760  ASP761  ALA762  ILE779  LEU786  VAL792 
 PHE793  MET794  SER795  GLU796  ALA797  LYS798  CYS799  TRP800  GLU811  SER814 

> <Gold.Protein.RotatedAtoms>
  152.3996  134.6309  160.0074 H   0  0  0  0  0  0  0  0  0  0  0  0  # atno 6907 bound_to 6896
  151.6518  133.3315  159.3161 H   0  0  0  0  0  0  0  0  0  0  0  0  # atno 6908 bound_to 6896
  150.7898  134.6955  159.6565 H   0  0  0  0  0  0  0  0  0  0  0  0  # atno 6909 bound_to 6896
  146.0920  140.5901  142.8860 H   0  0  0  0  0  0  0  0  0  0  0  0  # atno 7974 bound_to 7965
  155.5307  140.0599  157.2889 H   0  0  0  0  0  0  0  0  0  0  0  0  # atno 8008 bound_to 7997
  154.4485  140.1936  156.0536 H   0  0  0  0  0  0  0  0  0  0  0  0  # atno 8009 bound_to 7997
  156.0654  140.3267  155.7515 H   0  0  0  0  0  0  0  0  0  0  0  0  # atno 8010 bound_to 7997
  139.6776  143.9637  152.2319 H   0  0  0  0  0  0  0  0  0  0  0  0  # atno 10167 bound_to 10162
  156.6300  130.8925  151.2975 H   0  0  0  0  0  0  0  0  0  0  0  0  # atno 10718 bound_to 10713
  154.8581  135.3556  154.5692 H   0  0  0  0  0  0  0  0  0  0  0  0  # atno 10763 bound_to 10752
  153.6305  135.7002  153.5282 H   0  0  0  0  0  0  0  0  0  0  0  0  # atno 10764 bound_to 10752
  153.3053  135.4194  155.1248 H   0  0  0  0  0  0  0  0  0  0  0  0  # atno 10765 bound_to 10752
  140.3401  134.2342  155.7691 H   0  0  0  0  0  0  0  0  0  0  0  0  # atno 11005 bound_to 11000
  144.7367  140.4829  143.6898 LP  0  0  0  0  0  0  0  0  0  0  0  0  # atno 17320 bound_to 7965
  145.6020  139.1504  143.3123 LP  0  0  0  0  0  0  0  0  0  0  0  0  # atno 17321 bound_to 7965
  139.9418  144.6676  150.8258 LP  0  0  0  0  0  0  0  0  0  0  0  0  # atno 17342 bound_to 10162
  140.7641  143.3239  151.2559 LP  0  0  0  0  0  0  0  0  0  0  0  0  # atno 17343 bound_to 10162
  157.7203  130.9549  150.1412 LP  0  0  0  0  0  0  0  0  0  0  0  0  # atno 17370 bound_to 10713
  156.2243  130.3676  149.8519 LP  0  0  0  0  0  0  0  0  0  0  0  0  # atno 17371 bound_to 10713
  141.2041  133.7896  157.0306 LP  0  0  0  0  0  0  0  0  0  0  0  0  # atno 17394 bound_to 11000
  140.0788  134.9660  157.1590 LP  0  0  0  0  0  0  0  0  0  0  0  0  # atno 17395 bound_to 11000

$$$$
