AV-unprocessed.smi:1445|AV-procd|sdf|5885|dock7
  -GOLD-   22720 5563D 1   1.00000     0.00000
 Structure written by MMmdl.
 46 47  0  0  0  0  0  0  0  0  2 V2000
  151.6702  138.0591  154.5692 C   0  0  0  0  0  0  0  0  0  0  0  0
  150.3103  138.0902  154.1493 O   0  0  0  0  0  0  0  0  0  0  0  0
  149.6018  139.2682  154.2925 C   0  0  0  0  0  0  0  0  0  0  0  0
  150.2163  140.3217  154.8871 N   0  0  0  0  0  0  0  0  0  0  0  0
  149.5254  141.4707  155.0320 C   0  0  0  0  0  0  0  0  0  0  0  0
  148.1955  141.6284  154.6020 C   0  0  0  0  0  0  0  0  0  0  0  0
  147.5559  140.5375  153.9852 C   0  0  0  0  0  0  0  0  0  0  0  0
  148.2719  139.3272  153.8130 C   0  0  0  0  0  0  0  0  0  0  0  0
  147.7260  138.1551  153.2171 N   0  0  0  0  0  0  0  0  0  0  0  0
  146.4433  137.7628  153.1342 C   0  0  0  0  0  0  0  0  0  0  0  0
  145.4736  138.3826  153.5702 O   0  0  0  0  0  0  0  0  0  0  0  0
  146.3361  136.5927  152.4886 N   0  0  0  0  0  0  0  0  0  0  0  0
  145.0840  135.8864  152.2423 C   0  0  0  0  0  0  0  0  0  0  0  0
  145.2190  134.8698  151.0918 C   0  0  0  0  0  0  0  0  0  0  0  0
  145.2934  133.4706  151.5826 N   0  3  1  0  0  0  0  0  0  0  0  0
  144.8689  132.4895  150.5505 C   0  0  0  0  0  0  0  0  0  0  0  0
  144.8190  131.0659  151.1270 C   0  0  0  0  0  0  0  0  0  0  0  0
  146.1725  130.6700  151.7296 C   0  0  0  0  0  0  0  0  0  0  0  0
  146.6142  131.7077  152.7750 C   0  0  1  0  0  0  0  0  0  0  0  0
  147.9807  131.3498  153.3764 C   0  0  0  0  0  0  0  0  0  0  0  0
  146.6209  133.1203  152.1562 C   0  0  0  0  0  0  0  0  0  0  0  0
  152.0793  137.0650  154.3895 H   0  0  0  0  0  0  0  0  0  0  0  0
  151.7635  138.2668  155.6362 H   0  0  0  0  0  0  0  0  0  0  0  0
  152.2776  138.7724  154.0101 H   0  0  0  0  0  0  0  0  0  0  0  0
  150.0464  142.2874  155.5096 H   0  0  0  0  0  0  0  0  0  0  0  0
  147.6761  142.5644  154.7457 H   0  0  0  0  0  0  0  0  0  0  0  0
  146.5305  140.6524  153.6723 H   0  0  0  0  0  0  0  0  0  0  0  0
  148.3990  137.5634  152.7519 H   0  0  0  0  0  0  0  0  0  0  0  0
  147.1826  136.1529  152.1575 H   0  0  0  0  0  0  0  0  0  0  0  0
  144.8069  135.3888  153.1707 H   0  0  0  0  0  0  0  0  0  0  0  0
  144.2913  136.6047  152.0260 H   0  0  0  0  0  0  0  0  0  0  0  0
  144.3483  134.9702  150.4424 H   0  0  0  0  0  0  0  0  0  0  0  0
  146.0893  135.0940  150.4730 H   0  0  0  0  0  0  0  0  0  0  0  0
  143.8804  132.7537  150.1725 H   0  0  0  0  0  0  0  0  0  0  0  0
  145.5550  132.5299  149.7026 H   0  0  0  0  0  0  0  0  0  0  0  0
  144.0443  131.0068  151.8928 H   0  0  0  0  0  0  0  0  0  0  0  0
  144.5374  130.3576  150.3473 H   0  0  0  0  0  0  0  0  0  0  0  0
  146.1009  129.6809  152.1835 H   0  0  0  0  0  0  0  0  0  0  0  0
  146.9189  130.5969  150.9372 H   0  0  0  0  0  0  0  0  0  0  0  0
  145.8861  131.6991  153.5879 H   0  0  0  0  0  0  0  0  0  0  0  0
  148.7606  131.3426  152.6144 H   0  0  0  0  0  0  0  0  0  0  0  0
  147.9594  130.3627  153.8390 H   0  0  0  0  0  0  0  0  0  0  0  0
  148.2725  132.0662  154.1449 H   0  0  0  0  0  0  0  0  0  0  0  0
  147.3816  133.1869  151.3763 H   0  0  0  0  0  0  0  0  0  0  0  0
  146.8969  133.8410  152.9251 H   0  0  0  0  0  0  0  0  0  0  0  0
  144.6191  133.3965  152.3308 H   0  0  0  0  0  0  0  0  0  0  0  0
  1  2  1  0  0  0  0
  1 22  1  0  0  0  0
  1 23  1  0  0  0  0
  1 24  1  0  0  0  0
  2  3  1  0  0  0  0
  3  8  1  0  0  0  0
  3  4  2  0  0  0  0
  4  5  1  0  0  0  0
  5  6  2  0  0  0  0
  5 25  1  0  0  0  0
  6  7  1  0  0  0  0
  6 26  1  0  0  0  0
  7  8  2  0  0  0  0
  7 27  1  0  0  0  0
  8  9  1  0  0  0  0
  9 10  1  0  0  0  0
  9 28  1  0  0  0  0
 10 11  2  0  0  0  0
 10 12  1  0  0  0  0
 12 13  1  0  0  0  0
 12 29  1  0  0  0  0
 13 14  1  0  0  0  0
 13 30  1  0  0  0  0
 13 31  1  0  0  0  0
 14 15  1  0  0  0  0
 14 32  1  0  0  0  0
 14 33  1  0  0  0  0
 15 21  1  0  0  0  0
 15 16  1  0  0  0  0
 15 46  1  0  0  0  0
 16 17  1  0  0  0  0
 16 34  1  0  0  0  0
 16 35  1  0  0  0  0
 17 18  1  0  0  0  0
 17 36  1  0  0  0  0
 17 37  1  0  0  0  0
 18 19  1  0  0  0  0
 18 38  1  0  0  0  0
 18 39  1  0  0  0  0
 19 20  1  0  0  0  0
 19 21  1  0  0  0  0
 19 40  1  0  0  0  0
 20 41  1  0  0  0  0
 20 42  1  0  0  0  0
 20 43  1  0  0  0  0
 21 44  1  0  0  0  0
 21 45  1  0  0  0  0
M  CHG  1  15   1
M  END
> <s_m_source_file>
AV-unprocessed.smi

> <i_m_source_file_index>
1445

> <i_lp_mmshare_version>
43012

> <i_f3d_flags>
0

> <s_epik_input>
W0NIM11PYzFuW2NIXVtjSF1bY0hdYzFbTkhdQyg9TylbTkhdW0NIMl1bQ0gyXU4yW0NIMl1bQ0gyXVtDSDJdW0NAQEhdKFtDSDNdKVtDSDJdMg==

> <s_epik_cmdline>
J2VwaWtfcHl0aG9uJywgJy1waCcsICc3LjAnLCAnLXRuJywgJzgnLCAnLW1hJywgJzIwMCcsICctbWV0YWxfYmluZGluZycsICctaW1hZScsICc8aW5maWxlLm1hZT4nLCAnLW9tYWUnLCAnPG91dGZpbGUubWFlPic=

> <r_lp_tautomer_probability>
1

> <r_epik_Ionization_Penalty>
0.00179544

> <r_epik_Ionization_Penalty_Charging>
0.00171832

> <r_epik_Ionization_Penalty_Neutral>
7.71118e-05

> <r_epik_State_Penalty>
0.0011618

> <r_epik_Charging_Adjusted_Penalty>
0.00288012

> <i_epik_Tot_Q>
1

> <i_epik_Tot_abs_Q>
1

> <r_epik_Metal_State_Penalty>
-0

> <b_epik_Metal_Only>
0

> <s_lp_Force_Field>
OPLS_2005

> <r_lp_Energy>
18.8564

> <b_lp_Chiralities_Consistent>
1

> <s_lp_Variant>
AV-unprocessed.smi:1445-1

> <Gold.Version>
5.8.1

> <Gold.Id.Protein>
6NUR|6NUR_protein|mol2

> <Gold.PLP.Fitness>
45.3365

> <Gold.PLP.PLP>
-35.3841

> <Gold.PLP.part.hbond>
-3.3436

> <Gold.PLP.part.metal>
0.0000

> <Gold.PLP.part.buried>
-1.9137

> <Gold.PLP.part.nonpolar>
-33.2758

> <Gold.PLP.part.repulsive>
2.8087

> <Gold.PLP.ligand.clash>
0.0000

> <Gold.PLP.ligand.torsion>
0.8018

> <Gold.PLP.Chemscore.Hbond>
2.9440

> <Gold.PLP.Chemscore.CHOScore>
0.9008

> <Gold.PLP.Chemscore.Metal>
0.0000

> <Gold.Chemscore.Hbonds>
donor molecule, donor type, donor heavy atom, donor atom, acceptor molecule, acceptor atom, score
      L1  H     9    28       P1  7948  1.00
      L1  H    12    29       P1  7948  1.00
      P1  H  7989  7998       L1     4  0.94
      L1  C     5    25       P1  8028  0.47

> <Gold.PLP.Chemscore.Internal.Correction>
0.0214

> <Gold.Rescore>
     Score         DG    S(hbond)    S(metal)    S(lipo)     H(rot)  DE(clash)    DE(int)     intcor
     15.46     -18.45       2.10        0.00      88.37       1.71       1.11       1.88       ----

> <Gold.Chemscore.Fitness>
15.4597

> <Gold.Chemscore.DG>
-18.4527

> <Gold.Chemscore.ZeroCoef>
-5.4800

> <Gold.Chemscore.Hbond>
2.0995

> <Gold.Chemscore.Metal>
0.0000

> <Gold.Chemscore.Lipo>
88.3736

> <Gold.Chemscore.Internal_Hbond>
0.0000

> <Gold.Chemscore.DEClash>
1.1133

> <Gold.Chemscore.DEInternal>
1.8798

> <Gold.Chemscore.Rot>
1.7107

> <Gold.Chemscore.Internal.Correction>
   9.000000E+99

> <Gold.Chemscore.Hbonds>
donor molecule, donor type, donor heavy atom, donor atom, acceptor molecule, acceptor atom, score
      L1  H     9    28       P1  7948  0.99
      L1  H    12    29       P1  7948  0.94
      P1  H  7989  7998       L1     4  0.10

> <Gold.Chemscore.Hbond.Weighted>
-7.0124

> <Gold.Chemscore.Metal.Weighted>
-0.0000

> <Gold.Chemscore.Lipo.Weighted>
-10.3397

> <Gold.Chemscore.Internal_Hbond.Weighted>
0.0000

> <Gold.Chemscore.DEClash.Weighted>
1.1133

> <Gold.Chemscore.DEInternal.Weighted>
1.8798

> <Gold.Chemscore.Rot.Weighted>
4.3794

> <Gold.Chemscore.Internal.Correction.Weighted>
   9.000000E+99

> <Gold.Protein.RotatedTorsions>
[ 6907 6896 6895 6894 ] final -115.66 input  -60.11 | X-H torsion
[ 7974 7965 7964 7962 ] final -139.57 input  175.53 | X-H torsion
[ 8008 7997 7996 7995 ] final -165.54 input   59.86 | X-H torsion
[ 10167 10162 10161 10158 ] final   71.88 input  -65.29 | X-H torsion
[ 10718 10713 10712 10709 ] final  137.68 input   66.30 | X-H torsion
[ 10763 10752 10751 10750 ] final -156.98 input  -60.55 | X-H torsion
[ 11005 11000 10999 10996 ] final  -12.15 input  -57.11 | X-H torsion

> <Gold.Protein.ActiveResidues>
 VAL166  LYS551  ARG553  GLY616  TRP617  ASP618  TYR619  PRO620  LYS621  CYS622 
 ASP623  PHE694  ASN695  SER759  ASP760  ASP761  ALA762  ILE779  LEU786  VAL792 
 PHE793  MET794  SER795  GLU796  ALA797  LYS798  CYS799  TRP800  GLU811  SER814 

> <Gold.Protein.RotatedAtoms>
  150.7995  133.8627  159.3236 H   0  0  0  0  0  0  0  0  0  0  0  0  # atno 6907 bound_to 6896
  151.6443  135.1007  160.0157 H   0  0  0  0  0  0  0  0  0  0  0  0  # atno 6908 bound_to 6896
  152.4081  133.6880  159.6409 H   0  0  0  0  0  0  0  0  0  0  0  0  # atno 6909 bound_to 6896
  144.8667  140.6303  143.5293 H   0  0  0  0  0  0  0  0  0  0  0  0  # atno 7974 bound_to 7965
  155.8513  140.0963  157.1673 H   0  0  0  0  0  0  0  0  0  0  0  0  # atno 8008 bound_to 7997
  154.3985  140.1382  156.3909 H   0  0  0  0  0  0  0  0  0  0  0  0  # atno 8009 bound_to 7997
  155.7958  140.3454  155.5377 H   0  0  0  0  0  0  0  0  0  0  0  0  # atno 8010 bound_to 7997
  140.0413  144.5387  150.7432 H   0  0  0  0  0  0  0  0  0  0  0  0  # atno 10167 bound_to 10162
  157.4334  131.1051  151.0224 H   0  0  0  0  0  0  0  0  0  0  0  0  # atno 10718 bound_to 10713
  154.7671  135.3134  154.8264 H   0  0  0  0  0  0  0  0  0  0  0  0  # atno 10763 bound_to 10752
  153.9009  135.6816  153.4759 H   0  0  0  0  0  0  0  0  0  0  0  0  # atno 10764 bound_to 10752
  153.1279  135.4793  154.9235 H   0  0  0  0  0  0  0  0  0  0  0  0  # atno 10765 bound_to 10752
  140.7627  133.8502  155.9138 H   0  0  0  0  0  0  0  0  0  0  0  0  # atno 11005 bound_to 11000
  145.4209  139.1564  143.4075 LP  0  0  0  0  0  0  0  0  0  0  0  0  # atno 17320 bound_to 7965
  146.2900  140.4319  142.8743 LP  0  0  0  0  0  0  0  0  0  0  0  0  # atno 17321 bound_to 7965
  140.7259  143.2635  151.4122 LP  0  0  0  0  0  0  0  0  0  0  0  0  # atno 17342 bound_to 10162
  139.6012  144.1292  152.2200 LP  0  0  0  0  0  0  0  0  0  0  0  0  # atno 17343 bound_to 10162
  157.1112  130.6022  149.5482 LP  0  0  0  0  0  0  0  0  0  0  0  0  # atno 17370 bound_to 10713
  155.9922  130.4979  150.7329 LP  0  0  0  0  0  0  0  0  0  0  0  0  # atno 17371 bound_to 10713
  140.9648  134.1609  157.4625 LP  0  0  0  0  0  0  0  0  0  0  0  0  # atno 17394 bound_to 11000
  139.8768  134.9957  156.5760 LP  0  0  0  0  0  0  0  0  0  0  0  0  # atno 17395 bound_to 11000

$$$$
