AV-unprocessed.smi:1923|AV-procd|sdf|7789|dock3
  -GOLD-   22720 9533D 1   1.00000     0.00000
 Structure written by MMmdl.
 55 57  0  0  0  0  0  0  0  0  2 V2000
  145.7535  132.1485  150.8188 C   0  0  0  0  0  0  0  0  0  0  0  0
  145.4488  133.4834  151.5126 C   0  0  2  0  0  0  0  0  0  0  0  0
  145.4216  134.6520  150.5134 C   0  0  0  0  0  0  0  0  0  0  0  0
  145.1473  135.9886  151.2238 C   0  0  0  0  0  0  0  0  0  0  0  0
  146.1475  136.2473  152.2921 N   0  3  1  0  0  0  0  0  0  0  0  0
  145.9797  137.5909  152.9021 C   0  0  0  0  0  0  0  0  0  0  0  0
  146.6486  138.7007  152.0744 C   0  0  0  0  0  0  0  0  0  0  0  0
  147.9706  139.0085  152.6030 N   0  0  0  0  0  0  0  0  0  0  0  0
  148.2043  139.3993  153.8628 C   0  0  0  0  0  0  0  0  0  0  0  0
  147.3155  139.5278  154.7042 O   0  0  0  0  0  0  0  0  0  0  0  0
  149.5154  139.6076  154.0739 N   0  0  0  0  0  0  0  0  0  0  0  0
  150.1645  140.0520  155.2579 C   0  0  0  0  0  0  0  0  0  0  0  0
  149.5845  140.9209  156.2111 C   0  0  0  0  0  0  0  0  0  0  0  0
  150.3414  141.3036  157.3349 C   0  0  0  0  0  0  0  0  0  0  0  0
  151.6632  140.8195  157.4791 C   0  0  0  0  0  0  0  0  0  0  0  0
  152.4394  141.1931  158.5979 N   0  0  0  0  0  0  0  0  0  0  0  0
  152.0096  142.3553  159.3741 C   0  0  0  0  0  0  0  0  0  0  0  0
  153.1139  142.7826  160.3558 C   0  0  0  0  0  0  0  0  0  0  0  0
  153.4791  141.6782  161.1767 O   0  0  0  0  0  0  0  0  0  0  0  0
  153.9991  140.5977  160.4094 C   0  0  0  0  0  0  0  0  0  0  0  0
  152.9288  140.0932  159.4259 C   0  0  0  0  0  0  0  0  0  0  0  0
  152.2170  139.9909  156.5603 N   0  0  0  0  0  0  0  0  0  0  0  0
  151.4889  139.6276  155.4842 C   0  0  0  0  0  0  0  0  0  0  0  0
  146.1700  135.1460  153.2919 C   0  0  0  0  0  0  0  0  0  0  0  0
  146.4662  133.7930  152.6231 C   0  0  0  0  0  0  0  0  0  0  0  0
  146.7333  132.1636  150.3401 H   0  0  0  0  0  0  0  0  0  0  0  0
  145.0115  131.9267  150.0513 H   0  0  0  0  0  0  0  0  0  0  0  0
  145.7448  131.3243  151.5326 H   0  0  0  0  0  0  0  0  0  0  0  0
  144.4609  133.4023  151.9689 H   0  0  0  0  0  0  0  0  0  0  0  0
  146.3741  134.7097  149.9844 H   0  0  0  0  0  0  0  0  0  0  0  0
  144.6577  134.4768  149.7549 H   0  0  0  0  0  0  0  0  0  0  0  0
  145.1757  136.7934  150.4879 H   0  0  0  0  0  0  0  0  0  0  0  0
  144.1445  135.9876  151.6543 H   0  0  0  0  0  0  0  0  0  0  0  0
  144.9155  137.8209  152.9737 H   0  0  0  0  0  0  0  0  0  0  0  0
  146.3627  137.5829  153.9239 H   0  0  0  0  0  0  0  0  0  0  0  0
  146.7539  138.4023  151.0312 H   0  0  0  0  0  0  0  0  0  0  0  0
  146.0354  139.6033  152.0921 H   0  0  0  0  0  0  0  0  0  0  0  0
  148.7550  138.9211  151.9734 H   0  0  0  0  0  0  0  0  0  0  0  0
  150.1307  139.3794  153.3068 H   0  0  0  0  0  0  0  0  0  0  0  0
  148.5844  141.3100  156.1020 H   0  0  0  0  0  0  0  0  0  0  0  0
  149.8961  141.9528  158.0739 H   0  0  0  0  0  0  0  0  0  0  0  0
  151.7746  143.1881  158.7100 H   0  0  0  0  0  0  0  0  0  0  0  0
  151.0995  142.1071  159.9217 H   0  0  0  0  0  0  0  0  0  0  0  0
  153.9880  143.1562  159.8201 H   0  0  0  0  0  0  0  0  0  0  0  0
  152.7584  143.5946  160.9901 H   0  0  0  0  0  0  0  0  0  0  0  0
  154.8972  140.9145  159.8767 H   0  0  0  0  0  0  0  0  0  0  0  0
  154.2965  139.7947  161.0841 H   0  0  0  0  0  0  0  0  0  0  0  0
  152.0885  139.6670  159.9757 H   0  0  0  0  0  0  0  0  0  0  0  0
  153.3526  139.2905  158.8244 H   0  0  0  0  0  0  0  0  0  0  0  0
  151.9821  138.9713  154.7819 H   0  0  0  0  0  0  0  0  0  0  0  0
  146.9296  135.3336  154.0495 H   0  0  0  0  0  0  0  0  0  0  0  0
  145.2113  135.1038  153.8112 H   0  0  0  0  0  0  0  0  0  0  0  0
  146.4504  133.0023  153.3744 H   0  0  0  0  0  0  0  0  0  0  0  0
  147.4757  133.8048  152.2092 H   0  0  0  0  0  0  0  0  0  0  0  0
  147.0488  136.2508  151.8361 H   0  0  0  0  0  0  0  0  0  0  0  0
  1  2  1  0  0  0  0
  1 26  1  0  0  0  0
  1 27  1  0  0  0  0
  1 28  1  0  0  0  0
  2 25  1  0  0  0  0
  2  3  1  0  0  0  0
  2 29  1  0  0  0  0
  3  4  1  0  0  0  0
  3 30  1  0  0  0  0
  3 31  1  0  0  0  0
  4  5  1  0  0  0  0
  4 32  1  0  0  0  0
  4 33  1  0  0  0  0
  5  6  1  0  0  0  0
  5 24  1  0  0  0  0
  5 55  1  0  0  0  0
  6  7  1  0  0  0  0
  6 34  1  0  0  0  0
  6 35  1  0  0  0  0
  7  8  1  0  0  0  0
  7 36  1  0  0  0  0
  7 37  1  0  0  0  0
  8  9  1  0  0  0  0
  8 38  1  0  0  0  0
  9 10  2  0  0  0  0
  9 11  1  0  0  0  0
 11 12  1  0  0  0  0
 11 39  1  0  0  0  0
 12 23  1  0  0  0  0
 12 13  2  0  0  0  0
 13 14  1  0  0  0  0
 13 40  1  0  0  0  0
 14 15  2  0  0  0  0
 14 41  1  0  0  0  0
 15 16  1  0  0  0  0
 15 22  1  0  0  0  0
 16 21  1  0  0  0  0
 16 17  1  0  0  0  0
 17 18  1  0  0  0  0
 17 42  1  0  0  0  0
 17 43  1  0  0  0  0
 18 19  1  0  0  0  0
 18 44  1  0  0  0  0
 18 45  1  0  0  0  0
 19 20  1  0  0  0  0
 20 21  1  0  0  0  0
 20 46  1  0  0  0  0
 20 47  1  0  0  0  0
 21 48  1  0  0  0  0
 21 49  1  0  0  0  0
 22 23  2  0  0  0  0
 23 50  1  0  0  0  0
 24 25  1  0  0  0  0
 24 51  1  0  0  0  0
 24 52  1  0  0  0  0
 25 53  1  0  0  0  0
 25 54  1  0  0  0  0
M  CHG  1   5   1
M  END
> <s_m_source_file>
AV-unprocessed.smi

> <i_m_source_file_index>
1923

> <i_lp_mmshare_version>
43012

> <i_f3d_flags>
0

> <s_epik_input>
W0NIM11bQ0hdMVtDSDJdW0NIMl1OKFtDSDJdW0NIMl0xKVtDSDJdW0NIMl1bTkhdQyg9TylbTkhdYzJbY0hdW2NIXWMobltjSF0yKU4zW0NIMl1bQ0gyXU9bQ0gyXVtDSDJdMw==

> <s_epik_cmdline>
J2VwaWtfcHl0aG9uJywgJy1waCcsICc3LjAnLCAnLXRuJywgJzgnLCAnLW1hJywgJzIwMCcsICctbWV0YWxfYmluZGluZycsICctaW1hZScsICc8aW5maWxlLm1hZT4nLCAnLW9tYWUnLCAnPG91dGZpbGUubWFlPic=

> <r_lp_tautomer_probability>
1

> <r_epik_Ionization_Penalty>
0.00307683

> <r_epik_Ionization_Penalty_Charging>
0.00139388

> <r_epik_Ionization_Penalty_Neutral>
0.00168296

> <r_epik_State_Penalty>
-0

> <r_epik_Charging_Adjusted_Penalty>
0.00139388

> <i_epik_Tot_Q>
1

> <i_epik_Tot_abs_Q>
1

> <r_epik_Metal_State_Penalty>
-0

> <b_epik_Metal_Only>
0

> <s_lp_Force_Field>
OPLS_2005

> <r_lp_Energy>
34.4311

> <b_lp_Chiralities_Consistent>
1

> <s_lp_Variant>
AV-unprocessed.smi:1923-1

> <Gold.Version>
5.8.1

> <Gold.Id.Protein>
6NUR|6NUR_protein|mol2

> <Gold.PLP.Fitness>
55.8975

> <Gold.PLP.PLP>
-46.2907

> <Gold.PLP.part.hbond>
-4.4878

> <Gold.PLP.part.metal>
0.0000

> <Gold.PLP.part.buried>
-4.2056

> <Gold.PLP.part.nonpolar>
-37.7989

> <Gold.PLP.part.repulsive>
0.3193

> <Gold.PLP.ligand.clash>
0.0000

> <Gold.PLP.ligand.torsion>
0.9746

> <Gold.PLP.Chemscore.Hbond>
3.7258

> <Gold.PLP.Chemscore.CHOScore>
0.0000

> <Gold.PLP.Chemscore.Metal>
0.0000

> <Gold.Chemscore.Hbonds>
donor molecule, donor type, donor heavy atom, donor atom, acceptor molecule, acceptor atom, score
      L1  H     5    55       P1  7948  2.00
      L1  H     8    38       P1  7957  0.66
      L1  H    11    39       P1  7957  0.14
      P1  H  7997  8010       L1    22  0.75

> <Gold.PLP.Chemscore.Internal.Correction>
0.3788

> <Gold.Rescore>
     Score         DG    S(hbond)    S(metal)    S(lipo)     H(rot)  DE(clash)    DE(int)     intcor
     19.72     -22.91       2.68        0.00     107.36       1.60       0.26       2.93       ----

> <Gold.Chemscore.Fitness>
19.7181

> <Gold.Chemscore.DG>
-22.9092

> <Gold.Chemscore.ZeroCoef>
-5.4800

> <Gold.Chemscore.Hbond>
2.6822

> <Gold.Chemscore.Metal>
0.0000

> <Gold.Chemscore.Lipo>
107.3561

> <Gold.Chemscore.Internal_Hbond>
0.0000

> <Gold.Chemscore.DEClash>
0.2638

> <Gold.Chemscore.DEInternal>
2.9273

> <Gold.Chemscore.Rot>
1.5976

> <Gold.Chemscore.Internal.Correction>
   9.000000E+99

> <Gold.Chemscore.Hbonds>
donor molecule, donor type, donor heavy atom, donor atom, acceptor molecule, acceptor atom, score
      L1  H     5    55       P1  7948  0.98
      L1  H     8    38       P1  7957  0.56
      L1  H    11    39       P1  7957  0.14
      P1  H  7997  8010       L1    22  0.66

> <Gold.Chemscore.Hbond.Weighted>
-8.9584

> <Gold.Chemscore.Metal.Weighted>
-0.0000

> <Gold.Chemscore.Lipo.Weighted>
-12.5607

> <Gold.Chemscore.Internal_Hbond.Weighted>
0.0000

> <Gold.Chemscore.DEClash.Weighted>
0.2638

> <Gold.Chemscore.DEInternal.Weighted>
2.9273

> <Gold.Chemscore.Rot.Weighted>
4.0899

> <Gold.Chemscore.Internal.Correction.Weighted>
   9.000000E+99

> <Gold.Protein.RotatedTorsions>
[ 6907 6896 6895 6894 ] final  146.52 input  -60.11 | X-H torsion
[ 7974 7965 7964 7962 ] final -130.67 input  175.53 | X-H torsion
[ 8008 7997 7996 7995 ] final   78.17 input   59.86 | X-H torsion
[ 10167 10162 10161 10158 ] final   -3.45 input  -65.29 | X-H torsion
[ 10718 10713 10712 10709 ] final  150.63 input   66.30 | X-H torsion
[ 10763 10752 10751 10750 ] final -159.12 input  -60.55 | X-H torsion
[ 11005 11000 10999 10996 ] final   72.15 input  -57.11 | X-H torsion

> <Gold.Protein.ActiveResidues>
 VAL166  LYS551  ARG553  GLY616  TRP617  ASP618  TYR619  PRO620  LYS621  CYS622 
 ASP623  PHE694  ASN695  SER759  ASP760  ASP761  ALA762  ILE779  LEU786  VAL792 
 PHE793  MET794  SER795  GLU796  ALA797  LYS798  CYS799  TRP800  GLU811  SER814 

> <Gold.Protein.RotatedAtoms>
  152.1669  133.4618  159.4888 H   0  0  0  0  0  0  0  0  0  0  0  0  # atno 6907 bound_to 6896
  150.6914  134.2002  159.4328 H   0  0  0  0  0  0  0  0  0  0  0  0  # atno 6908 bound_to 6896
  151.9907  134.9980  160.0612 H   0  0  0  0  0  0  0  0  0  0  0  0  # atno 6909 bound_to 6896
  144.9453  140.7284  143.4821 H   0  0  0  0  0  0  0  0  0  0  0  0  # atno 7974 bound_to 7965
  155.8520  140.3457  155.5699 H   0  0  0  0  0  0  0  0  0  0  0  0  # atno 8008 bound_to 7997
  155.8027  140.0887  157.1967 H   0  0  0  0  0  0  0  0  0  0  0  0  # atno 8009 bound_to 7997
  154.4008  140.1462  156.3281 H   0  0  0  0  0  0  0  0  0  0  0  0  # atno 8010 bound_to 7997
  140.6891  143.6538  150.8326 H   0  0  0  0  0  0  0  0  0  0  0  0  # atno 10167 bound_to 10162
  157.2810  131.0835  151.1531 H   0  0  0  0  0  0  0  0  0  0  0  0  # atno 10718 bound_to 10713
  154.7501  135.3090  154.8573 H   0  0  0  0  0  0  0  0  0  0  0  0  # atno 10763 bound_to 10752
  153.9363  135.6780  153.4749 H   0  0  0  0  0  0  0  0  0  0  0  0  # atno 10764 bound_to 10752
  153.1097  135.4872  154.8941 H   0  0  0  0  0  0  0  0  0  0  0  0  # atno 10765 bound_to 10752
  139.9506  134.7234  156.0873 H   0  0  0  0  0  0  0  0  0  0  0  0  # atno 11005 bound_to 11000
  145.2928  139.1877  143.4731 LP  0  0  0  0  0  0  0  0  0  0  0  0  # atno 17320 bound_to 7965
  146.3301  140.2907  142.8615 LP  0  0  0  0  0  0  0  0  0  0  0  0  # atno 17321 bound_to 7965
  140.0249  143.5504  152.2785 LP  0  0  0  0  0  0  0  0  0  0  0  0  # atno 17342 bound_to 10162
  139.6275  144.7639  151.2606 LP  0  0  0  0  0  0  0  0  0  0  0  0  # atno 17343 bound_to 10162
  157.2965  130.6822  149.6141 LP  0  0  0  0  0  0  0  0  0  0  0  0  # atno 17370 bound_to 10713
  155.9664  130.4405  150.5301 LP  0  0  0  0  0  0  0  0  0  0  0  0  # atno 17371 bound_to 10713
  141.1167  133.6625  156.3113 LP  0  0  0  0  0  0  0  0  0  0  0  0  # atno 17394 bound_to 11000
  140.5729  134.5822  157.5462 LP  0  0  0  0  0  0  0  0  0  0  0  0  # atno 17395 bound_to 11000

$$$$
