AV-unprocessed.smi:1404|AV-procd|sdf|5705|dock8
  -GOLD-   22720 5333D 1   1.00000     0.00000
 Structure written by MMmdl.
 47 48  0  0  0  0  0  0  0  0  1 V2000
  143.9589  134.4996  150.3341 C   0  0  0  0  0  0  0  0  0  0  0  0
  144.7777  133.4111  150.8252 N   0  0  0  0  0  0  0  0  0  0  0  0
  144.3989  132.0766  150.5401 C   0  0  0  0  0  0  0  0  0  0  0  0
  143.3944  131.7954  149.8856 O   0  0  0  0  0  0  0  0  0  0  0  0
  145.2982  131.0659  151.0838 C   0  0  0  0  0  0  0  0  0  0  0  0
  146.3928  131.4186  151.7926 C   0  0  0  0  0  0  0  0  0  0  0  0
  146.7419  132.7312  152.0531 N   0  0  0  0  0  0  0  0  0  0  0  0
  147.9477  133.0238  152.8383 C   0  0  0  0  0  0  0  0  0  0  0  0
  147.6379  133.7207  154.1694 C   0  0  0  0  0  0  0  0  0  0  0  0
  147.0654  133.1170  155.0777 O   0  0  0  0  0  0  0  0  0  0  0  0
  148.0410  134.9936  154.2747 N   0  0  0  0  0  0  0  0  0  0  0  0
  147.8192  135.8407  155.4422 C   0  0  0  0  0  0  0  0  0  0  0  0
  149.1525  136.3428  156.0661 C   0  0  0  0  0  0  0  0  0  0  0  0
  148.8470  136.7464  157.5285 C   0  0  0  0  0  0  0  0  0  0  0  0
  150.0999  135.1172  156.1141 C   0  0  0  0  0  0  0  0  0  0  0  0
  149.7520  137.4491  155.2673 N   0  0  0  0  0  0  0  0  0  0  0  0
  148.9676  138.6895  155.2422 C   0  0  0  0  0  0  0  0  0  0  0  0
  149.5805  139.7429  154.3038 C   0  0  0  0  0  0  0  0  0  0  0  0
  150.9228  140.0083  154.6929 O   0  0  0  0  0  0  0  0  0  0  0  0
  151.7341  138.8404  154.6717 C   0  0  0  0  0  0  0  0  0  0  0  0
  151.1398  137.7780  155.6119 C   0  0  0  0  0  0  0  0  0  0  0  0
  145.9249  133.7732  151.5648 C   0  0  0  0  0  0  0  0  0  0  0  0
  146.2116  134.9538  151.7816 O   0  0  0  0  0  0  0  0  0  0  0  0
  143.0732  134.1306  149.8183 H   0  0  0  0  0  0  0  0  0  0  0  0
  144.5763  135.0812  149.6472 H   0  0  0  0  0  0  0  0  0  0  0  0
  143.6565  135.0943  151.1981 H   0  0  0  0  0  0  0  0  0  0  0  0
  145.0837  130.0207  150.9163 H   0  0  0  0  0  0  0  0  0  0  0  0
  147.0250  130.6312  152.1765 H   0  0  0  0  0  0  0  0  0  0  0  0
  148.4854  132.1002  153.0563 H   0  0  0  0  0  0  0  0  0  0  0  0
  148.6356  133.6340  152.2498 H   0  0  0  0  0  0  0  0  0  0  0  0
  148.5033  135.4182  153.4837 H   0  0  0  0  0  0  0  0  0  0  0  0
  147.1782  136.6811  155.1721 H   0  0  0  0  0  0  0  0  0  0  0  0
  147.2467  135.2685  156.1741 H   0  0  0  0  0  0  0  0  0  0  0  0
  148.4114  135.9126  158.0806 H   0  0  0  0  0  0  0  0  0  0  0  0
  148.1334  137.5681  157.5873 H   0  0  0  0  0  0  0  0  0  0  0  0
  149.7436  137.0458  158.0706 H   0  0  0  0  0  0  0  0  0  0  0  0
  149.6054  134.2453  156.5437 H   0  0  0  0  0  0  0  0  0  0  0  0
  150.9805  135.2991  156.7300 H   0  0  0  0  0  0  0  0  0  0  0  0
  150.4463  134.8363  155.1188 H   0  0  0  0  0  0  0  0  0  0  0  0
  147.9507  138.5005  154.9034 H   0  0  0  0  0  0  0  0  0  0  0  0
  148.8952  139.1111  156.2448 H   0  0  0  0  0  0  0  0  0  0  0  0
  149.5540  139.3999  153.2682 H   0  0  0  0  0  0  0  0  0  0  0  0
  149.0073  140.6691  154.3490 H   0  0  0  0  0  0  0  0  0  0  0  0
  151.8074  138.4572  153.6527 H   0  0  0  0  0  0  0  0  0  0  0  0
  152.7436  139.1031  154.9884 H   0  0  0  0  0  0  0  0  0  0  0  0
  151.1969  138.1462  156.6363 H   0  0  0  0  0  0  0  0  0  0  0  0
  151.7742  136.8955  155.5564 H   0  0  0  0  0  0  0  0  0  0  0  0
  1  2  1  0  0  0  0
  1 24  1  0  0  0  0
  1 25  1  0  0  0  0
  1 26  1  0  0  0  0
  2 22  1  0  0  0  0
  2  3  1  0  0  0  0
  3  4  2  0  0  0  0
  3  5  1  0  0  0  0
  5  6  2  0  0  0  0
  5 27  1  0  0  0  0
  6  7  1  0  0  0  0
  6 28  1  0  0  0  0
  7  8  1  0  0  0  0
  7 22  1  0  0  0  0
  8  9  1  0  0  0  0
  8 29  1  0  0  0  0
  8 30  1  0  0  0  0
  9 10  2  0  0  0  0
  9 11  1  0  0  0  0
 11 12  1  0  0  0  0
 11 31  1  0  0  0  0
 12 13  1  0  0  0  0
 12 32  1  0  0  0  0
 12 33  1  0  0  0  0
 13 14  1  0  0  0  0
 13 15  1  0  0  0  0
 13 16  1  0  0  0  0
 14 34  1  0  0  0  0
 14 35  1  0  0  0  0
 14 36  1  0  0  0  0
 15 37  1  0  0  0  0
 15 38  1  0  0  0  0
 15 39  1  0  0  0  0
 16 21  1  0  0  0  0
 16 17  1  0  0  0  0
 17 18  1  0  0  0  0
 17 40  1  0  0  0  0
 17 41  1  0  0  0  0
 18 19  1  0  0  0  0
 18 42  1  0  0  0  0
 18 43  1  0  0  0  0
 19 20  1  0  0  0  0
 20 21  1  0  0  0  0
 20 44  1  0  0  0  0
 20 45  1  0  0  0  0
 21 46  1  0  0  0  0
 21 47  1  0  0  0  0
 22 23  2  0  0  0  0
M  END
> <s_m_source_file>
AV-unprocessed.smi

> <i_m_source_file_index>
1404

> <i_lp_mmshare_version>
43012

> <i_f3d_flags>
0

> <s_epik_input>
W0NIM11uMWMoPU8pW2NIXVtjSF1uKGMxPU8pW0NIMl1DKD1PKVtOSF1bQ0gyXUMoW0NIM10pKFtDSDNdKU4yW0NIMl1bQ0gyXU9bQ0gyXVtDSDJdMg==

> <s_epik_cmdline>
J2VwaWtfcHl0aG9uJywgJy1waCcsICc3LjAnLCAnLXRuJywgJzgnLCAnLW1hJywgJzIwMCcsICctbWV0YWxfYmluZGluZycsICctaW1hZScsICc8aW5maWxlLm1hZT4nLCAnLW9tYWUnLCAnPG91dGZpbGUubWFlPic=

> <r_lp_tautomer_probability>
1

> <r_epik_Ionization_Penalty>
0.237382

> <r_epik_Ionization_Penalty_Charging>
1.16427e-08

> <r_epik_Ionization_Penalty_Neutral>
0.237382

> <r_epik_State_Penalty>
0.228245

> <r_epik_Charging_Adjusted_Penalty>
0.228245

> <i_epik_Tot_Q>
0

> <i_epik_Tot_abs_Q>
0

> <r_epik_Metal_State_Penalty>
0.22822

> <b_epik_Metal_Only>
0

> <s_lp_Force_Field>
OPLS_2005

> <r_lp_Energy>
49.615

> <b_lp_Chiralities_Consistent>
1

> <s_lp_Variant>
AV-unprocessed.smi:1404-1

> <Gold.Version>
5.8.1

> <Gold.Id.Protein>
6NUR|6NUR_protein|mol2

> <Gold.PLP.Fitness>
41.4943

> <Gold.PLP.PLP>
-32.1300

> <Gold.PLP.part.hbond>
-3.0000

> <Gold.PLP.part.metal>
0.0000

> <Gold.PLP.part.buried>
-3.3433

> <Gold.PLP.part.nonpolar>
-28.8171

> <Gold.PLP.part.repulsive>
2.4178

> <Gold.PLP.ligand.clash>
0.0000

> <Gold.PLP.ligand.torsion>
0.4365

> <Gold.PLP.Chemscore.Hbond>
2.9588

> <Gold.PLP.Chemscore.CHOScore>
0.4177

> <Gold.PLP.Chemscore.Metal>
0.0000

> <Gold.Chemscore.Hbonds>
donor molecule, donor type, donor heavy atom, donor atom, acceptor molecule, acceptor atom, score
      L1  H    11    31       P1  7948  1.00
      P1  H  7989  7998       L1    19  1.00
      P1  H 10785 10796       L1     4  1.00
      L1  C     6    28       P1 10747  0.17

> <Gold.PLP.Chemscore.Internal.Correction>
0.1079

> <Gold.Rescore>
     Score         DG    S(hbond)    S(metal)    S(lipo)     H(rot)  DE(clash)    DE(int)     intcor
     13.21     -15.97       2.27        0.00      70.02       2.07       2.15       0.60       ----

> <Gold.Chemscore.Fitness>
13.2144

> <Gold.Chemscore.DG>
-15.9685

> <Gold.Chemscore.ZeroCoef>
-5.4800

> <Gold.Chemscore.Hbond>
2.2712

> <Gold.Chemscore.Metal>
0.0000

> <Gold.Chemscore.Lipo>
70.0214

> <Gold.Chemscore.Internal_Hbond>
0.0000

> <Gold.Chemscore.DEClash>
2.1492

> <Gold.Chemscore.DEInternal>
0.6049

> <Gold.Chemscore.Rot>
2.0664

> <Gold.Chemscore.Internal.Correction>
   9.000000E+99

> <Gold.Chemscore.Hbonds>
donor molecule, donor type, donor heavy atom, donor atom, acceptor molecule, acceptor atom, score
      L1  H    11    31       P1  7948  0.98
      P1  H  7989  7998       L1    19  0.17
      P1  H 10785 10796       L1     4  0.91

> <Gold.Chemscore.Hbond.Weighted>
-7.5859

> <Gold.Chemscore.Metal.Weighted>
-0.0000

> <Gold.Chemscore.Lipo.Weighted>
-8.1925

> <Gold.Chemscore.Internal_Hbond.Weighted>
0.0000

> <Gold.Chemscore.DEClash.Weighted>
2.1492

> <Gold.Chemscore.DEInternal.Weighted>
0.6049

> <Gold.Chemscore.Rot.Weighted>
5.2899

> <Gold.Chemscore.Internal.Correction.Weighted>
   9.000000E+99

> <Gold.Protein.RotatedTorsions>
[ 6907 6896 6895 6894 ] final  116.95 input  -60.11 | X-H torsion
[ 7974 7965 7964 7962 ] final   70.34 input  175.53 | X-H torsion
[ 8008 7997 7996 7995 ] final -177.11 input   59.86 | X-H torsion
[ 10167 10162 10161 10158 ] final -134.50 input  -65.29 | X-H torsion
[ 10718 10713 10712 10709 ] final  -92.93 input   66.30 | X-H torsion
[ 10763 10752 10751 10750 ] final  175.34 input  -60.55 | X-H torsion
[ 11005 11000 10999 10996 ] final   87.61 input  -57.11 | X-H torsion

> <Gold.Protein.ActiveResidues>
 VAL166  LYS551  ARG553  GLY616  TRP617  ASP618  TYR619  PRO620  LYS621  CYS622 
 ASP623  PHE694  ASN695  SER759  ASP760  ASP761  ALA762  ILE779  LEU786  VAL792 
 PHE793  MET794  SER795  GLU796  ALA797  LYS798  CYS799  TRP800  GLU811  SER814 

> <Gold.Protein.RotatedAtoms>
  152.4644  133.7892  159.6892 H   0  0  0  0  0  0  0  0  0  0  0  0  # atno 6907 bound_to 6896
  150.8602  133.7645  159.3001 H   0  0  0  0  0  0  0  0  0  0  0  0  # atno 6908 bound_to 6896
  151.5212  135.1070  159.9931 H   0  0  0  0  0  0  0  0  0  0  0  0  # atno 6909 bound_to 6896
  145.7794  139.2880  143.1275 H   0  0  0  0  0  0  0  0  0  0  0  0  # atno 7974 bound_to 7965
  156.0030  140.1224  157.0529 H   0  0  0  0  0  0  0  0  0  0  0  0  # atno 8008 bound_to 7997
  154.4249  140.1103  156.5792 H   0  0  0  0  0  0  0  0  0  0  0  0  # atno 8009 bound_to 7997
  155.6186  140.3472  155.4647 H   0  0  0  0  0  0  0  0  0  0  0  0  # atno 8010 bound_to 7997
  139.8874  143.6765  152.2618 H   0  0  0  0  0  0  0  0  0  0  0  0  # atno 10167 bound_to 10162
  156.0007  130.5006  150.5699 H   0  0  0  0  0  0  0  0  0  0  0  0  # atno 10718 bound_to 10713
  154.4662  135.2769  155.1676 H   0  0  0  0  0  0  0  0  0  0  0  0  # atno 10763 bound_to 10752
  154.3444  135.6163  153.5615 H   0  0  0  0  0  0  0  0  0  0  0  0  # atno 10764 bound_to 10752
  152.9859  135.5796  154.5034 H   0  0  0  0  0  0  0  0  0  0  0  0  # atno 10765 bound_to 10752
  139.8915  134.8434  156.2885 H   0  0  0  0  0  0  0  0  0  0  0  0  # atno 11005 bound_to 11000
  146.0090  140.8453  142.9980 LP  0  0  0  0  0  0  0  0  0  0  0  0  # atno 17320 bound_to 7965
  144.6799  140.2462  143.7337 LP  0  0  0  0  0  0  0  0  0  0  0  0  # atno 17321 bound_to 7965
  139.7141  144.7615  151.1064 LP  0  0  0  0  0  0  0  0  0  0  0  0  # atno 17342 bound_to 10162
  140.7733  143.5293  150.9443 LP  0  0  0  0  0  0  0  0  0  0  0  0  # atno 17343 bound_to 10162
  157.3596  131.0747  151.1647 LP  0  0  0  0  0  0  0  0  0  0  0  0  # atno 17370 bound_to 10713
  157.2437  130.6581  149.5901 LP  0  0  0  0  0  0  0  0  0  0  0  0  # atno 17371 bound_to 10713
  140.9992  133.7162  156.0934 LP  0  0  0  0  0  0  0  0  0  0  0  0  # atno 17394 bound_to 11000
  140.7521  134.4033  157.5539 LP  0  0  0  0  0  0  0  0  0  0  0  0  # atno 17395 bound_to 11000

$$$$
