AV-unprocessed.smi:3108|AV-procd|sdf|11826|dock7
  -GOLD-   2272017203D 1   1.00000     0.00000
 Structure written by MMmdl.
 37 38  0  0  0  0  0  0  0  0  2 V2000
  151.4846  136.4699  155.7270 C   0  0  0  0  0  0  0  0  0  0  0  0
  151.1815  137.8879  155.3371 C   0  0  0  0  0  0  0  0  0  0  0  0
  151.0083  138.4177  154.0266 C   0  0  0  0  0  0  0  0  0  0  0  0
  150.7485  139.7152  154.0268 N   0  0  0  0  0  0  0  0  0  0  0  0
  150.7440  140.0578  155.3322 N   0  0  0  0  0  0  0  0  0  0  0  0
  150.4884  141.4330  155.7141 C   0  0  0  0  0  0  0  0  0  0  0  0
  150.5807  141.6275  157.2344 C   0  0  0  0  0  0  0  0  0  0  0  0
  150.6034  143.0601  157.5857 N   0  3  0  0  0  0  0  0  0  0  0  0
  151.9523  143.6596  157.5713 C   0  0  0  0  0  0  0  0  0  0  0  0
  152.5825  143.6512  158.9734 C   0  0  0  0  0  0  0  0  0  0  0  0
  152.6925  142.2595  159.6062 C   0  0  0  0  0  0  0  0  0  0  0  0
  152.8139  142.5087  161.1146 C   0  0  0  0  0  0  0  0  0  0  0  0
  152.2649  143.9215  161.3650 C   0  0  0  0  0  0  0  0  0  0  0  0
  151.7717  144.4340  160.0085 C   0  0  0  0  0  0  0  0  0  0  0  0
  151.0056  138.9755  156.1451 C   0  0  0  0  0  0  0  0  0  0  0  0
  151.7696  135.8646  154.8661 H   0  0  0  0  0  0  0  0  0  0  0  0
  150.6225  135.9874  156.1878 H   0  0  0  0  0  0  0  0  0  0  0  0
  152.3053  136.4156  156.4426 H   0  0  0  0  0  0  0  0  0  0  0  0
  151.0638  137.8999  153.0803 H   0  0  0  0  0  0  0  0  0  0  0  0
  151.2099  142.0733  155.2047 H   0  0  0  0  0  0  0  0  0  0  0  0
  149.4997  141.7157  155.3495 H   0  0  0  0  0  0  0  0  0  0  0  0
  149.7310  141.1523  157.7272 H   0  0  0  0  0  0  0  0  0  0  0  0
  151.4843  141.1507  157.6167 H   0  0  0  0  0  0  0  0  0  0  0  0
  150.0235  143.5611  156.9276 H   0  0  0  0  0  0  0  0  0  0  0  0
  152.5793  143.0901  156.8839 H   0  0  0  0  0  0  0  0  0  0  0  0
  151.8981  144.6782  157.1841 H   0  0  0  0  0  0  0  0  0  0  0  0
  153.5798  144.0925  158.9242 H   0  0  0  0  0  0  0  0  0  0  0  0
  151.7845  141.6880  159.4080 H   0  0  0  0  0  0  0  0  0  0  0  0
  153.5328  141.6861  159.2134 H   0  0  0  0  0  0  0  0  0  0  0  0
  152.2675  141.7549  161.6827 H   0  0  0  0  0  0  0  0  0  0  0  0
  153.8580  142.4568  161.4258 H   0  0  0  0  0  0  0  0  0  0  0  0
  151.4680  143.9273  162.1095 H   0  0  0  0  0  0  0  0  0  0  0  0
  153.0632  144.5644  161.7380 H   0  0  0  0  0  0  0  0  0  0  0  0
  151.8893  145.5132  159.9042 H   0  0  0  0  0  0  0  0  0  0  0  0
  150.7102  144.2063  159.8995 H   0  0  0  0  0  0  0  0  0  0  0  0
  151.0439  139.0658  157.2209 H   0  0  0  0  0  0  0  0  0  0  0  0
  150.2134  143.1713  158.5108 H   0  0  0  0  0  0  0  0  0  0  0  0
  1  2  1  0  0  0  0
  1 16  1  0  0  0  0
  1 17  1  0  0  0  0
  1 18  1  0  0  0  0
  2 15  2  0  0  0  0
  2  3  1  0  0  0  0
  3  4  2  0  0  0  0
  3 19  1  0  0  0  0
  4  5  1  0  0  0  0
  5  6  1  0  0  0  0
  5 15  1  0  0  0  0
  6  7  1  0  0  0  0
  6 20  1  0  0  0  0
  6 21  1  0  0  0  0
  7  8  1  0  0  0  0
  7 22  1  0  0  0  0
  7 23  1  0  0  0  0
  8  9  1  0  0  0  0
  8 24  1  0  0  0  0
  8 37  1  0  0  0  0
  9 10  1  0  0  0  0
  9 25  1  0  0  0  0
  9 26  1  0  0  0  0
 10 14  1  0  0  0  0
 10 11  1  0  0  0  0
 10 27  1  0  0  0  0
 11 12  1  0  0  0  0
 11 28  1  0  0  0  0
 11 29  1  0  0  0  0
 12 13  1  0  0  0  0
 12 30  1  0  0  0  0
 12 31  1  0  0  0  0
 13 14  1  0  0  0  0
 13 32  1  0  0  0  0
 13 33  1  0  0  0  0
 14 34  1  0  0  0  0
 14 35  1  0  0  0  0
 15 36  1  0  0  0  0
M  CHG  1   8   1
M  END
> <s_m_source_file>
AV-unprocessed.smi

> <i_m_source_file_index>
3108

> <i_lp_mmshare_version>
43012

> <i_f3d_flags>
0

> <s_epik_input>
W0NIM11jMVtjSF1ubihbY0hdMSlbQ0gyXVtDSDJdW05IXVtDSDJdW0NIXTJbQ0gyXVtDSDJdW0NIMl1bQ0gyXTI=

> <s_epik_cmdline>
J2VwaWtfcHl0aG9uJywgJy1waCcsICc3LjAnLCAnLXRuJywgJzgnLCAnLW1hJywgJzIwMCcsICctbWV0YWxfYmluZGluZycsICctaW1hZScsICc8aW5maWxlLm1hZT4nLCAnLW9tYWUnLCAnPG91dGZpbGUubWFlPic=

> <r_lp_tautomer_probability>
1

> <r_epik_Ionization_Penalty>
0.00170215

> <r_epik_Ionization_Penalty_Charging>
0.00169627

> <r_epik_Ionization_Penalty_Neutral>
5.87243e-06

> <r_epik_State_Penalty>
-0

> <r_epik_Charging_Adjusted_Penalty>
0.00169627

> <i_epik_Tot_Q>
1

> <i_epik_Tot_abs_Q>
1

> <r_epik_Metal_State_Penalty>
-0

> <b_epik_Metal_Only>
0

> <s_lp_Force_Field>
OPLS_2005

> <r_lp_Energy>
23.864

> <b_lp_Chiralities_Consistent>
1

> <s_lp_Variant>
AV-unprocessed.smi:3108-1

> <Gold.Version>
5.8.1

> <Gold.Id.Protein>
6NUR|6NUR_protein|mol2

> <Gold.PLP.Fitness>
49.7455

> <Gold.PLP.PLP>
-38.5689

> <Gold.PLP.part.hbond>
-2.0000

> <Gold.PLP.part.metal>
0.0000

> <Gold.PLP.part.buried>
-3.9650

> <Gold.PLP.part.nonpolar>
-32.0756

> <Gold.PLP.part.repulsive>
0.1883

> <Gold.PLP.ligand.clash>
0.0000

> <Gold.PLP.ligand.torsion>
0.4301

> <Gold.PLP.Chemscore.Hbond>
3.0000

> <Gold.PLP.Chemscore.CHOScore>
1.0032

> <Gold.PLP.Chemscore.Metal>
0.0000

> <Gold.Chemscore.Hbonds>
donor molecule, donor type, donor heavy atom, donor atom, acceptor molecule, acceptor atom, score
      L1  H     8    24       P1  8028  1.92
      P1  H  7989  7998       L1     4  0.95
      L1  C     3    19       P1  7948  0.02
      L1  C     3    19       P1  7949  1.00

> <Gold.PLP.Chemscore.Internal.Correction>
0.0271

> <Gold.Rescore>
     Score         DG    S(hbond)    S(metal)    S(lipo)     H(rot)  DE(clash)    DE(int)     intcor
     20.10     -20.47       1.87        0.00     108.06       1.52       0.00       0.37       ----

> <Gold.Chemscore.Fitness>
20.0996

> <Gold.Chemscore.DG>
-20.4692

> <Gold.Chemscore.ZeroCoef>
-5.4800

> <Gold.Chemscore.Hbond>
1.8690

> <Gold.Chemscore.Metal>
0.0000

> <Gold.Chemscore.Lipo>
108.0638

> <Gold.Chemscore.Internal_Hbond>
0.0000

> <Gold.Chemscore.DEClash>
0.0000

> <Gold.Chemscore.DEInternal>
0.3696

> <Gold.Chemscore.Rot>
1.5222

> <Gold.Chemscore.Internal.Correction>
   9.000000E+99

> <Gold.Chemscore.Hbonds>
donor molecule, donor type, donor heavy atom, donor atom, acceptor molecule, acceptor atom, score
      L1  H     8    24       P1  8028  0.90
      P1  H  7989  7998       L1     4  0.20

> <Gold.Chemscore.Hbond.Weighted>
-6.2426

> <Gold.Chemscore.Metal.Weighted>
-0.0000

> <Gold.Chemscore.Lipo.Weighted>
-12.6435

> <Gold.Chemscore.Internal_Hbond.Weighted>
0.0000

> <Gold.Chemscore.DEClash.Weighted>
0.0000

> <Gold.Chemscore.DEInternal.Weighted>
0.3696

> <Gold.Chemscore.Rot.Weighted>
3.8969

> <Gold.Chemscore.Internal.Correction.Weighted>
   9.000000E+99

> <Gold.Protein.RotatedTorsions>
[ 6907 6896 6895 6894 ] final  -38.13 input  -60.11 | X-H torsion
[ 7974 7965 7964 7962 ] final  -74.14 input  175.53 | X-H torsion
[ 8008 7997 7996 7995 ] final   -5.38 input   59.86 | X-H torsion
[ 10167 10162 10161 10158 ] final -176.96 input  -65.29 | X-H torsion
[ 10718 10713 10712 10709 ] final  103.14 input   66.30 | X-H torsion
[ 10763 10752 10751 10750 ] final  150.49 input  -60.55 | X-H torsion
[ 11005 11000 10999 10996 ] final   18.16 input  -57.11 | X-H torsion

> <Gold.Protein.ActiveResidues>
 VAL166  LYS551  ARG553  GLY616  TRP617  ASP618  TYR619  PRO620  LYS621  CYS622 
 ASP623  PHE694  ASN695  SER759  ASP760  ASP761  ALA762  ILE779  LEU786  VAL792 
 PHE793  MET794  SER795  GLU796  ALA797  LYS798  CYS799  TRP800  GLU811  SER814 

> <Gold.Protein.RotatedAtoms>
  151.0062  134.9361  159.7981 H   0  0  0  0  0  0  0  0  0  0  0  0  # atno 6907 bound_to 6896
  152.5291  134.3088  159.9116 H   0  0  0  0  0  0  0  0  0  0  0  0  # atno 6908 bound_to 6896
  151.3094  133.4045  159.2680 H   0  0  0  0  0  0  0  0  0  0  0  0  # atno 6909 bound_to 6896
  145.6430  140.9305  143.1025 H   0  0  0  0  0  0  0  0  0  0  0  0  # atno 7974 bound_to 7965
  154.6045  140.2460  155.7749 H   0  0  0  0  0  0  0  0  0  0  0  0  # atno 8008 bound_to 7997
  156.2332  140.2959  156.0194 H   0  0  0  0  0  0  0  0  0  0  0  0  # atno 8009 bound_to 7997
  155.2156  140.0398  157.2930 H   0  0  0  0  0  0  0  0  0  0  0  0  # atno 8010 bound_to 7997
  139.5503  144.2126  152.1065 H   0  0  0  0  0  0  0  0  0  0  0  0  # atno 10167 bound_to 10162
  157.6781  131.0771  150.5511 H   0  0  0  0  0  0  0  0  0  0  0  0  # atno 10718 bound_to 10713
  154.0884  135.2854  155.3276 H   0  0  0  0  0  0  0  0  0  0  0  0  # atno 10763 bound_to 10752
  154.6637  135.5325  153.8053 H   0  0  0  0  0  0  0  0  0  0  0  0  # atno 10764 bound_to 10752
  153.0422  135.6540  154.1055 H   0  0  0  0  0  0  0  0  0  0  0  0  # atno 10765 bound_to 10752
  140.4279  134.1450  155.7678 H   0  0  0  0  0  0  0  0  0  0  0  0  # atno 11005 bound_to 11000
  144.7150  139.8230  143.7402 LP  0  0  0  0  0  0  0  0  0  0  0  0  # atno 17320 bound_to 7965
  146.1265  139.4292  143.0195 LP  0  0  0  0  0  0  0  0  0  0  0  0  # atno 17321 bound_to 7965
  140.1620  144.5017  150.6627 LP  0  0  0  0  0  0  0  0  0  0  0  0  # atno 17342 bound_to 10162
  140.6764  143.2307  151.5496 LP  0  0  0  0  0  0  0  0  0  0  0  0  # atno 17343 bound_to 10162
  156.5815  130.4305  149.5975 LP  0  0  0  0  0  0  0  0  0  0  0  0  # atno 17370 bound_to 10713
  156.2657  130.6988  151.1770 LP  0  0  0  0  0  0  0  0  0  0  0  0  # atno 17371 bound_to 10713
  141.1757  133.8518  157.1427 LP  0  0  0  0  0  0  0  0  0  0  0  0  # atno 17394 bound_to 11000
  140.0154  134.9969  157.0483 LP  0  0  0  0  0  0  0  0  0  0  0  0  # atno 17395 bound_to 11000

$$$$
