AV-unprocessed.smi:3128|AV-procd|sdf|11918|dock10
  -GOLD-   2272017303D 1   1.00000     0.00000
 Structure written by MMmdl.
 40 40  0  0  0  0  0  0  0  0  2 V2000
  149.6128  141.4534  156.2371 C   0  0  0  0  0  0  0  0  0  0  0  0
  149.1047  141.2231  154.8025 C   0  0  0  0  0  0  0  0  0  0  0  0
  147.7722  141.9719  154.6060 C   0  0  0  0  0  0  0  0  0  0  0  0
  148.9931  139.7104  154.4542 C   0  0  2  0  0  0  0  0  0  0  0  0
  150.3431  138.9639  154.4603 C   0  0  0  0  0  0  0  0  0  0  0  0
  148.2795  139.4684  153.1958 N   0  0  0  0  0  0  0  0  0  0  0  0
  147.1580  138.7496  153.0176 C   0  0  0  0  0  0  0  0  0  0  0  0
  146.5529  138.1885  153.9314 O   0  0  0  0  0  0  0  0  0  0  0  0
  146.6401  138.6635  151.5818 C   0  0  0  0  0  0  0  0  0  0  0  0
  145.2525  138.1628  151.5286 N   0  3  0  0  0  0  0  0  0  0  0  0
  145.0978  136.7566  151.9514 C   0  0  0  0  0  0  0  0  0  0  0  0
  144.4191  135.9096  150.8630 C   0  0  0  0  0  0  0  0  0  0  0  0
  144.6724  134.4901  151.0349 N   0  0  0  0  0  0  0  0  0  0  0  0
  143.7590  133.4613  151.1293 C   0  0  0  0  0  0  0  0  0  0  0  0
  144.4666  132.3020  151.2712 C   0  0  0  0  0  0  0  0  0  0  0  0
  145.8237  132.7291  151.2552 C   0  0  0  0  0  0  0  0  0  0  0  0
  145.9435  134.0392  151.1117 N   0  0  0  0  0  0  0  0  0  0  0  0
  148.9626  140.9745  156.9697 H   0  0  0  0  0  0  0  0  0  0  0  0
  149.6494  142.5171  156.4743 H   0  0  0  0  0  0  0  0  0  0  0  0
  150.6212  141.0654  156.3775 H   0  0  0  0  0  0  0  0  0  0  0  0
  149.8333  141.6798  154.1322 H   0  0  0  0  0  0  0  0  0  0  0  0
  146.9832  141.5425  155.2240 H   0  0  0  0  0  0  0  0  0  0  0  0
  147.4372  141.9439  153.5693 H   0  0  0  0  0  0  0  0  0  0  0  0
  147.8700  143.0232  154.8778 H   0  0  0  0  0  0  0  0  0  0  0  0
  148.3713  139.2448  155.2201 H   0  0  0  0  0  0  0  0  0  0  0  0
  150.7759  138.9279  155.4596 H   0  0  0  0  0  0  0  0  0  0  0  0
  151.0715  139.4382  153.8024 H   0  0  0  0  0  0  0  0  0  0  0  0
  150.2209  137.9311  154.1326 H   0  0  0  0  0  0  0  0  0  0  0  0
  148.6887  139.8908  152.3749 H   0  0  0  0  0  0  0  0  0  0  0  0
  146.6891  139.6539  151.1279 H   0  0  0  0  0  0  0  0  0  0  0  0
  147.2840  138.0020  151.0000 H   0  0  0  0  0  0  0  0  0  0  0  0
  144.6848  138.7400  152.1332 H   0  0  0  0  0  0  0  0  0  0  0  0
  146.0836  136.3474  152.1754 H   0  0  0  0  0  0  0  0  0  0  0  0
  144.5161  136.7115  152.8732 H   0  0  0  0  0  0  0  0  0  0  0  0
  143.3417  136.0822  150.8516 H   0  0  0  0  0  0  0  0  0  0  0  0
  144.7922  136.2042  149.8812 H   0  0  0  0  0  0  0  0  0  0  0  0
  142.6940  133.6364  151.0866 H   0  0  0  0  0  0  0  0  0  0  0  0
  144.0747  131.3008  151.3728 H   0  0  0  0  0  0  0  0  0  0  0  0
  146.7188  132.1305  151.3411 H   0  0  0  0  0  0  0  0  0  0  0  0
  144.9099  138.2616  150.5834 H   0  0  0  0  0  0  0  0  0  0  0  0
  1  2  1  0  0  0  0
  1 18  1  0  0  0  0
  1 19  1  0  0  0  0
  1 20  1  0  0  0  0
  2  3  1  0  0  0  0
  2  4  1  0  0  0  0
  2 21  1  0  0  0  0
  3 22  1  0  0  0  0
  3 23  1  0  0  0  0
  3 24  1  0  0  0  0
  4  5  1  0  0  0  0
  4  6  1  0  0  0  0
  4 25  1  0  0  0  0
  5 26  1  0  0  0  0
  5 27  1  0  0  0  0
  5 28  1  0  0  0  0
  6  7  1  0  0  0  0
  6 29  1  0  0  0  0
  7  8  2  0  0  0  0
  7  9  1  0  0  0  0
  9 10  1  0  0  0  0
  9 30  1  0  0  0  0
  9 31  1  0  0  0  0
 10 11  1  0  0  0  0
 10 32  1  0  0  0  0
 10 40  1  0  0  0  0
 11 12  1  0  0  0  0
 11 33  1  0  0  0  0
 11 34  1  0  0  0  0
 12 13  1  0  0  0  0
 12 35  1  0  0  0  0
 12 36  1  0  0  0  0
 13 17  1  0  0  0  0
 13 14  1  0  0  0  0
 14 15  2  0  0  0  0
 14 37  1  0  0  0  0
 15 16  1  0  0  0  0
 15 38  1  0  0  0  0
 16 17  2  0  0  0  0
 16 39  1  0  0  0  0
M  CHG  1  10   1
M  END
> <s_m_source_file>
AV-unprocessed.smi

> <i_m_source_file_index>
3128

> <i_lp_mmshare_version>
43012

> <i_f3d_flags>
0

> <s_epik_input>
W0NIM11bQ0hdKFtDSDNdKVtDQEhdKFtDSDNdKVtOSF1DKD1PKVtDSDJdW05IXVtDSDJdW0NIMl1uMVtjSF1bY0hdW2NIXW4x

> <s_epik_cmdline>
J2VwaWtfcHl0aG9uJywgJy1waCcsICc3LjAnLCAnLXRuJywgJzgnLCAnLW1hJywgJzIwMCcsICctbWV0YWxfYmluZGluZycsICctaW1hZScsICc8aW5maWxlLm1hZT4nLCAnLW9tYWUnLCAnPG91dGZpbGUubWFlPic=

> <r_lp_tautomer_probability>
1

> <r_epik_Ionization_Penalty>
0.20724

> <r_epik_Ionization_Penalty_Charging>
0.207237

> <r_epik_Ionization_Penalty_Neutral>
3.20642e-06

> <r_epik_State_Penalty>
0.197613

> <r_epik_Charging_Adjusted_Penalty>
0.40485

> <i_epik_Tot_Q>
1

> <i_epik_Tot_abs_Q>
1

> <r_epik_Metal_State_Penalty>
0.197789

> <b_epik_Metal_Only>
0

> <s_lp_Force_Field>
OPLS_2005

> <r_lp_Energy>
3.68696

> <b_lp_Chiralities_Consistent>
1

> <s_lp_Variant>
AV-unprocessed.smi:3128-1

> <Gold.Version>
5.8.1

> <Gold.Id.Protein>
6NUR|6NUR_protein|mol2

> <Gold.PLP.Fitness>
48.1242

> <Gold.PLP.PLP>
-34.1680

> <Gold.PLP.part.hbond>
-1.9589

> <Gold.PLP.part.metal>
0.0000

> <Gold.PLP.part.buried>
-1.5477

> <Gold.PLP.part.nonpolar>
-32.3462

> <Gold.PLP.part.repulsive>
0.5056

> <Gold.PLP.ligand.clash>
0.0000

> <Gold.PLP.ligand.torsion>
0.8191

> <Gold.PLP.Chemscore.Hbond>
3.1809

> <Gold.PLP.Chemscore.CHOScore>
1.9759

> <Gold.PLP.Chemscore.Metal>
0.0000

> <Gold.Chemscore.Hbonds>
donor molecule, donor type, donor heavy atom, donor atom, acceptor molecule, acceptor atom, score
      L1  H     6    29       P1  7957  0.99
      L1  H    10    32       P1 10175  1.98
      L1  H    10    40       P1 10171  0.47
      L1  C    14    37       P1 10186  1.00
      L1  C    16    39       P1 10747  0.32

> <Gold.PLP.Chemscore.Internal.Correction>
0.1241

> <Gold.Rescore>
     Score         DG    S(hbond)    S(metal)    S(lipo)     H(rot)  DE(clash)    DE(int)     intcor
     14.62     -16.94       2.51        0.00      75.28       2.24       0.07       2.26       ----

> <Gold.Chemscore.Fitness>
14.6151

> <Gold.Chemscore.DG>
-16.9385

> <Gold.Chemscore.ZeroCoef>
-5.4800

> <Gold.Chemscore.Hbond>
2.5119

> <Gold.Chemscore.Metal>
0.0000

> <Gold.Chemscore.Lipo>
75.2761

> <Gold.Chemscore.Internal_Hbond>
0.0000

> <Gold.Chemscore.DEClash>
0.0673

> <Gold.Chemscore.DEInternal>
2.2561

> <Gold.Chemscore.Rot>
2.2416

> <Gold.Chemscore.Internal.Correction>
   9.000000E+99

> <Gold.Chemscore.Hbonds>
donor molecule, donor type, donor heavy atom, donor atom, acceptor molecule, acceptor atom, score
      L1  H     6    29       P1  7957  0.92
      L1  H    10    32       P1 10175  0.89
      L1  H    10    40       P1 10171  0.45

> <Gold.Chemscore.Hbond.Weighted>
-8.3897

> <Gold.Chemscore.Metal.Weighted>
-0.0000

> <Gold.Chemscore.Lipo.Weighted>
-8.8073

> <Gold.Chemscore.Internal_Hbond.Weighted>
0.0000

> <Gold.Chemscore.DEClash.Weighted>
0.0673

> <Gold.Chemscore.DEInternal.Weighted>
2.2561

> <Gold.Chemscore.Rot.Weighted>
5.7385

> <Gold.Chemscore.Internal.Correction.Weighted>
   9.000000E+99

> <Gold.Protein.RotatedTorsions>
[ 6907 6896 6895 6894 ] final  168.96 input  -60.11 | X-H torsion
[ 7974 7965 7964 7962 ] final  -21.24 input  175.53 | X-H torsion
[ 8008 7997 7996 7995 ] final  105.61 input   59.86 | X-H torsion
[ 10167 10162 10161 10158 ] final   90.05 input  -65.29 | X-H torsion
[ 10718 10713 10712 10709 ] final  168.29 input   66.30 | X-H torsion
[ 10763 10752 10751 10750 ] final -103.85 input  -60.55 | X-H torsion
[ 11005 11000 10999 10996 ] final  -93.61 input  -57.11 | X-H torsion

> <Gold.Protein.ActiveResidues>
 VAL166  LYS551  ARG553  GLY616  TRP617  ASP618  TYR619  PRO620  LYS621  CYS622 
 ASP623  PHE694  ASN695  SER759  ASP760  ASP761  ALA762  ILE779  LEU786  VAL792 
 PHE793  MET794  SER795  GLU796  ALA797  LYS798  CYS799  TRP800  GLU811  SER814 

> <Gold.Protein.RotatedAtoms>
  151.8395  133.3421  159.3638 H   0  0  0  0  0  0  0  0  0  0  0  0  # atno 6907 bound_to 6896
  150.7239  134.5405  159.5754 H   0  0  0  0  0  0  0  0  0  0  0  0  # atno 6908 bound_to 6896
  152.2876  134.7759  160.0435 H   0  0  0  0  0  0  0  0  0  0  0  0  # atno 6909 bound_to 6896
  146.1744  140.4313  142.8519 H   0  0  0  0  0  0  0  0  0  0  0  0  # atno 7974 bound_to 7965
  156.1674  140.3127  155.8912 H   0  0  0  0  0  0  0  0  0  0  0  0  # atno 8008 bound_to 7997
  155.3659  140.0479  157.3063 H   0  0  0  0  0  0  0  0  0  0  0  0  # atno 8009 bound_to 7997
  154.5206  140.2197  155.8994 H   0  0  0  0  0  0  0  0  0  0  0  0  # atno 8010 bound_to 7997
  139.8512  144.6592  150.9168 H   0  0  0  0  0  0  0  0  0  0  0  0  # atno 10167 bound_to 10162
  157.0392  131.0281  151.2719 H   0  0  0  0  0  0  0  0  0  0  0  0  # atno 10718 bound_to 10713
  154.7837  135.4808  153.9899 H   0  0  0  0  0  0  0  0  0  0  0  0  # atno 10763 bound_to 10752
  153.1529  135.6794  153.8862 H   0  0  0  0  0  0  0  0  0  0  0  0  # atno 10764 bound_to 10752
  153.8500  135.3168  155.3410 H   0  0  0  0  0  0  0  0  0  0  0  0  # atno 10765 bound_to 10752
  141.1492  133.7900  157.0184 H   0  0  0  0  0  0  0  0  0  0  0  0  # atno 11005 bound_to 11000
  144.8213  140.6554  143.6351 LP  0  0  0  0  0  0  0  0  0  0  0  0  # atno 17320 bound_to 7965
  145.4252  139.1557  143.4052 LP  0  0  0  0  0  0  0  0  0  0  0  0  # atno 17321 bound_to 7965
  140.7787  143.3826  151.1450 LP  0  0  0  0  0  0  0  0  0  0  0  0  # atno 17342 bound_to 10162
  139.7464  143.8846  152.3064 LP  0  0  0  0  0  0  0  0  0  0  0  0  # atno 17343 bound_to 10162
  157.5118  130.7943  149.7713 LP  0  0  0  0  0  0  0  0  0  0  0  0  # atno 17370 bound_to 10713
  156.0044  130.3863  150.2487 LP  0  0  0  0  0  0  0  0  0  0  0  0  # atno 17371 bound_to 10713
  140.0832  134.9636  157.1657 LP  0  0  0  0  0  0  0  0  0  0  0  0  # atno 17394 bound_to 11000
  140.3548  134.2559  155.7194 LP  0  0  0  0  0  0  0  0  0  0  0  0  # atno 17395 bound_to 11000

$$$$
