AV-unprocessed.smi:3030|AV-procd|sdf|11539|dock2
  -GOLD-   2272016483D 1   1.00000     0.00000
 Structure written by MMmdl.
 52 53  0  0  0  0  0  0  0  0  1 V2000
  152.8707  130.6089  156.0541 C   0  0  0  0  0  0  0  0  0  0  0  0
  151.7067  131.4379  156.6081 C   0  0  0  0  0  0  0  0  0  0  0  0
  150.7577  131.7997  155.5652 N   0  0  0  0  0  0  0  0  0  0  0  0
  150.1071  130.8290  154.8110 C   0  0  0  0  0  0  0  0  0  0  0  0
  149.1830  131.0987  153.8688 C   0  0  0  0  0  0  0  0  0  0  0  0
  148.8127  132.5029  153.5998 C   0  0  0  0  0  0  0  0  0  0  0  0
  147.9714  132.7857  152.7468 O   0  0  0  0  0  0  0  0  0  0  0  0
  149.5054  133.5411  154.4082 C   0  0  0  0  0  0  0  0  0  0  0  0
  149.1419  134.8730  154.1492 N   0  0  0  0  0  0  0  0  0  0  0  0
  149.0352  135.9104  154.9991 C   0  0  0  0  0  0  0  0  0  0  0  0
  149.2595  135.8804  156.2088 O   0  0  0  0  0  0  0  0  0  0  0  0
  148.6621  137.0212  154.3471 N   0  0  0  0  0  0  0  0  0  0  0  0
  148.4912  138.3415  154.9460 C   0  0  2  0  0  0  0  0  0  0  0  0
  147.9589  139.3508  153.9116 C   0  0  0  0  0  0  0  0  0  0  0  0
  147.5777  140.6842  154.5862 C   0  0  2  0  0  0  0  0  0  0  0  0
  147.0872  141.7146  153.5590 C   0  0  0  0  0  0  0  0  0  0  0  0
  148.7476  141.2338  155.4281 C   0  0  0  0  0  0  0  0  0  0  0  0
  149.2921  140.1777  156.4095 C   0  0  0  0  0  0  0  0  0  0  0  0
  149.7516  138.8869  155.6850 C   0  0  2  0  0  0  0  0  0  0  0  0
  151.0449  139.0917  154.8186 C   0  0  0  0  0  0  0  0  0  0  0  0
  151.5779  137.7995  154.1677 C   0  0  0  0  0  0  0  0  0  0  0  0
  152.1978  139.7244  155.6244 C   0  0  0  0  0  0  0  0  0  0  0  0
  150.4145  133.1294  155.3288 C   0  0  0  0  0  0  0  0  0  0  0  0
  153.5697  130.3446  156.8475 H   0  0  0  0  0  0  0  0  0  0  0  0
  153.4228  131.1636  155.2949 H   0  0  0  0  0  0  0  0  0  0  0  0
  152.5148  129.6832  155.6011 H   0  0  0  0  0  0  0  0  0  0  0  0
  151.1929  130.8771  157.3897 H   0  0  0  0  0  0  0  0  0  0  0  0
  152.0881  132.3429  157.0823 H   0  0  0  0  0  0  0  0  0  0  0  0
  150.4064  129.8154  155.0361 H   0  0  0  0  0  0  0  0  0  0  0  0
  148.7056  130.3108  153.3048 H   0  0  0  0  0  0  0  0  0  0  0  0
  148.9574  135.0720  153.1767 H   0  0  0  0  0  0  0  0  0  0  0  0
  148.5016  136.9542  153.3529 H   0  0  0  0  0  0  0  0  0  0  0  0
  147.7000  138.2241  155.6898 H   0  0  0  0  0  0  0  0  0  0  0  0
  148.6987  139.5187  153.1286 H   0  0  0  0  0  0  0  0  0  0  0  0
  147.0804  138.9369  153.4145 H   0  0  0  0  0  0  0  0  0  0  0  0
  146.7490  140.4840  155.2672 H   0  0  0  0  0  0  0  0  0  0  0  0
  147.8700  141.9632  152.8418 H   0  0  0  0  0  0  0  0  0  0  0  0
  146.7763  142.6387  154.0468 H   0  0  0  0  0  0  0  0  0  0  0  0
  146.2319  141.3342  152.9996 H   0  0  0  0  0  0  0  0  0  0  0  0
  149.5483  141.5800  154.7744 H   0  0  0  0  0  0  0  0  0  0  0  0
  148.4163  142.1094  155.9875 H   0  0  0  0  0  0  0  0  0  0  0  0
  150.0841  140.6018  157.0241 H   0  0  0  0  0  0  0  0  0  0  0  0
  148.5033  139.9243  157.1191 H   0  0  0  0  0  0  0  0  0  0  0  0
  150.0104  138.1703  156.4658 H   0  0  0  0  0  0  0  0  0  0  0  0
  150.8216  139.7829  154.0065 H   0  0  0  0  0  0  0  0  0  0  0  0
  151.6623  136.9914  154.8951 H   0  0  0  0  0  0  0  0  0  0  0  0
  152.5653  137.9515  153.7308 H   0  0  0  0  0  0  0  0  0  0  0  0
  150.9439  137.4624  153.3498 H   0  0  0  0  0  0  0  0  0  0  0  0
  152.4169  139.1472  156.5233 H   0  0  0  0  0  0  0  0  0  0  0  0
  151.9761  140.7486  155.9218 H   0  0  0  0  0  0  0  0  0  0  0  0
  153.1135  139.7752  155.0345 H   0  0  0  0  0  0  0  0  0  0  0  0
  150.9553  133.8098  155.9670 H   0  0  0  0  0  0  0  0  0  0  0  0
  1  2  1  0  0  0  0
  1 24  1  0  0  0  0
  1 25  1  0  0  0  0
  1 26  1  0  0  0  0
  2  3  1  0  0  0  0
  2 27  1  0  0  0  0
  2 28  1  0  0  0  0
  3 23  1  0  0  0  0
  3  4  1  0  0  0  0
  4  5  2  0  0  0  0
  4 29  1  0  0  0  0
  5  6  1  0  0  0  0
  5 30  1  0  0  0  0
  6  7  2  0  0  0  0
  6  8  1  0  0  0  0
  8  9  1  0  0  0  0
  8 23  2  0  0  0  0
  9 10  1  0  0  0  0
  9 31  1  0  0  0  0
 10 11  2  0  0  0  0
 10 12  1  0  0  0  0
 12 13  1  0  0  0  0
 12 32  1  0  0  0  0
 13 19  1  0  0  0  0
 13 14  1  0  0  0  0
 13 33  1  0  0  0  0
 14 15  1  0  0  0  0
 14 34  1  0  0  0  0
 14 35  1  0  0  0  0
 15 16  1  0  0  0  0
 15 17  1  0  0  0  0
 15 36  1  0  0  0  0
 16 37  1  0  0  0  0
 16 38  1  0  0  0  0
 16 39  1  0  0  0  0
 17 18  1  0  0  0  0
 17 40  1  0  0  0  0
 17 41  1  0  0  0  0
 18 19  1  0  0  0  0
 18 42  1  0  0  0  0
 18 43  1  0  0  0  0
 19 20  1  0  0  0  0
 19 44  1  0  0  0  0
 20 21  1  0  0  0  0
 20 22  1  0  0  0  0
 20 45  1  0  0  0  0
 21 46  1  0  0  0  0
 21 47  1  0  0  0  0
 21 48  1  0  0  0  0
 22 49  1  0  0  0  0
 22 50  1  0  0  0  0
 22 51  1  0  0  0  0
 23 52  1  0  0  0  0
M  END
> <s_m_source_file>
AV-unprocessed.smi

> <i_m_source_file_index>
3030

> <i_lp_mmshare_version>
43012

> <i_f3d_flags>
0

> <s_epik_input>
W0NIM11bQ0gyXW4xW2NIXVtjSF1jKD1PKWMoW2NIXTEpW05IXUMoPU8pW05IXVtDQEBIXTJbQ0gyXVtDQEBIXShbQ0gzXSlbQ0gyXVtDSDJdW0NASF0yW0NIXShbQ0gzXSlbQ0gzXQ==

> <s_epik_cmdline>
J2VwaWtfcHl0aG9uJywgJy1waCcsICc3LjAnLCAnLXRuJywgJzgnLCAnLW1hJywgJzIwMCcsICctbWV0YWxfYmluZGluZycsICctaW1hZScsICc8aW5maWxlLm1hZT4nLCAnLW9tYWUnLCAnPG91dGZpbGUubWFlPic=

> <r_lp_tautomer_probability>
1

> <r_epik_Ionization_Penalty>
0.00147933

> <r_epik_Ionization_Penalty_Charging>
0.00145753

> <r_epik_Ionization_Penalty_Neutral>
2.17987e-05

> <r_epik_State_Penalty>
0.00097457

> <r_epik_Charging_Adjusted_Penalty>
0.0024321

> <i_epik_Tot_Q>
0

> <i_epik_Tot_abs_Q>
0

> <r_epik_Metal_State_Penalty>
-0

> <b_epik_Metal_Only>
0

> <s_lp_Force_Field>
OPLS_2005

> <r_lp_Energy>
13.9811

> <b_lp_Chiralities_Consistent>
1

> <s_lp_Variant>
AV-unprocessed.smi:3030-7

> <Gold.Version>
5.8.1

> <Gold.Id.Protein>
6NUR|6NUR_protein|mol2

> <Gold.PLP.Fitness>
43.2357

> <Gold.PLP.PLP>
-37.9129

> <Gold.PLP.part.hbond>
-2.0000

> <Gold.PLP.part.metal>
0.0000

> <Gold.PLP.part.buried>
-3.1082

> <Gold.PLP.part.nonpolar>
-32.4070

> <Gold.PLP.part.repulsive>
0.2262

> <Gold.PLP.ligand.clash>
0.0000

> <Gold.PLP.ligand.torsion>
0.2950

> <Gold.PLP.Chemscore.Hbond>
1.9360

> <Gold.PLP.Chemscore.CHOScore>
0.0000

> <Gold.PLP.Chemscore.Metal>
0.0000

> <Gold.Chemscore.Hbonds>
donor molecule, donor type, donor heavy atom, donor atom, acceptor molecule, acceptor atom, score
      L1  H     9    31       P1  7948  0.99
      L1  H    12    32       P1  7948  0.94

> <Gold.PLP.Chemscore.Internal.Correction>
0.1049

> <Gold.Rescore>
     Score         DG    S(hbond)    S(metal)    S(lipo)     H(rot)  DE(clash)    DE(int)     intcor
     17.13     -17.77       1.67        0.00      84.98       1.27       0.06       0.58       ----

> <Gold.Chemscore.Fitness>
17.1302

> <Gold.Chemscore.DG>
-17.7652

> <Gold.Chemscore.ZeroCoef>
-5.4800

> <Gold.Chemscore.Hbond>
1.6736

> <Gold.Chemscore.Metal>
0.0000

> <Gold.Chemscore.Lipo>
84.9822

> <Gold.Chemscore.Internal_Hbond>
0.0000

> <Gold.Chemscore.DEClash>
0.0556

> <Gold.Chemscore.DEInternal>
0.5793

> <Gold.Chemscore.Rot>
1.2685

> <Gold.Chemscore.Internal.Correction>
   9.000000E+99

> <Gold.Chemscore.Hbonds>
donor molecule, donor type, donor heavy atom, donor atom, acceptor molecule, acceptor atom, score
      L1  H     9    31       P1  7948  0.24
      L1  H    12    32       P1  7948  0.91

> <Gold.Chemscore.Hbond.Weighted>
-5.5897

> <Gold.Chemscore.Metal.Weighted>
-0.0000

> <Gold.Chemscore.Lipo.Weighted>
-9.9429

> <Gold.Chemscore.Internal_Hbond.Weighted>
0.0000

> <Gold.Chemscore.DEClash.Weighted>
0.0556

> <Gold.Chemscore.DEInternal.Weighted>
0.5793

> <Gold.Chemscore.Rot.Weighted>
3.2474

> <Gold.Chemscore.Internal.Correction.Weighted>
   9.000000E+99

> <Gold.Protein.RotatedTorsions>
[ 6907 6896 6895 6894 ] final   40.00 input  -60.11 | X-H torsion
[ 7974 7965 7964 7962 ] final  106.05 input  175.53 | X-H torsion
[ 8008 7997 7996 7995 ] final   87.60 input   59.86 | X-H torsion
[ 10167 10162 10161 10158 ] final -135.93 input  -65.29 | X-H torsion
[ 10718 10713 10712 10709 ] final  -72.67 input   66.30 | X-H torsion
[ 10763 10752 10751 10750 ] final  -67.10 input  -60.55 | X-H torsion
[ 11005 11000 10999 10996 ] final   10.85 input  -57.11 | X-H torsion

> <Gold.Protein.ActiveResidues>
 VAL166  LYS551  ARG553  GLY616  TRP617  ASP618  TYR619  PRO620  LYS621  CYS622 
 ASP623  PHE694  ASN695  SER759  ASP760  ASP761  ALA762  ILE779  LEU786  VAL792 
 PHE793  MET794  SER795  GLU796  ALA797  LYS798  CYS799  TRP800  GLU811  SER814 

> <Gold.Protein.RotatedAtoms>
  152.1768  134.8787  160.0529 H   0  0  0  0  0  0  0  0  0  0  0  0  # atno 6907 bound_to 6896
  151.9727  133.3726  159.4085 H   0  0  0  0  0  0  0  0  0  0  0  0  # atno 6908 bound_to 6896
  150.6911  134.4046  159.5178 H   0  0  0  0  0  0  0  0  0  0  0  0  # atno 6909 bound_to 6896
  145.3117  139.2538  143.3759 H   0  0  0  0  0  0  0  0  0  0  0  0  # atno 7974 bound_to 7965
  155.9774  140.3380  155.6631 H   0  0  0  0  0  0  0  0  0  0  0  0  # atno 8008 bound_to 7997
  155.6594  140.0714  157.2577 H   0  0  0  0  0  0  0  0  0  0  0  0  # atno 8009 bound_to 7997
  154.4182  140.1711  156.1748 H   0  0  0  0  0  0  0  0  0  0  0  0  # atno 8010 bound_to 7997
  139.8729  143.6935  152.2637 H   0  0  0  0  0  0  0  0  0  0  0  0  # atno 10167 bound_to 10162
  156.0311  130.4377  150.2628 H   0  0  0  0  0  0  0  0  0  0  0  0  # atno 10718 bound_to 10713
  154.3696  135.6098  153.5733 H   0  0  0  0  0  0  0  0  0  0  0  0  # atno 10763 bound_to 10752
  152.9790  135.5835  154.4537 H   0  0  0  0  0  0  0  0  0  0  0  0  # atno 10764 bound_to 10752
  154.4289  135.2847  155.1903 H   0  0  0  0  0  0  0  0  0  0  0  0  # atno 10765 bound_to 10752
  140.5098  134.0663  155.7815 H   0  0  0  0  0  0  0  0  0  0  0  0  # atno 11005 bound_to 11000
  146.3115  140.3655  142.8669 LP  0  0  0  0  0  0  0  0  0  0  0  0  # atno 17320 bound_to 7965
  144.9010  140.7643  143.5867 LP  0  0  0  0  0  0  0  0  0  0  0  0  # atno 17321 bound_to 7965
  139.7267  144.7591  151.0867 LP  0  0  0  0  0  0  0  0  0  0  0  0  # atno 17342 bound_to 10162
  140.7758  143.5139  150.9619 LP  0  0  0  0  0  0  0  0  0  0  0  0  # atno 17343 bound_to 10162
  157.0730  131.0122  151.3183 LP  0  0  0  0  0  0  0  0  0  0  0  0  # atno 17370 bound_to 10713
  157.4985  130.7865  149.7580 LP  0  0  0  0  0  0  0  0  0  0  0  0  # atno 17371 bound_to 10713
  141.1391  133.9169  157.2366 LP  0  0  0  0  0  0  0  0  0  0  0  0  # atno 17394 bound_to 11000
  139.9665  135.0140  156.9401 LP  0  0  0  0  0  0  0  0  0  0  0  0  # atno 17395 bound_to 11000

$$$$
