AV-unprocessed.smi:1701|AV-procd|sdf|6825|dock6
  -GOLD-   22720 8 03D 1   1.00000     0.00000
 Structure written by MMmdl.
 55 57  0  0  0  0  0  0  0  0  3 V2000
  152.5915  143.3242  160.5142 C   0  0  0  0  0  0  0  0  0  0  0  0
  152.7283  142.5180  159.2160 C   0  0  0  0  0  0  0  0  0  0  0  0
  151.7210  142.8920  158.2265 N   0  0  0  0  0  0  0  0  0  0  0  0
  151.5534  144.3039  157.8851 C   0  0  0  0  0  0  0  0  0  0  0  0
  152.8930  144.9923  157.5929 C   0  0  0  0  0  0  0  0  0  0  0  0
  150.9485  141.9010  157.5769 C   0  0  0  0  0  0  0  0  0  0  0  0
  151.1103  140.5119  157.8056 C   0  0  0  0  0  0  0  0  0  0  0  0
  150.3007  139.5865  157.1165 C   0  0  0  0  0  0  0  0  0  0  0  0
  149.3253  140.0461  156.2079 C   0  0  0  0  0  0  0  0  0  0  0  0
  148.5408  139.0737  155.5319 N   0  0  0  0  0  0  0  0  0  0  0  0
  148.4134  137.7590  155.7994 C   0  0  0  0  0  0  0  0  0  0  0  0
  148.9698  137.1765  156.7269 O   0  0  0  0  0  0  0  0  0  0  0  0
  147.6379  137.0899  154.9264 N   0  0  0  0  0  0  0  0  0  0  0  0
  147.2893  135.6657  154.9170 C   0  0  2  0  0  0  0  0  0  0  0  0
  148.5250  134.7519  154.8047 C   0  0  0  0  0  0  0  0  0  0  0  0
  148.0908  133.6257  153.8616 C   0  0  0  0  0  0  0  0  0  0  0  0
  147.1754  134.3072  152.9396 N   0  3  1  0  0  0  0  0  0  0  0  0
  146.3569  133.4890  152.0220 C   0  0  0  0  0  0  0  0  0  0  0  0
  145.6363  134.4353  151.0376 C   0  0  0  0  0  0  0  0  0  0  0  0
  144.8598  135.5573  151.7644 C   0  0  0  0  0  0  0  0  0  0  0  0
  145.7385  136.2853  152.8047 C   0  0  0  0  0  0  0  0  0  0  0  0
  146.3695  135.2416  153.7446 C   0  0  2  0  0  0  0  0  0  0  0  0
  149.2072  141.4410  156.0040 C   0  0  0  0  0  0  0  0  0  0  0  0
  150.0047  142.2912  156.6851 N   0  3  0  0  0  0  0  0  0  0  0  0
  153.3622  143.0369  161.2296 H   0  0  0  0  0  0  0  0  0  0  0  0
  151.6231  143.1596  160.9868 H   0  0  0  0  0  0  0  0  0  0  0  0
  152.6952  144.3936  160.3283 H   0  0  0  0  0  0  0  0  0  0  0  0
  153.7155  142.6993  158.7899 H   0  0  0  0  0  0  0  0  0  0  0  0
  152.6944  141.4479  159.4192 H   0  0  0  0  0  0  0  0  0  0  0  0
  150.8728  144.4207  157.0415 H   0  0  0  0  0  0  0  0  0  0  0  0
  151.0695  144.8075  158.7225 H   0  0  0  0  0  0  0  0  0  0  0  0
  152.7415  146.0450  157.3539 H   0  0  0  0  0  0  0  0  0  0  0  0
  153.4013  144.5306  156.7460 H   0  0  0  0  0  0  0  0  0  0  0  0
  153.5610  144.9412  158.4531 H   0  0  0  0  0  0  0  0  0  0  0  0
  151.8390  140.1350  158.5067 H   0  0  0  0  0  0  0  0  0  0  0  0
  150.4271  138.5284  157.2943 H   0  0  0  0  0  0  0  0  0  0  0  0
  148.0730  139.3998  154.6991 H   0  0  0  0  0  0  0  0  0  0  0  0
  147.2856  137.6283  154.1475 H   0  0  0  0  0  0  0  0  0  0  0  0
  146.7906  135.4132  155.8547 H   0  0  0  0  0  0  0  0  0  0  0  0
  149.3575  135.2948  154.3541 H   0  0  0  0  0  0  0  0  0  0  0  0
  148.8624  134.3783  155.7722 H   0  0  0  0  0  0  0  0  0  0  0  0
  148.9303  133.1658  153.3394 H   0  0  0  0  0  0  0  0  0  0  0  0
  147.5542  132.8497  154.4098 H   0  0  0  0  0  0  0  0  0  0  0  0
  146.9963  132.7941  151.4767 H   0  0  0  0  0  0  0  0  0  0  0  0
  145.6384  132.8938  152.5878 H   0  0  0  0  0  0  0  0  0  0  0  0
  146.3742  134.8884  150.3739 H   0  0  0  0  0  0  0  0  0  0  0  0
  144.9602  133.8660  150.3990 H   0  0  0  0  0  0  0  0  0  0  0  0
  144.4689  136.2720  151.0395 H   0  0  0  0  0  0  0  0  0  0  0  0
  143.9929  135.1252  152.2657 H   0  0  0  0  0  0  0  0  0  0  0  0
  146.5150  136.8629  152.3010 H   0  0  0  0  0  0  0  0  0  0  0  0
  145.1267  136.9929  153.3636 H   0  0  0  0  0  0  0  0  0  0  0  0
  145.5561  134.6672  154.1938 H   0  0  0  0  0  0  0  0  0  0  0  0
  148.5204  141.9164  155.3203 H   0  0  0  0  0  0  0  0  0  0  0  0
  147.7660  134.8833  152.3567 H   0  0  0  0  0  0  0  0  0  0  0  0
  149.8913  143.2904  156.5138 H   0  0  0  0  0  0  0  0  0  0  0  0
  1  2  1  0  0  0  0
  1 25  1  0  0  0  0
  1 26  1  0  0  0  0
  1 27  1  0  0  0  0
  2  3  1  0  0  0  0
  2 28  1  0  0  0  0
  2 29  1  0  0  0  0
  3  4  1  0  0  0  0
  3  6  1  0  0  0  0
  4  5  1  0  0  0  0
  4 30  1  0  0  0  0
  4 31  1  0  0  0  0
  5 32  1  0  0  0  0
  5 33  1  0  0  0  0
  5 34  1  0  0  0  0
  6 24  1  0  0  0  0
  6  7  2  0  0  0  0
  7  8  1  0  0  0  0
  7 35  1  0  0  0  0
  8  9  2  0  0  0  0
  8 36  1  0  0  0  0
  9 10  1  0  0  0  0
  9 23  1  0  0  0  0
 10 11  1  0  0  0  0
 10 37  1  0  0  0  0
 11 12  2  0  0  0  0
 11 13  1  0  0  0  0
 13 14  1  0  0  0  0
 13 38  1  0  0  0  0
 14 22  1  0  0  0  0
 14 15  1  0  0  0  0
 14 39  1  0  0  0  0
 15 16  1  0  0  0  0
 15 40  1  0  0  0  0
 15 41  1  0  0  0  0
 16 17  1  0  0  0  0
 16 42  1  0  0  0  0
 16 43  1  0  0  0  0
 17 22  1  0  0  0  0
 17 18  1  0  0  0  0
 17 54  1  0  0  0  0
 18 19  1  0  0  0  0
 18 44  1  0  0  0  0
 18 45  1  0  0  0  0
 19 20  1  0  0  0  0
 19 46  1  0  0  0  0
 19 47  1  0  0  0  0
 20 21  1  0  0  0  0
 20 48  1  0  0  0  0
 20 49  1  0  0  0  0
 21 22  1  0  0  0  0
 21 50  1  0  0  0  0
 21 51  1  0  0  0  0
 22 52  1  0  0  0  0
 23 24  2  0  0  0  0
 23 53  1  0  0  0  0
 24 55  1  0  0  0  0
M  CHG  1  17   1
M  CHG  1  24   1
M  END
> <s_m_source_file>
AV-unprocessed.smi

> <i_m_source_file_index>
1701

> <i_lp_mmshare_version>
43012

> <i_f3d_flags>
0

> <s_epik_input>
W0NIM11bQ0gyXU4oW0NIMl1bQ0gzXSljMVtjSF1bY0hdYyhbY0hdbjEpW05IXUMoPU8pW05IXVtDQEhdKFtDSDJdW0NIMl0yKVtDQEBIXShOMjMpW0NIMl1bQ0gyXVtDSDJdW0NIMl0z

> <s_epik_cmdline>
J2VwaWtfcHl0aG9uJywgJy1waCcsICc3LjAnLCAnLXRuJywgJzgnLCAnLW1hJywgJzIwMCcsICctbWV0YWxfYmluZGluZycsICctaW1hZScsICc8aW5maWxlLm1hZT4nLCAnLW9tYWUnLCAnPG91dGZpbGUubWFlPic=

> <r_lp_tautomer_probability>
0.999994

> <r_epik_Ionization_Penalty>
0.302862

> <r_epik_Ionization_Penalty_Charging>
0.302842

> <r_epik_Ionization_Penalty_Neutral>
1.95166e-05

> <r_epik_State_Penalty>
0.019791

> <r_epik_Charging_Adjusted_Penalty>
0.322633

> <i_epik_Tot_Q>
2

> <i_epik_Tot_abs_Q>
2

> <r_epik_Metal_State_Penalty>
0.0536763

> <b_epik_Metal_Only>
0

> <s_lp_Force_Field>
OPLS_2005

> <r_lp_Energy>
67.2191

> <b_lp_Chiralities_Consistent>
1

> <s_lp_Variant>
AV-unprocessed.smi:1701-5

> <Gold.Version>
5.8.1

> <Gold.Id.Protein>
6NUR|6NUR_protein|mol2

> <Gold.PLP.Fitness>
49.9284

> <Gold.PLP.PLP>
-38.3524

> <Gold.PLP.part.hbond>
-2.0115

> <Gold.PLP.part.metal>
0.0000

> <Gold.PLP.part.buried>
-3.2601

> <Gold.PLP.part.nonpolar>
-32.2116

> <Gold.PLP.part.repulsive>
0.0380

> <Gold.PLP.ligand.clash>
0.0000

> <Gold.PLP.ligand.torsion>
0.2335

> <Gold.PLP.Chemscore.Hbond>
4.0000

> <Gold.PLP.Chemscore.CHOScore>
0.0000

> <Gold.PLP.Chemscore.Metal>
0.0000

> <Gold.Chemscore.Hbonds>
donor molecule, donor type, donor heavy atom, donor atom, acceptor molecule, acceptor atom, score
      L1  H    17    54       P1  7948  2.00
      L1  H    24    55       P1  8028  1.95

> <Gold.PLP.Chemscore.Internal.Correction>
0.0430

> <Gold.Rescore>
     Score         DG    S(hbond)    S(metal)    S(lipo)     H(rot)  DE(clash)    DE(int)     intcor
     17.24     -19.79       1.71        0.00     102.12       1.30       0.80       1.75       ----

> <Gold.Chemscore.Fitness>
17.2392

> <Gold.Chemscore.DG>
-19.7931

> <Gold.Chemscore.ZeroCoef>
-5.4800

> <Gold.Chemscore.Hbond>
1.7062

> <Gold.Chemscore.Metal>
0.0000

> <Gold.Chemscore.Lipo>
102.1161

> <Gold.Chemscore.Internal_Hbond>
0.0000

> <Gold.Chemscore.DEClash>
0.8000

> <Gold.Chemscore.DEInternal>
1.7539

> <Gold.Chemscore.Rot>
1.3020

> <Gold.Chemscore.Internal.Correction>
   9.000000E+99

> <Gold.Chemscore.Hbonds>
donor molecule, donor type, donor heavy atom, donor atom, acceptor molecule, acceptor atom, score
      L1  H    17    54       P1  7948  0.85
      L1  H    24    55       P1  8028  0.93

> <Gold.Chemscore.Hbond.Weighted>
-5.6985

> <Gold.Chemscore.Metal.Weighted>
-0.0000

> <Gold.Chemscore.Lipo.Weighted>
-11.9476

> <Gold.Chemscore.Internal_Hbond.Weighted>
0.0000

> <Gold.Chemscore.DEClash.Weighted>
0.8000

> <Gold.Chemscore.DEInternal.Weighted>
1.7539

> <Gold.Chemscore.Rot.Weighted>
3.3330

> <Gold.Chemscore.Internal.Correction.Weighted>
   9.000000E+99

> <Gold.Protein.RotatedTorsions>
[ 6907 6896 6895 6894 ] final -109.61 input  -60.11 | X-H torsion
[ 7974 7965 7964 7962 ] final -125.67 input  175.53 | X-H torsion
[ 8008 7997 7996 7995 ] final  -26.78 input   59.86 | X-H torsion
[ 10167 10162 10161 10158 ] final  130.11 input  -65.29 | X-H torsion
[ 10718 10713 10712 10709 ] final  123.70 input   66.30 | X-H torsion
[ 10763 10752 10751 10750 ] final  -73.57 input  -60.55 | X-H torsion
[ 11005 11000 10999 10996 ] final  -87.15 input  -57.11 | X-H torsion

> <Gold.Protein.ActiveResidues>
 VAL166  LYS551  ARG553  GLY616  TRP617  ASP618  TYR619  PRO620  LYS621  CYS622 
 ASP623  PHE694  ASN695  SER759  ASP760  ASP761  ALA762  ILE779  LEU786  VAL792 
 PHE793  MET794  SER795  GLU796  ALA797  LYS798  CYS799  TRP800  GLU811  SER814 

> <Gold.Protein.RotatedAtoms>
  150.7572  133.9504  159.3483 H   0  0  0  0  0  0  0  0  0  0  0  0  # atno 6907 bound_to 6896
  151.7421  135.0850  160.0327 H   0  0  0  0  0  0  0  0  0  0  0  0  # atno 6908 bound_to 6896
  152.3522  133.6156  159.5989 H   0  0  0  0  0  0  0  0  0  0  0  0  # atno 6909 bound_to 6896
  144.9952  140.7769  143.4530 H   0  0  0  0  0  0  0  0  0  0  0  0  # atno 7974 bound_to 7965
  154.4408  140.1890  156.0829 H   0  0  0  0  0  0  0  0  0  0  0  0  # atno 8008 bound_to 7997
  156.0425  140.3318  155.7233 H   0  0  0  0  0  0  0  0  0  0  0  0  # atno 8009 bound_to 7997
  155.5678  140.0610  157.2804 H   0  0  0  0  0  0  0  0  0  0  0  0  # atno 8010 bound_to 7997
  139.5446  144.6761  151.4515 H   0  0  0  0  0  0  0  0  0  0  0  0  # atno 10167 bound_to 10162
  157.5643  131.1087  150.8482 H   0  0  0  0  0  0  0  0  0  0  0  0  # atno 10718 bound_to 10713
  154.4612  135.5893  153.6257 H   0  0  0  0  0  0  0  0  0  0  0  0  # atno 10763 bound_to 10752
  152.9823  135.6044  154.3484 H   0  0  0  0  0  0  0  0  0  0  0  0  # atno 10764 bound_to 10752
  154.3356  135.2842  155.2428 H   0  0  0  0  0  0  0  0  0  0  0  0  # atno 10765 bound_to 10752
  141.1621  133.7495  156.9265 H   0  0  0  0  0  0  0  0  0  0  0  0  # atno 11005 bound_to 11000
  145.2230  139.2150  143.5083 LP  0  0  0  0  0  0  0  0  0  0  0  0  # atno 17320 bound_to 7965
  146.3440  140.2092  142.8590 LP  0  0  0  0  0  0  0  0  0  0  0  0  # atno 17321 bound_to 7965
  140.6689  143.8338  150.6975 LP  0  0  0  0  0  0  0  0  0  0  0  0  # atno 17342 bound_to 10162
  140.1755  143.4158  152.1970 LP  0  0  0  0  0  0  0  0  0  0  0  0  # atno 17343 bound_to 10162
  156.8971  130.5233  149.5284 LP  0  0  0  0  0  0  0  0  0  0  0  0  # atno 17370 bound_to 10713
  156.0693  130.5729  150.9351 LP  0  0  0  0  0  0  0  0  0  0  0  0  # atno 17371 bound_to 10713
  140.1415  134.9290  157.2473 LP  0  0  0  0  0  0  0  0  0  0  0  0  # atno 17394 bound_to 11000
  140.2831  134.3327  155.7337 LP  0  0  0  0  0  0  0  0  0  0  0  0  # atno 17395 bound_to 11000

$$$$
