AV-unprocessed.smi:1215|AV-procd|sdf|5097|dock8
  -GOLD-   22720 4153D 1   1.00000     0.00000
 Structure written by MMmdl.
 46 47  0  0  0  0  0  0  0  0  2 V2000
  152.5080  142.6533  160.8358 C   0  0  0  0  0  0  0  0  0  0  0  0
  152.6834  143.2946  159.4542 C   0  0  0  0  0  0  0  0  0  0  0  0
  151.8530  142.6524  158.4543 N   0  0  0  0  0  0  0  0  0  0  0  0
  150.8944  143.2262  157.6429 C   0  0  0  0  0  0  0  0  0  0  0  0
  150.3972  142.2123  156.8806 C   0  0  0  0  0  0  0  0  0  0  0  0
  149.3813  142.3567  155.9025 N   0  0  0  0  0  0  0  0  0  0  0  0
  148.8177  141.3823  155.1709 C   0  0  0  0  0  0  0  0  0  0  0  0
  149.1106  140.1885  155.2349 O   0  0  0  0  0  0  0  0  0  0  0  0
  147.8855  141.8679  154.3381 N   0  0  0  0  0  0  0  0  0  0  0  0
  147.0985  141.0597  153.4127 C   0  0  0  0  0  0  0  0  0  0  0  0
  146.3142  139.9563  154.1536 C   0  0  0  0  0  0  0  0  0  0  0  0
  145.5505  139.0616  153.2362 N   0  3  1  0  0  0  0  0  0  0  0  0
  146.3770  138.6380  152.0682 C   0  0  0  0  0  0  0  0  0  0  0  0
  145.5679  137.8212  151.0514 C   0  0  0  0  0  0  0  0  0  0  0  0
  144.9569  136.5904  151.7196 C   0  0  0  0  0  0  0  0  0  0  0  0
  144.1056  137.0359  152.9100 C   0  0  0  0  0  0  0  0  0  0  0  0
  144.9117  137.8862  153.9178 C   0  0  2  0  0  0  0  0  0  0  0  0
  143.9718  138.2862  155.0752 C   0  0  0  0  0  0  0  0  0  0  0  0
  151.1002  141.0419  157.2850 C   0  0  0  0  0  0  0  0  0  0  0  0
  151.9787  141.3200  158.2363 N   0  0  0  0  0  0  0  0  0  0  0  0
  153.1284  143.1554  161.5779 H   0  0  0  0  0  0  0  0  0  0  0  0
  152.7930  141.6011  160.8219 H   0  0  0  0  0  0  0  0  0  0  0  0
  151.4722  142.7164  161.1702 H   0  0  0  0  0  0  0  0  0  0  0  0
  152.4243  144.3531  159.4952 H   0  0  0  0  0  0  0  0  0  0  0  0
  153.7257  143.2351  159.1373 H   0  0  0  0  0  0  0  0  0  0  0  0
  150.6572  144.2794  157.6796 H   0  0  0  0  0  0  0  0  0  0  0  0
  149.0538  143.2981  155.7427 H   0  0  0  0  0  0  0  0  0  0  0  0
  147.7048  142.8613  154.3490 H   0  0  0  0  0  0  0  0  0  0  0  0
  146.4188  141.6989  152.8463 H   0  0  0  0  0  0  0  0  0  0  0  0
  147.7991  140.6353  152.6951 H   0  0  0  0  0  0  0  0  0  0  0  0
  146.9837  139.3598  154.7753 H   0  0  0  0  0  0  0  0  0  0  0  0
  145.6388  140.4634  154.8370 H   0  0  0  0  0  0  0  0  0  0  0  0
  146.7834  139.5030  151.5476 H   0  0  0  0  0  0  0  0  0  0  0  0
  147.2299  138.0548  152.4194 H   0  0  0  0  0  0  0  0  0  0  0  0
  144.7794  138.4408  150.6220 H   0  0  0  0  0  0  0  0  0  0  0  0
  146.2085  137.5154  150.2235 H   0  0  0  0  0  0  0  0  0  0  0  0
  144.3483  136.0340  151.0059 H   0  0  0  0  0  0  0  0  0  0  0  0
  145.7454  135.9160  152.0559 H   0  0  0  0  0  0  0  0  0  0  0  0
  143.2490  137.6069  152.5482 H   0  0  0  0  0  0  0  0  0  0  0  0
  143.6973  136.1542  153.4060 H   0  0  0  0  0  0  0  0  0  0  0  0
  145.7082  137.2632  154.3283 H   0  0  0  0  0  0  0  0  0  0  0  0
  143.3915  137.4291  155.4187 H   0  0  0  0  0  0  0  0  0  0  0  0
  143.2645  139.0571  154.7672 H   0  0  0  0  0  0  0  0  0  0  0  0
  144.5128  138.6460  155.9495 H   0  0  0  0  0  0  0  0  0  0  0  0
  151.0127  140.0233  156.9378 H   0  0  0  0  0  0  0  0  0  0  0  0
  144.7896  139.6156  152.8695 H   0  0  0  0  0  0  0  0  0  0  0  0
  1  2  1  0  0  0  0
  1 21  1  0  0  0  0
  1 22  1  0  0  0  0
  1 23  1  0  0  0  0
  2  3  1  0  0  0  0
  2 24  1  0  0  0  0
  2 25  1  0  0  0  0
  3 20  1  0  0  0  0
  3  4  1  0  0  0  0
  4  5  2  0  0  0  0
  4 26  1  0  0  0  0
  5  6  1  0  0  0  0
  5 19  1  0  0  0  0
  6  7  1  0  0  0  0
  6 27  1  0  0  0  0
  7  8  2  0  0  0  0
  7  9  1  0  0  0  0
  9 10  1  0  0  0  0
  9 28  1  0  0  0  0
 10 11  1  0  0  0  0
 10 29  1  0  0  0  0
 10 30  1  0  0  0  0
 11 12  1  0  0  0  0
 11 31  1  0  0  0  0
 11 32  1  0  0  0  0
 12 17  1  0  0  0  0
 12 13  1  0  0  0  0
 12 46  1  0  0  0  0
 13 14  1  0  0  0  0
 13 33  1  0  0  0  0
 13 34  1  0  0  0  0
 14 15  1  0  0  0  0
 14 35  1  0  0  0  0
 14 36  1  0  0  0  0
 15 16  1  0  0  0  0
 15 37  1  0  0  0  0
 15 38  1  0  0  0  0
 16 17  1  0  0  0  0
 16 39  1  0  0  0  0
 16 40  1  0  0  0  0
 17 18  1  0  0  0  0
 17 41  1  0  0  0  0
 18 42  1  0  0  0  0
 18 43  1  0  0  0  0
 18 44  1  0  0  0  0
 19 20  2  0  0  0  0
 19 45  1  0  0  0  0
M  CHG  1  12   1
M  END
> <s_m_source_file>
AV-unprocessed.smi

> <i_m_source_file_index>
1215

> <i_lp_mmshare_version>
43012

> <i_f3d_flags>
0

> <s_epik_input>
W0NIM11bQ0gyXW4xW2NIXWMoW2NIXW4xKVtOSF1DKD1PKVtOSF1bQ0gyXVtDSDJdTjJbQ0gyXVtDSDJdW0NIMl1bQ0gyXVtDQEhdMltDSDNd

> <s_epik_cmdline>
J2VwaWtfcHl0aG9uJywgJy1waCcsICc3LjAnLCAnLXRuJywgJzgnLCAnLW1hJywgJzIwMCcsICctbWV0YWxfYmluZGluZycsICctaW1hZScsICc8aW5maWxlLm1hZT4nLCAnLW9tYWUnLCAnPG91dGZpbGUubWFlPic=

> <r_lp_tautomer_probability>
1

> <r_epik_Ionization_Penalty>
0.00247187

> <r_epik_Ionization_Penalty_Charging>
0.00232067

> <r_epik_Ionization_Penalty_Neutral>
0.000151201

> <r_epik_State_Penalty>
0.00160128

> <r_epik_Charging_Adjusted_Penalty>
0.00392194

> <i_epik_Tot_Q>
1

> <i_epik_Tot_abs_Q>
1

> <r_epik_Metal_State_Penalty>
-0

> <b_epik_Metal_Only>
0

> <s_lp_Force_Field>
OPLS_2005

> <r_lp_Energy>
23.8268

> <b_lp_Chiralities_Consistent>
1

> <s_lp_Variant>
AV-unprocessed.smi:1215-4

> <Gold.Version>
5.8.1

> <Gold.Id.Protein>
6NUR|6NUR_protein|mol2

> <Gold.PLP.Fitness>
45.0468

> <Gold.PLP.PLP>
-34.8681

> <Gold.PLP.part.hbond>
-2.0000

> <Gold.PLP.part.metal>
0.0000

> <Gold.PLP.part.buried>
1.3101

> <Gold.PLP.part.nonpolar>
-35.3970

> <Gold.PLP.part.repulsive>
0.4156

> <Gold.PLP.ligand.clash>
0.0000

> <Gold.PLP.ligand.torsion>
0.0803

> <Gold.PLP.Chemscore.Hbond>
3.0000

> <Gold.PLP.Chemscore.CHOScore>
0.4199

> <Gold.PLP.Chemscore.Metal>
0.0000

> <Gold.Chemscore.Hbonds>
donor molecule, donor type, donor heavy atom, donor atom, acceptor molecule, acceptor atom, score
      L1  H     6    27       P1  8028  0.75
      L1  H    12    46       P1 10175  1.62
      L1  C     4    26       P1  8028  0.33

> <Gold.PLP.Chemscore.Internal.Correction>
0.0796

> <Gold.Rescore>
     Score         DG    S(hbond)    S(metal)    S(lipo)     H(rot)  DE(clash)    DE(int)     intcor
     17.20     -21.11       2.73        0.00      90.39       1.59       1.47       2.44       ----

> <Gold.Chemscore.Fitness>
17.2035

> <Gold.Chemscore.DG>
-21.1072

> <Gold.Chemscore.ZeroCoef>
-5.4800

> <Gold.Chemscore.Hbond>
2.7317

> <Gold.Chemscore.Metal>
0.0000

> <Gold.Chemscore.Lipo>
90.3932

> <Gold.Chemscore.Internal_Hbond>
0.0000

> <Gold.Chemscore.DEClash>
1.4651

> <Gold.Chemscore.DEInternal>
2.4385

> <Gold.Chemscore.Rot>
1.5909

> <Gold.Chemscore.Internal.Correction>
   9.000000E+99

> <Gold.Chemscore.Hbonds>
donor molecule, donor type, donor heavy atom, donor atom, acceptor molecule, acceptor atom, score
      L1  H     6    27       P1  8028  0.75
      L1  H    12    46       P1 10175  0.80

> <Gold.Chemscore.Hbond.Weighted>
-9.1239

> <Gold.Chemscore.Metal.Weighted>
-0.0000

> <Gold.Chemscore.Lipo.Weighted>
-10.5760

> <Gold.Chemscore.Internal_Hbond.Weighted>
0.0000

> <Gold.Chemscore.DEClash.Weighted>
1.4651

> <Gold.Chemscore.DEInternal.Weighted>
2.4385

> <Gold.Chemscore.Rot.Weighted>
4.0728

> <Gold.Chemscore.Internal.Correction.Weighted>
   9.000000E+99

> <Gold.Protein.RotatedTorsions>
[ 6907 6896 6895 6894 ] final -157.68 input  -60.11 | X-H torsion
[ 7974 7965 7964 7962 ] final   91.45 input  175.53 | X-H torsion
[ 8008 7997 7996 7995 ] final  -17.62 input   59.86 | X-H torsion
[ 10167 10162 10161 10158 ] final    7.05 input  -65.29 | X-H torsion
[ 10718 10713 10712 10709 ] final  101.25 input   66.30 | X-H torsion
[ 10763 10752 10751 10750 ] final  141.42 input  -60.55 | X-H torsion
[ 11005 11000 10999 10996 ] final -122.90 input  -57.11 | X-H torsion

> <Gold.Protein.ActiveResidues>
 VAL166  LYS551  ARG553  GLY616  TRP617  ASP618  TYR619  PRO620  LYS621  CYS622 
 ASP623  PHE694  ASN695  SER759  ASP760  ASP761  ALA762  ILE779  LEU786  VAL792 
 PHE793  MET794  SER795  GLU796  ALA797  LYS798  CYS799  TRP800  GLU811  SER814 

> <Gold.Protein.RotatedAtoms>
  151.3066  133.4099  159.2643 H   0  0  0  0  0  0  0  0  0  0  0  0  # atno 6907 bound_to 6896
  151.0150  134.9426  159.8038 H   0  0  0  0  0  0  0  0  0  0  0  0  # atno 6908 bound_to 6896
  152.5310  134.3030  159.9138 H   0  0  0  0  0  0  0  0  0  0  0  0  # atno 6909 bound_to 6896
  145.5055  139.2276  143.2753 H   0  0  0  0  0  0  0  0  0  0  0  0  # atno 7974 bound_to 7965
  154.4965  140.2138  155.9437 H   0  0  0  0  0  0  0  0  0  0  0  0  # atno 8008 bound_to 7997
  156.1377  140.3185  155.8414 H   0  0  0  0  0  0  0  0  0  0  0  0  # atno 8009 bound_to 7997
  155.4179  140.0495  157.3018 H   0  0  0  0  0  0  0  0  0  0  0  0  # atno 8010 bound_to 7997
  140.6394  143.7810  150.7406 H   0  0  0  0  0  0  0  0  0  0  0  0  # atno 10167 bound_to 10162
  157.6834  131.0721  150.5224 H   0  0  0  0  0  0  0  0  0  0  0  0  # atno 10718 bound_to 10713
  153.9390  135.2982  155.3443 H   0  0  0  0  0  0  0  0  0  0  0  0  # atno 10763 bound_to 10752
  154.7487  135.4990  153.9253 H   0  0  0  0  0  0  0  0  0  0  0  0  # atno 10764 bound_to 10752
  153.1052  135.6745  153.9705 H   0  0  0  0  0  0  0  0  0  0  0  0  # atno 10765 bound_to 10752
  140.9960  134.0471  157.3597 H   0  0  0  0  0  0  0  0  0  0  0  0  # atno 11005 bound_to 11000
  146.2199  140.5858  142.9022 LP  0  0  0  0  0  0  0  0  0  0  0  0  # atno 17320 bound_to 7965
  144.7756  140.5732  143.6640 LP  0  0  0  0  0  0  0  0  0  0  0  0  # atno 17321 bound_to 7965
  140.1439  143.4417  152.2176 LP  0  0  0  0  0  0  0  0  0  0  0  0  # atno 17342 bound_to 10162
  139.5603  144.7401  151.4174 LP  0  0  0  0  0  0  0  0  0  0  0  0  # atno 17343 bound_to 10162
  156.5537  130.4238  149.6095 LP  0  0  0  0  0  0  0  0  0  0  0  0  # atno 17370 bound_to 10713
  156.2880  130.7108  151.1950 LP  0  0  0  0  0  0  0  0  0  0  0  0  # atno 17371 bound_to 10713
  139.9015  135.0166  156.7289 LP  0  0  0  0  0  0  0  0  0  0  0  0  # atno 17394 bound_to 11000
  140.6965  133.9344  155.7998 LP  0  0  0  0  0  0  0  0  0  0  0  0  # atno 17395 bound_to 11000

$$$$
