AV-unprocessed.smi:12|AV-procd|sdf|64|dock8
  -GOLD-   2262015183D 1   1.00000     0.00000
 Structure written by MMmdl.
 41 44  0  0  0  0  0  0  0  0  1 V2000
  146.9556  134.6844  163.1267 C   0  0  0  0  0  0  0  0  0  0  0  0
  147.3718  134.8476  161.6757 C   0  0  0  0  0  0  0  0  0  0  0  0
  147.7255  136.0518  161.1678 C   0  0  0  0  0  0  0  0  0  0  0  0
  148.0980  136.1436  159.8560 N   0  0  0  0  0  0  0  0  0  0  0  0
  148.0877  134.9881  159.0420 C   0  0  0  0  0  0  0  0  0  0  0  0
  147.7605  133.8026  159.4534 N   0  0  0  0  0  0  0  0  0  0  0  0
  147.3882  133.6472  160.8024 C   0  0  0  0  0  0  0  0  0  0  0  0
  147.0814  132.5395  161.2410 O   0  0  0  0  0  0  0  0  0  0  0  0
  148.4591  135.3322  157.7770 O   0  0  0  0  0  0  0  0  0  0  0  0
  148.7546  136.7357  157.7309 C   0  0  2  0  0  0  0  0  0  0  0  0
  150.2339  137.0395  157.4772 C   0  0  2  0  0  0  0  0  0  0  0  0
  151.0586  135.9076  157.6950 O   0  0  0  0  0  0  0  0  0  0  0  0
  150.5354  138.1365  158.5092 C   0  0  2  0  0  0  0  0  0  0  0  0
  152.0007  138.3011  158.9420 C   0  0  0  0  0  0  0  0  0  0  0  0
  152.3035  139.6803  159.0802 O   0  0  0  0  0  0  0  0  0  0  0  0
  152.2296  140.4955  158.0093 C   0  0  0  0  0  0  0  0  0  0  0  0
  152.2117  140.0915  156.8449 O   0  0  0  0  0  0  0  0  0  0  0  0
  152.1752  141.9396  158.3791 C   0  0  0  0  0  0  0  0  0  0  0  0
  152.8131  142.3753  159.5642 C   0  0  0  0  0  0  0  0  0  0  0  0
  152.7739  143.7311  159.9437 C   0  0  0  0  0  0  0  0  0  0  0  0
  152.0969  144.6684  159.1418 C   0  0  0  0  0  0  0  0  0  0  0  0
  151.4601  144.2482  157.9595 C   0  0  0  0  0  0  0  0  0  0  0  0
  151.4983  142.8926  157.5783 C   0  0  0  0  0  0  0  0  0  0  0  0
  149.7136  137.7936  159.6151 O   0  0  0  0  0  0  0  0  0  0  0  0
  148.4932  137.3446  159.1206 C   0  0  2  0  0  0  0  0  0  0  0  0
  146.9830  135.6374  163.6561 H   0  0  0  0  0  0  0  0  0  0  0  0
  147.6256  133.9943  163.6405 H   0  0  0  0  0  0  0  0  0  0  0  0
  145.9403  134.2916  163.1907 H   0  0  0  0  0  0  0  0  0  0  0  0
  147.7232  136.9390  161.7841 H   0  0  0  0  0  0  0  0  0  0  0  0
  148.1155  137.2397  157.0049 H   0  0  0  0  0  0  0  0  0  0  0  0
  150.4032  137.3913  156.4591 H   0  0  0  0  0  0  0  0  0  0  0  0
  151.0223  135.3564  156.9285 H   0  0  0  0  0  0  0  0  0  0  0  0
  150.1705  139.0913  158.1249 H   0  0  0  0  0  0  0  0  0  0  0  0
  152.1543  137.8054  159.9015 H   0  0  0  0  0  0  0  0  0  0  0  0
  152.6757  137.8309  158.2256 H   0  0  0  0  0  0  0  0  0  0  0  0
  153.3381  141.6741  160.1968 H   0  0  0  0  0  0  0  0  0  0  0  0
  153.2636  144.0510  160.8516 H   0  0  0  0  0  0  0  0  0  0  0  0
  152.0662  145.7079  159.4338 H   0  0  0  0  0  0  0  0  0  0  0  0
  150.9402  144.9669  157.3431 H   0  0  0  0  0  0  0  0  0  0  0  0
  150.9986  142.6038  156.6653 H   0  0  0  0  0  0  0  0  0  0  0  0
  147.6624  138.0478  159.1888 H   0  0  0  0  0  0  0  0  0  0  0  0
  1  2  1  0  0  0  0
  1 26  1  0  0  0  0
  1 27  1  0  0  0  0
  1 28  1  0  0  0  0
  2  7  1  0  0  0  0
  2  3  2  0  0  0  0
  3  4  1  0  0  0  0
  3 29  1  0  0  0  0
  4 25  1  0  0  0  0
  4  5  1  0  0  0  0
  5  6  2  0  0  0  0
  5  9  1  0  0  0  0
  6  7  1  0  0  0  0
  7  8  2  0  0  0  0
  9 10  1  0  0  0  0
 10 25  1  0  0  0  0
 10 11  1  0  0  0  0
 10 30  1  0  0  0  0
 11 12  1  0  0  0  0
 11 13  1  0  0  0  0
 11 31  1  0  0  0  0
 12 32  1  0  0  0  0
 13 14  1  0  0  0  0
 13 24  1  0  0  0  0
 13 33  1  0  0  0  0
 14 15  1  0  0  0  0
 14 34  1  0  0  0  0
 14 35  1  0  0  0  0
 15 16  1  0  0  0  0
 16 17  2  0  0  0  0
 16 18  1  0  0  0  0
 18 23  1  0  0  0  0
 18 19  2  0  0  0  0
 19 20  1  0  0  0  0
 19 36  1  0  0  0  0
 20 21  2  0  0  0  0
 20 37  1  0  0  0  0
 21 22  1  0  0  0  0
 21 38  1  0  0  0  0
 22 23  2  0  0  0  0
 22 39  1  0  0  0  0
 23 40  1  0  0  0  0
 24 25  1  0  0  0  0
 25 41  1  0  0  0  0
M  END
> <s_m_source_file>
AV-unprocessed.smi

> <i_m_source_file_index>
12

> <i_lp_mmshare_version>
43012

> <i_f3d_flags>
0

> <s_epik_input>
W0NIM11jKFtjSF0xKWMoPU8pbmMobjEyKU9bQ0BIXTNbQ0BASF0yT1tDQEBIXShbQ0BASF0zW09IXSlbQ0gyXU9DKD1PKWM0W2NIXVtjSF1bY0hdW2NIXVtjSF00

> <s_epik_cmdline>
J2VwaWtfcHl0aG9uJywgJy1waCcsICc3LjAnLCAnLXRuJywgJzgnLCAnLW1hJywgJzIwMCcsICctbWV0YWxfYmluZGluZycsICctaW1hZScsICc8aW5maWxlLm1hZT4nLCAnLW9tYWUnLCAnPG91dGZpbGUubWFlPic=

> <r_lp_tautomer_probability>
0.933681

> <r_epik_Ionization_Penalty>
0.00399549

> <r_epik_Ionization_Penalty_Charging>
3.09373e-09

> <r_epik_Ionization_Penalty_Neutral>
0.00399549

> <r_epik_State_Penalty>
0.00284953

> <r_epik_Charging_Adjusted_Penalty>
0.00284953

> <i_epik_Tot_Q>
0

> <i_epik_Tot_abs_Q>
0

> <r_epik_Metal_State_Penalty>
-0

> <b_epik_Metal_Only>
0

> <s_epik_Chemistry_Notes>
This compound has an ester and may undergo hydrolysis at high or low pH. This compound contains an acetal/aminal-like group ( X-CH(R)-Y where X, Y are N, S, or O) that may be acid/base labile, releasing an aldehyde.

> <s_lp_Force_Field>
OPLS_2005

> <r_lp_Energy>
52.4355

> <b_lp_Chiralities_Consistent>
1

> <s_lp_Variant>
AV-unprocessed.smi:12-4

> <Gold.Version>
5.8.1

> <Gold.Id.Protein>
6NUR|6NUR_protein|mol2

> <Gold.PLP.Fitness>
45.8351

> <Gold.PLP.PLP>
-44.3040

> <Gold.PLP.part.hbond>
-3.0000

> <Gold.PLP.part.metal>
0.0000

> <Gold.PLP.part.buried>
-5.4418

> <Gold.PLP.part.nonpolar>
-36.9609

> <Gold.PLP.part.repulsive>
0.0000

> <Gold.PLP.ligand.clash>
0.0000

> <Gold.PLP.ligand.torsion>
1.1725

> <Gold.PLP.Chemscore.Hbond>
1.2904

> <Gold.PLP.Chemscore.CHOScore>
0.0000

> <Gold.PLP.Chemscore.Metal>
0.0000

> <Gold.Chemscore.Hbonds>
donor molecule, donor type, donor heavy atom, donor atom, acceptor molecule, acceptor atom, score
      P1  H  6896  6909       L1    12  0.18
      P1  H  7997  8009       L1    17  0.65

> <Gold.PLP.Chemscore.Internal.Correction>
0.0048

> <Gold.Rescore>
     Score         DG    S(hbond)    S(metal)    S(lipo)     H(rot)  DE(clash)    DE(int)     intcor
     15.22     -16.62       1.27        0.00     106.67       2.18       0.00       1.40       ----

> <Gold.Chemscore.Fitness>
15.2186

> <Gold.Chemscore.DG>
-16.6189

> <Gold.Chemscore.ZeroCoef>
-5.4800

> <Gold.Chemscore.Hbond>
1.2693

> <Gold.Chemscore.Metal>
0.0000

> <Gold.Chemscore.Lipo>
106.6679

> <Gold.Chemscore.Internal_Hbond>
0.0000

> <Gold.Chemscore.DEClash>
0.0000

> <Gold.Chemscore.DEInternal>
1.4002

> <Gold.Chemscore.Rot>
2.1800

> <Gold.Chemscore.Internal.Correction>
   9.000000E+99

> <Gold.Chemscore.Hbonds>
donor molecule, donor type, donor heavy atom, donor atom, acceptor molecule, acceptor atom, score
      P1  H  6896  6909       L1    12  0.17
      P1  H  7997  8009       L1    17  0.14

> <Gold.Chemscore.Hbond.Weighted>
-4.2395

> <Gold.Chemscore.Metal.Weighted>
-0.0000

> <Gold.Chemscore.Lipo.Weighted>
-12.4801

> <Gold.Chemscore.Internal_Hbond.Weighted>
0.0000

> <Gold.Chemscore.DEClash.Weighted>
0.0000

> <Gold.Chemscore.DEInternal.Weighted>
1.4002

> <Gold.Chemscore.Rot.Weighted>
5.5807

> <Gold.Chemscore.Internal.Correction.Weighted>
   9.000000E+99

> <Gold.Protein.RotatedTorsions>
[ 6907 6896 6895 6894 ] final   70.16 input  -60.11 | X-H torsion
[ 7974 7965 7964 7962 ] final -178.40 input  175.53 | X-H torsion
[ 8008 7997 7996 7995 ] final -167.31 input   59.86 | X-H torsion
[ 10167 10162 10161 10158 ] final  152.16 input  -65.29 | X-H torsion
[ 10718 10713 10712 10709 ] final  -30.12 input   66.30 | X-H torsion
[ 10763 10752 10751 10750 ] final -145.52 input  -60.55 | X-H torsion
[ 11005 11000 10999 10996 ] final   69.12 input  -57.11 | X-H torsion

> <Gold.Protein.ActiveResidues>
 VAL166  LYS551  ARG553  GLY616  TRP617  ASP618  TYR619  PRO620  LYS621  CYS622 
 ASP623  PHE694  ASN695  SER759  ASP760  ASP761  ALA762  ILE779  LEU786  VAL792 
 PHE793  MET794  SER795  GLU796  ALA797  LYS798  CYS799  TRP800  GLU811  SER814 

> <Gold.Protein.RotatedAtoms>
  152.4732  134.4909  159.9694 H   0  0  0  0  0  0  0  0  0  0  0  0  # atno 6907 bound_to 6896
  151.4931  133.3514  159.2864 H   0  0  0  0  0  0  0  0  0  0  0  0  # atno 6908 bound_to 6896
  150.8754  134.8163  159.7247 H   0  0  0  0  0  0  0  0  0  0  0  0  # atno 6909 bound_to 6896
  144.7131  140.0875  143.6423 H   0  0  0  0  0  0  0  0  0  0  0  0  # atno 7974 bound_to 7965
  155.8759  140.1001  157.1518 H   0  0  0  0  0  0  0  0  0  0  0  0  # atno 8008 bound_to 7997
  154.4001  140.1338  156.4199 H   0  0  0  0  0  0  0  0  0  0  0  0  # atno 8009 bound_to 7997
  155.7698  140.3461  155.5243 H   0  0  0  0  0  0  0  0  0  0  0  0  # atno 8010 bound_to 7997
  139.4835  144.5381  151.7611 H   0  0  0  0  0  0  0  0  0  0  0  0  # atno 10167 bound_to 10162
  156.4038  130.4395  149.7302 H   0  0  0  0  0  0  0  0  0  0  0  0  # atno 10718 bound_to 10713
  154.8379  135.3411  154.6518 H   0  0  0  0  0  0  0  0  0  0  0  0  # atno 10763 bound_to 10752
  153.7131  135.6963  153.5036 H   0  0  0  0  0  0  0  0  0  0  0  0  # atno 10764 bound_to 10752
  153.2437  135.4376  155.0678 H   0  0  0  0  0  0  0  0  0  0  0  0  # atno 10765 bound_to 10752
  139.9672  134.6961  156.0522 H   0  0  0  0  0  0  0  0  0  0  0  0  # atno 11005 bound_to 11000
  145.9649  139.2827  143.1133 LP  0  0  0  0  0  0  0  0  0  0  0  0  # atno 17320 bound_to 7965
  145.9180  140.9135  143.0420 LP  0  0  0  0  0  0  0  0  0  0  0  0  # atno 17321 bound_to 7965
  140.4916  144.1301  150.5951 LP  0  0  0  0  0  0  0  0  0  0  0  0  # atno 17342 bound_to 10162
  140.4164  143.2632  151.9769 LP  0  0  0  0  0  0  0  0  0  0  0  0  # atno 17343 bound_to 10162
  156.4308  130.7814  151.2834 LP  0  0  0  0  0  0  0  0  0  0  0  0  # atno 17370 bound_to 10713
  157.7505  131.0154  150.3505 LP  0  0  0  0  0  0  0  0  0  0  0  0  # atno 17371 bound_to 10713
  141.1351  133.6577  156.3572 LP  0  0  0  0  0  0  0  0  0  0  0  0  # atno 17394 bound_to 11000
  140.5372  134.6156  157.5368 LP  0  0  0  0  0  0  0  0  0  0  0  0  # atno 17395 bound_to 11000

$$$$
