AV-unprocessed.smi:1554|AV-procd|sdf|6252|dock7
  -GOLD-   22720 6433D 1   1.00000     0.00000
 Structure written by MMmdl.
 48 50  0  0  0  0  0  0  0  0  2 V2000
  152.1423  144.1974  161.0995 C   0  0  0  0  0  0  0  0  0  0  0  0
  152.0655  143.2124  159.9452 C   0  0  0  0  0  0  0  0  0  0  0  0
  151.2148  143.5129  158.8576 C   0  0  0  0  0  0  0  0  0  0  0  0
  151.1639  142.5909  157.8187 C   0  0  0  0  0  0  0  0  0  0  0  0
  150.4320  142.5941  156.6294 N   0  3  0  0  0  0  0  0  0  0  0  0
  150.7131  141.4664  155.9200 C   0  0  0  0  0  0  0  0  0  0  0  0
  151.6155  140.7437  156.6374 N   0  0  0  0  0  0  0  0  0  0  0  0
  152.2473  139.4547  156.3204 C   0  0  0  0  0  0  0  0  0  0  0  0
  151.4355  138.6193  155.3112 C   0  0  2  0  0  0  0  0  0  0  0  0
  151.4653  139.2474  154.0451 O   0  0  0  0  0  0  0  0  0  0  0  0
  149.9643  138.4801  155.7505 C   0  0  0  0  0  0  0  0  0  0  0  0
  148.9700  138.6036  154.6826 N   0  0  0  0  0  0  0  0  0  0  0  0
  147.8399  137.6913  154.8509 C   0  0  0  0  0  0  0  0  0  0  0  0
  146.7921  137.8641  153.7379 C   0  0  0  0  0  0  0  0  0  0  0  0
  146.3543  139.2180  153.6973 O   0  0  0  0  0  0  0  0  0  0  0  0
  147.4191  140.1403  153.4831 C   0  0  1  0  0  0  0  0  0  0  0  0
  146.8312  141.5549  153.4493 C   0  0  0  0  0  0  0  0  0  0  0  0
  148.4635  139.9701  154.6035 C   0  0  0  0  0  0  0  0  0  0  0  0
  151.9245  141.4055  157.8321 C   0  0  0  0  0  0  0  0  0  0  0  0
  152.7672  141.0945  158.8969 C   0  0  0  0  0  0  0  0  0  0  0  0
  152.8304  142.0174  159.9652 C   0  0  0  0  0  0  0  0  0  0  0  0
  153.7365  141.7009  161.1430 C   0  0  0  0  0  0  0  0  0  0  0  0
  151.5161  145.0719  160.9205 H   0  0  0  0  0  0  0  0  0  0  0  0
  153.1661  144.5455  161.2393 H   0  0  0  0  0  0  0  0  0  0  0  0
  151.8054  143.7293  162.0246 H   0  0  0  0  0  0  0  0  0  0  0  0
  150.6276  144.4194  158.8363 H   0  0  0  0  0  0  0  0  0  0  0  0
  150.2965  141.1951  154.9606 H   0  0  0  0  0  0  0  0  0  0  0  0
  153.2311  139.6781  155.9057 H   0  0  0  0  0  0  0  0  0  0  0  0
  152.4256  138.9024  157.2434 H   0  0  0  0  0  0  0  0  0  0  0  0
  151.9071  137.6416  155.2218 H   0  0  0  0  0  0  0  0  0  0  0  0
  152.0553  138.7624  153.4876 H   0  0  0  0  0  0  0  0  0  0  0  0
  149.8295  137.5194  156.2499 H   0  0  0  0  0  0  0  0  0  0  0  0
  149.7693  139.2365  156.5125 H   0  0  0  0  0  0  0  0  0  0  0  0
  148.1785  136.6564  154.8442 H   0  0  0  0  0  0  0  0  0  0  0  0
  147.3672  137.8610  155.8196 H   0  0  0  0  0  0  0  0  0  0  0  0
  147.2065  137.5792  152.7698 H   0  0  0  0  0  0  0  0  0  0  0  0
  145.9338  137.2177  153.9220 H   0  0  0  0  0  0  0  0  0  0  0  0
  147.8818  139.9289  152.5172 H   0  0  0  0  0  0  0  0  0  0  0  0
  147.6094  142.2998  153.2816 H   0  0  0  0  0  0  0  0  0  0  0  0
  146.3328  141.7969  154.3886 H   0  0  0  0  0  0  0  0  0  0  0  0
  146.0983  141.6536  152.6482 H   0  0  0  0  0  0  0  0  0  0  0  0
  148.0192  140.2537  155.5592 H   0  0  0  0  0  0  0  0  0  0  0  0
  149.2909  140.6591  154.4293 H   0  0  0  0  0  0  0  0  0  0  0  0
  153.3448  140.1820  158.9159 H   0  0  0  0  0  0  0  0  0  0  0  0
  154.2476  140.7469  161.0081 H   0  0  0  0  0  0  0  0  0  0  0  0
  153.1581  141.6410  162.0654 H   0  0  0  0  0  0  0  0  0  0  0  0
  154.4975  142.4729  161.2598 H   0  0  0  0  0  0  0  0  0  0  0  0
  149.7872  143.3113  156.3226 H   0  0  0  0  0  0  0  0  0  0  0  0
  1  2  1  0  0  0  0
  1 23  1  0  0  0  0
  1 24  1  0  0  0  0
  1 25  1  0  0  0  0
  2 21  1  0  0  0  0
  2  3  2  0  0  0  0
  3  4  1  0  0  0  0
  3 26  1  0  0  0  0
  4 19  2  0  0  0  0
  4  5  1  0  0  0  0
  5  6  2  0  0  0  0
  5 48  1  0  0  0  0
  6  7  1  0  0  0  0
  6 27  1  0  0  0  0
  7  8  1  0  0  0  0
  7 19  1  0  0  0  0
  8  9  1  0  0  0  0
  8 28  1  0  0  0  0
  8 29  1  0  0  0  0
  9 10  1  0  0  0  0
  9 11  1  0  0  0  0
  9 30  1  0  0  0  0
 10 31  1  0  0  0  0
 11 12  1  0  0  0  0
 11 32  1  0  0  0  0
 11 33  1  0  0  0  0
 12 18  1  0  0  0  0
 12 13  1  0  0  0  0
 13 14  1  0  0  0  0
 13 34  1  0  0  0  0
 13 35  1  0  0  0  0
 14 15  1  0  0  0  0
 14 36  1  0  0  0  0
 14 37  1  0  0  0  0
 15 16  1  0  0  0  0
 16 17  1  0  0  0  0
 16 18  1  0  0  0  0
 16 38  1  0  0  0  0
 17 39  1  0  0  0  0
 17 40  1  0  0  0  0
 17 41  1  0  0  0  0
 18 42  1  0  0  0  0
 18 43  1  0  0  0  0
 19 20  1  0  0  0  0
 20 21  2  0  0  0  0
 20 44  1  0  0  0  0
 21 22  1  0  0  0  0
 22 45  1  0  0  0  0
 22 46  1  0  0  0  0
 22 47  1  0  0  0  0
M  CHG  1   5   1
M  END
> <s_m_source_file>
AV-unprocessed.smi

> <i_m_source_file_index>
1554

> <i_lp_mmshare_version>
43012

> <i_f3d_flags>
0

> <s_epik_input>
W0NIM11jKFtjSF0xKWMoW0NIM10pW2NIXWMoYzEyKW4oW2NIXW4yKVtDSDJdW0NASF0oW09IXSlbQ0gyXU4zW0NIMl1bQ0gyXU9bQ0BASF0oW0NIM10pW0NIMl0z

> <s_epik_cmdline>
J2VwaWtfcHl0aG9uJywgJy1waCcsICc3LjAnLCAnLXRuJywgJzgnLCAnLW1hJywgJzIwMCcsICctbWV0YWxfYmluZGluZycsICctaW1hZScsICc8aW5maWxlLm1hZT4nLCAnLW9tYWUnLCAnPG91dGZpbGUubWFlPic=

> <r_epik_Ionization_Penalty>
1.42504

> <r_epik_Ionization_Penalty_Charging>
1.21068

> <r_epik_Ionization_Penalty_Neutral>
0.214359

> <r_epik_State_Penalty>
1.46962

> <r_epik_Charging_Adjusted_Penalty>
2.6803

> <i_epik_Tot_Q>
1

> <i_epik_Tot_abs_Q>
1

> <r_epik_Metal_State_Penalty>
5.48754

> <b_epik_Metal_Only>
0

> <s_lp_Force_Field>
OPLS_2005

> <r_lp_Energy>
34.8696

> <b_lp_Chiralities_Consistent>
1

> <s_lp_Variant>
AV-unprocessed.smi:1554-13

> <Gold.Version>
5.8.1

> <Gold.Id.Protein>
6NUR|6NUR_protein|mol2

> <Gold.PLP.Fitness>
46.3500

> <Gold.PLP.PLP>
-40.2096

> <Gold.PLP.part.hbond>
-2.0000

> <Gold.PLP.part.metal>
0.0000

> <Gold.PLP.part.buried>
-3.5027

> <Gold.PLP.part.nonpolar>
-33.9322

> <Gold.PLP.part.repulsive>
0.3607

> <Gold.PLP.ligand.clash>
0.0000

> <Gold.PLP.ligand.torsion>
1.4439

> <Gold.PLP.Chemscore.Hbond>
3.0000

> <Gold.PLP.Chemscore.CHOScore>
0.0000

> <Gold.PLP.Chemscore.Metal>
0.0000

> <Gold.Chemscore.Hbonds>
donor molecule, donor type, donor heavy atom, donor atom, acceptor molecule, acceptor atom, score
      L1  H     5    48       P1  8028  2.00
      P1  H  7989  7998       L1    10  1.00

> <Gold.PLP.Chemscore.Internal.Correction>
0.0283

> <Gold.Rescore>
     Score         DG    S(hbond)    S(metal)    S(lipo)     H(rot)  DE(clash)    DE(int)     intcor
     17.24     -19.90       1.70        0.00     119.51       2.04       0.14       2.52       ----

> <Gold.Chemscore.Fitness>
17.2369

> <Gold.Chemscore.DG>
-19.9038

> <Gold.Chemscore.ZeroCoef>
-5.4800

> <Gold.Chemscore.Hbond>
1.6977

> <Gold.Chemscore.Metal>
0.0000

> <Gold.Chemscore.Lipo>
119.5135

> <Gold.Chemscore.Internal_Hbond>
0.0000

> <Gold.Chemscore.DEClash>
0.1445

> <Gold.Chemscore.DEInternal>
2.5224

> <Gold.Chemscore.Rot>
2.0427

> <Gold.Chemscore.Internal.Correction>
   9.000000E+99

> <Gold.Chemscore.Hbonds>
donor molecule, donor type, donor heavy atom, donor atom, acceptor molecule, acceptor atom, score
      L1  H     5    48       P1  8028  1.00
      P1  H  7989  7998       L1    10  0.33

> <Gold.Chemscore.Hbond.Weighted>
-5.6702

> <Gold.Chemscore.Metal.Weighted>
-0.0000

> <Gold.Chemscore.Lipo.Weighted>
-13.9831

> <Gold.Chemscore.Internal_Hbond.Weighted>
0.0000

> <Gold.Chemscore.DEClash.Weighted>
0.1445

> <Gold.Chemscore.DEInternal.Weighted>
2.5224

> <Gold.Chemscore.Rot.Weighted>
5.2294

> <Gold.Chemscore.Internal.Correction.Weighted>
   9.000000E+99

> <Gold.Protein.RotatedTorsions>
[ 6907 6896 6895 6894 ] final   29.15 input  -60.11 | X-H torsion
[ 7974 7965 7964 7962 ] final -117.23 input  175.53 | X-H torsion
[ 8008 7997 7996 7995 ] final  -77.71 input   59.86 | X-H torsion
[ 10167 10162 10161 10158 ] final  169.29 input  -65.29 | X-H torsion
[ 10718 10713 10712 10709 ] final  -55.37 input   66.30 | X-H torsion
[ 10763 10752 10751 10750 ] final -119.97 input  -60.55 | X-H torsion
[ 11005 11000 10999 10996 ] final  -13.96 input  -57.11 | X-H torsion

> <Gold.Protein.ActiveResidues>
 VAL166  LYS551  ARG553  GLY616  TRP617  ASP618  TYR619  PRO620  LYS621  CYS622 
 ASP623  PHE694  ASN695  SER759  ASP760  ASP761  ALA762  ILE779  LEU786  VAL792 
 PHE793  MET794  SER795  GLU796  ALA797  LYS798  CYS799  TRP800  GLU811  SER814 

> <Gold.Protein.RotatedAtoms>
  152.0274  134.9788  160.0571 H   0  0  0  0  0  0  0  0  0  0  0  0  # atno 6907 bound_to 6896
  152.1278  133.4385  159.4714 H   0  0  0  0  0  0  0  0  0  0  0  0  # atno 6908 bound_to 6896
  150.6854  134.2376  159.4502 H   0  0  0  0  0  0  0  0  0  0  0  0  # atno 6909 bound_to 6896
  145.0876  140.8468  143.4001 H   0  0  0  0  0  0  0  0  0  0  0  0  # atno 7974 bound_to 7965
  154.5622  140.0706  156.8836 H   0  0  0  0  0  0  0  0  0  0  0  0  # atno 8008 bound_to 7997
  155.2790  140.3370  155.4241 H   0  0  0  0  0  0  0  0  0  0  0  0  # atno 8009 bound_to 7997
  156.2051  140.1737  156.7802 H   0  0  0  0  0  0  0  0  0  0  0  0  # atno 8010 bound_to 7997
  139.4988  144.3722  151.9712 H   0  0  0  0  0  0  0  0  0  0  0  0  # atno 10167 bound_to 10162
  156.1374  130.4156  150.0162 H   0  0  0  0  0  0  0  0  0  0  0  0  # atno 10718 bound_to 10713
  154.8632  135.4219  154.2385 H   0  0  0  0  0  0  0  0  0  0  0  0  # atno 10763 bound_to 10752
  153.3355  135.6990  153.6917 H   0  0  0  0  0  0  0  0  0  0  0  0  # atno 10764 bound_to 10752
  153.5916  135.3553  155.2886 H   0  0  0  0  0  0  0  0  0  0  0  0  # atno 10765 bound_to 10752
  140.7815  133.8359  155.9296 H   0  0  0  0  0  0  0  0  0  0  0  0  # atno 11005 bound_to 11000
  145.1104  139.2761  143.5640 LP  0  0  0  0  0  0  0  0  0  0  0  0  # atno 17320 bound_to 7965
  146.3531  140.0698  142.8624 LP  0  0  0  0  0  0  0  0  0  0  0  0  # atno 17321 bound_to 7965
  140.3159  144.3485  150.6022 LP  0  0  0  0  0  0  0  0  0  0  0  0  # atno 17342 bound_to 10162
  140.5762  143.2176  151.7511 LP  0  0  0  0  0  0  0  0  0  0  0  0  # atno 17343 bound_to 10162
  156.8057  130.9306  151.3645 LP  0  0  0  0  0  0  0  0  0  0  0  0  # atno 17370 bound_to 10713
  157.6545  130.8912  149.9700 LP  0  0  0  0  0  0  0  0  0  0  0  0  # atno 17371 bound_to 10713
  140.9478  134.1818  157.4750 LP  0  0  0  0  0  0  0  0  0  0  0  0  # atno 17394 bound_to 11000
  139.8742  134.9897  156.5470 LP  0  0  0  0  0  0  0  0  0  0  0  0  # atno 17395 bound_to 11000

$$$$
