AV-unprocessed.smi:1006|AV-procd|sdf|4392|dock1
  -GOLD-   22720 2323D 1   1.00000     0.00000
 Structure written by MMmdl.
 46 48  0  0  0  0  0  0  0  0  2 V2000
  141.6271  142.4129  155.0137 C   0  0  0  0  0  0  0  0  0  0  0  0
  143.0343  142.9019  155.2841 C   0  0  0  0  0  0  0  0  0  0  0  0
  143.3002  143.9596  156.1774 C   0  0  0  0  0  0  0  0  0  0  0  0
  144.6477  144.3228  156.3471 C   0  0  0  0  0  0  0  0  0  0  0  0
  145.0078  145.3536  157.2112 N   0  0  0  0  0  0  0  0  0  0  0  0
  145.6362  143.6898  155.6851 N   0  0  0  0  0  0  0  0  0  0  0  0
  145.3141  142.6931  154.8501 C   0  0  0  0  0  0  0  0  0  0  0  0
  146.6051  141.8256  153.9765 S   0  0  0  0  0  0  0  0  0  0  0  0
  147.7381  141.3477  155.3187 C   0  0  0  0  0  0  0  0  0  0  0  0
  149.2044  141.3355  154.8576 C   0  0  2  0  0  0  0  0  0  0  0  0
  149.2514  141.5952  153.4673 O   0  0  0  0  0  0  0  0  0  0  0  0
  149.8915  139.9895  155.1580 C   0  0  0  0  0  0  0  0  0  0  0  0
  150.9275  140.1059  156.1693 N   0  0  0  0  0  0  0  0  0  0  0  0
  152.0065  139.3139  156.3193 C   0  0  0  0  0  0  0  0  0  0  0  0
  152.8363  139.5971  157.3190 N   0  0  0  0  0  0  0  0  0  0  0  0
  152.2252  140.7040  157.8831 C   0  0  0  0  0  0  0  0  0  0  0  0
  152.6032  141.4947  158.9903 C   0  0  0  0  0  0  0  0  0  0  0  0
  151.8177  142.5972  159.3960 C   0  0  0  0  0  0  0  0  0  0  0  0
  152.2630  143.4218  160.5909 C   0  0  0  0  0  0  0  0  0  0  0  0
  150.6314  142.9218  158.6900 C   0  0  0  0  0  0  0  0  0  0  0  0
  149.7721  144.1026  159.1064 C   0  0  0  0  0  0  0  0  0  0  0  0
  150.2382  142.1413  157.5827 C   0  0  0  0  0  0  0  0  0  0  0  0
  151.0294  141.0483  157.1873 C   0  0  0  0  0  0  0  0  0  0  0  0
  144.0549  142.2849  154.6371 N   0  3  0  0  0  0  0  0  0  0  0  0
  140.8876  143.0914  155.4399 H   0  0  0  0  0  0  0  0  0  0  0  0
  141.4787  141.4259  155.4526 H   0  0  0  0  0  0  0  0  0  0  0  0
  141.4450  142.3442  153.9408 H   0  0  0  0  0  0  0  0  0  0  0  0
  142.5061  144.4662  156.7074 H   0  0  0  0  0  0  0  0  0  0  0  0
  144.3182  145.8689  157.7391 H   0  0  0  0  0  0  0  0  0  0  0  0
  145.9749  145.6087  157.3526 H   0  0  0  0  0  0  0  0  0  0  0  0
  147.6141  142.0599  156.1353 H   0  0  0  0  0  0  0  0  0  0  0  0
  147.4601  140.3657  155.7035 H   0  0  0  0  0  0  0  0  0  0  0  0
  149.7479  142.1312  155.3690 H   0  0  0  0  0  0  0  0  0  0  0  0
  149.2126  140.7715  153.0056 H   0  0  0  0  0  0  0  0  0  0  0  0
  149.1576  139.2617  155.5059 H   0  0  0  0  0  0  0  0  0  0  0  0
  150.3329  139.5754  154.2506 H   0  0  0  0  0  0  0  0  0  0  0  0
  152.1922  138.4808  155.6573 H   0  0  0  0  0  0  0  0  0  0  0  0
  153.5068  141.2468  159.5276 H   0  0  0  0  0  0  0  0  0  0  0  0
  152.4511  144.4533  160.2927 H   0  0  0  0  0  0  0  0  0  0  0  0
  153.1805  143.0268  161.0278 H   0  0  0  0  0  0  0  0  0  0  0  0
  151.4960  143.4188  161.3656 H   0  0  0  0  0  0  0  0  0  0  0  0
  148.8978  144.2047  158.4630 H   0  0  0  0  0  0  0  0  0  0  0  0
  150.3426  145.0298  159.0457 H   0  0  0  0  0  0  0  0  0  0  0  0
  149.4204  143.9778  160.1308 H   0  0  0  0  0  0  0  0  0  0  0  0
  149.3355  142.3761  157.0381 H   0  0  0  0  0  0  0  0  0  0  0  0
  143.8573  141.5178  153.9944 H   0  0  0  0  0  0  0  0  0  0  0  0
  1  2  1  0  0  0  0
  1 25  1  0  0  0  0
  1 26  1  0  0  0  0
  1 27  1  0  0  0  0
  2 24  1  0  0  0  0
  2  3  2  0  0  0  0
  3  4  1  0  0  0  0
  3 28  1  0  0  0  0
  4  5  1  0  0  0  0
  4  6  2  0  0  0  0
  5 29  1  0  0  0  0
  5 30  1  0  0  0  0
  6  7  1  0  0  0  0
  7  8  1  0  0  0  0
  7 24  2  0  0  0  0
  8  9  1  0  0  0  0
  9 10  1  0  0  0  0
  9 31  1  0  0  0  0
  9 32  1  0  0  0  0
 10 11  1  0  0  0  0
 10 12  1  0  0  0  0
 10 33  1  0  0  0  0
 11 34  1  0  0  0  0
 12 13  1  0  0  0  0
 12 35  1  0  0  0  0
 12 36  1  0  0  0  0
 13 23  1  0  0  0  0
 13 14  1  0  0  0  0
 14 15  2  0  0  0  0
 14 37  1  0  0  0  0
 15 16  1  0  0  0  0
 16 23  2  0  0  0  0
 16 17  1  0  0  0  0
 17 18  2  0  0  0  0
 17 38  1  0  0  0  0
 18 19  1  0  0  0  0
 18 20  1  0  0  0  0
 19 39  1  0  0  0  0
 19 40  1  0  0  0  0
 19 41  1  0  0  0  0
 20 21  1  0  0  0  0
 20 22  2  0  0  0  0
 21 42  1  0  0  0  0
 21 43  1  0  0  0  0
 21 44  1  0  0  0  0
 22 23  1  0  0  0  0
 22 45  1  0  0  0  0
 24 46  1  0  0  0  0
M  CHG  1  24   1
M  END
> <s_m_source_file>
AV-unprocessed.smi

> <i_m_source_file_index>
1006

> <i_lp_mmshare_version>
43012

> <i_f3d_flags>
0

> <s_epik_input>
W0NIM11jMVtjSF1jKFtOSDJdKW5jKG4xKVNbQ0gyXVtDQEhdKFtPSF0pW0NIMl1uKFtjSF1uMiljKGMyMylbY0hdYyhbQ0gzXSljKFtjSF0zKVtDSDNd

> <s_epik_cmdline>
J2VwaWtfcHl0aG9uJywgJy1waCcsICc3LjAnLCAnLXRuJywgJzgnLCAnLW1hJywgJzIwMCcsICctbWV0YWxfYmluZGluZycsICctaW1hZScsICc8aW5maWxlLm1hZT4nLCAnLW9tYWUnLCAnPG91dGZpbGUubWFlPic=

> <r_lp_tautomer_probability>
0.999762

> <r_epik_Ionization_Penalty>
0.549885

> <r_epik_Ionization_Penalty_Charging>
0.440405

> <r_epik_Ionization_Penalty_Neutral>
0.10948

> <r_epik_State_Penalty>
0.546419

> <r_epik_Charging_Adjusted_Penalty>
0.986823

> <i_epik_Tot_Q>
1

> <i_epik_Tot_abs_Q>
1

> <r_epik_Metal_State_Penalty>
0.699827

> <b_epik_Metal_Only>
0

> <s_lp_Force_Field>
OPLS_2005

> <r_lp_Energy>
10.4004

> <b_lp_Chiralities_Consistent>
1

> <s_lp_Variant>
AV-unprocessed.smi:1006-3

> <Gold.Version>
5.8.1

> <Gold.Id.Protein>
6NUR|6NUR_protein|mol2

> <Gold.PLP.Fitness>
51.0972

> <Gold.PLP.PLP>
-40.5901

> <Gold.PLP.part.hbond>
-6.6062

> <Gold.PLP.part.metal>
0.0000

> <Gold.PLP.part.buried>
-1.8253

> <Gold.PLP.part.nonpolar>
-31.6963

> <Gold.PLP.part.repulsive>
0.1695

> <Gold.PLP.ligand.clash>
1.6322

> <Gold.PLP.ligand.torsion>
2.0878

> <Gold.PLP.Chemscore.Hbond>
5.3765

> <Gold.PLP.Chemscore.CHOScore>
0.0000

> <Gold.PLP.Chemscore.Metal>
0.0000

> <Gold.Chemscore.Hbonds>
donor molecule, donor type, donor heavy atom, donor atom, acceptor molecule, acceptor atom, score
      L1  H     5    30       P1  8029  0.95
      L1  H    11    34       P1  7957  0.77
      L1  H    24    46       P1 10175  1.50
      P1  H  7997  8008       L1    15  0.98
      P1  H  8011  8017       L1    11  0.64

> <Gold.PLP.Chemscore.Internal.Correction>
0.1853

> <Gold.Rescore>
     Score         DG    S(hbond)    S(metal)    S(lipo)     H(rot)  DE(clash)    DE(int)     intcor
     13.75     -17.06       2.55        0.00      89.59       2.89       0.31       3.01       ----

> <Gold.Chemscore.Fitness>
13.7461

> <Gold.Chemscore.DG>
-17.0646

> <Gold.Chemscore.ZeroCoef>
-5.4800

> <Gold.Chemscore.Hbond>
2.5454

> <Gold.Chemscore.Metal>
0.0000

> <Gold.Chemscore.Lipo>
89.5868

> <Gold.Chemscore.Internal_Hbond>
0.0000

> <Gold.Chemscore.DEClash>
0.3124

> <Gold.Chemscore.DEInternal>
3.0061

> <Gold.Chemscore.Rot>
2.8901

> <Gold.Chemscore.Internal.Correction>
   9.000000E+99

> <Gold.Chemscore.Hbonds>
donor molecule, donor type, donor heavy atom, donor atom, acceptor molecule, acceptor atom, score
      L1  H     5    30       P1  8029  0.22
      L1  H    11    34       P1  7957  0.72
      L1  H    24    46       P1 10175  0.09
      P1  H  7997  8008       L1    15  0.24
      P1  H  8011  8017       L1    11  0.11

> <Gold.Chemscore.Hbond.Weighted>
-8.5016

> <Gold.Chemscore.Metal.Weighted>
-0.0000

> <Gold.Chemscore.Lipo.Weighted>
-10.4817

> <Gold.Chemscore.Internal_Hbond.Weighted>
0.0000

> <Gold.Chemscore.DEClash.Weighted>
0.3124

> <Gold.Chemscore.DEInternal.Weighted>
3.0061

> <Gold.Chemscore.Rot.Weighted>
7.3986

> <Gold.Chemscore.Internal.Correction.Weighted>
   9.000000E+99

> <Gold.Protein.RotatedTorsions>
[ 6907 6896 6895 6894 ] final  -10.22 input  -60.11 | X-H torsion
[ 7974 7965 7964 7962 ] final  -54.81 input  175.53 | X-H torsion
[ 8008 7997 7996 7995 ] final  -45.51 input   59.86 | X-H torsion
[ 10167 10162 10161 10158 ] final   35.69 input  -65.29 | X-H torsion
[ 10718 10713 10712 10709 ] final  -47.70 input   66.30 | X-H torsion
[ 10763 10752 10751 10750 ] final  -41.34 input  -60.55 | X-H torsion
[ 11005 11000 10999 10996 ] final  124.30 input  -57.11 | X-H torsion

> <Gold.Protein.ActiveResidues>
 VAL166  LYS551  ARG553  GLY616  TRP617  ASP618  TYR619  PRO620  LYS621  CYS622 
 ASP623  PHE694  ASN695  SER759  ASP760  ASP761  ALA762  ILE779  LEU786  VAL792 
 PHE793  MET794  SER795  GLU796  ALA797  LYS798  CYS799  TRP800  GLU811  SER814 

> <Gold.Protein.RotatedAtoms>
  151.4054  135.0977  159.9568 H   0  0  0  0  0  0  0  0  0  0  0  0  # atno 6907 bound_to 6896
  152.5037  133.8849  159.7375 H   0  0  0  0  0  0  0  0  0  0  0  0  # atno 6908 bound_to 6896
  150.9332  133.6686  159.2834 H   0  0  0  0  0  0  0  0  0  0  0  0  # atno 6909 bound_to 6896
  145.8813  140.8142  142.9838 H   0  0  0  0  0  0  0  0  0  0  0  0  # atno 7974 bound_to 7965
  154.4001  140.1395  156.3858 H   0  0  0  0  0  0  0  0  0  0  0  0  # atno 8008 bound_to 7997
  155.7960  140.3477  155.5355 H   0  0  0  0  0  0  0  0  0  0  0  0  # atno 8009 bound_to 7997
  155.8531  140.0944  157.1652 H   0  0  0  0  0  0  0  0  0  0  0  0  # atno 8010 bound_to 7997
  140.4199  144.1475  150.6147 H   0  0  0  0  0  0  0  0  0  0  0  0  # atno 10167 bound_to 10162
  156.2059  130.4158  149.9178 H   0  0  0  0  0  0  0  0  0  0  0  0  # atno 10718 bound_to 10713
  153.9609  135.6739  153.4745 H   0  0  0  0  0  0  0  0  0  0  0  0  # atno 10763 bound_to 10752
  153.0838  135.4909  154.8554 H   0  0  0  0  0  0  0  0  0  0  0  0  # atno 10764 bound_to 10752
  154.7273  135.3130  154.8910 H   0  0  0  0  0  0  0  0  0  0  0  0  # atno 10765 bound_to 10752
  139.9352  134.9640  156.8388 H   0  0  0  0  0  0  0  0  0  0  0  0  # atno 11005 bound_to 11000
  144.6727  140.1388  143.7438 LP  0  0  0  0  0  0  0  0  0  0  0  0  # atno 17320 bound_to 7965
  145.9020  139.2436  143.1488 LP  0  0  0  0  0  0  0  0  0  0  0  0  # atno 17321 bound_to 7965
  140.4546  143.2473  151.9302 LP  0  0  0  0  0  0  0  0  0  0  0  0  # atno 17342 bound_to 10162
  139.4782  144.5529  151.8359 LP  0  0  0  0  0  0  0  0  0  0  0  0  # atno 17343 bound_to 10162
  156.6873  130.8881  151.3583 LP  0  0  0  0  0  0  0  0  0  0  0  0  # atno 17370 bound_to 10713
  157.7012  130.9335  150.0791 LP  0  0  0  0  0  0  0  0  0  0  0  0  # atno 17371 bound_to 10713
  140.6094  134.0096  155.7570 LP  0  0  0  0  0  0  0  0  0  0  0  0  # atno 17394 bound_to 11000
  141.0962  133.9839  157.3156 LP  0  0  0  0  0  0  0  0  0  0  0  0  # atno 17395 bound_to 11000

$$$$
