AV-unprocessed.smi:278|AV-procd|sdf|2093|dock2
  -GOLD-   2262021373D 1   1.00000     0.00000
 Structure written by MMmdl.
 50 54  0  0  0  0  0  0  0  0  1 V2000
  150.2075  130.2381  157.8038 O   0  0  0  0  0  0  0  0  0  0  0  0
  150.6418  131.5411  157.2784 S   0  0  0  0  0  0  0  0  0  0  0  0
  151.5741  132.3858  158.0411 O   0  0  0  0  0  0  0  0  0  0  0  0
  151.2971  131.3100  155.5803 C   0  0  0  0  0  0  0  0  0  0  0  0
  150.1906  131.7763  154.6252 C   0  0  0  0  0  0  0  0  0  0  0  0
  149.3521  132.8662  155.3176 C   0  0  2  0  0  0  0  0  0  0  0  0
  150.0420  134.2327  155.3868 C   0  0  0  0  0  0  0  0  0  0  0  0
  149.5203  134.8610  156.5921 N   0  0  0  0  0  0  0  0  0  0  0  0
  150.0045  136.0509  157.0350 C   0  0  0  0  0  0  0  0  0  0  0  0
  150.3478  136.1673  158.3456 N   0  0  0  0  0  0  0  0  0  0  0  0
  150.8326  137.3170  158.8225 C   0  0  0  0  0  0  0  0  0  0  0  0
  151.0598  138.4591  158.1731 N   0  0  0  0  0  0  0  0  0  0  0  0
  150.7298  138.3507  156.8548 C   0  0  0  0  0  0  0  0  0  0  0  0
  150.2010  137.1966  156.2070 C   0  0  0  0  0  0  0  0  0  0  0  0
  150.0037  137.4708  154.8571 N   0  0  0  0  0  0  0  0  0  0  0  0
  150.3845  138.7108  154.7184 C   0  0  0  0  0  0  0  0  0  0  0  0
  150.8396  139.3138  155.8673 N   0  0  0  0  0  0  0  0  0  0  0  0
  151.3324  140.6744  155.9949 C   0  0  0  0  0  0  0  0  0  0  0  0
  150.5384  141.4927  157.0324 C   0  0  2  0  0  0  0  0  0  0  0  0
  149.3449  141.9713  156.4414 O   0  0  0  0  0  0  0  0  0  0  0  0
  151.3648  142.6654  157.5997 C   0  0  1  0  0  0  0  0  0  0  0  0
  150.6518  143.6310  158.5522 C   0  0  0  0  0  0  0  0  0  0  0  0
  151.8232  144.2040  159.3179 C   0  0  0  0  0  0  0  0  0  0  0  0
  152.7272  142.9822  159.4657 C   0  0  0  0  0  0  0  0  0  0  0  0
  152.5123  142.1915  158.2992 O   0  0  0  0  0  0  0  0  0  0  0  0
  149.0330  133.8523  157.5230 C   0  0  0  0  0  0  0  0  0  0  0  0
  149.1493  132.5073  156.7910 C   0  0  2  0  0  0  0  0  0  0  0  0
  148.3847  132.9834  154.8270 H   0  0  0  0  0  0  0  0  0  0  0  0
  148.2740  131.8751  156.9427 H   0  0  0  0  0  0  0  0  0  0  0  0
  152.1862  131.9320  155.4763 H   0  0  0  0  0  0  0  0  0  0  0  0
  151.5826  130.2693  155.4252 H   0  0  0  0  0  0  0  0  0  0  0  0
  150.5967  132.1168  153.6722 H   0  0  0  0  0  0  0  0  0  0  0  0
  149.5409  130.9283  154.4057 H   0  0  0  0  0  0  0  0  0  0  0  0
  151.1240  134.1256  155.4764 H   0  0  0  0  0  0  0  0  0  0  0  0
  149.8307  134.8304  154.4994 H   0  0  0  0  0  0  0  0  0  0  0  0
  151.0749  137.3218  159.8751 H   0  0  0  0  0  0  0  0  0  0  0  0
  150.3508  139.2209  153.7668 H   0  0  0  0  0  0  0  0  0  0  0  0
  152.3850  140.6275  156.2768 H   0  0  0  0  0  0  0  0  0  0  0  0
  151.2941  141.1556  155.0168 H   0  0  0  0  0  0  0  0  0  0  0  0
  150.2624  140.8322  157.8554 H   0  0  0  0  0  0  0  0  0  0  0  0
  149.3963  142.9135  156.3875 H   0  0  0  0  0  0  0  0  0  0  0  0
  151.7598  143.2464  156.7646 H   0  0  0  0  0  0  0  0  0  0  0  0
  150.0693  144.3906  158.0300 H   0  0  0  0  0  0  0  0  0  0  0  0
  149.9887  143.1074  159.2412 H   0  0  0  0  0  0  0  0  0  0  0  0
  152.3208  144.9711  158.7232 H   0  0  0  0  0  0  0  0  0  0  0  0
  151.5384  144.6426  160.2747 H   0  0  0  0  0  0  0  0  0  0  0  0
  153.7777  143.2512  159.5775 H   0  0  0  0  0  0  0  0  0  0  0  0
  152.4332  142.3971  160.3378 H   0  0  0  0  0  0  0  0  0  0  0  0
  149.5826  133.8548  158.4642 H   0  0  0  0  0  0  0  0  0  0  0  0
  147.9878  134.0669  157.7474 H   0  0  0  0  0  0  0  0  0  0  0  0
  1  2  2  0  0  0  0
  2 27  1  0  0  0  0
  2  3  2  0  0  0  0
  2  4  1  0  0  0  0
  4  5  1  0  0  0  0
  4 30  1  0  0  0  0
  4 31  1  0  0  0  0
  5  6  1  0  0  0  0
  5 32  1  0  0  0  0
  5 33  1  0  0  0  0
  6 28  1  0  0  0  0
  6 27  1  0  0  0  0
  6  7  1  0  0  0  0
  7  8  1  0  0  0  0
  7 34  1  0  0  0  0
  7 35  1  0  0  0  0
  8  9  1  0  0  0  0
  8 26  1  0  0  0  0
  9 14  1  0  0  0  0
  9 10  2  0  0  0  0
 10 11  1  0  0  0  0
 11 12  2  0  0  0  0
 11 36  1  0  0  0  0
 12 13  1  0  0  0  0
 13 17  1  0  0  0  0
 13 14  2  0  0  0  0
 14 15  1  0  0  0  0
 15 16  2  0  0  0  0
 16 17  1  0  0  0  0
 16 37  1  0  0  0  0
 17 18  1  0  0  0  0
 18 19  1  0  0  0  0
 18 38  1  0  0  0  0
 18 39  1  0  0  0  0
 19 20  1  0  0  0  0
 19 21  1  0  0  0  0
 19 40  1  0  0  0  0
 20 41  1  0  0  0  0
 21 25  1  0  0  0  0
 21 22  1  0  0  0  0
 21 42  1  0  0  0  0
 22 23  1  0  0  0  0
 22 43  1  0  0  0  0
 22 44  1  0  0  0  0
 23 24  1  0  0  0  0
 23 45  1  0  0  0  0
 23 46  1  0  0  0  0
 24 25  1  0  0  0  0
 24 47  1  0  0  0  0
 24 48  1  0  0  0  0
 26 27  1  0  0  0  0
 26 49  1  0  0  0  0
 26 50  1  0  0  0  0
 27 29  1  0  0  0  0
M  END
> <s_m_source_file>
AV-unprocessed.smi

> <i_m_source_file_index>
278

> <i_lp_mmshare_version>
43012

> <i_f3d_flags>
0

> <s_epik_input>
W0NIMl0xW0NIMl1TKD1PKSg9TylbQ0BASF0oW0NAQEhdMTIpW0NIMl1OKFtDSDJdMiljKG5bY0hdbjMpYyhjMzQpbltjSF1uNFtDSDJdW0NASF0oW09IXSlbQ0BASF01W0NIMl1bQ0gyXVtDSDJdTzU=

> <s_epik_cmdline>
J2VwaWtfcHl0aG9uJywgJy1waCcsICc3LjAnLCAnLXRuJywgJzgnLCAnLW1hJywgJzIwMCcsICctbWV0YWxfYmluZGluZycsICctaW1hZScsICc8aW5maWxlLm1hZT4nLCAnLW9tYWUnLCAnPG91dGZpbGUubWFlPic=

> <r_lp_tautomer_probability>
1

> <r_epik_Ionization_Penalty>
0.000636766

> <r_epik_Ionization_Penalty_Charging>
0

> <r_epik_Ionization_Penalty_Neutral>
0.000636766

> <r_epik_State_Penalty>
0.000329976

> <r_epik_Charging_Adjusted_Penalty>
0.000329976

> <i_epik_Tot_Q>
0

> <i_epik_Tot_abs_Q>
0

> <r_epik_Metal_State_Penalty>
-0

> <b_epik_Metal_Only>
0

> <s_lp_Force_Field>
OPLS_2005

> <r_lp_Energy>
51.4583

> <b_lp_Chiralities_Consistent>
1

> <s_lp_Variant>
AV-unprocessed.smi:278-7

> <Gold.Version>
5.8.1

> <Gold.Id.Protein>
6NUR|6NUR_protein|mol2

> <Gold.PLP.Fitness>
45.1000

> <Gold.PLP.PLP>
-36.3636

> <Gold.PLP.part.hbond>
-2.8720

> <Gold.PLP.part.metal>
0.0000

> <Gold.PLP.part.buried>
-4.0254

> <Gold.PLP.part.nonpolar>
-28.8056

> <Gold.PLP.part.repulsive>
0.1867

> <Gold.PLP.ligand.clash>
0.0000

> <Gold.PLP.ligand.torsion>
0.7436

> <Gold.PLP.Chemscore.Hbond>
2.6396

> <Gold.PLP.Chemscore.CHOScore>
0.6785

> <Gold.PLP.Chemscore.Metal>
0.0000

> <Gold.Chemscore.Hbonds>
donor molecule, donor type, donor heavy atom, donor atom, acceptor molecule, acceptor atom, score
      L1  H    20    41       P1  8028  1.00
      P1  H  6896  6908       L1     3  0.94
      P1  H  6896  6909       L1    10  0.88
      L1  C    16    37       P1  7957  0.27

> <Gold.PLP.Chemscore.Internal.Correction>
0.2692

> <Gold.Rescore>
     Score         DG    S(hbond)    S(metal)    S(lipo)     H(rot)  DE(clash)    DE(int)     intcor
     17.72     -18.41       2.64        0.00      81.85       2.13       0.06       0.63       ----

> <Gold.Chemscore.Fitness>
17.7219

> <Gold.Chemscore.DG>
-18.4107

> <Gold.Chemscore.ZeroCoef>
-5.4800

> <Gold.Chemscore.Hbond>
2.6403

> <Gold.Chemscore.Metal>
0.0000

> <Gold.Chemscore.Lipo>
81.8513

> <Gold.Chemscore.Internal_Hbond>
0.0000

> <Gold.Chemscore.DEClash>
0.0589

> <Gold.Chemscore.DEInternal>
0.6299

> <Gold.Chemscore.Rot>
2.1346

> <Gold.Chemscore.Internal.Correction>
   9.000000E+99

> <Gold.Chemscore.Hbonds>
donor molecule, donor type, donor heavy atom, donor atom, acceptor molecule, acceptor atom, score
      L1  H    20    41       P1  8028  0.93
      P1  H  6896  6908       L1     3  0.90
      P1  H  6896  6909       L1    10  0.47

> <Gold.Chemscore.Hbond.Weighted>
-8.8187

> <Gold.Chemscore.Metal.Weighted>
-0.0000

> <Gold.Chemscore.Lipo.Weighted>
-9.5766

> <Gold.Chemscore.Internal_Hbond.Weighted>
0.0000

> <Gold.Chemscore.DEClash.Weighted>
0.0589

> <Gold.Chemscore.DEInternal.Weighted>
0.6299

> <Gold.Chemscore.Rot.Weighted>
5.4646

> <Gold.Chemscore.Internal.Correction.Weighted>
   9.000000E+99

> <Gold.Protein.RotatedTorsions>
[ 6907 6896 6895 6894 ] final   65.99 input  -60.11 | X-H torsion
[ 7974 7965 7964 7962 ] final   12.78 input  175.53 | X-H torsion
[ 8008 7997 7996 7995 ] final  -75.53 input   59.86 | X-H torsion
[ 10167 10162 10161 10158 ] final  -82.56 input  -65.29 | X-H torsion
[ 10718 10713 10712 10709 ] final  122.72 input   66.30 | X-H torsion
[ 10763 10752 10751 10750 ] final  155.87 input  -60.55 | X-H torsion
[ 11005 11000 10999 10996 ] final   82.33 input  -57.11 | X-H torsion

> <Gold.Protein.ActiveResidues>
 VAL166  LYS551  ARG553  GLY616  TRP617  ASP618  TYR619  PRO620  LYS621  CYS622 
 ASP623  PHE694  ASN695  SER759  ASP760  ASP761  ALA762  ILE779  LEU786  VAL792 
 PHE793  MET794  SER795  GLU796  ALA797  LYS798  CYS799  TRP800  GLU811  SER814 

> <Gold.Protein.RotatedAtoms>
  152.4448  134.5517  159.9868 H   0  0  0  0  0  0  0  0  0  0  0  0  # atno 6907 bound_to 6896
  151.5605  133.3398  159.2978 H   0  0  0  0  0  0  0  0  0  0  0  0  # atno 6908 bound_to 6896
  150.8362  134.7669  159.6958 H   0  0  0  0  0  0  0  0  0  0  0  0  # atno 6909 bound_to 6896
  146.2344  139.9286  142.8499 H   0  0  0  0  0  0  0  0  0  0  0  0  # atno 7974 bound_to 7965
  154.5425  140.0742  156.8533 H   0  0  0  0  0  0  0  0  0  0  0  0  # atno 8008 bound_to 7997
  155.3153  140.3393  155.4224 H   0  0  0  0  0  0  0  0  0  0  0  0  # atno 8009 bound_to 7997
  156.1887  140.1678  156.8121 H   0  0  0  0  0  0  0  0  0  0  0  0  # atno 8010 bound_to 7997
  140.4308  143.2549  151.8761 H   0  0  0  0  0  0  0  0  0  0  0  0  # atno 10167 bound_to 10162
  157.5720  131.1082  150.8348 H   0  0  0  0  0  0  0  0  0  0  0  0  # atno 10718 bound_to 10713
  154.1753  135.2802  155.3069 H   0  0  0  0  0  0  0  0  0  0  0  0  # atno 10763 bound_to 10752
  154.6044  135.5519  153.7411 H   0  0  0  0  0  0  0  0  0  0  0  0  # atno 10764 bound_to 10752
  153.0153  135.6400  154.1892 H   0  0  0  0  0  0  0  0  0  0  0  0  # atno 10765 bound_to 10752
  139.9067  134.8063  156.2160 H   0  0  0  0  0  0  0  0  0  0  0  0  # atno 11005 bound_to 11000
  145.2067  140.9878  143.4124 LP  0  0  0  0  0  0  0  0  0  0  0  0  # atno 17320 bound_to 7965
  144.9727  139.3864  143.6301 LP  0  0  0  0  0  0  0  0  0  0  0  0  # atno 17321 bound_to 7965
  139.4785  144.5336  151.8631 LP  0  0  0  0  0  0  0  0  0  0  0  0  # atno 17342 bound_to 10162
  140.4429  144.1962  150.5892 LP  0  0  0  0  0  0  0  0  0  0  0  0  # atno 17343 bound_to 10162
  156.8817  130.5182  149.5290 LP  0  0  0  0  0  0  0  0  0  0  0  0  # atno 17370 bound_to 10713
  156.0766  130.5786  150.9484 LP  0  0  0  0  0  0  0  0  0  0  0  0  # atno 17371 bound_to 10713
  141.0435  133.6925  156.1642 LP  0  0  0  0  0  0  0  0  0  0  0  0  # atno 17394 bound_to 11000
  140.6919  134.4657  157.5588 LP  0  0  0  0  0  0  0  0  0  0  0  0  # atno 17395 bound_to 11000

$$$$
