AV-unprocessed.smi:34|AV-procd|sdf|234|dock8
  -GOLD-   2262015573D 1   1.00000     0.00000
 Structure written by MMmdl.
 54 58  0  0  0  0  0  0  0  0  2 V2000
  152.6401  140.1984  159.4510 O   0  0  0  0  0  0  0  0  0  0  0  0
  152.0883  141.0256  158.7218 C   0  0  0  0  0  0  0  0  0  0  0  0
  151.4495  140.8038  157.5450 N   0  5  0  0  0  0  0  0  0  0  0  0
  151.7268  139.7005  156.8340 C   0  0  0  0  0  0  0  0  0  0  0  0
  152.5460  139.7662  155.7528 N   0  0  0  0  0  0  0  0  0  0  0  0
  152.8190  138.6650  155.0425 C   0  0  0  0  0  0  0  0  0  0  0  0
  152.3915  137.4128  155.2347 N   0  0  0  0  0  0  0  0  0  0  0  0
  151.5777  137.3344  156.3271 C   0  0  0  0  0  0  0  0  0  0  0  0
  151.2053  138.4210  157.1694 C   0  0  0  0  0  0  0  0  0  0  0  0
  150.3668  137.9876  158.1864 N   0  0  0  0  0  0  0  0  0  0  0  0
  150.2660  136.6870  157.9175 C   0  0  0  0  0  0  0  0  0  0  0  0
  150.9394  136.2222  156.8439 N   0  0  0  0  0  0  0  0  0  0  0  0
  151.0091  134.8307  156.2939 C   0  0  1  0  0  0  0  0  0  0  0  0
  150.2271  133.9954  157.0990 O   0  0  0  0  0  0  0  0  0  0  0  0
  149.0209  133.6656  156.4187 C   0  0  2  0  0  0  0  0  0  0  0  0
  148.4334  132.3669  156.9795 C   0  0  0  0  0  0  0  0  0  0  0  0
  147.9462  131.5787  155.9061 O   0  0  0  0  0  0  0  0  0  0  0  0
  148.7402  130.6534  155.3339 C   0  0  0  0  0  0  0  0  0  0  0  0
  149.8750  130.3864  155.7345 O   0  0  0  0  0  0  0  0  0  0  0  0
  148.1016  129.9839  154.1640 C   0  0  0  0  0  0  0  0  0  0  0  0
  148.8271  129.0054  153.4450 C   0  0  0  0  0  0  0  0  0  0  0  0
  148.2512  128.3563  152.3357 C   0  0  0  0  0  0  0  0  0  0  0  0
  146.9424  128.6778  151.9319 C   0  0  0  0  0  0  0  0  0  0  0  0
  146.2097  129.6489  152.6390 C   0  0  0  0  0  0  0  0  0  0  0  0
  146.7839  130.2990  153.7490 C   0  0  0  0  0  0  0  0  0  0  0  0
  149.5122  133.5456  154.9807 C   0  0  1  0  0  0  0  0  0  0  0  0
  148.5351  133.5378  154.0722 F   0  0  0  0  0  0  0  0  0  0  0  0
  150.4508  134.7347  154.8536 C   0  0  1  0  0  0  0  0  0  0  0  0
  149.7532  135.8953  154.4291 O   0  0  0  0  0  0  0  0  0  0  0  0
  152.0316  142.4618  159.1687 C   0  0  0  0  0  0  0  0  0  0  0  0
  151.6411  143.4656  158.2530 C   0  0  0  0  0  0  0  0  0  0  0  0
  151.5529  144.8113  158.6596 C   0  0  0  0  0  0  0  0  0  0  0  0
  151.8451  145.1666  159.9898 C   0  0  0  0  0  0  0  0  0  0  0  0
  152.2225  144.1745  160.9141 C   0  0  0  0  0  0  0  0  0  0  0  0
  152.3112  142.8287  160.5081 C   0  0  0  0  0  0  0  0  0  0  0  0
  153.4753  138.8085  154.1969 H   0  0  0  0  0  0  0  0  0  0  0  0
  149.6644  136.0385  158.5372 H   0  0  0  0  0  0  0  0  0  0  0  0
  152.0597  134.5500  156.3778 H   0  0  0  0  0  0  0  0  0  0  0  0
  148.3062  134.4863  156.5028 H   0  0  0  0  0  0  0  0  0  0  0  0
  149.2052  131.8043  157.5063 H   0  0  0  0  0  0  0  0  0  0  0  0
  147.6388  132.5873  157.6939 H   0  0  0  0  0  0  0  0  0  0  0  0
  149.8338  128.7416  153.7361 H   0  0  0  0  0  0  0  0  0  0  0  0
  148.8151  127.6109  151.7946 H   0  0  0  0  0  0  0  0  0  0  0  0
  146.5011  128.1801  151.0810 H   0  0  0  0  0  0  0  0  0  0  0  0
  145.2049  129.8959  152.3299 H   0  0  0  0  0  0  0  0  0  0  0  0
  146.1939  131.0389  154.2699 H   0  0  0  0  0  0  0  0  0  0  0  0
  150.0733  132.6183  154.8551 H   0  0  0  0  0  0  0  0  0  0  0  0
  151.2630  134.5357  154.1538 H   0  0  0  0  0  0  0  0  0  0  0  0
  149.2943  135.6936  153.6278 H   0  0  0  0  0  0  0  0  0  0  0  0
  151.4093  143.2085  157.2294 H   0  0  0  0  0  0  0  0  0  0  0  0
  151.2580  145.5702  157.9502 H   0  0  0  0  0  0  0  0  0  0  0  0
  151.7758  146.1981  160.3021 H   0  0  0  0  0  0  0  0  0  0  0  0
  152.4399  144.4437  161.9371 H   0  0  0  0  0  0  0  0  0  0  0  0
  152.5911  142.0810  161.2361 H   0  0  0  0  0  0  0  0  0  0  0  0
  1  2  2  0  0  0  0
  2  3  1  0  0  0  0
  2 30  1  0  0  0  0
  3  4  1  0  0  0  0
  4  9  1  0  0  0  0
  4  5  2  0  0  0  0
  5  6  1  0  0  0  0
  6  7  2  0  0  0  0
  6 36  1  0  0  0  0
  7  8  1  0  0  0  0
  8 12  1  0  0  0  0
  8  9  2  0  0  0  0
  9 10  1  0  0  0  0
 10 11  2  0  0  0  0
 11 12  1  0  0  0  0
 11 37  1  0  0  0  0
 12 13  1  0  0  0  0
 13 28  1  0  0  0  0
 13 14  1  0  0  0  0
 13 38  1  0  0  0  0
 14 15  1  0  0  0  0
 15 16  1  0  0  0  0
 15 26  1  0  0  0  0
 15 39  1  0  0  0  0
 16 17  1  0  0  0  0
 16 40  1  0  0  0  0
 16 41  1  0  0  0  0
 17 18  1  0  0  0  0
 18 19  2  0  0  0  0
 18 20  1  0  0  0  0
 20 25  1  0  0  0  0
 20 21  2  0  0  0  0
 21 22  1  0  0  0  0
 21 42  1  0  0  0  0
 22 23  2  0  0  0  0
 22 43  1  0  0  0  0
 23 24  1  0  0  0  0
 23 44  1  0  0  0  0
 24 25  2  0  0  0  0
 24 45  1  0  0  0  0
 25 46  1  0  0  0  0
 26 27  1  0  0  0  0
 26 28  1  0  0  0  0
 26 47  1  0  0  0  0
 28 29  1  0  0  0  0
 28 48  1  0  0  0  0
 29 49  1  0  0  0  0
 30 35  1  0  0  0  0
 30 31  2  0  0  0  0
 31 32  1  0  0  0  0
 31 50  1  0  0  0  0
 32 33  2  0  0  0  0
 32 51  1  0  0  0  0
 33 34  1  0  0  0  0
 33 52  1  0  0  0  0
 34 35  2  0  0  0  0
 34 53  1  0  0  0  0
 35 54  1  0  0  0  0
M  CHG  1   3  -1
M  END
> <s_m_source_file>
AV-unprocessed.smi

> <i_m_source_file_index>
34

> <i_lp_mmshare_version>
43012

> <i_f3d_flags>
0

> <s_epik_input>
W2NIXTFbY0hdW2NIXVtjSF1bY0hdYzFDKD1PKVtOSF1jKG5bY0hdbjIpYyhjMjMpbltjSF1uM1tDQEBIXTRPW0NASF0oW0NAQEhdKEYpW0NASF00W09IXSlbQ0gyXU9DKD1PKWM1W2NIXVtjSF1bY0hdW2NIXVtjSF01

> <s_epik_cmdline>
J2VwaWtfcHl0aG9uJywgJy1waCcsICc3LjAnLCAnLXRuJywgJzgnLCAnLW1hJywgJzIwMCcsICctbWV0YWxfYmluZGluZycsICctaW1hZScsICc8aW5maWxlLm1hZT4nLCAnLW9tYWUnLCAnPG91dGZpbGUubWFlPic=

> <r_lp_tautomer_probability>
1

> <r_epik_Ionization_Penalty>
4.33227

> <r_epik_Ionization_Penalty_Charging>
3.41027

> <r_epik_Ionization_Penalty_Neutral>
0.922001

> <r_epik_State_Penalty>
3.41358

> <r_epik_Charging_Adjusted_Penalty>
6.82385

> <i_epik_Tot_Q>
-1

> <i_epik_Tot_abs_Q>
1

> <r_epik_Metal_State_Penalty>
0.496292

> <b_epik_Metal_Only>
1

> <s_epik_Chemistry_Notes>
This compound has an ester and may undergo hydrolysis at high or low pH. This compound contains an acetal/aminal-like group ( X-CH(R)-Y where X, Y are N, S, or O) that may be acid/base labile, releasing an aldehyde.

> <s_lp_Force_Field>
OPLS_2005

> <r_lp_Energy>
50.8657

> <b_lp_Chiralities_Consistent>
1

> <s_lp_Variant>
AV-unprocessed.smi:34-20

> <Gold.Version>
5.8.1

> <Gold.Id.Protein>
6NUR|6NUR_protein|mol2

> <Gold.PLP.Fitness>
63.7354

> <Gold.PLP.PLP>
-58.0668

> <Gold.PLP.part.hbond>
-4.1370

> <Gold.PLP.part.metal>
0.0000

> <Gold.PLP.part.buried>
-8.7216

> <Gold.PLP.part.nonpolar>
-46.7198

> <Gold.PLP.part.repulsive>
0.0451

> <Gold.PLP.ligand.clash>
0.0000

> <Gold.PLP.ligand.torsion>
1.6553

> <Gold.PLP.Chemscore.Hbond>
2.8480

> <Gold.PLP.Chemscore.CHOScore>
0.0000

> <Gold.PLP.Chemscore.Metal>
0.0000

> <Gold.Chemscore.Hbonds>
donor molecule, donor type, donor heavy atom, donor atom, acceptor molecule, acceptor atom, score
      L1  H    29    49       P1  7948  0.91
      P1  H  6896  6909       L1    14  0.40
      P1  H  7997  8008       L1     5  0.90
      P1  H 10752 10765       L1     7  0.67

> <Gold.PLP.Chemscore.Internal.Correction>
0.4353

> <Gold.Rescore>
     Score         DG    S(hbond)    S(metal)    S(lipo)     H(rot)  DE(clash)    DE(int)     intcor
     15.81     -20.62       2.15        0.00     126.81       2.69       0.07       4.73       ----

> <Gold.Chemscore.Fitness>
15.8106

> <Gold.Chemscore.DG>
-20.6150

> <Gold.Chemscore.ZeroCoef>
-5.4800

> <Gold.Chemscore.Hbond>
2.1545

> <Gold.Chemscore.Metal>
0.0000

> <Gold.Chemscore.Lipo>
126.8072

> <Gold.Chemscore.Internal_Hbond>
0.0000

> <Gold.Chemscore.DEClash>
0.0712

> <Gold.Chemscore.DEInternal>
4.7332

> <Gold.Chemscore.Rot>
2.6944

> <Gold.Chemscore.Internal.Correction>
   9.000000E+99

> <Gold.Chemscore.Hbonds>
donor molecule, donor type, donor heavy atom, donor atom, acceptor molecule, acceptor atom, score
      L1  H    29    49       P1  7948  0.49
      P1  H  6896  6909       L1    14  0.38
      P1  H  7997  8008       L1     5  0.12
      P1  H 10752 10765       L1     7  0.54

> <Gold.Chemscore.Hbond.Weighted>
-7.1961

> <Gold.Chemscore.Metal.Weighted>
-0.0000

> <Gold.Chemscore.Lipo.Weighted>
-14.8364

> <Gold.Chemscore.Internal_Hbond.Weighted>
0.0000

> <Gold.Chemscore.DEClash.Weighted>
0.0712

> <Gold.Chemscore.DEInternal.Weighted>
4.7332

> <Gold.Chemscore.Rot.Weighted>
6.8975

> <Gold.Chemscore.Internal.Correction.Weighted>
   9.000000E+99

> <Gold.Protein.RotatedTorsions>
[ 6907 6896 6895 6894 ] final   -3.46 input  -60.11 | X-H torsion
[ 7974 7965 7964 7962 ] final  -62.77 input  175.53 | X-H torsion
[ 8008 7997 7996 7995 ] final  -46.63 input   59.86 | X-H torsion
[ 10167 10162 10161 10158 ] final  168.57 input  -65.29 | X-H torsion
[ 10718 10713 10712 10709 ] final  -68.97 input   66.30 | X-H torsion
[ 10763 10752 10751 10750 ] final -178.34 input  -60.55 | X-H torsion
[ 11005 11000 10999 10996 ] final    7.07 input  -57.11 | X-H torsion

> <Gold.Protein.ActiveResidues>
 VAL166  LYS551  ARG553  GLY616  TRP617  ASP618  TYR619  PRO620  LYS621  CYS622 
 ASP623  PHE694  ASN695  SER759  ASP760  ASP761  ALA762  ILE779  LEU786  VAL792 
 PHE793  MET794  SER795  GLU796  ALA797  LYS798  CYS799  TRP800  GLU811  SER814 

> <Gold.Protein.RotatedAtoms>
  151.5134  135.1065  159.9859 H   0  0  0  0  0  0  0  0  0  0  0  0  # atno 6907 bound_to 6896
  152.4652  133.7902  159.6908 H   0  0  0  0  0  0  0  0  0  0  0  0  # atno 6908 bound_to 6896
  150.8632  133.7549  159.3011 H   0  0  0  0  0  0  0  0  0  0  0  0  # atno 6909 bound_to 6896
  145.7872  140.8729  143.0299 H   0  0  0  0  0  0  0  0  0  0  0  0  # atno 7974 bound_to 7965
  154.4009  140.1366  156.4043 H   0  0  0  0  0  0  0  0  0  0  0  0  # atno 8008 bound_to 7997
  155.7794  140.3482  155.5269 H   0  0  0  0  0  0  0  0  0  0  0  0  # atno 8009 bound_to 7997
  155.8689  140.0968  157.1554 H   0  0  0  0  0  0  0  0  0  0  0  0  # atno 8010 bound_to 7997
  139.4971  144.3800  151.9632 H   0  0  0  0  0  0  0  0  0  0  0  0  # atno 10167 bound_to 10162
  156.0479  130.4304  150.2078 H   0  0  0  0  0  0  0  0  0  0  0  0  # atno 10718 bound_to 10713
  154.5489  135.2811  155.1027 H   0  0  0  0  0  0  0  0  0  0  0  0  # atno 10763 bound_to 10752
  154.2480  135.6344  153.5234 H   0  0  0  0  0  0  0  0  0  0  0  0  # atno 10764 bound_to 10752
  152.9998  135.5576  154.6049 H   0  0  0  0  0  0  0  0  0  0  0  0  # atno 10765 bound_to 10752
  140.5524  134.0271  155.7941 H   0  0  0  0  0  0  0  0  0  0  0  0  # atno 11005 bound_to 11000
  144.6787  140.0072  143.7484 LP  0  0  0  0  0  0  0  0  0  0  0  0  # atno 17320 bound_to 7965
  146.0014  139.3094  143.0925 LP  0  0  0  0  0  0  0  0  0  0  0  0  # atno 17321 bound_to 7965
  140.3236  144.3399  150.6003 LP  0  0  0  0  0  0  0  0  0  0  0  0  # atno 17342 bound_to 10162
  140.5702  143.2181  151.7612 LP  0  0  0  0  0  0  0  0  0  0  0  0  # atno 17343 bound_to 10162
  157.0166  130.9967  151.3351 LP  0  0  0  0  0  0  0  0  0  0  0  0  # atno 17370 bound_to 10713
  157.5373  130.8097  149.7987 LP  0  0  0  0  0  0  0  0  0  0  0  0  # atno 17371 bound_to 10713
  141.1164  133.9533  157.2814 LP  0  0  0  0  0  0  0  0  0  0  0  0  # atno 17394 bound_to 11000
  139.9449  135.0185  156.8820 LP  0  0  0  0  0  0  0  0  0  0  0  0  # atno 17395 bound_to 11000

$$$$
