AV-unprocessed.smi:573|AV-procd|sdf|2968|dock1
  -GOLD-   2262023473D 1   1.00000     0.00000
 Structure written by MMmdl.
 45 47  0  0  0  0  0  0  0  0  2 V2000
  146.6778  142.3816  153.8525 C   0  0  0  0  0  0  0  0  0  0  0  0
  147.6290  141.2081  154.1198 C   0  0  1  0  0  0  0  0  0  0  0  0
  147.6073  140.3833  152.9726 O   0  0  0  0  0  0  0  0  0  0  0  0
  149.0679  141.6924  154.3812 C   0  0  0  0  0  0  0  0  0  0  0  0
  149.7685  140.8618  155.3510 N   0  0  0  0  0  0  0  0  0  0  0  0
  150.4502  141.4749  156.4090 C   0  0  0  0  0  0  0  0  0  0  0  0
  150.2524  142.7407  156.8647 N   0  3  0  0  0  0  0  0  0  0  0  0
  151.1437  142.9748  157.9149 C   0  0  0  0  0  0  0  0  0  0  0  0
  151.3412  144.1060  158.7006 C   0  0  0  0  0  0  0  0  0  0  0  0
  152.3430  144.0234  159.6897 C   0  0  0  0  0  0  0  0  0  0  0  0
  153.1057  142.8510  159.8673 C   0  0  0  0  0  0  0  0  0  0  0  0
  152.8988  141.7086  159.0664 C   0  0  0  0  0  0  0  0  0  0  0  0
  151.9031  141.7930  158.0932 C   0  0  0  0  0  0  0  0  0  0  0  0
  151.4288  140.8820  157.1392 N   0  0  0  0  0  0  0  0  0  0  0  0
  152.0140  139.5372  157.0431 C   0  0  0  0  0  0  0  0  0  0  0  0
  150.9360  138.4451  156.9510 C   0  0  2  0  0  0  0  0  0  0  0  0
  150.4193  138.0250  158.3400 C   0  0  0  0  0  0  0  0  0  0  0  0
  149.3882  136.8983  158.2108 C   0  0  0  0  0  0  0  0  0  0  0  0
  149.9772  135.7505  157.3834 C   0  0  0  0  0  0  0  0  0  0  0  0
  150.5239  136.2789  156.0474 C   0  0  0  0  0  0  0  0  0  0  0  0
  151.4809  137.3064  156.2862 O   0  0  0  0  0  0  0  0  0  0  0  0
  146.6275  143.0478  154.7140 H   0  0  0  0  0  0  0  0  0  0  0  0
  145.6653  142.0302  153.6504 H   0  0  0  0  0  0  0  0  0  0  0  0
  147.0040  142.9716  152.9950 H   0  0  0  0  0  0  0  0  0  0  0  0
  147.2569  140.6407  154.9741 H   0  0  0  0  0  0  0  0  0  0  0  0
  148.4718  140.3784  152.5910 H   0  0  0  0  0  0  0  0  0  0  0  0
  149.6311  141.7863  153.4518 H   0  0  0  0  0  0  0  0  0  0  0  0
  149.0314  142.6938  154.8108 H   0  0  0  0  0  0  0  0  0  0  0  0
  150.0431  139.9309  155.0710 H   0  0  0  0  0  0  0  0  0  0  0  0
  150.7613  145.0073  158.5643 H   0  0  0  0  0  0  0  0  0  0  0  0
  152.5323  144.8781  160.3229 H   0  0  0  0  0  0  0  0  0  0  0  0
  153.8670  142.8271  160.6336 H   0  0  0  0  0  0  0  0  0  0  0  0
  153.4952  140.8196  159.2085 H   0  0  0  0  0  0  0  0  0  0  0  0
  152.6902  139.4986  156.1892 H   0  0  0  0  0  0  0  0  0  0  0  0
  152.6308  139.3832  157.9291 H   0  0  0  0  0  0  0  0  0  0  0  0
  150.1045  138.8317  156.3585 H   0  0  0  0  0  0  0  0  0  0  0  0
  151.2537  137.6864  158.9558 H   0  0  0  0  0  0  0  0  0  0  0  0
  149.9763  138.8782  158.8545 H   0  0  0  0  0  0  0  0  0  0  0  0
  149.0876  136.5421  159.1965 H   0  0  0  0  0  0  0  0  0  0  0  0
  148.4881  137.2775  157.7253 H   0  0  0  0  0  0  0  0  0  0  0  0
  150.7823  135.2715  157.9421 H   0  0  0  0  0  0  0  0  0  0  0  0
  149.2202  134.9859  157.2066 H   0  0  0  0  0  0  0  0  0  0  0  0
  151.0049  135.4723  155.4940 H   0  0  0  0  0  0  0  0  0  0  0  0
  149.7170  136.6583  155.4181 H   0  0  0  0  0  0  0  0  0  0  0  0
  149.5733  143.3879  156.4855 H   0  0  0  0  0  0  0  0  0  0  0  0
  1  2  1  0  0  0  0
  1 22  1  0  0  0  0
  1 23  1  0  0  0  0
  1 24  1  0  0  0  0
  2  3  1  0  0  0  0
  2  4  1  0  0  0  0
  2 25  1  0  0  0  0
  3 26  1  0  0  0  0
  4  5  1  0  0  0  0
  4 27  1  0  0  0  0
  4 28  1  0  0  0  0
  5  6  1  0  0  0  0
  5 29  1  0  0  0  0
  6 14  1  0  0  0  0
  6  7  2  0  0  0  0
  7  8  1  0  0  0  0
  7 45  1  0  0  0  0
  8 13  2  0  0  0  0
  8  9  1  0  0  0  0
  9 10  2  0  0  0  0
  9 30  1  0  0  0  0
 10 11  1  0  0  0  0
 10 31  1  0  0  0  0
 11 12  2  0  0  0  0
 11 32  1  0  0  0  0
 12 13  1  0  0  0  0
 12 33  1  0  0  0  0
 13 14  1  0  0  0  0
 14 15  1  0  0  0  0
 15 16  1  0  0  0  0
 15 34  1  0  0  0  0
 15 35  1  0  0  0  0
 16 21  1  0  0  0  0
 16 17  1  0  0  0  0
 16 36  1  0  0  0  0
 17 18  1  0  0  0  0
 17 37  1  0  0  0  0
 17 38  1  0  0  0  0
 18 19  1  0  0  0  0
 18 39  1  0  0  0  0
 18 40  1  0  0  0  0
 19 20  1  0  0  0  0
 19 41  1  0  0  0  0
 19 42  1  0  0  0  0
 20 21  1  0  0  0  0
 20 43  1  0  0  0  0
 20 44  1  0  0  0  0
M  CHG  1   7   1
M  END
> <s_m_source_file>
AV-unprocessed.smi

> <i_m_source_file_index>
573

> <i_lp_mmshare_version>
43012

> <i_f3d_flags>
0

> <s_epik_input>
W0NIM11bQ0BIXShbT0hdKVtDSDJdW05IXWMobjEpbihjKGMxMilbY0hdW2NIXVtjSF1bY0hdMilbQ0gyXVtDQEBIXTNbQ0gyXVtDSDJdW0NIMl1bQ0gyXU8z

> <s_epik_cmdline>
J2VwaWtfcHl0aG9uJywgJy1waCcsICc3LjAnLCAnLXRuJywgJzgnLCAnLW1hJywgJzIwMCcsICctbWV0YWxfYmluZGluZycsICctaW1hZScsICc8aW5maWxlLm1hZT4nLCAnLW9tYWUnLCAnPG91dGZpbGUubWFlPic=

> <r_epik_Ionization_Penalty>
0.0692245

> <r_epik_Ionization_Penalty_Charging>
0.0692223

> <r_epik_Ionization_Penalty_Neutral>
2.1869e-06

> <r_epik_State_Penalty>
0.0606215

> <r_epik_Charging_Adjusted_Penalty>
0.129844

> <i_epik_Tot_Q>
1

> <i_epik_Tot_abs_Q>
1

> <r_epik_Metal_State_Penalty>
2.77811

> <b_epik_Metal_Only>
0

> <s_lp_Force_Field>
OPLS_2005

> <r_lp_Energy>
22.2685

> <b_lp_Chiralities_Consistent>
1

> <s_lp_Variant>
AV-unprocessed.smi:573-2

> <Gold.Version>
5.8.1

> <Gold.Id.Protein>
6NUR|6NUR_protein|mol2

> <Gold.PLP.Fitness>
47.3325

> <Gold.PLP.PLP>
-40.1970

> <Gold.PLP.part.hbond>
-2.0000

> <Gold.PLP.part.metal>
0.0000

> <Gold.PLP.part.buried>
-5.2638

> <Gold.PLP.part.nonpolar>
-33.2382

> <Gold.PLP.part.repulsive>
0.1555

> <Gold.PLP.ligand.clash>
0.0000

> <Gold.PLP.ligand.torsion>
0.9530

> <Gold.PLP.Chemscore.Hbond>
3.0000

> <Gold.PLP.Chemscore.CHOScore>
0.0000

> <Gold.PLP.Chemscore.Metal>
0.0000

> <Gold.Chemscore.Hbonds>
donor molecule, donor type, donor heavy atom, donor atom, acceptor molecule, acceptor atom, score
      L1  H     3    26       P1  7957  0.99
      L1  H     7    45       P1  8028  2.00

> <Gold.PLP.Chemscore.Internal.Correction>
0.0414

> <Gold.Rescore>
     Score         DG    S(hbond)    S(metal)    S(lipo)     H(rot)  DE(clash)    DE(int)     intcor
     18.53     -19.60       1.99        0.00     109.33       2.07       0.02       1.06       ----

> <Gold.Chemscore.Fitness>
18.5254

> <Gold.Chemscore.DG>
-19.6034

> <Gold.Chemscore.ZeroCoef>
-5.4800

> <Gold.Chemscore.Hbond>
1.9851

> <Gold.Chemscore.Metal>
0.0000

> <Gold.Chemscore.Lipo>
109.3347

> <Gold.Chemscore.Internal_Hbond>
0.0000

> <Gold.Chemscore.DEClash>
0.0172

> <Gold.Chemscore.DEInternal>
1.0608

> <Gold.Chemscore.Rot>
2.0699

> <Gold.Chemscore.Internal.Correction>
   9.000000E+99

> <Gold.Chemscore.Hbonds>
donor molecule, donor type, donor heavy atom, donor atom, acceptor molecule, acceptor atom, score
      L1  H     3    26       P1  7957  0.94
      L1  H     7    45       P1  8028  1.00

> <Gold.Chemscore.Hbond.Weighted>
-6.6303

> <Gold.Chemscore.Metal.Weighted>
-0.0000

> <Gold.Chemscore.Lipo.Weighted>
-12.7922

> <Gold.Chemscore.Internal_Hbond.Weighted>
0.0000

> <Gold.Chemscore.DEClash.Weighted>
0.0172

> <Gold.Chemscore.DEInternal.Weighted>
1.0608

> <Gold.Chemscore.Rot.Weighted>
5.2991

> <Gold.Chemscore.Internal.Correction.Weighted>
   9.000000E+99

> <Gold.Protein.RotatedTorsions>
[ 6907 6896 6895 6894 ] final  -53.38 input  -60.11 | X-H torsion
[ 7974 7965 7964 7962 ] final -147.17 input  175.53 | X-H torsion
[ 8008 7997 7996 7995 ] final -112.80 input   59.86 | X-H torsion
[ 10167 10162 10161 10158 ] final    9.54 input  -65.29 | X-H torsion
[ 10718 10713 10712 10709 ] final  -28.07 input   66.30 | X-H torsion
[ 10763 10752 10751 10750 ] final  152.85 input  -60.55 | X-H torsion
[ 11005 11000 10999 10996 ] final   73.01 input  -57.11 | X-H torsion

> <Gold.Protein.ActiveResidues>
 VAL166  LYS551  ARG553  GLY616  TRP617  ASP618  TYR619  PRO620  LYS621  CYS622 
 ASP623  PHE694  ASN695  SER759  ASP760  ASP761  ALA762  ILE779  LEU786  VAL792 
 PHE793  MET794  SER795  GLU796  ALA797  LYS798  CYS799  TRP800  GLU811  SER814 

> <Gold.Protein.RotatedAtoms>
  150.8432  134.7732  159.6949 H   0  0  0  0  0  0  0  0  0  0  0  0  # atno 6907 bound_to 6896
  152.4515  134.5380  159.9840 H   0  0  0  0  0  0  0  0  0  0  0  0  # atno 6908 bound_to 6896
  151.5516  133.3379  159.2990 H   0  0  0  0  0  0  0  0  0  0  0  0  # atno 6909 bound_to 6896
  144.8111  140.5361  143.5642 H   0  0  0  0  0  0  0  0  0  0  0  0  # atno 7974 bound_to 7965
  155.0108  140.0393  157.2398 H   0  0  0  0  0  0  0  0  0  0  0  0  # atno 8008 bound_to 7997
  154.7462  140.2758  155.6308 H   0  0  0  0  0  0  0  0  0  0  0  0  # atno 8009 bound_to 7997
  156.2875  140.2656  156.2203 H   0  0  0  0  0  0  0  0  0  0  0  0  # atno 8010 bound_to 7997
  140.6249  143.8124  150.7220 H   0  0  0  0  0  0  0  0  0  0  0  0  # atno 10167 bound_to 10162
  156.4300  130.4443  149.7124 H   0  0  0  0  0  0  0  0  0  0  0  0  # atno 10718 bound_to 10713
  154.1267  135.2829  155.3195 H   0  0  0  0  0  0  0  0  0  0  0  0  # atno 10763 bound_to 10752
  154.6384  135.5411  153.7764 H   0  0  0  0  0  0  0  0  0  0  0  0  # atno 10764 bound_to 10752
  153.0294  135.6480  154.1419 H   0  0  0  0  0  0  0  0  0  0  0  0  # atno 10765 bound_to 10752
  139.9461  134.7310  156.0975 H   0  0  0  0  0  0  0  0  0  0  0  0  # atno 11005 bound_to 11000
  145.5323  139.1475  143.3493 LP  0  0  0  0  0  0  0  0  0  0  0  0  # atno 17320 bound_to 7965
  146.2409  140.5463  142.8934 LP  0  0  0  0  0  0  0  0  0  0  0  0  # atno 17321 bound_to 7965
  140.1722  143.4185  152.1992 LP  0  0  0  0  0  0  0  0  0  0  0  0  # atno 17342 bound_to 10162
  139.5471  144.7307  151.4550 LP  0  0  0  0  0  0  0  0  0  0  0  0  # atno 17343 bound_to 10162
  156.4031  130.7684  151.2693 LP  0  0  0  0  0  0  0  0  0  0  0  0  # atno 17370 bound_to 10713
  157.7508  131.0234  150.3832 LP  0  0  0  0  0  0  0  0  0  0  0  0  # atno 17371 bound_to 10713
  141.1112  133.6642  156.2984 LP  0  0  0  0  0  0  0  0  0  0  0  0  # atno 17394 bound_to 11000
  140.5830  134.5726  157.5483 LP  0  0  0  0  0  0  0  0  0  0  0  0  # atno 17395 bound_to 11000

$$$$
