AV-unprocessed.smi:2007|AV-procd|sdf|8138|dock2
  -GOLD-   2272010373D 1   1.00000     0.00000
 Structure written by MMmdl.
 35 36  0  0  0  0  0  0  0  0  2 V2000
  151.2505  139.0014  156.5664 C   0  0  0  0  0  0  0  0  0  0  0  0
  151.5580  139.0133  158.0698 C   0  0  1  0  0  0  0  0  0  0  0  0
  150.9678  140.2669  158.7503 C   0  0  0  0  0  0  0  0  0  0  0  0
  151.7046  141.5140  158.5380 N   0  0  0  0  0  0  0  0  0  0  0  0
  150.8290  142.6517  158.2665 C   0  0  0  0  0  0  0  0  0  0  0  0
  151.6277  143.9503  158.0598 C   0  0  0  0  0  0  0  0  0  0  0  0
  152.4428  144.1980  159.2010 O   0  0  0  0  0  0  0  0  0  0  0  0
  153.3431  143.1287  159.4726 C   0  0  0  0  0  0  0  0  0  0  0  0
  152.5498  141.8278  159.6842 C   0  0  0  0  0  0  0  0  0  0  0  0
  151.0072  137.8018  158.6778 N   0  0  0  0  0  0  0  0  0  0  0  0
  149.7123  137.5302  158.8993 C   0  0  0  0  0  0  0  0  0  0  0  0
  148.8446  138.3528  158.5974 O   0  0  0  0  0  0  0  0  0  0  0  0
  149.5018  136.3153  159.4559 N   0  5  0  0  0  0  0  0  0  0  0  0
  148.5853  136.1709  160.4266 C   0  0  0  0  0  0  0  0  0  0  0  0
  148.0559  137.2060  161.0887 N   0  0  0  0  0  0  0  0  0  0  0  0
  147.1277  136.8275  162.0604 C   0  0  0  0  0  0  0  0  0  0  0  0
  146.9522  135.4718  162.1459 C   0  0  0  0  0  0  0  0  0  0  0  0
  147.9550  134.6248  161.0028 S   0  0  0  0  0  0  0  0  0  0  0  0
  151.6616  139.8838  156.0755 H   0  0  0  0  0  0  0  0  0  0  0  0
  150.1761  138.9860  156.3798 H   0  0  0  0  0  0  0  0  0  0  0  0
  151.6848  138.1245  156.0848 H   0  0  0  0  0  0  0  0  0  0  0  0
  152.6440  139.0313  158.1636 H   0  0  0  0  0  0  0  0  0  0  0  0
  149.9344  140.3989  158.4265 H   0  0  0  0  0  0  0  0  0  0  0  0
  150.9184  140.0680  159.8219 H   0  0  0  0  0  0  0  0  0  0  0  0
  150.2319  142.4679  157.3746 H   0  0  0  0  0  0  0  0  0  0  0  0
  150.1275  142.7846  159.0912 H   0  0  0  0  0  0  0  0  0  0  0  0
  152.2507  143.8806  157.1666 H   0  0  0  0  0  0  0  0  0  0  0  0
  150.9517  144.7927  157.9139 H   0  0  0  0  0  0  0  0  0  0  0  0
  154.0498  143.0202  158.6483 H   0  0  0  0  0  0  0  0  0  0  0  0
  153.9232  143.3682  160.3639 H   0  0  0  0  0  0  0  0  0  0  0  0
  151.9368  141.9211  160.5819 H   0  0  0  0  0  0  0  0  0  0  0  0
  153.2464  141.0083  159.8653 H   0  0  0  0  0  0  0  0  0  0  0  0
  151.6717  137.0897  158.9417 H   0  0  0  0  0  0  0  0  0  0  0  0
  146.6392  137.5915  162.6469 H   0  0  0  0  0  0  0  0  0  0  0  0
  146.3003  134.9222  162.8077 H   0  0  0  0  0  0  0  0  0  0  0  0
  1  2  1  0  0  0  0
  1 19  1  0  0  0  0
  1 20  1  0  0  0  0
  1 21  1  0  0  0  0
  2  3  1  0  0  0  0
  2 10  1  0  0  0  0
  2 22  1  0  0  0  0
  3  4  1  0  0  0  0
  3 23  1  0  0  0  0
  3 24  1  0  0  0  0
  4  9  1  0  0  0  0
  4  5  1  0  0  0  0
  5  6  1  0  0  0  0
  5 25  1  0  0  0  0
  5 26  1  0  0  0  0
  6  7  1  0  0  0  0
  6 27  1  0  0  0  0
  6 28  1  0  0  0  0
  7  8  1  0  0  0  0
  8  9  1  0  0  0  0
  8 29  1  0  0  0  0
  8 30  1  0  0  0  0
  9 31  1  0  0  0  0
  9 32  1  0  0  0  0
 10 11  1  0  0  0  0
 10 33  1  0  0  0  0
 11 12  2  0  0  0  0
 11 13  1  0  0  0  0
 13 14  1  0  0  0  0
 14 18  1  0  0  0  0
 14 15  2  0  0  0  0
 15 16  1  0  0  0  0
 16 17  2  0  0  0  0
 16 34  1  0  0  0  0
 17 18  1  0  0  0  0
 17 35  1  0  0  0  0
M  CHG  1  13  -1
M  END
> <s_m_source_file>
AV-unprocessed.smi

> <i_m_source_file_index>
2007

> <i_lp_mmshare_version>
43012

> <i_f3d_flags>
0

> <s_epik_input>
W0NIMl0xW0NIMl1PW0NIMl1bQ0gyXU4xW0NIMl1bQ0BASF0oW0NIM10pW05IXUMoPU8pW05IXWMybltjSF1bY0hdczI=

> <s_epik_cmdline>
J2VwaWtfcHl0aG9uJywgJy1waCcsICc3LjAnLCAnLXRuJywgJzgnLCAnLW1hJywgJzIwMCcsICctbWV0YWxfYmluZGluZycsICctaW1hZScsICc8aW5maWxlLm1hZT4nLCAnLW9tYWUnLCAnPG91dGZpbGUubWFlPic=

> <r_lp_tautomer_probability>
0.999

> <r_epik_Ionization_Penalty>
7.09127

> <r_epik_Ionization_Penalty_Charging>
5.74083

> <r_epik_Ionization_Penalty_Neutral>
1.35044

> <r_epik_State_Penalty>
5.95014

> <r_epik_Charging_Adjusted_Penalty>
11.691

> <i_epik_Tot_Q>
-1

> <i_epik_Tot_abs_Q>
1

> <r_epik_Metal_State_Penalty>
1.93831

> <b_epik_Metal_Only>
1

> <s_lp_Force_Field>
OPLS_2005

> <r_lp_Energy>
21.094

> <b_lp_Chiralities_Consistent>
1

> <s_lp_Variant>
AV-unprocessed.smi:2007-6

> <Gold.Version>
5.8.1

> <Gold.Id.Protein>
6NUR|6NUR_protein|mol2

> <Gold.PLP.Fitness>
41.0944

> <Gold.PLP.PLP>
-33.1040

> <Gold.PLP.part.hbond>
-3.4414

> <Gold.PLP.part.metal>
0.0000

> <Gold.PLP.part.buried>
-5.1104

> <Gold.PLP.part.nonpolar>
-24.9135

> <Gold.PLP.part.repulsive>
0.1281

> <Gold.PLP.ligand.clash>
0.0000

> <Gold.PLP.ligand.torsion>
1.2146

> <Gold.PLP.Chemscore.Hbond>
3.4144

> <Gold.PLP.Chemscore.CHOScore>
0.0000

> <Gold.PLP.Chemscore.Metal>
0.0000

> <Gold.Chemscore.Hbonds>
donor molecule, donor type, donor heavy atom, donor atom, acceptor molecule, acceptor atom, score
      P1  H  6896  6907       L1    13  1.98
      P1  H  6931  6943       L1    15  0.98
      P1  H  6934  6947       L1    15  0.38

> <Gold.PLP.Chemscore.Internal.Correction>
0.1763

> <Gold.Rescore>
     Score         DG    S(hbond)    S(metal)    S(lipo)     H(rot)  DE(clash)    DE(int)     intcor
     13.15     -16.74       1.81        0.00      78.64       1.55       0.00       3.59       ----

> <Gold.Chemscore.Fitness>
13.1548

> <Gold.Chemscore.DG>
-16.7443

> <Gold.Chemscore.ZeroCoef>
-5.4800

> <Gold.Chemscore.Hbond>
1.8067

> <Gold.Chemscore.Metal>
0.0000

> <Gold.Chemscore.Lipo>
78.6374

> <Gold.Chemscore.Internal_Hbond>
0.0000

> <Gold.Chemscore.DEClash>
0.0000

> <Gold.Chemscore.DEInternal>
3.5895

> <Gold.Chemscore.Rot>
1.5510

> <Gold.Chemscore.Internal.Correction>
   9.000000E+99

> <Gold.Chemscore.Hbonds>
donor molecule, donor type, donor heavy atom, donor atom, acceptor molecule, acceptor atom, score
      P1  H  6896  6907       L1    13  0.46
      P1  H  6931  6943       L1    15  0.36
      P1  H  6934  6947       L1    15  0.02

> <Gold.Chemscore.Hbond.Weighted>
-6.0343

> <Gold.Chemscore.Metal.Weighted>
-0.0000

> <Gold.Chemscore.Lipo.Weighted>
-9.2006

> <Gold.Chemscore.Internal_Hbond.Weighted>
0.0000

> <Gold.Chemscore.DEClash.Weighted>
0.0000

> <Gold.Chemscore.DEInternal.Weighted>
3.5895

> <Gold.Chemscore.Rot.Weighted>
3.9706

> <Gold.Chemscore.Internal.Correction.Weighted>
   9.000000E+99

> <Gold.Protein.RotatedTorsions>
[ 6907 6896 6895 6894 ] final  -63.36 input  -60.11 | X-H torsion
[ 7974 7965 7964 7962 ] final   79.18 input  175.53 | X-H torsion
[ 8008 7997 7996 7995 ] final  139.53 input   59.86 | X-H torsion
[ 10167 10162 10161 10158 ] final   -9.54 input  -65.29 | X-H torsion
[ 10718 10713 10712 10709 ] final   72.69 input   66.30 | X-H torsion
[ 10763 10752 10751 10750 ] final -158.82 input  -60.55 | X-H torsion
[ 11005 11000 10999 10996 ] final   84.98 input  -57.11 | X-H torsion

> <Gold.Protein.ActiveResidues>
 VAL166  LYS551  ARG553  GLY616  TRP617  ASP618  TYR619  PRO620  LYS621  CYS622 
 ASP623  PHE694  ASN695  SER759  ASP760  ASP761  ALA762  ILE779  LEU786  VAL792 
 PHE793  MET794  SER795  GLU796  ALA797  LYS798  CYS799  TRP800  GLU811  SER814 

> <Gold.Protein.RotatedAtoms>
  150.7654  134.6445  159.6254 H   0  0  0  0  0  0  0  0  0  0  0  0  # atno 6907 bound_to 6896
  152.3683  134.6769  160.0193 H   0  0  0  0  0  0  0  0  0  0  0  0  # atno 6908 bound_to 6896
  151.7137  133.3276  159.3333 H   0  0  0  0  0  0  0  0  0  0  0  0  # atno 6909 bound_to 6896
  145.6675  139.2488  143.1887 H   0  0  0  0  0  0  0  0  0  0  0  0  # atno 7974 bound_to 7965
  156.2989  140.2365  156.4252 H   0  0  0  0  0  0  0  0  0  0  0  0  # atno 8008 bound_to 7997
  154.8319  140.0432  157.1503 H   0  0  0  0  0  0  0  0  0  0  0  0  # atno 8009 bound_to 7997
  154.9198  140.3002  155.5226 H   0  0  0  0  0  0  0  0  0  0  0  0  # atno 8010 bound_to 7997
  140.7090  143.5846  150.8956 H   0  0  0  0  0  0  0  0  0  0  0  0  # atno 10167 bound_to 10162
  157.6513  130.9591  150.0964 H   0  0  0  0  0  0  0  0  0  0  0  0  # atno 10718 bound_to 10713
  154.7526  135.3096  154.8530 H   0  0  0  0  0  0  0  0  0  0  0  0  # atno 10763 bound_to 10752
  153.9313  135.6785  153.4749 H   0  0  0  0  0  0  0  0  0  0  0  0  # atno 10764 bound_to 10752
  153.1122  135.4861  154.8983 H   0  0  0  0  0  0  0  0  0  0  0  0  # atno 10765 bound_to 10752
  139.8984  134.8254  156.2519 H   0  0  0  0  0  0  0  0  0  0  0  0  # atno 11005 bound_to 11000
  146.1073  140.7471  142.9520 LP  0  0  0  0  0  0  0  0  0  0  0  0  # atno 17320 bound_to 7965
  144.7068  140.3883  143.7112 LP  0  0  0  0  0  0  0  0  0  0  0  0  # atno 17321 bound_to 7965
  139.9572  143.6204  152.3012 LP  0  0  0  0  0  0  0  0  0  0  0  0  # atno 17342 bound_to 10162
  139.6744  144.7659  151.1723 LP  0  0  0  0  0  0  0  0  0  0  0  0  # atno 17343 bound_to 10162
  156.1898  130.3654  149.8924 LP  0  0  0  0  0  0  0  0  0  0  0  0  # atno 17370 bound_to 10713
  156.6855  130.8875  151.3581 LP  0  0  0  0  0  0  0  0  0  0  0  0  # atno 17371 bound_to 10713
  141.0218  133.7037  156.1281 LP  0  0  0  0  0  0  0  0  0  0  0  0  # atno 17394 bound_to 11000
  140.7222  134.4345  157.5574 LP  0  0  0  0  0  0  0  0  0  0  0  0  # atno 17395 bound_to 11000

$$$$
