AV-unprocessed.smi:3204|AV-procd|sdf|12251|dock2
  -GOLD-   2272018 83D 1   1.00000     0.00000
 Structure written by MMmdl.
 30 31  0  0  0  0  0  0  0  0  1 V2000
  153.2614  142.5861  159.4910 C   0  0  0  0  0  0  0  0  0  0  0  0
  152.6100  141.2025  159.3845 C   0  0  0  0  0  0  0  0  0  0  0  0
  152.1255  140.8991  157.9786 C   0  0  0  0  0  0  0  0  0  0  0  0
  152.6315  139.7935  157.3873 N   0  0  0  0  0  0  0  0  0  0  0  0
  152.2099  139.5272  156.1487 C   0  0  0  0  0  0  0  0  0  0  0  0
  151.3395  140.2416  155.4306 N   0  0  0  0  0  0  0  0  0  0  0  0
  150.8265  141.3547  156.0071 C   0  0  0  0  0  0  0  0  0  0  0  0
  149.9103  142.1432  155.2966 N   0  0  0  0  0  0  0  0  0  0  0  0
  149.0545  141.5729  154.2601 C   0  0  1  0  0  0  0  0  0  0  0  0
  148.6433  140.1316  154.5295 C   0  0  0  0  0  0  0  0  0  0  0  0
  147.5769  139.9299  153.6130 O   0  0  0  0  0  0  0  0  0  0  0  0
  146.8512  141.1485  153.4500 C   0  0  0  0  0  0  0  0  0  0  0  0
  147.7018  142.2568  154.0879 C   0  0  1  0  0  0  0  0  0  0  0  0
  147.1234  142.6230  155.3288 O   0  0  0  0  0  0  0  0  0  0  0  0
  151.2007  141.7342  157.3141 C   0  0  0  0  0  0  0  0  0  0  0  0
  150.6972  142.8481  157.9000 F   0  0  0  0  0  0  0  0  0  0  0  0
  153.6000  142.7780  160.5092 H   0  0  0  0  0  0  0  0  0  0  0  0
  152.5573  143.3733  159.2198 H   0  0  0  0  0  0  0  0  0  0  0  0
  154.1263  142.6670  158.8320 H   0  0  0  0  0  0  0  0  0  0  0  0
  153.3232  140.4347  159.6871 H   0  0  0  0  0  0  0  0  0  0  0  0
  151.7750  141.1335  160.0825 H   0  0  0  0  0  0  0  0  0  0  0  0
  152.6149  138.6439  155.6781 H   0  0  0  0  0  0  0  0  0  0  0  0
  149.8728  143.1379  155.4665 H   0  0  0  0  0  0  0  0  0  0  0  0
  149.5869  141.5936  153.3079 H   0  0  0  0  0  0  0  0  0  0  0  0
  149.4541  139.4213  154.3659 H   0  0  0  0  0  0  0  0  0  0  0  0
  148.2727  140.0061  155.5483 H   0  0  0  0  0  0  0  0  0  0  0  0
  146.7169  141.3276  152.3829 H   0  0  0  0  0  0  0  0  0  0  0  0
  145.8594  141.0688  153.8975 H   0  0  0  0  0  0  0  0  0  0  0  0
  147.7646  143.1409  153.4529 H   0  0  0  0  0  0  0  0  0  0  0  0
  147.6929  143.2495  155.7485 H   0  0  0  0  0  0  0  0  0  0  0  0
  1  2  1  0  0  0  0
  1 17  1  0  0  0  0
  1 18  1  0  0  0  0
  1 19  1  0  0  0  0
  2  3  1  0  0  0  0
  2 20  1  0  0  0  0
  2 21  1  0  0  0  0
  3 15  1  0  0  0  0
  3  4  2  0  0  0  0
  4  5  1  0  0  0  0
  5  6  2  0  0  0  0
  5 22  1  0  0  0  0
  6  7  1  0  0  0  0
  7  8  1  0  0  0  0
  7 15  2  0  0  0  0
  8  9  1  0  0  0  0
  8 23  1  0  0  0  0
  9 13  1  0  0  0  0
  9 10  1  0  0  0  0
  9 24  1  0  0  0  0
 10 11  1  0  0  0  0
 10 25  1  0  0  0  0
 10 26  1  0  0  0  0
 11 12  1  0  0  0  0
 12 13  1  0  0  0  0
 12 27  1  0  0  0  0
 12 28  1  0  0  0  0
 13 14  1  0  0  0  0
 13 29  1  0  0  0  0
 14 30  1  0  0  0  0
 15 16  1  0  0  0  0
M  END
> <s_m_source_file>
AV-unprocessed.smi

> <i_m_source_file_index>
3204

> <i_lp_mmshare_version>
43012

> <i_f3d_flags>
0

> <s_epik_input>
W0NIM11bQ0gyXWMxbltjSF1uYyhjMUYpW05IXVtDQEBIXTJbQ0gyXU9bQ0gyXVtDQEhdMltPSF0=

> <s_epik_cmdline>
J2VwaWtfcHl0aG9uJywgJy1waCcsICc3LjAnLCAnLXRuJywgJzgnLCAnLW1hJywgJzIwMCcsICctbWV0YWxfYmluZGluZycsICctaW1hZScsICc8aW5maWxlLm1hZT4nLCAnLW9tYWUnLCAnPG91dGZpbGUubWFlPic=

> <r_lp_tautomer_probability>
1

> <r_epik_Ionization_Penalty>
0.000484964

> <r_epik_Ionization_Penalty_Charging>
0

> <r_epik_Ionization_Penalty_Neutral>
0.000484964

> <r_epik_State_Penalty>
-0

> <r_epik_Charging_Adjusted_Penalty>
0

> <i_epik_Tot_Q>
0

> <i_epik_Tot_abs_Q>
0

> <r_epik_Metal_State_Penalty>
-0

> <b_epik_Metal_Only>
0

> <s_lp_Force_Field>
OPLS_2005

> <r_lp_Energy>
19.2614

> <b_lp_Chiralities_Consistent>
1

> <s_lp_Variant>
AV-unprocessed.smi:3204-2

> <Gold.Version>
5.8.1

> <Gold.Id.Protein>
6NUR|6NUR_protein|mol2

> <Gold.PLP.Fitness>
42.3392

> <Gold.PLP.PLP>
-32.1515

> <Gold.PLP.part.hbond>
-4.0000

> <Gold.PLP.part.metal>
0.0000

> <Gold.PLP.part.buried>
-0.5910

> <Gold.PLP.part.nonpolar>
-26.2122

> <Gold.PLP.part.repulsive>
0.4223

> <Gold.PLP.ligand.clash>
0.0000

> <Gold.PLP.ligand.torsion>
0.5336

> <Gold.PLP.Chemscore.Hbond>
3.7472

> <Gold.PLP.Chemscore.CHOScore>
0.0000

> <Gold.PLP.Chemscore.Metal>
0.0000

> <Gold.Chemscore.Hbonds>
donor molecule, donor type, donor heavy atom, donor atom, acceptor molecule, acceptor atom, score
      L1  H     8    23       P1  8028  1.00
      L1  H    14    30       P1  8028  0.95
      P1  H  7989  7998       L1     6  0.95
      P1  H  7997  8010       L1     4  0.75

> <Gold.PLP.Chemscore.Internal.Correction>
0.0133

> <Gold.Rescore>
     Score         DG    S(hbond)    S(metal)    S(lipo)     H(rot)  DE(clash)    DE(int)     intcor
     12.90     -14.93       2.04        0.00      62.56       1.83       0.29       1.74       ----

> <Gold.Chemscore.Fitness>
12.9048

> <Gold.Chemscore.DG>
-14.9322

> <Gold.Chemscore.ZeroCoef>
-5.4800

> <Gold.Chemscore.Hbond>
2.0439

> <Gold.Chemscore.Metal>
0.0000

> <Gold.Chemscore.Lipo>
62.5621

> <Gold.Chemscore.Internal_Hbond>
0.0000

> <Gold.Chemscore.DEClash>
0.2876

> <Gold.Chemscore.DEInternal>
1.7398

> <Gold.Chemscore.Rot>
1.8337

> <Gold.Chemscore.Internal.Correction>
   9.000000E+99

> <Gold.Chemscore.Hbonds>
donor molecule, donor type, donor heavy atom, donor atom, acceptor molecule, acceptor atom, score
      L1  H     8    23       P1  8028  0.95
      L1  H    14    30       P1  8028  0.20
      P1  H  7989  7998       L1     6  0.29
      P1  H  7997  8010       L1     4  0.07

> <Gold.Chemscore.Hbond.Weighted>
-6.8267

> <Gold.Chemscore.Metal.Weighted>
-0.0000

> <Gold.Chemscore.Lipo.Weighted>
-7.3198

> <Gold.Chemscore.Internal_Hbond.Weighted>
0.0000

> <Gold.Chemscore.DEClash.Weighted>
0.2876

> <Gold.Chemscore.DEInternal.Weighted>
1.7398

> <Gold.Chemscore.Rot.Weighted>
4.6942

> <Gold.Chemscore.Internal.Correction.Weighted>
   9.000000E+99

> <Gold.Protein.RotatedTorsions>
[ 6907 6896 6895 6894 ] final -120.29 input  -60.11 | X-H torsion
[ 7974 7965 7964 7962 ] final -112.93 input  175.53 | X-H torsion
[ 8008 7997 7996 7995 ] final   43.66 input   59.86 | X-H torsion
[ 10167 10162 10161 10158 ] final -143.89 input  -65.29 | X-H torsion
[ 10718 10713 10712 10709 ] final  -70.05 input   66.30 | X-H torsion
[ 10763 10752 10751 10750 ] final  164.30 input  -60.55 | X-H torsion
[ 11005 11000 10999 10996 ] final  158.39 input  -57.11 | X-H torsion

> <Gold.Protein.ActiveResidues>
 VAL166  LYS551  ARG553  GLY616  TRP617  ASP618  TYR619  PRO620  LYS621  CYS622 
 ASP623  PHE694  ASN695  SER759  ASP760  ASP761  ALA762  ILE779  LEU786  VAL792 
 PHE793  MET794  SER795  GLU796  ALA797  LYS798  CYS799  TRP800  GLU811  SER814 

> <Gold.Protein.RotatedAtoms>
  150.8380  133.7982  159.3071 H   0  0  0  0  0  0  0  0  0  0  0  0  # atno 6907 bound_to 6896
  151.5693  135.1061  160.0001 H   0  0  0  0  0  0  0  0  0  0  0  0  # atno 6908 bound_to 6896
  152.4449  133.7475  159.6731 H   0  0  0  0  0  0  0  0  0  0  0  0  # atno 6909 bound_to 6896
  145.1381  140.8762  143.3718 H   0  0  0  0  0  0  0  0  0  0  0  0  # atno 7974 bound_to 7965
  155.3064  140.3388  155.4245 H   0  0  0  0  0  0  0  0  0  0  0  0  # atno 8008 bound_to 7997
  156.1977  140.1721  156.8003 H   0  0  0  0  0  0  0  0  0  0  0  0  # atno 8009 bound_to 7997
  154.5519  140.0704  156.8665 H   0  0  0  0  0  0  0  0  0  0  0  0  # atno 8010 bound_to 7997
  139.7950  143.7912  152.2653 H   0  0  0  0  0  0  0  0  0  0  0  0  # atno 10167 bound_to 10162
  156.0426  130.4324  150.2238 H   0  0  0  0  0  0  0  0  0  0  0  0  # atno 10718 bound_to 10713
  154.3068  135.2758  155.2585 H   0  0  0  0  0  0  0  0  0  0  0  0  # atno 10763 bound_to 10752
  154.4997  135.5811  153.6525 H   0  0  0  0  0  0  0  0  0  0  0  0  # atno 10764 bound_to 10752
  152.9893  135.6155  154.3243 H   0  0  0  0  0  0  0  0  0  0  0  0  # atno 10765 bound_to 10752
  140.1861  134.8441  157.2859 H   0  0  0  0  0  0  0  0  0  0  0  0  # atno 11005 bound_to 11000
  145.0562  139.3141  143.5903 LP  0  0  0  0  0  0  0  0  0  0  0  0  # atno 17320 bound_to 7965
  146.3508  139.9988  142.8678 LP  0  0  0  0  0  0  0  0  0  0  0  0  # atno 17321 bound_to 7965
  139.8015  144.7372  150.9818 LP  0  0  0  0  0  0  0  0  0  0  0  0  # atno 17342 bound_to 10162
  140.7820  143.4340  151.0651 LP  0  0  0  0  0  0  0  0  0  0  0  0  # atno 17343 bound_to 10162
  157.0332  131.0013  151.3306 LP  0  0  0  0  0  0  0  0  0  0  0  0  # atno 17370 bound_to 10713
  157.5262  130.8029  149.7865 LP  0  0  0  0  0  0  0  0  0  0  0  0  # atno 17371 bound_to 10713
  140.2212  134.4021  155.7565 LP  0  0  0  0  0  0  0  0  0  0  0  0  # atno 17394 bound_to 11000
  141.2225  133.7167  156.8493 LP  0  0  0  0  0  0  0  0  0  0  0  0  # atno 17395 bound_to 11000

$$$$
