AV-unprocessed.smi:2339|AV-procd|sdf|9340|dock9
  -GOLD-   2272012563D 1   1.00000     0.00000
 Structure written by MMmdl.
 49 52  0  0  0  0  0  0  0  0  1 V2000
  146.8602  139.5979  152.0756 C   0  0  0  0  0  0  0  0  0  0  0  0
  147.2453  138.9341  153.4022 C   0  0  0  0  0  0  0  0  0  0  0  0
  146.9557  139.7944  154.5406 N   0  0  0  0  0  0  0  0  0  0  0  0
  145.6847  140.3220  154.7421 C   0  0  0  0  0  0  0  0  0  0  0  0
  145.3706  141.1744  155.7365 C   0  0  0  0  0  0  0  0  0  0  0  0
  146.4201  141.5976  156.6851 C   0  0  0  0  0  0  0  0  0  0  0  0
  146.1671  142.3759  157.6045 O   0  0  0  0  0  0  0  0  0  0  0  0
  147.7801  141.0370  156.4679 C   0  0  0  0  0  0  0  0  0  0  0  0
  148.7676  141.4385  157.3822 N   0  0  0  0  0  0  0  0  0  0  0  0
  150.1113  141.3887  157.2773 C   0  0  0  0  0  0  0  0  0  0  0  0
  150.7360  140.9987  156.2939 O   0  0  0  0  0  0  0  0  0  0  0  0
  150.7555  141.8107  158.3788 N   0  0  0  0  0  0  0  0  0  0  0  0
  152.2002  141.8856  158.5978 C   0  0  2  0  0  0  0  0  0  0  0  0
  152.6503  140.9878  159.7509 C   0  0  1  0  0  0  0  0  0  0  0  0
  153.4629  139.7462  159.8468 C   0  0  0  0  0  0  0  0  0  0  0  0
  154.3747  140.1777  161.0259 C   0  0  0  0  0  0  0  0  0  0  0  0
  154.1310  141.5923  161.2190 O   0  0  0  0  0  0  0  0  0  0  0  0
  153.7194  142.0428  159.9444 C   0  0  2  0  0  0  0  0  0  0  0  0
  152.6596  143.0789  159.5224 C   0  0  0  0  0  0  0  0  0  0  0  0
  151.7121  143.6480  160.5901 C   0  0  0  0  0  0  0  0  0  0  0  0
  151.1140  144.9307  160.0153 C   0  0  0  0  0  0  0  0  0  0  0  0
  152.1697  145.4755  159.0536 C   0  0  0  0  0  0  0  0  0  0  0  0
  153.1797  144.3420  158.8351 C   0  0  0  0  0  0  0  0  0  0  0  0
  147.9580  140.1847  155.4263 C   0  0  0  0  0  0  0  0  0  0  0  0
  147.0855  138.9418  151.2349 H   0  0  0  0  0  0  0  0  0  0  0  0
  147.4076  140.5293  151.9276 H   0  0  0  0  0  0  0  0  0  0  0  0
  145.7943  139.8255  152.0441 H   0  0  0  0  0  0  0  0  0  0  0  0
  146.7098  137.9905  153.5139 H   0  0  0  0  0  0  0  0  0  0  0  0
  148.3068  138.6837  153.3965 H   0  0  0  0  0  0  0  0  0  0  0  0
  144.9448  139.9861  154.0299 H   0  0  0  0  0  0  0  0  0  0  0  0
  144.3673  141.5560  155.8564 H   0  0  0  0  0  0  0  0  0  0  0  0
  148.4061  141.8022  158.2520 H   0  0  0  0  0  0  0  0  0  0  0  0
  150.1784  142.1157  159.1493 H   0  0  0  0  0  0  0  0  0  0  0  0
  152.8019  141.7518  157.6939 H   0  0  0  0  0  0  0  0  0  0  0  0
  151.9057  140.9964  160.5526 H   0  0  0  0  0  0  0  0  0  0  0  0
  152.8653  138.8647  160.0798 H   0  0  0  0  0  0  0  0  0  0  0  0
  154.0334  139.5606  158.9356 H   0  0  0  0  0  0  0  0  0  0  0  0
  154.1376  139.6383  161.9433 H   0  0  0  0  0  0  0  0  0  0  0  0
  155.4248  140.0001  160.7898 H   0  0  0  0  0  0  0  0  0  0  0  0
  154.5435  141.9803  159.2244 H   0  0  0  0  0  0  0  0  0  0  0  0
  150.9227  142.9592  160.8898 H   0  0  0  0  0  0  0  0  0  0  0  0
  152.2773  143.8865  161.4920 H   0  0  0  0  0  0  0  0  0  0  0  0
  150.2041  144.6957  159.4625 H   0  0  0  0  0  0  0  0  0  0  0  0
  150.8474  145.6478  160.7923 H   0  0  0  0  0  0  0  0  0  0  0  0
  151.7132  145.7908  158.1146 H   0  0  0  0  0  0  0  0  0  0  0  0
  152.6689  146.3460  159.4805 H   0  0  0  0  0  0  0  0  0  0  0  0
  154.1399  144.6314  159.2638 H   0  0  0  0  0  0  0  0  0  0  0  0
  153.3580  144.1785  157.7728 H   0  0  0  0  0  0  0  0  0  0  0  0
  148.9043  139.7209  155.1993 H   0  0  0  0  0  0  0  0  0  0  0  0
  1  2  1  0  0  0  0
  1 25  1  0  0  0  0
  1 26  1  0  0  0  0
  1 27  1  0  0  0  0
  2  3  1  0  0  0  0
  2 28  1  0  0  0  0
  2 29  1  0  0  0  0
  3 24  1  0  0  0  0
  3  4  1  0  0  0  0
  4  5  2  0  0  0  0
  4 30  1  0  0  0  0
  5  6  1  0  0  0  0
  5 31  1  0  0  0  0
  6  7  2  0  0  0  0
  6  8  1  0  0  0  0
  8  9  1  0  0  0  0
  8 24  2  0  0  0  0
  9 10  1  0  0  0  0
  9 32  1  0  0  0  0
 10 11  2  0  0  0  0
 10 12  1  0  0  0  0
 12 13  1  0  0  0  0
 12 33  1  0  0  0  0
 13 19  1  0  0  0  0
 13 14  1  0  0  0  0
 13 34  1  0  0  0  0
 14 18  1  0  0  0  0
 14 15  1  0  0  0  0
 14 35  1  0  0  0  0
 15 16  1  0  0  0  0
 15 36  1  0  0  0  0
 15 37  1  0  0  0  0
 16 17  1  0  0  0  0
 16 38  1  0  0  0  0
 16 39  1  0  0  0  0
 17 18  1  0  0  0  0
 18 19  1  0  0  0  0
 18 40  1  0  0  0  0
 19 23  1  0  0  0  0
 19 20  1  0  0  0  0
 20 21  1  0  0  0  0
 20 41  1  0  0  0  0
 20 42  1  0  0  0  0
 21 22  1  0  0  0  0
 21 43  1  0  0  0  0
 21 44  1  0  0  0  0
 22 23  1  0  0  0  0
 22 45  1  0  0  0  0
 22 46  1  0  0  0  0
 23 47  1  0  0  0  0
 23 48  1  0  0  0  0
 24 49  1  0  0  0  0
M  END
> <s_m_source_file>
AV-unprocessed.smi

> <i_m_source_file_index>
2339

> <i_lp_mmshare_version>
43012

> <i_f3d_flags>
0

> <s_epik_input>
W0NIM11bQ0gyXW4xW2NIXVtjSF1jKD1PKWMoW2NIXTEpW05IXUMoPU8pW05IXVtDQEBIXTJbQ0BASF0oW0NIMl1bQ0gyXU8zKVtDQEBIXTNDMjRbQ0gyXVtDSDJdW0NIMl1bQ0gyXTQ=

> <s_epik_cmdline>
J2VwaWtfcHl0aG9uJywgJy1waCcsICc3LjAnLCAnLXRuJywgJzgnLCAnLW1hJywgJzIwMCcsICctbWV0YWxfYmluZGluZycsICctaW1hZScsICc8aW5maWxlLm1hZT4nLCAnLW9tYWUnLCAnPG91dGZpbGUubWFlPic=

> <r_lp_tautomer_probability>
1

> <r_epik_Ionization_Penalty>
0.00145966

> <r_epik_Ionization_Penalty_Charging>
0.00143969

> <r_epik_Ionization_Penalty_Neutral>
1.99697e-05

> <r_epik_State_Penalty>
0.000961843

> <r_epik_Charging_Adjusted_Penalty>
0.00240153

> <i_epik_Tot_Q>
0

> <i_epik_Tot_abs_Q>
0

> <r_epik_Metal_State_Penalty>
-0

> <b_epik_Metal_Only>
0

> <s_lp_Force_Field>
OPLS_2005

> <r_lp_Energy>
78.6194

> <b_lp_Chiralities_Consistent>
1

> <s_lp_Variant>
AV-unprocessed.smi:2339-5

> <Gold.Version>
5.8.1

> <Gold.Id.Protein>
6NUR|6NUR_protein|mol2

> <Gold.PLP.Fitness>
42.0494

> <Gold.PLP.PLP>
-39.3156

> <Gold.PLP.part.hbond>
-0.7960

> <Gold.PLP.part.metal>
0.0000

> <Gold.PLP.part.buried>
-5.4095

> <Gold.PLP.part.nonpolar>
-33.2710

> <Gold.PLP.part.repulsive>
0.3254

> <Gold.PLP.ligand.clash>
0.0000

> <Gold.PLP.ligand.torsion>
0.2784

> <Gold.PLP.Chemscore.Hbond>
0.0000

> <Gold.PLP.Chemscore.CHOScore>
1.0000

> <Gold.PLP.Chemscore.Metal>
0.0000

> <Gold.Chemscore.Hbonds>
donor molecule, donor type, donor heavy atom, donor atom, acceptor molecule, acceptor atom, score
      L1  C     4    30       P1 10175  1.00

> <Gold.PLP.Chemscore.Internal.Correction>
0.2905

> <Gold.Rescore>
     Score         DG    S(hbond)    S(metal)    S(lipo)     H(rot)  DE(clash)    DE(int)     intcor
     15.55     -17.22       0.00        0.00     125.88       1.17       0.44       1.23       ----

> <Gold.Chemscore.Fitness>
15.5458

> <Gold.Chemscore.DG>
-17.2208

> <Gold.Chemscore.ZeroCoef>
-5.4800

> <Gold.Chemscore.Hbond>
0.0000

> <Gold.Chemscore.Metal>
0.0000

> <Gold.Chemscore.Lipo>
125.8821

> <Gold.Chemscore.Internal_Hbond>
0.0000

> <Gold.Chemscore.DEClash>
0.4422

> <Gold.Chemscore.DEInternal>
1.2328

> <Gold.Chemscore.Rot>
1.1670

> <Gold.Chemscore.Internal.Correction>
   9.000000E+99

> <Gold.Chemscore.Hbond.Weighted>
-0.0000

> <Gold.Chemscore.Metal.Weighted>
-0.0000

> <Gold.Chemscore.Lipo.Weighted>
-14.7282

> <Gold.Chemscore.Internal_Hbond.Weighted>
0.0000

> <Gold.Chemscore.DEClash.Weighted>
0.4422

> <Gold.Chemscore.DEInternal.Weighted>
1.2328

> <Gold.Chemscore.Rot.Weighted>
2.9874

> <Gold.Chemscore.Internal.Correction.Weighted>
   9.000000E+99

> <Gold.Protein.RotatedTorsions>
[ 6907 6896 6895 6894 ] final   86.44 input  -60.11 | X-H torsion
[ 7974 7965 7964 7962 ] final   58.08 input  175.53 | X-H torsion
[ 8008 7997 7996 7995 ] final   50.78 input   59.86 | X-H torsion
[ 10167 10162 10161 10158 ] final -172.95 input  -65.29 | X-H torsion
[ 10718 10713 10712 10709 ] final   -0.31 input   66.30 | X-H torsion
[ 10763 10752 10751 10750 ] final  -79.91 input  -60.55 | X-H torsion
[ 11005 11000 10999 10996 ] final  -37.12 input  -57.11 | X-H torsion

> <Gold.Protein.ActiveResidues>
 VAL166  LYS551  ARG553  GLY616  TRP617  ASP618  TYR619  PRO620  LYS621  CYS622 
 ASP623  PHE694  ASN695  SER759  ASP760  ASP761  ALA762  ILE779  LEU786  VAL792 
 PHE793  MET794  SER795  GLU796  ALA797  LYS798  CYS799  TRP800  GLU811  SER814 

> <Gold.Protein.RotatedAtoms>
  152.5394  134.2431  159.8869 H   0  0  0  0  0  0  0  0  0  0  0  0  # atno 6907 bound_to 6896
  151.2397  133.4399  159.2614 H   0  0  0  0  0  0  0  0  0  0  0  0  # atno 6908 bound_to 6896
  151.0638  134.9768  159.8330 H   0  0  0  0  0  0  0  0  0  0  0  0  # atno 6909 bound_to 6896
  145.9221  139.3738  143.0472 H   0  0  0  0  0  0  0  0  0  0  0  0  # atno 7974 bound_to 7965
  155.4244  140.3448  155.4274 H   0  0  0  0  0  0  0  0  0  0  0  0  # atno 8008 bound_to 7997
  156.1373  140.1532  156.9005 H   0  0  0  0  0  0  0  0  0  0  0  0  # atno 8009 bound_to 7997
  154.4942  140.0832  156.7642 H   0  0  0  0  0  0  0  0  0  0  0  0  # atno 8010 bound_to 7997
  139.5715  144.1630  152.1391 H   0  0  0  0  0  0  0  0  0  0  0  0  # atno 10167 bound_to 10162
  156.8224  130.5461  149.5696 H   0  0  0  0  0  0  0  0  0  0  0  0  # atno 10718 bound_to 10713
  154.5446  135.5679  153.6869 H   0  0  0  0  0  0  0  0  0  0  0  0  # atno 10763 bound_to 10752
  152.9973  135.6236  154.2456 H   0  0  0  0  0  0  0  0  0  0  0  0  # atno 10764 bound_to 10752
  154.2388  135.2863  155.2841 H   0  0  0  0  0  0  0  0  0  0  0  0  # atno 10765 bound_to 10752
  140.9928  133.6996  156.1880 H   0  0  0  0  0  0  0  0  0  0  0  0  # atno 11005 bound_to 11000
  145.8536  140.9515  143.0736 LP  0  0  0  0  0  0  0  0  0  0  0  0  # atno 17320 bound_to 7965
  144.6754  140.0439  143.7480 LP  0  0  0  0  0  0  0  0  0  0  0  0  # atno 17321 bound_to 7965
  140.1164  144.5412  150.6891 LP  0  0  0  0  0  0  0  0  0  0  0  0  # atno 17342 bound_to 10162
  140.6999  143.2428  151.4893 LP  0  0  0  0  0  0  0  0  0  0  0  0  # atno 17343 bound_to 10162
  156.0981  130.5948  150.9848 LP  0  0  0  0  0  0  0  0  0  0  0  0  # atno 17370 bound_to 10713
  157.6450  131.0905  150.8172 LP  0  0  0  0  0  0  0  0  0  0  0  0  # atno 17371 bound_to 10713
  140.7013  134.4560  157.5586 LP  0  0  0  0  0  0  0  0  0  0  0  0  # atno 17394 bound_to 11000
  139.9000  134.8578  156.1936 LP  0  0  0  0  0  0  0  0  0  0  0  0  # atno 17395 bound_to 11000

$$$$
