AV-unprocessed.smi:981|AV-procd|sdf|4313|dock1
  -GOLD-   22720 2223D 1   1.00000     0.00000
 Structure written by MMmdl.
 36 37  0  0  0  0  0  0  0  0  1 V2000
  152.2307  144.8412  158.8815 C   0  0  0  0  0  0  0  0  0  0  0  0
  151.3691  143.8977  159.7330 C   0  0  0  0  0  0  0  0  0  0  0  0
  151.9256  143.6854  161.1485 C   0  0  0  0  0  0  0  0  0  0  0  0
  151.0946  142.6023  159.0356 C   0  0  0  0  0  0  0  0  0  0  0  0
  149.8675  142.1651  158.7361 N   0  0  0  0  0  0  0  0  0  0  0  0
  149.8779  140.9276  158.0855 C   0  0  0  0  0  0  0  0  0  0  0  0
  148.5864  140.2845  157.6805 C   0  0  0  0  0  0  0  0  0  0  0  0
  147.6732  141.2492  156.9116 C   0  0  0  0  0  0  0  0  0  0  0  0
  147.6441  142.5534  157.5588 N   0  0  0  0  0  0  0  0  0  0  0  0
  147.0323  142.8099  158.7258 C   0  0  0  0  0  0  0  0  0  0  0  0
  146.4168  141.9587  159.3653 O   0  0  0  0  0  0  0  0  0  0  0  0
  147.1223  144.0843  159.1473 N   0  0  0  0  0  0  0  0  0  0  0  0
  146.5798  144.6625  160.3406 C   0  0  0  0  0  0  0  0  0  0  0  0
  147.5501  145.3428  161.2822 C   0  0  0  0  0  0  0  0  0  0  0  0
  146.9419  144.0215  161.6631 C   0  0  0  0  0  0  0  0  0  0  0  0
  151.1416  140.4276  157.8944 C   0  0  0  0  0  0  0  0  0  0  0  0
  152.3649  141.4953  158.5251 S   0  0  0  0  0  0  0  0  0  0  0  0
  151.7635  145.0336  157.9152 H   0  0  0  0  0  0  0  0  0  0  0  0
  153.2183  144.4177  158.6956 H   0  0  0  0  0  0  0  0  0  0  0  0
  152.3693  145.8018  159.3781 H   0  0  0  0  0  0  0  0  0  0  0  0
  150.4038  144.3906  159.8544 H   0  0  0  0  0  0  0  0  0  0  0  0
  151.2475  143.0786  161.7494 H   0  0  0  0  0  0  0  0  0  0  0  0
  152.0622  144.6365  161.6637 H   0  0  0  0  0  0  0  0  0  0  0  0
  152.8915  143.1798  161.1231 H   0  0  0  0  0  0  0  0  0  0  0  0
  148.7880  139.4058  157.0662 H   0  0  0  0  0  0  0  0  0  0  0  0
  148.0630  139.9170  158.5643 H   0  0  0  0  0  0  0  0  0  0  0  0
  148.0266  141.3603  155.8851 H   0  0  0  0  0  0  0  0  0  0  0  0
  146.6587  140.8503  156.8633 H   0  0  0  0  0  0  0  0  0  0  0  0
  148.1230  143.3103  157.0928 H   0  0  0  0  0  0  0  0  0  0  0  0
  147.6009  144.7254  158.5312 H   0  0  0  0  0  0  0  0  0  0  0  0
  145.5952  145.1239  160.2835 H   0  0  0  0  0  0  0  0  0  0  0  0
  148.6045  145.3502  161.0119 H   0  0  0  0  0  0  0  0  0  0  0  0
  147.1994  146.2272  161.8101 H   0  0  0  0  0  0  0  0  0  0  0  0
  146.1851  144.0235  162.4450 H   0  0  0  0  0  0  0  0  0  0  0  0
  147.5886  143.1462  161.6439 H   0  0  0  0  0  0  0  0  0  0  0  0
  151.4258  139.4982  157.4238 H   0  0  0  0  0  0  0  0  0  0  0  0
  1  2  1  0  0  0  0
  1 18  1  0  0  0  0
  1 19  1  0  0  0  0
  1 20  1  0  0  0  0
  2  3  1  0  0  0  0
  2  4  1  0  0  0  0
  2 21  1  0  0  0  0
  3 22  1  0  0  0  0
  3 23  1  0  0  0  0
  3 24  1  0  0  0  0
  4 17  1  0  0  0  0
  4  5  2  0  0  0  0
  5  6  1  0  0  0  0
  6  7  1  0  0  0  0
  6 16  2  0  0  0  0
  7  8  1  0  0  0  0
  7 25  1  0  0  0  0
  7 26  1  0  0  0  0
  8  9  1  0  0  0  0
  8 27  1  0  0  0  0
  8 28  1  0  0  0  0
  9 10  1  0  0  0  0
  9 29  1  0  0  0  0
 10 11  2  0  0  0  0
 10 12  1  0  0  0  0
 12 13  1  0  0  0  0
 12 30  1  0  0  0  0
 13 15  1  0  0  0  0
 13 14  1  0  0  0  0
 13 31  1  0  0  0  0
 14 15  1  0  0  0  0
 14 32  1  0  0  0  0
 14 33  1  0  0  0  0
 15 34  1  0  0  0  0
 15 35  1  0  0  0  0
 16 17  1  0  0  0  0
 16 36  1  0  0  0  0
M  END
> <s_m_source_file>
AV-unprocessed.smi

> <i_m_source_file_index>
981

> <i_lp_mmshare_version>
43012

> <i_f3d_flags>
0

> <s_epik_input>
W0NIM11bQ0hdKFtDSDNdKWMxbmMoW2NIXXMxKVtDSDJdW0NIMl1bTkhdQyg9TylbTkhdW0NIXTJbQ0gyXVtDSDJdMg==

> <s_epik_cmdline>
J2VwaWtfcHl0aG9uJywgJy1waCcsICc3LjAnLCAnLXRuJywgJzgnLCAnLW1hJywgJzIwMCcsICctbWV0YWxfYmluZGluZycsICctaW1hZScsICc8aW5maWxlLm1hZT4nLCAnLW9tYWUnLCAnPG91dGZpbGUubWFlPic=

> <r_epik_Ionization_Penalty>
0.00156572

> <r_epik_Ionization_Penalty_Charging>
0

> <r_epik_Ionization_Penalty_Neutral>
0.00156572

> <r_epik_State_Penalty>
0.0010059

> <r_epik_Charging_Adjusted_Penalty>
0.0010059

> <i_epik_Tot_Q>
0

> <i_epik_Tot_abs_Q>
0

> <r_epik_Metal_State_Penalty>
-0

> <b_epik_Metal_Only>
0

> <s_lp_Force_Field>
OPLS_2005

> <r_lp_Energy>
12.4684

> <b_lp_Chiralities_Consistent>
1

> <s_lp_Variant>
AV-unprocessed.smi:981-1

> <Gold.Version>
5.8.1

> <Gold.Id.Protein>
6NUR|6NUR_protein|mol2

> <Gold.PLP.Fitness>
41.5126

> <Gold.PLP.PLP>
-33.7549

> <Gold.PLP.part.hbond>
-3.0987

> <Gold.PLP.part.metal>
0.0000

> <Gold.PLP.part.buried>
-6.2689

> <Gold.PLP.part.nonpolar>
-24.5442

> <Gold.PLP.part.repulsive>
0.2072

> <Gold.PLP.ligand.clash>
0.0000

> <Gold.PLP.ligand.torsion>
0.3001

> <Gold.PLP.Chemscore.Hbond>
2.7333

> <Gold.PLP.Chemscore.CHOScore>
0.0000

> <Gold.PLP.Chemscore.Metal>
0.0000

> <Gold.Chemscore.Hbonds>
donor molecule, donor type, donor heavy atom, donor atom, acceptor molecule, acceptor atom, score
      L1  H     9    29       P1  8028  0.50
      L1  H    12    30       P1  8029  1.00
      P1  H  6934  6946       L1    11  0.99

> <Gold.PLP.Chemscore.Internal.Correction>
0.1581

> <Gold.Rescore>
     Score         DG    S(hbond)    S(metal)    S(lipo)     H(rot)  DE(clash)    DE(int)     intcor
     17.60     -17.82       1.95        0.00      87.12       1.70       0.01       0.22       ----

> <Gold.Chemscore.Fitness>
17.5991

> <Gold.Chemscore.DG>
-17.8241

> <Gold.Chemscore.ZeroCoef>
-5.4800

> <Gold.Chemscore.Hbond>
1.9505

> <Gold.Chemscore.Metal>
0.0000

> <Gold.Chemscore.Lipo>
87.1183

> <Gold.Chemscore.Internal_Hbond>
0.0000

> <Gold.Chemscore.DEClash>
0.0052

> <Gold.Chemscore.DEInternal>
0.2197

> <Gold.Chemscore.Rot>
1.7045

> <Gold.Chemscore.Internal.Correction>
   9.000000E+99

> <Gold.Chemscore.Hbonds>
donor molecule, donor type, donor heavy atom, donor atom, acceptor molecule, acceptor atom, score
      L1  H     9    29       P1  8028  0.04
      L1  H    12    30       P1  8029  0.98
      P1  H  6934  6946       L1    11  0.94

> <Gold.Chemscore.Hbond.Weighted>
-6.5148

> <Gold.Chemscore.Metal.Weighted>
-0.0000

> <Gold.Chemscore.Lipo.Weighted>
-10.1928

> <Gold.Chemscore.Internal_Hbond.Weighted>
0.0000

> <Gold.Chemscore.DEClash.Weighted>
0.0052

> <Gold.Chemscore.DEInternal.Weighted>
0.2197

> <Gold.Chemscore.Rot.Weighted>
4.3636

> <Gold.Chemscore.Internal.Correction.Weighted>
   9.000000E+99

> <Gold.Protein.RotatedTorsions>
[ 6907 6896 6895 6894 ] final  -67.23 input  -60.11 | X-H torsion
[ 7974 7965 7964 7962 ] final   83.39 input  175.53 | X-H torsion
[ 8008 7997 7996 7995 ] final   16.50 input   59.86 | X-H torsion
[ 10167 10162 10161 10158 ] final  131.71 input  -65.29 | X-H torsion
[ 10718 10713 10712 10709 ] final  128.58 input   66.30 | X-H torsion
[ 10763 10752 10751 10750 ] final   77.74 input  -60.55 | X-H torsion
[ 11005 11000 10999 10996 ] final  -22.37 input  -57.11 | X-H torsion

> <Gold.Protein.ActiveResidues>
 VAL166  LYS551  ARG553  GLY616  TRP617  ASP618  TYR619  PRO620  LYS621  CYS622 
 ASP623  PHE694  ASN695  SER759  ASP760  ASP761  ALA762  ILE779  LEU786  VAL792 
 PHE793  MET794  SER795  GLU796  ALA797  LYS798  CYS799  TRP800  GLU811  SER814 

> <Gold.Protein.RotatedAtoms>
  150.7421  134.5909  159.5986 H   0  0  0  0  0  0  0  0  0  0  0  0  # atno 6907 bound_to 6896
  152.3297  134.7272  160.0301 H   0  0  0  0  0  0  0  0  0  0  0  0  # atno 6908 bound_to 6896
  151.7760  133.3309  159.3494 H   0  0  0  0  0  0  0  0  0  0  0  0  # atno 6909 bound_to 6896
  145.6125  139.2371  143.2184 H   0  0  0  0  0  0  0  0  0  0  0  0  # atno 7974 bound_to 7965
  154.8778  140.2968  155.5443 H   0  0  0  0  0  0  0  0  0  0  0  0  # atno 8008 bound_to 7997
  156.3022  140.2448  156.3710 H   0  0  0  0  0  0  0  0  0  0  0  0  # atno 8009 bound_to 7997
  154.8748  140.0400  157.1736 H   0  0  0  0  0  0  0  0  0  0  0  0  # atno 8010 bound_to 7997
  139.5372  144.6694  151.4747 H   0  0  0  0  0  0  0  0  0  0  0  0  # atno 10167 bound_to 10162
  157.5232  131.1098  150.9123 H   0  0  0  0  0  0  0  0  0  0  0  0  # atno 10718 bound_to 10713
  153.0822  135.4903  154.8525 H   0  0  0  0  0  0  0  0  0  0  0  0  # atno 10763 bound_to 10752
  154.7165  135.3030  154.9118 H   0  0  0  0  0  0  0  0  0  0  0  0  # atno 10764 bound_to 10752
  153.9796  135.6791  153.4802 H   0  0  0  0  0  0  0  0  0  0  0  0  # atno 10765 bound_to 10752
  140.8650  133.7761  156.0119 H   0  0  0  0  0  0  0  0  0  0  0  0  # atno 11005 bound_to 11000
  146.1493  140.6947  142.9329 LP  0  0  0  0  0  0  0  0  0  0  0  0  # atno 17320 bound_to 7965
  144.7264  140.4537  143.6970 LP  0  0  0  0  0  0  0  0  0  0  0  0  # atno 17321 bound_to 7965
  140.6584  143.8551  150.6860 LP  0  0  0  0  0  0  0  0  0  0  0  0  # atno 17342 bound_to 10162
  140.1937  143.4015  152.1844 LP  0  0  0  0  0  0  0  0  0  0  0  0  # atno 17343 bound_to 10162
  156.9727  130.5497  149.5291 LP  0  0  0  0  0  0  0  0  0  0  0  0  # atno 17370 bound_to 10713
  156.0368  130.5454  150.8673 LP  0  0  0  0  0  0  0  0  0  0  0  0  # atno 17371 bound_to 10713
  140.8639  134.2808  157.5222 LP  0  0  0  0  0  0  0  0  0  0  0  0  # atno 17394 bound_to 11000
  139.8709  134.9532  156.4139 LP  0  0  0  0  0  0  0  0  0  0  0  0  # atno 17395 bound_to 11000

$$$$
