AV-unprocessed.smi:2784|AV-procd|sdf|10736|dock8
  -GOLD-   2272015173D 1   1.00000     0.00000
 Structure written by MMmdl.
 31 32  0  0  0  0  0  0  0  0  1 V2000
  145.8821  142.9694  154.2885 C   0  0  0  0  0  0  0  0  0  0  0  0
  147.0649  142.3851  154.8088 O   0  0  0  0  0  0  0  0  0  0  0  0
  147.8961  141.7887  153.8165 C   0  0  2  0  0  0  0  0  0  0  0  0
  147.1848  140.5152  153.3560 C   0  0  0  0  0  0  0  0  0  0  0  0
  147.5554  139.4752  154.4097 C   0  0  0  0  0  0  0  0  0  0  0  0
  149.0035  139.8017  154.7840 C   0  0  0  0  0  0  0  0  0  0  0  0
  149.2251  141.2851  154.4270 C   0  0  2  0  0  0  0  0  0  0  0  0
  149.6422  142.0499  155.6011 N   0  0  0  0  0  0  0  0  0  0  0  0
  150.6158  141.7006  156.4546 C   0  0  0  0  0  0  0  0  0  0  0  0
  151.2565  140.6545  156.3096 O   0  0  0  0  0  0  0  0  0  0  0  0
  150.7543  142.6698  157.4381 N   0  0  0  0  0  0  0  0  0  0  0  0
  151.4560  142.4237  158.5020 C   0  0  0  0  0  0  0  0  0  0  0  0
  152.1665  141.3067  158.9337 N   0  0  0  0  0  0  0  0  0  0  0  0
  152.7248  141.5990  160.1466 C   0  0  0  0  0  0  0  0  0  0  0  0
  152.3845  142.8436  160.4672 C   0  0  0  0  0  0  0  0  0  0  0  0
  151.6083  143.3734  159.4806 O   0  0  0  0  0  0  0  0  0  0  0  0
  145.3220  143.4413  155.0954 H   0  0  0  0  0  0  0  0  0  0  0  0
  145.2429  142.2130  153.8317 H   0  0  0  0  0  0  0  0  0  0  0  0
  146.1072  143.7330  153.5433 H   0  0  0  0  0  0  0  0  0  0  0  0
  148.0684  142.4609  152.9733 H   0  0  0  0  0  0  0  0  0  0  0  0
  146.1071  140.6445  153.2493 H   0  0  0  0  0  0  0  0  0  0  0  0
  147.5781  140.2061  152.3866 H   0  0  0  0  0  0  0  0  0  0  0  0
  146.9136  139.5975  155.2834 H   0  0  0  0  0  0  0  0  0  0  0  0
  147.4356  138.4529  154.0505 H   0  0  0  0  0  0  0  0  0  0  0  0
  149.1954  139.5817  155.8353 H   0  0  0  0  0  0  0  0  0  0  0  0
  149.6851  139.1814  154.2003 H   0  0  0  0  0  0  0  0  0  0  0  0
  150.0033  141.3257  153.6624 H   0  0  0  0  0  0  0  0  0  0  0  0
  149.1624  142.9228  155.7670 H   0  0  0  0  0  0  0  0  0  0  0  0
  152.2749  140.4172  158.4676 H   0  0  0  0  0  0  0  0  0  0  0  0
  153.3230  140.8639  160.6647 H   0  0  0  0  0  0  0  0  0  0  0  0
  152.6037  143.4672  161.3215 H   0  0  0  0  0  0  0  0  0  0  0  0
  1  2  1  0  0  0  0
  1 17  1  0  0  0  0
  1 18  1  0  0  0  0
  1 19  1  0  0  0  0
  2  3  1  0  0  0  0
  3  7  1  0  0  0  0
  3  4  1  0  0  0  0
  3 20  1  0  0  0  0
  4  5  1  0  0  0  0
  4 21  1  0  0  0  0
  4 22  1  0  0  0  0
  5  6  1  0  0  0  0
  5 23  1  0  0  0  0
  5 24  1  0  0  0  0
  6  7  1  0  0  0  0
  6 25  1  0  0  0  0
  6 26  1  0  0  0  0
  7  8  1  0  0  0  0
  7 27  1  0  0  0  0
  8 28  1  0  0  0  0
  8  9  1  0  0  0  0
  9 11  1  0  0  0  0
  9 10  2  0  0  0  0
 11 12  2  0  0  0  0
 12 16  1  0  0  0  0
 12 13  1  0  0  0  0
 13 29  1  0  0  0  0
 13 14  1  0  0  0  0
 14 30  1  0  0  0  0
 14 15  2  0  0  0  0
 15 31  1  0  0  0  0
 15 16  1  0  0  0  0
M  END
> <s_m_source_file>
AV-unprocessed.smi

> <i_m_source_file_index>
2784

> <i_lp_mmshare_version>
43012

> <i_f3d_flags>
0

> <s_epik_input>
W0NIM11PW0NAQEhdMVtDSDJdW0NIMl1bQ0gyXVtDQEhdMVtOSF1DKD1PKVtOSF1jMm5bY0hdW2NIXW8y

> <s_epik_cmdline>
J2VwaWtfcHl0aG9uJywgJy1waCcsICc3LjAnLCAnLXRuJywgJzgnLCAnLW1hJywgJzIwMCcsICctbWV0YWxfYmluZGluZycsICctaW1hZScsICc8aW5maWxlLm1hZT4nLCAnLW9tYWUnLCAnPG91dGZpbGUubWFlPic=

> <r_lp_tautomer_probability>
0.107061

> <r_epik_Ionization_Penalty>
1.29244

> <r_epik_Ionization_Penalty_Charging>
1.29208

> <r_epik_Ionization_Penalty_Neutral>
0.000359742

> <r_epik_State_Penalty>
2.59896

> <r_epik_Charging_Adjusted_Penalty>
3.89105

> <i_epik_Tot_Q>
0

> <i_epik_Tot_abs_Q>
0

> <r_epik_Metal_State_Penalty>
3.62496

> <b_epik_Metal_Only>
0

> <s_lp_Force_Field>
OPLS_2005

> <r_lp_Energy>
46.1047

> <b_lp_Chiralities_Consistent>
1

> <s_lp_Variant>
AV-unprocessed.smi:2784-11

> <Gold.Version>
5.8.1

> <Gold.Id.Protein>
6NUR|6NUR_protein|mol2

> <Gold.PLP.Fitness>
33.4216

> <Gold.PLP.PLP>
-30.8253

> <Gold.PLP.part.hbond>
-1.0000

> <Gold.PLP.part.metal>
0.0000

> <Gold.PLP.part.buried>
-5.3607

> <Gold.PLP.part.nonpolar>
-24.6589

> <Gold.PLP.part.repulsive>
0.7461

> <Gold.PLP.ligand.clash>
0.0000

> <Gold.PLP.ligand.torsion>
0.2082

> <Gold.PLP.Chemscore.Hbond>
1.0000

> <Gold.PLP.Chemscore.CHOScore>
0.0000

> <Gold.PLP.Chemscore.Metal>
0.0000

> <Gold.Chemscore.Hbonds>
donor molecule, donor type, donor heavy atom, donor atom, acceptor molecule, acceptor atom, score
      L1  H     8    28       P1  8028  1.00

> <Gold.PLP.Chemscore.Internal.Correction>
0.0127

> <Gold.Rescore>
     Score         DG    S(hbond)    S(metal)    S(lipo)     H(rot)  DE(clash)    DE(int)     intcor
     11.14     -12.73       0.99        0.00      62.59       1.32       0.12       1.47       ----

> <Gold.Chemscore.Fitness>
11.1367

> <Gold.Chemscore.DG>
-12.7264

> <Gold.Chemscore.ZeroCoef>
-5.4800

> <Gold.Chemscore.Hbond>
0.9915

> <Gold.Chemscore.Metal>
0.0000

> <Gold.Chemscore.Lipo>
62.5887

> <Gold.Chemscore.Internal_Hbond>
0.0000

> <Gold.Chemscore.DEClash>
0.1209

> <Gold.Chemscore.DEInternal>
1.4688

> <Gold.Chemscore.Rot>
1.3235

> <Gold.Chemscore.Internal.Correction>
   9.000000E+99

> <Gold.Chemscore.Hbonds>
donor molecule, donor type, donor heavy atom, donor atom, acceptor molecule, acceptor atom, score
      L1  H     8    28       P1  8028  0.99

> <Gold.Chemscore.Hbond.Weighted>
-3.3117

> <Gold.Chemscore.Metal.Weighted>
-0.0000

> <Gold.Chemscore.Lipo.Weighted>
-7.3229

> <Gold.Chemscore.Internal_Hbond.Weighted>
0.0000

> <Gold.Chemscore.DEClash.Weighted>
0.1209

> <Gold.Chemscore.DEInternal.Weighted>
1.4688

> <Gold.Chemscore.Rot.Weighted>
3.3882

> <Gold.Chemscore.Internal.Correction.Weighted>
   9.000000E+99

> <Gold.Protein.RotatedTorsions>
[ 6907 6896 6895 6894 ] final  146.73 input  -60.11 | X-H torsion
[ 7974 7965 7964 7962 ] final  -82.87 input  175.53 | X-H torsion
[ 8008 7997 7996 7995 ] final   74.98 input   59.86 | X-H torsion
[ 10167 10162 10161 10158 ] final   41.40 input  -65.29 | X-H torsion
[ 10718 10713 10712 10709 ] final   60.29 input   66.30 | X-H torsion
[ 10763 10752 10751 10750 ] final   53.07 input  -60.55 | X-H torsion
[ 11005 11000 10999 10996 ] final  -26.20 input  -57.11 | X-H torsion

> <Gold.Protein.ActiveResidues>
 VAL166  LYS551  ARG553  GLY616  TRP617  ASP618  TYR619  PRO620  LYS621  CYS622 
 ASP623  PHE694  ASN695  SER759  ASP760  ASP761  ALA762  ILE779  LEU786  VAL792 
 PHE793  MET794  SER795  GLU796  ALA797  LYS798  CYS799  TRP800  GLU811  SER814 

> <Gold.Protein.RotatedAtoms>
  152.1640  133.4600  159.4875 H   0  0  0  0  0  0  0  0  0  0  0  0  # atno 6907 bound_to 6896
  150.6910  134.2036  159.4340 H   0  0  0  0  0  0  0  0  0  0  0  0  # atno 6908 bound_to 6896
  151.9939  134.9964  160.0613 H   0  0  0  0  0  0  0  0  0  0  0  0  # atno 6909 bound_to 6896
  145.5275  140.9525  143.1621 H   0  0  0  0  0  0  0  0  0  0  0  0  # atno 7974 bound_to 7965
  155.8062  140.3474  155.5431 H   0  0  0  0  0  0  0  0  0  0  0  0  # atno 8008 bound_to 7997
  155.8487  140.0953  157.1709 H   0  0  0  0  0  0  0  0  0  0  0  0  # atno 8009 bound_to 7997
  154.4007  140.1380  156.3805 H   0  0  0  0  0  0  0  0  0  0  0  0  # atno 8010 bound_to 7997
  140.3647  144.2183  150.6136 H   0  0  0  0  0  0  0  0  0  0  0  0  # atno 10167 bound_to 10162
  157.5741  130.8930  149.9317 H   0  0  0  0  0  0  0  0  0  0  0  0  # atno 10718 bound_to 10713
  152.9793  135.5791  154.4682 H   0  0  0  0  0  0  0  0  0  0  0  0  # atno 10763 bound_to 10752
  154.4249  135.2772  155.1953 H   0  0  0  0  0  0  0  0  0  0  0  0  # atno 10764 bound_to 10752
  154.3686  135.6173  153.5782 H   0  0  0  0  0  0  0  0  0  0  0  0  # atno 10765 bound_to 10752
  140.9007  133.7526  156.0540 H   0  0  0  0  0  0  0  0  0  0  0  0  # atno 11005 bound_to 11000
  144.7643  139.6882  143.7221 LP  0  0  0  0  0  0  0  0  0  0  0  0  # atno 17320 bound_to 7965
  146.2066  139.5394  142.9708 LP  0  0  0  0  0  0  0  0  0  0  0  0  # atno 17321 bound_to 7965
  140.5093  143.2295  151.8560 LP  0  0  0  0  0  0  0  0  0  0  0  0  # atno 17342 bound_to 10162
  139.4810  144.4969  151.9112 LP  0  0  0  0  0  0  0  0  0  0  0  0  # atno 17343 bound_to 10162
  156.0786  130.3676  150.0626 LP  0  0  0  0  0  0  0  0  0  0  0  0  # atno 17370 bound_to 10713
  156.8775  130.9545  151.3603 LP  0  0  0  0  0  0  0  0  0  0  0  0  # atno 17371 bound_to 10713
  140.8233  134.3264  157.5374 LP  0  0  0  0  0  0  0  0  0  0  0  0  # atno 17394 bound_to 11000
  139.8742  134.9322  156.3547 LP  0  0  0  0  0  0  0  0  0  0  0  0  # atno 17395 bound_to 11000

$$$$
