AV-unprocessed.smi:992|AV-procd|sdf|4330|dock2
  -GOLD-   22720 2233D 1   1.00000     0.00000
 Structure written by MMmdl.
 32 33  0  0  0  0  0  0  0  0  1 V2000
  153.7332  140.9731  160.4440 C   0  0  0  0  0  0  0  0  0  0  0  0
  152.5055  141.5226  159.7099 C   0  0  2  0  0  0  0  0  0  0  0  0
  152.1763  140.7101  158.4430 C   0  0  0  0  0  0  0  0  0  0  0  0
  151.0634  141.3240  157.7300 N   0  0  0  0  0  0  0  0  0  0  0  0
  150.6268  140.5742  156.6288 C   0  0  0  0  0  0  0  0  0  0  0  0
  150.4216  139.1867  156.7837 C   0  0  0  0  0  0  0  0  0  0  0  0
  149.9845  138.4383  155.6737 C   0  0  0  0  0  0  0  0  0  0  0  0
  149.7692  139.1026  154.4504 C   0  0  0  0  0  0  0  0  0  0  0  0
  149.3370  138.4040  153.3241 N   0  0  0  0  0  0  0  0  0  0  0  0
  150.0020  140.4918  154.3936 C   0  0  0  0  0  0  0  0  0  0  0  0
  150.4206  141.2160  155.4533 N   0  0  0  0  0  0  0  0  0  0  0  0
  151.3108  142.7263  157.4196 C   0  0  0  0  0  0  0  0  0  0  0  0
  151.6548  143.4994  158.7069 C   0  0  2  0  0  0  0  0  0  0  0  0
  152.0165  144.9611  158.4225 C   0  0  0  0  0  0  0  0  0  0  0  0
  152.7696  142.8749  159.3410 O   0  0  0  0  0  0  0  0  0  0  0  0
  153.5732  139.9407  160.7559 H   0  0  0  0  0  0  0  0  0  0  0  0
  153.9491  141.5601  161.3370 H   0  0  0  0  0  0  0  0  0  0  0  0
  154.6177  140.9972  159.8070 H   0  0  0  0  0  0  0  0  0  0  0  0
  151.6538  141.4992  160.3924 H   0  0  0  0  0  0  0  0  0  0  0  0
  153.0503  140.6654  157.7910 H   0  0  0  0  0  0  0  0  0  0  0  0
  151.9203  139.6840  158.7102 H   0  0  0  0  0  0  0  0  0  0  0  0
  150.5951  138.7034  157.7342 H   0  0  0  0  0  0  0  0  0  0  0  0
  149.8190  137.3746  155.7638 H   0  0  0  0  0  0  0  0  0  0  0  0
  149.1671  137.4087  153.3534 H   0  0  0  0  0  0  0  0  0  0  0  0
  149.1840  138.8682  152.4402 H   0  0  0  0  0  0  0  0  0  0  0  0
  149.8494  141.0395  153.4749 H   0  0  0  0  0  0  0  0  0  0  0  0
  152.1327  142.8061  156.7063 H   0  0  0  0  0  0  0  0  0  0  0  0
  150.4288  143.1585  156.9455 H   0  0  0  0  0  0  0  0  0  0  0  0
  150.8009  143.4794  159.3864 H   0  0  0  0  0  0  0  0  0  0  0  0
  151.1872  145.4839  157.9456 H   0  0  0  0  0  0  0  0  0  0  0  0
  152.8816  145.0327  157.7623 H   0  0  0  0  0  0  0  0  0  0  0  0
  152.2563  145.4904  159.3449 H   0  0  0  0  0  0  0  0  0  0  0  0
  1  2  1  0  0  0  0
  1 16  1  0  0  0  0
  1 17  1  0  0  0  0
  1 18  1  0  0  0  0
  2 15  1  0  0  0  0
  2  3  1  0  0  0  0
  2 19  1  0  0  0  0
  3  4  1  0  0  0  0
  3 20  1  0  0  0  0
  3 21  1  0  0  0  0
  4  5  1  0  0  0  0
  4 12  1  0  0  0  0
  5 11  1  0  0  0  0
  5  6  2  0  0  0  0
  6  7  1  0  0  0  0
  6 22  1  0  0  0  0
  7  8  2  0  0  0  0
  7 23  1  0  0  0  0
  8  9  1  0  0  0  0
  8 10  1  0  0  0  0
  9 24  1  0  0  0  0
  9 25  1  0  0  0  0
 10 11  2  0  0  0  0
 10 26  1  0  0  0  0
 12 13  1  0  0  0  0
 12 27  1  0  0  0  0
 12 28  1  0  0  0  0
 13 14  1  0  0  0  0
 13 15  1  0  0  0  0
 13 29  1  0  0  0  0
 14 30  1  0  0  0  0
 14 31  1  0  0  0  0
 14 32  1  0  0  0  0
M  END
> <s_m_source_file>
AV-unprocessed.smi

> <i_m_source_file_index>
992

> <i_lp_mmshare_version>
43012

> <i_f3d_flags>
0

> <s_epik_input>
W0NIM11bQ0BASF0xW0NIMl1OKFtDSDJdW0NASF0oTzEpW0NIM10pYzJbY0hdW2NIXWMoW05IMl0pW2NIXW4y

> <s_epik_cmdline>
J2VwaWtfcHl0aG9uJywgJy1waCcsICc3LjAnLCAnLXRuJywgJzgnLCAnLW1hJywgJzIwMCcsICctbWV0YWxfYmluZGluZycsICctaW1hZScsICc8aW5maWxlLm1hZT4nLCAnLW9tYWUnLCAnPG91dGZpbGUubWFlPic=

> <r_lp_tautomer_probability>
1

> <r_epik_Ionization_Penalty>
0.0126232

> <r_epik_Ionization_Penalty_Charging>
0

> <r_epik_Ionization_Penalty_Neutral>
0.0126232

> <r_epik_State_Penalty>
0.00976577

> <r_epik_Charging_Adjusted_Penalty>
0.00976577

> <i_epik_Tot_Q>
0

> <i_epik_Tot_abs_Q>
0

> <r_epik_Metal_State_Penalty>
9.84661e-06

> <b_epik_Metal_Only>
0

> <s_lp_Force_Field>
OPLS_2005

> <r_lp_Energy>
20.2951

> <b_lp_Chiralities_Consistent>
1

> <s_lp_Variant>
AV-unprocessed.smi:992-2

> <Gold.Version>
5.8.1

> <Gold.Id.Protein>
6NUR|6NUR_protein|mol2

> <Gold.PLP.Fitness>
35.6858

> <Gold.PLP.PLP>
-28.5370

> <Gold.PLP.part.hbond>
-2.8164

> <Gold.PLP.part.metal>
0.0000

> <Gold.PLP.part.buried>
-2.1208

> <Gold.PLP.part.nonpolar>
-23.2702

> <Gold.PLP.part.repulsive>
0.1854

> <Gold.PLP.ligand.clash>
0.0000

> <Gold.PLP.ligand.torsion>
0.1622

> <Gold.PLP.Chemscore.Hbond>
1.5280

> <Gold.PLP.Chemscore.CHOScore>
0.9308

> <Gold.PLP.Chemscore.Metal>
0.0000

> <Gold.Chemscore.Hbonds>
donor molecule, donor type, donor heavy atom, donor atom, acceptor molecule, acceptor atom, score
      L1  H     9    24       P1  7948  0.53
      L1  H     9    25       P1  7957  1.00
      L1  C    10    26       P1  7957  0.94

> <Gold.PLP.Chemscore.Internal.Correction>
0.0969

> <Gold.Rescore>
     Score         DG    S(hbond)    S(metal)    S(lipo)     H(rot)  DE(clash)    DE(int)     intcor
     16.66     -18.19       1.65        0.00      83.48       1.00       1.40       0.13       ----

> <Gold.Chemscore.Fitness>
16.6628

> <Gold.Chemscore.DG>
-18.1940

> <Gold.Chemscore.ZeroCoef>
-5.4800

> <Gold.Chemscore.Hbond>
1.6487

> <Gold.Chemscore.Metal>
0.0000

> <Gold.Chemscore.Lipo>
83.4825

> <Gold.Chemscore.Internal_Hbond>
0.0000

> <Gold.Chemscore.DEClash>
1.4006

> <Gold.Chemscore.DEInternal>
0.1306

> <Gold.Chemscore.Rot>
1.0000

> <Gold.Chemscore.Internal.Correction>
   9.000000E+99

> <Gold.Chemscore.Hbonds>
donor molecule, donor type, donor heavy atom, donor atom, acceptor molecule, acceptor atom, score
      L1  H     9    24       P1  7948  0.52
      L1  H     9    25       P1  7957  0.90

> <Gold.Chemscore.Hbond.Weighted>
-5.5065

> <Gold.Chemscore.Metal.Weighted>
-0.0000

> <Gold.Chemscore.Lipo.Weighted>
-9.7675

> <Gold.Chemscore.Internal_Hbond.Weighted>
0.0000

> <Gold.Chemscore.DEClash.Weighted>
1.4006

> <Gold.Chemscore.DEInternal.Weighted>
0.1306

> <Gold.Chemscore.Rot.Weighted>
2.5600

> <Gold.Chemscore.Internal.Correction.Weighted>
   9.000000E+99

> <Gold.Protein.RotatedTorsions>
[ 6907 6896 6895 6894 ] final  170.77 input  -60.11 | X-H torsion
[ 7974 7965 7964 7962 ] final -112.38 input  175.53 | X-H torsion
[ 8008 7997 7996 7995 ] final   71.97 input   59.86 | X-H torsion
[ 10167 10162 10161 10158 ] final  112.65 input  -65.29 | X-H torsion
[ 10718 10713 10712 10709 ] final -108.75 input   66.30 | X-H torsion
[ 10763 10752 10751 10750 ] final  -16.63 input  -60.55 | X-H torsion
[ 11005 11000 10999 10996 ] final  111.40 input  -57.11 | X-H torsion

> <Gold.Protein.ActiveResidues>
 VAL166  LYS551  ARG553  GLY616  TRP617  ASP618  TYR619  PRO620  LYS621  CYS622 
 ASP623  PHE694  ASN695  SER759  ASP760  ASP761  ALA762  ILE779  LEU786  VAL792 
 PHE793  MET794  SER795  GLU796  ALA797  LYS798  CYS799  TRP800  GLU811  SER814 

> <Gold.Protein.RotatedAtoms>
  151.8108  133.3381  159.3554 H   0  0  0  0  0  0  0  0  0  0  0  0  # atno 6907 bound_to 6896
  150.7326  134.5665  159.5878 H   0  0  0  0  0  0  0  0  0  0  0  0  # atno 6908 bound_to 6896
  152.3076  134.7537  160.0395 H   0  0  0  0  0  0  0  0  0  0  0  0  # atno 6909 bound_to 6896
  145.1447  140.8797  143.3681 H   0  0  0  0  0  0  0  0  0  0  0  0  # atno 7974 bound_to 7965
  155.7619  140.3486  155.5202 H   0  0  0  0  0  0  0  0  0  0  0  0  # atno 8008 bound_to 7997
  155.8906  140.1017  157.1442 H   0  0  0  0  0  0  0  0  0  0  0  0  # atno 8009 bound_to 7997
  154.4033  140.1305  156.4297 H   0  0  0  0  0  0  0  0  0  0  0  0  # atno 8010 bound_to 7997
  139.6520  144.7128  151.2030 H   0  0  0  0  0  0  0  0  0  0  0  0  # atno 10167 bound_to 10162
  156.0501  130.5729  150.8005 H   0  0  0  0  0  0  0  0  0  0  0  0  # atno 10718 bound_to 10713
  153.5615  135.7009  153.5545 H   0  0  0  0  0  0  0  0  0  0  0  0  # atno 10763 bound_to 10752
  153.3425  135.4017  155.1582 H   0  0  0  0  0  0  0  0  0  0  0  0  # atno 10764 bound_to 10752
  154.8647  135.3745  154.5133 H   0  0  0  0  0  0  0  0  0  0  0  0  # atno 10765 bound_to 10752
  139.8903  134.9507  156.6427 H   0  0  0  0  0  0  0  0  0  0  0  0  # atno 11005 bound_to 11000
  145.0495  139.3193  143.5936 LP  0  0  0  0  0  0  0  0  0  0  0  0  # atno 17320 bound_to 7965
  146.3501  139.9898  142.8687 LP  0  0  0  0  0  0  0  0  0  0  0  0  # atno 17321 bound_to 7965
  140.7542  143.6135  150.8582 LP  0  0  0  0  0  0  0  0  0  0  0  0  # atno 17342 bound_to 10162
  139.9784  143.5978  152.2951 LP  0  0  0  0  0  0  0  0  0  0  0  0  # atno 17343 bound_to 10162
  157.5419  131.0941  150.9815 LP  0  0  0  0  0  0  0  0  0  0  0  0  # atno 17370 bound_to 10713
  157.0096  130.5631  149.5319 LP  0  0  0  0  0  0  0  0  0  0  0  0  # atno 17371 bound_to 10713
  140.7581  133.8840  155.8397 LP  0  0  0  0  0  0  0  0  0  0  0  0  # atno 17394 bound_to 11000
  140.9945  134.1234  157.4377 LP  0  0  0  0  0  0  0  0  0  0  0  0  # atno 17395 bound_to 11000

$$$$
