AV-unprocessed.smi:1633|AV-procd|sdf|6532|dock7
  -GOLD-   22720 7213D 1   1.00000     0.00000
 Structure written by MMmdl.
 51 53  0  0  0  0  0  0  0  0  2 V2000
  142.8489  142.8056  157.5326 C   0  0  0  0  0  0  0  0  0  0  0  0
  143.4817  142.8574  156.1402 C   0  0  0  0  0  0  0  0  0  0  0  0
  142.7554  142.6572  155.1672 O   0  0  0  0  0  0  0  0  0  0  0  0
  144.8055  143.1192  156.0220 N   0  0  0  0  0  0  0  0  0  0  0  0
  145.4975  143.1443  154.7304 C   0  0  0  0  0  0  0  0  0  0  0  0
  146.4928  141.9717  154.6688 C   0  0  0  0  0  0  0  0  0  0  0  0
  147.4400  142.0033  155.8150 N   0  3  0  0  0  0  0  0  0  0  0  0
  148.4324  140.8994  155.7568 C   0  0  0  0  0  0  0  0  0  0  0  0
  149.6485  141.2390  154.8727 C   0  0  2  0  0  0  0  0  0  0  0  0
  149.2157  141.3332  153.5289 O   0  0  0  0  0  0  0  0  0  0  0  0
  150.7521  140.1690  154.9805 C   0  0  0  0  0  0  0  0  0  0  0  0
  151.2579  140.0338  156.3350 N   0  0  0  0  0  0  0  0  0  0  0  0
  151.6459  138.8971  156.9445 C   0  0  0  0  0  0  0  0  0  0  0  0
  152.0683  138.9940  158.2014 N   0  0  0  0  0  0  0  0  0  0  0  0
  151.9437  140.3529  158.4344 C   0  0  0  0  0  0  0  0  0  0  0  0
  152.2236  141.1149  159.5896 C   0  0  0  0  0  0  0  0  0  0  0  0
  152.0131  142.5121  159.6050 C   0  0  0  0  0  0  0  0  0  0  0  0
  152.3235  143.2919  160.8704 C   0  0  0  0  0  0  0  0  0  0  0  0
  151.5178  143.1689  158.4496 C   0  0  0  0  0  0  0  0  0  0  0  0
  151.2864  144.6698  158.4420 C   0  0  0  0  0  0  0  0  0  0  0  0
  151.2322  142.4227  157.2873 C   0  0  0  0  0  0  0  0  0  0  0  0
  151.4428  141.0324  157.2856 C   0  0  0  0  0  0  0  0  0  0  0  0
  146.7472  142.1163  157.1286 C   0  0  0  0  0  0  0  0  0  0  0  0
  145.7443  143.2846  157.1362 C   0  0  0  0  0  0  0  0  0  0  0  0
  143.3055  142.0219  158.1377 H   0  0  0  0  0  0  0  0  0  0  0  0
  141.7819  142.5921  157.4612 H   0  0  0  0  0  0  0  0  0  0  0  0
  142.9621  143.7618  158.0444 H   0  0  0  0  0  0  0  0  0  0  0  0
  144.8154  143.0928  153.8806 H   0  0  0  0  0  0  0  0  0  0  0  0
  146.0275  144.0924  154.6276 H   0  0  0  0  0  0  0  0  0  0  0  0
  145.9508  141.0245  154.6738 H   0  0  0  0  0  0  0  0  0  0  0  0
  147.0482  142.0166  153.7311 H   0  0  0  0  0  0  0  0  0  0  0  0
  148.7516  140.6472  156.7691 H   0  0  0  0  0  0  0  0  0  0  0  0
  147.9564  140.0026  155.3560 H   0  0  0  0  0  0  0  0  0  0  0  0
  150.0735  142.1994  155.1625 H   0  0  0  0  0  0  0  0  0  0  0  0
  149.4328  140.5264  153.0856 H   0  0  0  0  0  0  0  0  0  0  0  0
  150.3683  139.1986  154.6623 H   0  0  0  0  0  0  0  0  0  0  0  0
  151.5855  140.4055  154.3177 H   0  0  0  0  0  0  0  0  0  0  0  0
  151.6110  137.9434  156.4385 H   0  0  0  0  0  0  0  0  0  0  0  0
  152.6016  140.6141  160.4690 H   0  0  0  0  0  0  0  0  0  0  0  0
  153.1071  144.0261  160.6832 H   0  0  0  0  0  0  0  0  0  0  0  0
  152.6648  142.6342  161.6702 H   0  0  0  0  0  0  0  0  0  0  0  0
  151.4353  143.8151  161.2252 H   0  0  0  0  0  0  0  0  0  0  0  0
  150.9303  145.0127  157.4700 H   0  0  0  0  0  0  0  0  0  0  0  0
  152.2121  145.2011  158.6645 H   0  0  0  0  0  0  0  0  0  0  0  0
  150.5407  144.9448  159.1881 H   0  0  0  0  0  0  0  0  0  0  0  0
  150.8514  142.9104  156.4020 H   0  0  0  0  0  0  0  0  0  0  0  0
  146.2253  141.1827  157.3446 H   0  0  0  0  0  0  0  0  0  0  0  0
  147.4709  142.2667  157.9284 H   0  0  0  0  0  0  0  0  0  0  0  0
  146.2746  144.2302  157.0141 H   0  0  0  0  0  0  0  0  0  0  0  0
  145.2625  143.3456  158.1109 H   0  0  0  0  0  0  0  0  0  0  0  0
  147.9714  142.8551  155.7001 H   0  0  0  0  0  0  0  0  0  0  0  0
  1  2  1  0  0  0  0
  1 25  1  0  0  0  0
  1 26  1  0  0  0  0
  1 27  1  0  0  0  0
  2  3  2  0  0  0  0
  2  4  1  0  0  0  0
  4 24  1  0  0  0  0
  4  5  1  0  0  0  0
  5  6  1  0  0  0  0
  5 28  1  0  0  0  0
  5 29  1  0  0  0  0
  6  7  1  0  0  0  0
  6 30  1  0  0  0  0
  6 31  1  0  0  0  0
  7  8  1  0  0  0  0
  7 23  1  0  0  0  0
  7 51  1  0  0  0  0
  8  9  1  0  0  0  0
  8 32  1  0  0  0  0
  8 33  1  0  0  0  0
  9 10  1  0  0  0  0
  9 11  1  0  0  0  0
  9 34  1  0  0  0  0
 10 35  1  0  0  0  0
 11 12  1  0  0  0  0
 11 36  1  0  0  0  0
 11 37  1  0  0  0  0
 12 22  1  0  0  0  0
 12 13  1  0  0  0  0
 13 14  2  0  0  0  0
 13 38  1  0  0  0  0
 14 15  1  0  0  0  0
 15 22  2  0  0  0  0
 15 16  1  0  0  0  0
 16 17  2  0  0  0  0
 16 39  1  0  0  0  0
 17 18  1  0  0  0  0
 17 19  1  0  0  0  0
 18 40  1  0  0  0  0
 18 41  1  0  0  0  0
 18 42  1  0  0  0  0
 19 20  1  0  0  0  0
 19 21  2  0  0  0  0
 20 43  1  0  0  0  0
 20 44  1  0  0  0  0
 20 45  1  0  0  0  0
 21 22  1  0  0  0  0
 21 46  1  0  0  0  0
 23 24  1  0  0  0  0
 23 47  1  0  0  0  0
 23 48  1  0  0  0  0
 24 49  1  0  0  0  0
 24 50  1  0  0  0  0
M  CHG  1   7   1
M  END
> <s_m_source_file>
AV-unprocessed.smi

> <i_m_source_file_index>
1633

> <i_lp_mmshare_version>
43012

> <i_f3d_flags>
0

> <s_epik_input>
W0NIM11DKD1PKU4xW0NIMl1bQ0gyXU4oW0NIMl1bQ0gyXTEpW0NIMl1bQ0BIXShbT0hdKVtDSDJdbihbY0hdbjIpYyhjMjMpW2NIXWMoW0NIM10pYyhbY0hdMylbQ0gzXQ==

> <s_epik_cmdline>
J2VwaWtfcHl0aG9uJywgJy1waCcsICc3LjAnLCAnLXRuJywgJzgnLCAnLW1hJywgJzIwMCcsICctbWV0YWxfYmluZGluZycsICctaW1hZScsICc8aW5maWxlLm1hZT4nLCAnLW9tYWUnLCAnPG91dGZpbGUubWFlPic=

> <r_epik_Ionization_Penalty>
0.0939669

> <r_epik_Ionization_Penalty_Charging>
0.00645254

> <r_epik_Ionization_Penalty_Neutral>
0.0875144

> <r_epik_State_Penalty>
0.0777239

> <r_epik_Charging_Adjusted_Penalty>
0.0841764

> <i_epik_Tot_Q>
1

> <i_epik_Tot_abs_Q>
1

> <r_epik_Metal_State_Penalty>
7.71307e-05

> <b_epik_Metal_Only>
0

> <s_lp_Force_Field>
OPLS_2005

> <r_lp_Energy>
43.6945

> <b_lp_Chiralities_Consistent>
1

> <s_lp_Variant>
AV-unprocessed.smi:1633-1

> <Gold.Version>
5.8.1

> <Gold.Id.Protein>
6NUR|6NUR_protein|mol2

> <Gold.PLP.Fitness>
52.8644

> <Gold.PLP.PLP>
-43.5501

> <Gold.PLP.part.hbond>
-4.0000

> <Gold.PLP.part.metal>
0.0000

> <Gold.PLP.part.buried>
-2.8908

> <Gold.PLP.part.nonpolar>
-36.2003

> <Gold.PLP.part.repulsive>
0.2023

> <Gold.PLP.ligand.clash>
0.0000

> <Gold.PLP.ligand.torsion>
0.7315

> <Gold.PLP.Chemscore.Hbond>
3.5680

> <Gold.PLP.Chemscore.CHOScore>
0.0000

> <Gold.PLP.Chemscore.Metal>
0.0000

> <Gold.Chemscore.Hbonds>
donor molecule, donor type, donor heavy atom, donor atom, acceptor molecule, acceptor atom, score
      L1  H     7    51       P1  8028  1.89
      L1  H    10    35       P1  7957  0.66
      P1  H  8011  8017       L1    10  0.84

> <Gold.PLP.Chemscore.Internal.Correction>
0.0733

> <Gold.Rescore>
     Score         DG    S(hbond)    S(metal)    S(lipo)     H(rot)  DE(clash)    DE(int)     intcor
     17.53     -19.67       2.06        0.00     109.69       2.16       1.28       0.86       ----

> <Gold.Chemscore.Fitness>
17.5323

> <Gold.Chemscore.DG>
-19.6651

> <Gold.Chemscore.ZeroCoef>
-5.4800

> <Gold.Chemscore.Hbond>
2.0608

> <Gold.Chemscore.Metal>
0.0000

> <Gold.Chemscore.Lipo>
109.6902

> <Gold.Chemscore.Internal_Hbond>
0.0000

> <Gold.Chemscore.DEClash>
1.2763

> <Gold.Chemscore.DEInternal>
0.8566

> <Gold.Chemscore.Rot>
2.1608

> <Gold.Chemscore.Internal.Correction>
   9.000000E+99

> <Gold.Chemscore.Hbonds>
donor molecule, donor type, donor heavy atom, donor atom, acceptor molecule, acceptor atom, score
      L1  H     7    51       P1  8028  0.71
      L1  H    10    35       P1  7957  0.62
      P1  H  8011  8017       L1    10  0.16

> <Gold.Chemscore.Hbond.Weighted>
-6.8831

> <Gold.Chemscore.Metal.Weighted>
-0.0000

> <Gold.Chemscore.Lipo.Weighted>
-12.8338

> <Gold.Chemscore.Internal_Hbond.Weighted>
0.0000

> <Gold.Chemscore.DEClash.Weighted>
1.2763

> <Gold.Chemscore.DEInternal.Weighted>
0.8566

> <Gold.Chemscore.Rot.Weighted>
5.5317

> <Gold.Chemscore.Internal.Correction.Weighted>
   9.000000E+99

> <Gold.Protein.RotatedTorsions>
[ 6907 6896 6895 6894 ] final   73.76 input  -60.11 | X-H torsion
[ 7974 7965 7964 7962 ] final   14.41 input  175.53 | X-H torsion
[ 8008 7997 7996 7995 ] final -150.91 input   59.86 | X-H torsion
[ 10167 10162 10161 10158 ] final  178.18 input  -65.29 | X-H torsion
[ 10718 10713 10712 10709 ] final  179.03 input   66.30 | X-H torsion
[ 10763 10752 10751 10750 ] final   78.08 input  -60.55 | X-H torsion
[ 11005 11000 10999 10996 ] final  -71.33 input  -57.11 | X-H torsion

> <Gold.Protein.ActiveResidues>
 VAL166  LYS551  ARG553  GLY616  TRP617  ASP618  TYR619  PRO620  LYS621  CYS622 
 ASP623  PHE694  ASN695  SER759  ASP760  ASP761  ALA762  ILE779  LEU786  VAL792 
 PHE793  MET794  SER795  GLU796  ALA797  LYS798  CYS799  TRP800  GLU811  SER814 

> <Gold.Protein.RotatedAtoms>
  152.4940  134.4373  159.9531 H   0  0  0  0  0  0  0  0  0  0  0  0  # atno 6907 bound_to 6896
  151.4355  133.3652  159.2782 H   0  0  0  0  0  0  0  0  0  0  0  0  # atno 6908 bound_to 6896
  150.9124  134.8565  159.7494 H   0  0  0  0  0  0  0  0  0  0  0  0  # atno 6909 bound_to 6896
  146.2306  139.9046  142.8534 H   0  0  0  0  0  0  0  0  0  0  0  0  # atno 7974 bound_to 7965
  155.6311  140.0691  157.2648 H   0  0  0  0  0  0  0  0  0  0  0  0  # atno 8008 bound_to 7997
  154.4206  140.1767  156.1522 H   0  0  0  0  0  0  0  0  0  0  0  0  # atno 8009 bound_to 7997
  155.9932  140.3343  155.6777 H   0  0  0  0  0  0  0  0  0  0  0  0  # atno 8010 bound_to 7997
  139.5283  144.2711  152.0627 H   0  0  0  0  0  0  0  0  0  0  0  0  # atno 10167 bound_to 10162
  156.8818  130.9818  151.3061 H   0  0  0  0  0  0  0  0  0  0  0  0  # atno 10718 bound_to 10713
  153.0847  135.4890  154.8573 H   0  0  0  0  0  0  0  0  0  0  0  0  # atno 10763 bound_to 10752
  154.7196  135.3036  154.9071 H   0  0  0  0  0  0  0  0  0  0  0  0  # atno 10764 bound_to 10752
  153.9740  135.6798  153.4801 H   0  0  0  0  0  0  0  0  0  0  0  0  # atno 10765 bound_to 10752
  141.1590  133.6814  156.6889 H   0  0  0  0  0  0  0  0  0  0  0  0  # atno 11005 bound_to 11000
  145.2290  140.9965  143.4002 LP  0  0  0  0  0  0  0  0  0  0  0  0  # atno 17320 bound_to 7965
  144.9546  139.4045  143.6385 LP  0  0  0  0  0  0  0  0  0  0  0  0  # atno 17321 bound_to 7965
  140.2171  144.4504  150.6359 LP  0  0  0  0  0  0  0  0  0  0  0  0  # atno 17342 bound_to 10162
  140.6443  143.2210  151.6221 LP  0  0  0  0  0  0  0  0  0  0  0  0  # atno 17343 bound_to 10162
  157.6136  130.8601  149.8991 LP  0  0  0  0  0  0  0  0  0  0  0  0  # atno 17370 bound_to 10713
  156.0673  130.3690  150.0850 LP  0  0  0  0  0  0  0  0  0  0  0  0  # atno 17371 bound_to 10713
  140.3045  134.8136  157.4125 LP  0  0  0  0  0  0  0  0  0  0  0  0  # atno 17394 bound_to 11000
  140.1232  134.5192  155.8166 LP  0  0  0  0  0  0  0  0  0  0  0  0  # atno 17395 bound_to 11000

$$$$
