AV-unprocessed.smi:2583|AV-procd|sdf|10137|dock10
  -GOLD-   2272014153D 1   1.00000     0.00000
 Structure written by MMmdl.
 55 57  0  0  0  0  0  0  0  0  3 V2000
  152.2254  144.9442  159.0693 C   0  0  0  0  0  0  0  0  0  0  0  0
  152.3070  143.4321  159.0506 C   0  0  0  0  0  0  0  0  0  0  0  0
  152.9919  142.7278  160.0623 C   0  0  0  0  0  0  0  0  0  0  0  0
  153.0786  141.3814  160.0981 N   0  0  0  0  0  0  0  0  0  0  0  0
  152.4827  140.6831  159.1083 C   0  0  0  0  0  0  0  0  0  0  0  0
  151.7867  141.2826  158.0375 C   0  0  0  0  0  0  0  0  0  0  0  0
  151.1887  140.4346  157.0671 N   0  0  0  0  0  0  0  0  0  0  0  0
  150.5653  139.2607  157.2660 C   0  0  0  0  0  0  0  0  0  0  0  0
  150.3715  138.7363  158.3627 O   0  0  0  0  0  0  0  0  0  0  0  0
  150.1460  138.7274  156.1091 N   0  0  0  0  0  0  0  0  0  0  0  0
  149.4133  137.4702  155.9861 C   0  0  2  0  0  0  0  0  0  0  0  0
  150.2282  136.4569  155.1735 C   0  0  0  0  0  0  0  0  0  0  0  0
  149.4476  135.1466  154.9661 C   0  0  0  0  0  0  0  0  0  0  0  0
  148.1291  135.3821  154.3062 N   0  3  1  0  0  0  0  0  0  0  0  0
  147.3458  134.1432  153.9746 C   0  0  2  0  0  0  0  0  0  0  0  0
  147.0457  133.2003  155.1676 C   0  0  0  0  0  0  0  0  0  0  0  0
  148.3059  132.4780  155.6813 C   0  0  0  0  0  0  0  0  0  0  0  0
  148.9617  131.7135  154.5926 N   0  3  2  0  0  0  0  0  0  0  0  0
  150.1234  130.9337  155.0719 C   0  0  0  0  0  0  0  0  0  0  0  0
  149.2968  132.5739  153.4313 C   0  0  0  0  0  0  0  0  0  0  0  0
  148.0439  133.2875  152.8899 C   0  0  0  0  0  0  0  0  0  0  0  0
  147.3220  136.3581  155.0960 C   0  0  0  0  0  0  0  0  0  0  0  0
  148.0610  137.6908  155.2928 C   0  0  0  0  0  0  0  0  0  0  0  0
  151.6897  142.6947  158.0205 C   0  0  0  0  0  0  0  0  0  0  0  0
  152.8981  145.3680  159.8154 H   0  0  0  0  0  0  0  0  0  0  0  0
  151.2093  145.2631  159.3031 H   0  0  0  0  0  0  0  0  0  0  0  0
  152.4980  145.3513  158.0952 H   0  0  0  0  0  0  0  0  0  0  0  0
  153.4776  143.2555  160.8698 H   0  0  0  0  0  0  0  0  0  0  0  0
  152.5704  139.6082  159.1714 H   0  0  0  0  0  0  0  0  0  0  0  0
  151.1836  140.7918  156.1229 H   0  0  0  0  0  0  0  0  0  0  0  0
  150.3466  139.2277  155.2552 H   0  0  0  0  0  0  0  0  0  0  0  0
  149.2438  137.0533  156.9811 H   0  0  0  0  0  0  0  0  0  0  0  0
  150.4880  136.8813  154.2024 H   0  0  0  0  0  0  0  0  0  0  0  0
  151.1711  136.2455  155.6796 H   0  0  0  0  0  0  0  0  0  0  0  0
  150.0812  134.5028  154.3593 H   0  0  0  0  0  0  0  0  0  0  0  0
  149.2938  134.6416  155.9210 H   0  0  0  0  0  0  0  0  0  0  0  0
  146.3814  134.4754  153.5864 H   0  0  0  0  0  0  0  0  0  0  0  0
  146.5273  133.7117  155.9779 H   0  0  0  0  0  0  0  0  0  0  0  0
  146.3361  132.4417  154.8331 H   0  0  0  0  0  0  0  0  0  0  0  0
  149.0147  133.1913  156.1036 H   0  0  0  0  0  0  0  0  0  0  0  0
  148.0288  131.7950  156.4854 H   0  0  0  0  0  0  0  0  0  0  0  0
  150.9102  131.5908  155.4451 H   0  0  0  0  0  0  0  0  0  0  0  0
  150.5380  130.3260  154.2669 H   0  0  0  0  0  0  0  0  0  0  0  0
  149.8293  130.2604  155.8776 H   0  0  0  0  0  0  0  0  0  0  0  0
  150.0544  133.3041  153.7198 H   0  0  0  0  0  0  0  0  0  0  0  0
  149.7336  131.9606  152.6423 H   0  0  0  0  0  0  0  0  0  0  0  0
  147.3423  132.5319  152.5330 H   0  0  0  0  0  0  0  0  0  0  0  0
  148.3034  133.8688  152.0073 H   0  0  0  0  0  0  0  0  0  0  0  0
  146.3729  136.5711  154.6086 H   0  0  0  0  0  0  0  0  0  0  0  0
  147.0791  135.9251  156.0679 H   0  0  0  0  0  0  0  0  0  0  0  0
  147.4418  138.3669  155.8840 H   0  0  0  0  0  0  0  0  0  0  0  0
  148.2092  138.1732  154.3253 H   0  0  0  0  0  0  0  0  0  0  0  0
  151.1439  143.2184  157.2507 H   0  0  0  0  0  0  0  0  0  0  0  0
  148.3417  135.8271  153.4250 H   0  0  0  0  0  0  0  0  0  0  0  0
  148.2841  131.0392  154.2654 H   0  0  0  0  0  0  0  0  0  0  0  0
  1  2  1  0  0  0  0
  1 25  1  0  0  0  0
  1 26  1  0  0  0  0
  1 27  1  0  0  0  0
  2 24  1  0  0  0  0
  2  3  2  0  0  0  0
  3  4  1  0  0  0  0
  3 28  1  0  0  0  0
  4  5  2  0  0  0  0
  5  6  1  0  0  0  0
  5 29  1  0  0  0  0
  6  7  1  0  0  0  0
  6 24  2  0  0  0  0
  7  8  1  0  0  0  0
  7 30  1  0  0  0  0
  8  9  2  0  0  0  0
  8 10  1  0  0  0  0
 10 11  1  0  0  0  0
 10 31  1  0  0  0  0
 11 23  1  0  0  0  0
 11 12  1  0  0  0  0
 11 32  1  0  0  0  0
 12 13  1  0  0  0  0
 12 33  1  0  0  0  0
 12 34  1  0  0  0  0
 13 14  1  0  0  0  0
 13 35  1  0  0  0  0
 13 36  1  0  0  0  0
 14 15  1  0  0  0  0
 14 22  1  0  0  0  0
 14 54  1  0  0  0  0
 15 21  1  0  0  0  0
 15 16  1  0  0  0  0
 15 37  1  0  0  0  0
 16 17  1  0  0  0  0
 16 38  1  0  0  0  0
 16 39  1  0  0  0  0
 17 18  1  0  0  0  0
 17 40  1  0  0  0  0
 17 41  1  0  0  0  0
 18 19  1  0  0  0  0
 18 20  1  0  0  0  0
 18 55  1  0  0  0  0
 19 42  1  0  0  0  0
 19 43  1  0  0  0  0
 19 44  1  0  0  0  0
 20 21  1  0  0  0  0
 20 45  1  0  0  0  0
 20 46  1  0  0  0  0
 21 47  1  0  0  0  0
 21 48  1  0  0  0  0
 22 23  1  0  0  0  0
 22 49  1  0  0  0  0
 22 50  1  0  0  0  0
 23 51  1  0  0  0  0
 23 52  1  0  0  0  0
 24 53  1  0  0  0  0
M  CHG  1  14   1
M  CHG  1  18   1
M  END
> <s_m_source_file>
AV-unprocessed.smi

> <i_m_source_file_index>
2583

> <i_lp_mmshare_version>
43012

> <i_f3d_flags>
0

> <s_epik_input>
W0NIM11jMVtjSF1uW2NIXWMoW2NIXTEpW05IXUMoPU8pW05IXVtDSF0yW0NIMl1bQ0gyXU4oW0NIMl1bQ0gyXTIpW0NIXTNbQ0gyXVtDSDJdTihbQ0gzXSlbQ0gyXVtDSDJdMw==

> <s_epik_cmdline>
J2VwaWtfcHl0aG9uJywgJy1waCcsICc3LjAnLCAnLXRuJywgJzgnLCAnLW1hJywgJzIwMCcsICctbWV0YWxfYmluZGluZycsICctaW1hZScsICc8aW5maWxlLm1hZT4nLCAnLW9tYWUnLCAnPG91dGZpbGUubWFlPic=

> <r_epik_Ionization_Penalty>
0.188357

> <r_epik_Ionization_Penalty_Charging>
0.180787

> <r_epik_Ionization_Penalty_Neutral>
0.00756971

> <r_epik_State_Penalty>
0.157948

> <r_epik_Charging_Adjusted_Penalty>
0.338735

> <i_epik_Tot_Q>
2

> <i_epik_Tot_abs_Q>
2

> <r_epik_Metal_State_Penalty>
0.153874

> <b_epik_Metal_Only>
0

> <s_lp_Force_Field>
OPLS_2005

> <r_lp_Energy>
48.801

> <b_lp_Chiralities_Consistent>
1

> <s_lp_Variant>
AV-unprocessed.smi:2583-3

> <Gold.Version>
5.8.1

> <Gold.Id.Protein>
6NUR|6NUR_protein|mol2

> <Gold.PLP.Fitness>
40.1980

> <Gold.PLP.PLP>
-35.3232

> <Gold.PLP.part.hbond>
-1.0000

> <Gold.PLP.part.metal>
0.0000

> <Gold.PLP.part.buried>
-5.3756

> <Gold.PLP.part.nonpolar>
-28.5248

> <Gold.PLP.part.repulsive>
0.0806

> <Gold.PLP.ligand.clash>
0.3687

> <Gold.PLP.ligand.torsion>
0.3949

> <Gold.PLP.Chemscore.Hbond>
2.0000

> <Gold.PLP.Chemscore.CHOScore>
0.0000

> <Gold.PLP.Chemscore.Metal>
0.0000

> <Gold.Chemscore.Hbonds>
donor molecule, donor type, donor heavy atom, donor atom, acceptor molecule, acceptor atom, score
      L1  H    14    54       P1  7948  2.00

> <Gold.PLP.Chemscore.Internal.Correction>
0.0332

> <Gold.Rescore>
     Score         DG    S(hbond)    S(metal)    S(lipo)     H(rot)  DE(clash)    DE(int)     intcor
     14.15     -17.80       1.00        0.00     103.30       1.21       0.00       3.65       ----

> <Gold.Chemscore.Fitness>
14.1527

> <Gold.Chemscore.DG>
-17.8015

> <Gold.Chemscore.ZeroCoef>
-5.4800

> <Gold.Chemscore.Hbond>
0.9972

> <Gold.Chemscore.Metal>
0.0000

> <Gold.Chemscore.Lipo>
103.3029

> <Gold.Chemscore.Internal_Hbond>
0.0000

> <Gold.Chemscore.DEClash>
0.0037

> <Gold.Chemscore.DEInternal>
3.6452

> <Gold.Chemscore.Rot>
1.2092

> <Gold.Chemscore.Internal.Correction>
   9.000000E+99

> <Gold.Chemscore.Hbonds>
donor molecule, donor type, donor heavy atom, donor atom, acceptor molecule, acceptor atom, score
      L1  H    14    54       P1  7948  1.00

> <Gold.Chemscore.Hbond.Weighted>
-3.3305

> <Gold.Chemscore.Metal.Weighted>
-0.0000

> <Gold.Chemscore.Lipo.Weighted>
-12.0864

> <Gold.Chemscore.Internal_Hbond.Weighted>
0.0000

> <Gold.Chemscore.DEClash.Weighted>
0.0037

> <Gold.Chemscore.DEInternal.Weighted>
3.6452

> <Gold.Chemscore.Rot.Weighted>
3.0955

> <Gold.Chemscore.Internal.Correction.Weighted>
   9.000000E+99

> <Gold.Protein.RotatedTorsions>
[ 6907 6896 6895 6894 ] final  163.59 input  -60.11 | X-H torsion
[ 7974 7965 7964 7962 ] final  -25.62 input  175.53 | X-H torsion
[ 8008 7997 7996 7995 ] final  121.46 input   59.86 | X-H torsion
[ 10167 10162 10161 10158 ] final  -54.56 input  -65.29 | X-H torsion
[ 10718 10713 10712 10709 ] final -173.92 input   66.30 | X-H torsion
[ 10763 10752 10751 10750 ] final -111.71 input  -60.55 | X-H torsion
[ 11005 11000 10999 10996 ] final  157.91 input  -57.11 | X-H torsion

> <Gold.Protein.ActiveResidues>
 VAL166  LYS551  ARG553  GLY616  TRP617  ASP618  TYR619  PRO620  LYS621  CYS622 
 ASP623  PHE694  ASN695  SER759  ASP760  ASP761  ALA762  ILE779  LEU786  VAL792 
 PHE793  MET794  SER795  GLU796  ALA797  LYS798  CYS799  TRP800  GLU811  SER814 

> <Gold.Protein.RotatedAtoms>
  151.9229  133.3590  159.3903 H   0  0  0  0  0  0  0  0  0  0  0  0  # atno 6907 bound_to 6896
  150.7033  134.4617  159.5393 H   0  0  0  0  0  0  0  0  0  0  0  0  # atno 6908 bound_to 6896
  152.2243  134.8383  160.0533 H   0  0  0  0  0  0  0  0  0  0  0  0  # atno 6909 bound_to 6896
  146.1479  140.4911  142.8624 H   0  0  0  0  0  0  0  0  0  0  0  0  # atno 7974 bound_to 7965
  156.2687  140.2808  156.1312 H   0  0  0  0  0  0  0  0  0  0  0  0  # atno 8008 bound_to 7997
  155.1053  140.0390  157.2726 H   0  0  0  0  0  0  0  0  0  0  0  0  # atno 8009 bound_to 7997
  154.6784  140.2603  155.6939 H   0  0  0  0  0  0  0  0  0  0  0  0  # atno 8010 bound_to 7997
  140.6424  143.2515  151.4954 H   0  0  0  0  0  0  0  0  0  0  0  0  # atno 10167 bound_to 10162
  156.7774  130.9471  151.3120 H   0  0  0  0  0  0  0  0  0  0  0  0  # atno 10718 bound_to 10713
  154.8314  135.4517  154.1081 H   0  0  0  0  0  0  0  0  0  0  0  0  # atno 10763 bound_to 10752
  153.2351  135.6910  153.7852 H   0  0  0  0  0  0  0  0  0  0  0  0  # atno 10764 bound_to 10752
  153.7220  135.3340  155.3245 H   0  0  0  0  0  0  0  0  0  0  0  0  # atno 10765 bound_to 10752
  140.1814  134.8473  157.2807 H   0  0  0  0  0  0  0  0  0  0  0  0  # atno 11005 bound_to 11000
  144.7868  140.5952  143.6568 LP  0  0  0  0  0  0  0  0  0  0  0  0  # atno 17320 bound_to 7965
  145.4894  139.1490  143.3718 LP  0  0  0  0  0  0  0  0  0  0  0  0  # atno 17321 bound_to 7965
  139.5633  144.2103  152.1725 LP  0  0  0  0  0  0  0  0  0  0  0  0  # atno 17342 bound_to 10162
  140.1378  144.5230  150.6763 LP  0  0  0  0  0  0  0  0  0  0  0  0  # atno 17343 bound_to 10162
  157.6662  130.9010  149.9938 LP  0  0  0  0  0  0  0  0  0  0  0  0  # atno 17370 bound_to 10713
  156.1239  130.3645  149.9841 LP  0  0  0  0  0  0  0  0  0  0  0  0  # atno 17371 bound_to 10713
  140.2263  134.3963  155.7542 LP  0  0  0  0  0  0  0  0  0  0  0  0  # atno 17394 bound_to 11000
  141.2223  133.7192  156.8570 LP  0  0  0  0  0  0  0  0  0  0  0  0  # atno 17395 bound_to 11000

$$$$
