AV-unprocessed.smi:3135|AV-procd|sdf|11945|dock10
  -GOLD-   2272017333D 1   1.00000     0.00000
 Structure written by MMmdl.
 38 39  0  0  0  0  0  0  0  0  2 V2000
  151.7668  145.5124  159.6347 C   0  0  0  0  0  0  0  0  0  0  0  0
  152.2684  144.2537  160.2818 C   0  0  0  0  0  0  0  0  0  0  0  0
  152.1183  143.8499  161.6390 C   0  0  0  0  0  0  0  0  0  0  0  0
  152.6796  142.6789  161.8922 N   0  0  0  0  0  0  0  0  0  0  0  0
  153.2059  142.2935  160.7098 N   0  0  0  0  0  0  0  0  0  0  0  0
  153.9095  141.0262  160.6075 C   0  0  0  0  0  0  0  0  0  0  0  0
  153.4430  140.2042  159.4022 C   0  0  0  0  0  0  0  0  0  0  0  0
  154.2204  139.4215  158.8566 O   0  0  0  0  0  0  0  0  0  0  0  0
  152.1816  140.3972  158.9819 N   0  0  0  0  0  0  0  0  0  0  0  0
  151.5609  139.6956  157.8647 C   0  0  0  0  0  0  0  0  0  0  0  0
  150.9162  140.6787  156.8690 C   0  0  0  0  0  0  0  0  0  0  0  0
  150.4102  140.0153  155.6406 N   0  3  1  0  0  0  0  0  0  0  0  0
  149.6210  140.9543  154.8110 C   0  0  0  0  0  0  0  0  0  0  0  0
  151.4863  139.3658  154.8531 C   0  0  0  0  0  0  0  0  0  0  0  0
  151.0269  138.1672  154.0506 C   0  0  0  0  0  0  0  0  0  0  0  0
  151.8331  137.9662  155.3111 C   0  0  0  0  0  0  0  0  0  0  0  0
  152.9753  143.2276  159.7217 C   0  0  0  0  0  0  0  0  0  0  0  0
  150.7827  145.7940  160.0093 H   0  0  0  0  0  0  0  0  0  0  0  0
  151.6791  145.4053  158.5532 H   0  0  0  0  0  0  0  0  0  0  0  0
  152.4354  146.3529  159.8215 H   0  0  0  0  0  0  0  0  0  0  0  0
  151.6204  144.3709  162.4437 H   0  0  0  0  0  0  0  0  0  0  0  0
  154.9795  141.2194  160.5228 H   0  0  0  0  0  0  0  0  0  0  0  0
  153.7575  140.4615  161.5291 H   0  0  0  0  0  0  0  0  0  0  0  0
  151.6080  141.0575  159.4871 H   0  0  0  0  0  0  0  0  0  0  0  0
  152.3127  139.0737  157.3778 H   0  0  0  0  0  0  0  0  0  0  0  0
  150.8057  139.0182  158.2643 H   0  0  0  0  0  0  0  0  0  0  0  0
  150.0854  141.1760  157.3723 H   0  0  0  0  0  0  0  0  0  0  0  0
  151.6204  141.4633  156.5878 H   0  0  0  0  0  0  0  0  0  0  0  0
  150.2391  141.7858  154.4698 H   0  0  0  0  0  0  0  0  0  0  0  0
  148.7831  141.3613  155.3781 H   0  0  0  0  0  0  0  0  0  0  0  0
  149.2081  140.4561  153.9339 H   0  0  0  0  0  0  0  0  0  0  0  0
  152.2493  140.0264  154.4447 H   0  0  0  0  0  0  0  0  0  0  0  0
  149.9755  137.8868  154.0839 H   0  0  0  0  0  0  0  0  0  0  0  0
  151.5281  137.9757  153.1040 H   0  0  0  0  0  0  0  0  0  0  0  0
  152.8661  137.6440  155.1974 H   0  0  0  0  0  0  0  0  0  0  0  0
  151.3123  137.5599  156.1763 H   0  0  0  0  0  0  0  0  0  0  0  0
  153.3285  143.0858  158.7109 H   0  0  0  0  0  0  0  0  0  0  0  0
  149.7742  139.2882  155.9354 H   0  0  0  0  0  0  0  0  0  0  0  0
  1  2  1  0  0  0  0
  1 18  1  0  0  0  0
  1 19  1  0  0  0  0
  1 20  1  0  0  0  0
  2 17  2  0  0  0  0
  2  3  1  0  0  0  0
  3  4  2  0  0  0  0
  3 21  1  0  0  0  0
  4  5  1  0  0  0  0
  5  6  1  0  0  0  0
  5 17  1  0  0  0  0
  6  7  1  0  0  0  0
  6 22  1  0  0  0  0
  6 23  1  0  0  0  0
  7  8  2  0  0  0  0
  7  9  1  0  0  0  0
  9 10  1  0  0  0  0
  9 24  1  0  0  0  0
 10 11  1  0  0  0  0
 10 25  1  0  0  0  0
 10 26  1  0  0  0  0
 11 12  1  0  0  0  0
 11 27  1  0  0  0  0
 11 28  1  0  0  0  0
 12 13  1  0  0  0  0
 12 14  1  0  0  0  0
 12 38  1  0  0  0  0
 13 29  1  0  0  0  0
 13 30  1  0  0  0  0
 13 31  1  0  0  0  0
 14 16  1  0  0  0  0
 14 15  1  0  0  0  0
 14 32  1  0  0  0  0
 15 16  1  0  0  0  0
 15 33  1  0  0  0  0
 15 34  1  0  0  0  0
 16 35  1  0  0  0  0
 16 36  1  0  0  0  0
 17 37  1  0  0  0  0
M  CHG  1  12   1
M  END
> <s_m_source_file>
AV-unprocessed.smi

> <i_m_source_file_index>
3135

> <i_lp_mmshare_version>
43012

> <i_f3d_flags>
0

> <s_epik_input>
W0NIM11jMVtjSF1ubihbY0hdMSlbQ0gyXUMoPU8pW05IXVtDSDJdW0NIMl1OKFtDSDNdKVtDSF0yW0NIMl1bQ0gyXTI=

> <s_epik_cmdline>
J2VwaWtfcHl0aG9uJywgJy1waCcsICc3LjAnLCAnLXRuJywgJzgnLCAnLW1hJywgJzIwMCcsICctbWV0YWxfYmluZGluZycsICctaW1hZScsICc8aW5maWxlLm1hZT4nLCAnLW9tYWUnLCAnPG91dGZpbGUubWFlPic=

> <r_lp_tautomer_probability>
1

> <r_epik_Ionization_Penalty>
0.174318

> <r_epik_Ionization_Penalty_Charging>
0.174302

> <r_epik_Ionization_Penalty_Neutral>
1.62778e-05

> <r_epik_State_Penalty>
0.163722

> <r_epik_Charging_Adjusted_Penalty>
0.338024

> <i_epik_Tot_Q>
1

> <i_epik_Tot_abs_Q>
1

> <r_epik_Metal_State_Penalty>
0.163727

> <b_epik_Metal_Only>
0

> <s_lp_Force_Field>
OPLS_2005

> <r_lp_Energy>
17.6271

> <b_lp_Chiralities_Consistent>
1

> <s_lp_Variant>
AV-unprocessed.smi:3135-1

> <Gold.Version>
5.8.1

> <Gold.Id.Protein>
6NUR|6NUR_protein|mol2

> <Gold.PLP.Fitness>
44.6559

> <Gold.PLP.PLP>
-42.7364

> <Gold.PLP.part.hbond>
-1.0000

> <Gold.PLP.part.metal>
0.0000

> <Gold.PLP.part.buried>
-4.4071

> <Gold.PLP.part.nonpolar>
-37.2807

> <Gold.PLP.part.repulsive>
0.2907

> <Gold.PLP.ligand.clash>
0.0000

> <Gold.PLP.ligand.torsion>
1.1977

> <Gold.PLP.Chemscore.Hbond>
1.0000

> <Gold.PLP.Chemscore.CHOScore>
0.0000

> <Gold.PLP.Chemscore.Metal>
0.0000

> <Gold.Chemscore.Hbonds>
donor molecule, donor type, donor heavy atom, donor atom, acceptor molecule, acceptor atom, score
      P1  H  7997  8010       L1     8  1.00

> <Gold.PLP.Chemscore.Internal.Correction>
1.3148

> <Gold.Rescore>
     Score         DG    S(hbond)    S(metal)    S(lipo)     H(rot)  DE(clash)    DE(int)     intcor
     14.46     -15.65       0.98        0.00     101.67       1.96       0.08       1.11       ----

> <Gold.Chemscore.Fitness>
14.4577

> <Gold.Chemscore.DG>
-15.6530

> <Gold.Chemscore.ZeroCoef>
-5.4800

> <Gold.Chemscore.Hbond>
0.9830

> <Gold.Chemscore.Metal>
0.0000

> <Gold.Chemscore.Lipo>
101.6721

> <Gold.Chemscore.Internal_Hbond>
0.0000

> <Gold.Chemscore.DEClash>
0.0811

> <Gold.Chemscore.DEInternal>
1.1143

> <Gold.Chemscore.Rot>
1.9555

> <Gold.Chemscore.Internal.Correction>
   9.000000E+99

> <Gold.Chemscore.Hbonds>
donor molecule, donor type, donor heavy atom, donor atom, acceptor molecule, acceptor atom, score
      P1  H  7997  8010       L1     8  0.85

> <Gold.Chemscore.Hbond.Weighted>
-3.2834

> <Gold.Chemscore.Metal.Weighted>
-0.0000

> <Gold.Chemscore.Lipo.Weighted>
-11.8956

> <Gold.Chemscore.Internal_Hbond.Weighted>
0.0000

> <Gold.Chemscore.DEClash.Weighted>
0.0811

> <Gold.Chemscore.DEInternal.Weighted>
1.1143

> <Gold.Chemscore.Rot.Weighted>
5.0060

> <Gold.Chemscore.Internal.Correction.Weighted>
   9.000000E+99

> <Gold.Protein.RotatedTorsions>
[ 6907 6896 6895 6894 ] final -125.38 input  -60.11 | X-H torsion
[ 7974 7965 7964 7962 ] final  -33.86 input  175.53 | X-H torsion
[ 8008 7997 7996 7995 ] final   20.65 input   59.86 | X-H torsion
[ 10167 10162 10161 10158 ] final  166.45 input  -65.29 | X-H torsion
[ 10718 10713 10712 10709 ] final -102.09 input   66.30 | X-H torsion
[ 10763 10752 10751 10750 ] final   57.37 input  -60.55 | X-H torsion
[ 11005 11000 10999 10996 ] final   20.14 input  -57.11 | X-H torsion

> <Gold.Protein.ActiveResidues>
 VAL166  LYS551  ARG553  GLY616  TRP617  ASP618  TYR619  PRO620  LYS621  CYS622 
 ASP623  PHE694  ASN695  SER759  ASP760  ASP761  ALA762  ILE779  LEU786  VAL792 
 PHE793  MET794  SER795  GLU796  ALA797  LYS798  CYS799  TRP800  GLU811  SER814 

> <Gold.Protein.RotatedAtoms>
  150.8862  133.7305  159.2917 H   0  0  0  0  0  0  0  0  0  0  0  0  # atno 6907 bound_to 6896
  151.4870  135.1054  159.9803 H   0  0  0  0  0  0  0  0  0  0  0  0  # atno 6908 bound_to 6896
  152.4791  133.8164  159.7086 H   0  0  0  0  0  0  0  0  0  0  0  0  # atno 6909 bound_to 6896
  146.0876  140.5968  142.8879 H   0  0  0  0  0  0  0  0  0  0  0  0  # atno 7974 bound_to 7965
  154.9388  140.3050  155.5131 H   0  0  0  0  0  0  0  0  0  0  0  0  # atno 8008 bound_to 7997
  156.2997  140.2340  156.4392 H   0  0  0  0  0  0  0  0  0  0  0  0  # atno 8009 bound_to 7997
  154.8165  140.0425  157.1369 H   0  0  0  0  0  0  0  0  0  0  0  0  # atno 8010 bound_to 7997
  139.4925  144.4026  151.9392 H   0  0  0  0  0  0  0  0  0  0  0  0  # atno 10167 bound_to 10162
  156.0217  130.5404  150.7058 H   0  0  0  0  0  0  0  0  0  0  0  0  # atno 10718 bound_to 10713
  152.9849  135.5644  154.5380 H   0  0  0  0  0  0  0  0  0  0  0  0  # atno 10763 bound_to 10752
  154.4840  135.2790  155.1551 H   0  0  0  0  0  0  0  0  0  0  0  0  # atno 10764 bound_to 10752
  154.3048  135.6300  153.5493 H   0  0  0  0  0  0  0  0  0  0  0  0  # atno 10765 bound_to 10752
  140.4060  134.1668  155.7665 H   0  0  0  0  0  0  0  0  0  0  0  0  # atno 11005 bound_to 11000
  144.7337  140.4746  143.6919 LP  0  0  0  0  0  0  0  0  0  0  0  0  # atno 17320 bound_to 7965
  145.6100  139.1512  143.3081 LP  0  0  0  0  0  0  0  0  0  0  0  0  # atno 17321 bound_to 7965
  140.3466  144.3140  150.5957 LP  0  0  0  0  0  0  0  0  0  0  0  0  # atno 17342 bound_to 10162
  140.5521  143.2205  151.7909 LP  0  0  0  0  0  0  0  0  0  0  0  0  # atno 17343 bound_to 10162
  157.4707  131.0893  151.0645 LP  0  0  0  0  0  0  0  0  0  0  0  0  # atno 17370 bound_to 10713
  157.1106  130.6020  149.5481 LP  0  0  0  0  0  0  0  0  0  0  0  0  # atno 17371 bound_to 10713
  141.1839  133.8355  157.1158 LP  0  0  0  0  0  0  0  0  0  0  0  0  # atno 17394 bound_to 11000
  140.0302  134.9905  157.0765 LP  0  0  0  0  0  0  0  0  0  0  0  0  # atno 17395 bound_to 11000

$$$$
