AV-unprocessed.smi:1474|AV-procd|sdf|5974|dock2
  -GOLD-   22720 6 63D 1   1.00000     0.00000
 Structure written by MMmdl.
 43 44  0  0  0  0  0  0  0  0  1 V2000
  145.7152  144.3176  161.7554 C   0  0  0  0  0  0  0  0  0  0  0  0
  146.7927  145.2369  161.7886 O   0  0  0  0  0  0  0  0  0  0  0  0
  147.3835  145.4270  160.5140 C   0  0  0  0  0  0  0  0  0  0  0  0
  148.9070  145.4192  160.6632 C   0  0  0  0  0  0  0  0  0  0  0  0
  149.4685  144.6808  159.5822 O   0  0  0  0  0  0  0  0  0  0  0  0
  150.6194  143.9541  159.8092 C   0  0  0  0  0  0  0  0  0  0  0  0
  151.1212  143.1456  158.7688 C   0  0  0  0  0  0  0  0  0  0  0  0
  152.2870  142.3903  158.9985 C   0  0  0  0  0  0  0  0  0  0  0  0
  152.9144  142.4734  160.2579 C   0  0  0  0  0  0  0  0  0  0  0  0
  154.1563  141.6564  160.5646 C   0  0  0  0  0  0  0  0  0  0  0  0
  153.8609  140.2370  160.7180 N   0  0  0  0  0  0  0  0  0  0  0  0
  154.4839  139.2493  160.0560 C   0  0  0  0  0  0  0  0  0  0  0  0
  155.3400  139.4574  159.1955 O   0  0  0  0  0  0  0  0  0  0  0  0
  154.0723  137.8121  160.4266 C   0  0  2  0  0  0  0  0  0  0  0  0
  154.9035  136.7610  159.6676 C   0  0  0  0  0  0  0  0  0  0  0  0
  154.5718  136.6997  158.1644 C   0  0  0  0  0  0  0  0  0  0  0  0
  153.0666  136.7526  157.8627 C   0  0  0  0  0  0  0  0  0  0  0  0
  152.6612  136.4132  156.7536 O   0  0  0  0  0  0  0  0  0  0  0  0
  152.2265  137.2107  158.8075 N   0  0  0  0  0  0  0  0  0  0  0  0
  152.5692  137.5358  160.1939 C   0  0  0  0  0  0  0  0  0  0  0  0
  152.3406  143.3147  161.2337 C   0  0  0  0  0  0  0  0  0  0  0  0
  151.2215  144.0393  161.0218 N   0  0  0  0  0  0  0  0  0  0  0  0
  145.3010  144.2022  162.7569 H   0  0  0  0  0  0  0  0  0  0  0  0
  146.0440  143.3360  161.4122 H   0  0  0  0  0  0  0  0  0  0  0  0
  144.9175  144.6689  161.0997 H   0  0  0  0  0  0  0  0  0  0  0  0
  147.0721  144.6307  159.8359 H   0  0  0  0  0  0  0  0  0  0  0  0
  147.0552  146.3748  160.0844 H   0  0  0  0  0  0  0  0  0  0  0  0
  149.2827  146.4436  160.6611 H   0  0  0  0  0  0  0  0  0  0  0  0
  149.1784  144.9603  161.6154 H   0  0  0  0  0  0  0  0  0  0  0  0
  150.6170  143.1002  157.8147 H   0  0  0  0  0  0  0  0  0  0  0  0
  152.6883  141.7550  158.2227 H   0  0  0  0  0  0  0  0  0  0  0  0
  154.8663  141.7741  159.7455 H   0  0  0  0  0  0  0  0  0  0  0  0
  154.6515  142.0403  161.4582 H   0  0  0  0  0  0  0  0  0  0  0  0
  153.1613  139.9857  161.4015 H   0  0  0  0  0  0  0  0  0  0  0  0
  154.2654  137.6917  161.4940 H   0  0  0  0  0  0  0  0  0  0  0  0
  155.9686  136.9571  159.7984 H   0  0  0  0  0  0  0  0  0  0  0  0
  154.7263  135.7804  160.1113 H   0  0  0  0  0  0  0  0  0  0  0  0
  155.0408  137.5382  157.6486 H   0  0  0  0  0  0  0  0  0  0  0  0
  154.9970  135.7954  157.7279 H   0  0  0  0  0  0  0  0  0  0  0  0
  151.2492  137.2754  158.5617 H   0  0  0  0  0  0  0  0  0  0  0  0
  152.2570  136.6948  160.8137 H   0  0  0  0  0  0  0  0  0  0  0  0
  151.9655  138.3864  160.5132 H   0  0  0  0  0  0  0  0  0  0  0  0
  152.7833  143.4007  162.2151 H   0  0  0  0  0  0  0  0  0  0  0  0
  1  2  1  0  0  0  0
  1 23  1  0  0  0  0
  1 24  1  0  0  0  0
  1 25  1  0  0  0  0
  2  3  1  0  0  0  0
  3  4  1  0  0  0  0
  3 26  1  0  0  0  0
  3 27  1  0  0  0  0
  4  5  1  0  0  0  0
  4 28  1  0  0  0  0
  4 29  1  0  0  0  0
  5  6  1  0  0  0  0
  6 22  1  0  0  0  0
  6  7  2  0  0  0  0
  7  8  1  0  0  0  0
  7 30  1  0  0  0  0
  8  9  2  0  0  0  0
  8 31  1  0  0  0  0
  9 10  1  0  0  0  0
  9 21  1  0  0  0  0
 10 11  1  0  0  0  0
 10 32  1  0  0  0  0
 10 33  1  0  0  0  0
 11 12  1  0  0  0  0
 11 34  1  0  0  0  0
 12 13  2  0  0  0  0
 12 14  1  0  0  0  0
 14 20  1  0  0  0  0
 14 15  1  0  0  0  0
 14 35  1  0  0  0  0
 15 16  1  0  0  0  0
 15 36  1  0  0  0  0
 15 37  1  0  0  0  0
 16 17  1  0  0  0  0
 16 38  1  0  0  0  0
 16 39  1  0  0  0  0
 17 18  2  0  0  0  0
 17 19  1  0  0  0  0
 19 20  1  0  0  0  0
 19 40  1  0  0  0  0
 20 41  1  0  0  0  0
 20 42  1  0  0  0  0
 21 22  2  0  0  0  0
 21 43  1  0  0  0  0
M  END
> <s_m_source_file>
AV-unprocessed.smi

> <i_m_source_file_index>
1474

> <i_lp_mmshare_version>
43012

> <i_f3d_flags>
0

> <s_epik_input>
W0NIM11PW0NIMl1bQ0gyXU9jMVtjSF1bY0hdYyhbY0hdbjEpW0NIMl1bTkhdQyg9TylbQ0BASF0yW0NIMl1bQ0gyXUMoPU8pW05IXVtDSDJdMg==

> <s_epik_cmdline>
J2VwaWtfcHl0aG9uJywgJy1waCcsICc3LjAnLCAnLXRuJywgJzgnLCAnLW1hJywgJzIwMCcsICctbWV0YWxfYmluZGluZycsICctaW1hZScsICc8aW5maWxlLm1hZT4nLCAnLW9tYWUnLCAnPG91dGZpbGUubWFlPic=

> <r_lp_tautomer_probability>
1

> <r_epik_Ionization_Penalty>
6.19599e-05

> <r_epik_Ionization_Penalty_Charging>
0

> <r_epik_Ionization_Penalty_Neutral>
6.19599e-05

> <r_epik_State_Penalty>
-0

> <r_epik_Charging_Adjusted_Penalty>
0

> <i_epik_Tot_Q>
0

> <i_epik_Tot_abs_Q>
0

> <r_epik_Metal_State_Penalty>
-0

> <b_epik_Metal_Only>
0

> <s_lp_Force_Field>
OPLS_2005

> <r_lp_Energy>
10.5341

> <b_lp_Chiralities_Consistent>
1

> <s_lp_Variant>
AV-unprocessed.smi:1474-1

> <Gold.Version>
5.8.1

> <Gold.Id.Protein>
6NUR|6NUR_protein|mol2

> <Gold.PLP.Fitness>
41.8787

> <Gold.PLP.PLP>
-37.7514

> <Gold.PLP.part.hbond>
-3.3561

> <Gold.PLP.part.metal>
0.0000

> <Gold.PLP.part.buried>
-7.9702

> <Gold.PLP.part.nonpolar>
-27.2695

> <Gold.PLP.part.repulsive>
0.7941

> <Gold.PLP.ligand.clash>
0.0000

> <Gold.PLP.ligand.torsion>
1.0185

> <Gold.PLP.Chemscore.Hbond>
2.0000

> <Gold.PLP.Chemscore.CHOScore>
0.0000

> <Gold.PLP.Chemscore.Metal>
0.0000

> <Gold.Chemscore.Hbonds>
donor molecule, donor type, donor heavy atom, donor atom, acceptor molecule, acceptor atom, score
      P1  H  7997  8009       L1    13  1.00
      P1  H 10752 10765       L1    18  1.00

> <Gold.PLP.Chemscore.Internal.Correction>
0.1643

> <Gold.Rescore>
     Score         DG    S(hbond)    S(metal)    S(lipo)     H(rot)  DE(clash)    DE(int)     intcor
     13.83     -15.58       1.93        0.00      86.38       2.52       0.27       1.49       ----

> <Gold.Chemscore.Fitness>
13.8258

> <Gold.Chemscore.DG>
-15.5788

> <Gold.Chemscore.ZeroCoef>
-5.4800

> <Gold.Chemscore.Hbond>
1.9292

> <Gold.Chemscore.Metal>
0.0000

> <Gold.Chemscore.Lipo>
86.3811

> <Gold.Chemscore.Internal_Hbond>
0.0000

> <Gold.Chemscore.DEClash>
0.2668

> <Gold.Chemscore.DEInternal>
1.4862

> <Gold.Chemscore.Rot>
2.5201

> <Gold.Chemscore.Internal.Correction>
   9.000000E+99

> <Gold.Chemscore.Hbonds>
donor molecule, donor type, donor heavy atom, donor atom, acceptor molecule, acceptor atom, score
      P1  H  7997  8009       L1    13  0.99
      P1  H 10752 10765       L1    18  0.99

> <Gold.Chemscore.Hbond.Weighted>
-6.4437

> <Gold.Chemscore.Metal.Weighted>
-0.0000

> <Gold.Chemscore.Lipo.Weighted>
-10.1066

> <Gold.Chemscore.Internal_Hbond.Weighted>
0.0000

> <Gold.Chemscore.DEClash.Weighted>
0.2668

> <Gold.Chemscore.DEInternal.Weighted>
1.4862

> <Gold.Chemscore.Rot.Weighted>
6.4514

> <Gold.Chemscore.Internal.Correction.Weighted>
   9.000000E+99

> <Gold.Protein.RotatedTorsions>
[ 6907 6896 6895 6894 ] final  166.18 input  -60.11 | X-H torsion
[ 7974 7965 7964 7962 ] final  -77.33 input  175.53 | X-H torsion
[ 8008 7997 7996 7995 ] final   98.26 input   59.86 | X-H torsion
[ 10167 10162 10161 10158 ] final   -4.41 input  -65.29 | X-H torsion
[ 10718 10713 10712 10709 ] final   74.13 input   66.30 | X-H torsion
[ 10763 10752 10751 10750 ] final -140.41 input  -60.55 | X-H torsion
[ 11005 11000 10999 10996 ] final  -77.19 input  -57.11 | X-H torsion

> <Gold.Protein.ActiveResidues>
 VAL166  LYS551  ARG553  GLY616  TRP617  ASP618  TYR619  PRO620  LYS621  CYS622 
 ASP623  PHE694  ASN695  SER759  ASP760  ASP761  ALA762  ILE779  LEU786  VAL792 
 PHE793  MET794  SER795  GLU796  ALA797  LYS798  CYS799  TRP800  GLU811  SER814 

> <Gold.Protein.RotatedAtoms>
  151.8829  133.3499  159.3772 H   0  0  0  0  0  0  0  0  0  0  0  0  # atno 6907 bound_to 6896
  150.7123  134.5000  159.5566 H   0  0  0  0  0  0  0  0  0  0  0  0  # atno 6908 bound_to 6896
  152.2556  134.8088  160.0490 H   0  0  0  0  0  0  0  0  0  0  0  0  # atno 6909 bound_to 6896
  145.6012  140.9408  143.1240 H   0  0  0  0  0  0  0  0  0  0  0  0  # atno 7974 bound_to 7965
  156.0986  140.3246  155.7911 H   0  0  0  0  0  0  0  0  0  0  0  0  # atno 8008 bound_to 7997
  155.4875  140.0559  157.2975 H   0  0  0  0  0  0  0  0  0  0  0  0  # atno 8009 bound_to 7997
  154.4682  140.1999  156.0078 H   0  0  0  0  0  0  0  0  0  0  0  0  # atno 8010 bound_to 7997
  140.6926  143.6426  150.8422 H   0  0  0  0  0  0  0  0  0  0  0  0  # atno 10167 bound_to 10162
  157.6579  130.9663  150.1167 H   0  0  0  0  0  0  0  0  0  0  0  0  # atno 10718 bound_to 10713
  154.8579  135.3554  154.5703 H   0  0  0  0  0  0  0  0  0  0  0  0  # atno 10763 bound_to 10752
  153.6316  135.7002  153.5278 H   0  0  0  0  0  0  0  0  0  0  0  0  # atno 10764 bound_to 10752
  153.3045  135.4196  155.1241 H   0  0  0  0  0  0  0  0  0  0  0  0  # atno 10765 bound_to 10752
  141.1659  133.7013  156.7783 H   0  0  0  0  0  0  0  0  0  0  0  0  # atno 11005 bound_to 11000
  144.7309  139.7728  143.7347 LP  0  0  0  0  0  0  0  0  0  0  0  0  # atno 17320 bound_to 7965
  146.1575  139.4678  143.0009 LP  0  0  0  0  0  0  0  0  0  0  0  0  # atno 17321 bound_to 7965
  140.0141  143.5612  152.2827 LP  0  0  0  0  0  0  0  0  0  0  0  0  # atno 17342 bound_to 10162
  139.6346  144.7648  151.2465 LP  0  0  0  0  0  0  0  0  0  0  0  0  # atno 17343 bound_to 10162
  156.2049  130.3662  149.8741 LP  0  0  0  0  0  0  0  0  0  0  0  0  # atno 17370 bound_to 10713
  156.6635  130.8792  151.3551 LP  0  0  0  0  0  0  0  0  0  0  0  0  # atno 17371 bound_to 10713
  140.2413  134.8611  157.3576 LP  0  0  0  0  0  0  0  0  0  0  0  0  # atno 17394 bound_to 11000
  140.1793  134.4510  155.7782 LP  0  0  0  0  0  0  0  0  0  0  0  0  # atno 17395 bound_to 11000

$$$$
