AV-unprocessed.smi:3208|AV-procd|sdf|12265|dock9
  -GOLD-   2272018103D 1   1.00000     0.00000
 Structure written by MMmdl.
 29 29  0  0  0  0  0  0  0  0  2 V2000
  153.1682  138.1524  154.7642 C   0  0  0  0  0  0  0  0  0  0  0  0
  151.8359  138.1108  154.9161 C   0  0  0  0  0  0  0  0  0  0  0  0
  151.0355  139.0968  155.7375 C   0  0  0  0  0  0  0  0  0  0  0  0
  151.2731  140.4230  155.2835 O   0  0  0  0  0  0  0  0  0  0  0  0
  150.4403  141.4248  155.8642 C   0  0  1  0  0  0  0  0  0  0  0  0
  148.9869  140.9515  155.7262 C   0  0  0  0  0  0  0  0  0  0  0  0
  150.7981  141.6411  157.3509 C   0  0  0  0  0  0  0  0  0  0  0  0
  150.2080  142.5005  158.0050 O   0  0  0  0  0  0  0  0  0  0  0  0
  151.8716  140.8957  157.8130 N   0  0  0  0  0  0  0  0  0  0  0  0
  152.4364  141.1977  158.9500 C   0  0  0  0  0  0  0  0  0  0  0  0
  152.0510  142.3152  159.7151 N   0  0  0  0  0  0  0  0  0  0  0  0
  152.6381  142.6369  160.9201 C   0  0  0  0  0  0  0  0  0  0  0  0
  153.6271  141.9022  161.4324 C   0  0  0  0  0  0  0  0  0  0  0  0
  154.0911  140.7419  160.6990 C   0  0  0  0  0  0  0  0  0  0  0  0
  153.5323  140.3630  159.4726 C   0  0  0  0  0  0  0  0  0  0  0  0
  153.9630  139.3513  158.8724 O   0  5  0  0  0  0  0  0  0  0  0  0
  153.7635  138.9196  155.2377 H   0  0  0  0  0  0  0  0  0  0  0  0
  153.6813  137.4166  154.1626 H   0  0  0  0  0  0  0  0  0  0  0  0
  151.2726  137.3286  154.4287 H   0  0  0  0  0  0  0  0  0  0  0  0
  149.9763  138.8447  155.6748 H   0  0  0  0  0  0  0  0  0  0  0  0
  151.3362  138.9984  156.7813 H   0  0  0  0  0  0  0  0  0  0  0  0
  150.5494  142.3511  155.2978 H   0  0  0  0  0  0  0  0  0  0  0  0
  148.2906  141.6865  156.1316 H   0  0  0  0  0  0  0  0  0  0  0  0
  148.8225  140.0089  156.2496 H   0  0  0  0  0  0  0  0  0  0  0  0
  148.7283  140.7975  154.6785 H   0  0  0  0  0  0  0  0  0  0  0  0
  152.2349  143.5160  161.4005 H   0  0  0  0  0  0  0  0  0  0  0  0
  154.0761  142.1682  162.3780 H   0  0  0  0  0  0  0  0  0  0  0  0
  154.8959  140.1582  161.1222 H   0  0  0  0  0  0  0  0  0  0  0  0
  151.3172  142.9311  159.3997 H   0  0  0  0  0  0  0  0  0  0  0  0
  1  2  2  0  0  0  0
  1 17  1  0  0  0  0
  1 18  1  0  0  0  0
  2  3  1  0  0  0  0
  2 19  1  0  0  0  0
  3  4  1  0  0  0  0
  3 20  1  0  0  0  0
  3 21  1  0  0  0  0
  4  5  1  0  0  0  0
  5  6  1  0  0  0  0
  5  7  1  0  0  0  0
  5 22  1  0  0  0  0
  6 23  1  0  0  0  0
  6 24  1  0  0  0  0
  6 25  1  0  0  0  0
  7  8  2  0  0  0  0
  7  9  1  0  0  0  0
  9 10  2  0  0  0  0
 10 15  1  0  0  0  0
 10 11  1  0  0  0  0
 11 29  1  0  0  0  0
 11 12  1  0  0  0  0
 12 26  1  0  0  0  0
 12 13  2  0  0  0  0
 13 27  1  0  0  0  0
 13 14  1  0  0  0  0
 14 15  2  0  0  0  0
 14 28  1  0  0  0  0
 15 16  1  0  0  0  0
M  CHG  1  16  -1
M  END
> <s_m_source_file>
AV-unprocessed.smi

> <i_m_source_file_index>
3208

> <i_lp_mmshare_version>
43012

> <i_f3d_flags>
0

> <s_epik_input>
W0NIMl09W0NIXVtDSDJdT1tDQEhdKFtDSDNdKUMoPU8pW05IXWMxbltjSF1bY0hdW2NIXWMxW09IXQ==

> <s_epik_cmdline>
J2VwaWtfcHl0aG9uJywgJy1waCcsICc3LjAnLCAnLXRuJywgJzgnLCAnLW1hJywgJzIwMCcsICctbWV0YWxfYmluZGluZycsICctaW1hZScsICc8aW5maWxlLm1hZT4nLCAnLW9tYWUnLCAnPG91dGZpbGUubWFlPic=

> <r_epik_Ionization_Penalty>
0.613767

> <r_epik_Ionization_Penalty_Charging>
0.613767

> <r_epik_Ionization_Penalty_Neutral>
1.14324e-13

> <r_epik_State_Penalty>
1.22258

> <r_epik_Charging_Adjusted_Penalty>
1.83635

> <i_epik_Tot_Q>
-1

> <i_epik_Tot_abs_Q>
1

> <r_epik_Metal_State_Penalty>
1.18528

> <b_epik_Metal_Only>
0

> <s_lp_Force_Field>
OPLS_2005

> <r_lp_Energy>
40.4661

> <b_lp_Chiralities_Consistent>
1

> <s_lp_Variant>
AV-unprocessed.smi:3208-6

> <Gold.Version>
5.8.1

> <Gold.Id.Protein>
6NUR|6NUR_protein|mol2

> <Gold.PLP.Fitness>
41.0007

> <Gold.PLP.PLP>
-32.5441

> <Gold.PLP.part.hbond>
-2.0000

> <Gold.PLP.part.metal>
0.0000

> <Gold.PLP.part.buried>
-4.0677

> <Gold.PLP.part.nonpolar>
-27.3087

> <Gold.PLP.part.repulsive>
0.2399

> <Gold.PLP.ligand.clash>
0.0000

> <Gold.PLP.ligand.torsion>
0.1168

> <Gold.PLP.Chemscore.Hbond>
2.8800

> <Gold.PLP.Chemscore.CHOScore>
0.0000

> <Gold.PLP.Chemscore.Metal>
0.0000

> <Gold.Chemscore.Hbonds>
donor molecule, donor type, donor heavy atom, donor atom, acceptor molecule, acceptor atom, score
      P1  H  7989  7998       L1     4  0.96
      P1  H  7997  8010       L1    16  2.00

> <Gold.PLP.Chemscore.Internal.Correction>
0.0502

> <Gold.Rescore>
     Score         DG    S(hbond)    S(metal)    S(lipo)     H(rot)  DE(clash)    DE(int)     intcor
     14.79     -16.20       1.83        0.00      75.65       1.65       0.00       1.41       ----

> <Gold.Chemscore.Fitness>
14.7879

> <Gold.Chemscore.DG>
-16.2035

> <Gold.Chemscore.ZeroCoef>
-5.4800

> <Gold.Chemscore.Hbond>
1.8276

> <Gold.Chemscore.Metal>
0.0000

> <Gold.Chemscore.Lipo>
75.6541

> <Gold.Chemscore.Internal_Hbond>
0.0000

> <Gold.Chemscore.DEClash>
0.0038

> <Gold.Chemscore.DEInternal>
1.4118

> <Gold.Chemscore.Rot>
1.6533

> <Gold.Chemscore.Internal.Correction>
   9.000000E+99

> <Gold.Chemscore.Hbonds>
donor molecule, donor type, donor heavy atom, donor atom, acceptor molecule, acceptor atom, score
      P1  H  7989  7998       L1     4  0.64
      P1  H  7997  8010       L1    16  0.54

> <Gold.Chemscore.Hbond.Weighted>
-6.1043

> <Gold.Chemscore.Metal.Weighted>
-0.0000

> <Gold.Chemscore.Lipo.Weighted>
-8.8515

> <Gold.Chemscore.Internal_Hbond.Weighted>
0.0000

> <Gold.Chemscore.DEClash.Weighted>
0.0038

> <Gold.Chemscore.DEInternal.Weighted>
1.4118

> <Gold.Chemscore.Rot.Weighted>
4.2324

> <Gold.Chemscore.Internal.Correction.Weighted>
   9.000000E+99

> <Gold.Protein.RotatedTorsions>
[ 6907 6896 6895 6894 ] final  128.97 input  -60.11 | X-H torsion
[ 7974 7965 7964 7962 ] final   26.47 input  175.53 | X-H torsion
[ 8008 7997 7996 7995 ] final   17.73 input   59.86 | X-H torsion
[ 10167 10162 10161 10158 ] final   -1.35 input  -65.29 | X-H torsion
[ 10718 10713 10712 10709 ] final -176.78 input   66.30 | X-H torsion
[ 10763 10752 10751 10750 ] final   92.03 input  -60.55 | X-H torsion
[ 11005 11000 10999 10996 ] final   88.59 input  -57.11 | X-H torsion

> <Gold.Protein.ActiveResidues>
 VAL166  LYS551  ARG553  GLY616  TRP617  ASP618  TYR619  PRO620  LYS621  CYS622 
 ASP623  PHE694  ASN695  SER759  ASP760  ASP761  ALA762  ILE779  LEU786  VAL792 
 PHE793  MET794  SER795  GLU796  ALA797  LYS798  CYS799  TRP800  GLU811  SER814 

> <Gold.Protein.RotatedAtoms>
  152.3669  133.6368  159.6057 H   0  0  0  0  0  0  0  0  0  0  0  0  # atno 6907 bound_to 6896
  150.7640  133.9333  159.3442 H   0  0  0  0  0  0  0  0  0  0  0  0  # atno 6908 bound_to 6896
  151.7162  135.0904  160.0327 H   0  0  0  0  0  0  0  0  0  0  0  0  # atno 6909 bound_to 6896
  146.1835  139.7323  142.8883 H   0  0  0  0  0  0  0  0  0  0  0  0  # atno 7974 bound_to 7965
  154.8957  140.2993  155.5345 H   0  0  0  0  0  0  0  0  0  0  0  0  # atno 8008 bound_to 7997
  156.3020  140.2416  156.3913 H   0  0  0  0  0  0  0  0  0  0  0  0  # atno 8009 bound_to 7997
  154.8572  140.0407  157.1631 H   0  0  0  0  0  0  0  0  0  0  0  0  # atno 8010 bound_to 7997
  140.6806  143.6785  150.8125 H   0  0  0  0  0  0  0  0  0  0  0  0  # atno 10167 bound_to 10162
  156.8198  130.9616  151.3112 H   0  0  0  0  0  0  0  0  0  0  0  0  # atno 10718 bound_to 10713
  153.2147  135.4376  155.0421 H   0  0  0  0  0  0  0  0  0  0  0  0  # atno 10763 bound_to 10752
  154.8219  135.3342  154.7016 H   0  0  0  0  0  0  0  0  0  0  0  0  # atno 10764 bound_to 10752
  153.7451  135.7002  153.5014 H   0  0  0  0  0  0  0  0  0  0  0  0  # atno 10765 bound_to 10752
  139.8893  134.8497  156.3022 H   0  0  0  0  0  0  0  0  0  0  0  0  # atno 11005 bound_to 11000
  145.4006  141.0384  143.3073 LP  0  0  0  0  0  0  0  0  0  0  0  0  # atno 17320 bound_to 7965
  144.8357  139.5555  143.6923 LP  0  0  0  0  0  0  0  0  0  0  0  0  # atno 17321 bound_to 7965
  140.0485  143.5274  152.2685 LP  0  0  0  0  0  0  0  0  0  0  0  0  # atno 17342 bound_to 10162
  139.6127  144.7612  151.2916 LP  0  0  0  0  0  0  0  0  0  0  0  0  # atno 17343 bound_to 10162
  157.6463  130.8847  149.9544 LP  0  0  0  0  0  0  0  0  0  0  0  0  # atno 17370 bound_to 10713
  156.0995  130.3657  150.0244 LP  0  0  0  0  0  0  0  0  0  0  0  0  # atno 17371 bound_to 10713
  140.9906  133.7211  156.0808 LP  0  0  0  0  0  0  0  0  0  0  0  0  # atno 17394 bound_to 11000
  140.7630  134.3917  157.5522 LP  0  0  0  0  0  0  0  0  0  0  0  0  # atno 17395 bound_to 11000

$$$$
