AV-unprocessed.smi:1919|AV-procd|sdf|7773|dock4
  -GOLD-   22720 9513D 1   1.00000     0.00000
 Structure written by MMmdl.
 36 38  0  0  0  0  0  0  0  0  1 V2000
  153.7559  138.6021  157.3119 O   0  0  0  0  0  0  0  0  0  0  0  0
  152.6063  138.8348  158.0961 C   0  0  0  0  0  0  0  0  0  0  0  0
  152.3671  140.2888  158.3709 C   0  0  0  0  0  0  0  0  0  0  0  0
  153.2711  141.0377  159.0039 N   0  0  0  0  0  0  0  0  0  0  0  0
  152.6770  142.2840  159.0214 C   0  0  0  0  0  0  0  0  0  0  0  0
  153.1351  143.5126  159.5489 C   0  0  0  0  0  0  0  0  0  0  0  0
  152.3457  144.6760  159.4377 C   0  0  0  0  0  0  0  0  0  0  0  0
  151.0900  144.6280  158.7985 C   0  0  0  0  0  0  0  0  0  0  0  0
  150.6141  143.4137  158.2680 C   0  0  0  0  0  0  0  0  0  0  0  0
  151.4044  142.2540  158.3848 C   0  0  0  0  0  0  0  0  0  0  0  0
  151.2331  140.9312  157.9879 N   0  0  0  0  0  0  0  0  0  0  0  0
  150.0693  140.3958  157.2915 C   0  0  0  0  0  0  0  0  0  0  0  0
  150.3853  139.9612  155.8454 C   0  0  2  0  0  0  0  0  0  0  0  0
  151.5237  140.6504  155.3670 O   0  0  0  0  0  0  0  0  0  0  0  0
  149.1758  140.1419  154.9419 C   0  0  0  0  0  0  0  0  0  0  0  0
  148.6815  139.0655  154.1721 C   0  0  0  0  0  0  0  0  0  0  0  0
  147.5677  139.2483  153.3295 C   0  0  0  0  0  0  0  0  0  0  0  0
  146.9439  140.5081  153.2493 C   0  0  0  0  0  0  0  0  0  0  0  0
  147.4357  141.5858  154.0103 C   0  0  0  0  0  0  0  0  0  0  0  0
  146.8397  142.7987  153.9302 F   0  0  0  0  0  0  0  0  0  0  0  0
  148.5489  141.4033  154.8534 C   0  0  0  0  0  0  0  0  0  0  0  0
  153.6542  137.7741  156.8686 H   0  0  0  0  0  0  0  0  0  0  0  0
  151.7439  138.4215  157.5716 H   0  0  0  0  0  0  0  0  0  0  0  0
  152.6851  138.2902  159.0369 H   0  0  0  0  0  0  0  0  0  0  0  0
  154.0966  143.5603  160.0383 H   0  0  0  0  0  0  0  0  0  0  0  0
  152.7067  145.6099  159.8428 H   0  0  0  0  0  0  0  0  0  0  0  0
  150.4924  145.5239  158.7155 H   0  0  0  0  0  0  0  0  0  0  0  0
  149.6535  143.3746  157.7766 H   0  0  0  0  0  0  0  0  0  0  0  0
  149.7070  139.5403  157.8629 H   0  0  0  0  0  0  0  0  0  0  0  0
  149.2616  141.1266  157.2964 H   0  0  0  0  0  0  0  0  0  0  0  0
  150.6491  138.9033  155.8414 H   0  0  0  0  0  0  0  0  0  0  0  0
  152.2044  140.5958  156.0200 H   0  0  0  0  0  0  0  0  0  0  0  0
  149.1572  138.0968  154.2229 H   0  0  0  0  0  0  0  0  0  0  0  0
  147.1932  138.4223  152.7428 H   0  0  0  0  0  0  0  0  0  0  0  0
  146.0901  140.6481  152.6028 H   0  0  0  0  0  0  0  0  0  0  0  0
  148.9218  142.2372  155.4301 H   0  0  0  0  0  0  0  0  0  0  0  0
  1  2  1  0  0  0  0
  1 22  1  0  0  0  0
  2  3  1  0  0  0  0
  2 23  1  0  0  0  0
  2 24  1  0  0  0  0
  3 11  1  0  0  0  0
  3  4  2  0  0  0  0
  4  5  1  0  0  0  0
  5 10  2  0  0  0  0
  5  6  1  0  0  0  0
  6  7  2  0  0  0  0
  6 25  1  0  0  0  0
  7  8  1  0  0  0  0
  7 26  1  0  0  0  0
  8  9  2  0  0  0  0
  8 27  1  0  0  0  0
  9 10  1  0  0  0  0
  9 28  1  0  0  0  0
 10 11  1  0  0  0  0
 11 12  1  0  0  0  0
 12 13  1  0  0  0  0
 12 29  1  0  0  0  0
 12 30  1  0  0  0  0
 13 14  1  0  0  0  0
 13 15  1  0  0  0  0
 13 31  1  0  0  0  0
 14 32  1  0  0  0  0
 15 21  1  0  0  0  0
 15 16  2  0  0  0  0
 16 17  1  0  0  0  0
 16 33  1  0  0  0  0
 17 18  2  0  0  0  0
 17 34  1  0  0  0  0
 18 19  1  0  0  0  0
 18 35  1  0  0  0  0
 19 20  1  0  0  0  0
 19 21  2  0  0  0  0
 21 36  1  0  0  0  0
M  END
> <s_m_source_file>
AV-unprocessed.smi

> <i_m_source_file_index>
1919

> <i_lp_mmshare_version>
43012

> <i_f3d_flags>
0

> <s_epik_input>
W2NIXTFbY0hdW2NIXVtjSF1jKGMxMiluKGMobjIpW0NIMl1bT0hdKVtDSDJdW0NASF0oW09IXSljM1tjSF1bY0hdW2NIXWMoRilbY0hdMw==

> <s_epik_cmdline>
J2VwaWtfcHl0aG9uJywgJy1waCcsICc3LjAnLCAnLXRuJywgJzgnLCAnLW1hJywgJzIwMCcsICctbWV0YWxfYmluZGluZycsICctaW1hZScsICc8aW5maWxlLm1hZT4nLCAnLW9tYWUnLCAnPG91dGZpbGUubWFlPic=

> <r_epik_Ionization_Penalty>
0.0634732

> <r_epik_Ionization_Penalty_Charging>
0

> <r_epik_Ionization_Penalty_Neutral>
0.0634732

> <r_epik_State_Penalty>
0.0551572

> <r_epik_Charging_Adjusted_Penalty>
0.0551572

> <i_epik_Tot_Q>
0

> <i_epik_Tot_abs_Q>
0

> <r_epik_Metal_State_Penalty>
5.78034e-05

> <b_epik_Metal_Only>
0

> <s_lp_Force_Field>
OPLS_2005

> <r_lp_Energy>
10.9146

> <b_lp_Chiralities_Consistent>
1

> <s_lp_Variant>
AV-unprocessed.smi:1919-1

> <Gold.Version>
5.8.1

> <Gold.Id.Protein>
6NUR|6NUR_protein|mol2

> <Gold.PLP.Fitness>
48.5184

> <Gold.PLP.PLP>
-44.2992

> <Gold.PLP.part.hbond>
-2.0000

> <Gold.PLP.part.metal>
0.0000

> <Gold.PLP.part.buried>
-4.6295

> <Gold.PLP.part.nonpolar>
-37.8137

> <Gold.PLP.part.repulsive>
0.0000

> <Gold.PLP.ligand.clash>
0.0000

> <Gold.PLP.ligand.torsion>
0.6136

> <Gold.PLP.Chemscore.Hbond>
1.8000

> <Gold.PLP.Chemscore.CHOScore>
0.0000

> <Gold.PLP.Chemscore.Metal>
0.0000

> <Gold.Chemscore.Hbonds>
donor molecule, donor type, donor heavy atom, donor atom, acceptor molecule, acceptor atom, score
      P1  H  7989  7998       L1    14  0.75
      P1  H  7997  8010       L1     1  0.98

> <Gold.PLP.Chemscore.Internal.Correction>
0.0464

> <Gold.Rescore>
     Score         DG    S(hbond)    S(metal)    S(lipo)     H(rot)  DE(clash)    DE(int)     intcor
     16.93     -17.67       1.73        0.00     114.90       2.75       0.02       0.72       ----

> <Gold.Chemscore.Fitness>
16.9290

> <Gold.Chemscore.DG>
-17.6667

> <Gold.Chemscore.ZeroCoef>
-5.4800

> <Gold.Chemscore.Hbond>
1.7317

> <Gold.Chemscore.Metal>
0.0000

> <Gold.Chemscore.Lipo>
114.8956

> <Gold.Chemscore.Internal_Hbond>
0.0000

> <Gold.Chemscore.DEClash>
0.0209

> <Gold.Chemscore.DEInternal>
0.7169

> <Gold.Chemscore.Rot>
2.7500

> <Gold.Chemscore.Internal.Correction>
   9.000000E+99

> <Gold.Chemscore.Hbonds>
donor molecule, donor type, donor heavy atom, donor atom, acceptor molecule, acceptor atom, score
      P1  H  7989  7998       L1    14  0.71
      P1  H  7997  8010       L1     1  0.76

> <Gold.Chemscore.Hbond.Weighted>
-5.7839

> <Gold.Chemscore.Metal.Weighted>
-0.0000

> <Gold.Chemscore.Lipo.Weighted>
-13.4428

> <Gold.Chemscore.Internal_Hbond.Weighted>
0.0000

> <Gold.Chemscore.DEClash.Weighted>
0.0209

> <Gold.Chemscore.DEInternal.Weighted>
0.7169

> <Gold.Chemscore.Rot.Weighted>
7.0399

> <Gold.Chemscore.Internal.Correction.Weighted>
   9.000000E+99

> <Gold.Protein.RotatedTorsions>
[ 6907 6896 6895 6894 ] final  -51.24 input  -60.11 | X-H torsion
[ 7974 7965 7964 7962 ] final -143.64 input  175.53 | X-H torsion
[ 8008 7997 7996 7995 ] final   37.36 input   59.86 | X-H torsion
[ 10167 10162 10161 10158 ] final -107.31 input  -65.29 | X-H torsion
[ 10718 10713 10712 10709 ] final  -67.20 input   66.30 | X-H torsion
[ 10763 10752 10751 10750 ] final  115.85 input  -60.55 | X-H torsion
[ 11005 11000 10999 10996 ] final  -95.41 input  -57.11 | X-H torsion

> <Gold.Protein.ActiveResidues>
 VAL166  LYS551  ARG553  GLY616  TRP617  ASP618  TYR619  PRO620  LYS621  CYS622 
 ASP623  PHE694  ASN695  SER759  ASP760  ASP761  ALA762  ILE779  LEU786  VAL792 
 PHE793  MET794  SER795  GLU796  ALA797  LYS798  CYS799  TRP800  GLU811  SER814 

> <Gold.Protein.RotatedAtoms>
  150.8630  134.7987  159.7097 H   0  0  0  0  0  0  0  0  0  0  0  0  # atno 6907 bound_to 6896
  152.4661  134.5069  159.9751 H   0  0  0  0  0  0  0  0  0  0  0  0  # atno 6908 bound_to 6896
  151.5169  133.3435  159.2930 H   0  0  0  0  0  0  0  0  0  0  0  0  # atno 6909 bound_to 6896
  144.8355  140.5810  143.5487 H   0  0  0  0  0  0  0  0  0  0  0  0  # atno 7974 bound_to 7965
  155.2025  140.3317  155.4341 H   0  0  0  0  0  0  0  0  0  0  0  0  # atno 8008 bound_to 7997
  156.2401  140.1891  156.7061 H   0  0  0  0  0  0  0  0  0  0  0  0  # atno 8009 bound_to 7997
  154.6132  140.0606  156.9506 H   0  0  0  0  0  0  0  0  0  0  0  0  # atno 8010 bound_to 7997
  140.1783  143.3987  152.1301 H   0  0  0  0  0  0  0  0  0  0  0  0  # atno 10167 bound_to 10162
  156.0570  130.4274  150.1820 H   0  0  0  0  0  0  0  0  0  0  0  0  # atno 10718 bound_to 10713
  153.5285  135.3583  155.2665 H   0  0  0  0  0  0  0  0  0  0  0  0  # atno 10763 bound_to 10752
  154.8729  135.4062  154.3179 H   0  0  0  0  0  0  0  0  0  0  0  0  # atno 10764 bound_to 10752
  153.3863  135.7070  153.6595 H   0  0  0  0  0  0  0  0  0  0  0  0  # atno 10765 bound_to 10752
  141.1443  133.8024  157.0431 H   0  0  0  0  0  0  0  0  0  0  0  0  # atno 11005 bound_to 11000
  145.4804  139.1496  143.3765 LP  0  0  0  0  0  0  0  0  0  0  0  0  # atno 17320 bound_to 7965
  146.2654  140.4940  142.8836 LP  0  0  0  0  0  0  0  0  0  0  0  0  # atno 17321 bound_to 7965
  139.5307  144.7156  151.5066 LP  0  0  0  0  0  0  0  0  0  0  0  0  # atno 17342 bound_to 10162
  140.6536  143.8645  150.6812 LP  0  0  0  0  0  0  0  0  0  0  0  0  # atno 17343 bound_to 10162
  156.9895  130.9889  151.3418 LP  0  0  0  0  0  0  0  0  0  0  0  0  # atno 17370 bound_to 10713
  157.5548  130.8206  149.8191 LP  0  0  0  0  0  0  0  0  0  0  0  0  # atno 17371 bound_to 10713
  140.0680  134.9718  157.1419 LP  0  0  0  0  0  0  0  0  0  0  0  0  # atno 17394 bound_to 11000
  140.3752  134.2347  155.7175 LP  0  0  0  0  0  0  0  0  0  0  0  0  # atno 17395 bound_to 11000

$$$$
