AV-unprocessed.smi:2721|AV-procd|sdf|10503|dock1
  -GOLD-   2272014543D 1   1.00000     0.00000
 Structure written by MMmdl.
 29 30  0  0  0  0  0  0  0  0  2 V2000
  141.7515  138.4309  154.1848 C   0  0  0  0  0  0  0  0  0  0  0  0
  142.3602  137.2246  153.6664 N   0  0  0  0  0  0  0  0  0  0  0  0
  143.2382  137.0878  152.6130 C   0  0  0  0  0  0  0  0  0  0  0  0
  143.5403  135.7592  152.5001 C   0  0  0  0  0  0  0  0  0  0  0  0
  144.4336  135.0746  151.4987 C   0  0  2  0  0  0  0  0  0  0  0  0
  143.7334  133.9951  150.8828 O   0  0  0  0  0  0  0  0  0  0  0  0
  144.4633  133.3444  149.8482 C   0  0  0  0  0  0  0  0  0  0  0  0
  145.7315  132.7071  150.4327 C   0  0  0  0  0  0  0  0  0  0  0  0
  146.5768  133.7689  151.1419 C   0  0  0  0  0  0  0  0  0  0  0  0
  145.7187  134.5260  152.1670 C   0  0  1  0  0  0  0  0  0  0  0  0
  146.5066  135.6041  152.7945 N   0  3  0  0  0  0  0  0  0  0  0  0
  142.7829  135.1597  153.5469 C   0  0  0  0  0  0  0  0  0  0  0  0
  142.0786  136.0375  154.2410 N   0  0  0  0  0  0  0  0  0  0  0  0
  144.7123  135.7832  150.7163 H   0  0  0  0  0  0  0  0  0  0  0  0
  145.4336  133.8319  152.9592 H   0  0  0  0  0  0  0  0  0  0  0  0
  141.9162  139.2590  153.4949 H   0  0  0  0  0  0  0  0  0  0  0  0
  142.1930  138.6794  155.1504 H   0  0  0  0  0  0  0  0  0  0  0  0
  140.6781  138.2829  154.3089 H   0  0  0  0  0  0  0  0  0  0  0  0
  143.5718  137.9374  152.0349 H   0  0  0  0  0  0  0  0  0  0  0  0
  143.8310  132.5776  149.4005 H   0  0  0  0  0  0  0  0  0  0  0  0
  144.7102  134.0547  149.0576 H   0  0  0  0  0  0  0  0  0  0  0  0
  145.4539  131.9240  151.1395 H   0  0  0  0  0  0  0  0  0  0  0  0
  146.3112  132.2264  149.6442 H   0  0  0  0  0  0  0  0  0  0  0  0
  147.4332  133.3006  151.6287 H   0  0  0  0  0  0  0  0  0  0  0  0
  146.9774  134.4650  150.4032 H   0  0  0  0  0  0  0  0  0  0  0  0
  146.0491  136.4917  152.6422 H   0  0  0  0  0  0  0  0  0  0  0  0
  147.4307  135.6278  152.3878 H   0  0  0  0  0  0  0  0  0  0  0  0
  142.7213  134.1162  153.8177 H   0  0  0  0  0  0  0  0  0  0  0  0
  146.5815  135.4305  153.7869 H   0  0  0  0  0  0  0  0  0  0  0  0
  1  2  1  0  0  0  0
  1 16  1  0  0  0  0
  1 17  1  0  0  0  0
  1 18  1  0  0  0  0
  2 13  1  0  0  0  0
  2  3  1  0  0  0  0
  3  4  2  0  0  0  0
  3 19  1  0  0  0  0
  4  5  1  0  0  0  0
  4 12  1  0  0  0  0
  5 14  1  0  0  0  0
  5 10  1  0  0  0  0
  5  6  1  0  0  0  0
  6  7  1  0  0  0  0
  7  8  1  0  0  0  0
  7 20  1  0  0  0  0
  7 21  1  0  0  0  0
  8  9  1  0  0  0  0
  8 22  1  0  0  0  0
  8 23  1  0  0  0  0
  9 10  1  0  0  0  0
  9 24  1  0  0  0  0
  9 25  1  0  0  0  0
 10 15  1  0  0  0  0
 10 11  1  0  0  0  0
 11 26  1  0  0  0  0
 11 27  1  0  0  0  0
 11 29  1  0  0  0  0
 12 13  2  0  0  0  0
 12 28  1  0  0  0  0
M  CHG  1  11   1
M  END
> <s_m_source_file>
AV-unprocessed.smi

> <i_m_source_file_index>
2721

> <i_lp_mmshare_version>
43012

> <i_f3d_flags>
0

> <s_epik_input>
W0NIM11uMVtjSF1jKFtjSF1uMSlbQ0BIXTJPW0NIMl1bQ0gyXVtDSDJdW0NAQEhdMltOSDJd

> <s_epik_cmdline>
J2VwaWtfcHl0aG9uJywgJy1waCcsICc3LjAnLCAnLXRuJywgJzgnLCAnLW1hJywgJzIwMCcsICctbWV0YWxfYmluZGluZycsICctaW1hZScsICc8aW5maWxlLm1hZT4nLCAnLW9tYWUnLCAnPG91dGZpbGUubWFlPic=

> <r_lp_tautomer_probability>
1

> <r_epik_Ionization_Penalty>
0.0061467

> <r_epik_Ionization_Penalty_Charging>
0.00611941

> <r_epik_Ionization_Penalty_Neutral>
2.72888e-05

> <r_epik_State_Penalty>
0.00451057

> <r_epik_Charging_Adjusted_Penalty>
0.01063

> <i_epik_Tot_Q>
1

> <i_epik_Tot_abs_Q>
1

> <r_epik_Metal_State_Penalty>
-0

> <b_epik_Metal_Only>
0

> <s_lp_Force_Field>
OPLS_2005

> <r_lp_Energy>
11.0235

> <b_lp_Chiralities_Consistent>
1

> <s_lp_Variant>
AV-unprocessed.smi:2721-4

> <Gold.Version>
5.8.1

> <Gold.Id.Protein>
6NUR|6NUR_protein|mol2

> <Gold.PLP.Fitness>
36.6972

> <Gold.PLP.PLP>
-22.1773

> <Gold.PLP.part.hbond>
-1.0000

> <Gold.PLP.part.metal>
0.0000

> <Gold.PLP.part.buried>
-3.7007

> <Gold.PLP.part.nonpolar>
-17.0034

> <Gold.PLP.part.repulsive>
0.6299

> <Gold.PLP.ligand.clash>
0.0000

> <Gold.PLP.ligand.torsion>
0.1530

> <Gold.PLP.Chemscore.Hbond>
2.0000

> <Gold.PLP.Chemscore.CHOScore>
2.9407

> <Gold.PLP.Chemscore.Metal>
0.0000

> <Gold.Chemscore.Hbonds>
donor molecule, donor type, donor heavy atom, donor atom, acceptor molecule, acceptor atom, score
      L1  H    11    27       P1  7948  2.00
      L1  C     3    19       P1 10171  1.00
      L1  C     3    19       P1 10175  1.00
      L1  C    12    28       P1 10957  0.98

> <Gold.PLP.Chemscore.Internal.Correction>
0.0037

> <Gold.Rescore>
     Score         DG    S(hbond)    S(metal)    S(lipo)     H(rot)  DE(clash)    DE(int)     intcor
     12.17     -12.33       1.00        0.00      51.92       1.00       0.03       0.13       ----

> <Gold.Chemscore.Fitness>
12.1663

> <Gold.Chemscore.DG>
-12.3329

> <Gold.Chemscore.ZeroCoef>
-5.4800

> <Gold.Chemscore.Hbond>
0.9994

> <Gold.Chemscore.Metal>
0.0000

> <Gold.Chemscore.Lipo>
51.9223

> <Gold.Chemscore.Internal_Hbond>
0.0000

> <Gold.Chemscore.DEClash>
0.0320

> <Gold.Chemscore.DEInternal>
0.1346

> <Gold.Chemscore.Rot>
1.0000

> <Gold.Chemscore.Internal.Correction>
   9.000000E+99

> <Gold.Chemscore.Hbonds>
donor molecule, donor type, donor heavy atom, donor atom, acceptor molecule, acceptor atom, score
      L1  H    11    27       P1  7948  1.00

> <Gold.Chemscore.Hbond.Weighted>
-3.3380

> <Gold.Chemscore.Metal.Weighted>
-0.0000

> <Gold.Chemscore.Lipo.Weighted>
-6.0749

> <Gold.Chemscore.Internal_Hbond.Weighted>
0.0000

> <Gold.Chemscore.DEClash.Weighted>
0.0320

> <Gold.Chemscore.DEInternal.Weighted>
0.1346

> <Gold.Chemscore.Rot.Weighted>
2.5600

> <Gold.Chemscore.Internal.Correction.Weighted>
   9.000000E+99

> <Gold.Protein.RotatedTorsions>
[ 6907 6896 6895 6894 ] final   84.86 input  -60.11 | X-H torsion
[ 7974 7965 7964 7962 ] final  -33.86 input  175.53 | X-H torsion
[ 8008 7997 7996 7995 ] final  -26.27 input   59.86 | X-H torsion
[ 10167 10162 10161 10158 ] final   80.62 input  -65.29 | X-H torsion
[ 10718 10713 10712 10709 ] final    2.40 input   66.30 | X-H torsion
[ 10763 10752 10751 10750 ] final  -54.78 input  -60.55 | X-H torsion
[ 11005 11000 10999 10996 ] final   97.17 input  -57.11 | X-H torsion

> <Gold.Protein.ActiveResidues>
 VAL166  LYS551  ARG553  GLY616  TRP617  ASP618  TYR619  PRO620  LYS621  CYS622 
 ASP623  PHE694  ASN695  SER759  ASP760  ASP761  ALA762  ILE779  LEU786  VAL792 
 PHE793  MET794  SER795  GLU796  ALA797  LYS798  CYS799  TRP800  GLU811  SER814 

> <Gold.Protein.RotatedAtoms>
  152.5362  134.2676  159.8958 H   0  0  0  0  0  0  0  0  0  0  0  0  # atno 6907 bound_to 6896
  151.2634  133.4284  159.2625 H   0  0  0  0  0  0  0  0  0  0  0  0  # atno 6908 bound_to 6896
  151.0432  134.9636  159.8229 H   0  0  0  0  0  0  0  0  0  0  0  0  # atno 6909 bound_to 6896
  146.0877  140.5968  142.8879 H   0  0  0  0  0  0  0  0  0  0  0  0  # atno 7974 bound_to 7965
  154.4433  140.1904  156.0749 H   0  0  0  0  0  0  0  0  0  0  0  0  # atno 8008 bound_to 7997
  156.0483  140.3311  155.7295 H   0  0  0  0  0  0  0  0  0  0  0  0  # atno 8009 bound_to 7997
  155.5596  140.0602  157.2822 H   0  0  0  0  0  0  0  0  0  0  0  0  # atno 8010 bound_to 7997
  139.9478  144.6046  150.8190 H   0  0  0  0  0  0  0  0  0  0  0  0  # atno 10167 bound_to 10162
  156.8624  130.5591  149.5662 H   0  0  0  0  0  0  0  0  0  0  0  0  # atno 10718 bound_to 10713
  154.1803  135.6444  153.5032 H   0  0  0  0  0  0  0  0  0  0  0  0  # atno 10763 bound_to 10752
  153.0061  135.5404  154.6521 H   0  0  0  0  0  0  0  0  0  0  0  0  # atno 10764 bound_to 10752
  154.5884  135.2932  155.0634 H   0  0  0  0  0  0  0  0  0  0  0  0  # atno 10765 bound_to 10752
  139.8777  134.8987  156.4267 H   0  0  0  0  0  0  0  0  0  0  0  0  # atno 11005 bound_to 11000
  144.7337  140.4747  143.6919 LP  0  0  0  0  0  0  0  0  0  0  0  0  # atno 17320 bound_to 7965
  145.6099  139.1512  143.3081 LP  0  0  0  0  0  0  0  0  0  0  0  0  # atno 17321 bound_to 7965
  140.7592  143.3123  151.2814 LP  0  0  0  0  0  0  0  0  0  0  0  0  # atno 17342 bound_to 10162
  139.6653  144.0117  152.2719 LP  0  0  0  0  0  0  0  0  0  0  0  0  # atno 17343 bound_to 10162
  156.0770  130.5789  150.9491 LP  0  0  0  0  0  0  0  0  0  0  0  0  # atno 17370 bound_to 10713
  157.6242  131.0927  150.8564 LP  0  0  0  0  0  0  0  0  0  0  0  0  # atno 17371 bound_to 10713
  140.9096  133.7721  155.9775 LP  0  0  0  0  0  0  0  0  0  0  0  0  # atno 17394 bound_to 11000
  140.8561  134.2896  157.5254 LP  0  0  0  0  0  0  0  0  0  0  0  0  # atno 17395 bound_to 11000

$$$$
