AV-unprocessed.smi:3211|AV-procd|sdf|12274|dock3
  -GOLD-   2272018113D 1   1.00000     0.00000
 Structure written by MMmdl.
 34 35  0  0  0  0  0  0  0  0  1 V2000
  153.2127  142.2453  161.9905 C   0  0  0  0  0  0  0  0  0  0  0  0
  152.6533  143.6171  161.5993 C   0  0  0  0  0  0  0  0  0  0  0  0
  152.2421  143.6815  160.1666 C   0  0  0  0  0  0  0  0  0  0  0  0
  152.0730  142.6012  159.4001 N   0  0  0  0  0  0  0  0  0  0  0  0
  151.6602  142.9196  158.1026 C   0  0  0  0  0  0  0  0  0  0  0  0
  151.4302  141.8268  157.1039 C   0  0  0  0  0  0  0  0  0  0  0  0
  150.3840  140.8083  157.5861 C   0  0  0  0  0  0  0  0  0  0  0  0
  149.1463  140.9099  156.8208 N   0  0  0  0  0  0  0  0  0  0  0  0
  149.0708  140.9613  155.4822 C   0  0  0  0  0  0  0  0  0  0  0  0
  150.0618  140.9148  154.7519 O   0  0  0  0  0  0  0  0  0  0  0  0
  147.6773  141.0862  154.9580 C   0  0  2  0  0  0  0  0  0  0  0  0
  147.4852  141.0395  153.4556 C   0  0  0  0  0  0  0  0  0  0  0  0
  147.3236  142.3473  154.1917 C   0  0  1  0  0  0  0  0  0  0  0  0
  145.9610  142.9850  154.3556 C   0  0  0  0  0  0  0  0  0  0  0  0
  151.5019  144.2682  157.9008 C   0  0  0  0  0  0  0  0  0  0  0  0
  151.8662  145.1867  159.3356 S   0  0  0  0  0  0  0  0  0  0  0  0
  153.5020  142.2294  163.0413 H   0  0  0  0  0  0  0  0  0  0  0  0
  154.0942  141.9968  161.3986 H   0  0  0  0  0  0  0  0  0  0  0  0
  152.4726  141.4595  161.8360 H   0  0  0  0  0  0  0  0  0  0  0  0
  151.7906  143.8577  162.2213 H   0  0  0  0  0  0  0  0  0  0  0  0
  153.3993  144.3902  161.7874 H   0  0  0  0  0  0  0  0  0  0  0  0
  151.1084  142.2546  156.1535 H   0  0  0  0  0  0  0  0  0  0  0  0
  152.3719  141.3165  156.8967 H   0  0  0  0  0  0  0  0  0  0  0  0
  150.7797  139.7929  157.5261 H   0  0  0  0  0  0  0  0  0  0  0  0
  150.1493  140.9876  158.6357 H   0  0  0  0  0  0  0  0  0  0  0  0
  148.2855  140.9523  157.3470 H   0  0  0  0  0  0  0  0  0  0  0  0
  146.8899  140.6400  155.5638 H   0  0  0  0  0  0  0  0  0  0  0  0
  148.3628  140.9293  152.8210 H   0  0  0  0  0  0  0  0  0  0  0  0
  146.5904  140.5401  153.0896 H   0  0  0  0  0  0  0  0  0  0  0  0
  148.1197  143.0749  154.0411 H   0  0  0  0  0  0  0  0  0  0  0  0
  145.1915  142.2258  154.4987 H   0  0  0  0  0  0  0  0  0  0  0  0
  145.7123  143.5691  153.4694 H   0  0  0  0  0  0  0  0  0  0  0  0
  145.9610  143.6480  155.2208 H   0  0  0  0  0  0  0  0  0  0  0  0
  151.1900  144.7748  156.9997 H   0  0  0  0  0  0  0  0  0  0  0  0
  1  2  1  0  0  0  0
  1 17  1  0  0  0  0
  1 18  1  0  0  0  0
  1 19  1  0  0  0  0
  2  3  1  0  0  0  0
  2 20  1  0  0  0  0
  2 21  1  0  0  0  0
  3 16  1  0  0  0  0
  3  4  2  0  0  0  0
  4  5  1  0  0  0  0
  5  6  1  0  0  0  0
  5 15  2  0  0  0  0
  6  7  1  0  0  0  0
  6 22  1  0  0  0  0
  6 23  1  0  0  0  0
  7  8  1  0  0  0  0
  7 24  1  0  0  0  0
  7 25  1  0  0  0  0
  8  9  1  0  0  0  0
  8 26  1  0  0  0  0
  9 10  2  0  0  0  0
  9 11  1  0  0  0  0
 11 13  1  0  0  0  0
 11 12  1  0  0  0  0
 11 27  1  0  0  0  0
 12 13  1  0  0  0  0
 12 28  1  0  0  0  0
 12 29  1  0  0  0  0
 13 14  1  0  0  0  0
 13 30  1  0  0  0  0
 14 31  1  0  0  0  0
 14 32  1  0  0  0  0
 14 33  1  0  0  0  0
 15 16  1  0  0  0  0
 15 34  1  0  0  0  0
M  END
> <s_m_source_file>
AV-unprocessed.smi

> <i_m_source_file_index>
3211

> <i_lp_mmshare_version>
43012

> <i_f3d_flags>
0

> <s_epik_input>
W0NIM11bQ0gyXWMxbmMoW2NIXXMxKVtDSDJdW0NIMl1bTkhdQyg9TylbQ0BASF0yW0NIMl1bQ0BIXTJbQ0gzXQ==

> <s_epik_cmdline>
J2VwaWtfcHl0aG9uJywgJy1waCcsICc3LjAnLCAnLXRuJywgJzgnLCAnLW1hJywgJzIwMCcsICctbWV0YWxfYmluZGluZycsICctaW1hZScsICc8aW5maWxlLm1hZT4nLCAnLW9tYWUnLCAnPG91dGZpbGUubWFlPic=

> <r_epik_Ionization_Penalty>
0.00109667

> <r_epik_Ionization_Penalty_Charging>
0

> <r_epik_Ionization_Penalty_Neutral>
0.00109667

> <r_epik_State_Penalty>
0.000719322

> <r_epik_Charging_Adjusted_Penalty>
0.000719322

> <i_epik_Tot_Q>
0

> <i_epik_Tot_abs_Q>
0

> <r_epik_Metal_State_Penalty>
-0

> <b_epik_Metal_Only>
0

> <s_lp_Force_Field>
OPLS_2005

> <r_lp_Energy>
-0.493762

> <b_lp_Chiralities_Consistent>
1

> <s_lp_Variant>
AV-unprocessed.smi:3211-1

> <Gold.Version>
5.8.1

> <Gold.Id.Protein>
6NUR|6NUR_protein|mol2

> <Gold.PLP.Fitness>
45.2806

> <Gold.PLP.PLP>
-41.2395

> <Gold.PLP.part.hbond>
-1.0000

> <Gold.PLP.part.metal>
0.0000

> <Gold.PLP.part.buried>
-5.7509

> <Gold.PLP.part.nonpolar>
-34.1695

> <Gold.PLP.part.repulsive>
0.1338

> <Gold.PLP.ligand.clash>
0.0000

> <Gold.PLP.ligand.torsion>
0.6211

> <Gold.PLP.Chemscore.Hbond>
0.7360

> <Gold.PLP.Chemscore.CHOScore>
0.9905

> <Gold.PLP.Chemscore.Metal>
0.0000

> <Gold.Chemscore.Hbonds>
donor molecule, donor type, donor heavy atom, donor atom, acceptor molecule, acceptor atom, score
      P1  H  7989  7998       L1    10  0.70
      L1  C    15    34       P1  8028  0.77

> <Gold.PLP.Chemscore.Internal.Correction>
0.1039

> <Gold.Rescore>
     Score         DG    S(hbond)    S(metal)    S(lipo)     H(rot)  DE(clash)    DE(int)     intcor
     15.59     -17.39       0.88        0.00     109.70       1.51       0.08       1.72       ----

> <Gold.Chemscore.Fitness>
15.5897

> <Gold.Chemscore.DG>
-17.3887

> <Gold.Chemscore.ZeroCoef>
-5.4800

> <Gold.Chemscore.Hbond>
0.8797

> <Gold.Chemscore.Metal>
0.0000

> <Gold.Chemscore.Lipo>
109.7010

> <Gold.Chemscore.Internal_Hbond>
0.0000

> <Gold.Chemscore.DEClash>
0.0788

> <Gold.Chemscore.DEInternal>
1.7202

> <Gold.Chemscore.Rot>
1.5096

> <Gold.Chemscore.Internal.Correction>
   9.000000E+99

> <Gold.Chemscore.Hbonds>
donor molecule, donor type, donor heavy atom, donor atom, acceptor molecule, acceptor atom, score
      P1  H  7989  7998       L1    10  0.68

> <Gold.Chemscore.Hbond.Weighted>
-2.9383

> <Gold.Chemscore.Metal.Weighted>
-0.0000

> <Gold.Chemscore.Lipo.Weighted>
-12.8350

> <Gold.Chemscore.Internal_Hbond.Weighted>
0.0000

> <Gold.Chemscore.DEClash.Weighted>
0.0788

> <Gold.Chemscore.DEInternal.Weighted>
1.7202

> <Gold.Chemscore.Rot.Weighted>
3.8646

> <Gold.Chemscore.Internal.Correction.Weighted>
   9.000000E+99

> <Gold.Protein.RotatedTorsions>
[ 6907 6896 6895 6894 ] final  137.07 input  -60.11 | X-H torsion
[ 7974 7965 7964 7962 ] final    4.74 input  175.53 | X-H torsion
[ 8008 7997 7996 7995 ] final  -40.98 input   59.86 | X-H torsion
[ 10167 10162 10161 10158 ] final  -19.51 input  -65.29 | X-H torsion
[ 10718 10713 10712 10709 ] final   29.79 input   66.30 | X-H torsion
[ 10763 10752 10751 10750 ] final   29.80 input  -60.55 | X-H torsion
[ 11005 11000 10999 10996 ] final  109.93 input  -57.11 | X-H torsion

> <Gold.Protein.ActiveResidues>
 VAL166  LYS551  ARG553  GLY616  TRP617  ASP618  TYR619  PRO620  LYS621  CYS622 
 ASP623  PHE694  ASN695  SER759  ASP760  ASP761  ALA762  ILE779  LEU786  VAL792 
 PHE793  MET794  SER795  GLU796  ALA797  LYS798  CYS799  TRP800  GLU811  SER814 

> <Gold.Protein.RotatedAtoms>
  152.2822  133.5481  159.5504 H   0  0  0  0  0  0  0  0  0  0  0  0  # atno 6907 bound_to 6896
  150.7200  134.0548  159.3819 H   0  0  0  0  0  0  0  0  0  0  0  0  # atno 6908 bound_to 6896
  151.8458  135.0575  160.0504 H   0  0  0  0  0  0  0  0  0  0  0  0  # atno 6909 bound_to 6896
  146.2443  140.0490  142.8376 H   0  0  0  0  0  0  0  0  0  0  0  0  # atno 7974 bound_to 7965
  154.4007  140.1511  156.3116 H   0  0  0  0  0  0  0  0  0  0  0  0  # atno 8008 bound_to 7997
  155.8610  140.3453  155.5735 H   0  0  0  0  0  0  0  0  0  0  0  0  # atno 8009 bound_to 7997
  155.7880  140.0852  157.2015 H   0  0  0  0  0  0  0  0  0  0  0  0  # atno 8010 bound_to 7997
  140.7269  143.4812  151.0115 H   0  0  0  0  0  0  0  0  0  0  0  0  # atno 10167 bound_to 10162
  157.2512  130.7116  149.6406 H   0  0  0  0  0  0  0  0  0  0  0  0  # atno 10718 bound_to 10713
  153.0409  135.6480  154.0946 H   0  0  0  0  0  0  0  0  0  0  0  0  # atno 10763 bound_to 10752
  154.0652  135.2885  155.3319 H   0  0  0  0  0  0  0  0  0  0  0  0  # atno 10764 bound_to 10752
  154.6631  135.5384  153.8107 H   0  0  0  0  0  0  0  0  0  0  0  0  # atno 10765 bound_to 10752
  139.8871  134.9471  156.6201 H   0  0  0  0  0  0  0  0  0  0  0  0  # atno 11005 bound_to 11000
  145.1001  140.9340  143.4717 LP  0  0  0  0  0  0  0  0  0  0  0  0  # atno 17320 bound_to 7965
  145.0681  139.3053  143.5846 LP  0  0  0  0  0  0  0  0  0  0  0  0  # atno 17321 bound_to 7965
  139.8511  143.7437  152.3178 LP  0  0  0  0  0  0  0  0  0  0  0  0  # atno 17342 bound_to 10162
  139.7620  144.7503  151.0350 LP  0  0  0  0  0  0  0  0  0  0  0  0  # atno 17343 bound_to 10162
  155.9666  130.4427  150.5392 LP  0  0  0  0  0  0  0  0  0  0  0  0  # atno 17370 bound_to 10713
  157.3276  131.0693  151.1885 LP  0  0  0  0  0  0  0  0  0  0  0  0  # atno 17371 bound_to 10713
  140.7746  133.8710  155.8519 LP  0  0  0  0  0  0  0  0  0  0  0  0  # atno 17394 bound_to 11000
  140.9813  134.1402  157.4492 LP  0  0  0  0  0  0  0  0  0  0  0  0  # atno 17395 bound_to 11000

$$$$
