AV-unprocessed.smi:2003|AV-procd|sdf|8120|dock1
  -GOLD-   2272010353D 1   1.00000     0.00000
 Structure written by MMmdl.
 44 45  0  0  0  0  0  0  0  0  2 V2000
  153.0182  142.0084  161.4251 C   0  0  0  0  0  0  0  0  0  0  0  0
  152.4580  142.5898  160.1607 C   0  0  0  0  0  0  0  0  0  0  0  0
  151.5627  141.9792  159.2350 C   0  0  0  0  0  0  0  0  0  0  0  0
  151.3970  142.9536  158.2889 C   0  0  0  0  0  0  0  0  0  0  0  0
  150.6424  142.9289  157.1582 N   0  0  0  0  0  0  0  0  0  0  0  0
  150.4433  141.9104  156.3032 C   0  0  0  0  0  0  0  0  0  0  0  0
  150.9161  140.7795  156.4166 O   0  0  0  0  0  0  0  0  0  0  0  0
  149.6572  142.2825  155.2818 N   0  0  0  0  0  0  0  0  0  0  0  0
  149.2371  141.4212  154.1781 C   0  0  0  0  0  0  0  0  0  0  0  0
  147.7846  141.6976  153.7068 C   0  0  1  0  0  0  0  0  0  0  0  0
  147.1198  140.4037  153.1748 C   0  0  0  0  0  0  0  0  0  0  0  0
  147.0060  142.3569  154.8074 N   0  3  0  0  0  0  0  0  0  0  0  0
  145.6715  142.8389  154.3572 C   0  0  0  0  0  0  0  0  0  0  0  0
  144.9466  143.5948  155.4826 C   0  0  0  0  0  0  0  0  0  0  0  0
  144.8082  142.7445  156.6109 O   0  0  0  0  0  0  0  0  0  0  0  0
  146.0723  142.3514  157.1241 C   0  0  0  0  0  0  0  0  0  0  0  0
  146.8495  141.5613  156.0569 C   0  0  0  0  0  0  0  0  0  0  0  0
  152.1484  144.0516  158.6448 N   0  0  0  0  0  0  0  0  0  0  0  0
  152.2989  145.3250  157.9677 C   0  0  0  0  0  0  0  0  0  0  0  0
  152.8012  143.8225  159.8047 N   0  0  0  0  0  0  0  0  0  0  0  0
  152.6589  140.9914  161.5840 H   0  0  0  0  0  0  0  0  0  0  0  0
  152.7282  142.6015  162.2927 H   0  0  0  0  0  0  0  0  0  0  0  0
  154.1075  141.9734  161.3924 H   0  0  0  0  0  0  0  0  0  0  0  0
  151.1289  140.9917  159.2785 H   0  0  0  0  0  0  0  0  0  0  0  0
  150.1807  143.7974  156.9321 H   0  0  0  0  0  0  0  0  0  0  0  0
  149.3170  143.2332  155.2698 H   0  0  0  0  0  0  0  0  0  0  0  0
  149.9240  141.5048  153.3339 H   0  0  0  0  0  0  0  0  0  0  0  0
  149.3430  140.4018  154.5442 H   0  0  0  0  0  0  0  0  0  0  0  0
  147.8221  142.3932  152.8665 H   0  0  0  0  0  0  0  0  0  0  0  0
  147.7034  139.9467  152.3766 H   0  0  0  0  0  0  0  0  0  0  0  0
  146.1398  140.5946  152.7377 H   0  0  0  0  0  0  0  0  0  0  0  0
  147.0059  139.6598  153.9639 H   0  0  0  0  0  0  0  0  0  0  0  0
  145.7597  143.5028  153.4994 H   0  0  0  0  0  0  0  0  0  0  0  0
  145.0665  141.9891  154.0369 H   0  0  0  0  0  0  0  0  0  0  0  0
  145.4854  144.5038  155.7551 H   0  0  0  0  0  0  0  0  0  0  0  0
  143.9544  143.9006  155.1500 H   0  0  0  0  0  0  0  0  0  0  0  0
  146.6365  143.2278  157.4474 H   0  0  0  0  0  0  0  0  0  0  0  0
  145.9160  141.7323  158.0076 H   0  0  0  0  0  0  0  0  0  0  0  0
  146.3351  140.6251  155.8347 H   0  0  0  0  0  0  0  0  0  0  0  0
  147.8201  141.3111  156.4842 H   0  0  0  0  0  0  0  0  0  0  0  0
  152.4995  145.1581  156.9091 H   0  0  0  0  0  0  0  0  0  0  0  0
  153.1270  145.8915  158.3964 H   0  0  0  0  0  0  0  0  0  0  0  0
  151.3808  145.9039  158.0707 H   0  0  0  0  0  0  0  0  0  0  0  0
  147.5375  143.1739  155.0727 H   0  0  0  0  0  0  0  0  0  0  0  0
  1  2  1  0  0  0  0
  1 21  1  0  0  0  0
  1 22  1  0  0  0  0
  1 23  1  0  0  0  0
  2 20  2  0  0  0  0
  2  3  1  0  0  0  0
  3  4  2  0  0  0  0
  3 24  1  0  0  0  0
  4  5  1  0  0  0  0
  4 18  1  0  0  0  0
  5  6  1  0  0  0  0
  5 25  1  0  0  0  0
  6  7  2  0  0  0  0
  6  8  1  0  0  0  0
  8  9  1  0  0  0  0
  8 26  1  0  0  0  0
  9 10  1  0  0  0  0
  9 27  1  0  0  0  0
  9 28  1  0  0  0  0
 10 11  1  0  0  0  0
 10 12  1  0  0  0  0
 10 29  1  0  0  0  0
 11 30  1  0  0  0  0
 11 31  1  0  0  0  0
 11 32  1  0  0  0  0
 12 17  1  0  0  0  0
 12 13  1  0  0  0  0
 12 44  1  0  0  0  0
 13 14  1  0  0  0  0
 13 33  1  0  0  0  0
 13 34  1  0  0  0  0
 14 15  1  0  0  0  0
 14 35  1  0  0  0  0
 14 36  1  0  0  0  0
 15 16  1  0  0  0  0
 16 17  1  0  0  0  0
 16 37  1  0  0  0  0
 16 38  1  0  0  0  0
 17 39  1  0  0  0  0
 17 40  1  0  0  0  0
 18 19  1  0  0  0  0
 18 20  1  0  0  0  0
 19 41  1  0  0  0  0
 19 42  1  0  0  0  0
 19 43  1  0  0  0  0
M  CHG  1  12   1
M  END
> <s_m_source_file>
AV-unprocessed.smi

> <i_m_source_file_index>
2003

> <i_lp_mmshare_version>
43012

> <i_f3d_flags>
0

> <s_epik_input>
W0NIM11jMVtjSF1jKG4objEpW0NIM10pW05IXUMoPU8pW05IXVtDSDJdW0NASF0oW0NIM10pTjJbQ0gyXVtDSDJdT1tDSDJdW0NIMl0y

> <s_epik_cmdline>
J2VwaWtfcHl0aG9uJywgJy1waCcsICc3LjAnLCAnLXRuJywgJzgnLCAnLW1hJywgJzIwMCcsICctbWV0YWxfYmluZGluZycsICctaW1hZScsICc8aW5maWxlLm1hZT4nLCAnLW9tYWUnLCAnPG91dGZpbGUubWFlPic=

> <r_lp_tautomer_probability>
1

> <r_epik_Ionization_Penalty>
0.663903

> <r_epik_Ionization_Penalty_Charging>
0.663826

> <r_epik_Ionization_Penalty_Neutral>
7.78239e-05

> <r_epik_State_Penalty>
0.683414

> <r_epik_Charging_Adjusted_Penalty>
1.34724

> <i_epik_Tot_Q>
1

> <i_epik_Tot_abs_Q>
1

> <r_epik_Metal_State_Penalty>
0.683419

> <b_epik_Metal_Only>
0

> <s_lp_Force_Field>
OPLS_2005

> <r_lp_Energy>
22.6974

> <b_lp_Chiralities_Consistent>
1

> <s_lp_Variant>
AV-unprocessed.smi:2003-4

> <Gold.Version>
5.8.1

> <Gold.Id.Protein>
6NUR|6NUR_protein|mol2

> <Gold.PLP.Fitness>
51.1319

> <Gold.PLP.PLP>
-41.3101

> <Gold.PLP.part.hbond>
-2.9769

> <Gold.PLP.part.metal>
0.0000

> <Gold.PLP.part.buried>
-5.2424

> <Gold.PLP.part.nonpolar>
-33.1233

> <Gold.PLP.part.repulsive>
0.4199

> <Gold.PLP.ligand.clash>
0.0000

> <Gold.PLP.ligand.torsion>
0.9399

> <Gold.PLP.Chemscore.Hbond>
3.8590

> <Gold.PLP.Chemscore.CHOScore>
0.0000

> <Gold.PLP.Chemscore.Metal>
0.0000

> <Gold.Chemscore.Hbonds>
donor molecule, donor type, donor heavy atom, donor atom, acceptor molecule, acceptor atom, score
      L1  H     5    25       P1  8028  0.93
      L1  H     8    26       P1  8028  1.00
      L1  H    12    44       P1  8028  1.69

> <Gold.PLP.Chemscore.Internal.Correction>
0.1244

> <Gold.Rescore>
     Score         DG    S(hbond)    S(metal)    S(lipo)     H(rot)  DE(clash)    DE(int)     intcor
     15.35     -18.30       2.14        0.00      82.07       1.54       1.24       1.71       ----

> <Gold.Chemscore.Fitness>
15.3492

> <Gold.Chemscore.DG>
-18.3010

> <Gold.Chemscore.ZeroCoef>
-5.4800

> <Gold.Chemscore.Hbond>
2.1438

> <Gold.Chemscore.Metal>
0.0000

> <Gold.Chemscore.Lipo>
82.0740

> <Gold.Chemscore.Internal_Hbond>
0.0000

> <Gold.Chemscore.DEClash>
1.2428

> <Gold.Chemscore.DEInternal>
1.7091

> <Gold.Chemscore.Rot>
1.5398

> <Gold.Chemscore.Internal.Correction>
   9.000000E+99

> <Gold.Chemscore.Hbonds>
donor molecule, donor type, donor heavy atom, donor atom, acceptor molecule, acceptor atom, score
      L1  H     5    25       P1  8028  0.84
      L1  H     8    26       P1  8028  0.98
      L1  H    12    44       P1  8028  0.29

> <Gold.Chemscore.Hbond.Weighted>
-7.1604

> <Gold.Chemscore.Metal.Weighted>
-0.0000

> <Gold.Chemscore.Lipo.Weighted>
-9.6027

> <Gold.Chemscore.Internal_Hbond.Weighted>
0.0000

> <Gold.Chemscore.DEClash.Weighted>
1.2428

> <Gold.Chemscore.DEInternal.Weighted>
1.7091

> <Gold.Chemscore.Rot.Weighted>
3.9420

> <Gold.Chemscore.Internal.Correction.Weighted>
   9.000000E+99

> <Gold.Protein.RotatedTorsions>
[ 6907 6896 6895 6894 ] final  -10.10 input  -60.11 | X-H torsion
[ 7974 7965 7964 7962 ] final -140.79 input  175.53 | X-H torsion
[ 8008 7997 7996 7995 ] final  130.32 input   59.86 | X-H torsion
[ 10167 10162 10161 10158 ] final   20.62 input  -65.29 | X-H torsion
[ 10718 10713 10712 10709 ] final  -67.92 input   66.30 | X-H torsion
[ 10763 10752 10751 10750 ] final  111.02 input  -60.55 | X-H torsion
[ 11005 11000 10999 10996 ] final -133.26 input  -57.11 | X-H torsion

> <Gold.Protein.ActiveResidues>
 VAL166  LYS551  ARG553  GLY616  TRP617  ASP618  TYR619  PRO620  LYS621  CYS622 
 ASP623  PHE694  ASN695  SER759  ASP760  ASP761  ALA762  ILE779  LEU786  VAL792 
 PHE793  MET794  SER795  GLU796  ALA797  LYS798  CYS799  TRP800  GLU811  SER814 

> <Gold.Protein.RotatedAtoms>
  151.4073  135.0980  159.9573 H   0  0  0  0  0  0  0  0  0  0  0  0  # atno 6907 bound_to 6896
  152.5031  133.8831  159.7367 H   0  0  0  0  0  0  0  0  0  0  0  0  # atno 6908 bound_to 6896
  150.9318  133.6701  159.2837 H   0  0  0  0  0  0  0  0  0  0  0  0  # atno 6909 bound_to 6896
  144.8570  140.6158  143.5353 H   0  0  0  0  0  0  0  0  0  0  0  0  # atno 7974 bound_to 7965
  156.2952  140.2599  156.2742 H   0  0  0  0  0  0  0  0  0  0  0  0  # atno 8008 bound_to 7997
  154.9665  140.0391  157.2233 H   0  0  0  0  0  0  0  0  0  0  0  0  # atno 8009 bound_to 7997
  154.7898  140.2810  155.6005 H   0  0  0  0  0  0  0  0  0  0  0  0  # atno 8010 bound_to 7997
  140.5489  143.9544  150.6565 H   0  0  0  0  0  0  0  0  0  0  0  0  # atno 10167 bound_to 10162
  156.0532  130.4286  150.1925 H   0  0  0  0  0  0  0  0  0  0  0  0  # atno 10718 bound_to 10713
  153.4574  135.3730  155.2318 H   0  0  0  0  0  0  0  0  0  0  0  0  # atno 10763 bound_to 10752
  154.8757  135.3900  154.3966 H   0  0  0  0  0  0  0  0  0  0  0  0  # atno 10764 bound_to 10752
  153.4534  135.7086  153.6159 H   0  0  0  0  0  0  0  0  0  0  0  0  # atno 10765 bound_to 10752
  140.9096  134.1585  157.4399 H   0  0  0  0  0  0  0  0  0  0  0  0  # atno 11005 bound_to 11000
  145.4387  139.1538  143.3982 LP  0  0  0  0  0  0  0  0  0  0  0  0  # atno 17320 bound_to 7965
  146.2830  140.4507  142.8769 LP  0  0  0  0  0  0  0  0  0  0  0  0  # atno 17321 bound_to 7965
  140.2965  143.3289  152.1013 LP  0  0  0  0  0  0  0  0  0  0  0  0  # atno 17342 bound_to 10162
  139.5019  144.6723  151.6212 LP  0  0  0  0  0  0  0  0  0  0  0  0  # atno 17343 bound_to 10162
  157.0005  130.9921  151.3392 LP  0  0  0  0  0  0  0  0  0  0  0  0  # atno 17370 bound_to 10713
  157.5478  130.8162  149.8107 LP  0  0  0  0  0  0  0  0  0  0  0  0  # atno 17371 bound_to 10713
  139.8755  134.9930  156.5626 LP  0  0  0  0  0  0  0  0  0  0  0  0  # atno 17394 bound_to 11000
  140.8127  133.8416  155.8824 LP  0  0  0  0  0  0  0  0  0  0  0  0  # atno 17395 bound_to 11000

$$$$
