AV-unprocessed.smi:142|AV-procd|sdf|1189|dock5
  -GOLD-   2262018343D 1   1.00000     0.00000
 Structure written by MMmdl.
 52 55  0  0  0  0  0  0  0  0  1 V2000
  155.3344  140.4983  163.2479 C   0  0  0  0  0  0  0  0  0  0  0  0
  154.7149  140.2881  161.8596 C   0  0  2  0  0  0  0  0  0  0  0  0
  155.7709  139.9486  160.9075 N   0  0  0  0  0  0  0  0  0  0  0  0
  155.7403  138.9127  160.0555 C   0  0  0  0  0  0  0  0  0  0  0  0
  154.8075  138.1095  160.0057 O   0  0  0  0  0  0  0  0  0  0  0  0
  156.9560  138.7729  159.1267 C   0  0  0  0  0  0  0  0  0  0  0  0
  156.9534  137.5142  158.3500 N   0  0  0  0  0  0  0  0  0  0  0  0
  156.8941  136.2861  159.0541 C   0  0  0  0  0  0  0  0  0  0  0  0
  156.8286  136.2582  160.2842 O   0  0  0  0  0  0  0  0  0  0  0  0
  156.9251  135.0842  158.2284 C   0  0  0  0  0  0  0  0  0  0  0  0
  156.8669  133.8750  158.8115 F   0  0  0  0  0  0  0  0  0  0  0  0
  157.0137  135.1658  156.8847 C   0  0  0  0  0  0  0  0  0  0  0  0
  157.0772  136.3724  156.2106 N   0  0  0  0  0  0  0  0  0  0  0  0
  157.1961  136.4466  154.7032 C   0  0  2  0  0  0  0  0  0  0  0  0
  158.3242  137.4116  154.2955 C   0  0  0  0  0  0  0  0  0  0  0  0
  157.6462  138.3019  153.2737 C   0  0  0  0  0  0  0  0  0  0  0  0
  156.2059  138.2986  153.7637 C   0  0  0  0  0  0  0  0  0  0  0  0
  156.0089  136.9466  154.1562 O   0  0  0  0  0  0  0  0  0  0  0  0
  157.0511  137.5810  156.9398 C   0  0  0  0  0  0  0  0  0  0  0  0
  157.1162  138.6660  156.3577 O   0  0  0  0  0  0  0  0  0  0  0  0
  153.8905  141.5027  161.4411 C   0  0  0  0  0  0  0  0  0  0  0  0
  153.3445  142.3437  162.4342 C   0  0  0  0  0  0  0  0  0  0  0  0
  152.5882  143.4762  162.0757 C   0  0  0  0  0  0  0  0  0  0  0  0
  152.3729  143.7811  160.7167 C   0  0  0  0  0  0  0  0  0  0  0  0
  151.6177  144.9146  160.3505 C   0  0  0  0  0  0  0  0  0  0  0  0
  151.4065  145.2122  158.9900 C   0  0  0  0  0  0  0  0  0  0  0  0
  151.9485  144.3786  157.9928 C   0  0  0  0  0  0  0  0  0  0  0  0
  152.7051  143.2464  158.3527 C   0  0  0  0  0  0  0  0  0  0  0  0
  152.9201  142.9440  159.7132 C   0  0  0  0  0  0  0  0  0  0  0  0
  153.6783  141.8130  160.0781 C   0  0  0  0  0  0  0  0  0  0  0  0
  154.5633  140.6801  163.9972 H   0  0  0  0  0  0  0  0  0  0  0  0
  156.0121  141.3527  163.2550 H   0  0  0  0  0  0  0  0  0  0  0  0
  155.8994  139.6212  163.5652 H   0  0  0  0  0  0  0  0  0  0  0  0
  154.0406  139.4321  161.9270 H   0  0  0  0  0  0  0  0  0  0  0  0
  156.5759  140.5575  160.8841 H   0  0  0  0  0  0  0  0  0  0  0  0
  156.9925  139.6350  158.4582 H   0  0  0  0  0  0  0  0  0  0  0  0
  157.8600  138.8684  159.7297 H   0  0  0  0  0  0  0  0  0  0  0  0
  157.0369  134.2389  156.3327 H   0  0  0  0  0  0  0  0  0  0  0  0
  157.3416  135.4192  154.3639 H   0  0  0  0  0  0  0  0  0  0  0  0
  158.6469  137.9992  155.1564 H   0  0  0  0  0  0  0  0  0  0  0  0
  159.1801  136.8679  153.8949 H   0  0  0  0  0  0  0  0  0  0  0  0
  158.0782  139.3016  153.2230 H   0  0  0  0  0  0  0  0  0  0  0  0
  157.7058  137.8503  152.2826 H   0  0  0  0  0  0  0  0  0  0  0  0
  156.0871  138.9611  154.6222 H   0  0  0  0  0  0  0  0  0  0  0  0
  155.4955  138.6003  152.9939 H   0  0  0  0  0  0  0  0  0  0  0  0
  153.5043  142.1212  163.4791 H   0  0  0  0  0  0  0  0  0  0  0  0
  152.1761  144.1087  162.8484 H   0  0  0  0  0  0  0  0  0  0  0  0
  151.1982  145.5595  161.1091 H   0  0  0  0  0  0  0  0  0  0  0  0
  150.8274  146.0802  158.7114 H   0  0  0  0  0  0  0  0  0  0  0  0
  151.7843  144.6075  156.9502 H   0  0  0  0  0  0  0  0  0  0  0  0
  153.1174  142.6124  157.5812 H   0  0  0  0  0  0  0  0  0  0  0  0
  154.0979  141.1848  159.3057 H   0  0  0  0  0  0  0  0  0  0  0  0
  1  2  1  0  0  0  0
  1 31  1  0  0  0  0
  1 32  1  0  0  0  0
  1 33  1  0  0  0  0
  2  3  1  0  0  0  0
  2 21  1  0  0  0  0
  2 34  1  0  0  0  0
  3  4  1  0  0  0  0
  3 35  1  0  0  0  0
  4  5  2  0  0  0  0
  4  6  1  0  0  0  0
  6  7  1  0  0  0  0
  6 36  1  0  0  0  0
  6 37  1  0  0  0  0
  7 19  1  0  0  0  0
  7  8  1  0  0  0  0
  8  9  2  0  0  0  0
  8 10  1  0  0  0  0
 10 11  1  0  0  0  0
 10 12  2  0  0  0  0
 12 13  1  0  0  0  0
 12 38  1  0  0  0  0
 13 14  1  0  0  0  0
 13 19  1  0  0  0  0
 14 18  1  0  0  0  0
 14 15  1  0  0  0  0
 14 39  1  0  0  0  0
 15 16  1  0  0  0  0
 15 40  1  0  0  0  0
 15 41  1  0  0  0  0
 16 17  1  0  0  0  0
 16 42  1  0  0  0  0
 16 43  1  0  0  0  0
 17 18  1  0  0  0  0
 17 44  1  0  0  0  0
 17 45  1  0  0  0  0
 19 20  2  0  0  0  0
 21 30  1  0  0  0  0
 21 22  2  0  0  0  0
 22 23  1  0  0  0  0
 22 46  1  0  0  0  0
 23 24  2  0  0  0  0
 23 47  1  0  0  0  0
 24 29  1  0  0  0  0
 24 25  1  0  0  0  0
 25 26  2  0  0  0  0
 25 48  1  0  0  0  0
 26 27  1  0  0  0  0
 26 49  1  0  0  0  0
 27 28  2  0  0  0  0
 27 50  1  0  0  0  0
 28 29  1  0  0  0  0
 28 51  1  0  0  0  0
 29 30  2  0  0  0  0
 30 52  1  0  0  0  0
M  END
> <s_m_source_file>
AV-unprocessed.smi

> <i_m_source_file_index>
142

> <i_lp_mmshare_version>
43012

> <i_f3d_flags>
0

> <s_epik_input>
W2NIXTFbY0hdW2NIXVtjSF1jKGMxMilbY0hdYyhbY0hdW2NIXTIpW0NASF0oW0NIM10pW05IXUMoPU8pW0NIMl1uM2MoPU8pYyhGKVtjSF1uKGMzPU8pW0NAQEhdNFtDSDJdW0NIMl1bQ0gyXU80

> <s_epik_cmdline>
J2VwaWtfcHl0aG9uJywgJy1waCcsICc3LjAnLCAnLXRuJywgJzgnLCAnLW1hJywgJzIwMCcsICctbWV0YWxfYmluZGluZycsICctaW1hZScsICc8aW5maWxlLm1hZT4nLCAnLW9tYWUnLCAnPG91dGZpbGUubWFlPic=

> <r_lp_tautomer_probability>
1

> <r_epik_Ionization_Penalty>
3.35688e-08

> <r_epik_Ionization_Penalty_Charging>
3.59856e-09

> <r_epik_Ionization_Penalty_Neutral>
2.99702e-08

> <r_epik_State_Penalty>
-0

> <r_epik_Charging_Adjusted_Penalty>
3.59856e-09

> <i_epik_Tot_Q>
0

> <i_epik_Tot_abs_Q>
0

> <r_epik_Metal_State_Penalty>
-0

> <b_epik_Metal_Only>
0

> <s_epik_Chemistry_Notes>
This compound contains an acetal/aminal-like group ( X-CH(R)-Y where X, Y are N, S, or O) that may be acid/base labile, releasing an aldehyde.

> <s_lp_Force_Field>
OPLS_2005

> <r_lp_Energy>
31.3548

> <b_lp_Chiralities_Consistent>
1

> <s_lp_Variant>
AV-unprocessed.smi:142-1

> <Gold.Version>
5.8.1

> <Gold.Id.Protein>
6NUR|6NUR_protein|mol2

> <Gold.PLP.Fitness>
61.4733

> <Gold.PLP.PLP>
-60.9729

> <Gold.PLP.part.hbond>
-1.8763

> <Gold.PLP.part.metal>
0.0000

> <Gold.PLP.part.buried>
-6.9074

> <Gold.PLP.part.nonpolar>
-53.0005

> <Gold.PLP.part.repulsive>
0.1486

> <Gold.PLP.ligand.clash>
1.8317

> <Gold.PLP.ligand.torsion>
1.1640

> <Gold.PLP.Chemscore.Hbond>
1.5360

> <Gold.PLP.Chemscore.CHOScore>
0.0000

> <Gold.PLP.Chemscore.Metal>
0.0000

> <Gold.Chemscore.Hbonds>
donor molecule, donor type, donor heavy atom, donor atom, acceptor molecule, acceptor atom, score
      P1  H  7997  8010       L1    20  0.64
      P1  H 10752 10765       L1    18  0.86

> <Gold.PLP.Chemscore.Internal.Correction>
0.0520

> <Gold.Rescore>
     Score         DG    S(hbond)    S(metal)    S(lipo)     H(rot)  DE(clash)    DE(int)     intcor
     16.79     -25.82       1.64        0.00     171.06       2.02       0.29       8.73       ----

> <Gold.Chemscore.Fitness>
16.7947

> <Gold.Chemscore.DG>
-25.8150

> <Gold.Chemscore.ZeroCoef>
-5.4800

> <Gold.Chemscore.Hbond>
1.6423

> <Gold.Chemscore.Metal>
0.0000

> <Gold.Chemscore.Lipo>
171.0640

> <Gold.Chemscore.Internal_Hbond>
0.0000

> <Gold.Chemscore.DEClash>
0.2890

> <Gold.Chemscore.DEInternal>
8.7312

> <Gold.Chemscore.Rot>
2.0175

> <Gold.Chemscore.Internal.Correction>
   9.000000E+99

> <Gold.Chemscore.Hbonds>
donor molecule, donor type, donor heavy atom, donor atom, acceptor molecule, acceptor atom, score
      P1  H  7997  8010       L1    20  0.64
      P1  H 10752 10765       L1    18  0.38

> <Gold.Chemscore.Hbond.Weighted>
-5.4854

> <Gold.Chemscore.Metal.Weighted>
-0.0000

> <Gold.Chemscore.Lipo.Weighted>
-20.0145

> <Gold.Chemscore.Internal_Hbond.Weighted>
0.0000

> <Gold.Chemscore.DEClash.Weighted>
0.2890

> <Gold.Chemscore.DEInternal.Weighted>
8.7312

> <Gold.Chemscore.Rot.Weighted>
5.1648

> <Gold.Chemscore.Internal.Correction.Weighted>
   9.000000E+99

> <Gold.Protein.RotatedTorsions>
[ 6907 6896 6895 6894 ] final  161.44 input  -60.11 | X-H torsion
[ 7974 7965 7964 7962 ] final  133.48 input  175.53 | X-H torsion
[ 8008 7997 7996 7995 ] final  -82.31 input   59.86 | X-H torsion
[ 10167 10162 10161 10158 ] final  108.84 input  -65.29 | X-H torsion
[ 10718 10713 10712 10709 ] final -155.80 input   66.30 | X-H torsion
[ 10763 10752 10751 10750 ] final    6.92 input  -60.55 | X-H torsion
[ 11005 11000 10999 10996 ] final -164.71 input  -57.11 | X-H torsion

> <Gold.Protein.ActiveResidues>
 VAL166  LYS551  ARG553  GLY616  TRP617  ASP618  TYR619  PRO620  LYS621  CYS622 
 ASP623  PHE694  ASN695  SER759  ASP760  ASP761  ALA762  ILE779  LEU786  VAL792 
 PHE793  MET794  SER795  GLU796  ALA797  LYS798  CYS799  TRP800  GLU811  SER814 

> <Gold.Protein.RotatedAtoms>
  151.9556  133.3679  159.4015 H   0  0  0  0  0  0  0  0  0  0  0  0  # atno 6907 bound_to 6896
  150.6973  134.4294  159.5251 H   0  0  0  0  0  0  0  0  0  0  0  0  # atno 6908 bound_to 6896
  152.1975  134.8618  160.0562 H   0  0  0  0  0  0  0  0  0  0  0  0  # atno 6909 bound_to 6896
  144.9861  139.4454  143.5362 H   0  0  0  0  0  0  0  0  0  0  0  0  # atno 7974 bound_to 7965
  154.6073  140.0635  156.9447 H   0  0  0  0  0  0  0  0  0  0  0  0  # atno 8008 bound_to 7997
  155.2032  140.3316  155.4321 H   0  0  0  0  0  0  0  0  0  0  0  0  # atno 8009 bound_to 7997
  156.2355  140.1861  156.7114 H   0  0  0  0  0  0  0  0  0  0  0  0  # atno 8010 bound_to 7997
  139.6814  144.7118  151.1509 H   0  0  0  0  0  0  0  0  0  0  0  0  # atno 10167 bound_to 10162
  156.5178  130.8464  151.2671 H   0  0  0  0  0  0  0  0  0  0  0  0  # atno 10718 bound_to 10713
  153.2422  135.6904  153.7771 H   0  0  0  0  0  0  0  0  0  0  0  0  # atno 10763 bound_to 10752
  153.6896  135.3315  155.3199 H   0  0  0  0  0  0  0  0  0  0  0  0  # atno 10764 bound_to 10752
  154.8360  135.4542  154.1348 H   0  0  0  0  0  0  0  0  0  0  0  0  # atno 10765 bound_to 10752
  140.5839  134.5114  157.5182 H   0  0  0  0  0  0  0  0  0  0  0  0  # atno 11005 bound_to 11000
  146.3420  139.9164  142.8773 LP  0  0  0  0  0  0  0  0  0  0  0  0  # atno 17320 bound_to 7965
  145.2351  140.9988  143.3968 LP  0  0  0  0  0  0  0  0  0  0  0  0  # atno 17321 bound_to 7965
  140.7653  143.5693  150.9013 LP  0  0  0  0  0  0  0  0  0  0  0  0  # atno 17342 bound_to 10162
  139.9366  143.6431  152.3064 LP  0  0  0  0  0  0  0  0  0  0  0  0  # atno 17343 bound_to 10162
  157.7441  130.9927  150.2647 LP  0  0  0  0  0  0  0  0  0  0  0  0  # atno 17370 bound_to 10713
  156.3178  130.3781  149.7603 LP  0  0  0  0  0  0  0  0  0  0  0  0  # atno 17371 bound_to 10713
  139.9305  134.7973  156.0945 LP  0  0  0  0  0  0  0  0  0  0  0  0  # atno 17394 bound_to 11000
  141.0979  133.6688  156.2686 LP  0  0  0  0  0  0  0  0  0  0  0  0  # atno 17395 bound_to 11000

$$$$
