AV-unprocessed.smi:3110|AV-procd|sdf|11829|dock7
  -GOLD-   2272017203D 1   1.00000     0.00000
 Structure written by MMmdl.
 34 35  0  0  0  0  0  0  0  0  2 V2000
  152.0979  140.9245  157.8116 O   0  0  0  0  0  0  0  0  0  0  0  0
  151.4074  141.7225  157.1770 C   0  0  0  0  0  0  0  0  0  0  0  0
  151.4356  143.2157  157.5197 C   0  0  0  0  0  0  0  0  0  0  0  0
  152.4780  143.5710  158.6001 C   0  0  1  0  0  0  0  0  0  0  0  0
  152.3097  144.9766  159.1162 C   0  0  0  0  0  0  0  0  0  0  0  0
  152.2654  145.0353  160.4455 C   0  0  0  0  0  0  0  0  0  0  0  0
  152.3931  143.6809  161.0855 C   0  0  0  0  0  0  0  0  0  0  0  0
  152.3928  142.7066  159.8871 C   0  0  0  0  0  0  0  0  0  0  0  0
  150.5999  141.3551  156.1704 N   0  0  0  0  0  0  0  0  0  0  0  0
  150.4180  139.9848  155.7077 C   0  0  0  0  0  0  0  0  0  0  0  0
  149.9600  139.9427  154.2403 C   0  0  0  0  0  0  0  0  0  0  0  0
  148.6297  140.5284  154.0712 N   0  0  0  0  0  0  0  0  0  0  0  0
  148.2365  141.8059  154.3763 C   0  0  0  0  0  0  0  0  0  0  0  0
  146.9090  141.8952  154.0444 C   0  0  0  0  0  0  0  0  0  0  0  0
  146.5494  140.6699  153.5498 N   0  3  0  0  0  0  0  0  0  0  0  0
  147.5976  139.8399  153.5672 C   0  0  0  0  0  0  0  0  0  0  0  0
  151.6540  143.7648  156.6032 H   0  0  0  0  0  0  0  0  0  0  0  0
  150.4446  143.5382  157.8438 H   0  0  0  0  0  0  0  0  0  0  0  0
  153.4833  143.5090  158.1804 H   0  0  0  0  0  0  0  0  0  0  0  0
  152.2523  145.8290  158.4554 H   0  0  0  0  0  0  0  0  0  0  0  0
  152.1662  145.9403  161.0266 H   0  0  0  0  0  0  0  0  0  0  0  0
  153.3247  143.6265  161.6497 H   0  0  0  0  0  0  0  0  0  0  0  0
  151.5610  143.4917  161.7644 H   0  0  0  0  0  0  0  0  0  0  0  0
  151.4702  142.1249  159.9007 H   0  0  0  0  0  0  0  0  0  0  0  0
  153.2180  141.9962  159.9464 H   0  0  0  0  0  0  0  0  0  0  0  0
  150.0712  142.0743  155.6979 H   0  0  0  0  0  0  0  0  0  0  0  0
  151.3669  139.4591  155.8170 H   0  0  0  0  0  0  0  0  0  0  0  0
  149.7018  139.4691  156.3500 H   0  0  0  0  0  0  0  0  0  0  0  0
  150.6515  140.4869  153.5953 H   0  0  0  0  0  0  0  0  0  0  0  0
  149.9242  138.9149  153.8765 H   0  0  0  0  0  0  0  0  0  0  0  0
  148.9126  142.5371  154.7956 H   0  0  0  0  0  0  0  0  0  0  0  0
  146.2120  142.7172  154.1200 H   0  0  0  0  0  0  0  0  0  0  0  0
  147.6086  138.8158  153.2379 H   0  0  0  0  0  0  0  0  0  0  0  0
  145.6248  140.4244  153.2184 H   0  0  0  0  0  0  0  0  0  0  0  0
  1  2  2  0  0  0  0
  2  3  1  0  0  0  0
  2  9  1  0  0  0  0
  3  4  1  0  0  0  0
  3 17  1  0  0  0  0
  3 18  1  0  0  0  0
  4  8  1  0  0  0  0
  4  5  1  0  0  0  0
  4 19  1  0  0  0  0
  5  6  2  0  0  0  0
  5 20  1  0  0  0  0
  6  7  1  0  0  0  0
  6 21  1  0  0  0  0
  7  8  1  0  0  0  0
  7 22  1  0  0  0  0
  7 23  1  0  0  0  0
  8 24  1  0  0  0  0
  8 25  1  0  0  0  0
  9 10  1  0  0  0  0
  9 26  1  0  0  0  0
 10 11  1  0  0  0  0
 10 27  1  0  0  0  0
 10 28  1  0  0  0  0
 11 12  1  0  0  0  0
 11 29  1  0  0  0  0
 11 30  1  0  0  0  0
 12 16  1  0  0  0  0
 12 13  1  0  0  0  0
 13 14  2  0  0  0  0
 13 31  1  0  0  0  0
 14 15  1  0  0  0  0
 14 32  1  0  0  0  0
 15 16  2  0  0  0  0
 15 34  1  0  0  0  0
 16 33  1  0  0  0  0
M  CHG  1  15   1
M  END
> <s_m_source_file>
AV-unprocessed.smi

> <i_m_source_file_index>
3110

> <i_lp_mmshare_version>
43012

> <i_f3d_flags>
0

> <s_epik_input>
W0NIMl0xW0NIMl1bQ0hdPVtDSF1bQ0BIXTFbQ0gyXUMoPU8pW05IXVtDSDJdW0NIMl1uMltjSF1bY0hdbltjSF0y

> <s_epik_cmdline>
J2VwaWtfcHl0aG9uJywgJy1waCcsICc3LjAnLCAnLXRuJywgJzgnLCAnLW1hJywgJzIwMCcsICctbWV0YWxfYmluZGluZycsICctaW1hZScsICc8aW5maWxlLm1hZT4nLCAnLW9tYWUnLCAnPG91dGZpbGUubWFlPic=

> <r_lp_tautomer_probability>
1

> <r_epik_Ionization_Penalty>
0.271094

> <r_epik_Ionization_Penalty_Charging>
0

> <r_epik_Ionization_Penalty_Neutral>
0.271094

> <r_epik_State_Penalty>
0.263241

> <r_epik_Charging_Adjusted_Penalty>
0.263241

> <i_epik_Tot_Q>
1

> <i_epik_Tot_abs_Q>
1

> <r_epik_Metal_State_Penalty>
0.547832

> <b_epik_Metal_Only>
0

> <s_lp_Force_Field>
OPLS_2005

> <r_lp_Energy>
18.3702

> <b_lp_Chiralities_Consistent>
1

> <s_lp_Variant>
AV-unprocessed.smi:3110-2

> <Gold.Version>
5.8.1

> <Gold.Id.Protein>
6NUR|6NUR_protein|mol2

> <Gold.PLP.Fitness>
50.4404

> <Gold.PLP.PLP>
-41.9189

> <Gold.PLP.part.hbond>
-1.0000

> <Gold.PLP.part.metal>
0.0000

> <Gold.PLP.part.buried>
-3.4259

> <Gold.PLP.part.nonpolar>
-36.6209

> <Gold.PLP.part.repulsive>
0.1017

> <Gold.PLP.ligand.clash>
0.0000

> <Gold.PLP.ligand.torsion>
0.2580

> <Gold.PLP.Chemscore.Hbond>
2.0000

> <Gold.PLP.Chemscore.CHOScore>
1.0000

> <Gold.PLP.Chemscore.Metal>
0.0000

> <Gold.Chemscore.Hbonds>
donor molecule, donor type, donor heavy atom, donor atom, acceptor molecule, acceptor atom, score
      L1  H    15    34       P1 10175  1.76
      L1  C    13    31       P1  8028  1.00

> <Gold.PLP.Chemscore.Internal.Correction>
0.0376

> <Gold.Rescore>
     Score         DG    S(hbond)    S(metal)    S(lipo)     H(rot)  DE(clash)    DE(int)     intcor
     13.06     -14.80       0.98        0.00      97.66       2.10       0.03       1.71       ----

> <Gold.Chemscore.Fitness>
13.0595

> <Gold.Chemscore.DG>
-14.8005

> <Gold.Chemscore.ZeroCoef>
-5.4800

> <Gold.Chemscore.Hbond>
0.9762

> <Gold.Chemscore.Metal>
0.0000

> <Gold.Chemscore.Lipo>
97.6613

> <Gold.Chemscore.Internal_Hbond>
0.0000

> <Gold.Chemscore.DEClash>
0.0264

> <Gold.Chemscore.DEInternal>
1.7146

> <Gold.Chemscore.Rot>
2.0963

> <Gold.Chemscore.Internal.Correction>
   9.000000E+99

> <Gold.Chemscore.Hbonds>
donor molecule, donor type, donor heavy atom, donor atom, acceptor molecule, acceptor atom, score
      L1  H    15    34       P1 10175  0.81

> <Gold.Chemscore.Hbond.Weighted>
-3.2606

> <Gold.Chemscore.Metal.Weighted>
-0.0000

> <Gold.Chemscore.Lipo.Weighted>
-11.4264

> <Gold.Chemscore.Internal_Hbond.Weighted>
0.0000

> <Gold.Chemscore.DEClash.Weighted>
0.0264

> <Gold.Chemscore.DEInternal.Weighted>
1.7146

> <Gold.Chemscore.Rot.Weighted>
5.3665

> <Gold.Chemscore.Internal.Correction.Weighted>
   9.000000E+99

> <Gold.Protein.RotatedTorsions>
[ 6907 6896 6895 6894 ] final    5.55 input  -60.11 | X-H torsion
[ 7974 7965 7964 7962 ] final -121.99 input  175.53 | X-H torsion
[ 8008 7997 7996 7995 ] final -169.77 input   59.86 | X-H torsion
[ 10167 10162 10161 10158 ] final   65.40 input  -65.29 | X-H torsion
[ 10718 10713 10712 10709 ] final   78.39 input   66.30 | X-H torsion
[ 10763 10752 10751 10750 ] final  125.62 input  -60.55 | X-H torsion
[ 11005 11000 10999 10996 ] final  145.39 input  -57.11 | X-H torsion

> <Gold.Protein.ActiveResidues>
 VAL166  LYS551  ARG553  GLY616  TRP617  ASP618  TYR619  PRO620  LYS621  CYS622 
 ASP623  PHE694  ASN695  SER759  ASP760  ASP761  ALA762  ILE779  LEU786  VAL792 
 PHE793  MET794  SER795  GLU796  ALA797  LYS798  CYS799  TRP800  GLU811  SER814 

> <Gold.Protein.RotatedAtoms>
  151.6594  135.0991  160.0176 H   0  0  0  0  0  0  0  0  0  0  0  0  # atno 6907 bound_to 6896
  152.3955  133.6737  159.6281 H   0  0  0  0  0  0  0  0  0  0  0  0  # atno 6908 bound_to 6896
  150.7863  133.8798  159.3323 H   0  0  0  0  0  0  0  0  0  0  0  0  # atno 6909 bound_to 6896
  145.0343  140.8093  143.4304 H   0  0  0  0  0  0  0  0  0  0  0  0  # atno 7974 bound_to 7965
  155.9095  140.1055  157.1290 H   0  0  0  0  0  0  0  0  0  0  0  0  # atno 8008 bound_to 7997
  154.4037  140.1277  156.4603 H   0  0  0  0  0  0  0  0  0  0  0  0  # atno 8009 bound_to 7997
  155.7328  140.3468  155.5069 H   0  0  0  0  0  0  0  0  0  0  0  0  # atno 8010 bound_to 7997
  140.1117  144.4812  150.6974 H   0  0  0  0  0  0  0  0  0  0  0  0  # atno 10167 bound_to 10162
  157.6743  130.9866  150.1779 H   0  0  0  0  0  0  0  0  0  0  0  0  # atno 10718 bound_to 10713
  153.6802  135.3316  155.3176 H   0  0  0  0  0  0  0  0  0  0  0  0  # atno 10763 bound_to 10752
  154.8468  135.4407  154.1614 H   0  0  0  0  0  0  0  0  0  0  0  0  # atno 10764 bound_to 10752
  153.2628  135.6993  153.7637 H   0  0  0  0  0  0  0  0  0  0  0  0  # atno 10765 bound_to 10752
  140.0708  134.9152  157.1342 H   0  0  0  0  0  0  0  0  0  0  0  0  # atno 11005 bound_to 11000
  145.1729  139.2394  143.5332 LP  0  0  0  0  0  0  0  0  0  0  0  0  # atno 17320 bound_to 7965
  146.3502  140.1485  142.8593 LP  0  0  0  0  0  0  0  0  0  0  0  0  # atno 17321 bound_to 7965
  140.6922  143.2382  151.5100 LP  0  0  0  0  0  0  0  0  0  0  0  0  # atno 17342 bound_to 10162
  139.5616  144.2144  152.1699 LP  0  0  0  0  0  0  0  0  0  0  0  0  # atno 17343 bound_to 10162
  156.2518  130.3701  149.8224 LP  0  0  0  0  0  0  0  0  0  0  0  0  # atno 17370 bound_to 10713
  156.5994  130.8540  151.3428 LP  0  0  0  0  0  0  0  0  0  0  0  0  # atno 17371 bound_to 10713
  140.3630  134.2474  155.7185 LP  0  0  0  0  0  0  0  0  0  0  0  0  # atno 17394 bound_to 11000
  141.2011  133.7971  157.0457 LP  0  0  0  0  0  0  0  0  0  0  0  0  # atno 17395 bound_to 11000

$$$$
