AV-unprocessed.smi:753|AV-procd|sdf|3602|dock2
  -GOLD-   22720 0593D 1   1.00000     0.00000
 Structure written by MMmdl.
 43 45  0  0  0  0  0  0  0  0  1 V2000
  144.4509  145.4730  154.3122 C   0  0  0  0  0  0  0  0  0  0  0  0
  145.2632  144.1950  154.2973 C   0  0  0  0  0  0  0  0  0  0  0  0
  146.0873  143.8731  153.1982 C   0  0  0  0  0  0  0  0  0  0  0  0
  146.8199  142.6711  153.2391 C   0  0  0  0  0  0  0  0  0  0  0  0
  146.7007  141.8409  154.3723 C   0  0  0  0  0  0  0  0  0  0  0  0
  147.4617  140.5336  154.4628 C   0  0  0  0  0  0  0  0  0  0  0  0
  148.9830  140.7508  154.4538 C   0  0  0  0  0  0  0  0  0  0  0  0
  149.3728  141.8144  155.3703 N   0  0  0  0  0  0  0  0  0  0  0  0
  149.8552  141.6259  156.6100 C   0  0  0  0  0  0  0  0  0  0  0  0
  150.0023  140.5162  157.1187 O   0  0  0  0  0  0  0  0  0  0  0  0
  150.1733  142.7554  157.2670 N   0  0  0  0  0  0  0  0  0  0  0  0
  150.7173  142.8893  158.6207 C   0  0  1  0  0  0  0  0  0  0  0  0
  151.9473  141.9801  158.8355 C   0  0  0  0  0  0  0  0  0  0  0  0
  153.0444  142.9774  159.2526 C   0  0  2  0  0  0  0  0  0  0  0  0
  152.7295  143.5350  160.6543 C   0  0  0  0  0  0  0  0  0  0  0  0
  151.5316  144.4687  160.3906 C   0  0  0  0  0  0  0  0  0  0  0  0
  151.3021  144.2992  158.8778 C   0  0  1  0  0  0  0  0  0  0  0  0
  152.7325  144.1722  158.3625 C   0  0  0  0  0  0  0  0  0  0  0  0
  145.8481  142.2545  155.4174 C   0  0  0  0  0  0  0  0  0  0  0  0
  145.1420  143.4050  155.3872 N   0  0  0  0  0  0  0  0  0  0  0  0
  144.6369  146.0700  153.4191 H   0  0  0  0  0  0  0  0  0  0  0  0
  144.7081  146.0760  155.1836 H   0  0  0  0  0  0  0  0  0  0  0  0
  143.3858  145.2440  154.3535 H   0  0  0  0  0  0  0  0  0  0  0  0
  146.1580  144.5286  152.3427 H   0  0  0  0  0  0  0  0  0  0  0  0
  147.4590  142.3929  152.4139 H   0  0  0  0  0  0  0  0  0  0  0  0
  147.1596  140.0098  155.3709 H   0  0  0  0  0  0  0  0  0  0  0  0
  147.1690  139.8954  153.6277 H   0  0  0  0  0  0  0  0  0  0  0  0
  149.4920  139.8371  154.7618 H   0  0  0  0  0  0  0  0  0  0  0  0
  149.3326  140.9772  153.4448 H   0  0  0  0  0  0  0  0  0  0  0  0
  149.2823  142.7622  155.0347 H   0  0  0  0  0  0  0  0  0  0  0  0
  150.0029  143.6216  156.7768 H   0  0  0  0  0  0  0  0  0  0  0  0
  149.9418  142.6436  159.3488 H   0  0  0  0  0  0  0  0  0  0  0  0
  151.7711  141.2202  159.5977 H   0  0  0  0  0  0  0  0  0  0  0  0
  152.2324  141.4647  157.9170 H   0  0  0  0  0  0  0  0  0  0  0  0
  154.0555  142.5814  159.1554 H   0  0  0  0  0  0  0  0  0  0  0  0
  152.4935  142.7462  161.3693 H   0  0  0  0  0  0  0  0  0  0  0  0
  153.5756  144.1007  161.0465 H   0  0  0  0  0  0  0  0  0  0  0  0
  150.6537  144.2000  160.9792 H   0  0  0  0  0  0  0  0  0  0  0  0
  151.7911  145.5009  160.6295 H   0  0  0  0  0  0  0  0  0  0  0  0
  150.7264  145.1149  158.4386 H   0  0  0  0  0  0  0  0  0  0  0  0
  153.3502  145.0458  158.5782 H   0  0  0  0  0  0  0  0  0  0  0  0
  152.7918  143.9461  157.2964 H   0  0  0  0  0  0  0  0  0  0  0  0
  145.7261  141.6444  156.3002 H   0  0  0  0  0  0  0  0  0  0  0  0
  1  2  1  0  0  0  0
  1 21  1  0  0  0  0
  1 22  1  0  0  0  0
  1 23  1  0  0  0  0
  2 20  1  0  0  0  0
  2  3  2  0  0  0  0
  3  4  1  0  0  0  0
  3 24  1  0  0  0  0
  4  5  2  0  0  0  0
  4 25  1  0  0  0  0
  5  6  1  0  0  0  0
  5 19  1  0  0  0  0
  6  7  1  0  0  0  0
  6 26  1  0  0  0  0
  6 27  1  0  0  0  0
  7  8  1  0  0  0  0
  7 28  1  0  0  0  0
  7 29  1  0  0  0  0
  8  9  1  0  0  0  0
  8 30  1  0  0  0  0
  9 10  2  0  0  0  0
  9 11  1  0  0  0  0
 11 12  1  0  0  0  0
 11 31  1  0  0  0  0
 12 17  1  0  0  0  0
 12 13  1  0  0  0  0
 12 32  1  0  0  0  0
 13 14  1  0  0  0  0
 13 33  1  0  0  0  0
 13 34  1  0  0  0  0
 14 18  1  0  0  0  0
 14 15  1  0  0  0  0
 14 35  1  0  0  0  0
 15 16  1  0  0  0  0
 15 36  1  0  0  0  0
 15 37  1  0  0  0  0
 16 17  1  0  0  0  0
 16 38  1  0  0  0  0
 16 39  1  0  0  0  0
 17 18  1  0  0  0  0
 17 40  1  0  0  0  0
 18 41  1  0  0  0  0
 18 42  1  0  0  0  0
 19 20  2  0  0  0  0
 19 43  1  0  0  0  0
M  END
> <s_m_source_file>
AV-unprocessed.smi

> <i_m_source_file_index>
753

> <i_lp_mmshare_version>
43012

> <i_f3d_flags>
0

> <s_epik_input>
W0NIM11jMVtjSF1bY0hdYyhbY0hdbjEpW0NIMl1bQ0gyXVtOSF1DKD1PKVtOSF1bQ0BIXShbQ0gyXVtDQEBIXTIzKVtDQEBIXShbQ0gyXTMpW0NIMl1bQ0gyXTI=

> <s_epik_cmdline>
J2VwaWtfcHl0aG9uJywgJy1waCcsICc3LjAnLCAnLXRuJywgJzgnLCAnLW1hJywgJzIwMCcsICctbWV0YWxfYmluZGluZycsICctaW1hZScsICc8aW5maWxlLm1hZT4nLCAnLW9tYWUnLCAnPG91dGZpbGUubWFlPic=

> <r_epik_Ionization_Penalty>
0.0569047

> <r_epik_Ionization_Penalty_Charging>
0

> <r_epik_Ionization_Penalty_Neutral>
0.0569047

> <r_epik_State_Penalty>
0.0490541

> <r_epik_Charging_Adjusted_Penalty>
0.0490541

> <i_epik_Tot_Q>
0

> <i_epik_Tot_abs_Q>
0

> <r_epik_Metal_State_Penalty>
0.0447357

> <b_epik_Metal_Only>
0

> <s_lp_Force_Field>
OPLS_2005

> <r_lp_Energy>
50.3887

> <b_lp_Chiralities_Consistent>
1

> <s_lp_Variant>
AV-unprocessed.smi:753-4

> <Gold.Version>
5.8.1

> <Gold.Id.Protein>
6NUR|6NUR_protein|mol2

> <Gold.PLP.Fitness>
50.6649

> <Gold.PLP.PLP>
-45.3124

> <Gold.PLP.part.hbond>
-2.0000

> <Gold.PLP.part.metal>
0.0000

> <Gold.PLP.part.buried>
-8.4826

> <Gold.PLP.part.nonpolar>
-36.2080

> <Gold.PLP.part.repulsive>
0.3429

> <Gold.PLP.ligand.clash>
0.0000

> <Gold.PLP.ligand.torsion>
0.3418

> <Gold.PLP.Chemscore.Hbond>
2.0000

> <Gold.PLP.Chemscore.CHOScore>
0.0000

> <Gold.PLP.Chemscore.Metal>
0.0000

> <Gold.Chemscore.Hbonds>
donor molecule, donor type, donor heavy atom, donor atom, acceptor molecule, acceptor atom, score
      L1  H     8    30       P1  8028  0.76
      L1  H    11    31       P1  8028  1.00

> <Gold.PLP.Chemscore.Internal.Correction>
0.0361

> <Gold.Rescore>
     Score         DG    S(hbond)    S(metal)    S(lipo)     H(rot)  DE(clash)    DE(int)     intcor
     21.06     -22.65       1.91        0.00     123.58       1.43       0.01       1.58       ----

> <Gold.Chemscore.Fitness>
21.0569

> <Gold.Chemscore.DG>
-22.6467

> <Gold.Chemscore.ZeroCoef>
-5.4800

> <Gold.Chemscore.Hbond>
1.9060

> <Gold.Chemscore.Metal>
0.0000

> <Gold.Chemscore.Lipo>
123.5822

> <Gold.Chemscore.Internal_Hbond>
0.0000

> <Gold.Chemscore.DEClash>
0.0128

> <Gold.Chemscore.DEInternal>
1.5771

> <Gold.Chemscore.Rot>
1.4291

> <Gold.Chemscore.Internal.Correction>
   9.000000E+99

> <Gold.Chemscore.Hbonds>
donor molecule, donor type, donor heavy atom, donor atom, acceptor molecule, acceptor atom, score
      L1  H     8    30       P1  8028  0.73
      L1  H    11    31       P1  8028  0.95

> <Gold.Chemscore.Hbond.Weighted>
-6.3661

> <Gold.Chemscore.Metal.Weighted>
-0.0000

> <Gold.Chemscore.Lipo.Weighted>
-14.4591

> <Gold.Chemscore.Internal_Hbond.Weighted>
0.0000

> <Gold.Chemscore.DEClash.Weighted>
0.0128

> <Gold.Chemscore.DEInternal.Weighted>
1.5771

> <Gold.Chemscore.Rot.Weighted>
3.6585

> <Gold.Chemscore.Internal.Correction.Weighted>
   9.000000E+99

> <Gold.Protein.RotatedTorsions>
[ 6907 6896 6895 6894 ] final  -10.72 input  -60.11 | X-H torsion
[ 7974 7965 7964 7962 ] final    3.37 input  175.53 | X-H torsion
[ 8008 7997 7996 7995 ] final  -78.45 input   59.86 | X-H torsion
[ 10167 10162 10161 10158 ] final   15.24 input  -65.29 | X-H torsion
[ 10718 10713 10712 10709 ] final -155.17 input   66.30 | X-H torsion
[ 10763 10752 10751 10750 ] final  116.50 input  -60.55 | X-H torsion
[ 11005 11000 10999 10996 ] final -113.13 input  -57.11 | X-H torsion

> <Gold.Protein.ActiveResidues>
 VAL166  LYS551  ARG553  GLY616  TRP617  ASP618  TYR619  PRO620  LYS621  CYS622 
 ASP623  PHE694  ASN695  SER759  ASP760  ASP761  ALA762  ILE779  LEU786  VAL792 
 PHE793  MET794  SER795  GLU796  ALA797  LYS798  CYS799  TRP800  GLU811  SER814 

> <Gold.Protein.RotatedAtoms>
  151.3975  135.0966  159.9545 H   0  0  0  0  0  0  0  0  0  0  0  0  # atno 6907 bound_to 6896
  152.5061  133.8920  159.7409 H   0  0  0  0  0  0  0  0  0  0  0  0  # atno 6908 bound_to 6896
  150.9387  133.6626  159.2824 H   0  0  0  0  0  0  0  0  0  0  0  0  # atno 6909 bound_to 6896
  146.2445  140.0695  142.8363 H   0  0  0  0  0  0  0  0  0  0  0  0  # atno 7974 bound_to 7965
  154.5690  140.0694  156.8936 H   0  0  0  0  0  0  0  0  0  0  0  0  # atno 8008 bound_to 7997
  155.2669  140.3362  155.4250 H   0  0  0  0  0  0  0  0  0  0  0  0  # atno 8009 bound_to 7997
  156.2103  140.1756  156.7694 H   0  0  0  0  0  0  0  0  0  0  0  0  # atno 8010 bound_to 7997
  140.5881  143.8850  150.6848 H   0  0  0  0  0  0  0  0  0  0  0  0  # atno 10167 bound_to 10162
  156.5093  130.8427  151.2640 H   0  0  0  0  0  0  0  0  0  0  0  0  # atno 10718 bound_to 10713
  153.5381  135.3564  155.2706 H   0  0  0  0  0  0  0  0  0  0  0  0  # atno 10763 bound_to 10752
  154.8720  135.4084  154.3074 H   0  0  0  0  0  0  0  0  0  0  0  0  # atno 10764 bound_to 10752
  153.3776  135.7067  153.6657 H   0  0  0  0  0  0  0  0  0  0  0  0  # atno 10765 bound_to 10752
  141.0633  133.9499  157.2626 H   0  0  0  0  0  0  0  0  0  0  0  0  # atno 11005 bound_to 11000
  145.0829  140.9233  143.4815 LP  0  0  0  0  0  0  0  0  0  0  0  0  # atno 17320 bound_to 7965
  145.0851  139.2931  143.5763 LP  0  0  0  0  0  0  0  0  0  0  0  0  # atno 17321 bound_to 7965
  140.2366  143.3695  152.1521 LP  0  0  0  0  0  0  0  0  0  0  0  0  # atno 17342 bound_to 10162
  139.5210  144.7040  151.5409 LP  0  0  0  0  0  0  0  0  0  0  0  0  # atno 17343 bound_to 10162
  157.7453  130.9955  150.2746 LP  0  0  0  0  0  0  0  0  0  0  0  0  # atno 17370 bound_to 10713
  156.3256  130.3792  149.7536 LP  0  0  0  0  0  0  0  0  0  0  0  0  # atno 17371 bound_to 10713
  139.9453  135.0185  156.8833 LP  0  0  0  0  0  0  0  0  0  0  0  0  # atno 17394 bound_to 11000
  140.5824  134.0339  155.7469 LP  0  0  0  0  0  0  0  0  0  0  0  0  # atno 17395 bound_to 11000

$$$$
