AV-unprocessed.smi:555|AV-procd|sdf|2910|dock6
  -GOLD-   2262023403D 1   1.00000     0.00000
 Structure written by MMmdl.
 50 51  0  0  0  0  0  0  0  0  2 V2000
  150.7591  138.5724  154.5069 C   0  0  0  0  0  0  0  0  0  0  0  0
  151.3409  139.7811  154.9621 O   0  0  0  0  0  0  0  0  0  0  0  0
  150.4988  140.4866  155.8602 C   0  0  0  0  0  0  0  0  0  0  0  0
  151.2545  140.7459  157.1740 C   0  0  0  0  0  0  0  0  0  0  0  0
  151.3774  139.5263  157.9802 N   0  0  0  0  0  0  0  0  0  0  0  0
  150.6067  138.4702  157.5234 N   0  0  0  0  0  0  0  0  0  0  0  0
  150.6509  137.3252  158.1238 C   0  0  0  0  0  0  0  0  0  0  0  0
  149.8483  136.1619  157.6541 C   0  0  0  0  0  0  0  0  0  0  0  0
  149.2968  135.3910  158.4413 O   0  0  0  0  0  0  0  0  0  0  0  0
  149.7751  136.0146  156.3188 N   0  0  0  0  0  0  0  0  0  0  0  0
  149.0577  134.9508  155.6237 C   0  0  2  0  0  0  0  0  0  0  0  0
  149.9884  134.2246  154.6353 C   0  0  0  0  0  0  0  0  0  0  0  0
  149.2214  133.1793  153.8079 C   0  0  0  0  0  0  0  0  0  0  0  0
  148.0714  133.7998  153.0986 N   0  3  1  0  0  0  0  0  0  0  0  0
  147.4335  132.8963  152.0969 C   0  0  0  0  0  0  0  0  0  0  0  0
  146.5678  133.6881  151.1025 C   0  0  0  0  0  0  0  0  0  0  0  0
  146.6499  131.7300  152.7302 C   0  0  0  0  0  0  0  0  0  0  0  0
  147.1337  134.4588  154.0483 C   0  0  0  0  0  0  0  0  0  0  0  0
  147.8573  135.5408  154.8661 C   0  0  0  0  0  0  0  0  0  0  0  0
  151.4959  137.1284  159.2894 C   0  0  0  0  0  0  0  0  0  0  0  0
  152.2364  138.1699  159.7281 C   0  0  0  0  0  0  0  0  0  0  0  0
  152.2112  139.4734  159.0624 C   0  0  0  0  0  0  0  0  0  0  0  0
  152.8834  140.4339  159.4368 O   0  0  0  0  0  0  0  0  0  0  0  0
  151.4444  138.0713  153.8233 H   0  0  0  0  0  0  0  0  0  0  0  0
  149.8278  138.7604  153.9711 H   0  0  0  0  0  0  0  0  0  0  0  0
  150.5554  137.8949  155.3371 H   0  0  0  0  0  0  0  0  0  0  0  0
  150.1668  141.4261  155.4153 H   0  0  0  0  0  0  0  0  0  0  0  0
  149.6064  139.8932  156.0645 H   0  0  0  0  0  0  0  0  0  0  0  0
  152.2442  141.1503  156.9552 H   0  0  0  0  0  0  0  0  0  0  0  0
  150.7441  141.5263  157.7411 H   0  0  0  0  0  0  0  0  0  0  0  0
  150.2573  136.6926  155.7457 H   0  0  0  0  0  0  0  0  0  0  0  0
  148.6800  134.2318  156.3536 H   0  0  0  0  0  0  0  0  0  0  0  0
  150.4513  134.9488  153.9632 H   0  0  0  0  0  0  0  0  0  0  0  0
  150.8036  133.7392  155.1734 H   0  0  0  0  0  0  0  0  0  0  0  0
  149.9038  132.7270  153.0875 H   0  0  0  0  0  0  0  0  0  0  0  0
  148.8692  132.3777  154.4581 H   0  0  0  0  0  0  0  0  0  0  0  0
  148.2398  132.4608  151.5051 H   0  0  0  0  0  0  0  0  0  0  0  0
  146.2266  133.0459  150.2900 H   0  0  0  0  0  0  0  0  0  0  0  0
  147.1305  134.5083  150.6557 H   0  0  0  0  0  0  0  0  0  0  0  0
  145.6797  134.1085  151.5743 H   0  0  0  0  0  0  0  0  0  0  0  0
  146.2882  131.0482  151.9599 H   0  0  0  0  0  0  0  0  0  0  0  0
  145.7781  132.0766  153.2857 H   0  0  0  0  0  0  0  0  0  0  0  0
  147.2713  131.1456  153.4083 H   0  0  0  0  0  0  0  0  0  0  0  0
  146.3043  134.9175  153.5113 H   0  0  0  0  0  0  0  0  0  0  0  0
  146.7042  133.7183  154.7245 H   0  0  0  0  0  0  0  0  0  0  0  0
  147.1598  135.9982  155.5690 H   0  0  0  0  0  0  0  0  0  0  0  0
  148.1915  136.3366  154.1981 H   0  0  0  0  0  0  0  0  0  0  0  0
  151.5347  136.1770  159.7999 H   0  0  0  0  0  0  0  0  0  0  0  0
  152.8680  138.0382  160.5944 H   0  0  0  0  0  0  0  0  0  0  0  0
  148.4753  134.5463  152.5508 H   0  0  0  0  0  0  0  0  0  0  0  0
  1  2  1  0  0  0  0
  1 24  1  0  0  0  0
  1 25  1  0  0  0  0
  1 26  1  0  0  0  0
  2  3  1  0  0  0  0
  3  4  1  0  0  0  0
  3 27  1  0  0  0  0
  3 28  1  0  0  0  0
  4  5  1  0  0  0  0
  4 29  1  0  0  0  0
  4 30  1  0  0  0  0
  5 22  1  0  0  0  0
  5  6  1  0  0  0  0
  6  7  2  0  0  0  0
  7  8  1  0  0  0  0
  7 20  1  0  0  0  0
  8  9  2  0  0  0  0
  8 10  1  0  0  0  0
 10 11  1  0  0  0  0
 10 31  1  0  0  0  0
 11 19  1  0  0  0  0
 11 12  1  0  0  0  0
 11 32  1  0  0  0  0
 12 13  1  0  0  0  0
 12 33  1  0  0  0  0
 12 34  1  0  0  0  0
 13 14  1  0  0  0  0
 13 35  1  0  0  0  0
 13 36  1  0  0  0  0
 14 15  1  0  0  0  0
 14 18  1  0  0  0  0
 14 50  1  0  0  0  0
 15 16  1  0  0  0  0
 15 17  1  0  0  0  0
 15 37  1  0  0  0  0
 16 38  1  0  0  0  0
 16 39  1  0  0  0  0
 16 40  1  0  0  0  0
 17 41  1  0  0  0  0
 17 42  1  0  0  0  0
 17 43  1  0  0  0  0
 18 19  1  0  0  0  0
 18 44  1  0  0  0  0
 18 45  1  0  0  0  0
 19 46  1  0  0  0  0
 19 47  1  0  0  0  0
 20 21  2  0  0  0  0
 20 48  1  0  0  0  0
 21 22  1  0  0  0  0
 21 49  1  0  0  0  0
 22 23  2  0  0  0  0
M  CHG  1  14   1
M  END
> <s_m_source_file>
AV-unprocessed.smi

> <i_m_source_file_index>
555

> <i_lp_mmshare_version>
43012

> <i_f3d_flags>
0

> <s_epik_input>
W0NIM11PW0NIMl1bQ0gyXW4xbmMoW2NIXVtjSF1jMT1PKUMoPU8pW05IXVtDSF0yW0NIMl1bQ0gyXU4oW0NIXShbQ0gzXSlbQ0gzXSlbQ0gyXVtDSDJdMg==

> <s_epik_cmdline>
J2VwaWtfcHl0aG9uJywgJy1waCcsICc3LjAnLCAnLXRuJywgJzgnLCAnLW1hJywgJzIwMCcsICctbWV0YWxfYmluZGluZycsICctaW1hZScsICc8aW5maWxlLm1hZT4nLCAnLW9tYWUnLCAnPG91dGZpbGUubWFlPic=

> <r_lp_tautomer_probability>
1

> <r_epik_Ionization_Penalty>
0.00560205

> <r_epik_Ionization_Penalty_Charging>
0.00559911

> <r_epik_Ionization_Penalty_Neutral>
2.94673e-06

> <r_epik_State_Penalty>
0.00410202

> <r_epik_Charging_Adjusted_Penalty>
0.00970113

> <i_epik_Tot_Q>
1

> <i_epik_Tot_abs_Q>
1

> <r_epik_Metal_State_Penalty>
-0

> <b_epik_Metal_Only>
0

> <s_lp_Force_Field>
OPLS_2005

> <r_lp_Energy>
40.4253

> <b_lp_Chiralities_Consistent>
1

> <s_lp_Variant>
AV-unprocessed.smi:555-1

> <Gold.Version>
5.8.1

> <Gold.Id.Protein>
6NUR|6NUR_protein|mol2

> <Gold.PLP.Fitness>
44.3922

> <Gold.PLP.PLP>
-34.8789

> <Gold.PLP.part.hbond>
-2.9520

> <Gold.PLP.part.metal>
0.0000

> <Gold.PLP.part.buried>
-5.9587

> <Gold.PLP.part.nonpolar>
-26.1396

> <Gold.PLP.part.repulsive>
0.1165

> <Gold.PLP.ligand.clash>
0.0000

> <Gold.PLP.ligand.torsion>
1.3106

> <Gold.PLP.Chemscore.Hbond>
4.0000

> <Gold.PLP.Chemscore.CHOScore>
0.0000

> <Gold.PLP.Chemscore.Metal>
0.0000

> <Gold.Chemscore.Hbonds>
donor molecule, donor type, donor heavy atom, donor atom, acceptor molecule, acceptor atom, score
      L1  H    14    50       P1  7948  1.50
      P1  H  6896  6908       L1     9  1.00
      P1  H  7989  7998       L1     2  1.00

> <Gold.PLP.Chemscore.Internal.Correction>
0.1345

> <Gold.Rescore>
     Score         DG    S(hbond)    S(metal)    S(lipo)     H(rot)  DE(clash)    DE(int)     intcor
     15.72     -18.09       2.77        0.00      66.78       1.74       0.00       2.37       ----

> <Gold.Chemscore.Fitness>
15.7188

> <Gold.Chemscore.DG>
-18.0926

> <Gold.Chemscore.ZeroCoef>
-5.4800

> <Gold.Chemscore.Hbond>
2.7736

> <Gold.Chemscore.Metal>
0.0000

> <Gold.Chemscore.Lipo>
66.7790

> <Gold.Chemscore.Internal_Hbond>
0.0000

> <Gold.Chemscore.DEClash>
0.0000

> <Gold.Chemscore.DEInternal>
2.3739

> <Gold.Chemscore.Rot>
1.7438

> <Gold.Chemscore.Internal.Correction>
   9.000000E+99

> <Gold.Chemscore.Hbonds>
donor molecule, donor type, donor heavy atom, donor atom, acceptor molecule, acceptor atom, score
      L1  H    14    50       P1  7948  0.09
      P1  H  6896  6908       L1     9  0.42
      P1  H  7989  7998       L1     2  0.43

> <Gold.Chemscore.Hbond.Weighted>
-9.2637

> <Gold.Chemscore.Metal.Weighted>
-0.0000

> <Gold.Chemscore.Lipo.Weighted>
-7.8131

> <Gold.Chemscore.Internal_Hbond.Weighted>
0.0000

> <Gold.Chemscore.DEClash.Weighted>
0.0000

> <Gold.Chemscore.DEInternal.Weighted>
2.3739

> <Gold.Chemscore.Rot.Weighted>
4.4642

> <Gold.Chemscore.Internal.Correction.Weighted>
   9.000000E+99

> <Gold.Protein.RotatedTorsions>
[ 6907 6896 6895 6894 ] final -176.38 input  -60.11 | X-H torsion
[ 7974 7965 7964 7962 ] final  -23.79 input  175.53 | X-H torsion
[ 8008 7997 7996 7995 ] final   35.36 input   59.86 | X-H torsion
[ 10167 10162 10161 10158 ] final  -50.99 input  -65.29 | X-H torsion
[ 10718 10713 10712 10709 ] final   -0.32 input   66.30 | X-H torsion
[ 10763 10752 10751 10750 ] final -168.07 input  -60.55 | X-H torsion
[ 11005 11000 10999 10996 ] final  179.67 input  -57.11 | X-H torsion

> <Gold.Protein.ActiveResidues>
 VAL166  LYS551  ARG553  GLY616  TRP617  ASP618  TYR619  PRO620  LYS621  CYS622 
 ASP623  PHE694  ASN695  SER759  ASP760  ASP761  ALA762  ILE779  LEU786  VAL792 
 PHE793  MET794  SER795  GLU796  ALA797  LYS798  CYS799  TRP800  GLU811  SER814 

> <Gold.Protein.RotatedAtoms>
  151.6038  133.3354  159.3052 H   0  0  0  0  0  0  0  0  0  0  0  0  # atno 6907 bound_to 6896
  150.8193  134.7396  159.6770 H   0  0  0  0  0  0  0  0  0  0  0  0  # atno 6908 bound_to 6896
  152.4288  134.5823  160.0003 H   0  0  0  0  0  0  0  0  0  0  0  0  # atno 6909 bound_to 6896
  146.1594  140.4664  142.8577 H   0  0  0  0  0  0  0  0  0  0  0  0  # atno 7974 bound_to 7965
  155.1699  140.3291  155.4395 H   0  0  0  0  0  0  0  0  0  0  0  0  # atno 8008 bound_to 7997
  156.2514  140.1945  156.6753 H   0  0  0  0  0  0  0  0  0  0  0  0  # atno 8009 bound_to 7997
  154.6345  140.0578  156.9758 H   0  0  0  0  0  0  0  0  0  0  0  0  # atno 8010 bound_to 7997
  140.6610  143.2636  151.4440 H   0  0  0  0  0  0  0  0  0  0  0  0  # atno 10167 bound_to 10162
  156.8222  130.5460  149.5696 H   0  0  0  0  0  0  0  0  0  0  0  0  # atno 10718 bound_to 10713
  154.6667  135.2933  154.9796 H   0  0  0  0  0  0  0  0  0  0  0  0  # atno 10763 bound_to 10752
  154.0838  135.6600  153.4846 H   0  0  0  0  0  0  0  0  0  0  0  0  # atno 10764 bound_to 10752
  153.0461  135.5203  154.7643 H   0  0  0  0  0  0  0  0  0  0  0  0  # atno 10765 bound_to 10752
  140.4087  134.6711  157.4602 H   0  0  0  0  0  0  0  0  0  0  0  0  # atno 11005 bound_to 11000
  144.8007  140.6207  143.6480 LP  0  0  0  0  0  0  0  0  0  0  0  0  # atno 17320 bound_to 7965
  145.4626  139.1511  143.3858 LP  0  0  0  0  0  0  0  0  0  0  0  0  # atno 17321 bound_to 7965
  139.5844  144.1637  152.2010 LP  0  0  0  0  0  0  0  0  0  0  0  0  # atno 17342 bound_to 10162
  140.0972  144.5570  150.7014 LP  0  0  0  0  0  0  0  0  0  0  0  0  # atno 17343 bound_to 10162
  156.0982  130.5949  150.9850 LP  0  0  0  0  0  0  0  0  0  0  0  0  # atno 17370 bound_to 10713
  157.6451  131.0905  150.8171 LP  0  0  0  0  0  0  0  0  0  0  0  0  # atno 17371 bound_to 10713
  140.0283  134.6444  155.9142 LP  0  0  0  0  0  0  0  0  0  0  0  0  # atno 17394 bound_to 11000
  141.1829  133.6550  156.5096 LP  0  0  0  0  0  0  0  0  0  0  0  0  # atno 17395 bound_to 11000

$$$$
