AV-unprocessed.smi:1772|AV-procd|sdf|7159|dock1
  -GOLD-   22720 8393D 1   1.00000     0.00000
 Structure written by MMmdl.
 33 34  0  0  0  0  0  0  0  0  1 V2000
  144.7351  136.7676  151.1260 O   0  0  0  0  0  0  0  0  0  0  0  0
  145.8993  136.4963  151.4196 C   0  0  0  0  0  0  0  0  0  0  0  0
  146.8148  137.4244  151.7318 N   0  0  0  0  0  0  0  0  0  0  0  0
  146.5651  138.8614  151.7837 C   0  0  0  0  0  0  0  0  0  0  0  0
  146.9965  139.4885  153.1250 C   0  0  2  0  0  0  0  0  0  0  0  0
  147.2017  141.0166  153.0530 C   0  0  0  0  0  0  0  0  0  0  0  0
  147.9122  141.4759  154.3296 C   0  0  0  0  0  0  0  0  0  0  0  0
  149.0488  140.1124  154.7761 S   0  0  0  0  0  0  0  0  0  0  0  0
  150.4005  140.4227  154.2864 O   0  0  0  0  0  0  0  0  0  0  0  0
  148.8197  139.7353  156.1791 O   0  0  0  0  0  0  0  0  0  0  0  0
  148.2907  138.8619  153.6697 C   0  0  0  0  0  0  0  0  0  0  0  0
  146.4290  135.2608  151.4518 N   0  0  0  0  0  0  0  0  0  0  0  0
  145.7923  134.0119  151.2147 C   0  0  0  0  0  0  0  0  0  0  0  0
  144.4879  134.0319  150.6782 C   0  0  0  0  0  0  0  0  0  0  0  0
  143.8413  132.8072  150.4174 C   0  0  0  0  0  0  0  0  0  0  0  0
  144.4097  131.6049  150.6473 N   0  0  0  0  0  0  0  0  0  0  0  0
  145.6631  131.5871  151.1478 C   0  0  0  0  0  0  0  0  0  0  0  0
  146.3980  132.7527  151.4439 C   0  0  0  0  0  0  0  0  0  0  0  0
  147.7493  137.1162  151.9571 H   0  0  0  0  0  0  0  0  0  0  0  0
  147.0775  139.3533  150.9550 H   0  0  0  0  0  0  0  0  0  0  0  0
  145.4988  139.0222  151.6222 H   0  0  0  0  0  0  0  0  0  0  0  0
  146.2171  139.3033  153.8658 H   0  0  0  0  0  0  0  0  0  0  0  0
  147.8312  141.2540  152.1944 H   0  0  0  0  0  0  0  0  0  0  0  0
  146.2596  141.5482  152.9147 H   0  0  0  0  0  0  0  0  0  0  0  0
  148.4666  142.4056  154.2022 H   0  0  0  0  0  0  0  0  0  0  0  0
  147.1994  141.6014  155.1450 H   0  0  0  0  0  0  0  0  0  0  0  0
  148.1128  137.9359  154.2171 H   0  0  0  0  0  0  0  0  0  0  0  0
  148.9999  138.6575  152.8671 H   0  0  0  0  0  0  0  0  0  0  0  0
  147.4212  135.2100  151.6300 H   0  0  0  0  0  0  0  0  0  0  0  0
  143.9852  134.9659  150.4726 H   0  0  0  0  0  0  0  0  0  0  0  0
  142.8407  132.7936  150.0113 H   0  0  0  0  0  0  0  0  0  0  0  0
  146.0987  130.6126  151.3123 H   0  0  0  0  0  0  0  0  0  0  0  0
  147.4029  132.6548  151.8239 H   0  0  0  0  0  0  0  0  0  0  0  0
  1  2  2  0  0  0  0
  2  3  1  0  0  0  0
  2 12  1  0  0  0  0
  3  4  1  0  0  0  0
  3 19  1  0  0  0  0
  4  5  1  0  0  0  0
  4 20  1  0  0  0  0
  4 21  1  0  0  0  0
  5 11  1  0  0  0  0
  5  6  1  0  0  0  0
  5 22  1  0  0  0  0
  6  7  1  0  0  0  0
  6 23  1  0  0  0  0
  6 24  1  0  0  0  0
  7  8  1  0  0  0  0
  7 25  1  0  0  0  0
  7 26  1  0  0  0  0
  8  9  2  0  0  0  0
  8 10  2  0  0  0  0
  8 11  1  0  0  0  0
 11 27  1  0  0  0  0
 11 28  1  0  0  0  0
 12 13  1  0  0  0  0
 12 29  1  0  0  0  0
 13 18  1  0  0  0  0
 13 14  2  0  0  0  0
 14 15  1  0  0  0  0
 14 30  1  0  0  0  0
 15 16  2  0  0  0  0
 15 31  1  0  0  0  0
 16 17  1  0  0  0  0
 17 18  2  0  0  0  0
 17 32  1  0  0  0  0
 18 33  1  0  0  0  0
M  END
> <s_m_source_file>
AV-unprocessed.smi

> <i_m_source_file_index>
1772

> <i_lp_mmshare_version>
43012

> <i_f3d_flags>
0

> <s_epik_input>
W2NIXTFbY0hdbltjSF1bY0hdYzFbTkhdQyg9TylbTkhdW0NIMl1bQ0BASF0oW0NIMl0yKVtDSDJdW0NIMl1TMig9Tyk9Tw==

> <s_epik_cmdline>
J2VwaWtfcHl0aG9uJywgJy1waCcsICc3LjAnLCAnLXRuJywgJzgnLCAnLW1hJywgJzIwMCcsICctbWV0YWxfYmluZGluZycsICctaW1hZScsICc8aW5maWxlLm1hZT4nLCAnLW9tYWUnLCAnPG91dGZpbGUubWFlPic=

> <r_epik_Ionization_Penalty>
0.110577

> <r_epik_Ionization_Penalty_Charging>
0

> <r_epik_Ionization_Penalty_Neutral>
0.110577

> <r_epik_State_Penalty>
0.100289

> <r_epik_Charging_Adjusted_Penalty>
0.100289

> <i_epik_Tot_Q>
0

> <i_epik_Tot_abs_Q>
0

> <r_epik_Metal_State_Penalty>
0.0843891

> <b_epik_Metal_Only>
0

> <s_lp_Force_Field>
OPLS_2005

> <r_lp_Energy>
10.6243

> <b_lp_Chiralities_Consistent>
1

> <s_lp_Variant>
AV-unprocessed.smi:1772-1

> <Gold.Version>
5.8.1

> <Gold.Id.Protein>
6NUR|6NUR_protein|mol2

> <Gold.PLP.Fitness>
41.1086

> <Gold.PLP.PLP>
-29.8967

> <Gold.PLP.part.hbond>
-2.7314

> <Gold.PLP.part.metal>
0.0000

> <Gold.PLP.part.buried>
-4.9061

> <Gold.PLP.part.nonpolar>
-26.9059

> <Gold.PLP.part.repulsive>
4.4133

> <Gold.PLP.ligand.clash>
0.0000

> <Gold.PLP.ligand.torsion>
0.2507

> <Gold.PLP.Chemscore.Hbond>
2.9030

> <Gold.PLP.Chemscore.CHOScore>
1.0000

> <Gold.PLP.Chemscore.Metal>
0.0000

> <Gold.Chemscore.Hbonds>
donor molecule, donor type, donor heavy atom, donor atom, acceptor molecule, acceptor atom, score
      L1  H     3    19       P1  7948  0.86
      L1  H    12    29       P1  7948  0.90
      P1  H  7989  7998       L1     9  0.95
      L1  C    15    31       P1 10186  1.00

> <Gold.PLP.Chemscore.Internal.Correction>
0.0044

> <Gold.Rescore>
     Score         DG    S(hbond)    S(metal)    S(lipo)     H(rot)  DE(clash)    DE(int)     intcor
     16.59     -20.00       2.85        0.00      71.25       1.30       1.73       1.68       ----

> <Gold.Chemscore.Fitness>
16.5882

> <Gold.Chemscore.DG>
-19.9960

> <Gold.Chemscore.ZeroCoef>
-5.4800

> <Gold.Chemscore.Hbond>
2.8459

> <Gold.Chemscore.Metal>
0.0000

> <Gold.Chemscore.Lipo>
71.2533

> <Gold.Chemscore.Internal_Hbond>
0.0000

> <Gold.Chemscore.DEClash>
1.7250

> <Gold.Chemscore.DEInternal>
1.6828

> <Gold.Chemscore.Rot>
1.2992

> <Gold.Chemscore.Internal.Correction>
   9.000000E+99

> <Gold.Chemscore.Hbonds>
donor molecule, donor type, donor heavy atom, donor atom, acceptor molecule, acceptor atom, score
      L1  H     3    19       P1  7948  0.82
      L1  H    12    29       P1  7948  0.78
      P1  H  7989  7998       L1     9  0.86

> <Gold.Chemscore.Hbond.Weighted>
-9.5053

> <Gold.Chemscore.Metal.Weighted>
-0.0000

> <Gold.Chemscore.Lipo.Weighted>
-8.3366

> <Gold.Chemscore.Internal_Hbond.Weighted>
0.0000

> <Gold.Chemscore.DEClash.Weighted>
1.7250

> <Gold.Chemscore.DEInternal.Weighted>
1.6828

> <Gold.Chemscore.Rot.Weighted>
3.3259

> <Gold.Chemscore.Internal.Correction.Weighted>
   9.000000E+99

> <Gold.Protein.RotatedTorsions>
[ 6907 6896 6895 6894 ] final  -37.51 input  -60.11 | X-H torsion
[ 7974 7965 7964 7962 ] final  153.10 input  175.53 | X-H torsion
[ 8008 7997 7996 7995 ] final   -8.66 input   59.86 | X-H torsion
[ 10167 10162 10161 10158 ] final  152.84 input  -65.29 | X-H torsion
[ 10718 10713 10712 10709 ] final  -98.67 input   66.30 | X-H torsion
[ 10763 10752 10751 10750 ] final   88.14 input  -60.55 | X-H torsion
[ 11005 11000 10999 10996 ] final   84.93 input  -57.11 | X-H torsion

> <Gold.Protein.ActiveResidues>
 VAL166  LYS551  ARG553  GLY616  TRP617  ASP618  TYR619  PRO620  LYS621  CYS622 
 ASP623  PHE694  ASN695  SER759  ASP760  ASP761  ALA762  ILE779  LEU786  VAL792 
 PHE793  MET794  SER795  GLU796  ALA797  LYS798  CYS799  TRP800  GLU811  SER814 

> <Gold.Protein.RotatedAtoms>
  151.0139  134.9418  159.8021 H   0  0  0  0  0  0  0  0  0  0  0  0  # atno 6907 bound_to 6896
  152.5309  134.2992  159.9082 H   0  0  0  0  0  0  0  0  0  0  0  0  # atno 6908 bound_to 6896
  151.2999  133.4085  159.2673 H   0  0  0  0  0  0  0  0  0  0  0  0  # atno 6909 bound_to 6896
  144.8177  139.6755  143.6114 H   0  0  0  0  0  0  0  0  0  0  0  0  # atno 7974 bound_to 7965
  154.5720  140.2375  155.8178 H   0  0  0  0  0  0  0  0  0  0  0  0  # atno 8008 bound_to 7997
  156.2114  140.3025  155.9699 H   0  0  0  0  0  0  0  0  0  0  0  0  # atno 8009 bound_to 7997
  155.2695  140.0418  157.2996 H   0  0  0  0  0  0  0  0  0  0  0  0  # atno 8010 bound_to 7997
  139.4830  144.5324  151.7701 H   0  0  0  0  0  0  0  0  0  0  0  0  # atno 10167 bound_to 10162
  156.0113  130.5248  150.6557 H   0  0  0  0  0  0  0  0  0  0  0  0  # atno 10718 bound_to 10713
  153.1738  135.4518  154.9938 H   0  0  0  0  0  0  0  0  0  0  0  0  # atno 10763 bound_to 10752
  154.7984  135.3246  154.7613 H   0  0  0  0  0  0  0  0  0  0  0  0  # atno 10764 bound_to 10752
  153.8086  135.6956  153.4899 H   0  0  0  0  0  0  0  0  0  0  0  0  # atno 10765 bound_to 10752
  139.8986  134.8251  156.2513 H   0  0  0  0  0  0  0  0  0  0  0  0  # atno 11005 bound_to 11000
  146.2482  139.6142  142.9445 LP  0  0  0  0  0  0  0  0  0  0  0  0  # atno 17320 bound_to 7965
  145.5175  141.0433  143.2453 LP  0  0  0  0  0  0  0  0  0  0  0  0  # atno 17321 bound_to 7965
  140.4852  144.1392  150.5939 LP  0  0  0  0  0  0  0  0  0  0  0  0  # atno 17342 bound_to 10162
  140.4233  143.2601  151.9687 LP  0  0  0  0  0  0  0  0  0  0  0  0  # atno 17343 bound_to 10162
  157.4309  131.0849  151.1039 LP  0  0  0  0  0  0  0  0  0  0  0  0  # atno 17370 bound_to 10713
  157.1612  130.6226  149.5611 LP  0  0  0  0  0  0  0  0  0  0  0  0  # atno 17371 bound_to 10713
  141.0222  133.7035  156.1287 LP  0  0  0  0  0  0  0  0  0  0  0  0  # atno 17394 bound_to 11000
  140.7217  134.4351  157.5574 LP  0  0  0  0  0  0  0  0  0  0  0  0  # atno 17395 bound_to 11000

$$$$
