AV-unprocessed.smi:244|AV-procd|sdf|1875|dock3
  -GOLD-   2262020513D 1   1.00000     0.00000
 Structure written by MMmdl.
 56 60  0  0  0  0  0  0  0  0  1 V2000
  150.0386  144.1473  158.6841 C   0  0  0  0  0  0  0  0  0  0  0  0
  151.4827  144.2908  158.5367 N   0  0  0  0  0  0  0  0  0  0  0  0
  152.1396  144.6833  159.7869 C   0  0  0  0  0  0  0  0  0  0  0  0
  152.2004  143.5330  160.8130 C   0  0  0  0  0  0  0  0  0  0  0  0
  152.8815  142.3067  160.1969 C   0  0  1  0  0  0  0  0  0  0  0  0
  152.8721  141.2222  161.1193 O   0  0  0  0  0  0  0  0  0  0  0  0
  153.5521  140.0849  160.5967 C   0  0  0  0  0  0  0  0  0  0  0  0
  152.8551  139.6143  159.3091 C   0  0  0  0  0  0  0  0  0  0  0  0
  152.7743  140.7086  158.3457 N   0  0  0  0  0  0  0  0  0  0  0  0
  152.2733  140.3145  157.1539 C   0  0  0  0  0  0  0  0  0  0  0  0
  153.0392  139.5906  156.2949 N   0  0  0  0  0  0  0  0  0  0  0  0
  152.5240  139.1737  155.1341 C   0  0  0  0  0  0  0  0  0  0  0  0
  151.2921  139.3577  154.6530 N   0  0  0  0  0  0  0  0  0  0  0  0
  150.5247  140.0833  155.5168 C   0  0  0  0  0  0  0  0  0  0  0  0
  150.9375  140.6032  156.7741 C   0  0  0  0  0  0  0  0  0  0  0  0
  149.8929  141.2935  157.3741 N   0  0  0  0  0  0  0  0  0  0  0  0
  148.9136  141.1864  156.5177 C   0  0  0  0  0  0  0  0  0  0  0  0
  149.1986  140.4568  155.3848 N   0  0  0  0  0  0  0  0  0  0  0  0
  148.2933  140.1654  154.2844 C   0  0  0  0  0  0  0  0  0  0  0  0
  146.9503  140.9384  154.3396 C   0  0  0  0  0  0  0  0  0  0  0  0
  146.2401  140.5356  153.1825 O   0  0  0  0  0  0  0  0  0  0  0  0
  146.1011  140.5854  155.5803 C   0  0  0  0  0  0  0  0  0  0  0  0
  144.8189  141.4337  155.6590 C   0  0  0  0  0  0  0  0  0  0  0  0
  145.1477  142.8180  155.6378 O   0  0  0  0  0  0  0  0  0  0  0  0
  145.7949  143.2157  154.4346 C   0  0  0  0  0  0  0  0  0  0  0  0
  147.1341  142.4709  154.2862 C   0  0  0  0  0  0  0  0  0  0  0  0
  152.1363  141.8992  158.9112 C   0  0  2  0  0  0  0  0  0  0  0  0
  152.1072  143.1074  157.9379 C   0  0  0  0  0  0  0  0  0  0  0  0
  149.6021  145.0774  159.0487 H   0  0  0  0  0  0  0  0  0  0  0  0
  149.7673  143.3536  159.3792 H   0  0  0  0  0  0  0  0  0  0  0  0
  149.5801  143.9235  157.7205 H   0  0  0  0  0  0  0  0  0  0  0  0
  153.1541  145.0065  159.5505 H   0  0  0  0  0  0  0  0  0  0  0  0
  151.6328  145.5494  160.2136 H   0  0  0  0  0  0  0  0  0  0  0  0
  152.7520  143.8572  161.6957 H   0  0  0  0  0  0  0  0  0  0  0  0
  151.1992  143.2740  161.1580 H   0  0  0  0  0  0  0  0  0  0  0  0
  153.9166  142.5645  159.9621 H   0  0  0  0  0  0  0  0  0  0  0  0
  154.5985  140.3280  160.4054 H   0  0  0  0  0  0  0  0  0  0  0  0
  153.5415  139.2901  161.3424 H   0  0  0  0  0  0  0  0  0  0  0  0
  153.4022  138.7766  158.8745 H   0  0  0  0  0  0  0  0  0  0  0  0
  151.8529  139.2553  159.5481 H   0  0  0  0  0  0  0  0  0  0  0  0
  153.1923  138.6068  154.5031 H   0  0  0  0  0  0  0  0  0  0  0  0
  147.9437  141.6274  156.6970 H   0  0  0  0  0  0  0  0  0  0  0  0
  148.8161  140.3865  153.3527 H   0  0  0  0  0  0  0  0  0  0  0  0
  148.1064  139.0904  154.2778 H   0  0  0  0  0  0  0  0  0  0  0  0
  145.3375  140.7998  153.2765 H   0  0  0  0  0  0  0  0  0  0  0  0
  145.8520  139.5235  155.5853 H   0  0  0  0  0  0  0  0  0  0  0  0
  146.6762  140.7695  156.4877 H   0  0  0  0  0  0  0  0  0  0  0  0
  144.1372  141.1978  154.8406 H   0  0  0  0  0  0  0  0  0  0  0  0
  144.2856  141.2157  156.5844 H   0  0  0  0  0  0  0  0  0  0  0  0
  145.1429  143.0330  153.5792 H   0  0  0  0  0  0  0  0  0  0  0  0
  145.9704  144.2909  154.4715 H   0  0  0  0  0  0  0  0  0  0  0  0
  147.7825  142.7961  155.0992 H   0  0  0  0  0  0  0  0  0  0  0  0
  147.6295  142.7662  153.3605 H   0  0  0  0  0  0  0  0  0  0  0  0
  151.1139  141.6248  159.1734 H   0  0  0  0  0  0  0  0  0  0  0  0
  151.5743  142.8618  157.0187 H   0  0  0  0  0  0  0  0  0  0  0  0
  153.1259  143.3648  157.6447 H   0  0  0  0  0  0  0  0  0  0  0  0
  1  2  1  0  0  0  0
  1 29  1  0  0  0  0
  1 30  1  0  0  0  0
  1 31  1  0  0  0  0
  2 28  1  0  0  0  0
  2  3  1  0  0  0  0
  3  4  1  0  0  0  0
  3 32  1  0  0  0  0
  3 33  1  0  0  0  0
  4  5  1  0  0  0  0
  4 34  1  0  0  0  0
  4 35  1  0  0  0  0
  5 27  1  0  0  0  0
  5  6  1  0  0  0  0
  5 36  1  0  0  0  0
  6  7  1  0  0  0  0
  7  8  1  0  0  0  0
  7 37  1  0  0  0  0
  7 38  1  0  0  0  0
  8  9  1  0  0  0  0
  8 39  1  0  0  0  0
  8 40  1  0  0  0  0
  9 10  1  0  0  0  0
  9 27  1  0  0  0  0
 10 15  1  0  0  0  0
 10 11  2  0  0  0  0
 11 12  1  0  0  0  0
 12 13  2  0  0  0  0
 12 41  1  0  0  0  0
 13 14  1  0  0  0  0
 14 18  1  0  0  0  0
 14 15  2  0  0  0  0
 15 16  1  0  0  0  0
 16 17  2  0  0  0  0
 17 18  1  0  0  0  0
 17 42  1  0  0  0  0
 18 19  1  0  0  0  0
 19 20  1  0  0  0  0
 19 43  1  0  0  0  0
 19 44  1  0  0  0  0
 20 26  1  0  0  0  0
 20 21  1  0  0  0  0
 20 22  1  0  0  0  0
 21 45  1  0  0  0  0
 22 23  1  0  0  0  0
 22 46  1  0  0  0  0
 22 47  1  0  0  0  0
 23 24  1  0  0  0  0
 23 48  1  0  0  0  0
 23 49  1  0  0  0  0
 24 25  1  0  0  0  0
 25 26  1  0  0  0  0
 25 50  1  0  0  0  0
 25 51  1  0  0  0  0
 26 52  1  0  0  0  0
 26 53  1  0  0  0  0
 27 28  1  0  0  0  0
 27 54  1  0  0  0  0
 28 55  1  0  0  0  0
 28 56  1  0  0  0  0
M  END
> <s_m_source_file>
AV-unprocessed.smi

> <i_m_source_file_index>
244

> <i_lp_mmshare_version>
43012

> <i_f3d_flags>
0

> <s_epik_input>
W0NIMl0xW0NIMl1OKFtDSDNdKVtDSDJdW0NAQEhdKFtDQEhdMTIpTihbQ0gyXVtDSDJdTzIpYyhuW2NIXW4zKWMoYzM0KW5bY0hdbjRbQ0gyXUM1KFtPSF0pW0NIMl1bQ0gyXU9bQ0gyXVtDSDJdNQ==

> <s_epik_cmdline>
J2VwaWtfcHl0aG9uJywgJy1waCcsICc3LjAnLCAnLXRuJywgJzgnLCAnLW1hJywgJzIwMCcsICctbWV0YWxfYmluZGluZycsICctaW1hZScsICc8aW5maWxlLm1hZT4nLCAnLW9tYWUnLCAnPG91dGZpbGUubWFlPic=

> <r_lp_tautomer_probability>
1

> <r_epik_Ionization_Penalty>
2.27765

> <r_epik_Ionization_Penalty_Charging>
0

> <r_epik_Ionization_Penalty_Neutral>
2.27765

> <r_epik_State_Penalty>
2.4114

> <r_epik_Charging_Adjusted_Penalty>
2.4114

> <i_epik_Tot_Q>
0

> <i_epik_Tot_abs_Q>
0

> <r_epik_Metal_State_Penalty>
2.39769

> <b_epik_Metal_Only>
0

> <s_lp_Force_Field>
OPLS_2005

> <r_lp_Energy>
45.6912

> <b_lp_Chiralities_Consistent>
1

> <s_lp_Variant>
AV-unprocessed.smi:244-12

> <Gold.Version>
5.8.1

> <Gold.Id.Protein>
6NUR|6NUR_protein|mol2

> <Gold.PLP.Fitness>
49.3319

> <Gold.PLP.PLP>
-43.3984

> <Gold.PLP.part.hbond>
-3.2222

> <Gold.PLP.part.metal>
0.0000

> <Gold.PLP.part.buried>
-2.7871

> <Gold.PLP.part.nonpolar>
-38.3689

> <Gold.PLP.part.repulsive>
0.4024

> <Gold.PLP.ligand.clash>
0.0342

> <Gold.PLP.ligand.torsion>
0.6498

> <Gold.PLP.Chemscore.Hbond>
2.3871

> <Gold.PLP.Chemscore.CHOScore>
0.0000

> <Gold.PLP.Chemscore.Metal>
0.0000

> <Gold.Chemscore.Hbonds>
donor molecule, donor type, donor heavy atom, donor atom, acceptor molecule, acceptor atom, score
      L1  H    21    45       P1 10175  0.80
      P1  H  7989  7998       L1    13  0.67
      P1  H  7997  8010       L1    11  0.87

> <Gold.PLP.Chemscore.Internal.Correction>
0.1060

> <Gold.Rescore>
     Score         DG    S(hbond)    S(metal)    S(lipo)     H(rot)  DE(clash)    DE(int)     intcor
     12.32     -17.97       1.54        0.00     107.97       2.06       0.66       4.99       ----

> <Gold.Chemscore.Fitness>
12.3225

> <Gold.Chemscore.DG>
-17.9699

> <Gold.Chemscore.ZeroCoef>
-5.4800

> <Gold.Chemscore.Hbond>
1.5372

> <Gold.Chemscore.Metal>
0.0000

> <Gold.Chemscore.Lipo>
107.9667

> <Gold.Chemscore.Internal_Hbond>
0.0000

> <Gold.Chemscore.DEClash>
0.6613

> <Gold.Chemscore.DEInternal>
4.9861

> <Gold.Chemscore.Rot>
2.0611

> <Gold.Chemscore.Internal.Correction>
   9.000000E+99

> <Gold.Chemscore.Hbonds>
donor molecule, donor type, donor heavy atom, donor atom, acceptor molecule, acceptor atom, score
      L1  H    21    45       P1 10175  0.59
      P1  H  7989  7998       L1    13  0.02
      P1  H  7997  8010       L1    11  0.21

> <Gold.Chemscore.Hbond.Weighted>
-5.1343

> <Gold.Chemscore.Metal.Weighted>
-0.0000

> <Gold.Chemscore.Lipo.Weighted>
-12.6321

> <Gold.Chemscore.Internal_Hbond.Weighted>
0.0000

> <Gold.Chemscore.DEClash.Weighted>
0.6613

> <Gold.Chemscore.DEInternal.Weighted>
4.9861

> <Gold.Chemscore.Rot.Weighted>
5.2765

> <Gold.Chemscore.Internal.Correction.Weighted>
   9.000000E+99

> <Gold.Protein.RotatedTorsions>
[ 6907 6896 6895 6894 ] final   70.51 input  -60.11 | X-H torsion
[ 7974 7965 7964 7962 ] final  -66.71 input  175.53 | X-H torsion
[ 8008 7997 7996 7995 ] final   53.88 input   59.86 | X-H torsion
[ 10167 10162 10161 10158 ] final  137.13 input  -65.29 | X-H torsion
[ 10718 10713 10712 10709 ] final  -75.15 input   66.30 | X-H torsion
[ 10763 10752 10751 10750 ] final -164.82 input  -60.55 | X-H torsion
[ 11005 11000 10999 10996 ] final  138.80 input  -57.11 | X-H torsion

> <Gold.Protein.ActiveResidues>
 VAL166  LYS551  ARG553  GLY616  TRP617  ASP618  TYR619  PRO620  LYS621  CYS622 
 ASP623  PHE694  ASN695  SER759  ASP760  ASP761  ALA762  ILE779  LEU786  VAL792 
 PHE793  MET794  SER795  GLU796  ALA797  LYS798  CYS799  TRP800  GLU811  SER814 

> <Gold.Protein.RotatedAtoms>
  152.4754  134.4858  159.9679 H   0  0  0  0  0  0  0  0  0  0  0  0  # atno 6907 bound_to 6896
  151.4875  133.3526  159.2856 H   0  0  0  0  0  0  0  0  0  0  0  0  # atno 6908 bound_to 6896
  150.8789  134.8203  159.7271 H   0  0  0  0  0  0  0  0  0  0  0  0  # atno 6909 bound_to 6896
  145.7383  140.8965  143.0543 H   0  0  0  0  0  0  0  0  0  0  0  0  # atno 7974 bound_to 7965
  155.4755  140.3466  155.4332 H   0  0  0  0  0  0  0  0  0  0  0  0  # atno 8008 bound_to 7997
  156.1073  140.1451  156.9416 H   0  0  0  0  0  0  0  0  0  0  0  0  # atno 8009 bound_to 7997
  154.4732  140.0893  156.7176 H   0  0  0  0  0  0  0  0  0  0  0  0  # atno 8010 bound_to 7997
  139.5155  144.6427  151.5526 H   0  0  0  0  0  0  0  0  0  0  0  0  # atno 10167 bound_to 10162
  156.0217  130.4434  150.3000 H   0  0  0  0  0  0  0  0  0  0  0  0  # atno 10718 bound_to 10713
  154.6992  135.2985  154.9366 H   0  0  0  0  0  0  0  0  0  0  0  0  # atno 10763 bound_to 10752
  154.0304  135.6671  153.4784 H   0  0  0  0  0  0  0  0  0  0  0  0  # atno 10764 bound_to 10752
  153.0668  135.5083  154.8127 H   0  0  0  0  0  0  0  0  0  0  0  0  # atno 10765 bound_to 10752
  140.0209  134.9397  157.0472 H   0  0  0  0  0  0  0  0  0  0  0  0  # atno 11005 bound_to 11000
  144.6876  139.9425  143.7475 LP  0  0  0  0  0  0  0  0  0  0  0  0  # atno 17320 bound_to 7965
  146.0472  139.3477  143.0661 LP  0  0  0  0  0  0  0  0  0  0  0  0  # atno 17321 bound_to 7965
  140.6199  143.9277  150.6518 LP  0  0  0  0  0  0  0  0  0  0  0  0  # atno 17342 bound_to 10162
  140.2548  143.3567  152.1375 LP  0  0  0  0  0  0  0  0  0  0  0  0  # atno 17343 bound_to 10162
  157.1103  131.0219  151.3051 LP  0  0  0  0  0  0  0  0  0  0  0  0  # atno 17370 bound_to 10713
  157.4710  130.7709  149.7323 LP  0  0  0  0  0  0  0  0  0  0  0  0  # atno 17371 bound_to 10713
  140.4389  134.1702  155.7172 LP  0  0  0  0  0  0  0  0  0  0  0  0  # atno 17394 bound_to 11000
  141.1773  133.8487  157.1378 LP  0  0  0  0  0  0  0  0  0  0  0  0  # atno 17395 bound_to 11000

$$$$
