AV-unprocessed.smi:2627|AV-procd|sdf|10239|dock1
  -GOLD-   2272014243D 1   1.00000     0.00000
 Structure written by MMmdl.
 39 41  0  0  0  0  0  0  0  0  1 V2000
  153.1954  138.7168  154.7899 C   0  0  0  0  0  0  0  0  0  0  0  0
  151.8779  138.0121  155.1390 C   0  0  2  0  0  0  0  0  0  0  0  0
  151.8099  136.8124  154.3944 O   0  0  0  0  0  0  0  0  0  0  0  0
  150.6875  138.9018  154.9024 C   0  0  0  0  0  0  0  0  0  0  0  0
  149.7291  138.5904  154.0265 N   0  0  0  0  0  0  0  0  0  0  0  0
  148.8633  139.6615  154.1240 C   0  0  0  0  0  0  0  0  0  0  0  0
  147.6454  139.9216  153.4561 C   0  0  0  0  0  0  0  0  0  0  0  0
  146.9211  141.1011  153.7262 C   0  0  0  0  0  0  0  0  0  0  0  0
  147.4034  142.0353  154.6656 C   0  0  0  0  0  0  0  0  0  0  0  0
  148.6159  141.7960  155.3407 C   0  0  0  0  0  0  0  0  0  0  0  0
  149.3350  140.6171  155.0670 C   0  0  0  0  0  0  0  0  0  0  0  0
  150.5314  140.0896  155.5421 N   0  0  0  0  0  0  0  0  0  0  0  0
  151.4040  140.7076  156.5281 C   0  0  0  0  0  0  0  0  0  0  0  0
  150.7236  140.8043  157.8987 C   0  0  0  0  0  0  0  0  0  0  0  0
  151.6676  141.2969  158.8384 O   0  0  0  0  0  0  0  0  0  0  0  0
  151.5248  142.5927  159.2864 C   0  0  0  0  0  0  0  0  0  0  0  0
  152.0053  142.8782  160.5813 C   0  0  0  0  0  0  0  0  0  0  0  0
  151.9004  144.1749  161.1200 C   0  0  0  0  0  0  0  0  0  0  0  0
  151.3116  145.2050  160.3638 C   0  0  0  0  0  0  0  0  0  0  0  0
  150.8290  144.9351  159.0696 C   0  0  0  0  0  0  0  0  0  0  0  0
  150.9333  143.6375  158.5313 C   0  0  0  0  0  0  0  0  0  0  0  0
  153.3211  139.6257  155.3788 H   0  0  0  0  0  0  0  0  0  0  0  0
  153.2281  138.9967  153.7362 H   0  0  0  0  0  0  0  0  0  0  0  0
  154.0523  138.0730  154.9907 H   0  0  0  0  0  0  0  0  0  0  0  0
  151.9018  137.7120  156.1859 H   0  0  0  0  0  0  0  0  0  0  0  0
  151.8279  137.0301  153.4751 H   0  0  0  0  0  0  0  0  0  0  0  0
  147.2671  139.2112  152.7360 H   0  0  0  0  0  0  0  0  0  0  0  0
  145.9905  141.2892  153.2111 H   0  0  0  0  0  0  0  0  0  0  0  0
  146.8418  142.9357  154.8679 H   0  0  0  0  0  0  0  0  0  0  0  0
  148.9873  142.5095  156.0613 H   0  0  0  0  0  0  0  0  0  0  0  0
  152.3339  140.1430  156.5946 H   0  0  0  0  0  0  0  0  0  0  0  0
  151.6793  141.7023  156.1767 H   0  0  0  0  0  0  0  0  0  0  0  0
  149.8656  141.4754  157.8351 H   0  0  0  0  0  0  0  0  0  0  0  0
  150.3652  139.8212  158.2078 H   0  0  0  0  0  0  0  0  0  0  0  0
  152.4587  142.0936  161.1696 H   0  0  0  0  0  0  0  0  0  0  0  0
  152.2718  144.3784  162.1135 H   0  0  0  0  0  0  0  0  0  0  0  0
  151.2305  146.2001  160.7753 H   0  0  0  0  0  0  0  0  0  0  0  0
  150.3776  145.7251  158.4876 H   0  0  0  0  0  0  0  0  0  0  0  0
  150.5521  143.4703  157.5353 H   0  0  0  0  0  0  0  0  0  0  0  0
  1  2  1  0  0  0  0
  1 22  1  0  0  0  0
  1 23  1  0  0  0  0
  1 24  1  0  0  0  0
  2  3  1  0  0  0  0
  2  4  1  0  0  0  0
  2 25  1  0  0  0  0
  3 26  1  0  0  0  0
  4 12  1  0  0  0  0
  4  5  2  0  0  0  0
  5  6  1  0  0  0  0
  6 11  2  0  0  0  0
  6  7  1  0  0  0  0
  7  8  2  0  0  0  0
  7 27  1  0  0  0  0
  8  9  1  0  0  0  0
  8 28  1  0  0  0  0
  9 10  2  0  0  0  0
  9 29  1  0  0  0  0
 10 11  1  0  0  0  0
 10 30  1  0  0  0  0
 11 12  1  0  0  0  0
 12 13  1  0  0  0  0
 13 14  1  0  0  0  0
 13 31  1  0  0  0  0
 13 32  1  0  0  0  0
 14 15  1  0  0  0  0
 14 33  1  0  0  0  0
 14 34  1  0  0  0  0
 15 16  1  0  0  0  0
 16 21  1  0  0  0  0
 16 17  2  0  0  0  0
 17 18  1  0  0  0  0
 17 35  1  0  0  0  0
 18 19  2  0  0  0  0
 18 36  1  0  0  0  0
 19 20  1  0  0  0  0
 19 37  1  0  0  0  0
 20 21  2  0  0  0  0
 20 38  1  0  0  0  0
 21 39  1  0  0  0  0
M  END
> <s_m_source_file>
AV-unprocessed.smi

> <i_m_source_file_index>
2627

> <i_lp_mmshare_version>
43012

> <i_f3d_flags>
0

> <s_epik_input>
W2NIXTFbY0hdW2NIXVtjSF1jKGMxMiluKGMobjIpW0NASF0oW0NIM10pW09IXSlbQ0gyXVtDSDJdT2MzW2NIXVtjSF1bY0hdW2NIXVtjSF0z

> <s_epik_cmdline>
J2VwaWtfcHl0aG9uJywgJy1waCcsICc3LjAnLCAnLXRuJywgJzgnLCAnLW1hJywgJzIwMCcsICctbWV0YWxfYmluZGluZycsICctaW1hZScsICc8aW5maWxlLm1hZT4nLCAnLW9tYWUnLCAnPG91dGZpbGUubWFlPic=

> <r_lp_tautomer_probability>
1

> <r_epik_Ionization_Penalty>
0.0472514

> <r_epik_Ionization_Penalty_Charging>
0

> <r_epik_Ionization_Penalty_Neutral>
0.0472514

> <r_epik_State_Penalty>
0.040225

> <r_epik_Charging_Adjusted_Penalty>
0.040225

> <i_epik_Tot_Q>
0

> <i_epik_Tot_abs_Q>
0

> <r_epik_Metal_State_Penalty>
4.16204e-05

> <b_epik_Metal_Only>
0

> <s_lp_Force_Field>
OPLS_2005

> <r_lp_Energy>
15.0565

> <b_lp_Chiralities_Consistent>
1

> <s_lp_Variant>
AV-unprocessed.smi:2627-1

> <Gold.Version>
5.8.1

> <Gold.Id.Protein>
6NUR|6NUR_protein|mol2

> <Gold.PLP.Fitness>
53.9955

> <Gold.PLP.PLP>
-49.5146

> <Gold.PLP.part.hbond>
-2.0000

> <Gold.PLP.part.metal>
0.0000

> <Gold.PLP.part.buried>
-3.9685

> <Gold.PLP.part.nonpolar>
-44.6605

> <Gold.PLP.part.repulsive>
0.8135

> <Gold.PLP.ligand.clash>
0.0000

> <Gold.PLP.ligand.torsion>
0.7520

> <Gold.PLP.Chemscore.Hbond>
1.9600

> <Gold.PLP.Chemscore.CHOScore>
0.0000

> <Gold.PLP.Chemscore.Metal>
0.0000

> <Gold.Chemscore.Hbonds>
donor molecule, donor type, donor heavy atom, donor atom, acceptor molecule, acceptor atom, score
      L1  H     3    26       P1  7949  0.18
      P1  H 10752 10763       L1     3  1.00

> <Gold.PLP.Chemscore.Internal.Correction>
0.1049

> <Gold.Rescore>
     Score         DG    S(hbond)    S(metal)    S(lipo)     H(rot)  DE(clash)    DE(int)     intcor
     20.21     -21.28       1.58        0.00     135.03       2.06       0.38       0.69       ----

> <Gold.Chemscore.Fitness>
20.2102

> <Gold.Chemscore.DG>
-21.2828

> <Gold.Chemscore.ZeroCoef>
-5.4800

> <Gold.Chemscore.Hbond>
1.5785

> <Gold.Chemscore.Metal>
0.0000

> <Gold.Chemscore.Lipo>
135.0282

> <Gold.Chemscore.Internal_Hbond>
0.0000

> <Gold.Chemscore.DEClash>
0.3831

> <Gold.Chemscore.DEInternal>
0.6894

> <Gold.Chemscore.Rot>
2.0577

> <Gold.Chemscore.Internal.Correction>
   9.000000E+99

> <Gold.Chemscore.Hbonds>
donor molecule, donor type, donor heavy atom, donor atom, acceptor molecule, acceptor atom, score
      L1  H     3    26       P1  7949  0.18
      P1  H 10752 10763       L1     3  0.38

> <Gold.Chemscore.Hbond.Weighted>
-5.2723

> <Gold.Chemscore.Metal.Weighted>
-0.0000

> <Gold.Chemscore.Lipo.Weighted>
-15.7983

> <Gold.Chemscore.Internal_Hbond.Weighted>
0.0000

> <Gold.Chemscore.DEClash.Weighted>
0.3831

> <Gold.Chemscore.DEInternal.Weighted>
0.6894

> <Gold.Chemscore.Rot.Weighted>
5.2678

> <Gold.Chemscore.Internal.Correction.Weighted>
   9.000000E+99

> <Gold.Protein.RotatedTorsions>
[ 6907 6896 6895 6894 ] final   72.27 input  -60.11 | X-H torsion
[ 7974 7965 7964 7962 ] final -108.49 input  175.53 | X-H torsion
[ 8008 7997 7996 7995 ] final   53.34 input   59.86 | X-H torsion
[ 10167 10162 10161 10158 ] final  -68.13 input  -65.29 | X-H torsion
[ 10718 10713 10712 10709 ] final  164.06 input   66.30 | X-H torsion
[ 10763 10752 10751 10750 ] final   55.53 input  -60.55 | X-H torsion
[ 11005 11000 10999 10996 ] final -177.26 input  -57.11 | X-H torsion

> <Gold.Protein.ActiveResidues>
 VAL166  LYS551  ARG553  GLY616  TRP617  ASP618  TYR619  PRO620  LYS621  CYS622 
 ASP623  PHE694  ASN695  SER759  ASP760  ASP761  ALA762  ILE779  LEU786  VAL792 
 PHE793  MET794  SER795  GLU796  ALA797  LYS798  CYS799  TRP800  GLU811  SER814 

> <Gold.Protein.RotatedAtoms>
  152.4858  134.4596  159.9600 H   0  0  0  0  0  0  0  0  0  0  0  0  # atno 6907 bound_to 6896
  151.4592  133.3591  159.2814 H   0  0  0  0  0  0  0  0  0  0  0  0  # atno 6908 bound_to 6896
  150.8968  134.8402  159.7392 H   0  0  0  0  0  0  0  0  0  0  0  0  # atno 6909 bound_to 6896
  145.1922  140.9020  143.3418 H   0  0  0  0  0  0  0  0  0  0  0  0  # atno 7974 bound_to 7965
  155.4666  140.3463  155.4320 H   0  0  0  0  0  0  0  0  0  0  0  0  # atno 8008 bound_to 7997
  156.1127  140.1465  156.9345 H   0  0  0  0  0  0  0  0  0  0  0  0  # atno 8009 bound_to 7997
  154.4767  140.0882  156.7259 H   0  0  0  0  0  0  0  0  0  0  0  0  # atno 8010 bound_to 7997
  140.5530  143.2312  151.6874 H   0  0  0  0  0  0  0  0  0  0  0  0  # atno 10167 bound_to 10162
  157.0997  131.0439  151.2503 H   0  0  0  0  0  0  0  0  0  0  0  0  # atno 10718 bound_to 10713
  152.9818  135.5707  154.5082 H   0  0  0  0  0  0  0  0  0  0  0  0  # atno 10763 bound_to 10752
  154.4590  135.2781  155.1728 H   0  0  0  0  0  0  0  0  0  0  0  0  # atno 10764 bound_to 10752
  154.3324  135.6246  153.5611 H   0  0  0  0  0  0  0  0  0  0  0  0  # atno 10765 bound_to 10752
  140.4429  134.6415  157.4766 H   0  0  0  0  0  0  0  0  0  0  0  0  # atno 11005 bound_to 11000
  145.0030  139.3581  143.6158 LP  0  0  0  0  0  0  0  0  0  0  0  0  # atno 17320 bound_to 7965
  146.3434  139.9260  142.8760 LP  0  0  0  0  0  0  0  0  0  0  0  0  # atno 17321 bound_to 7965
  139.5036  144.3787  152.0398 LP  0  0  0  0  0  0  0  0  0  0  0  0  # atno 17342 bound_to 10162
  140.2905  144.3759  150.6090 LP  0  0  0  0  0  0  0  0  0  0  0  0  # atno 17343 bound_to 10162
  157.4652  130.7676  149.7272 LP  0  0  0  0  0  0  0  0  0  0  0  0  # atno 17370 bound_to 10713
  155.9877  130.3965  150.3153 LP  0  0  0  0  0  0  0  0  0  0  0  0  # atno 17371 bound_to 10713
  140.0058  134.6766  155.9458 LP  0  0  0  0  0  0  0  0  0  0  0  0  # atno 17394 bound_to 11000
  141.1698  133.6537  156.4609 LP  0  0  0  0  0  0  0  0  0  0  0  0  # atno 17395 bound_to 11000

$$$$
