AV-unprocessed.smi:2602|AV-procd|sdf|10184|dock4
  -GOLD-   2272014193D 1   1.00000     0.00000
 Structure written by MMmdl.
 46 47  0  0  0  0  0  0  0  0  1 V2000
  150.3132  141.4722  156.4471 C   0  0  0  0  0  0  0  0  0  0  0  0
  150.3755  141.0414  155.0903 O   0  0  0  0  0  0  0  0  0  0  0  0
  149.2174  140.7844  154.4382 C   0  0  0  0  0  0  0  0  0  0  0  0
  148.3358  141.7851  154.4630 N   0  0  0  0  0  0  0  0  0  0  0  0
  147.1630  141.5759  153.8300 C   0  0  0  0  0  0  0  0  0  0  0  0
  146.8784  140.3620  153.1725 C   0  0  0  0  0  0  0  0  0  0  0  0
  147.8765  139.3628  153.1999 C   0  0  0  0  0  0  0  0  0  0  0  0
  147.5608  138.1508  152.5311 N   0  0  0  0  0  0  0  0  0  0  0  0
  146.3431  137.6484  152.2631 C   0  0  0  0  0  0  0  0  0  0  0  0
  145.2741  138.1625  152.5929 O   0  0  0  0  0  0  0  0  0  0  0  0
  146.4331  136.5013  151.5738 N   0  0  0  0  0  0  0  0  0  0  0  0
  145.3073  135.7089  151.0769 C   0  0  0  0  0  0  0  0  0  0  0  0
  145.3894  134.2090  151.4991 C   0  0  0  0  0  0  0  0  0  0  0  0
  145.6891  134.0353  153.0268 C   0  0  0  0  0  0  0  0  0  0  0  0
  146.7132  133.4277  153.3500 O   0  0  0  0  0  0  0  0  0  0  0  0
  144.8518  134.5056  153.9912 N   0  0  0  0  0  0  0  0  0  0  0  0
  143.6709  135.2837  153.6026 C   0  0  0  0  0  0  0  0  0  0  0  0
  144.9728  134.3562  155.4450 C   0  0  0  0  0  0  0  0  0  0  0  0
  144.0466  133.5287  151.1087 C   0  0  0  0  0  0  0  0  0  0  0  0
  144.3252  132.0315  150.9437 C   0  0  0  0  0  0  0  0  0  0  0  0
  145.8153  131.9290  150.6130 C   0  0  0  0  0  0  0  0  0  0  0  0
  146.3601  133.3641  150.6358 C   0  0  0  0  0  0  0  0  0  0  0  0
  149.0469  139.5956  153.8430 N   0  0  0  0  0  0  0  0  0  0  0  0
  151.3239  141.6379  156.8197 H   0  0  0  0  0  0  0  0  0  0  0  0
  149.8448  140.7201  157.0842 H   0  0  0  0  0  0  0  0  0  0  0  0
  149.7676  142.4122  156.5437 H   0  0  0  0  0  0  0  0  0  0  0  0
  146.4447  142.3822  153.8476 H   0  0  0  0  0  0  0  0  0  0  0  0
  145.9337  140.2103  152.6713 H   0  0  0  0  0  0  0  0  0  0  0  0
  148.3513  137.6138  152.2069 H   0  0  0  0  0  0  0  0  0  0  0  0
  147.3557  136.1572  151.3510 H   0  0  0  0  0  0  0  0  0  0  0  0
  144.4050  136.1544  151.4966 H   0  0  0  0  0  0  0  0  0  0  0  0
  145.1927  135.8429  150.0041 H   0  0  0  0  0  0  0  0  0  0  0  0
  143.9574  136.1449  152.9967 H   0  0  0  0  0  0  0  0  0  0  0  0
  143.1228  135.6687  154.4637 H   0  0  0  0  0  0  0  0  0  0  0  0
  142.9806  134.6701  153.0219 H   0  0  0  0  0  0  0  0  0  0  0  0
  145.7132  133.6408  155.7854 H   0  0  0  0  0  0  0  0  0  0  0  0
  144.0216  134.0291  155.8666 H   0  0  0  0  0  0  0  0  0  0  0  0
  145.2184  135.3178  155.8961 H   0  0  0  0  0  0  0  0  0  0  0  0
  143.2324  133.7188  151.8095 H   0  0  0  0  0  0  0  0  0  0  0  0
  143.7048  133.9140  150.1467 H   0  0  0  0  0  0  0  0  0  0  0  0
  144.1130  131.4998  151.8720 H   0  0  0  0  0  0  0  0  0  0  0  0
  143.7005  131.5914  150.1658 H   0  0  0  0  0  0  0  0  0  0  0  0
  146.3183  131.3213  151.3662 H   0  0  0  0  0  0  0  0  0  0  0  0
  145.9867  131.4561  149.6455 H   0  0  0  0  0  0  0  0  0  0  0  0
  146.3778  133.7549  149.6175 H   0  0  0  0  0  0  0  0  0  0  0  0
  147.3914  133.3529  150.9813 H   0  0  0  0  0  0  0  0  0  0  0  0
  1  2  1  0  0  0  0
  1 24  1  0  0  0  0
  1 25  1  0  0  0  0
  1 26  1  0  0  0  0
  2  3  1  0  0  0  0
  3 23  1  0  0  0  0
  3  4  2  0  0  0  0
  4  5  1  0  0  0  0
  5  6  2  0  0  0  0
  5 27  1  0  0  0  0
  6  7  1  0  0  0  0
  6 28  1  0  0  0  0
  7  8  1  0  0  0  0
  7 23  2  0  0  0  0
  8  9  1  0  0  0  0
  8 29  1  0  0  0  0
  9 10  2  0  0  0  0
  9 11  1  0  0  0  0
 11 12  1  0  0  0  0
 11 30  1  0  0  0  0
 12 13  1  0  0  0  0
 12 31  1  0  0  0  0
 12 32  1  0  0  0  0
 13 22  1  0  0  0  0
 13 14  1  0  0  0  0
 13 19  1  0  0  0  0
 14 15  2  0  0  0  0
 14 16  1  0  0  0  0
 16 17  1  0  0  0  0
 16 18  1  0  0  0  0
 17 33  1  0  0  0  0
 17 34  1  0  0  0  0
 17 35  1  0  0  0  0
 18 36  1  0  0  0  0
 18 37  1  0  0  0  0
 18 38  1  0  0  0  0
 19 20  1  0  0  0  0
 19 39  1  0  0  0  0
 19 40  1  0  0  0  0
 20 21  1  0  0  0  0
 20 41  1  0  0  0  0
 20 42  1  0  0  0  0
 21 22  1  0  0  0  0
 21 43  1  0  0  0  0
 21 44  1  0  0  0  0
 22 45  1  0  0  0  0
 22 46  1  0  0  0  0
M  END
> <s_m_source_file>
AV-unprocessed.smi

> <i_m_source_file_index>
2602

> <i_lp_mmshare_version>
43012

> <i_f3d_flags>
0

> <s_epik_input>
W0NIM11PYzFuW2NIXVtjSF1jKG4xKVtOSF1DKD1PKVtOSF1bQ0gyXUMyKEMoPU8pTihbQ0gzXSlbQ0gzXSlbQ0gyXVtDSDJdW0NIMl1bQ0gyXTI=

> <s_epik_cmdline>
J2VwaWtfcHl0aG9uJywgJy1waCcsICc3LjAnLCAnLXRuJywgJzgnLCAnLW1hJywgJzIwMCcsICctbWV0YWxfYmluZGluZycsICctaW1hZScsICc8aW5maWxlLm1hZT4nLCAnLW9tYWUnLCAnPG91dGZpbGUubWFlPic=

> <r_lp_tautomer_probability>
1

> <r_epik_Ionization_Penalty>
0.00154328

> <r_epik_Ionization_Penalty_Charging>
0

> <r_epik_Ionization_Penalty_Neutral>
0.00154328

> <r_epik_State_Penalty>
-0

> <r_epik_Charging_Adjusted_Penalty>
0

> <i_epik_Tot_Q>
0

> <i_epik_Tot_abs_Q>
0

> <r_epik_Metal_State_Penalty>
-0

> <b_epik_Metal_Only>
0

> <s_lp_Force_Field>
OPLS_2005

> <r_lp_Energy>
36.1441

> <b_lp_Chiralities_Consistent>
1

> <s_lp_Variant>
AV-unprocessed.smi:2602-1

> <Gold.Version>
5.8.1

> <Gold.Id.Protein>
6NUR|6NUR_protein|mol2

> <Gold.PLP.Fitness>
39.9219

> <Gold.PLP.PLP>
-33.0724

> <Gold.PLP.part.hbond>
-3.5518

> <Gold.PLP.part.metal>
0.0000

> <Gold.PLP.part.buried>
-3.5920

> <Gold.PLP.part.nonpolar>
-31.5078

> <Gold.PLP.part.repulsive>
5.1058

> <Gold.PLP.ligand.clash>
0.0000

> <Gold.PLP.ligand.torsion>
0.4271

> <Gold.PLP.Chemscore.Hbond>
2.5049

> <Gold.PLP.Chemscore.CHOScore>
0.0000

> <Gold.PLP.Chemscore.Metal>
0.0000

> <Gold.Chemscore.Hbonds>
donor molecule, donor type, donor heavy atom, donor atom, acceptor molecule, acceptor atom, score
      L1  H     8    29       P1  7948  0.97
      L1  H    11    30       P1  7948  0.88
      P1  H  7989  7998       L1     2  0.63

> <Gold.PLP.Chemscore.Internal.Correction>
0.1892

> <Gold.Rescore>
     Score         DG    S(hbond)    S(metal)    S(lipo)     H(rot)  DE(clash)    DE(int)     intcor
     10.08     -14.14       1.87        0.00      62.38       1.91       0.67       3.39       ----

> <Gold.Chemscore.Fitness>
10.0783

> <Gold.Chemscore.DG>
-14.1391

> <Gold.Chemscore.ZeroCoef>
-5.4800

> <Gold.Chemscore.Hbond>
1.8692

> <Gold.Chemscore.Metal>
0.0000

> <Gold.Chemscore.Lipo>
62.3790

> <Gold.Chemscore.Internal_Hbond>
0.0000

> <Gold.Chemscore.DEClash>
0.6716

> <Gold.Chemscore.DEInternal>
3.3892

> <Gold.Chemscore.Rot>
1.9072

> <Gold.Chemscore.Internal.Correction>
   9.000000E+99

> <Gold.Chemscore.Hbonds>
donor molecule, donor type, donor heavy atom, donor atom, acceptor molecule, acceptor atom, score
      L1  H     8    29       P1  7948  0.86
      L1  H    11    30       P1  7948  0.86
      P1  H  7989  7998       L1     2  0.12

> <Gold.Chemscore.Hbond.Weighted>
-6.2431

> <Gold.Chemscore.Metal.Weighted>
-0.0000

> <Gold.Chemscore.Lipo.Weighted>
-7.2983

> <Gold.Chemscore.Internal_Hbond.Weighted>
0.0000

> <Gold.Chemscore.DEClash.Weighted>
0.6716

> <Gold.Chemscore.DEInternal.Weighted>
3.3892

> <Gold.Chemscore.Rot.Weighted>
4.8824

> <Gold.Chemscore.Internal.Correction.Weighted>
   9.000000E+99

> <Gold.Protein.RotatedTorsions>
[ 6907 6896 6895 6894 ] final  161.21 input  -60.11 | X-H torsion
[ 7974 7965 7964 7962 ] final  -61.56 input  175.53 | X-H torsion
[ 8008 7997 7996 7995 ] final  -53.10 input   59.86 | X-H torsion
[ 10167 10162 10161 10158 ] final  164.72 input  -65.29 | X-H torsion
[ 10718 10713 10712 10709 ] final   92.42 input   66.30 | X-H torsion
[ 10763 10752 10751 10750 ] final   54.11 input  -60.55 | X-H torsion
[ 11005 11000 10999 10996 ] final  -72.70 input  -57.11 | X-H torsion

> <Gold.Protein.ActiveResidues>
 VAL166  LYS551  ARG553  GLY616  TRP617  ASP618  TYR619  PRO620  LYS621  CYS622 
 ASP623  PHE694  ASN695  SER759  ASP760  ASP761  ALA762  ILE779  LEU786  VAL792 
 PHE793  MET794  SER795  GLU796  ALA797  LYS798  CYS799  TRP800  GLU811  SER814 

> <Gold.Protein.RotatedAtoms>
  151.9590  133.3689  159.4028 H   0  0  0  0  0  0  0  0  0  0  0  0  # atno 6907 bound_to 6896
  150.6967  134.4260  159.5236 H   0  0  0  0  0  0  0  0  0  0  0  0  # atno 6908 bound_to 6896
  152.1946  134.8642  160.0565 H   0  0  0  0  0  0  0  0  0  0  0  0  # atno 6909 bound_to 6896
  145.8019  140.8650  143.0227 H   0  0  0  0  0  0  0  0  0  0  0  0  # atno 7974 bound_to 7965
  154.4124  140.1208  156.5098 H   0  0  0  0  0  0  0  0  0  0  0  0  # atno 8008 bound_to 7997
  155.6810  140.3496  155.4836 H   0  0  0  0  0  0  0  0  0  0  0  0  # atno 8009 bound_to 7997
  155.9551  140.1112  157.0933 H   0  0  0  0  0  0  0  0  0  0  0  0  # atno 8010 bound_to 7997
  139.4893  144.4206  151.9191 H   0  0  0  0  0  0  0  0  0  0  0  0  # atno 10167 bound_to 10162
  157.6958  131.0443  150.3880 H   0  0  0  0  0  0  0  0  0  0  0  0  # atno 10718 bound_to 10713
  152.9801  135.5756  154.4851 H   0  0  0  0  0  0  0  0  0  0  0  0  # atno 10763 bound_to 10752
  154.4394  135.2775  155.1860 H   0  0  0  0  0  0  0  0  0  0  0  0  # atno 10764 bound_to 10752
  154.3534  135.6204  153.5708 H   0  0  0  0  0  0  0  0  0  0  0  0  # atno 10765 bound_to 10752
  141.1612  133.6855  156.7099 H   0  0  0  0  0  0  0  0  0  0  0  0  # atno 11005 bound_to 11000
  144.6767  140.0272  143.7483 LP  0  0  0  0  0  0  0  0  0  0  0  0  # atno 17320 bound_to 7965
  145.9868  139.2984  143.1008 LP  0  0  0  0  0  0  0  0  0  0  0  0  # atno 17321 bound_to 7965
  140.3650  144.2926  150.5928 LP  0  0  0  0  0  0  0  0  0  0  0  0  # atno 17342 bound_to 10162
  140.5369  143.2231  151.8148 LP  0  0  0  0  0  0  0  0  0  0  0  0  # atno 17343 bound_to 10162
  156.4286  130.3967  149.6776 LP  0  0  0  0  0  0  0  0  0  0  0  0  # atno 17370 bound_to 10713
  156.4001  130.7670  151.2677 LP  0  0  0  0  0  0  0  0  0  0  0  0  # atno 17371 bound_to 10713
  140.2895  134.8252  157.4004 LP  0  0  0  0  0  0  0  0  0  0  0  0  # atno 17394 bound_to 11000
  140.1359  134.5034  155.8068 LP  0  0  0  0  0  0  0  0  0  0  0  0  # atno 17395 bound_to 11000

$$$$
