AV-unprocessed.smi:1629|AV-procd|sdf|6523|dock4
  -GOLD-   22720 7203D 1   1.00000     0.00000
 Structure written by MMmdl.
 43 44  0  0  0  0  0  0  0  0  2 V2000
  151.6002  138.1164  156.7381 C   0  0  0  0  0  0  0  0  0  0  0  0
  152.2376  138.6312  155.0943 S   0  0  0  0  0  0  0  0  0  0  0  0
  153.6526  138.9774  155.3044 O   0  0  0  0  0  0  0  0  0  0  0  0
  151.9470  137.5118  154.1839 O   0  0  0  0  0  0  0  0  0  0  0  0
  151.3086  139.9297  154.8086 N   0  5  0  0  0  0  0  0  0  0  0  0
  149.8610  139.8267  154.9247 C   0  0  0  0  0  0  0  0  0  0  0  0
  149.3828  138.3683  154.6891 C   0  0  0  0  0  0  0  0  0  0  0  0
  147.8396  138.2427  154.5602 C   0  0  0  0  0  0  0  0  0  0  0  0
  147.3289  139.1126  153.4768 N   0  0  0  0  0  0  0  0  0  0  0  0
  146.7739  138.7166  152.3041 C   0  0  0  0  0  0  0  0  0  0  0  0
  146.4305  139.4997  151.4177 O   0  0  0  0  0  0  0  0  0  0  0  0
  146.6295  137.3891  152.1767 N   0  0  0  0  0  0  0  0  0  0  0  0
  146.0553  136.7117  151.0210 C   0  0  0  0  0  0  0  0  0  0  0  0
  144.7885  135.9277  151.4043 C   0  0  0  0  0  0  0  0  0  0  0  0
  144.8509  134.4576  151.0243 C   0  0  0  0  0  0  0  0  0  0  0  0
  143.7063  133.6372  151.1240 C   0  0  0  0  0  0  0  0  0  0  0  0
  143.8144  132.2858  150.7433 C   0  0  0  0  0  0  0  0  0  0  0  0
  145.0562  131.8087  150.2812 C   0  0  0  0  0  0  0  0  0  0  0  0
  146.1388  132.7085  150.2186 C   0  0  0  0  0  0  0  0  0  0  0  0
  146.0452  134.0066  150.5793 N   0  0  0  0  0  0  0  0  0  0  0  0
  147.6394  140.5228  153.7764 C   0  0  0  0  0  0  0  0  0  0  0  0
  149.1753  140.7408  153.8755 C   0  0  0  0  0  0  0  0  0  0  0  0
  152.1397  137.2311  157.0727 H   0  0  0  0  0  0  0  0  0  0  0  0
  150.5379  137.8872  156.6608 H   0  0  0  0  0  0  0  0  0  0  0  0
  151.7478  138.9244  157.4541 H   0  0  0  0  0  0  0  0  0  0  0  0
  149.5137  140.1428  155.9092 H   0  0  0  0  0  0  0  0  0  0  0  0
  149.8399  137.9746  153.7797 H   0  0  0  0  0  0  0  0  0  0  0  0
  149.7265  137.7292  155.5025 H   0  0  0  0  0  0  0  0  0  0  0  0
  147.5826  137.1918  154.4306 H   0  0  0  0  0  0  0  0  0  0  0  0
  147.3534  138.5283  155.4955 H   0  0  0  0  0  0  0  0  0  0  0  0
  146.9351  136.8063  152.9425 H   0  0  0  0  0  0  0  0  0  0  0  0
  145.8144  137.4593  150.2641 H   0  0  0  0  0  0  0  0  0  0  0  0
  146.7884  136.0345  150.5800 H   0  0  0  0  0  0  0  0  0  0  0  0
  144.6161  136.0108  152.4780 H   0  0  0  0  0  0  0  0  0  0  0  0
  143.9200  136.3810  150.9245 H   0  0  0  0  0  0  0  0  0  0  0  0
  142.7656  134.0339  151.4774 H   0  0  0  0  0  0  0  0  0  0  0  0
  142.9600  131.6278  150.8034 H   0  0  0  0  0  0  0  0  0  0  0  0
  145.1764  130.7783  149.9812 H   0  0  0  0  0  0  0  0  0  0  0  0
  147.1052  132.3770  149.8685 H   0  0  0  0  0  0  0  0  0  0  0  0
  147.2348  141.2009  153.0241 H   0  0  0  0  0  0  0  0  0  0  0  0
  147.1463  140.8059  154.7086 H   0  0  0  0  0  0  0  0  0  0  0  0
  149.3803  141.7860  154.1098 H   0  0  0  0  0  0  0  0  0  0  0  0
  149.6118  140.5600  152.8916 H   0  0  0  0  0  0  0  0  0  0  0  0
  1  2  1  0  0  0  0
  1 23  1  0  0  0  0
  1 24  1  0  0  0  0
  1 25  1  0  0  0  0
  2  3  2  0  0  0  0
  2  4  2  0  0  0  0
  2  5  1  0  0  0  0
  5  6  1  0  0  0  0
  6 22  1  0  0  0  0
  6  7  1  0  0  0  0
  6 26  1  0  0  0  0
  7  8  1  0  0  0  0
  7 27  1  0  0  0  0
  7 28  1  0  0  0  0
  8  9  1  0  0  0  0
  8 29  1  0  0  0  0
  8 30  1  0  0  0  0
  9 10  1  0  0  0  0
  9 21  1  0  0  0  0
 10 11  2  0  0  0  0
 10 12  1  0  0  0  0
 12 13  1  0  0  0  0
 12 31  1  0  0  0  0
 13 14  1  0  0  0  0
 13 32  1  0  0  0  0
 13 33  1  0  0  0  0
 14 15  1  0  0  0  0
 14 34  1  0  0  0  0
 14 35  1  0  0  0  0
 15 20  1  0  0  0  0
 15 16  2  0  0  0  0
 16 17  1  0  0  0  0
 16 36  1  0  0  0  0
 17 18  2  0  0  0  0
 17 37  1  0  0  0  0
 18 19  1  0  0  0  0
 18 38  1  0  0  0  0
 19 20  2  0  0  0  0
 19 39  1  0  0  0  0
 21 22  1  0  0  0  0
 21 40  1  0  0  0  0
 21 41  1  0  0  0  0
 22 42  1  0  0  0  0
 22 43  1  0  0  0  0
M  CHG  1   5  -1
M  END
> <s_m_source_file>
AV-unprocessed.smi

> <i_m_source_file_index>
1629

> <i_lp_mmshare_version>
43012

> <i_f3d_flags>
0

> <s_epik_input>
W0NIM11TKD1PKSg9TylbTkhdW0NIXTFbQ0gyXVtDSDJdTihbQ0gyXVtDSDJdMSlDKD1PKVtOSF1bQ0gyXVtDSDJdYzJbY0hdW2NIXVtjSF1bY0hdbjI=

> <s_epik_cmdline>
J2VwaWtfcHl0aG9uJywgJy1waCcsICc3LjAnLCAnLXRuJywgJzgnLCAnLW1hJywgJzIwMCcsICctbWV0YWxfYmluZGluZycsICctaW1hZScsICc8aW5maWxlLm1hZT4nLCAnLW9tYWUnLCAnPG91dGZpbGUubWFlPic=

> <r_epik_Ionization_Penalty>
6.75298

> <r_epik_Ionization_Penalty_Charging>
6.70803

> <r_epik_Ionization_Penalty_Neutral>
0.0449518

> <r_epik_State_Penalty>
6.74601

> <r_epik_Charging_Adjusted_Penalty>
13.454

> <i_epik_Tot_Q>
-1

> <i_epik_Tot_abs_Q>
1

> <r_epik_Metal_State_Penalty>
2.70902

> <b_epik_Metal_Only>
1

> <s_lp_Force_Field>
OPLS_2005

> <r_lp_Energy>
26.8071

> <b_lp_Chiralities_Consistent>
1

> <s_lp_Variant>
AV-unprocessed.smi:1629-3

> <Gold.Version>
5.8.1

> <Gold.Id.Protein>
6NUR|6NUR_protein|mol2

> <Gold.PLP.Fitness>
49.6640

> <Gold.PLP.PLP>
-39.9681

> <Gold.PLP.part.hbond>
-3.7045

> <Gold.PLP.part.metal>
0.0000

> <Gold.PLP.part.buried>
-0.1836

> <Gold.PLP.part.nonpolar>
-36.4514

> <Gold.PLP.part.repulsive>
1.5483

> <Gold.PLP.ligand.clash>
0.0000

> <Gold.PLP.ligand.torsion>
1.3501

> <Gold.PLP.Chemscore.Hbond>
2.8012

> <Gold.PLP.Chemscore.CHOScore>
1.0000

> <Gold.PLP.Chemscore.Metal>
0.0000

> <Gold.Chemscore.Hbonds>
donor molecule, donor type, donor heavy atom, donor atom, acceptor molecule, acceptor atom, score
      P1  H  7989  7998       L1     5  1.00
      P1  H  7997  8010       L1     3  0.94
      P1  H 10752 10765       L1     4  0.81
      L1  C    19    39       P1 10747  1.00

> <Gold.PLP.Chemscore.Internal.Correction>
0.9925

> <Gold.Rescore>
     Score         DG    S(hbond)    S(metal)    S(lipo)     H(rot)  DE(clash)    DE(int)     intcor
     14.84     -19.21       2.37        0.00      86.46       1.68       1.47       2.91       ----

> <Gold.Chemscore.Fitness>
14.8367

> <Gold.Chemscore.DG>
-19.2133

> <Gold.Chemscore.ZeroCoef>
-5.4800

> <Gold.Chemscore.Hbond>
2.3717

> <Gold.Chemscore.Metal>
0.0000

> <Gold.Chemscore.Lipo>
86.4617

> <Gold.Chemscore.Internal_Hbond>
0.0000

> <Gold.Chemscore.DEClash>
1.4688

> <Gold.Chemscore.DEInternal>
2.9078

> <Gold.Chemscore.Rot>
1.6813

> <Gold.Chemscore.Internal.Correction>
   9.000000E+99

> <Gold.Chemscore.Hbonds>
donor molecule, donor type, donor heavy atom, donor atom, acceptor molecule, acceptor atom, score
      P1  H  7989  7998       L1     5  0.62
      P1  H  7997  8010       L1     3  0.88
      P1  H 10752 10765       L1     4  0.76

> <Gold.Chemscore.Hbond.Weighted>
-7.9215

> <Gold.Chemscore.Metal.Weighted>
-0.0000

> <Gold.Chemscore.Lipo.Weighted>
-10.1160

> <Gold.Chemscore.Internal_Hbond.Weighted>
0.0000

> <Gold.Chemscore.DEClash.Weighted>
1.4688

> <Gold.Chemscore.DEInternal.Weighted>
2.9078

> <Gold.Chemscore.Rot.Weighted>
4.3042

> <Gold.Chemscore.Internal.Correction.Weighted>
   9.000000E+99

> <Gold.Protein.RotatedTorsions>
[ 6907 6896 6895 6894 ] final   -9.02 input  -60.11 | X-H torsion
[ 7974 7965 7964 7962 ] final  120.60 input  175.53 | X-H torsion
[ 8008 7997 7996 7995 ] final  109.13 input   59.86 | X-H torsion
[ 10167 10162 10161 10158 ] final  148.85 input  -65.29 | X-H torsion
[ 10718 10713 10712 10709 ] final   69.83 input   66.30 | X-H torsion
[ 10763 10752 10751 10750 ] final  158.49 input  -60.55 | X-H torsion
[ 11005 11000 10999 10996 ] final -135.78 input  -57.11 | X-H torsion

> <Gold.Protein.ActiveResidues>
 VAL166  LYS551  ARG553  GLY616  TRP617  ASP618  TYR619  PRO620  LYS621  CYS622 
 ASP623  PHE694  ASN695  SER759  ASP760  ASP761  ALA762  ILE779  LEU786  VAL792 
 PHE793  MET794  SER795  GLU796  ALA797  LYS798  CYS799  TRP800  GLU811  SER814 

> <Gold.Protein.RotatedAtoms>
  151.4244  135.1002  159.9623 H   0  0  0  0  0  0  0  0  0  0  0  0  # atno 6907 bound_to 6896
  152.4977  133.8677  159.7293 H   0  0  0  0  0  0  0  0  0  0  0  0  # atno 6908 bound_to 6896
  150.9200  133.6834  159.2862 H   0  0  0  0  0  0  0  0  0  0  0  0  # atno 6909 bound_to 6896
  145.1293  139.3338  143.4673 H   0  0  0  0  0  0  0  0  0  0  0  0  # atno 7974 bound_to 7965
  156.1956  140.3063  155.9420 H   0  0  0  0  0  0  0  0  0  0  0  0  # atno 8008 bound_to 7997
  155.3074  140.0449  157.3050 H   0  0  0  0  0  0  0  0  0  0  0  0  # atno 8009 bound_to 7997
  154.5505  140.2290  155.8501 H   0  0  0  0  0  0  0  0  0  0  0  0  # atno 8010 bound_to 7997
  139.4869  144.5647  151.7166 H   0  0  0  0  0  0  0  0  0  0  0  0  # atno 10167 bound_to 10162
  157.6367  130.9446  150.0568 H   0  0  0  0  0  0  0  0  0  0  0  0  # atno 10718 bound_to 10713
  154.2168  135.2783  155.2939 H   0  0  0  0  0  0  0  0  0  0  0  0  # atno 10763 bound_to 10752
  154.5734  135.5611  153.7119 H   0  0  0  0  0  0  0  0  0  0  0  0  # atno 10764 bound_to 10752
  153.0051  135.6327  154.2308 H   0  0  0  0  0  0  0  0  0  0  0  0  # atno 10765 bound_to 10752
  140.8866  134.1864  157.4556 H   0  0  0  0  0  0  0  0  0  0  0  0  # atno 11005 bound_to 11000
  146.3515  140.1285  142.8598 LP  0  0  0  0  0  0  0  0  0  0  0  0  # atno 17320 bound_to 7965
  145.0653  140.9117  143.4914 LP  0  0  0  0  0  0  0  0  0  0  0  0  # atno 17321 bound_to 7965
  140.5224  144.0859  150.6026 LP  0  0  0  0  0  0  0  0  0  0  0  0  # atno 17342 bound_to 10162
  140.3821  143.2797  152.0158 LP  0  0  0  0  0  0  0  0  0  0  0  0  # atno 17343 bound_to 10162
  156.1613  130.3644  149.9296 LP  0  0  0  0  0  0  0  0  0  0  0  0  # atno 17370 bound_to 10713
  156.7293  130.9037  151.3624 LP  0  0  0  0  0  0  0  0  0  0  0  0  # atno 17371 bound_to 10713
  139.8725  134.9840  156.5223 LP  0  0  0  0  0  0  0  0  0  0  0  0  # atno 17394 bound_to 11000
  140.8397  133.8214  155.9063 LP  0  0  0  0  0  0  0  0  0  0  0  0  # atno 17395 bound_to 11000

$$$$
