AV-unprocessed.smi:529|AV-procd|sdf|2840|dock8
  -GOLD-   2262023333D 1   1.00000     0.00000
 Structure written by MMmdl.
 30 31  0  0  0  0  0  0  0  0  1 V2000
  152.8417  139.3985  156.6088 N   0  0  0  0  0  0  0  0  0  0  0  0
  151.8942  139.2836  155.7459 C   0  0  0  0  0  0  0  0  0  0  0  0
  151.9794  138.4042  154.1465 S   0  0  0  0  0  0  0  0  0  0  0  0
  150.3069  138.8197  153.8389 C   0  0  0  0  0  0  0  0  0  0  0  0
  149.7766  139.5353  154.8292 C   0  0  0  0  0  0  0  0  0  0  0  0
  150.6121  139.8194  155.8901 N   0  0  0  0  0  0  0  0  0  0  0  0
  150.1596  140.5632  157.0665 C   0  0  0  0  0  0  0  0  0  0  0  0
  150.9235  141.8753  157.2924 C   0  0  0  0  0  0  0  0  0  0  0  0
  150.8968  142.7804  156.4572 O   0  0  0  0  0  0  0  0  0  0  0  0
  151.6170  141.9561  158.4378 N   0  0  0  0  0  0  0  0  0  0  0  0
  152.4145  143.1062  158.8551 C   0  0  0  0  0  0  0  0  0  0  0  0
  152.6502  143.1175  160.3803 C   0  0  0  0  0  0  0  0  0  0  0  0
  152.2800  144.5230  160.8570 C   0  0  0  0  0  0  0  0  0  0  0  0
  151.2166  144.9883  159.8676 C   0  0  0  0  0  0  0  0  0  0  0  0
  151.6828  144.4207  158.5268 C   0  0  0  0  0  0  0  0  0  0  0  0
  152.5273  139.9316  157.4062 H   0  0  0  0  0  0  0  0  0  0  0  0
  149.8086  138.5039  152.9343 H   0  0  0  0  0  0  0  0  0  0  0  0
  148.7641  139.9087  154.8788 H   0  0  0  0  0  0  0  0  0  0  0  0
  149.0916  140.7732  156.9914 H   0  0  0  0  0  0  0  0  0  0  0  0
  150.2798  139.9393  157.9533 H   0  0  0  0  0  0  0  0  0  0  0  0
  151.5909  141.1667  159.0669 H   0  0  0  0  0  0  0  0  0  0  0  0
  153.3687  143.0936  158.3253 H   0  0  0  0  0  0  0  0  0  0  0  0
  152.0015  142.3936  160.8764 H   0  0  0  0  0  0  0  0  0  0  0  0
  153.6770  142.8568  160.6387 H   0  0  0  0  0  0  0  0  0  0  0  0
  151.9303  144.5377  161.8897 H   0  0  0  0  0  0  0  0  0  0  0  0
  153.1518  145.1753  160.7908 H   0  0  0  0  0  0  0  0  0  0  0  0
  150.2515  144.5561  160.1355 H   0  0  0  0  0  0  0  0  0  0  0  0
  151.1040  146.0724  159.8488 H   0  0  0  0  0  0  0  0  0  0  0  0
  152.3867  145.1179  158.0705 H   0  0  0  0  0  0  0  0  0  0  0  0
  150.8577  144.2955  157.8243 H   0  0  0  0  0  0  0  0  0  0  0  0
  1  2  2  0  0  0  0
  1 16  1  0  0  0  0
  2  6  1  0  0  0  0
  2  3  1  0  0  0  0
  3  4  1  0  0  0  0
  4  5  2  0  0  0  0
  4 17  1  0  0  0  0
  5  6  1  0  0  0  0
  5 18  1  0  0  0  0
  6  7  1  0  0  0  0
  7  8  1  0  0  0  0
  7 19  1  0  0  0  0
  7 20  1  0  0  0  0
  8  9  2  0  0  0  0
  8 10  1  0  0  0  0
 10 11  1  0  0  0  0
 10 21  1  0  0  0  0
 11 15  1  0  0  0  0
 11 12  1  0  0  0  0
 11 22  1  0  0  0  0
 12 13  1  0  0  0  0
 12 23  1  0  0  0  0
 12 24  1  0  0  0  0
 13 14  1  0  0  0  0
 13 25  1  0  0  0  0
 13 26  1  0  0  0  0
 14 15  1  0  0  0  0
 14 27  1  0  0  0  0
 14 28  1  0  0  0  0
 15 29  1  0  0  0  0
 15 30  1  0  0  0  0
M  END
> <s_m_source_file>
AV-unprocessed.smi

> <i_m_source_file_index>
529

> <i_lp_mmshare_version>
43012

> <i_f3d_flags>
0

> <s_epik_input>
W0hdL049YzFcc1tjSF1bY0hdbjFbQ0gyXUMoPU8pW05IXVtDSF0yW0NIMl1bQ0gyXVtDSDJdW0NIMl0y

> <s_epik_cmdline>
J2VwaWtfcHl0aG9uJywgJy1waCcsICc3LjAnLCAnLXRuJywgJzgnLCAnLW1hJywgJzIwMCcsICctbWV0YWxfYmluZGluZycsICctaW1hZScsICc8aW5maWxlLm1hZT4nLCAnLW9tYWUnLCAnPG91dGZpbGUubWFlPic=

> <r_epik_Ionization_Penalty>
2.18041

> <r_epik_Ionization_Penalty_Charging>
2.18041

> <r_epik_Ionization_Penalty_Neutral>
1.25369e-07

> <r_epik_State_Penalty>
2.33404

> <r_epik_Charging_Adjusted_Penalty>
4.51444

> <i_epik_Tot_Q>
0

> <i_epik_Tot_abs_Q>
0

> <r_epik_Metal_State_Penalty>
2.33404

> <b_epik_Metal_Only>
0

> <s_lp_Force_Field>
OPLS_2005

> <r_lp_Energy>
15.3577

> <b_lp_Chiralities_Consistent>
1

> <s_lp_Variant>
AV-unprocessed.smi:529-2

> <Gold.Version>
5.8.1

> <Gold.Id.Protein>
6NUR|6NUR_protein|mol2

> <Gold.PLP.Fitness>
42.9863

> <Gold.PLP.PLP>
-35.3607

> <Gold.PLP.part.hbond>
-1.0000

> <Gold.PLP.part.metal>
0.0000

> <Gold.PLP.part.buried>
-4.2439

> <Gold.PLP.part.nonpolar>
-30.6872

> <Gold.PLP.part.repulsive>
0.9750

> <Gold.PLP.ligand.clash>
0.0000

> <Gold.PLP.ligand.torsion>
0.2916

> <Gold.PLP.Chemscore.Hbond>
1.0000

> <Gold.PLP.Chemscore.CHOScore>
1.7341

> <Gold.PLP.Chemscore.Metal>
0.0000

> <Gold.Chemscore.Hbonds>
donor molecule, donor type, donor heavy atom, donor atom, acceptor molecule, acceptor atom, score
      P1  H  7997  8008       L1     1  1.00
      L1  C     4    17       P1  7948  0.81
      L1  C     4    17       P1  7957  0.79

> <Gold.PLP.Chemscore.Internal.Correction>
0.0066

> <Gold.Rescore>
     Score         DG    S(hbond)    S(metal)    S(lipo)     H(rot)  DE(clash)    DE(int)     intcor
     12.19     -13.89       0.64        0.00      87.79       1.56       0.27       1.43       ----

> <Gold.Chemscore.Fitness>
12.1934

> <Gold.Chemscore.DG>
-13.8945

> <Gold.Chemscore.ZeroCoef>
-5.4800

> <Gold.Chemscore.Hbond>
0.6423

> <Gold.Chemscore.Metal>
0.0000

> <Gold.Chemscore.Lipo>
87.7923

> <Gold.Chemscore.Internal_Hbond>
0.0000

> <Gold.Chemscore.DEClash>
0.2692

> <Gold.Chemscore.DEInternal>
1.4320

> <Gold.Chemscore.Rot>
1.5635

> <Gold.Chemscore.Internal.Correction>
   9.000000E+99

> <Gold.Chemscore.Hbonds>
donor molecule, donor type, donor heavy atom, donor atom, acceptor molecule, acceptor atom, score
      P1  H  7997  8008       L1     1  0.30

> <Gold.Chemscore.Hbond.Weighted>
-2.1454

> <Gold.Chemscore.Metal.Weighted>
-0.0000

> <Gold.Chemscore.Lipo.Weighted>
-10.2717

> <Gold.Chemscore.Internal_Hbond.Weighted>
0.0000

> <Gold.Chemscore.DEClash.Weighted>
0.2692

> <Gold.Chemscore.DEInternal.Weighted>
1.4320

> <Gold.Chemscore.Rot.Weighted>
4.0025

> <Gold.Chemscore.Internal.Correction.Weighted>
   9.000000E+99

> <Gold.Protein.RotatedTorsions>
[ 6907 6896 6895 6894 ] final -136.14 input  -60.11 | X-H torsion
[ 7974 7965 7964 7962 ] final  133.98 input  175.53 | X-H torsion
[ 8008 7997 7996 7995 ] final  -40.49 input   59.86 | X-H torsion
[ 10167 10162 10161 10158 ] final  -14.08 input  -65.29 | X-H torsion
[ 10718 10713 10712 10709 ] final   57.96 input   66.30 | X-H torsion
[ 10763 10752 10751 10750 ] final -156.75 input  -60.55 | X-H torsion
[ 11005 11000 10999 10996 ] final -147.61 input  -57.11 | X-H torsion

> <Gold.Protein.ActiveResidues>
 VAL166  LYS551  ARG553  GLY616  TRP617  ASP618  TYR619  PRO620  LYS621  CYS622 
 ASP623  PHE694  ASN695  SER759  ASP760  ASP761  ALA762  ILE779  LEU786  VAL792 
 PHE793  MET794  SER795  GLU796  ALA797  LYS798  CYS799  TRP800  GLU811  SER814 

> <Gold.Protein.RotatedAtoms>
  151.0064  133.6007  159.2688 H   0  0  0  0  0  0  0  0  0  0  0  0  # atno 6907 bound_to 6896
  151.3175  135.0809  159.9304 H   0  0  0  0  0  0  0  0  0  0  0  0  # atno 6908 bound_to 6896
  152.5288  133.9717  159.7819 H   0  0  0  0  0  0  0  0  0  0  0  0  # atno 6909 bound_to 6896
  144.9810  139.4505  143.5386 H   0  0  0  0  0  0  0  0  0  0  0  0  # atno 7974 bound_to 7965
  154.4012  140.1524  156.3035 H   0  0  0  0  0  0  0  0  0  0  0  0  # atno 8008 bound_to 7997
  155.8679  140.3450  155.5779 H   0  0  0  0  0  0  0  0  0  0  0  0  # atno 8009 bound_to 7997
  155.7807  140.0843  157.2051 H   0  0  0  0  0  0  0  0  0  0  0  0  # atno 8010 bound_to 7997
  140.7194  143.5359  150.9465 H   0  0  0  0  0  0  0  0  0  0  0  0  # atno 10167 bound_to 10162
  157.5557  130.8799  149.9033 H   0  0  0  0  0  0  0  0  0  0  0  0  # atno 10718 bound_to 10713
  154.7689  135.3139  154.8230 H   0  0  0  0  0  0  0  0  0  0  0  0  # atno 10763 bound_to 10752
  153.8971  135.6819  153.4761 H   0  0  0  0  0  0  0  0  0  0  0  0  # atno 10764 bound_to 10752
  153.1299  135.4784  154.9266 H   0  0  0  0  0  0  0  0  0  0  0  0  # atno 10765 bound_to 10752
  140.7698  134.3202  157.5078 H   0  0  0  0  0  0  0  0  0  0  0  0  # atno 11005 bound_to 11000
  146.3408  139.9082  142.8784 LP  0  0  0  0  0  0  0  0  0  0  0  0  # atno 17320 bound_to 7965
  145.2421  141.0013  143.3929 LP  0  0  0  0  0  0  0  0  0  0  0  0  # atno 17321 bound_to 7965
  139.9081  143.6754  152.3120 LP  0  0  0  0  0  0  0  0  0  0  0  0  # atno 17342 bound_to 10162
  139.7127  144.7617  151.1085 LP  0  0  0  0  0  0  0  0  0  0  0  0  # atno 17343 bound_to 10162
  156.0617  130.3699  150.0968 LP  0  0  0  0  0  0  0  0  0  0  0  0  # atno 17370 bound_to 10713
  156.9137  130.9660  151.3559 LP  0  0  0  0  0  0  0  0  0  0  0  0  # atno 17371 bound_to 10713
  139.8757  134.9254  156.3373 LP  0  0  0  0  0  0  0  0  0  0  0  0  # atno 17394 bound_to 11000
  140.9584  133.7404  156.0368 LP  0  0  0  0  0  0  0  0  0  0  0  0  # atno 17395 bound_to 11000

$$$$
