AV-unprocessed.smi:2091|AV-procd|sdf|8541|dock3
  -GOLD-   2272011263D 1   1.00000     0.00000
 Structure written by MMmdl.
 35 36  0  0  0  0  0  0  0  0  2 V2000
  149.2150  141.2227  157.9628 O   0  0  0  0  0  0  0  0  0  0  0  0
  150.2993  141.0724  157.3977 C   0  0  0  0  0  0  0  0  0  0  0  0
  151.6146  141.3319  158.1442 C   0  0  0  0  0  0  0  0  0  0  0  0
  151.7128  142.7011  158.6751 N   0  0  0  0  0  0  0  0  0  0  0  0
  151.0968  143.7324  157.9443 C   0  0  0  0  0  0  0  0  0  0  0  0
  151.1347  145.0145  158.3545 C   0  0  0  0  0  0  0  0  0  0  0  0
  151.8383  145.3223  159.5935 C   0  0  0  0  0  0  0  0  0  0  0  0
  151.8778  146.4867  159.9865 O   0  0  0  0  0  0  0  0  0  0  0  0
  152.4252  144.2879  160.2638 N   0  5  0  0  0  0  0  0  0  0  0  0
  152.3811  142.9888  159.8328 C   0  0  0  0  0  0  0  0  0  0  0  0
  152.9201  142.0704  160.4518 O   0  0  0  0  0  0  0  0  0  0  0  0
  150.4154  140.6524  156.1279 N   0  0  0  0  0  0  0  0  0  0  0  0
  149.3021  140.3261  155.2341 C   0  0  1  0  0  0  0  0  0  0  0  0
  148.9321  141.6136  154.4623 C   0  0  0  0  0  0  0  0  0  0  0  0
  147.4979  141.6138  153.9048 C   0  0  0  0  0  0  0  0  0  0  0  0
  147.2212  140.5570  152.8248 C   0  0  0  0  0  0  0  0  0  0  0  0
  147.3806  139.1096  153.3204 C   0  0  0  0  0  0  0  0  0  0  0  0
  148.7795  138.7120  153.4106 N   0  0  0  0  0  0  0  0  0  0  0  0
  149.7132  139.2292  154.2238 C   0  0  0  0  0  0  0  0  0  0  0  0
  150.8785  138.8372  154.1594 O   0  0  0  0  0  0  0  0  0  0  0  0
  151.6935  140.6028  158.9516 H   0  0  0  0  0  0  0  0  0  0  0  0
  152.4617  141.1238  157.4875 H   0  0  0  0  0  0  0  0  0  0  0  0
  150.6027  143.4209  157.0359 H   0  0  0  0  0  0  0  0  0  0  0  0
  150.6587  145.7953  157.7800 H   0  0  0  0  0  0  0  0  0  0  0  0
  151.3459  140.5470  155.7510 H   0  0  0  0  0  0  0  0  0  0  0  0
  148.4531  139.9886  155.8313 H   0  0  0  0  0  0  0  0  0  0  0  0
  149.0098  142.4669  155.1377 H   0  0  0  0  0  0  0  0  0  0  0  0
  149.6485  141.8100  153.6625 H   0  0  0  0  0  0  0  0  0  0  0  0
  146.7912  141.4870  154.7258 H   0  0  0  0  0  0  0  0  0  0  0  0
  147.2896  142.5984  153.4853 H   0  0  0  0  0  0  0  0  0  0  0  0
  146.1966  140.6912  152.4762 H   0  0  0  0  0  0  0  0  0  0  0  0
  147.8569  140.7298  151.9554 H   0  0  0  0  0  0  0  0  0  0  0  0
  146.8772  138.9605  154.2767 H   0  0  0  0  0  0  0  0  0  0  0  0
  146.9004  138.4339  152.6125 H   0  0  0  0  0  0  0  0  0  0  0  0
  149.0790  137.9899  152.7713 H   0  0  0  0  0  0  0  0  0  0  0  0
  1  2  2  0  0  0  0
  2  3  1  0  0  0  0
  2 12  1  0  0  0  0
  3  4  1  0  0  0  0
  3 21  1  0  0  0  0
  3 22  1  0  0  0  0
  4 10  1  0  0  0  0
  4  5  1  0  0  0  0
  5  6  2  0  0  0  0
  5 23  1  0  0  0  0
  6  7  1  0  0  0  0
  6 24  1  0  0  0  0
  7  8  2  0  0  0  0
  7  9  1  0  0  0  0
  9 10  1  0  0  0  0
 10 11  2  0  0  0  0
 12 13  1  0  0  0  0
 12 25  1  0  0  0  0
 13 19  1  0  0  0  0
 13 14  1  0  0  0  0
 13 26  1  0  0  0  0
 14 15  1  0  0  0  0
 14 27  1  0  0  0  0
 14 28  1  0  0  0  0
 15 16  1  0  0  0  0
 15 29  1  0  0  0  0
 15 30  1  0  0  0  0
 16 17  1  0  0  0  0
 16 31  1  0  0  0  0
 16 32  1  0  0  0  0
 17 18  1  0  0  0  0
 17 33  1  0  0  0  0
 17 34  1  0  0  0  0
 18 19  1  0  0  0  0
 18 35  1  0  0  0  0
 19 20  2  0  0  0  0
M  CHG  1   9  -1
M  END
> <s_m_source_file>
AV-unprocessed.smi

> <i_m_source_file_index>
2091

> <i_lp_mmshare_version>
43012

> <i_f3d_flags>
0

> <s_epik_input>
Tz1jMVtuSF1jKD1PKVtjSF1bY0hdbjFbQ0gyXUMoPU8pW05IXVtDQEBIXTJbQ0gyXVtDSDJdW0NIMl1bQ0gyXVtOSF1DMj1P

> <s_epik_cmdline>
J2VwaWtfcHl0aG9uJywgJy1waCcsICc3LjAnLCAnLXRuJywgJzgnLCAnLW1hJywgJzIwMCcsICctbWV0YWxfYmluZGluZycsICctaW1hZScsICc8aW5maWxlLm1hZT4nLCAnLW9tYWUnLCAnPG91dGZpbGUubWFlPic=

> <r_lp_tautomer_probability>
0.999537

> <r_epik_Ionization_Penalty>
3.03155

> <r_epik_Ionization_Penalty_Charging>
2.38195e-08

> <r_epik_Ionization_Penalty_Neutral>
3.03155

> <r_epik_State_Penalty>
3.03052

> <r_epik_Charging_Adjusted_Penalty>
3.03052

> <i_epik_Tot_Q>
-1

> <i_epik_Tot_abs_Q>
1

> <r_epik_Metal_State_Penalty>
0.455936

> <b_epik_Metal_Only>
1

> <s_lp_Force_Field>
OPLS_2005

> <r_lp_Energy>
21.0556

> <b_lp_Chiralities_Consistent>
1

> <s_lp_Variant>
AV-unprocessed.smi:2091-4

> <Gold.Version>
5.8.1

> <Gold.Id.Protein>
6NUR|6NUR_protein|mol2

> <Gold.PLP.Fitness>
46.7618

> <Gold.PLP.PLP>
-39.6720

> <Gold.PLP.part.hbond>
-5.0000

> <Gold.PLP.part.metal>
0.0000

> <Gold.PLP.part.buried>
-0.4450

> <Gold.PLP.part.nonpolar>
-33.1199

> <Gold.PLP.part.repulsive>
0.7053

> <Gold.PLP.ligand.clash>
0.0000

> <Gold.PLP.ligand.torsion>
0.7504

> <Gold.PLP.Chemscore.Hbond>
1.8688

> <Gold.PLP.Chemscore.CHOScore>
0.9941

> <Gold.PLP.Chemscore.Metal>
0.0000

> <Gold.Chemscore.Hbonds>
donor molecule, donor type, donor heavy atom, donor atom, acceptor molecule, acceptor atom, score
      L1  H    18    35       P1  7948  1.00
      P1  H  7989  7998       L1    20  0.29
      L1  C     5    23       P1  8028  0.91

> <Gold.PLP.Chemscore.Internal.Correction>
0.0021

> <Gold.Rescore>
     Score         DG    S(hbond)    S(metal)    S(lipo)     H(rot)  DE(clash)    DE(int)     intcor
     10.94     -11.42       0.97        0.00      63.51       1.85       0.03       0.45       ----

> <Gold.Chemscore.Fitness>
10.9378

> <Gold.Chemscore.DG>
-11.4209

> <Gold.Chemscore.ZeroCoef>
-5.4800

> <Gold.Chemscore.Hbond>
0.9733

> <Gold.Chemscore.Metal>
0.0000

> <Gold.Chemscore.Lipo>
63.5112

> <Gold.Chemscore.Internal_Hbond>
0.0000

> <Gold.Chemscore.DEClash>
0.0285

> <Gold.Chemscore.DEInternal>
0.4546

> <Gold.Chemscore.Rot>
1.8519

> <Gold.Chemscore.Internal.Correction>
   9.000000E+99

> <Gold.Chemscore.Hbonds>
donor molecule, donor type, donor heavy atom, donor atom, acceptor molecule, acceptor atom, score
      L1  H    18    35       P1  7948  0.97
      P1  H  7989  7998       L1    20  0.02

> <Gold.Chemscore.Hbond.Weighted>
-3.2509

> <Gold.Chemscore.Metal.Weighted>
-0.0000

> <Gold.Chemscore.Lipo.Weighted>
-7.4308

> <Gold.Chemscore.Internal_Hbond.Weighted>
0.0000

> <Gold.Chemscore.DEClash.Weighted>
0.0285

> <Gold.Chemscore.DEInternal.Weighted>
0.4546

> <Gold.Chemscore.Rot.Weighted>
4.7408

> <Gold.Chemscore.Internal.Correction.Weighted>
   9.000000E+99

> <Gold.Protein.RotatedTorsions>
[ 6907 6896 6895 6894 ] final  -41.46 input  -60.11 | X-H torsion
[ 7974 7965 7964 7962 ] final   55.25 input  175.53 | X-H torsion
[ 8008 7997 7996 7995 ] final   63.38 input   59.86 | X-H torsion
[ 10167 10162 10161 10158 ] final   -8.70 input  -65.29 | X-H torsion
[ 10718 10713 10712 10709 ] final   26.73 input   66.30 | X-H torsion
[ 10763 10752 10751 10750 ] final   46.77 input  -60.55 | X-H torsion
[ 11005 11000 10999 10996 ] final  112.72 input  -57.11 | X-H torsion

> <Gold.Protein.ActiveResidues>
 VAL166  LYS551  ARG553  GLY616  TRP617  ASP618  TYR619  PRO620  LYS621  CYS622 
 ASP623  PHE694  ASN695  SER759  ASP760  ASP761  ALA762  ILE779  LEU786  VAL792 
 PHE793  MET794  SER795  GLU796  ALA797  LYS798  CYS799  TRP800  GLU811  SER814 

> <Gold.Protein.RotatedAtoms>
  150.9665  134.9045  159.7762 H   0  0  0  0  0  0  0  0  0  0  0  0  # atno 6907 bound_to 6896
  152.5175  134.3600  159.9291 H   0  0  0  0  0  0  0  0  0  0  0  0  # atno 6908 bound_to 6896
  151.3610  133.3849  159.2724 H   0  0  0  0  0  0  0  0  0  0  0  0  # atno 6909 bound_to 6896
  145.9523  139.3983  143.0298 H   0  0  0  0  0  0  0  0  0  0  0  0  # atno 7974 bound_to 7965
  155.6292  140.3496  155.4677 H   0  0  0  0  0  0  0  0  0  0  0  0  # atno 8008 bound_to 7997
  156.0017  140.1214  157.0565 H   0  0  0  0  0  0  0  0  0  0  0  0  # atno 8009 bound_to 7997
  154.4251  140.1099  156.5692 H   0  0  0  0  0  0  0  0  0  0  0  0  # atno 8010 bound_to 7997
  140.7066  143.5940  150.8865 H   0  0  0  0  0  0  0  0  0  0  0  0  # atno 10167 bound_to 10162
  157.2108  130.6933  149.6227 H   0  0  0  0  0  0  0  0  0  0  0  0  # atno 10718 bound_to 10713
  152.9807  135.5997  154.3653 H   0  0  0  0  0  0  0  0  0  0  0  0  # atno 10763 bound_to 10752
  154.3332  135.2768  155.2463 H   0  0  0  0  0  0  0  0  0  0  0  0  # atno 10764 bound_to 10752
  154.4578  135.5973  153.6290 H   0  0  0  0  0  0  0  0  0  0  0  0  # atno 10765 bound_to 10752
  139.8934  134.9535  156.6628 H   0  0  0  0  0  0  0  0  0  0  0  0  # atno 11005 bound_to 11000
  145.8154  140.9705  143.0927 LP  0  0  0  0  0  0  0  0  0  0  0  0  # atno 17320 bound_to 7965
  144.6798  139.9973  143.7484 LP  0  0  0  0  0  0  0  0  0  0  0  0  # atno 17321 bound_to 7965
  139.9665  143.6105  152.2987 LP  0  0  0  0  0  0  0  0  0  0  0  0  # atno 17342 bound_to 10162
  139.6676  144.7662  151.1843 LP  0  0  0  0  0  0  0  0  0  0  0  0  # atno 17343 bound_to 10162
  155.9691  130.4552  150.5878 LP  0  0  0  0  0  0  0  0  0  0  0  0  # atno 17370 bound_to 10713
  157.3674  131.0760  151.1586 LP  0  0  0  0  0  0  0  0  0  0  0  0  # atno 17371 bound_to 10713
  140.7433  133.8959  155.8294 LP  0  0  0  0  0  0  0  0  0  0  0  0  # atno 17394 bound_to 11000
  141.0060  134.1086  157.4270 LP  0  0  0  0  0  0  0  0  0  0  0  0  # atno 17395 bound_to 11000

$$$$
