AV-unprocessed.smi:2948|AV-procd|sdf|11284|dock3
  -GOLD-   2272016173D 1   1.00000     0.00000
 Structure written by MMmdl.
 33 34  0  0  0  0  0  0  0  0  2 V2000
  150.1775  135.7854  155.1540 C   0  0  0  0  0  0  0  0  0  0  0  0
  150.6532  137.2088  154.8563 C   0  0  0  0  0  0  0  0  0  0  0  0
  152.0165  137.3169  155.2258 O   0  0  0  0  0  0  0  0  0  0  0  0
  152.3995  138.6434  155.5494 C   0  0  0  0  0  0  0  0  0  0  0  0
  151.6668  139.0995  156.8196 C   0  0  0  0  0  0  0  0  0  0  0  0
  151.2194  140.4979  156.7327 N   0  0  0  0  0  0  0  0  0  0  0  0
  150.3649  141.0937  155.8522 C   0  0  0  0  0  0  0  0  0  0  0  0
  149.6427  140.4401  154.7210 C   0  0  0  0  0  0  0  0  0  0  0  0
  149.0846  141.3788  153.8289 O   0  0  0  0  0  0  0  0  0  0  0  0
  150.2814  142.4094  156.1974 N   0  3  0  0  0  0  0  0  0  0  0  0
  151.0956  142.6607  157.3022 C   0  0  0  0  0  0  0  0  0  0  0  0
  151.3415  143.8372  158.0033 C   0  0  0  0  0  0  0  0  0  0  0  0
  152.2378  143.7516  159.0889 C   0  0  0  0  0  0  0  0  0  0  0  0
  152.8502  142.5312  159.4406 C   0  0  0  0  0  0  0  0  0  0  0  0
  152.5914  141.3445  158.7235 C   0  0  0  0  0  0  0  0  0  0  0  0
  151.7031  141.4373  157.6517 C   0  0  0  0  0  0  0  0  0  0  0  0
  149.1292  135.6596  154.8826 H   0  0  0  0  0  0  0  0  0  0  0  0
  150.2797  135.5525  156.2141 H   0  0  0  0  0  0  0  0  0  0  0  0
  150.7591  135.0539  154.5925 H   0  0  0  0  0  0  0  0  0  0  0  0
  150.5314  137.4259  153.7941 H   0  0  0  0  0  0  0  0  0  0  0  0
  150.0529  137.9292  155.4136 H   0  0  0  0  0  0  0  0  0  0  0  0
  153.4779  138.6906  155.7084 H   0  0  0  0  0  0  0  0  0  0  0  0
  152.1620  139.3135  154.7221 H   0  0  0  0  0  0  0  0  0  0  0  0
  150.7862  138.4784  156.9867 H   0  0  0  0  0  0  0  0  0  0  0  0
  152.2967  138.9780  157.7007 H   0  0  0  0  0  0  0  0  0  0  0  0
  150.3325  139.7966  154.1745 H   0  0  0  0  0  0  0  0  0  0  0  0
  148.8510  139.8011  155.1121 H   0  0  0  0  0  0  0  0  0  0  0  0
  149.0285  140.9837  152.9720 H   0  0  0  0  0  0  0  0  0  0  0  0
  150.8749  144.7735  157.7346 H   0  0  0  0  0  0  0  0  0  0  0  0
  152.4612  144.6401  159.6618 H   0  0  0  0  0  0  0  0  0  0  0  0
  153.5343  142.5045  160.2765 H   0  0  0  0  0  0  0  0  0  0  0  0
  153.0712  140.4168  158.9978 H   0  0  0  0  0  0  0  0  0  0  0  0
  149.7068  143.0842  155.7093 H   0  0  0  0  0  0  0  0  0  0  0  0
  1  2  1  0  0  0  0
  1 17  1  0  0  0  0
  1 18  1  0  0  0  0
  1 19  1  0  0  0  0
  2  3  1  0  0  0  0
  2 20  1  0  0  0  0
  2 21  1  0  0  0  0
  3  4  1  0  0  0  0
  4  5  1  0  0  0  0
  4 22  1  0  0  0  0
  4 23  1  0  0  0  0
  5  6  1  0  0  0  0
  5 24  1  0  0  0  0
  5 25  1  0  0  0  0
  6 16  1  0  0  0  0
  6  7  1  0  0  0  0
  7  8  1  0  0  0  0
  7 10  2  0  0  0  0
  8  9  1  0  0  0  0
  8 26  1  0  0  0  0
  8 27  1  0  0  0  0
  9 28  1  0  0  0  0
 10 11  1  0  0  0  0
 10 33  1  0  0  0  0
 11 16  2  0  0  0  0
 11 12  1  0  0  0  0
 12 13  2  0  0  0  0
 12 29  1  0  0  0  0
 13 14  1  0  0  0  0
 13 30  1  0  0  0  0
 14 15  2  0  0  0  0
 14 31  1  0  0  0  0
 15 16  1  0  0  0  0
 15 32  1  0  0  0  0
M  CHG  1  10   1
M  END
> <s_m_source_file>
AV-unprocessed.smi

> <i_m_source_file_index>
2948

> <i_lp_mmshare_version>
43012

> <i_f3d_flags>
0

> <s_epik_input>
W0NIM11bQ0gyXU9bQ0gyXVtDSDJdbihjKG4xKVtDSDJdW09IXSljKGMxMilbY0hdW2NIXVtjSF1bY0hdMg==

> <s_epik_cmdline>
J2VwaWtfcHl0aG9uJywgJy1waCcsICc3LjAnLCAnLXRuJywgJzgnLCAnLW1hJywgJzIwMCcsICctbWV0YWxfYmluZGluZycsICctaW1hZScsICc8aW5maWxlLm1hZT4nLCAnLW9tYWUnLCAnPG91dGZpbGUubWFlPic=

> <r_epik_Ionization_Penalty>
1.38898

> <r_epik_Ionization_Penalty_Charging>
1.38812

> <r_epik_Ionization_Penalty_Neutral>
0.000855784

> <r_epik_State_Penalty>
1.46922

> <r_epik_Charging_Adjusted_Penalty>
2.85735

> <i_epik_Tot_Q>
1

> <i_epik_Tot_abs_Q>
1

> <r_epik_Metal_State_Penalty>
5.51019

> <b_epik_Metal_Only>
0

> <s_lp_Force_Field>
OPLS_2005

> <r_lp_Energy>
9.27044

> <b_lp_Chiralities_Consistent>
1

> <s_lp_Variant>
AV-unprocessed.smi:2948-2

> <Gold.Version>
5.8.1

> <Gold.Id.Protein>
6NUR|6NUR_protein|mol2

> <Gold.PLP.Fitness>
48.7985

> <Gold.PLP.PLP>
-38.6839

> <Gold.PLP.part.hbond>
-5.0000

> <Gold.PLP.part.metal>
0.0000

> <Gold.PLP.part.buried>
-4.2198

> <Gold.PLP.part.nonpolar>
-30.5618

> <Gold.PLP.part.repulsive>
0.1729

> <Gold.PLP.ligand.clash>
0.0000

> <Gold.PLP.ligand.torsion>
0.5997

> <Gold.PLP.Chemscore.Hbond>
3.7680

> <Gold.PLP.Chemscore.CHOScore>
0.0000

> <Gold.PLP.Chemscore.Metal>
0.0000

> <Gold.Chemscore.Hbonds>
donor molecule, donor type, donor heavy atom, donor atom, acceptor molecule, acceptor atom, score
      L1  H     9    28       P1  7957  0.78
      L1  H    10    33       P1  8028  2.00
      P1  H 10752 10765       L1     3  0.86

> <Gold.PLP.Chemscore.Internal.Correction>
0.0101

> <Gold.Rescore>
     Score         DG    S(hbond)    S(metal)    S(lipo)     H(rot)  DE(clash)    DE(int)     intcor
     18.36     -19.33       2.74        0.00      90.52       2.30       0.36       0.60       ----

> <Gold.Chemscore.Fitness>
18.3624

> <Gold.Chemscore.DG>
-19.3268

> <Gold.Chemscore.ZeroCoef>
-5.4800

> <Gold.Chemscore.Hbond>
2.7394

> <Gold.Chemscore.Metal>
0.0000

> <Gold.Chemscore.Lipo>
90.5156

> <Gold.Chemscore.Internal_Hbond>
0.0000

> <Gold.Chemscore.DEClash>
0.3636

> <Gold.Chemscore.DEInternal>
0.6008

> <Gold.Chemscore.Rot>
2.3021

> <Gold.Chemscore.Internal.Correction>
   9.000000E+99

> <Gold.Chemscore.Hbonds>
donor molecule, donor type, donor heavy atom, donor atom, acceptor molecule, acceptor atom, score
      L1  H     9    28       P1  7957  0.78
      L1  H    10    33       P1  8028  0.94
      P1  H 10752 10765       L1     3  0.48

> <Gold.Chemscore.Hbond.Weighted>
-9.1498

> <Gold.Chemscore.Metal.Weighted>
-0.0000

> <Gold.Chemscore.Lipo.Weighted>
-10.5903

> <Gold.Chemscore.Internal_Hbond.Weighted>
0.0000

> <Gold.Chemscore.DEClash.Weighted>
0.3636

> <Gold.Chemscore.DEInternal.Weighted>
0.6008

> <Gold.Chemscore.Rot.Weighted>
5.8933

> <Gold.Chemscore.Internal.Correction.Weighted>
   9.000000E+99

> <Gold.Protein.RotatedTorsions>
[ 6907 6896 6895 6894 ] final -100.47 input  -60.11 | X-H torsion
[ 7974 7965 7964 7962 ] final  -56.54 input  175.53 | X-H torsion
[ 8008 7997 7996 7995 ] final  -80.51 input   59.86 | X-H torsion
[ 10167 10162 10161 10158 ] final   49.41 input  -65.29 | X-H torsion
[ 10718 10713 10712 10709 ] final   60.87 input   66.30 | X-H torsion
[ 10763 10752 10751 10750 ] final  178.49 input  -60.55 | X-H torsion
[ 11005 11000 10999 10996 ] final -135.47 input  -57.11 | X-H torsion

> <Gold.Protein.ActiveResidues>
 VAL166  LYS551  ARG553  GLY616  TRP617  ASP618  TYR619  PRO620  LYS621  CYS622 
 ASP623  PHE694  ASN695  SER759  ASP760  ASP761  ALA762  ILE779  LEU786  VAL792 
 PHE793  MET794  SER795  GLU796  ALA797  LYS798  CYS799  TRP800  GLU811  SER814 

> <Gold.Protein.RotatedAtoms>
  150.7117  134.0883  159.3922 H   0  0  0  0  0  0  0  0  0  0  0  0  # atno 6907 bound_to 6896
  151.8868  135.0430  160.0503 H   0  0  0  0  0  0  0  0  0  0  0  0  # atno 6908 bound_to 6896
  152.2524  133.5191  159.5370 H   0  0  0  0  0  0  0  0  0  0  0  0  # atno 6909 bound_to 6896
  145.8615  140.8282  142.9934 H   0  0  0  0  0  0  0  0  0  0  0  0  # atno 7974 bound_to 7965
  154.5890  140.0662  156.9212 H   0  0  0  0  0  0  0  0  0  0  0  0  # atno 8008 bound_to 7997
  155.2328  140.3339  155.4283 H   0  0  0  0  0  0  0  0  0  0  0  0  # atno 8009 bound_to 7997
  156.2243  140.1812  156.7386 H   0  0  0  0  0  0  0  0  0  0  0  0  # atno 8010 bound_to 7997
  140.2832  144.3132  150.6259 H   0  0  0  0  0  0  0  0  0  0  0  0  # atno 10167 bound_to 10162
  157.5785  130.8963  149.9390 H   0  0  0  0  0  0  0  0  0  0  0  0  # atno 10718 bound_to 10713
  154.5084  135.2787  155.1363 H   0  0  0  0  0  0  0  0  0  0  0  0  # atno 10763 bound_to 10752
  154.2969  135.6256  153.5412 H   0  0  0  0  0  0  0  0  0  0  0  0  # atno 10764 bound_to 10752
  152.9914  135.5687  154.5543 H   0  0  0  0  0  0  0  0  0  0  0  0  # atno 10765 bound_to 10752
  140.8895  134.1830  157.4537 H   0  0  0  0  0  0  0  0  0  0  0  0  # atno 11005 bound_to 11000
  144.6726  140.1102  143.7456 LP  0  0  0  0  0  0  0  0  0  0  0  0  # atno 17320 bound_to 7965
  145.9243  139.2565  143.1363 LP  0  0  0  0  0  0  0  0  0  0  0  0  # atno 17321 bound_to 7965
  140.5794  143.2174  151.7455 LP  0  0  0  0  0  0  0  0  0  0  0  0  # atno 17342 bound_to 10162
  139.4957  144.4102  152.0089 LP  0  0  0  0  0  0  0  0  0  0  0  0  # atno 17343 bound_to 10162
  156.0830  130.3671  150.0542 LP  0  0  0  0  0  0  0  0  0  0  0  0  # atno 17370 bound_to 10713
  156.8685  130.9516  151.3611 LP  0  0  0  0  0  0  0  0  0  0  0  0  # atno 17371 bound_to 10713
  139.8728  134.9852  156.5272 LP  0  0  0  0  0  0  0  0  0  0  0  0  # atno 17394 bound_to 11000
  140.8364  133.8239  155.9033 LP  0  0  0  0  0  0  0  0  0  0  0  0  # atno 17395 bound_to 11000

$$$$
