AV-unprocessed.smi:3089|AV-procd|sdf|11771|dock5
  -GOLD-   2272017153D 1   1.00000     0.00000
 Structure written by MMmdl.
 25 25  0  0  0  0  0  0  0  0  2 V2000
  141.2285  138.0203  153.7946 C   0  0  0  0  0  0  0  0  0  0  0  0
  142.1327  136.9655  153.3887 N   0  0  0  0  0  0  0  0  0  0  0  0
  143.2250  137.0418  152.5526 C   0  0  0  0  0  0  0  0  0  0  0  0
  143.7706  135.7899  152.4656 C   0  0  0  0  0  0  0  0  0  0  0  0
  144.9859  135.3424  151.6805 C   0  0  2  0  0  0  0  0  0  0  0  0
  146.0701  134.8232  152.6404 C   0  0  0  0  0  0  0  0  0  0  0  0
  145.5793  136.4133  150.9697 O   0  0  0  0  0  0  0  0  0  0  0  0
  144.6137  134.2558  150.6474 C   0  0  0  0  0  0  0  0  0  0  0  0
  143.9556  134.8210  149.4545 N   0  3  0  0  0  0  0  0  0  0  0  0
  142.9154  135.0079  153.2976 C   0  0  0  0  0  0  0  0  0  0  0  0
  141.9431  135.7137  153.8506 N   0  0  0  0  0  0  0  0  0  0  0  0
  141.5231  138.9640  153.3349 H   0  0  0  0  0  0  0  0  0  0  0  0
  141.2534  138.1319  154.8791 H   0  0  0  0  0  0  0  0  0  0  0  0
  140.2127  137.7767  153.4826 H   0  0  0  0  0  0  0  0  0  0  0  0
  143.5232  137.9725  152.0925 H   0  0  0  0  0  0  0  0  0  0  0  0
  145.7168  133.9653  153.2138 H   0  0  0  0  0  0  0  0  0  0  0  0
  146.3701  135.5925  153.3534 H   0  0  0  0  0  0  0  0  0  0  0  0
  146.9646  134.5078  152.1016 H   0  0  0  0  0  0  0  0  0  0  0  0
  146.3916  136.6466  151.3935 H   0  0  0  0  0  0  0  0  0  0  0  0
  145.4991  133.7030  150.3305 H   0  0  0  0  0  0  0  0  0  0  0  0
  143.9338  133.5285  151.0928 H   0  0  0  0  0  0  0  0  0  0  0  0
  143.8285  135.8156  149.5734 H   0  0  0  0  0  0  0  0  0  0  0  0
  143.0572  134.3765  149.3281 H   0  0  0  0  0  0  0  0  0  0  0  0
  142.9752  133.9523  153.5188 H   0  0  0  0  0  0  0  0  0  0  0  0
  144.5303  134.6473  148.6422 H   0  0  0  0  0  0  0  0  0  0  0  0
  1  2  1  0  0  0  0
  1 12  1  0  0  0  0
  1 13  1  0  0  0  0
  1 14  1  0  0  0  0
  2 11  1  0  0  0  0
  2  3  1  0  0  0  0
  3  4  2  0  0  0  0
  3 15  1  0  0  0  0
  4  5  1  0  0  0  0
  4 10  1  0  0  0  0
  5  6  1  0  0  0  0
  5  7  1  0  0  0  0
  5  8  1  0  0  0  0
  6 16  1  0  0  0  0
  6 17  1  0  0  0  0
  6 18  1  0  0  0  0
  7 19  1  0  0  0  0
  8  9  1  0  0  0  0
  8 20  1  0  0  0  0
  8 21  1  0  0  0  0
  9 22  1  0  0  0  0
  9 23  1  0  0  0  0
  9 25  1  0  0  0  0
 10 11  2  0  0  0  0
 10 24  1  0  0  0  0
M  CHG  1   9   1
M  END
> <s_m_source_file>
AV-unprocessed.smi

> <i_m_source_file_index>
3089

> <i_lp_mmshare_version>
43012

> <i_f3d_flags>
0

> <s_epik_input>
W0NIM11uMVtjSF1jKFtjSF1uMSlbQ0BAXShbQ0gzXSkoW09IXSlbQ0gyXVtOSDJd

> <s_epik_cmdline>
J2VwaWtfcHl0aG9uJywgJy1waCcsICc3LjAnLCAnLXRuJywgJzgnLCAnLW1hJywgJzIwMCcsICctbWV0YWxfYmluZGluZycsICctaW1hZScsICc8aW5maWxlLm1hZT4nLCAnLW9tYWUnLCAnPG91dGZpbGUubWFlPic=

> <r_lp_tautomer_probability>
1

> <r_epik_Ionization_Penalty>
0.0140512

> <r_epik_Ionization_Penalty_Charging>
0.0140431

> <r_epik_Ionization_Penalty_Neutral>
8.10489e-06

> <r_epik_State_Penalty>
0.0109628

> <r_epik_Charging_Adjusted_Penalty>
0.0250059

> <i_epik_Tot_Q>
1

> <i_epik_Tot_abs_Q>
1

> <r_epik_Metal_State_Penalty>
0.0109638

> <b_epik_Metal_Only>
0

> <s_lp_Force_Field>
OPLS_2005

> <r_lp_Energy>
3.27267

> <b_lp_Chiralities_Consistent>
1

> <s_lp_Variant>
AV-unprocessed.smi:3089-2

> <Gold.Version>
5.8.1

> <Gold.Id.Protein>
6NUR|6NUR_protein|mol2

> <Gold.PLP.Fitness>
37.2196

> <Gold.PLP.PLP>
-19.6484

> <Gold.PLP.part.hbond>
-3.0000

> <Gold.PLP.part.metal>
0.0000

> <Gold.PLP.part.buried>
-4.1817

> <Gold.PLP.part.nonpolar>
-13.4822

> <Gold.PLP.part.repulsive>
0.2249

> <Gold.PLP.ligand.clash>
0.0000

> <Gold.PLP.ligand.torsion>
0.2226

> <Gold.PLP.Chemscore.Hbond>
3.0000

> <Gold.PLP.Chemscore.CHOScore>
3.0000

> <Gold.PLP.Chemscore.Metal>
0.0000

> <Gold.Chemscore.Hbonds>
donor molecule, donor type, donor heavy atom, donor atom, acceptor molecule, acceptor atom, score
      L1  H     9    23       P1 10186  1.84
      L1  H     9    25       P1  7921  1.00
      L1  C     3    15       P1 10171  1.00
      L1  C     3    15       P1 10175  1.00
      L1  C    10    24       P1 10957  0.97

> <Gold.PLP.Chemscore.Internal.Correction>
0.0165

> <Gold.Rescore>
     Score         DG    S(hbond)    S(metal)    S(lipo)     H(rot)  DE(clash)    DE(int)     intcor
     10.98     -11.27       2.13        0.00      30.14       1.89       0.04       0.25       ----

> <Gold.Chemscore.Fitness>
10.9830

> <Gold.Chemscore.DG>
-11.2735

> <Gold.Chemscore.ZeroCoef>
-5.4800

> <Gold.Chemscore.Hbond>
2.1261

> <Gold.Chemscore.Metal>
0.0000

> <Gold.Chemscore.Lipo>
30.1398

> <Gold.Chemscore.Internal_Hbond>
0.0000

> <Gold.Chemscore.DEClash>
0.0437

> <Gold.Chemscore.DEInternal>
0.2468

> <Gold.Chemscore.Rot>
1.8883

> <Gold.Chemscore.Internal.Correction>
   9.000000E+99

> <Gold.Chemscore.Hbonds>
donor molecule, donor type, donor heavy atom, donor atom, acceptor molecule, acceptor atom, score
      L1  H     9    23       P1 10186  0.84
      L1  H     9    25       P1  7921  0.97

> <Gold.Chemscore.Hbond.Weighted>
-7.1012

> <Gold.Chemscore.Metal.Weighted>
-0.0000

> <Gold.Chemscore.Lipo.Weighted>
-3.5264

> <Gold.Chemscore.Internal_Hbond.Weighted>
0.0000

> <Gold.Chemscore.DEClash.Weighted>
0.0437

> <Gold.Chemscore.DEInternal.Weighted>
0.2468

> <Gold.Chemscore.Rot.Weighted>
4.8341

> <Gold.Chemscore.Internal.Correction.Weighted>
   9.000000E+99

> <Gold.Protein.RotatedTorsions>
[ 6907 6896 6895 6894 ] final   11.65 input  -60.11 | X-H torsion
[ 7974 7965 7964 7962 ] final  158.05 input  175.53 | X-H torsion
[ 8008 7997 7996 7995 ] final   45.00 input   59.86 | X-H torsion
[ 10167 10162 10161 10158 ] final  -29.88 input  -65.29 | X-H torsion
[ 10718 10713 10712 10709 ] final -100.87 input   66.30 | X-H torsion
[ 10763 10752 10751 10750 ] final   26.30 input  -60.55 | X-H torsion
[ 11005 11000 10999 10996 ] final  108.59 input  -57.11 | X-H torsion

> <Gold.Protein.ActiveResidues>
 VAL166  LYS551  ARG553  GLY616  TRP617  ASP618  TYR619  PRO620  LYS621  CYS622 
 ASP623  PHE694  ASN695  SER759  ASP760  ASP761  ALA762  ILE779  LEU786  VAL792 
 PHE793  MET794  SER795  GLU796  ALA797  LYS798  CYS799  TRP800  GLU811  SER814 

> <Gold.Protein.RotatedAtoms>
  151.7577  135.0817  160.0340 H   0  0  0  0  0  0  0  0  0  0  0  0  # atno 6907 bound_to 6896
  152.3374  133.6023  159.5861 H   0  0  0  0  0  0  0  0  0  0  0  0  # atno 6908 bound_to 6896
  150.7458  133.9691  159.3581 H   0  0  0  0  0  0  0  0  0  0  0  0  # atno 6909 bound_to 6896
  144.7868  139.7424  143.6237 H   0  0  0  0  0  0  0  0  0  0  0  0  # atno 7974 bound_to 7965
  155.3287  140.3401  155.4240 H   0  0  0  0  0  0  0  0  0  0  0  0  # atno 8008 bound_to 7997
  156.1872  140.1685  156.8198 H   0  0  0  0  0  0  0  0  0  0  0  0  # atno 8009 bound_to 7997
  154.5400  140.0727  156.8477 H   0  0  0  0  0  0  0  0  0  0  0  0  # atno 8010 bound_to 7997
  140.7256  143.3893  151.1459 H   0  0  0  0  0  0  0  0  0  0  0  0  # atno 10167 bound_to 10162
  156.0176  130.5347  150.6880 H   0  0  0  0  0  0  0  0  0  0  0  0  # atno 10718 bound_to 10713
  153.0632  135.6563  154.0414 H   0  0  0  0  0  0  0  0  0  0  0  0  # atno 10763 bound_to 10752
  154.0077  135.2931  155.3397 H   0  0  0  0  0  0  0  0  0  0  0  0  # atno 10764 bound_to 10752
  154.6979  135.5256  153.8553 H   0  0  0  0  0  0  0  0  0  0  0  0  # atno 10765 bound_to 10752
  139.8847  134.9435  156.5996 H   0  0  0  0  0  0  0  0  0  0  0  0  # atno 11005 bound_to 11000
  146.2103  139.5455  142.9685 LP  0  0  0  0  0  0  0  0  0  0  0  0  # atno 17320 bound_to 7965
  145.5900  141.0371  143.2075 LP  0  0  0  0  0  0  0  0  0  0  0  0  # atno 17321 bound_to 7965
  139.7495  143.8800  152.3073 LP  0  0  0  0  0  0  0  0  0  0  0  0  # atno 17342 bound_to 10162
  139.8649  144.7098  150.9056 LP  0  0  0  0  0  0  0  0  0  0  0  0  # atno 17343 bound_to 10162
  157.4568  131.0879  151.0788 LP  0  0  0  0  0  0  0  0  0  0  0  0  # atno 17370 bound_to 10713
  157.1288  130.6093  149.5524 LP  0  0  0  0  0  0  0  0  0  0  0  0  # atno 17371 bound_to 10713
  140.7894  133.8595  155.8633 LP  0  0  0  0  0  0  0  0  0  0  0  0  # atno 17394 bound_to 11000
  140.9691  134.1555  157.4591 LP  0  0  0  0  0  0  0  0  0  0  0  0  # atno 17395 bound_to 11000

$$$$
