AV-unprocessed.smi:1056|AV-procd|sdf|4647|dock1
  -GOLD-   22720 3153D 1   1.00000     0.00000
 Structure written by MMmdl.
 45 47  0  0  0  0  0  0  0  0  4 V2000
  152.4609  144.2330  160.4617 C   0  0  0  0  0  0  0  0  0  0  0  0
  152.1187  143.1923  159.4092 C   0  0  0  0  0  0  0  0  0  0  0  0
  151.2310  143.5512  158.3697 C   0  0  0  0  0  0  0  0  0  0  0  0
  150.9385  142.5783  157.4214 C   0  0  0  0  0  0  0  0  0  0  0  0
  150.1138  142.6161  156.2951 N   0  3  0  0  0  0  0  0  0  0  0  0
  150.1469  141.4086  155.6666 C   0  0  0  0  0  0  0  0  0  0  0  0
  150.9795  140.5997  156.3767 N   0  0  0  0  0  0  0  0  0  0  0  0
  151.3681  139.2032  156.1391 C   0  0  0  0  0  0  0  0  0  0  0  0
  150.4017  138.4622  155.1936 C   0  0  1  0  0  0  0  0  0  0  0  0
  150.5167  139.0128  153.8947 O   0  0  0  0  0  0  0  0  0  0  0  0
  150.7185  136.9543  155.1326 C   0  0  0  0  0  0  0  0  0  0  0  0
  149.5323  136.1338  154.7821 N   0  3  2  0  0  0  0  0  0  0  0  0
  148.3029  136.5148  155.5260 C   0  0  0  0  0  0  0  0  0  0  0  0
  147.0695  135.8475  154.8892 C   0  0  0  0  0  0  0  0  0  0  0  0
  147.3254  134.4206  154.6591 N   0  5  0  0  0  0  0  0  0  0  0  0
  148.5516  133.8214  154.5400 C   0  0  0  0  0  0  0  0  0  0  0  0
  148.7448  132.6500  154.2227 O   0  0  0  0  0  0  0  0  0  0  0  0
  149.8050  134.6729  154.8803 C   0  0  0  0  0  0  0  0  0  0  0  0
  151.4962  141.2864  157.4803 C   0  0  0  0  0  0  0  0  0  0  0  0
  152.3718  140.9154  158.4977 C   0  0  0  0  0  0  0  0  0  0  0  0
  152.6813  141.8908  159.4727 C   0  0  0  0  0  0  0  0  0  0  0  0
  153.6329  141.5162  160.5960 C   0  0  0  0  0  0  0  0  0  0  0  0
  151.9338  145.1706  160.2827 H   0  0  0  0  0  0  0  0  0  0  0  0
  153.5301  144.4459  160.4550 H   0  0  0  0  0  0  0  0  0  0  0  0
  152.1837  143.8800  161.4551 H   0  0  0  0  0  0  0  0  0  0  0  0
  150.7988  144.5398  158.3150 H   0  0  0  0  0  0  0  0  0  0  0  0
  149.6073  141.1401  154.7696 H   0  0  0  0  0  0  0  0  0  0  0  0
  152.3757  139.2117  155.7208 H   0  0  0  0  0  0  0  0  0  0  0  0
  151.4379  138.6973  157.1029 H   0  0  0  0  0  0  0  0  0  0  0  0
  149.3820  138.6260  155.5398 H   0  0  0  0  0  0  0  0  0  0  0  0
  150.4572  138.3160  153.2589 H   0  0  0  0  0  0  0  0  0  0  0  0
  151.5105  136.7945  154.3987 H   0  0  0  0  0  0  0  0  0  0  0  0
  151.1170  136.6061  156.0868 H   0  0  0  0  0  0  0  0  0  0  0  0
  148.4031  136.2136  156.5702 H   0  0  0  0  0  0  0  0  0  0  0  0
  148.1605  137.5946  155.5261 H   0  0  0  0  0  0  0  0  0  0  0  0
  146.2019  136.0094  155.5281 H   0  0  0  0  0  0  0  0  0  0  0  0
  146.8470  136.3553  153.9505 H   0  0  0  0  0  0  0  0  0  0  0  0
  150.6117  134.4049  154.1966 H   0  0  0  0  0  0  0  0  0  0  0  0
  150.1357  134.4230  155.8895 H   0  0  0  0  0  0  0  0  0  0  0  0
  152.7998  139.9250  158.5453 H   0  0  0  0  0  0  0  0  0  0  0  0
  153.9890  140.4908  160.4933 H   0  0  0  0  0  0  0  0  0  0  0  0
  153.1359  141.6008  161.5627 H   0  0  0  0  0  0  0  0  0  0  0  0
  154.5039  142.1723  160.5955 H   0  0  0  0  0  0  0  0  0  0  0  0
  149.3357  136.3048  153.8067 H   0  0  0  0  0  0  0  0  0  0  0  0
  149.5676  143.4063  155.9761 H   0  0  0  0  0  0  0  0  0  0  0  0
  1  2  1  0  0  0  0
  1 23  1  0  0  0  0
  1 24  1  0  0  0  0
  1 25  1  0  0  0  0
  2 21  1  0  0  0  0
  2  3  2  0  0  0  0
  3  4  1  0  0  0  0
  3 26  1  0  0  0  0
  4 19  2  0  0  0  0
  4  5  1  0  0  0  0
  5  6  2  0  0  0  0
  5 45  1  0  0  0  0
  6  7  1  0  0  0  0
  6 27  1  0  0  0  0
  7  8  1  0  0  0  0
  7 19  1  0  0  0  0
  8  9  1  0  0  0  0
  8 28  1  0  0  0  0
  8 29  1  0  0  0  0
  9 10  1  0  0  0  0
  9 11  1  0  0  0  0
  9 30  1  0  0  0  0
 10 31  1  0  0  0  0
 11 12  1  0  0  0  0
 11 32  1  0  0  0  0
 11 33  1  0  0  0  0
 12 18  1  0  0  0  0
 12 13  1  0  0  0  0
 12 44  1  0  0  0  0
 13 14  1  0  0  0  0
 13 34  1  0  0  0  0
 13 35  1  0  0  0  0
 14 15  1  0  0  0  0
 14 36  1  0  0  0  0
 14 37  1  0  0  0  0
 15 16  1  0  0  0  0
 16 17  2  0  0  0  0
 16 18  1  0  0  0  0
 18 38  1  0  0  0  0
 18 39  1  0  0  0  0
 19 20  1  0  0  0  0
 20 21  2  0  0  0  0
 20 40  1  0  0  0  0
 21 22  1  0  0  0  0
 22 41  1  0  0  0  0
 22 42  1  0  0  0  0
 22 43  1  0  0  0  0
M  CHG  1   5   1
M  CHG  1  12   1
M  CHG  1  15  -1
M  END
> <s_m_source_file>
AV-unprocessed.smi

> <i_m_source_file_index>
1056

> <i_lp_mmshare_version>
43012

> <i_f3d_flags>
0

> <s_epik_input>
W0NIM11jKFtjSF0xKWMoW0NIM10pW2NIXWMoYzEyKW4oW2NIXW4yKVtDSDJdW0NASF0oW09IXSlbQ0gyXU4zW0NIMl1bQ0gyXVtOSF1DKD1PKVtDSDJdMw==

> <s_epik_cmdline>
J2VwaWtfcHl0aG9uJywgJy1waCcsICc3LjAnLCAnLXRuJywgJzgnLCAnLW1hJywgJzIwMCcsICctbWV0YWxfYmluZGluZycsICctaW1hZScsICc8aW5maWxlLm1hZT4nLCAnLW9tYWUnLCAnPG91dGZpbGUubWFlPic=

> <r_epik_Ionization_Penalty>
6.22415

> <r_epik_Ionization_Penalty_Charging>
6.22415

> <r_epik_Ionization_Penalty_Neutral>
4.02797e-07

> <r_epik_State_Penalty>
6.37716

> <r_epik_Charging_Adjusted_Penalty>
12.6013

> <i_epik_Tot_Q>
1

> <i_epik_Tot_abs_Q>
3

> <r_epik_Metal_State_Penalty>
2.53509

> <b_epik_Metal_Only>
1

> <s_lp_Force_Field>
OPLS_2005

> <r_lp_Energy>
25.2777

> <b_lp_Chiralities_Consistent>
1

> <s_lp_Variant>
AV-unprocessed.smi:1056-18

> <Gold.Version>
5.8.1

> <Gold.Id.Protein>
6NUR|6NUR_protein|mol2

> <Gold.PLP.Fitness>
56.3869

> <Gold.PLP.PLP>
-42.5797

> <Gold.PLP.part.hbond>
-4.0000

> <Gold.PLP.part.metal>
0.0000

> <Gold.PLP.part.buried>
-4.2681

> <Gold.PLP.part.nonpolar>
-34.6645

> <Gold.PLP.part.repulsive>
0.3473

> <Gold.PLP.ligand.clash>
0.0000

> <Gold.PLP.ligand.torsion>
0.6522

> <Gold.PLP.Chemscore.Hbond>
5.0000

> <Gold.PLP.Chemscore.CHOScore>
0.0000

> <Gold.PLP.Chemscore.Metal>
0.0000

> <Gold.Chemscore.Hbonds>
donor molecule, donor type, donor heavy atom, donor atom, acceptor molecule, acceptor atom, score
      L1  H     5    45       P1  8028  1.92
      L1  H    12    44       P1  7948  2.00
      P1  H  7989  7998       L1    10  0.60

> <Gold.PLP.Chemscore.Internal.Correction>
0.1117

> <Gold.Rescore>
     Score         DG    S(hbond)    S(metal)    S(lipo)     H(rot)  DE(clash)    DE(int)     intcor
     19.10     -20.94       2.81        0.00     103.68       2.37       1.11       0.72       ----

> <Gold.Chemscore.Fitness>
19.1007

> <Gold.Chemscore.DG>
-20.9369

> <Gold.Chemscore.ZeroCoef>
-5.4800

> <Gold.Chemscore.Hbond>
2.8143

> <Gold.Chemscore.Metal>
0.0000

> <Gold.Chemscore.Lipo>
103.6793

> <Gold.Chemscore.Internal_Hbond>
0.0000

> <Gold.Chemscore.DEClash>
1.1134

> <Gold.Chemscore.DEInternal>
0.7229

> <Gold.Chemscore.Rot>
2.3724

> <Gold.Chemscore.Internal.Correction>
   9.000000E+99

> <Gold.Chemscore.Hbonds>
donor molecule, donor type, donor heavy atom, donor atom, acceptor molecule, acceptor atom, score
      L1  H     5    45       P1  8028  0.91
      L1  H    12    44       P1  7948  0.84
      P1  H  7989  7998       L1    10  0.57

> <Gold.Chemscore.Hbond.Weighted>
-9.3999

> <Gold.Chemscore.Metal.Weighted>
-0.0000

> <Gold.Chemscore.Lipo.Weighted>
-12.1305

> <Gold.Chemscore.Internal_Hbond.Weighted>
0.0000

> <Gold.Chemscore.DEClash.Weighted>
1.1134

> <Gold.Chemscore.DEInternal.Weighted>
0.7229

> <Gold.Chemscore.Rot.Weighted>
6.0734

> <Gold.Chemscore.Internal.Correction.Weighted>
   9.000000E+99

> <Gold.Protein.RotatedTorsions>
[ 6907 6896 6895 6894 ] final  173.38 input  -60.11 | X-H torsion
[ 7974 7965 7964 7962 ] final  -15.97 input  175.53 | X-H torsion
[ 8008 7997 7996 7995 ] final  -81.43 input   59.86 | X-H torsion
[ 10167 10162 10161 10158 ] final  167.15 input  -65.29 | X-H torsion
[ 10718 10713 10712 10709 ] final -136.11 input   66.30 | X-H torsion
[ 10763 10752 10751 10750 ] final -164.28 input  -60.55 | X-H torsion
[ 11005 11000 10999 10996 ] final  -93.91 input  -57.11 | X-H torsion

> <Gold.Protein.ActiveResidues>
 VAL166  LYS551  ARG553  GLY616  TRP617  ASP618  TYR619  PRO620  LYS621  CYS622 
 ASP623  PHE694  ASN695  SER759  ASP760  ASP761  ALA762  ILE779  LEU786  VAL792 
 PHE793  MET794  SER795  GLU796  ALA797  LYS798  CYS799  TRP800  GLU811  SER814 

> <Gold.Protein.RotatedAtoms>
  151.7693  133.3340  159.3439 H   0  0  0  0  0  0  0  0  0  0  0  0  # atno 6907 bound_to 6896
  150.7468  134.6033  159.6057 H   0  0  0  0  0  0  0  0  0  0  0  0  # atno 6908 bound_to 6896
  152.3352  134.7209  160.0330 H   0  0  0  0  0  0  0  0  0  0  0  0  # atno 6909 bound_to 6896
  146.2009  140.3569  142.8424 H   0  0  0  0  0  0  0  0  0  0  0  0  # atno 7974 bound_to 7965
  154.5982  140.0648  156.9333 H   0  0  0  0  0  0  0  0  0  0  0  0  # atno 8008 bound_to 7997
  155.2177  140.3327  155.4301 H   0  0  0  0  0  0  0  0  0  0  0  0  # atno 8009 bound_to 7997
  156.2301  140.1837  156.7248 H   0  0  0  0  0  0  0  0  0  0  0  0  # atno 8010 bound_to 7997
  139.4939  144.3952  151.9472 H   0  0  0  0  0  0  0  0  0  0  0  0  # atno 10167 bound_to 10162
  156.2735  130.7279  151.1253 H   0  0  0  0  0  0  0  0  0  0  0  0  # atno 10718 bound_to 10713
  154.7043  135.2994  154.9294 H   0  0  0  0  0  0  0  0  0  0  0  0  # atno 10763 bound_to 10752
  154.0216  135.6682  153.4777 H   0  0  0  0  0  0  0  0  0  0  0  0  # atno 10764 bound_to 10752
  153.0705  135.5063  154.8205 H   0  0  0  0  0  0  0  0  0  0  0  0  # atno 10765 bound_to 10752
  141.1485  133.7919  157.0224 H   0  0  0  0  0  0  0  0  0  0  0  0  # atno 11005 bound_to 11000
  144.8680  140.7234  143.6065 LP  0  0  0  0  0  0  0  0  0  0  0  0  # atno 17320 bound_to 7965
  145.3488  139.1712  143.4446 LP  0  0  0  0  0  0  0  0  0  0  0  0  # atno 17321 bound_to 7965
  140.3390  144.3226  150.5971 LP  0  0  0  0  0  0  0  0  0  0  0  0  # atno 17342 bound_to 10162
  140.5581  143.2196  151.7812 LP  0  0  0  0  0  0  0  0  0  0  0  0  # atno 17343 bound_to 10162
  157.7291  131.0626  150.5787 LP  0  0  0  0  0  0  0  0  0  0  0  0  # atno 17370 bound_to 10713
  156.5886  130.4323  149.5946 LP  0  0  0  0  0  0  0  0  0  0  0  0  # atno 17371 bound_to 10713
  140.0807  134.9650  157.1619 LP  0  0  0  0  0  0  0  0  0  0  0  0  # atno 17394 bound_to 11000
  140.3581  134.2524  155.7190 LP  0  0  0  0  0  0  0  0  0  0  0  0  # atno 17395 bound_to 11000

$$$$
