AV-unprocessed.smi:266|AV-procd|sdf|2035|dock8
  -GOLD-   2262021243D 1   1.00000     0.00000
 Structure written by MMmdl.
 52 55  0  0  0  0  0  0  0  0  1 V2000
  142.9479  133.4564  151.6606 C   0  0  0  0  0  0  0  0  0  0  0  0
  144.1561  133.6754  150.7367 C   0  0  2  0  0  0  0  0  0  0  0  0
  145.0900  132.6284  150.9871 O   0  0  0  0  0  0  0  0  0  0  0  0
  146.3968  133.1135  150.7358 C   0  0  0  0  0  0  0  0  0  0  0  0
  146.3407  134.5168  151.3193 C   0  0  0  0  0  0  0  0  0  0  0  0
  144.9490  135.0010  150.9196 C   0  0  1  0  0  0  0  0  0  0  0  0
  145.0535  135.6165  149.6460 O   0  0  0  0  0  0  0  0  0  0  0  0
  144.3444  136.0367  151.9041 C   0  0  0  0  0  0  0  0  0  0  0  0
  145.2776  137.0850  152.2887 N   0  0  0  0  0  0  0  0  0  0  0  0
  146.1547  137.7505  151.4630 C   0  0  0  0  0  0  0  0  0  0  0  0
  146.8927  138.6533  152.0481 N   0  0  0  0  0  0  0  0  0  0  0  0
  146.4880  138.6183  153.3777 C   0  0  0  0  0  0  0  0  0  0  0  0
  146.8634  139.3260  154.5572 C   0  0  0  0  0  0  0  0  0  0  0  0
  147.8006  140.3019  154.6237 N   0  0  0  0  0  0  0  0  0  0  0  0
  147.7662  141.1790  153.4616 C   0  0  0  0  0  0  0  0  0  0  0  0
  148.0810  140.9243  155.9175 C   0  0  0  0  0  0  0  0  0  0  0  0
  149.5742  140.9070  156.3105 C   0  0  1  0  0  0  0  0  0  0  0  0
  149.9025  141.8618  157.4766 C   0  0  0  0  0  0  0  0  0  0  0  0
  151.3168  141.5532  157.9768 C   0  0  0  0  0  0  0  0  0  0  0  0
  151.5305  139.7469  157.7655 S   0  0  0  0  0  0  0  0  0  0  0  0
  152.7447  139.4981  156.9738 O   0  0  0  0  0  0  0  0  0  0  0  0
  151.3156  139.0726  159.0549 O   0  0  0  0  0  0  0  0  0  0  0  0
  150.0500  139.5030  156.7123 C   0  0  0  0  0  0  0  0  0  0  0  0
  146.2434  138.9923  155.7170 N   0  0  0  0  0  0  0  0  0  0  0  0
  145.3006  138.0457  155.7274 C   0  0  0  0  0  0  0  0  0  0  0  0
  144.8393  137.3166  154.7099 N   0  0  0  0  0  0  0  0  0  0  0  0
  145.4720  137.6345  153.5443 C   0  0  0  0  0  0  0  0  0  0  0  0
  142.1888  134.2248  151.5140 H   0  0  0  0  0  0  0  0  0  0  0  0
  143.2411  133.4593  152.7106 H   0  0  0  0  0  0  0  0  0  0  0  0
  142.4794  132.4935  151.4563 H   0  0  0  0  0  0  0  0  0  0  0  0
  143.8197  133.5739  149.7031 H   0  0  0  0  0  0  0  0  0  0  0  0
  147.1563  132.4892  151.2069 H   0  0  0  0  0  0  0  0  0  0  0  0
  146.5832  133.1393  149.6610 H   0  0  0  0  0  0  0  0  0  0  0  0
  146.4153  134.4429  152.4047 H   0  0  0  0  0  0  0  0  0  0  0  0
  147.1505  135.1609  150.9737 H   0  0  0  0  0  0  0  0  0  0  0  0
  145.5615  135.0536  149.0822 H   0  0  0  0  0  0  0  0  0  0  0  0
  143.4656  136.5114  151.4653 H   0  0  0  0  0  0  0  0  0  0  0  0
  144.0060  135.5447  152.8161 H   0  0  0  0  0  0  0  0  0  0  0  0
  146.2353  137.5392  150.4066 H   0  0  0  0  0  0  0  0  0  0  0  0
  147.9724  140.6221  152.5470 H   0  0  0  0  0  0  0  0  0  0  0  0
  148.5164  141.9654  153.5475 H   0  0  0  0  0  0  0  0  0  0  0  0
  146.7883  141.6524  153.3643 H   0  0  0  0  0  0  0  0  0  0  0  0
  147.7388  141.9592  155.8804 H   0  0  0  0  0  0  0  0  0  0  0  0
  147.4798  140.4438  156.6890 H   0  0  0  0  0  0  0  0  0  0  0  0
  150.1860  141.2089  155.4601 H   0  0  0  0  0  0  0  0  0  0  0  0
  149.8070  142.9081  157.1843 H   0  0  0  0  0  0  0  0  0  0  0  0
  149.1952  141.6927  158.2895 H   0  0  0  0  0  0  0  0  0  0  0  0
  152.0627  142.0561  157.3608 H   0  0  0  0  0  0  0  0  0  0  0  0
  151.4741  141.8351  159.0178 H   0  0  0  0  0  0  0  0  0  0  0  0
  149.2980  138.9883  157.3108 H   0  0  0  0  0  0  0  0  0  0  0  0
  150.2973  138.8778  155.8542 H   0  0  0  0  0  0  0  0  0  0  0  0
  144.8509  137.8441  156.6885 H   0  0  0  0  0  0  0  0  0  0  0  0
  1  2  1  0  0  0  0
  1 28  1  0  0  0  0
  1 29  1  0  0  0  0
  1 30  1  0  0  0  0
  2  6  1  0  0  0  0
  2  3  1  0  0  0  0
  2 31  1  0  0  0  0
  3  4  1  0  0  0  0
  4  5  1  0  0  0  0
  4 32  1  0  0  0  0
  4 33  1  0  0  0  0
  5  6  1  0  0  0  0
  5 34  1  0  0  0  0
  5 35  1  0  0  0  0
  6  7  1  0  0  0  0
  6  8  1  0  0  0  0
  7 36  1  0  0  0  0
  8  9  1  0  0  0  0
  8 37  1  0  0  0  0
  8 38  1  0  0  0  0
  9 27  1  0  0  0  0
  9 10  1  0  0  0  0
 10 11  2  0  0  0  0
 10 39  1  0  0  0  0
 11 12  1  0  0  0  0
 12 27  2  0  0  0  0
 12 13  1  0  0  0  0
 13 14  1  0  0  0  0
 13 24  2  0  0  0  0
 14 15  1  0  0  0  0
 14 16  1  0  0  0  0
 15 40  1  0  0  0  0
 15 41  1  0  0  0  0
 15 42  1  0  0  0  0
 16 17  1  0  0  0  0
 16 43  1  0  0  0  0
 16 44  1  0  0  0  0
 17 23  1  0  0  0  0
 17 18  1  0  0  0  0
 17 45  1  0  0  0  0
 18 19  1  0  0  0  0
 18 46  1  0  0  0  0
 18 47  1  0  0  0  0
 19 20  1  0  0  0  0
 19 48  1  0  0  0  0
 19 49  1  0  0  0  0
 20 21  2  0  0  0  0
 20 22  2  0  0  0  0
 20 23  1  0  0  0  0
 23 50  1  0  0  0  0
 23 51  1  0  0  0  0
 24 25  1  0  0  0  0
 25 26  2  0  0  0  0
 25 52  1  0  0  0  0
 26 27  1  0  0  0  0
M  END
> <s_m_source_file>
AV-unprocessed.smi

> <i_m_source_file_index>
266

> <i_lp_mmshare_version>
43012

> <i_f3d_flags>
0

> <s_epik_input>
W0NIMl0xW0NIMl1PW0NAQEhdKFtDSDNdKVtDQEBdMShbT0hdKVtDSDJdbihbY0hdbjIpYyhjMjMpbltjSF1uYzNOKFtDSDNdKVtDSDJdW0NAQEhdKFtDSDJdNClbQ0gyXVtDSDJdUzQoPU8pPU8=

> <s_epik_cmdline>
J2VwaWtfcHl0aG9uJywgJy1waCcsICc3LjAnLCAnLXRuJywgJzgnLCAnLW1hJywgJzIwMCcsICctbWV0YWxfYmluZGluZycsICctaW1hZScsICc8aW5maWxlLm1hZT4nLCAnLW9tYWUnLCAnPG91dGZpbGUubWFlPic=

> <r_lp_tautomer_probability>
1

> <r_epik_Ionization_Penalty>
0.00155497

> <r_epik_Ionization_Penalty_Charging>
0

> <r_epik_Ionization_Penalty_Neutral>
0.00155497

> <r_epik_State_Penalty>
-0

> <r_epik_Charging_Adjusted_Penalty>
0

> <i_epik_Tot_Q>
0

> <i_epik_Tot_abs_Q>
0

> <r_epik_Metal_State_Penalty>
-0

> <b_epik_Metal_Only>
0

> <s_lp_Force_Field>
OPLS_2005

> <r_lp_Energy>
31.7586

> <b_lp_Chiralities_Consistent>
1

> <s_lp_Variant>
AV-unprocessed.smi:266-5

> <Gold.Version>
5.8.1

> <Gold.Id.Protein>
6NUR|6NUR_protein|mol2

> <Gold.PLP.Fitness>
38.9372

> <Gold.PLP.PLP>
-33.8706

> <Gold.PLP.part.hbond>
-2.8289

> <Gold.PLP.part.metal>
0.0000

> <Gold.PLP.part.buried>
-2.7241

> <Gold.PLP.part.nonpolar>
-28.5123

> <Gold.PLP.part.repulsive>
0.5977

> <Gold.PLP.ligand.clash>
0.0000

> <Gold.PLP.ligand.torsion>
1.3763

> <Gold.PLP.Chemscore.Hbond>
2.0000

> <Gold.PLP.Chemscore.CHOScore>
0.4073

> <Gold.PLP.Chemscore.Metal>
0.0000

> <Gold.Chemscore.Hbonds>
donor molecule, donor type, donor heavy atom, donor atom, acceptor molecule, acceptor atom, score
      L1  H     7    36       P1  7921  0.93
      P1  H  7997  8009       L1    21  1.00
      L1  C    10    39       P1 10171  0.22

> <Gold.PLP.Chemscore.Internal.Correction>
0.5972

> <Gold.Rescore>
     Score         DG    S(hbond)    S(metal)    S(lipo)     H(rot)  DE(clash)    DE(int)     intcor
      9.97     -12.79       1.90        0.00      68.80       2.76       0.69       2.13       ----

> <Gold.Chemscore.Fitness>
9.9739

> <Gold.Chemscore.DG>
-12.7906

> <Gold.Chemscore.ZeroCoef>
-5.4800

> <Gold.Chemscore.Hbond>
1.8969

> <Gold.Chemscore.Metal>
0.0000

> <Gold.Chemscore.Lipo>
68.8023

> <Gold.Chemscore.Internal_Hbond>
0.0000

> <Gold.Chemscore.DEClash>
0.6904

> <Gold.Chemscore.DEInternal>
2.1264

> <Gold.Chemscore.Rot>
2.7637

> <Gold.Chemscore.Internal.Correction>
   9.000000E+99

> <Gold.Chemscore.Hbonds>
donor molecule, donor type, donor heavy atom, donor atom, acceptor molecule, acceptor atom, score
      L1  H     7    36       P1  7921  0.87
      P1  H  7997  8009       L1    21  1.00

> <Gold.Chemscore.Hbond.Weighted>
-6.3358

> <Gold.Chemscore.Metal.Weighted>
-0.0000

> <Gold.Chemscore.Lipo.Weighted>
-8.0499

> <Gold.Chemscore.Internal_Hbond.Weighted>
0.0000

> <Gold.Chemscore.DEClash.Weighted>
0.6904

> <Gold.Chemscore.DEInternal.Weighted>
2.1264

> <Gold.Chemscore.Rot.Weighted>
7.0750

> <Gold.Chemscore.Internal.Correction.Weighted>
   9.000000E+99

> <Gold.Protein.RotatedTorsions>
[ 6907 6896 6895 6894 ] final -157.08 input  -60.11 | X-H torsion
[ 7974 7965 7964 7962 ] final  157.19 input  175.53 | X-H torsion
[ 8008 7997 7996 7995 ] final  176.73 input   59.86 | X-H torsion
[ 10167 10162 10161 10158 ] final   15.52 input  -65.29 | X-H torsion
[ 10718 10713 10712 10709 ] final -130.24 input   66.30 | X-H torsion
[ 10763 10752 10751 10750 ] final  -46.22 input  -60.55 | X-H torsion
[ 11005 11000 10999 10996 ] final   75.81 input  -57.11 | X-H torsion

> <Gold.Protein.ActiveResidues>
 VAL166  LYS551  ARG553  GLY616  TRP617  ASP618  TYR619  PRO620  LYS621  CYS622 
 ASP623  PHE694  ASN695  SER759  ASP760  ASP761  ALA762  ILE779  LEU786  VAL792 
 PHE793  MET794  SER795  GLU796  ALA797  LYS798  CYS799  TRP800  GLU811  SER814 

> <Gold.Protein.RotatedAtoms>
  151.2975  133.4137  159.2637 H   0  0  0  0  0  0  0  0  0  0  0  0  # atno 6907 bound_to 6896
  151.0224  134.9479  159.8077 H   0  0  0  0  0  0  0  0  0  0  0  0  # atno 6908 bound_to 6896
  152.5327  134.2937  159.9105 H   0  0  0  0  0  0  0  0  0  0  0  0  # atno 6909 bound_to 6896
  144.7918  139.7306  143.6218 H   0  0  0  0  0  0  0  0  0  0  0  0  # atno 7974 bound_to 7965
  156.0733  140.1376  156.9802 H   0  0  0  0  0  0  0  0  0  0  0  0  # atno 8008 bound_to 7997
  154.4544  140.0967  156.6764 H   0  0  0  0  0  0  0  0  0  0  0  0  # atno 8009 bound_to 7997
  155.5193  140.3456  155.4406 H   0  0  0  0  0  0  0  0  0  0  0  0  # atno 8010 bound_to 7997
  140.5861  143.8886  150.6832 H   0  0  0  0  0  0  0  0  0  0  0  0  # atno 10167 bound_to 10162
  156.2125  130.6927  151.0665 H   0  0  0  0  0  0  0  0  0  0  0  0  # atno 10718 bound_to 10713
  154.0413  135.6643  153.4790 H   0  0  0  0  0  0  0  0  0  0  0  0  # atno 10763 bound_to 10752
  153.0500  135.5090  154.7839 H   0  0  0  0  0  0  0  0  0  0  0  0  # atno 10764 bound_to 10752
  154.6816  135.3046  154.9571 H   0  0  0  0  0  0  0  0  0  0  0  0  # atno 10765 bound_to 10752
  139.9326  134.7549  156.1317 H   0  0  0  0  0  0  0  0  0  0  0  0  # atno 11005 bound_to 11000
  146.2173  139.5571  142.9642 LP  0  0  0  0  0  0  0  0  0  0  0  0  # atno 17320 bound_to 7965
  145.5775  141.0387  143.2140 LP  0  0  0  0  0  0  0  0  0  0  0  0  # atno 17321 bound_to 7965
  140.2397  143.3673  152.1497 LP  0  0  0  0  0  0  0  0  0  0  0  0  # atno 17342 bound_to 10162
  139.5199  144.7025  151.5451 LP  0  0  0  0  0  0  0  0  0  0  0  0  # atno 17343 bound_to 10162
  157.7046  131.0762  150.6710 LP  0  0  0  0  0  0  0  0  0  0  0  0  # atno 17370 bound_to 10713
  156.6770  130.4556  149.5639 LP  0  0  0  0  0  0  0  0  0  0  0  0  # atno 17371 bound_to 10713
  141.0924  133.6709  156.2569 LP  0  0  0  0  0  0  0  0  0  0  0  0  # atno 17394 bound_to 11000
  140.6160  134.5410  157.5540 LP  0  0  0  0  0  0  0  0  0  0  0  0  # atno 17395 bound_to 11000

$$$$
