AV-unprocessed.smi:2734|AV-procd|sdf|10540|dock3
  -GOLD-   2272014583D 1   1.00000     0.00000
 Structure written by MMmdl.
 41 43  0  0  0  0  0  0  0  0  2 V2000
  151.8322  143.8174  160.3483 C   0  0  0  0  0  0  0  0  0  0  0  0
  151.6862  142.7833  159.2450 C   0  0  0  0  0  0  0  0  0  0  0  0
  150.9140  143.1140  158.1087 C   0  0  0  0  0  0  0  0  0  0  0  0
  150.7954  142.1459  157.1184 C   0  0  0  0  0  0  0  0  0  0  0  0
  150.1106  142.1627  155.9017 N   0  3  0  0  0  0  0  0  0  0  0  0
  150.2807  140.9698  155.2677 C   0  0  0  0  0  0  0  0  0  0  0  0
  151.0642  140.1906  156.0615 N   0  0  0  0  0  0  0  0  0  0  0  0
  151.5368  138.8154  155.8472 C   0  0  0  0  0  0  0  0  0  0  0  0
  150.9059  138.1458  154.6091 C   0  0  1  0  0  0  0  0  0  0  0  0
  151.8509  137.2364  154.0845 O   0  0  0  0  0  0  0  0  0  0  0  0
  149.5906  137.4016  154.9040 C   0  0  0  0  0  0  0  0  0  0  0  0
  149.8350  135.9493  155.9697 S   0  0  0  0  0  0  0  0  0  0  0  0
  149.3887  136.6532  157.5278 C   0  0  0  0  0  0  0  0  0  0  0  0
  150.0830  136.5787  158.6583 N   0  0  0  0  0  0  0  0  0  0  0  0
  149.3186  137.2843  159.5675 N   0  0  0  0  0  0  0  0  0  0  0  0
  148.2368  137.7491  159.0136 N   0  0  0  0  0  0  0  0  0  0  0  0
  148.2656  137.3569  157.7167 N   0  0  0  0  0  0  0  0  0  0  0  0
  147.1979  137.7110  156.8025 C   0  0  0  0  0  0  0  0  0  0  0  0
  151.4147  140.8856  157.2261 C   0  0  0  0  0  0  0  0  0  0  0  0
  152.1826  140.5457  158.3381 C   0  0  0  0  0  0  0  0  0  0  0  0
  152.3142  141.5158  159.3568 C   0  0  0  0  0  0  0  0  0  0  0  0
  153.1437  141.1698  160.5817 C   0  0  0  0  0  0  0  0  0  0  0  0
  151.2055  144.6900  160.1621 H   0  0  0  0  0  0  0  0  0  0  0  0
  152.8662  144.1560  160.4181 H   0  0  0  0  0  0  0  0  0  0  0  0
  151.5385  143.3989  161.3112 H   0  0  0  0  0  0  0  0  0  0  0  0
  150.4338  144.0773  158.0159 H   0  0  0  0  0  0  0  0  0  0  0  0
  149.8657  140.6905  154.3099 H   0  0  0  0  0  0  0  0  0  0  0  0
  152.6203  138.8647  155.7302 H   0  0  0  0  0  0  0  0  0  0  0  0
  151.3562  138.2288  156.7481 H   0  0  0  0  0  0  0  0  0  0  0  0
  150.7197  138.9082  153.8518 H   0  0  0  0  0  0  0  0  0  0  0  0
  151.7425  137.1991  153.1461 H   0  0  0  0  0  0  0  0  0  0  0  0
  148.8723  138.0751  155.3729 H   0  0  0  0  0  0  0  0  0  0  0  0
  149.1466  137.0495  153.9733 H   0  0  0  0  0  0  0  0  0  0  0  0
  147.5984  138.3156  155.9887 H   0  0  0  0  0  0  0  0  0  0  0  0
  146.4239  138.2803  157.3187 H   0  0  0  0  0  0  0  0  0  0  0  0
  146.7540  136.8049  156.3894 H   0  0  0  0  0  0  0  0  0  0  0  0
  152.6569  139.5801  158.4298 H   0  0  0  0  0  0  0  0  0  0  0  0
  153.6278  140.1986  160.4748 H   0  0  0  0  0  0  0  0  0  0  0  0
  152.5135  141.1327  161.4705 H   0  0  0  0  0  0  0  0  0  0  0  0
  153.9249  141.9132  160.7406 H   0  0  0  0  0  0  0  0  0  0  0  0
  149.5646  142.9294  155.5300 H   0  0  0  0  0  0  0  0  0  0  0  0
  1  2  1  0  0  0  0
  1 23  1  0  0  0  0
  1 24  1  0  0  0  0
  1 25  1  0  0  0  0
  2 21  1  0  0  0  0
  2  3  2  0  0  0  0
  3  4  1  0  0  0  0
  3 26  1  0  0  0  0
  4 19  2  0  0  0  0
  4  5  1  0  0  0  0
  5  6  2  0  0  0  0
  5 41  1  0  0  0  0
  6  7  1  0  0  0  0
  6 27  1  0  0  0  0
  7  8  1  0  0  0  0
  7 19  1  0  0  0  0
  8  9  1  0  0  0  0
  8 28  1  0  0  0  0
  8 29  1  0  0  0  0
  9 10  1  0  0  0  0
  9 11  1  0  0  0  0
  9 30  1  0  0  0  0
 10 31  1  0  0  0  0
 11 12  1  0  0  0  0
 11 32  1  0  0  0  0
 11 33  1  0  0  0  0
 12 13  1  0  0  0  0
 13 17  1  0  0  0  0
 13 14  2  0  0  0  0
 14 15  1  0  0  0  0
 15 16  2  0  0  0  0
 16 17  1  0  0  0  0
 17 18  1  0  0  0  0
 18 34  1  0  0  0  0
 18 35  1  0  0  0  0
 18 36  1  0  0  0  0
 19 20  1  0  0  0  0
 20 21  2  0  0  0  0
 20 37  1  0  0  0  0
 21 22  1  0  0  0  0
 22 38  1  0  0  0  0
 22 39  1  0  0  0  0
 22 40  1  0  0  0  0
M  CHG  1   5   1
M  END
> <s_m_source_file>
AV-unprocessed.smi

> <i_m_source_file_index>
2734

> <i_lp_mmshare_version>
43012

> <i_f3d_flags>
0

> <s_epik_input>
W0NIM11jKFtjSF0xKWMoW0NIM10pW2NIXWMoYzEyKW4oW2NIXW4yKVtDSDJdW0NASF0oW09IXSlbQ0gyXVNjM25ubm4zW0NIM10=

> <s_epik_cmdline>
J2VwaWtfcHl0aG9uJywgJy1waCcsICc3LjAnLCAnLXRuJywgJzgnLCAnLW1hJywgJzIwMCcsICctbWV0YWxfYmluZGluZycsICctaW1hZScsICc8aW5maWxlLm1hZT4nLCAnLW9tYWUnLCAnPG91dGZpbGUubWFlPic=

> <r_lp_tautomer_probability>
1

> <r_epik_Ionization_Penalty>
1.07429

> <r_epik_Ionization_Penalty_Charging>
1.07429

> <r_epik_Ionization_Penalty_Neutral>
3.30514e-06

> <r_epik_State_Penalty>
1.12915

> <r_epik_Charging_Adjusted_Penalty>
2.20344

> <i_epik_Tot_Q>
1

> <i_epik_Tot_abs_Q>
1

> <r_epik_Metal_State_Penalty>
1.22002

> <b_epik_Metal_Only>
0

> <s_lp_Force_Field>
OPLS_2005

> <r_lp_Energy>
15.3116

> <b_lp_Chiralities_Consistent>
1

> <s_lp_Variant>
AV-unprocessed.smi:2734-4

> <Gold.Version>
5.8.1

> <Gold.Id.Protein>
6NUR|6NUR_protein|mol2

> <Gold.PLP.Fitness>
55.7702

> <Gold.PLP.PLP>
-42.3850

> <Gold.PLP.part.hbond>
-7.0000

> <Gold.PLP.part.metal>
0.0000

> <Gold.PLP.part.buried>
-5.3266

> <Gold.PLP.part.nonpolar>
-30.5087

> <Gold.PLP.part.repulsive>
0.1322

> <Gold.PLP.ligand.clash>
0.0000

> <Gold.PLP.ligand.torsion>
0.8236

> <Gold.PLP.Chemscore.Hbond>
4.9844

> <Gold.PLP.Chemscore.CHOScore>
0.0000

> <Gold.PLP.Chemscore.Metal>
0.0000

> <Gold.Chemscore.Hbonds>
donor molecule, donor type, donor heavy atom, donor atom, acceptor molecule, acceptor atom, score
      L1  H     5    41       P1  8028  2.00
      L1  H    10    31       P1  7949  0.70
      P1  H  6896  6909       L1    14  0.75
      P1  H 10752 10763       L1    10  0.80

> <Gold.PLP.Chemscore.Internal.Correction>
0.0793

> <Gold.Rescore>
     Score         DG    S(hbond)    S(metal)    S(lipo)     H(rot)  DE(clash)    DE(int)     intcor
     18.48     -19.28       3.13        0.00      92.48       2.92       0.01       0.79       ----

> <Gold.Chemscore.Fitness>
18.4795

> <Gold.Chemscore.DG>
-19.2803

> <Gold.Chemscore.ZeroCoef>
-5.4800

> <Gold.Chemscore.Hbond>
3.1274

> <Gold.Chemscore.Metal>
0.0000

> <Gold.Chemscore.Lipo>
92.4839

> <Gold.Chemscore.Internal_Hbond>
0.0000

> <Gold.Chemscore.DEClash>
0.0082

> <Gold.Chemscore.DEInternal>
0.7926

> <Gold.Chemscore.Rot>
2.9164

> <Gold.Chemscore.Internal.Correction>
   9.000000E+99

> <Gold.Chemscore.Hbonds>
donor molecule, donor type, donor heavy atom, donor atom, acceptor molecule, acceptor atom, score
      L1  H     5    41       P1  8028  0.95
      L1  H    10    31       P1  7949  0.66
      P1  H  6896  6909       L1    14  0.41
      P1  H 10752 10763       L1    10  0.11

> <Gold.Chemscore.Hbond.Weighted>
-10.4456

> <Gold.Chemscore.Metal.Weighted>
-0.0000

> <Gold.Chemscore.Lipo.Weighted>
-10.8206

> <Gold.Chemscore.Internal_Hbond.Weighted>
0.0000

> <Gold.Chemscore.DEClash.Weighted>
0.0082

> <Gold.Chemscore.DEInternal.Weighted>
0.7926

> <Gold.Chemscore.Rot.Weighted>
7.4660

> <Gold.Chemscore.Internal.Correction.Weighted>
   9.000000E+99

> <Gold.Protein.RotatedTorsions>
[ 6907 6896 6895 6894 ] final   75.64 input  -60.11 | X-H torsion
[ 7974 7965 7964 7962 ] final  156.68 input  175.53 | X-H torsion
[ 8008 7997 7996 7995 ] final  150.04 input   59.86 | X-H torsion
[ 10167 10162 10161 10158 ] final   97.68 input  -65.29 | X-H torsion
[ 10718 10713 10712 10709 ] final -105.31 input   66.30 | X-H torsion
[ 10763 10752 10751 10750 ] final   38.66 input  -60.55 | X-H torsion
[ 11005 11000 10999 10996 ] final  164.22 input  -57.11 | X-H torsion

> <Gold.Protein.ActiveResidues>
 VAL166  LYS551  ARG553  GLY616  TRP617  ASP618  TYR619  PRO620  LYS621  CYS622 
 ASP623  PHE694  ASN695  SER759  ASP760  ASP761  ALA762  ILE779  LEU786  VAL792 
 PHE793  MET794  SER795  GLU796  ALA797  LYS798  CYS799  TRP800  GLU811  SER814 

> <Gold.Protein.RotatedAtoms>
  152.5035  134.4090  159.9442 H   0  0  0  0  0  0  0  0  0  0  0  0  # atno 6907 bound_to 6896
  151.4057  133.3737  159.2745 H   0  0  0  0  0  0  0  0  0  0  0  0  # atno 6908 bound_to 6896
  150.9328  134.8764  159.7621 H   0  0  0  0  0  0  0  0  0  0  0  0  # atno 6909 bound_to 6896
  144.7948  139.7237  143.6206 H   0  0  0  0  0  0  0  0  0  0  0  0  # atno 7974 bound_to 7965
  156.2732  140.2085  156.5953 H   0  0  0  0  0  0  0  0  0  0  0  0  # atno 8008 bound_to 7997
  154.6950  140.0526  157.0424 H   0  0  0  0  0  0  0  0  0  0  0  0  # atno 8009 bound_to 7997
  155.0814  140.3187  155.4603 H   0  0  0  0  0  0  0  0  0  0  0  0  # atno 8010 bound_to 7997
  139.7778  144.6899  151.0065 H   0  0  0  0  0  0  0  0  0  0  0  0  # atno 10167 bound_to 10162
  156.0340  130.5557  150.7520 H   0  0  0  0  0  0  0  0  0  0  0  0  # atno 10718 bound_to 10713
  152.9993  135.6243  154.2341 H   0  0  0  0  0  0  0  0  0  0  0  0  # atno 10763 bound_to 10752
  154.2082  135.2801  155.2969 H   0  0  0  0  0  0  0  0  0  0  0  0  # atno 10764 bound_to 10752
  154.5628  135.5700  153.7081 H   0  0  0  0  0  0  0  0  0  0  0  0  # atno 10765 bound_to 10752
  140.2437  134.8031  157.3436 H   0  0  0  0  0  0  0  0  0  0  0  0  # atno 11005 bound_to 11000
  146.2213  139.5641  142.9616 LP  0  0  0  0  0  0  0  0  0  0  0  0  # atno 17320 bound_to 7965
  145.5701  141.0395  143.2179 LP  0  0  0  0  0  0  0  0  0  0  0  0  # atno 17321 bound_to 7965
  140.7817  143.4516  151.0404 LP  0  0  0  0  0  0  0  0  0  0  0  0  # atno 17342 bound_to 10162
  139.8198  143.7836  152.3176 LP  0  0  0  0  0  0  0  0  0  0  0  0  # atno 17343 bound_to 10162
  157.5062  131.0922  151.0254 LP  0  0  0  0  0  0  0  0  0  0  0  0  # atno 17370 bound_to 10713
  157.0622  130.5830  149.5388 LP  0  0  0  0  0  0  0  0  0  0  0  0  # atno 17371 bound_to 10713
  140.1627  134.4708  155.7884 LP  0  0  0  0  0  0  0  0  0  0  0  0  # atno 17394 bound_to 11000
  141.2208  133.6908  156.7572 LP  0  0  0  0  0  0  0  0  0  0  0  0  # atno 17395 bound_to 11000

$$$$
