AV-unprocessed.smi:2678|AV-procd|sdf|10368|dock1
  -GOLD-   2272014393D 1   1.00000     0.00000
 Structure written by MMmdl.
 46 47  0  0  0  0  0  0  0  0  1 V2000
  151.7346  139.5878  158.1711 C   0  0  0  0  0  0  0  0  0  0  0  0
  151.7393  141.0759  157.7976 C   0  0  0  0  0  0  0  0  0  0  0  0
  151.5998  141.9723  159.0385 C   0  0  0  0  0  0  0  0  0  0  0  0
  150.6600  141.3419  156.8510 N   0  0  0  0  0  0  0  0  0  0  0  0
  150.5684  140.8357  155.6108 C   0  0  0  0  0  0  0  0  0  0  0  0
  151.4056  140.0716  155.1290 O   0  0  0  0  0  0  0  0  0  0  0  0
  149.3466  141.2633  154.7868 C   0  0  2  0  0  0  0  0  0  0  0  0
  148.2179  141.7938  155.6956 C   0  0  0  0  0  0  0  0  0  0  0  0
  146.9877  142.2076  154.8721 C   0  0  0  0  0  0  0  0  0  0  0  0
  146.4868  141.0492  153.9948 C   0  0  0  0  0  0  0  0  0  0  0  0
  147.6053  140.5122  153.0829 C   0  0  2  0  0  0  0  0  0  0  0  0
  147.0994  139.3839  152.2978 N   0  0  0  0  0  0  0  0  0  0  0  0
  146.3473  138.3478  152.7129 C   0  0  0  0  0  0  0  0  0  0  0  0
  146.0030  138.2438  153.8882 O   0  0  0  0  0  0  0  0  0  0  0  0
  146.0419  137.4651  151.7417 N   0  0  0  0  0  0  0  0  0  0  0  0
  145.3179  136.2469  151.8374 C   0  0  0  0  0  0  0  0  0  0  0  0
  145.2138  135.2943  150.7953 C   0  0  0  0  0  0  0  0  0  0  0  0
  144.4765  134.1164  151.0241 C   0  0  0  0  0  0  0  0  0  0  0  0
  143.8783  133.9303  152.2856 C   0  0  0  0  0  0  0  0  0  0  0  0
  143.9817  134.8235  153.2922 N   0  0  0  0  0  0  0  0  0  0  0  0
  144.6900  135.9502  153.0656 C   0  0  0  0  0  0  0  0  0  0  0  0
  148.8306  140.0934  153.9236 C   0  0  0  0  0  0  0  0  0  0  0  0
  152.5586  139.3511  158.8448 H   0  0  0  0  0  0  0  0  0  0  0  0
  151.8431  138.9598  157.2861 H   0  0  0  0  0  0  0  0  0  0  0  0
  150.8067  139.3050  158.6698 H   0  0  0  0  0  0  0  0  0  0  0  0
  152.6947  141.2938  157.3167 H   0  0  0  0  0  0  0  0  0  0  0  0
  152.4065  141.7855  159.7480 H   0  0  0  0  0  0  0  0  0  0  0  0
  150.6559  141.7927  159.5545 H   0  0  0  0  0  0  0  0  0  0  0  0
  151.6381  143.0288  158.7715 H   0  0  0  0  0  0  0  0  0  0  0  0
  149.9255  141.9606  157.1629 H   0  0  0  0  0  0  0  0  0  0  0  0
  149.6509  142.0704  154.1176 H   0  0  0  0  0  0  0  0  0  0  0  0
  147.9244  141.0304  156.4181 H   0  0  0  0  0  0  0  0  0  0  0  0
  148.5722  142.6473  156.2752 H   0  0  0  0  0  0  0  0  0  0  0  0
  146.1905  142.5408  155.5372 H   0  0  0  0  0  0  0  0  0  0  0  0
  147.2402  143.0606  154.2412 H   0  0  0  0  0  0  0  0  0  0  0  0
  146.1123  140.2479  154.6339 H   0  0  0  0  0  0  0  0  0  0  0  0
  145.6416  141.3851  153.3929 H   0  0  0  0  0  0  0  0  0  0  0  0
  147.8941  141.3193  152.4072 H   0  0  0  0  0  0  0  0  0  0  0  0
  147.3530  139.3864  151.3201 H   0  0  0  0  0  0  0  0  0  0  0  0
  146.4490  137.6538  150.8374 H   0  0  0  0  0  0  0  0  0  0  0  0
  145.6910  135.4337  149.8380 H   0  0  0  0  0  0  0  0  0  0  0  0
  144.3753  133.3699  150.2503 H   0  0  0  0  0  0  0  0  0  0  0  0
  143.3064  133.0382  152.4939 H   0  0  0  0  0  0  0  0  0  0  0  0
  144.7534  136.6414  153.8936 H   0  0  0  0  0  0  0  0  0  0  0  0
  149.6311  139.7401  153.2721 H   0  0  0  0  0  0  0  0  0  0  0  0
  148.5616  139.2491  154.5610 H   0  0  0  0  0  0  0  0  0  0  0  0
  1  2  1  0  0  0  0
  1 23  1  0  0  0  0
  1 24  1  0  0  0  0
  1 25  1  0  0  0  0
  2  3  1  0  0  0  0
  2  4  1  0  0  0  0
  2 26  1  0  0  0  0
  3 27  1  0  0  0  0
  3 28  1  0  0  0  0
  3 29  1  0  0  0  0
  4  5  1  0  0  0  0
  4 30  1  0  0  0  0
  5  6  2  0  0  0  0
  5  7  1  0  0  0  0
  7 22  1  0  0  0  0
  7  8  1  0  0  0  0
  7 31  1  0  0  0  0
  8  9  1  0  0  0  0
  8 32  1  0  0  0  0
  8 33  1  0  0  0  0
  9 10  1  0  0  0  0
  9 34  1  0  0  0  0
  9 35  1  0  0  0  0
 10 11  1  0  0  0  0
 10 36  1  0  0  0  0
 10 37  1  0  0  0  0
 11 12  1  0  0  0  0
 11 22  1  0  0  0  0
 11 38  1  0  0  0  0
 12 13  1  0  0  0  0
 12 39  1  0  0  0  0
 13 14  2  0  0  0  0
 13 15  1  0  0  0  0
 15 16  1  0  0  0  0
 15 40  1  0  0  0  0
 16 21  1  0  0  0  0
 16 17  2  0  0  0  0
 17 18  1  0  0  0  0
 17 41  1  0  0  0  0
 18 19  2  0  0  0  0
 18 42  1  0  0  0  0
 19 20  1  0  0  0  0
 19 43  1  0  0  0  0
 20 21  2  0  0  0  0
 21 44  1  0  0  0  0
 22 45  1  0  0  0  0
 22 46  1  0  0  0  0
M  END
> <s_m_source_file>
AV-unprocessed.smi

> <i_m_source_file_index>
2678

> <i_lp_mmshare_version>
43012

> <i_f3d_flags>
0

> <s_epik_input>
W0NIM11bQ0hdKFtDSDNdKVtOSF1DKD1PKVtDQEBIXTFbQ0gyXVtDSDJdW0NIMl1bQ0BIXShbQ0gyXTEpW05IXUMoPU8pW05IXWMyW2NIXVtjSF1bY0hdbltjSF0y

> <s_epik_cmdline>
J2VwaWtfcHl0aG9uJywgJy1waCcsICc3LjAnLCAnLXRuJywgJzgnLCAnLW1hJywgJzIwMCcsICctbWV0YWxfYmluZGluZycsICctaW1hZScsICc8aW5maWxlLm1hZT4nLCAnLW9tYWUnLCAnPG91dGZpbGUubWFlPic=

> <r_epik_Ionization_Penalty>
0.00482944

> <r_epik_Ionization_Penalty_Charging>
0

> <r_epik_Ionization_Penalty_Neutral>
0.00482944

> <r_epik_State_Penalty>
0.00347168

> <r_epik_Charging_Adjusted_Penalty>
0.00347168

> <i_epik_Tot_Q>
0

> <i_epik_Tot_abs_Q>
0

> <r_epik_Metal_State_Penalty>
-0

> <b_epik_Metal_Only>
0

> <s_lp_Force_Field>
OPLS_2005

> <r_lp_Energy>
22.9796

> <b_lp_Chiralities_Consistent>
1

> <s_lp_Variant>
AV-unprocessed.smi:2678-3

> <Gold.Version>
5.8.1

> <Gold.Id.Protein>
6NUR|6NUR_protein|mol2

> <Gold.PLP.Fitness>
38.3572

> <Gold.PLP.PLP>
-35.4101

> <Gold.PLP.part.hbond>
-3.3350

> <Gold.PLP.part.metal>
0.0000

> <Gold.PLP.part.buried>
0.3396

> <Gold.PLP.part.nonpolar>
-33.8258

> <Gold.PLP.part.repulsive>
0.4343

> <Gold.PLP.ligand.clash>
0.3926

> <Gold.PLP.ligand.torsion>
0.8718

> <Gold.PLP.Chemscore.Hbond>
1.0530

> <Gold.PLP.Chemscore.CHOScore>
0.6270

> <Gold.PLP.Chemscore.Metal>
0.0000

> <Gold.Chemscore.Hbonds>
donor molecule, donor type, donor heavy atom, donor atom, acceptor molecule, acceptor atom, score
      L1  H    12    39       P1  7957  0.06
      P1  H  7989  7998       L1     6  1.00
      L1  C    19    43       P1 10957  0.63

> <Gold.PLP.Chemscore.Internal.Correction>
0.0432

> <Gold.Rescore>
     Score         DG    S(hbond)    S(metal)    S(lipo)     H(rot)  DE(clash)    DE(int)     intcor
     10.63     -14.11       0.95        0.00      78.64       1.46       0.01       3.47       ----

> <Gold.Chemscore.Fitness>
10.6255

> <Gold.Chemscore.DG>
-14.1055

> <Gold.Chemscore.ZeroCoef>
-5.4800

> <Gold.Chemscore.Hbond>
0.9471

> <Gold.Chemscore.Metal>
0.0000

> <Gold.Chemscore.Lipo>
78.6382

> <Gold.Chemscore.Internal_Hbond>
0.0000

> <Gold.Chemscore.DEClash>
0.0146

> <Gold.Chemscore.DEInternal>
3.4654

> <Gold.Chemscore.Rot>
1.4603

> <Gold.Chemscore.Internal.Correction>
   9.000000E+99

> <Gold.Chemscore.Hbonds>
donor molecule, donor type, donor heavy atom, donor atom, acceptor molecule, acceptor atom, score
      L1  H    12    39       P1  7957  0.06
      P1  H  7989  7998       L1     6  0.25

> <Gold.Chemscore.Hbond.Weighted>
-3.1632

> <Gold.Chemscore.Metal.Weighted>
-0.0000

> <Gold.Chemscore.Lipo.Weighted>
-9.2007

> <Gold.Chemscore.Internal_Hbond.Weighted>
0.0000

> <Gold.Chemscore.DEClash.Weighted>
0.0146

> <Gold.Chemscore.DEInternal.Weighted>
3.4654

> <Gold.Chemscore.Rot.Weighted>
3.7383

> <Gold.Chemscore.Internal.Correction.Weighted>
   9.000000E+99

> <Gold.Protein.RotatedTorsions>
[ 6907 6896 6895 6894 ] final -141.09 input  -60.11 | X-H torsion
[ 7974 7965 7964 7962 ] final  136.30 input  175.53 | X-H torsion
[ 8008 7997 7996 7995 ] final -178.43 input   59.86 | X-H torsion
[ 10167 10162 10161 10158 ] final  -48.90 input  -65.29 | X-H torsion
[ 10718 10713 10712 10709 ] final  175.79 input   66.30 | X-H torsion
[ 10763 10752 10751 10750 ] final  -66.45 input  -60.55 | X-H torsion
[ 11005 11000 10999 10996 ] final   90.45 input  -57.11 | X-H torsion

> <Gold.Protein.ActiveResidues>
 VAL166  LYS551  ARG553  GLY616  TRP617  ASP618  TYR619  PRO620  LYS621  CYS622 
 ASP623  PHE694  ASN695  SER759  ASP760  ASP761  ALA762  ILE779  LEU786  VAL792 
 PHE793  MET794  SER795  GLU796  ALA797  LYS798  CYS799  TRP800  GLU811  SER814 

> <Gold.Protein.RotatedAtoms>
  151.0693  133.5479  159.2628 H   0  0  0  0  0  0  0  0  0  0  0  0  # atno 6907 bound_to 6896
  151.2425  135.0593  159.9040 H   0  0  0  0  0  0  0  0  0  0  0  0  # atno 6908 bound_to 6896
  152.5409  134.0466  159.8145 H   0  0  0  0  0  0  0  0  0  0  0  0  # atno 6909 bound_to 6896
  144.9578  139.4744  143.5494 H   0  0  0  0  0  0  0  0  0  0  0  0  # atno 7974 bound_to 7965
  156.0187  140.1256  157.0379 H   0  0  0  0  0  0  0  0  0  0  0  0  # atno 8008 bound_to 7997
  154.4303  140.1073  156.6003 H   0  0  0  0  0  0  0  0  0  0  0  0  # atno 8009 bound_to 7997
  155.5975  140.3470  155.4586 H   0  0  0  0  0  0  0  0  0  0  0  0  # atno 8010 bound_to 7997
  140.6710  143.2720  151.4138 H   0  0  0  0  0  0  0  0  0  0  0  0  # atno 10167 bound_to 10162
  156.9297  130.9967  151.2989 H   0  0  0  0  0  0  0  0  0  0  0  0  # atno 10718 bound_to 10713
  154.3600  135.6118  153.5685 H   0  0  0  0  0  0  0  0  0  0  0  0  # atno 10763 bound_to 10752
  152.9794  135.5813  154.4644 H   0  0  0  0  0  0  0  0  0  0  0  0  # atno 10764 bound_to 10752
  154.4380  135.2849  155.1844 H   0  0  0  0  0  0  0  0  0  0  0  0  # atno 10765 bound_to 10752
  139.8856  134.8614  156.3287 H   0  0  0  0  0  0  0  0  0  0  0  0  # atno 11005 bound_to 11000
  146.3343  139.8708  142.8840 LP  0  0  0  0  0  0  0  0  0  0  0  0  # atno 17320 bound_to 7965
  145.2745  141.0119  143.3752 LP  0  0  0  0  0  0  0  0  0  0  0  0  # atno 17321 bound_to 7965
  139.5978  144.1360  152.2164 LP  0  0  0  0  0  0  0  0  0  0  0  0  # atno 17342 bound_to 10162
  140.0735  144.5760  150.7174 LP  0  0  0  0  0  0  0  0  0  0  0  0  # atno 17343 bound_to 10162
  157.5855  130.8406  149.8583 LP  0  0  0  0  0  0  0  0  0  0  0  0  # atno 17370 bound_to 10713
  156.0453  130.3729  150.1334 LP  0  0  0  0  0  0  0  0  0  0  0  0  # atno 17371 bound_to 10713
  140.9738  133.7311  156.0572 LP  0  0  0  0  0  0  0  0  0  0  0  0  # atno 17394 bound_to 11000
  140.7837  134.3696  157.5481 LP  0  0  0  0  0  0  0  0  0  0  0  0  # atno 17395 bound_to 11000

$$$$
