AV-unprocessed.smi:258|AV-procd|sdf|1966|dock3
  -GOLD-   2262021113D 1   1.00000     0.00000
 Structure written by MMmdl.
 57 60  0  0  0  0  0  0  0  0  1 V2000
  153.8608  132.8490  158.3754 O   0  0  0  0  0  0  0  0  0  0  0  0
  153.4297  131.8821  157.4412 C   0  0  0  0  0  0  0  0  0  0  0  0
  151.9424  131.5708  157.6473 C   0  0  0  0  0  0  0  0  0  0  0  0
  151.2422  132.7848  157.8794 O   0  0  0  0  0  0  0  0  0  0  0  0
  150.7717  133.4266  156.7016 C   0  0  1  0  0  0  0  0  0  0  0  0
  149.3060  133.0450  156.4122 C   0  0  0  0  0  0  0  0  0  0  0  0
  148.7696  133.8607  155.2262 C   0  0  0  0  0  0  0  0  0  0  0  0
  148.9426  135.3684  155.4698 C   0  0  0  0  0  0  0  0  0  0  0  0
  150.3346  135.6871  155.7920 N   0  0  0  0  0  0  0  0  0  0  0  0
  150.7197  136.9870  155.7188 C   0  0  0  0  0  0  0  0  0  0  0  0
  151.6591  137.3674  154.8110 N   0  0  0  0  0  0  0  0  0  0  0  0
  152.0357  138.6465  154.7230 C   0  0  0  0  0  0  0  0  0  0  0  0
  151.6112  139.6928  155.4340 N   0  0  0  0  0  0  0  0  0  0  0  0
  150.6765  139.3171  156.3527 C   0  0  0  0  0  0  0  0  0  0  0  0
  150.1797  137.9994  156.5623 C   0  0  0  0  0  0  0  0  0  0  0  0
  149.2493  138.0052  157.5958 N   0  0  0  0  0  0  0  0  0  0  0  0
  149.1893  139.2554  157.9652 C   0  0  0  0  0  0  0  0  0  0  0  0
  150.0152  140.1110  157.2720 N   0  0  0  0  0  0  0  0  0  0  0  0
  150.1497  141.5433  157.4710 C   0  0  0  0  0  0  0  0  0  0  0  0
  150.5360  141.9315  158.9203 C   0  0  2  0  0  0  0  0  0  0  0  0
  150.1145  143.3750  159.2878 C   0  0  0  0  0  0  0  0  0  0  0  0
  150.6149  144.3123  158.3563 O   0  0  0  0  0  0  0  0  0  0  0  0
  152.0386  141.6712  159.1957 C   0  0  2  0  0  0  0  0  0  0  0  0
  152.4163  140.2072  159.3386 C   0  0  0  0  0  0  0  0  0  0  0  0
  153.7704  140.2905  160.0350 C   0  0  0  0  0  0  0  0  0  0  0  0
  153.7128  141.4548  160.8520 O   0  0  0  0  0  0  0  0  0  0  0  0
  152.5539  142.2178  160.5311 C   0  0  0  0  0  0  0  0  0  0  0  0
  150.8921  134.9446  156.9227 C   0  0  0  0  0  0  0  0  0  0  0  0
  154.2408  132.4022  159.1162 H   0  0  0  0  0  0  0  0  0  0  0  0
  153.6285  132.2185  156.4233 H   0  0  0  0  0  0  0  0  0  0  0  0
  154.0210  130.9810  157.6048 H   0  0  0  0  0  0  0  0  0  0  0  0
  151.5480  131.1136  156.7386 H   0  0  0  0  0  0  0  0  0  0  0  0
  151.8045  130.8522  158.4558 H   0  0  0  0  0  0  0  0  0  0  0  0
  151.4005  133.1560  155.8512 H   0  0  0  0  0  0  0  0  0  0  0  0
  149.2147  131.9818  156.1929 H   0  0  0  0  0  0  0  0  0  0  0  0
  148.6941  133.2363  157.2947 H   0  0  0  0  0  0  0  0  0  0  0  0
  149.3031  133.5756  154.3186 H   0  0  0  0  0  0  0  0  0  0  0  0
  147.7185  133.6280  155.0545 H   0  0  0  0  0  0  0  0  0  0  0  0
  148.6273  135.9162  154.5805 H   0  0  0  0  0  0  0  0  0  0  0  0
  148.3008  135.6886  156.2918 H   0  0  0  0  0  0  0  0  0  0  0  0
  152.7836  138.8620  153.9742 H   0  0  0  0  0  0  0  0  0  0  0  0
  148.5428  139.5892  158.7639 H   0  0  0  0  0  0  0  0  0  0  0  0
  150.8971  141.9053  156.7646 H   0  0  0  0  0  0  0  0  0  0  0  0
  149.2083  142.0182  157.1922 H   0  0  0  0  0  0  0  0  0  0  0  0
  149.9707  141.2736  159.5821 H   0  0  0  0  0  0  0  0  0  0  0  0
  149.0291  143.4677  159.3278 H   0  0  0  0  0  0  0  0  0  0  0  0
  150.4716  143.6440  160.2816 H   0  0  0  0  0  0  0  0  0  0  0  0
  149.8835  144.7471  157.9453 H   0  0  0  0  0  0  0  0  0  0  0  0
  152.6377  142.1005  158.3910 H   0  0  0  0  0  0  0  0  0  0  0  0
  151.6992  139.6884  159.9764 H   0  0  0  0  0  0  0  0  0  0  0  0
  152.4705  139.6798  158.3860 H   0  0  0  0  0  0  0  0  0  0  0  0
  153.9931  139.3999  160.6229 H   0  0  0  0  0  0  0  0  0  0  0  0
  154.5670  140.4208  159.3016 H   0  0  0  0  0  0  0  0  0  0  0  0
  152.7879  143.2815  160.4853 H   0  0  0  0  0  0  0  0  0  0  0  0
  151.8170  142.0677  161.3213 H   0  0  0  0  0  0  0  0  0  0  0  0
  150.3521  135.2326  157.8259 H   0  0  0  0  0  0  0  0  0  0  0  0
  151.9373  135.1997  157.0930 H   0  0  0  0  0  0  0  0  0  0  0  0
  1  2  1  0  0  0  0
  1 29  1  0  0  0  0
  2  3  1  0  0  0  0
  2 30  1  0  0  0  0
  2 31  1  0  0  0  0
  3  4  1  0  0  0  0
  3 32  1  0  0  0  0
  3 33  1  0  0  0  0
  4  5  1  0  0  0  0
  5 28  1  0  0  0  0
  5  6  1  0  0  0  0
  5 34  1  0  0  0  0
  6  7  1  0  0  0  0
  6 35  1  0  0  0  0
  6 36  1  0  0  0  0
  7  8  1  0  0  0  0
  7 37  1  0  0  0  0
  7 38  1  0  0  0  0
  8  9  1  0  0  0  0
  8 39  1  0  0  0  0
  8 40  1  0  0  0  0
  9 10  1  0  0  0  0
  9 28  1  0  0  0  0
 10 15  1  0  0  0  0
 10 11  2  0  0  0  0
 11 12  1  0  0  0  0
 12 13  2  0  0  0  0
 12 41  1  0  0  0  0
 13 14  1  0  0  0  0
 14 18  1  0  0  0  0
 14 15  2  0  0  0  0
 15 16  1  0  0  0  0
 16 17  2  0  0  0  0
 17 18  1  0  0  0  0
 17 42  1  0  0  0  0
 18 19  1  0  0  0  0
 19 20  1  0  0  0  0
 19 43  1  0  0  0  0
 19 44  1  0  0  0  0
 20 21  1  0  0  0  0
 20 23  1  0  0  0  0
 20 45  1  0  0  0  0
 21 22  1  0  0  0  0
 21 46  1  0  0  0  0
 21 47  1  0  0  0  0
 22 48  1  0  0  0  0
 23 27  1  0  0  0  0
 23 24  1  0  0  0  0
 23 49  1  0  0  0  0
 24 25  1  0  0  0  0
 24 50  1  0  0  0  0
 24 51  1  0  0  0  0
 25 26  1  0  0  0  0
 25 52  1  0  0  0  0
 25 53  1  0  0  0  0
 26 27  1  0  0  0  0
 27 54  1  0  0  0  0
 27 55  1  0  0  0  0
 28 56  1  0  0  0  0
 28 57  1  0  0  0  0
M  END
> <s_m_source_file>
AV-unprocessed.smi

> <i_m_source_file_index>
258

> <i_lp_mmshare_version>
43012

> <i_f3d_flags>
0

> <s_epik_input>
W09IXVtDSDJdW0NIMl1PW0NAQEhdMVtDSDJdW0NIMl1bQ0gyXU4oW0NIMl0xKWMobltjSF1uMiljKGMyMyluW2NIXW4zW0NIMl1bQ0BIXShbQ0gyXVtPSF0pW0NAQEhdNFtDSDJdW0NIMl1PW0NIMl00

> <s_epik_cmdline>
J2VwaWtfcHl0aG9uJywgJy1waCcsICc3LjAnLCAnLXRuJywgJzgnLCAnLW1hJywgJzIwMCcsICctbWV0YWxfYmluZGluZycsICctaW1hZScsICc8aW5maWxlLm1hZT4nLCAnLW9tYWUnLCAnPG91dGZpbGUubWFlPic=

> <r_lp_tautomer_probability>
1

> <r_epik_Ionization_Penalty>
0.00349036

> <r_epik_Ionization_Penalty_Charging>
0

> <r_epik_Ionization_Penalty_Neutral>
0.00349036

> <r_epik_State_Penalty>
0.00229798

> <r_epik_Charging_Adjusted_Penalty>
0.00229798

> <i_epik_Tot_Q>
0

> <i_epik_Tot_abs_Q>
0

> <r_epik_Metal_State_Penalty>
-0

> <b_epik_Metal_Only>
0

> <s_lp_Force_Field>
OPLS_2005

> <r_lp_Energy>
45.891

> <b_lp_Chiralities_Consistent>
1

> <s_lp_Variant>
AV-unprocessed.smi:258-2

> <Gold.Version>
5.8.1

> <Gold.Id.Protein>
6NUR|6NUR_protein|mol2

> <Gold.PLP.Fitness>
51.6175

> <Gold.PLP.PLP>
-43.7065

> <Gold.PLP.part.hbond>
-5.4400

> <Gold.PLP.part.metal>
0.0000

> <Gold.PLP.part.buried>
-7.5313

> <Gold.PLP.part.nonpolar>
-31.2296

> <Gold.PLP.part.repulsive>
0.2557

> <Gold.PLP.ligand.clash>
0.0000

> <Gold.PLP.ligand.torsion>
1.4515

> <Gold.PLP.Chemscore.Hbond>
3.3736

> <Gold.PLP.Chemscore.CHOScore>
0.0000

> <Gold.PLP.Chemscore.Metal>
0.0000

> <Gold.Chemscore.Hbonds>
donor molecule, donor type, donor heavy atom, donor atom, acceptor molecule, acceptor atom, score
      L1  H    22    48       P1  8029  0.05
      P1  H  6896  6907       L1     4  0.83
      P1  H  7989  7998       L1    13  0.15
      P1  H 10752 10763       L1    11  0.38

> <Gold.PLP.Chemscore.Internal.Correction>
0.6931

> <Gold.Rescore>
     Score         DG    S(hbond)    S(metal)    S(lipo)     H(rot)  DE(clash)    DE(int)     intcor
     12.47     -13.85       2.67        0.00      87.81       4.22       0.01       1.37       ----

> <Gold.Chemscore.Fitness>
12.4658

> <Gold.Chemscore.DG>
-13.8461

> <Gold.Chemscore.ZeroCoef>
-5.4800

> <Gold.Chemscore.Hbond>
2.6668

> <Gold.Chemscore.Metal>
0.0000

> <Gold.Chemscore.Lipo>
87.8105

> <Gold.Chemscore.Internal_Hbond>
0.0000

> <Gold.Chemscore.DEClash>
0.0077

> <Gold.Chemscore.DEInternal>
1.3725

> <Gold.Chemscore.Rot>
4.2246

> <Gold.Chemscore.Internal.Correction>
   9.000000E+99

> <Gold.Chemscore.Hbonds>
donor molecule, donor type, donor heavy atom, donor atom, acceptor molecule, acceptor atom, score
      P1  H  6896  6907       L1     4  0.70
      P1  H 10752 10763       L1    11  0.32

> <Gold.Chemscore.Hbond.Weighted>
-8.9072

> <Gold.Chemscore.Metal.Weighted>
-0.0000

> <Gold.Chemscore.Lipo.Weighted>
-10.2738

> <Gold.Chemscore.Internal_Hbond.Weighted>
0.0000

> <Gold.Chemscore.DEClash.Weighted>
0.0077

> <Gold.Chemscore.DEInternal.Weighted>
1.3725

> <Gold.Chemscore.Rot.Weighted>
10.8149

> <Gold.Chemscore.Internal.Correction.Weighted>
   9.000000E+99

> <Gold.Protein.RotatedTorsions>
[ 6907 6896 6895 6894 ] final -166.97 input  -60.11 | X-H torsion
[ 7974 7965 7964 7962 ] final -170.02 input  175.53 | X-H torsion
[ 8008 7997 7996 7995 ] final  -54.93 input   59.86 | X-H torsion
[ 10167 10162 10161 10158 ] final  116.29 input  -65.29 | X-H torsion
[ 10718 10713 10712 10709 ] final  -94.17 input   66.30 | X-H torsion
[ 10763 10752 10751 10750 ] final   29.81 input  -60.55 | X-H torsion
[ 11005 11000 10999 10996 ] final   21.10 input  -57.11 | X-H torsion

> <Gold.Protein.ActiveResidues>
 VAL166  LYS551  ARG553  GLY616  TRP617  ASP618  TYR619  PRO620  LYS621  CYS622 
 ASP623  PHE694  ASN695  SER759  ASP760  ASP761  ALA762  ILE779  LEU786  VAL792 
 PHE793  MET794  SER795  GLU796  ALA797  LYS798  CYS799  TRP800  GLU811  SER814 

> <Gold.Protein.RotatedAtoms>
  151.4520  133.3615  159.2796 H   0  0  0  0  0  0  0  0  0  0  0  0  # atno 6907 bound_to 6896
  150.9084  134.8502  159.7419 H   0  0  0  0  0  0  0  0  0  0  0  0  # atno 6908 bound_to 6896
  152.4919  134.4447  159.9607 H   0  0  0  0  0  0  0  0  0  0  0  0  # atno 6909 bound_to 6896
  144.7176  140.2134  143.6324 H   0  0  0  0  0  0  0  0  0  0  0  0  # atno 7974 bound_to 7965
  154.4178  140.1165  156.5395 H   0  0  0  0  0  0  0  0  0  0  0  0  # atno 8008 bound_to 7997
  155.6523  140.3496  155.4733 H   0  0  0  0  0  0  0  0  0  0  0  0  # atno 8009 bound_to 7997
  155.9782  140.1155  157.0740 H   0  0  0  0  0  0  0  0  0  0  0  0  # atno 8010 bound_to 7997
  139.6257  144.7108  151.2538 H   0  0  0  0  0  0  0  0  0  0  0  0  # atno 10167 bound_to 10162
  156.0023  130.5057  150.5887 H   0  0  0  0  0  0  0  0  0  0  0  0  # atno 10718 bound_to 10713
  153.0408  135.6479  154.0948 H   0  0  0  0  0  0  0  0  0  0  0  0  # atno 10763 bound_to 10752
  154.0655  135.2884  155.3319 H   0  0  0  0  0  0  0  0  0  0  0  0  # atno 10764 bound_to 10752
  154.6629  135.5385  153.8105 H   0  0  0  0  0  0  0  0  0  0  0  0  # atno 10765 bound_to 10752
  140.3953  134.1776  155.7663 H   0  0  0  0  0  0  0  0  0  0  0  0  # atno 11005 bound_to 11000
  145.8569  139.2203  143.1739 LP  0  0  0  0  0  0  0  0  0  0  0  0  # atno 17320 bound_to 7965
  146.0209  140.8348  142.9923 LP  0  0  0  0  0  0  0  0  0  0  0  0  # atno 17321 bound_to 7965
  140.7409  143.6572  150.8196 LP  0  0  0  0  0  0  0  0  0  0  0  0  # atno 17342 bound_to 10162
  140.0189  143.5563  152.2808 LP  0  0  0  0  0  0  0  0  0  0  0  0  # atno 17343 bound_to 10162
  157.3755  131.0772  151.1521 LP  0  0  0  0  0  0  0  0  0  0  0  0  # atno 17370 bound_to 10713
  157.2261  130.6503  149.5830 LP  0  0  0  0  0  0  0  0  0  0  0  0  # atno 17371 bound_to 10713
  141.1876  133.8277  157.1025 LP  0  0  0  0  0  0  0  0  0  0  0  0  # atno 17394 bound_to 11000
  140.0376  134.9870  157.0901 LP  0  0  0  0  0  0  0  0  0  0  0  0  # atno 17395 bound_to 11000

$$$$
