AV-unprocessed.smi:699|AV-procd|sdf|3400|dock7
  -GOLD-   22720 0383D 1   1.00000     0.00000
 Structure written by MMmdl.
 34 35  0  0  0  0  0  0  0  0  1 V2000
  149.4842  137.3763  154.1012 N   0  0  0  0  0  0  0  0  0  0  0  0
  149.3181  138.6921  154.2557 C   0  0  0  0  0  0  0  0  0  0  0  0
  150.2465  139.4854  154.1092 O   0  0  0  0  0  0  0  0  0  0  0  0
  147.8986  139.1794  154.6197 C   0  0  1  0  0  0  0  0  0  0  0  0
  147.8424  140.7131  154.6826 C   0  0  0  0  0  0  0  0  0  0  0  0
  147.5180  141.1815  153.2605 C   0  0  0  0  0  0  0  0  0  0  0  0
  146.7592  140.0257  152.5947 C   0  0  0  0  0  0  0  0  0  0  0  0
  146.8007  138.8408  153.5775 C   0  0  1  0  0  0  0  0  0  0  0  0
  146.9942  137.5724  152.8723 N   0  0  0  0  0  0  0  0  0  0  0  0
  146.0117  136.7283  152.5258 C   0  0  0  0  0  0  0  0  0  0  0  0
  144.8234  136.9422  152.7647 O   0  0  0  0  0  0  0  0  0  0  0  0
  146.5026  135.6488  151.8924 N   0  0  0  0  0  0  0  0  0  0  0  0
  145.8104  134.5272  151.3576 C   0  0  0  0  0  0  0  0  0  0  0  0
  146.5868  133.4487  150.8851 C   0  0  0  0  0  0  0  0  0  0  0  0
  145.9321  132.3173  150.3589 C   0  0  0  0  0  0  0  0  0  0  0  0
  144.5894  132.2043  150.2872 N   0  0  0  0  0  0  0  0  0  0  0  0
  143.8467  133.2317  150.7502 C   0  0  0  0  0  0  0  0  0  0  0  0
  144.4006  134.4072  151.2960 C   0  0  0  0  0  0  0  0  0  0  0  0
  150.3945  137.0115  153.8612 H   0  0  0  0  0  0  0  0  0  0  0  0
  148.7007  136.7511  154.2226 H   0  0  0  0  0  0  0  0  0  0  0  0
  147.6296  138.7571  155.5895 H   0  0  0  0  0  0  0  0  0  0  0  0
  147.0395  141.0140  155.3570 H   0  0  0  0  0  0  0  0  0  0  0  0
  148.7609  141.1645  155.0610 H   0  0  0  0  0  0  0  0  0  0  0  0
  146.9398  142.1058  153.2619 H   0  0  0  0  0  0  0  0  0  0  0  0
  148.4409  141.3783  152.7138 H   0  0  0  0  0  0  0  0  0  0  0  0
  145.7289  140.3039  152.3711 H   0  0  0  0  0  0  0  0  0  0  0  0
  147.2372  139.7770  151.6460 H   0  0  0  0  0  0  0  0  0  0  0  0
  145.8410  138.8095  154.0975 H   0  0  0  0  0  0  0  0  0  0  0  0
  147.9445  137.3205  152.6428 H   0  0  0  0  0  0  0  0  0  0  0  0
  147.4991  135.6518  151.7314 H   0  0  0  0  0  0  0  0  0  0  0  0
  147.6660  133.4843  150.9192 H   0  0  0  0  0  0  0  0  0  0  0  0
  146.5034  131.4798  149.9869 H   0  0  0  0  0  0  0  0  0  0  0  0
  142.7753  133.1116  150.6896 H   0  0  0  0  0  0  0  0  0  0  0  0
  143.7358  135.1750  151.6589 H   0  0  0  0  0  0  0  0  0  0  0  0
  1  2  1  0  0  0  0
  1 19  1  0  0  0  0
  1 20  1  0  0  0  0
  2  3  2  0  0  0  0
  2  4  1  0  0  0  0
  4  8  1  0  0  0  0
  4  5  1  0  0  0  0
  4 21  1  0  0  0  0
  5  6  1  0  0  0  0
  5 22  1  0  0  0  0
  5 23  1  0  0  0  0
  6  7  1  0  0  0  0
  6 24  1  0  0  0  0
  6 25  1  0  0  0  0
  7  8  1  0  0  0  0
  7 26  1  0  0  0  0
  7 27  1  0  0  0  0
  8  9  1  0  0  0  0
  8 28  1  0  0  0  0
  9 10  1  0  0  0  0
  9 29  1  0  0  0  0
 10 11  2  0  0  0  0
 10 12  1  0  0  0  0
 12 13  1  0  0  0  0
 12 30  1  0  0  0  0
 13 18  1  0  0  0  0
 13 14  2  0  0  0  0
 14 15  1  0  0  0  0
 14 31  1  0  0  0  0
 15 16  2  0  0  0  0
 15 32  1  0  0  0  0
 16 17  1  0  0  0  0
 17 18  2  0  0  0  0
 17 33  1  0  0  0  0
 18 34  1  0  0  0  0
M  END
> <s_m_source_file>
AV-unprocessed.smi

> <i_m_source_file_index>
699

> <i_lp_mmshare_version>
43012

> <i_f3d_flags>
0

> <s_epik_input>
W05IMl1DKD1PKVtDQEBIXTFbQ0gyXVtDSDJdW0NIMl1bQ0BIXTFbTkhdQyg9TylbTkhdYzJbY0hdW2NIXW5bY0hdW2NIXTI=

> <s_epik_cmdline>
J2VwaWtfcHl0aG9uJywgJy1waCcsICc3LjAnLCAnLXRuJywgJzgnLCAnLW1hJywgJzIwMCcsICctbWV0YWxfYmluZGluZycsICctaW1hZScsICc8aW5maWxlLm1hZT4nLCAnLW9tYWUnLCAnPG91dGZpbGUubWFlPic=

> <r_epik_Ionization_Penalty>
0.113907

> <r_epik_Ionization_Penalty_Charging>
0

> <r_epik_Ionization_Penalty_Neutral>
0.113907

> <r_epik_State_Penalty>
0.103543

> <r_epik_Charging_Adjusted_Penalty>
0.103543

> <i_epik_Tot_Q>
0

> <i_epik_Tot_abs_Q>
0

> <r_epik_Metal_State_Penalty>
0.0867106

> <b_epik_Metal_Only>
0

> <s_lp_Force_Field>
OPLS_2005

> <r_lp_Energy>
19.4222

> <b_lp_Chiralities_Consistent>
1

> <s_lp_Variant>
AV-unprocessed.smi:699-2

> <Gold.Version>
5.8.1

> <Gold.Id.Protein>
6NUR|6NUR_protein|mol2

> <Gold.PLP.Fitness>
40.7393

> <Gold.PLP.PLP>
-26.6347

> <Gold.PLP.part.hbond>
-3.8627

> <Gold.PLP.part.metal>
0.0000

> <Gold.PLP.part.buried>
-3.0414

> <Gold.PLP.part.nonpolar>
-21.0475

> <Gold.PLP.part.repulsive>
1.1230

> <Gold.PLP.ligand.clash>
0.0000

> <Gold.PLP.ligand.torsion>
0.3440

> <Gold.PLP.Chemscore.Hbond>
2.9440

> <Gold.PLP.Chemscore.CHOScore>
1.9810

> <Gold.PLP.Chemscore.Metal>
0.0000

> <Gold.Chemscore.Hbonds>
donor molecule, donor type, donor heavy atom, donor atom, acceptor molecule, acceptor atom, score
      L1  H     9    29       P1  7948  0.94
      L1  H    12    30       P1  7948  1.00
      P1  H  7989  7998       L1     3  0.98
      L1  C    15    32       P1 10747  0.94
      L1  C    17    33       P1 10186  1.00

> <Gold.PLP.Chemscore.Internal.Correction>
0.0176

> <Gold.Rescore>
     Score         DG    S(hbond)    S(metal)    S(lipo)     H(rot)  DE(clash)    DE(int)     intcor
     15.08     -18.48       2.75        0.00      65.08       1.49       0.49       2.91       ----

> <Gold.Chemscore.Fitness>
15.0785

> <Gold.Chemscore.DG>
-18.4818

> <Gold.Chemscore.ZeroCoef>
-5.4800

> <Gold.Chemscore.Hbond>
2.7544

> <Gold.Chemscore.Metal>
0.0000

> <Gold.Chemscore.Lipo>
65.0804

> <Gold.Chemscore.Internal_Hbond>
0.0000

> <Gold.Chemscore.DEClash>
0.4888

> <Gold.Chemscore.DEInternal>
2.9145

> <Gold.Chemscore.Rot>
1.4892

> <Gold.Chemscore.Internal.Correction>
   9.000000E+99

> <Gold.Chemscore.Hbonds>
donor molecule, donor type, donor heavy atom, donor atom, acceptor molecule, acceptor atom, score
      L1  H     9    29       P1  7948  0.91
      L1  H    12    30       P1  7948  0.92
      P1  H  7989  7998       L1     3  0.90

> <Gold.Chemscore.Hbond.Weighted>
-9.1997

> <Gold.Chemscore.Metal.Weighted>
-0.0000

> <Gold.Chemscore.Lipo.Weighted>
-7.6144

> <Gold.Chemscore.Internal_Hbond.Weighted>
0.0000

> <Gold.Chemscore.DEClash.Weighted>
0.4888

> <Gold.Chemscore.DEInternal.Weighted>
2.9145

> <Gold.Chemscore.Rot.Weighted>
3.8123

> <Gold.Chemscore.Internal.Correction.Weighted>
   9.000000E+99

> <Gold.Protein.RotatedTorsions>
[ 6907 6896 6895 6894 ] final  147.51 input  -60.11 | X-H torsion
[ 7974 7965 7964 7962 ] final  105.16 input  175.53 | X-H torsion
[ 8008 7997 7996 7995 ] final   59.81 input   59.86 | X-H torsion
[ 10167 10162 10161 10158 ] final   40.71 input  -65.29 | X-H torsion
[ 10718 10713 10712 10709 ] final   17.21 input   66.30 | X-H torsion
[ 10763 10752 10751 10750 ] final  -14.43 input  -60.55 | X-H torsion
[ 11005 11000 10999 10996 ] final -139.54 input  -57.11 | X-H torsion

> <Gold.Protein.ActiveResidues>
 VAL166  LYS551  ARG553  GLY616  TRP617  ASP618  TYR619  PRO620  LYS621  CYS622 
 ASP623  PHE694  ASN695  SER759  ASP760  ASP761  ALA762  ILE779  LEU786  VAL792 
 PHE793  MET794  SER795  GLU796  ALA797  LYS798  CYS799  TRP800  GLU811  SER814 

> <Gold.Protein.RotatedAtoms>
  152.1539  133.4539  159.4826 H   0  0  0  0  0  0  0  0  0  0  0  0  # atno 6907 bound_to 6896
  150.6898  134.2155  159.4385 H   0  0  0  0  0  0  0  0  0  0  0  0  # atno 6908 bound_to 6896
  152.0054  134.9905  160.0617 H   0  0  0  0  0  0  0  0  0  0  0  0  # atno 6909 bound_to 6896
  145.3233  139.2506  143.3700 H   0  0  0  0  0  0  0  0  0  0  0  0  # atno 7974 bound_to 7965
  155.5722  140.3490  155.4518 H   0  0  0  0  0  0  0  0  0  0  0  0  # atno 8008 bound_to 7997
  156.0435  140.1301  157.0154 H   0  0  0  0  0  0  0  0  0  0  0  0  # atno 8009 bound_to 7997
  154.4402  140.1019  156.6258 H   0  0  0  0  0  0  0  0  0  0  0  0  # atno 8010 bound_to 7997
  140.3715  144.2098  150.6133 H   0  0  0  0  0  0  0  0  0  0  0  0  # atno 10167 bound_to 10162
  157.0788  130.6379  149.5822 H   0  0  0  0  0  0  0  0  0  0  0  0  # atno 10718 bound_to 10713
  153.5281  135.7015  153.5697 H   0  0  0  0  0  0  0  0  0  0  0  0  # atno 10763 bound_to 10752
  153.3717  135.3943  155.1793 H   0  0  0  0  0  0  0  0  0  0  0  0  # atno 10764 bound_to 10752
  154.8687  135.3813  154.4776 H   0  0  0  0  0  0  0  0  0  0  0  0  # atno 10765 bound_to 10752
  140.8510  134.2286  157.4760 H   0  0  0  0  0  0  0  0  0  0  0  0  # atno 11005 bound_to 11000
  146.3074  140.3795  142.8682 LP  0  0  0  0  0  0  0  0  0  0  0  0  # atno 17320 bound_to 7965
  144.8922  140.7537  143.5920 LP  0  0  0  0  0  0  0  0  0  0  0  0  # atno 17321 bound_to 7965
  140.5028  143.2313  151.8653 LP  0  0  0  0  0  0  0  0  0  0  0  0  # atno 17342 bound_to 10162
  139.4803  144.5040  151.9023 LP  0  0  0  0  0  0  0  0  0  0  0  0  # atno 17343 bound_to 10162
  155.9929  130.4989  150.7360 LP  0  0  0  0  0  0  0  0  0  0  0  0  # atno 17370 bound_to 10713
  157.4817  131.0903  151.0528 LP  0  0  0  0  0  0  0  0  0  0  0  0  # atno 17371 bound_to 10713
  139.8704  134.9683  156.4626 LP  0  0  0  0  0  0  0  0  0  0  0  0  # atno 17394 bound_to 11000
  140.8790  133.7931  155.9446 LP  0  0  0  0  0  0  0  0  0  0  0  0  # atno 17395 bound_to 11000

$$$$
