AV-unprocessed.smi:1439|AV-procd|sdf|5869|dock1
  -GOLD-   22720 5543D 1   1.00000     0.00000
 Structure written by MMmdl.
 36 37  0  0  0  0  0  0  0  0  1 V2000
  144.6446  135.7697  150.0931 N   0  0  0  0  0  0  0  0  0  0  0  0
  144.6133  134.8307  151.0427 C   0  0  0  0  0  0  0  0  0  0  0  0
  144.2408  135.0683  152.1897 O   0  0  0  0  0  0  0  0  0  0  0  0
  145.0706  133.4241  150.6514 C   0  0  0  0  0  0  0  0  0  0  0  0
  146.2685  133.0189  151.4613 C   0  0  0  0  0  0  0  0  0  0  0  0
  146.5585  131.7594  151.9294 C   0  0  0  0  0  0  0  0  0  0  0  0
  148.0508  131.7209  152.8280 S   0  0  0  0  0  0  0  0  0  0  0  0
  148.2219  133.4526  152.5351 C   0  0  0  0  0  0  0  0  0  0  0  0
  149.2683  134.3013  152.9743 N   0  0  0  0  0  0  0  0  0  0  0  0
  150.1689  134.0698  153.9453 C   0  0  0  0  0  0  0  0  0  0  0  0
  150.2163  133.0430  154.6223 O   0  0  0  0  0  0  0  0  0  0  0  0
  151.1803  135.1934  154.1930 C   0  0  0  0  0  0  0  0  0  0  0  0
  150.6377  136.5825  153.8106 C   0  0  0  0  0  0  0  0  0  0  0  0
  151.7043  137.6821  153.9167 C   0  0  2  0  0  0  0  0  0  0  0  0
  151.1565  139.0956  153.7453 C   0  0  0  0  0  0  0  0  0  0  0  0
  152.3897  139.8867  153.3482 C   0  0  0  0  0  0  0  0  0  0  0  0
  153.3317  138.8309  152.7591 C   0  0  0  0  0  0  0  0  0  0  0  0
  152.6369  137.5922  152.8510 O   0  0  0  0  0  0  0  0  0  0  0  0
  147.2253  133.9761  151.8191 N   0  0  0  0  0  0  0  0  0  0  0  0
  144.3439  136.7094  150.3078 H   0  0  0  0  0  0  0  0  0  0  0  0
  144.9610  135.5362  149.1630 H   0  0  0  0  0  0  0  0  0  0  0  0
  144.2454  132.7243  150.7920 H   0  0  0  0  0  0  0  0  0  0  0  0
  145.3074  133.4070  149.5870 H   0  0  0  0  0  0  0  0  0  0  0  0
  145.9864  130.8532  151.7948 H   0  0  0  0  0  0  0  0  0  0  0  0
  149.3431  135.1852  152.4923 H   0  0  0  0  0  0  0  0  0  0  0  0
  151.4740  135.1938  155.2439 H   0  0  0  0  0  0  0  0  0  0  0  0
  152.0807  134.9739  153.6183 H   0  0  0  0  0  0  0  0  0  0  0  0
  150.2387  136.5644  152.7954 H   0  0  0  0  0  0  0  0  0  0  0  0
  149.8028  136.8350  154.4659 H   0  0  0  0  0  0  0  0  0  0  0  0
  152.2393  137.6062  154.8652 H   0  0  0  0  0  0  0  0  0  0  0  0
  150.4272  139.1226  152.9344 H   0  0  0  0  0  0  0  0  0  0  0  0
  150.6761  139.4780  154.6465 H   0  0  0  0  0  0  0  0  0  0  0  0
  152.1516  140.6760  152.6345 H   0  0  0  0  0  0  0  0  0  0  0  0
  152.8463  140.3509  154.2232 H   0  0  0  0  0  0  0  0  0  0  0  0
  153.5907  139.0418  151.7213 H   0  0  0  0  0  0  0  0  0  0  0  0
  154.2563  138.7757  153.3349 H   0  0  0  0  0  0  0  0  0  0  0  0
  1  2  1  0  0  0  0
  1 20  1  0  0  0  0
  1 21  1  0  0  0  0
  2  3  2  0  0  0  0
  2  4  1  0  0  0  0
  4  5  1  0  0  0  0
  4 22  1  0  0  0  0
  4 23  1  0  0  0  0
  5 19  1  0  0  0  0
  5  6  2  0  0  0  0
  6  7  1  0  0  0  0
  6 24  1  0  0  0  0
  7  8  1  0  0  0  0
  8  9  1  0  0  0  0
  8 19  2  0  0  0  0
  9 10  1  0  0  0  0
  9 25  1  0  0  0  0
 10 11  2  0  0  0  0
 10 12  1  0  0  0  0
 12 13  1  0  0  0  0
 12 26  1  0  0  0  0
 12 27  1  0  0  0  0
 13 14  1  0  0  0  0
 13 28  1  0  0  0  0
 13 29  1  0  0  0  0
 14 18  1  0  0  0  0
 14 15  1  0  0  0  0
 14 30  1  0  0  0  0
 15 16  1  0  0  0  0
 15 31  1  0  0  0  0
 15 32  1  0  0  0  0
 16 17  1  0  0  0  0
 16 33  1  0  0  0  0
 16 34  1  0  0  0  0
 17 18  1  0  0  0  0
 17 35  1  0  0  0  0
 17 36  1  0  0  0  0
M  END
> <s_m_source_file>
AV-unprocessed.smi

> <i_m_source_file_index>
1439

> <i_lp_mmshare_version>
43012

> <i_f3d_flags>
0

> <s_epik_input>
W05IMl1DKD1PKVtDSDJdYzFbY0hdc2MobjEpW05IXUMoPU8pW0NIMl1bQ0gyXVtDQEBIXTJbQ0gyXVtDSDJdW0NIMl1PMg==

> <s_epik_cmdline>
J2VwaWtfcHl0aG9uJywgJy1waCcsICc3LjAnLCAnLXRuJywgJzgnLCAnLW1hJywgJzIwMCcsICctbWV0YWxfYmluZGluZycsICctaW1hZScsICc8aW5maWxlLm1hZT4nLCAnLW9tYWUnLCAnPG91dGZpbGUubWFlPic=

> <r_lp_tautomer_probability>
1

> <r_epik_Ionization_Penalty>
0.000300833

> <r_epik_Ionization_Penalty_Charging>
0

> <r_epik_Ionization_Penalty_Neutral>
0.000300833

> <r_epik_State_Penalty>
-0

> <r_epik_Charging_Adjusted_Penalty>
0

> <i_epik_Tot_Q>
0

> <i_epik_Tot_abs_Q>
0

> <r_epik_Metal_State_Penalty>
0.167159

> <b_epik_Metal_Only>
0

> <s_lp_Force_Field>
OPLS_2005

> <r_lp_Energy>
15.8288

> <b_lp_Chiralities_Consistent>
1

> <s_lp_Variant>
AV-unprocessed.smi:1439-1

> <Gold.Version>
5.8.1

> <Gold.Id.Protein>
6NUR|6NUR_protein|mol2

> <Gold.PLP.Fitness>
43.9684

> <Gold.PLP.PLP>
-34.1815

> <Gold.PLP.part.hbond>
-4.0000

> <Gold.PLP.part.metal>
0.0000

> <Gold.PLP.part.buried>
-4.1642

> <Gold.PLP.part.nonpolar>
-27.2962

> <Gold.PLP.part.repulsive>
1.5855

> <Gold.PLP.ligand.clash>
0.0000

> <Gold.PLP.ligand.torsion>
0.8555

> <Gold.PLP.Chemscore.Hbond>
3.8000

> <Gold.PLP.Chemscore.CHOScore>
0.0000

> <Gold.PLP.Chemscore.Metal>
0.0000

> <Gold.Chemscore.Hbonds>
donor molecule, donor type, donor heavy atom, donor atom, acceptor molecule, acceptor atom, score
      L1  H     1    20       P1 10171  1.00
      L1  H     1    21       P1  7921  0.96

> <Gold.PLP.Chemscore.Internal.Correction>
0.0978

> <Gold.Rescore>
     Score         DG    S(hbond)    S(metal)    S(lipo)     H(rot)  DE(clash)    DE(int)     intcor
     15.73     -16.69       3.05        0.00      64.79       2.56       0.24       0.72       ----

> <Gold.Chemscore.Fitness>
15.7269

> <Gold.Chemscore.DG>
-16.6935

> <Gold.Chemscore.ZeroCoef>
-5.4800

> <Gold.Chemscore.Hbond>
3.0499

> <Gold.Chemscore.Metal>
0.0000

> <Gold.Chemscore.Lipo>
64.7857

> <Gold.Chemscore.Internal_Hbond>
0.0000

> <Gold.Chemscore.DEClash>
0.2444

> <Gold.Chemscore.DEInternal>
0.7221

> <Gold.Chemscore.Rot>
2.5598

> <Gold.Chemscore.Internal.Correction>
   9.000000E+99

> <Gold.Chemscore.Hbonds>
donor molecule, donor type, donor heavy atom, donor atom, acceptor molecule, acceptor atom, score
      L1  H     1    20       P1 10171  0.94
      L1  H     1    21       P1  7921  0.90

> <Gold.Chemscore.Hbond.Weighted>
-10.1868

> <Gold.Chemscore.Metal.Weighted>
-0.0000

> <Gold.Chemscore.Lipo.Weighted>
-7.5799

> <Gold.Chemscore.Internal_Hbond.Weighted>
0.0000

> <Gold.Chemscore.DEClash.Weighted>
0.2444

> <Gold.Chemscore.DEInternal.Weighted>
0.7221

> <Gold.Chemscore.Rot.Weighted>
6.5532

> <Gold.Chemscore.Internal.Correction.Weighted>
   9.000000E+99

> <Gold.Protein.RotatedTorsions>
[ 6907 6896 6895 6894 ] final   28.16 input  -60.11 | X-H torsion
[ 7974 7965 7964 7962 ] final  -44.45 input  175.53 | X-H torsion
[ 8008 7997 7996 7995 ] final  166.14 input   59.86 | X-H torsion
[ 10167 10162 10161 10158 ] final  -54.25 input  -65.29 | X-H torsion
[ 10718 10713 10712 10709 ] final  -31.26 input   66.30 | X-H torsion
[ 10763 10752 10751 10750 ] final  174.45 input  -60.55 | X-H torsion
[ 11005 11000 10999 10996 ] final  -96.83 input  -57.11 | X-H torsion

> <Gold.Protein.ActiveResidues>
 VAL166  LYS551  ARG553  GLY616  TRP617  ASP618  TYR619  PRO620  LYS621  CYS622 
 ASP623  PHE694  ASN695  SER759  ASP760  ASP761  ALA762  ILE779  LEU786  VAL792 
 PHE793  MET794  SER795  GLU796  ALA797  LYS798  CYS799  TRP800  GLU811  SER814 

> <Gold.Protein.RotatedAtoms>
  152.0130  134.9866  160.0568 H   0  0  0  0  0  0  0  0  0  0  0  0  # atno 6907 bound_to 6896
  152.1411  133.4460  159.4775 H   0  0  0  0  0  0  0  0  0  0  0  0  # atno 6908 bound_to 6896
  150.6865  134.2222  159.4444 H   0  0  0  0  0  0  0  0  0  0  0  0  # atno 6909 bound_to 6896
  145.9920  140.7171  142.9312 H   0  0  0  0  0  0  0  0  0  0  0  0  # atno 7974 bound_to 7965
  156.1743  140.1651  156.8390 H   0  0  0  0  0  0  0  0  0  0  0  0  # atno 8008 bound_to 7997
  154.5290  140.0761  156.8345 H   0  0  0  0  0  0  0  0  0  0  0  0  # atno 8009 bound_to 7997
  155.3446  140.3386  155.4241 H   0  0  0  0  0  0  0  0  0  0  0  0  # atno 8010 bound_to 7997
  140.6441  143.2525  151.4909 H   0  0  0  0  0  0  0  0  0  0  0  0  # atno 10167 bound_to 10162
  156.3895  130.4370  149.7406 H   0  0  0  0  0  0  0  0  0  0  0  0  # atno 10718 bound_to 10713
  154.4541  135.2765  155.1760 H   0  0  0  0  0  0  0  0  0  0  0  0  # atno 10763 bound_to 10752
  154.3574  135.6137  153.5677 H   0  0  0  0  0  0  0  0  0  0  0  0  # atno 10764 bound_to 10752
  152.9849  135.5826  154.4891 H   0  0  0  0  0  0  0  0  0  0  0  0  # atno 10765 bound_to 10752
  141.1399  133.8126  157.0624 H   0  0  0  0  0  0  0  0  0  0  0  0  # atno 11005 bound_to 11000
  144.6892  140.3085  143.7252 LP  0  0  0  0  0  0  0  0  0  0  0  0  # atno 17320 bound_to 7965
  145.7616  139.1827  143.2263 LP  0  0  0  0  0  0  0  0  0  0  0  0  # atno 17321 bound_to 7965
  139.5651  144.2063  152.1752 LP  0  0  0  0  0  0  0  0  0  0  0  0  # atno 17342 bound_to 10162
  140.1342  144.5261  150.6784 LP  0  0  0  0  0  0  0  0  0  0  0  0  # atno 17343 bound_to 10162
  156.4465  130.7886  151.2907 LP  0  0  0  0  0  0  0  0  0  0  0  0  # atno 17370 bound_to 10713
  157.7498  131.0108  150.3323 LP  0  0  0  0  0  0  0  0  0  0  0  0  # atno 17371 bound_to 10713
  140.0563  134.9779  157.1225 LP  0  0  0  0  0  0  0  0  0  0  0  0  # atno 17394 bound_to 11000
  140.3915  134.2179  155.7166 LP  0  0  0  0  0  0  0  0  0  0  0  0  # atno 17395 bound_to 11000

$$$$
