AV-unprocessed.smi:33|AV-procd|sdf|206|dock1
  -GOLD-   2262015493D 1   1.00000     0.00000
 Structure written by MMmdl.
 67 72  0  0  0  0  0  0  0  0  1 V2000
  144.6803  132.2992  158.9225 O   0  0  0  0  0  0  0  0  0  0  0  0
  145.2173  132.8433  159.8897 C   0  0  0  0  0  0  0  0  0  0  0  0
  146.5519  132.9663  160.0302 O   0  0  0  0  0  0  0  0  0  0  0  0
  147.4182  132.5827  158.9741 C   0  0  0  0  0  0  0  0  0  0  0  0
  147.6335  133.7727  158.0320 C   0  0  1  0  0  0  0  0  0  0  0  0
  148.9461  134.3037  158.2049 O   0  0  0  0  0  0  0  0  0  0  0  0
  149.4184  134.8290  156.9965 C   0  0  2  0  0  0  0  0  0  0  0  0
  149.7405  136.2829  157.1720 N   0  0  0  0  0  0  0  0  0  0  0  0
  149.5693  137.0385  158.3111 C   0  0  0  0  0  0  0  0  0  0  0  0
  149.9353  138.2880  158.2173 N   0  0  0  0  0  0  0  0  0  0  0  0
  150.3940  138.4044  156.9122 C   0  0  0  0  0  0  0  0  0  0  0  0
  150.9367  139.4730  156.1492 C   0  0  0  0  0  0  0  0  0  0  0  0
  151.1229  140.7151  156.6536 N   0  0  0  0  0  0  0  0  0  0  0  0
  150.3028  141.7954  156.0860 C   0  0  0  0  0  0  0  0  0  0  0  0
  150.7064  142.9588  156.1402 O   0  0  0  0  0  0  0  0  0  0  0  0
  149.0006  141.4855  155.4041 C   0  0  0  0  0  0  0  0  0  0  0  0
  147.7938  141.5172  156.1365 C   0  0  0  0  0  0  0  0  0  0  0  0
  146.5720  141.2139  155.5050 C   0  0  0  0  0  0  0  0  0  0  0  0
  146.5517  140.8580  154.1429 C   0  0  0  0  0  0  0  0  0  0  0  0
  147.7547  140.7962  153.4142 C   0  0  0  0  0  0  0  0  0  0  0  0
  148.9766  141.1009  154.0444 C   0  0  0  0  0  0  0  0  0  0  0  0
  152.1227  140.8674  157.7207 C   0  0  0  0  0  0  0  0  0  0  0  0
  153.0440  140.0534  157.8101 O   0  0  0  0  0  0  0  0  0  0  0  0
  152.0624  142.0364  158.6630 C   0  0  0  0  0  0  0  0  0  0  0  0
  153.2159  142.4274  159.3776 C   0  0  0  0  0  0  0  0  0  0  0  0
  153.1633  143.5146  160.2713 C   0  0  0  0  0  0  0  0  0  0  0  0
  151.9529  144.2052  160.4712 C   0  0  0  0  0  0  0  0  0  0  0  0
  150.7923  143.8028  159.7835 C   0  0  0  0  0  0  0  0  0  0  0  0
  150.8441  142.7165  158.8885 C   0  0  0  0  0  0  0  0  0  0  0  0
  151.2849  139.2250  154.8603 N   0  0  0  0  0  0  0  0  0  0  0  0
  151.1143  138.0015  154.3519 C   0  0  0  0  0  0  0  0  0  0  0  0
  150.6249  136.9113  154.9466 N   0  0  0  0  0  0  0  0  0  0  0  0
  150.2707  137.1564  156.2417 C   0  0  0  0  0  0  0  0  0  0  0  0
  148.3486  134.5692  155.9166 C   0  0  2  0  0  0  0  0  0  0  0  0
  147.5054  135.6824  155.6693 O   0  0  0  0  0  0  0  0  0  0  0  0
  147.5906  133.4169  156.5479 C   0  0  2  0  0  0  0  0  0  0  0  0
  146.3594  133.2652  156.0566 F   0  0  0  0  0  0  0  0  0  0  0  0
  144.4564  133.4381  161.0264 C   0  0  0  0  0  0  0  0  0  0  0  0
  143.0454  133.3382  161.0437 C   0  0  0  0  0  0  0  0  0  0  0  0
  142.2997  133.8898  162.1037 C   0  0  0  0  0  0  0  0  0  0  0  0
  142.9560  134.5479  163.1600 C   0  0  0  0  0  0  0  0  0  0  0  0
  144.3591  134.6542  163.1548 C   0  0  0  0  0  0  0  0  0  0  0  0
  145.1067  134.1030  162.0955 C   0  0  0  0  0  0  0  0  0  0  0  0
  148.3717  132.2640  159.3965 H   0  0  0  0  0  0  0  0  0  0  0  0
  147.0046  131.7369  158.4228 H   0  0  0  0  0  0  0  0  0  0  0  0
  146.9112  134.5607  158.2489 H   0  0  0  0  0  0  0  0  0  0  0  0
  150.3754  134.3609  156.7624 H   0  0  0  0  0  0  0  0  0  0  0  0
  149.1645  136.6287  159.2250 H   0  0  0  0  0  0  0  0  0  0  0  0
  147.7980  141.7893  157.1823 H   0  0  0  0  0  0  0  0  0  0  0  0
  145.6502  141.2534  156.0663 H   0  0  0  0  0  0  0  0  0  0  0  0
  145.6145  140.6256  153.6592 H   0  0  0  0  0  0  0  0  0  0  0  0
  147.7411  140.5140  152.3717 H   0  0  0  0  0  0  0  0  0  0  0  0
  149.8943  141.0454  153.4766 H   0  0  0  0  0  0  0  0  0  0  0  0
  154.1503  141.9048  159.2321 H   0  0  0  0  0  0  0  0  0  0  0  0
  154.0521  143.8180  160.8045 H   0  0  0  0  0  0  0  0  0  0  0  0
  151.9131  145.0385  161.1569 H   0  0  0  0  0  0  0  0  0  0  0  0
  149.8614  144.3263  159.9426 H   0  0  0  0  0  0  0  0  0  0  0  0
  149.9458  142.4141  158.3698 H   0  0  0  0  0  0  0  0  0  0  0  0
  151.4141  137.8773  153.3218 H   0  0  0  0  0  0  0  0  0  0  0  0
  148.8292  134.2811  154.9812 H   0  0  0  0  0  0  0  0  0  0  0  0
  148.0468  136.4460  155.5389 H   0  0  0  0  0  0  0  0  0  0  0  0
  148.1247  132.4823  156.3704 H   0  0  0  0  0  0  0  0  0  0  0  0
  142.5190  132.8383  160.2433 H   0  0  0  0  0  0  0  0  0  0  0  0
  141.2228  133.8070  162.1062 H   0  0  0  0  0  0  0  0  0  0  0  0
  142.3844  134.9704  163.9732 H   0  0  0  0  0  0  0  0  0  0  0  0
  144.8643  135.1585  163.9654 H   0  0  0  0  0  0  0  0  0  0  0  0
  146.1821  134.2014  162.1236 H   0  0  0  0  0  0  0  0  0  0  0  0
  1  2  2  0  0  0  0
  2  3  1  0  0  0  0
  2 38  1  0  0  0  0
  3  4  1  0  0  0  0
  4  5  1  0  0  0  0
  4 44  1  0  0  0  0
  4 45  1  0  0  0  0
  5 36  1  0  0  0  0
  5  6  1  0  0  0  0
  5 46  1  0  0  0  0
  6  7  1  0  0  0  0
  7  8  1  0  0  0  0
  7 34  1  0  0  0  0
  7 47  1  0  0  0  0
  8 33  1  0  0  0  0
  8  9  1  0  0  0  0
  9 10  2  0  0  0  0
  9 48  1  0  0  0  0
 10 11  1  0  0  0  0
 11 33  2  0  0  0  0
 11 12  1  0  0  0  0
 12 13  1  0  0  0  0
 12 30  2  0  0  0  0
 13 14  1  0  0  0  0
 13 22  1  0  0  0  0
 14 15  2  0  0  0  0
 14 16  1  0  0  0  0
 16 21  1  0  0  0  0
 16 17  2  0  0  0  0
 17 18  1  0  0  0  0
 17 49  1  0  0  0  0
 18 19  2  0  0  0  0
 18 50  1  0  0  0  0
 19 20  1  0  0  0  0
 19 51  1  0  0  0  0
 20 21  2  0  0  0  0
 20 52  1  0  0  0  0
 21 53  1  0  0  0  0
 22 23  2  0  0  0  0
 22 24  1  0  0  0  0
 24 29  1  0  0  0  0
 24 25  2  0  0  0  0
 25 26  1  0  0  0  0
 25 54  1  0  0  0  0
 26 27  2  0  0  0  0
 26 55  1  0  0  0  0
 27 28  1  0  0  0  0
 27 56  1  0  0  0  0
 28 29  2  0  0  0  0
 28 57  1  0  0  0  0
 29 58  1  0  0  0  0
 30 31  1  0  0  0  0
 31 32  2  0  0  0  0
 31 59  1  0  0  0  0
 32 33  1  0  0  0  0
 34 35  1  0  0  0  0
 34 36  1  0  0  0  0
 34 60  1  0  0  0  0
 35 61  1  0  0  0  0
 36 37  1  0  0  0  0
 36 62  1  0  0  0  0
 38 43  1  0  0  0  0
 38 39  2  0  0  0  0
 39 40  1  0  0  0  0
 39 63  1  0  0  0  0
 40 41  2  0  0  0  0
 40 64  1  0  0  0  0
 41 42  1  0  0  0  0
 41 65  1  0  0  0  0
 42 43  2  0  0  0  0
 42 66  1  0  0  0  0
 43 67  1  0  0  0  0
M  END
> <s_m_source_file>
AV-unprocessed.smi

> <i_m_source_file_index>
33

> <i_lp_mmshare_version>
43012

> <i_f3d_flags>
0

> <s_epik_input>
W2NIXTFbY0hdW2NIXVtjSF1bY0hdYzFDKD1PKU9bQ0gyXVtDQEBIXTJPW0NASF0oW0NAQEhdKFtPSF0pW0NAQEhdMkYpbihbY0hdbjMpYyhjMzQpbltjSF1uYzROKEMoPU8pYzVbY0hdW2NIXVtjSF1bY0hdW2NIXTUpQyg9TyljNltjSF1bY0hdW2NIXVtjSF1bY0hdNg==

> <s_epik_cmdline>
J2VwaWtfcHl0aG9uJywgJy1waCcsICc3LjAnLCAnLXRuJywgJzgnLCAnLW1hJywgJzIwMCcsICctbWV0YWxfYmluZGluZycsICctaW1hZScsICc8aW5maWxlLm1hZT4nLCAnLW9tYWUnLCAnPG91dGZpbGUubWFlPic=

> <r_lp_tautomer_probability>
1

> <r_epik_Ionization_Penalty>
0.00067664

> <r_epik_Ionization_Penalty_Charging>
0

> <r_epik_Ionization_Penalty_Neutral>
0.00067664

> <r_epik_State_Penalty>
0.000428095

> <r_epik_Charging_Adjusted_Penalty>
0.000428095

> <i_epik_Tot_Q>
0

> <i_epik_Tot_abs_Q>
0

> <r_epik_Metal_State_Penalty>
-0

> <b_epik_Metal_Only>
0

> <s_epik_Chemistry_Notes>
This compound has an ester and may undergo hydrolysis at high or low pH. This compound contains an acetal/aminal-like group ( X-CH(R)-Y where X, Y are N, S, or O) that may be acid/base labile, releasing an aldehyde.

> <s_lp_Force_Field>
OPLS_2005

> <r_lp_Energy>
78.7548

> <b_lp_Chiralities_Consistent>
1

> <s_lp_Variant>
AV-unprocessed.smi:33-8

> <Gold.Version>
5.8.1

> <Gold.Id.Protein>
6NUR|6NUR_protein|mol2

> <Gold.PLP.Fitness>
55.7641

> <Gold.PLP.PLP>
-49.4289

> <Gold.PLP.part.hbond>
-2.5264

> <Gold.PLP.part.metal>
0.0000

> <Gold.PLP.part.buried>
-3.7152

> <Gold.PLP.part.nonpolar>
-46.2939

> <Gold.PLP.part.repulsive>
3.6205

> <Gold.PLP.ligand.clash>
0.0259

> <Gold.PLP.ligand.torsion>
4.2875

> <Gold.PLP.Chemscore.Hbond>
2.6012

> <Gold.PLP.Chemscore.CHOScore>
0.8336

> <Gold.PLP.Chemscore.Metal>
0.0000

> <Gold.Chemscore.Hbonds>
donor molecule, donor type, donor heavy atom, donor atom, acceptor molecule, acceptor atom, score
      P1  H  6896  6907       L1     6  0.66
      P1  H  7989  7998       L1    30  0.68
      P1  H  7997  8008       L1    23  1.00
      L1  C    31    59       P1  7949  0.73

> <Gold.PLP.Chemscore.Internal.Correction>
4.6314

> <Gold.Rescore>
     Score         DG    S(hbond)    S(metal)    S(lipo)     H(rot)  DE(clash)    DE(int)     intcor
     14.16     -23.24       2.19        0.00     144.57       2.52       2.43       6.66       ----

> <Gold.Chemscore.Fitness>
14.1600

> <Gold.Chemscore.DG>
-23.2440

> <Gold.Chemscore.ZeroCoef>
-5.4800

> <Gold.Chemscore.Hbond>
2.1893

> <Gold.Chemscore.Metal>
0.0000

> <Gold.Chemscore.Lipo>
144.5714

> <Gold.Chemscore.Internal_Hbond>
0.0000

> <Gold.Chemscore.DEClash>
2.4285

> <Gold.Chemscore.DEInternal>
6.6555

> <Gold.Chemscore.Rot>
2.5247

> <Gold.Chemscore.Internal.Correction>
   9.000000E+99

> <Gold.Chemscore.Hbonds>
donor molecule, donor type, donor heavy atom, donor atom, acceptor molecule, acceptor atom, score
      P1  H  6896  6907       L1     6  0.25
      P1  H  7989  7998       L1    30  0.65
      P1  H  7997  8008       L1    23  0.95

> <Gold.Chemscore.Hbond.Weighted>
-7.3124

> <Gold.Chemscore.Metal.Weighted>
-0.0000

> <Gold.Chemscore.Lipo.Weighted>
-16.9149

> <Gold.Chemscore.Internal_Hbond.Weighted>
0.0000

> <Gold.Chemscore.DEClash.Weighted>
2.4285

> <Gold.Chemscore.DEInternal.Weighted>
6.6555

> <Gold.Chemscore.Rot.Weighted>
6.4633

> <Gold.Chemscore.Internal.Correction.Weighted>
   9.000000E+99

> <Gold.Protein.RotatedTorsions>
[ 6907 6896 6895 6894 ] final -118.41 input  -60.11 | X-H torsion
[ 7974 7965 7964 7962 ] final  103.68 input  175.53 | X-H torsion
[ 8008 7997 7996 7995 ] final  -67.33 input   59.86 | X-H torsion
[ 10167 10162 10161 10158 ] final  -55.34 input  -65.29 | X-H torsion
[ 10718 10713 10712 10709 ] final  150.05 input   66.30 | X-H torsion
[ 10763 10752 10751 10750 ] final   40.80 input  -60.55 | X-H torsion
[ 11005 11000 10999 10996 ] final  176.98 input  -57.11 | X-H torsion

> <Gold.Protein.ActiveResidues>
 VAL166  LYS551  ARG553  GLY616  TRP617  ASP618  TYR619  PRO620  LYS621  CYS622 
 ASP623  PHE694  ASN695  SER759  ASP760  ASP761  ALA762  ILE779  LEU786  VAL792 
 PHE793  MET794  SER795  GLU796  ALA797  LYS798  CYS799  TRP800  GLU811  SER814 

> <Gold.Protein.RotatedAtoms>
  150.8218  133.8240  159.3135 H   0  0  0  0  0  0  0  0  0  0  0  0  # atno 6907 bound_to 6896
  151.5996  135.1046  160.0067 H   0  0  0  0  0  0  0  0  0  0  0  0  # atno 6908 bound_to 6896
  152.4306  133.7230  159.6601 H   0  0  0  0  0  0  0  0  0  0  0  0  # atno 6909 bound_to 6896
  145.3428  139.2458  143.3600 H   0  0  0  0  0  0  0  0  0  0  0  0  # atno 7974 bound_to 7965
  154.4793  140.0895  156.7338 H   0  0  0  0  0  0  0  0  0  0  0  0  # atno 8008 bound_to 7997
  155.4514  140.3457  155.4283 H   0  0  0  0  0  0  0  0  0  0  0  0  # atno 8009 bound_to 7997
  156.1166  140.1462  156.9253 H   0  0  0  0  0  0  0  0  0  0  0  0  # atno 8010 bound_to 7997
  140.6380  143.2492  151.5066 H   0  0  0  0  0  0  0  0  0  0  0  0  # atno 10167 bound_to 10162
  157.2884  131.0849  151.1480 H   0  0  0  0  0  0  0  0  0  0  0  0  # atno 10718 bound_to 10713
  152.9926  135.6181  154.2684 H   0  0  0  0  0  0  0  0  0  0  0  0  # atno 10763 bound_to 10752
  154.2418  135.2788  155.2852 H   0  0  0  0  0  0  0  0  0  0  0  0  # atno 10764 bound_to 10752
  154.5363  135.5774  153.6859 H   0  0  0  0  0  0  0  0  0  0  0  0  # atno 10765 bound_to 10752
  140.3791  134.6962  157.4440 H   0  0  0  0  0  0  0  0  0  0  0  0  # atno 11005 bound_to 11000
  146.3000  140.4028  142.8707 LP  0  0  0  0  0  0  0  0  0  0  0  0  # atno 17320 bound_to 7965
  144.8777  140.7359  143.6006 LP  0  0  0  0  0  0  0  0  0  0  0  0  # atno 17321 bound_to 7965
  139.5590  144.2204  152.1660 LP  0  0  0  0  0  0  0  0  0  0  0  0  # atno 17342 bound_to 10162
  140.1466  144.5153  150.6712 LP  0  0  0  0  0  0  0  0  0  0  0  0  # atno 17343 bound_to 10162
  157.2886  130.6785  149.6102 LP  0  0  0  0  0  0  0  0  0  0  0  0  # atno 17370 bound_to 10713
  155.9666  130.4428  150.5394 LP  0  0  0  0  0  0  0  0  0  0  0  0  # atno 17371 bound_to 10713
  140.0492  134.6154  155.8882 LP  0  0  0  0  0  0  0  0  0  0  0  0  # atno 17394 bound_to 11000
  141.1929  133.6577  156.5525 LP  0  0  0  0  0  0  0  0  0  0  0  0  # atno 17395 bound_to 11000

$$$$
