AV-unprocessed.smi:1983|AV-procd|sdf|8033|dock2
  -GOLD-   2272010223D 1   1.00000     0.00000
 Structure written by MMmdl.
 49 50  0  0  0  0  0  0  0  0  1 V2000
  144.3973  134.8283  150.7467 C   0  0  0  0  0  0  0  0  0  0  0  0
  145.6824  134.5366  151.5363 C   0  0  1  0  0  0  0  0  0  0  0  0
  146.5064  133.3933  150.9116 C   0  0  0  0  0  0  0  0  0  0  0  0
  147.4996  132.9502  151.8117 O   0  0  0  0  0  0  0  0  0  0  0  0
  146.4825  135.7560  151.6115 N   0  0  0  0  0  0  0  0  0  0  0  0
  146.0274  136.9605  151.9845 C   0  0  0  0  0  0  0  0  0  0  0  0
  144.8637  137.1882  152.3152 O   0  0  0  0  0  0  0  0  0  0  0  0
  146.9966  137.8859  151.9638 N   0  0  0  0  0  0  0  0  0  0  0  0
  146.8211  139.2854  152.3390 C   0  0  0  0  0  0  0  0  0  0  0  0
  147.7143  139.7521  153.4809 C   0  0  0  0  0  0  0  0  0  0  0  0
  147.6578  141.0891  153.9186 C   0  0  0  0  0  0  0  0  0  0  0  0
  148.4998  141.5057  154.9673 C   0  0  0  0  0  0  0  0  0  0  0  0
  149.3861  140.5687  155.5565 C   0  0  0  0  0  0  0  0  0  0  0  0
  150.2669  140.9209  156.6035 N   0  0  0  0  0  0  0  0  0  0  0  0
  151.0426  139.8701  157.2531 C   0  0  0  0  0  0  0  0  0  0  0  0
  151.6136  140.3707  158.5914 C   0  0  1  0  0  0  0  0  0  0  0  0
  152.5475  139.3399  159.2343 C   0  0  0  0  0  0  0  0  0  0  0  0
  152.3565  141.5698  158.3775 O   0  0  0  0  0  0  0  0  0  0  0  0
  151.6105  142.6358  157.7858 C   0  0  2  0  0  0  0  0  0  0  0  0
  150.5831  143.2405  158.7595 C   0  0  0  0  0  0  0  0  0  0  0  0
  150.9931  142.1802  156.4490 C   0  0  0  0  0  0  0  0  0  0  0  0
  149.4399  139.2845  155.1277 N   0  0  0  0  0  0  0  0  0  0  0  0
  148.6312  138.8914  154.1216 C   0  0  0  0  0  0  0  0  0  0  0  0
  143.7489  133.9525  150.7096 H   0  0  0  0  0  0  0  0  0  0  0  0
  144.6191  135.1208  149.7196 H   0  0  0  0  0  0  0  0  0  0  0  0
  143.8278  135.6358  151.2078 H   0  0  0  0  0  0  0  0  0  0  0  0
  145.3972  134.2524  152.5514 H   0  0  0  0  0  0  0  0  0  0  0  0
  145.8667  132.5559  150.6311 H   0  0  0  0  0  0  0  0  0  0  0  0
  147.0105  133.7300  150.0051 H   0  0  0  0  0  0  0  0  0  0  0  0
  147.9613  132.2263  151.4172 H   0  0  0  0  0  0  0  0  0  0  0  0
  147.4571  135.6738  151.3617 H   0  0  0  0  0  0  0  0  0  0  0  0
  147.9220  137.6025  151.6765 H   0  0  0  0  0  0  0  0  0  0  0  0
  147.0396  139.8991  151.4650 H   0  0  0  0  0  0  0  0  0  0  0  0
  145.7750  139.4700  152.5909 H   0  0  0  0  0  0  0  0  0  0  0  0
  146.9764  141.7902  153.4594 H   0  0  0  0  0  0  0  0  0  0  0  0
  148.4404  142.5306  155.3009 H   0  0  0  0  0  0  0  0  0  0  0  0
  150.4156  138.9987  157.4438 H   0  0  0  0  0  0  0  0  0  0  0  0
  151.8493  139.5585  156.5879 H   0  0  0  0  0  0  0  0  0  0  0  0
  150.7972  140.5633  159.2879 H   0  0  0  0  0  0  0  0  0  0  0  0
  152.0225  138.4048  159.4313 H   0  0  0  0  0  0  0  0  0  0  0  0
  152.9389  139.7071  160.1832 H   0  0  0  0  0  0  0  0  0  0  0  0
  153.3964  139.1180  158.5870 H   0  0  0  0  0  0  0  0  0  0  0  0
  152.3318  143.4228  157.5644 H   0  0  0  0  0  0  0  0  0  0  0  0
  150.1308  144.1367  158.3342 H   0  0  0  0  0  0  0  0  0  0  0  0
  151.0577  143.5252  159.6986 H   0  0  0  0  0  0  0  0  0  0  0  0
  149.7724  142.5491  158.9883 H   0  0  0  0  0  0  0  0  0  0  0  0
  151.7848  142.0257  155.7149 H   0  0  0  0  0  0  0  0  0  0  0  0
  150.3570  142.9750  156.0596 H   0  0  0  0  0  0  0  0  0  0  0  0
  148.7287  137.8587  153.8214 H   0  0  0  0  0  0  0  0  0  0  0  0
  1  2  1  0  0  0  0
  1 24  1  0  0  0  0
  1 25  1  0  0  0  0
  1 26  1  0  0  0  0
  2  3  1  0  0  0  0
  2  5  1  0  0  0  0
  2 27  1  0  0  0  0
  3  4  1  0  0  0  0
  3 28  1  0  0  0  0
  3 29  1  0  0  0  0
  4 30  1  0  0  0  0
  5  6  1  0  0  0  0
  5 31  1  0  0  0  0
  6  7  2  0  0  0  0
  6  8  1  0  0  0  0
  8  9  1  0  0  0  0
  8 32  1  0  0  0  0
  9 10  1  0  0  0  0
  9 33  1  0  0  0  0
  9 34  1  0  0  0  0
 10 23  1  0  0  0  0
 10 11  2  0  0  0  0
 11 12  1  0  0  0  0
 11 35  1  0  0  0  0
 12 13  2  0  0  0  0
 12 36  1  0  0  0  0
 13 14  1  0  0  0  0
 13 22  1  0  0  0  0
 14 21  1  0  0  0  0
 14 15  1  0  0  0  0
 15 16  1  0  0  0  0
 15 37  1  0  0  0  0
 15 38  1  0  0  0  0
 16 17  1  0  0  0  0
 16 18  1  0  0  0  0
 16 39  1  0  0  0  0
 17 40  1  0  0  0  0
 17 41  1  0  0  0  0
 17 42  1  0  0  0  0
 18 19  1  0  0  0  0
 19 20  1  0  0  0  0
 19 21  1  0  0  0  0
 19 43  1  0  0  0  0
 20 44  1  0  0  0  0
 20 45  1  0  0  0  0
 20 46  1  0  0  0  0
 21 47  1  0  0  0  0
 21 48  1  0  0  0  0
 22 23  2  0  0  0  0
 23 49  1  0  0  0  0
M  END
> <s_m_source_file>
AV-unprocessed.smi

> <i_m_source_file_index>
1983

> <i_lp_mmshare_version>
43012

> <i_f3d_flags>
0

> <s_epik_input>
W09IXVtDSDJdW0NAQEhdKFtDSDNdKVtOSF1DKD1PKVtOSF1bQ0gyXWMxW2NIXVtjSF1jKG5bY0hdMSlOMltDSDJdW0NAQEhdKFtDSDNdKU9bQ0BASF0oW0NIM10pW0NIMl0y

> <s_epik_cmdline>
J2VwaWtfcHl0aG9uJywgJy1waCcsICc3LjAnLCAnLXRuJywgJzgnLCAnLW1hJywgJzIwMCcsICctbWV0YWxfYmluZGluZycsICctaW1hZScsICc8aW5maWxlLm1hZT4nLCAnLW9tYWUnLCAnPG91dGZpbGUubWFlPic=

> <r_lp_tautomer_probability>
1

> <r_epik_Ionization_Penalty>
0.00801967

> <r_epik_Ionization_Penalty_Charging>
0

> <r_epik_Ionization_Penalty_Neutral>
0.00801967

> <r_epik_State_Penalty>
0.00598289

> <r_epik_Charging_Adjusted_Penalty>
0.00598289

> <i_epik_Tot_Q>
0

> <i_epik_Tot_abs_Q>
0

> <r_epik_Metal_State_Penalty>
0.00590297

> <b_epik_Metal_Only>
0

> <s_lp_Force_Field>
OPLS_2005

> <r_lp_Energy>
16.4024

> <b_lp_Chiralities_Consistent>
1

> <s_lp_Variant>
AV-unprocessed.smi:1983-6

> <Gold.Version>
5.8.1

> <Gold.Id.Protein>
6NUR|6NUR_protein|mol2

> <Gold.PLP.Fitness>
47.1283

> <Gold.PLP.PLP>
-36.6293

> <Gold.PLP.part.hbond>
-2.9021

> <Gold.PLP.part.metal>
0.0000

> <Gold.PLP.part.buried>
-3.8158

> <Gold.PLP.part.nonpolar>
-30.7493

> <Gold.PLP.part.repulsive>
1.3360

> <Gold.PLP.ligand.clash>
0.0000

> <Gold.PLP.ligand.torsion>
0.3879

> <Gold.PLP.Chemscore.Hbond>
2.6000

> <Gold.PLP.Chemscore.CHOScore>
1.0000

> <Gold.PLP.Chemscore.Metal>
0.0000

> <Gold.Chemscore.Hbonds>
donor molecule, donor type, donor heavy atom, donor atom, acceptor molecule, acceptor atom, score
      L1  H     4    30       P1 10747  0.96
      L1  H     5    31       P1  7948  0.83
      L1  H     8    32       P1  7948  0.78
      L1  C    23    49       P1  7948  0.97

> <Gold.PLP.Chemscore.Internal.Correction>
0.4748

> <Gold.Rescore>
     Score         DG    S(hbond)    S(metal)    S(lipo)     H(rot)  DE(clash)    DE(int)     intcor
     16.13     -18.57       2.68        0.00      92.42       2.61       0.44       1.99       ----

> <Gold.Chemscore.Fitness>
16.1304

> <Gold.Chemscore.DG>
-18.5679

> <Gold.Chemscore.ZeroCoef>
-5.4800

> <Gold.Chemscore.Hbond>
2.6812

> <Gold.Chemscore.Metal>
0.0000

> <Gold.Chemscore.Lipo>
92.4229

> <Gold.Chemscore.Internal_Hbond>
0.0000

> <Gold.Chemscore.DEClash>
0.4441

> <Gold.Chemscore.DEInternal>
1.9934

> <Gold.Chemscore.Rot>
2.6097

> <Gold.Chemscore.Internal.Correction>
   9.000000E+99

> <Gold.Chemscore.Hbonds>
donor molecule, donor type, donor heavy atom, donor atom, acceptor molecule, acceptor atom, score
      L1  H     4    30       P1 10747  0.91
      L1  H     5    31       P1  7948  0.78
      L1  H     8    32       P1  7948  0.78

> <Gold.Chemscore.Hbond.Weighted>
-8.9553

> <Gold.Chemscore.Metal.Weighted>
-0.0000

> <Gold.Chemscore.Lipo.Weighted>
-10.8135

> <Gold.Chemscore.Internal_Hbond.Weighted>
0.0000

> <Gold.Chemscore.DEClash.Weighted>
0.4441

> <Gold.Chemscore.DEInternal.Weighted>
1.9934

> <Gold.Chemscore.Rot.Weighted>
6.6809

> <Gold.Chemscore.Internal.Correction.Weighted>
   9.000000E+99

> <Gold.Protein.RotatedTorsions>
[ 6907 6896 6895 6894 ] final  -49.66 input  -60.11 | X-H torsion
[ 7974 7965 7964 7962 ] final  -74.36 input  175.53 | X-H torsion
[ 8008 7997 7996 7995 ] final -135.94 input   59.86 | X-H torsion
[ 10167 10162 10161 10158 ] final   79.66 input  -65.29 | X-H torsion
[ 10718 10713 10712 10709 ] final  -84.02 input   66.30 | X-H torsion
[ 10763 10752 10751 10750 ] final  -71.25 input  -60.55 | X-H torsion
[ 11005 11000 10999 10996 ] final  166.20 input  -57.11 | X-H torsion

> <Gold.Protein.ActiveResidues>
 VAL166  LYS551  ARG553  GLY616  TRP617  ASP618  TYR619  PRO620  LYS621  CYS622 
 ASP623  PHE694  ASN695  SER759  ASP760  ASP761  ALA762  ILE779  LEU786  VAL792 
 PHE793  MET794  SER795  GLU796  ALA797  LYS798  CYS799  TRP800  GLU811  SER814 

> <Gold.Protein.RotatedAtoms>
  150.8783  134.8170  159.7205 H   0  0  0  0  0  0  0  0  0  0  0  0  # atno 6907 bound_to 6896
  152.4761  134.4837  159.9683 H   0  0  0  0  0  0  0  0  0  0  0  0  # atno 6908 bound_to 6896
  151.4915  133.3485  159.2889 H   0  0  0  0  0  0  0  0  0  0  0  0  # atno 6909 bound_to 6896
  145.6401  140.9313  143.1040 H   0  0  0  0  0  0  0  0  0  0  0  0  # atno 7974 bound_to 7965
  155.3869  140.0497  157.3042 H   0  0  0  0  0  0  0  0  0  0  0  0  # atno 8008 bound_to 7997
  154.5055  140.2172  155.9221 H   0  0  0  0  0  0  0  0  0  0  0  0  # atno 8009 bound_to 7997
  156.1520  140.3134  155.8669 H   0  0  0  0  0  0  0  0  0  0  0  0  # atno 8010 bound_to 7997
  139.9580  144.5980  150.8098 H   0  0  0  0  0  0  0  0  0  0  0  0  # atno 10167 bound_to 10162
  156.0011  130.4684  150.4346 H   0  0  0  0  0  0  0  0  0  0  0  0  # atno 10718 bound_to 10713
  154.4291  135.5968  153.6057 H   0  0  0  0  0  0  0  0  0  0  0  0  # atno 10763 bound_to 10752
  152.9798  135.5971  154.3861 H   0  0  0  0  0  0  0  0  0  0  0  0  # atno 10764 bound_to 10752
  154.3697  135.2841  155.2252 H   0  0  0  0  0  0  0  0  0  0  0  0  # atno 10765 bound_to 10752
  140.2640  134.7880  157.3615 H   0  0  0  0  0  0  0  0  0  0  0  0  # atno 11005 bound_to 11000
  144.7160  139.8194  143.7398 LP  0  0  0  0  0  0  0  0  0  0  0  0  # atno 17320 bound_to 7965
  146.1287  139.4318  143.0182 LP  0  0  0  0  0  0  0  0  0  0  0  0  # atno 17321 bound_to 7965
  140.7562  143.3061  151.2958 LP  0  0  0  0  0  0  0  0  0  0  0  0  # atno 17342 bound_to 10162
  139.6576  144.0248  152.2670 LP  0  0  0  0  0  0  0  0  0  0  0  0  # atno 17343 bound_to 10162
  157.2392  131.0521  151.2446 LP  0  0  0  0  0  0  0  0  0  0  0  0  # atno 17370 bound_to 10713
  157.3636  130.7144  149.6518 LP  0  0  0  0  0  0  0  0  0  0  0  0  # atno 17371 bound_to 10713
  140.1437  134.4938  155.8012 LP  0  0  0  0  0  0  0  0  0  0  0  0  # atno 17394 bound_to 11000
  141.2186  133.6835  156.7256 LP  0  0  0  0  0  0  0  0  0  0  0  0  # atno 17395 bound_to 11000

$$$$
