AV-unprocessed.smi:213|AV-procd|sdf|1643|dock6
  -GOLD-   2262020 13D 1   1.00000     0.00000
 Structure written by MMmdl.
 58 61  0  0  0  0  0  0  0  0  1 V2000
  150.1467  139.7467  157.6872 C   0  0  0  0  0  0  0  0  0  0  0  0
  150.4846  140.5836  156.4400 C   0  0  2  0  0  0  0  0  0  0  0  0
  150.4199  142.1028  156.7181 C   0  0  0  0  0  0  0  0  0  0  0  0
  151.4959  142.6397  157.5529 N   0  0  0  0  0  0  0  0  0  0  0  0
  151.3280  142.2330  158.9441 C   0  0  0  0  0  0  0  0  0  0  0  0
  152.4494  142.7800  159.8440 C   0  0  0  0  0  0  0  0  0  0  0  0
  152.4930  144.1991  159.7385 O   0  0  0  0  0  0  0  0  0  0  0  0
  152.7013  144.6428  158.4020 C   0  0  0  0  0  0  0  0  0  0  0  0
  151.5855  144.0978  157.4932 C   0  0  0  0  0  0  0  0  0  0  0  0
  149.6190  140.2202  155.3141 N   0  0  0  0  0  0  0  0  0  0  0  0
  149.2122  141.2187  154.3269 C   0  0  0  0  0  0  0  0  0  0  0  0
  149.1388  138.9540  155.1767 C   0  0  0  0  0  0  0  0  0  0  0  0
  149.9220  137.9276  155.6046 N   0  0  0  0  0  0  0  0  0  0  0  0
  149.5058  136.6626  155.5023 C   0  0  0  0  0  0  0  0  0  0  0  0
  148.3578  136.2008  155.0060 N   0  0  0  0  0  0  0  0  0  0  0  0
  147.5694  137.2193  154.5607 C   0  0  0  0  0  0  0  0  0  0  0  0
  147.8756  138.6108  154.6051 C   0  0  0  0  0  0  0  0  0  0  0  0
  146.8285  139.3313  154.0376 N   0  0  0  0  0  0  0  0  0  0  0  0
  145.9556  138.4254  153.6938 C   0  0  0  0  0  0  0  0  0  0  0  0
  146.3241  137.1287  153.9655 N   0  0  0  0  0  0  0  0  0  0  0  0
  145.5607  135.9281  153.6781 C   0  0  0  0  0  0  0  0  0  0  0  0
  145.0936  135.8435  152.2092 C   0  0  1  0  0  0  0  0  0  0  0  0
  146.1827  136.2385  151.3994 O   0  0  0  0  0  0  0  0  0  0  0  0
  144.6203  134.4400  151.7700 C   0  0  2  0  0  0  0  0  0  0  0  0
  145.6920  133.3523  151.8578 C   0  0  0  0  0  0  0  0  0  0  0  0
  145.1935  132.2894  150.8936 C   0  0  0  0  0  0  0  0  0  0  0  0
  144.2300  133.0480  149.9774 C   0  0  0  0  0  0  0  0  0  0  0  0
  144.3181  134.4070  150.3828 O   0  0  0  0  0  0  0  0  0  0  0  0
  150.8553  139.9394  158.4929 H   0  0  0  0  0  0  0  0  0  0  0  0
  150.1864  138.6795  157.4685 H   0  0  0  0  0  0  0  0  0  0  0  0
  149.1496  139.9701  158.0670 H   0  0  0  0  0  0  0  0  0  0  0  0
  151.5099  140.3655  156.1545 H   0  0  0  0  0  0  0  0  0  0  0  0
  150.4033  142.6398  155.7683 H   0  0  0  0  0  0  0  0  0  0  0  0
  149.4649  142.3213  157.1974 H   0  0  0  0  0  0  0  0  0  0  0  0
  150.3644  142.5826  159.3182 H   0  0  0  0  0  0  0  0  0  0  0  0
  151.3123  141.1448  159.0127 H   0  0  0  0  0  0  0  0  0  0  0  0
  152.2706  142.5046  160.8835 H   0  0  0  0  0  0  0  0  0  0  0  0
  153.4141  142.3562  159.5605 H   0  0  0  0  0  0  0  0  0  0  0  0
  152.7060  145.7327  158.3847 H   0  0  0  0  0  0  0  0  0  0  0  0
  153.6801  144.3127  158.0505 H   0  0  0  0  0  0  0  0  0  0  0  0
  151.7832  144.4270  156.4741 H   0  0  0  0  0  0  0  0  0  0  0  0
  150.6321  144.5398  157.7867 H   0  0  0  0  0  0  0  0  0  0  0  0
  148.1502  141.1264  154.0967 H   0  0  0  0  0  0  0  0  0  0  0  0
  149.7782  141.0929  153.4036 H   0  0  0  0  0  0  0  0  0  0  0  0
  149.3828  142.2318  154.6892 H   0  0  0  0  0  0  0  0  0  0  0  0
  150.1911  135.9134  155.8700 H   0  0  0  0  0  0  0  0  0  0  0  0
  145.0199  138.6798  153.2176 H   0  0  0  0  0  0  0  0  0  0  0  0
  146.1811  135.0662  153.9275 H   0  0  0  0  0  0  0  0  0  0  0  0
  144.7016  135.8984  154.3500 H   0  0  0  0  0  0  0  0  0  0  0  0
  144.2885  136.5602  152.0432 H   0  0  0  0  0  0  0  0  0  0  0  0
  146.9699  136.2134  151.9215 H   0  0  0  0  0  0  0  0  0  0  0  0
  143.7373  134.1383  152.3372 H   0  0  0  0  0  0  0  0  0  0  0  0
  146.6499  133.7416  151.5093 H   0  0  0  0  0  0  0  0  0  0  0  0
  145.8307  132.9725  152.8703 H   0  0  0  0  0  0  0  0  0  0  0  0
  146.0164  131.8346  150.3416 H   0  0  0  0  0  0  0  0  0  0  0  0
  144.6645  131.4972  151.4246 H   0  0  0  0  0  0  0  0  0  0  0  0
  144.4872  132.9447  148.9231 H   0  0  0  0  0  0  0  0  0  0  0  0
  143.2075  132.6942  150.1153 H   0  0  0  0  0  0  0  0  0  0  0  0
  1  2  1  0  0  0  0
  1 29  1  0  0  0  0
  1 30  1  0  0  0  0
  1 31  1  0  0  0  0
  2  3  1  0  0  0  0
  2 10  1  0  0  0  0
  2 32  1  0  0  0  0
  3  4  1  0  0  0  0
  3 33  1  0  0  0  0
  3 34  1  0  0  0  0
  4  9  1  0  0  0  0
  4  5  1  0  0  0  0
  5  6  1  0  0  0  0
  5 35  1  0  0  0  0
  5 36  1  0  0  0  0
  6  7  1  0  0  0  0
  6 37  1  0  0  0  0
  6 38  1  0  0  0  0
  7  8  1  0  0  0  0
  8  9  1  0  0  0  0
  8 39  1  0  0  0  0
  8 40  1  0  0  0  0
  9 41  1  0  0  0  0
  9 42  1  0  0  0  0
 10 11  1  0  0  0  0
 10 12  1  0  0  0  0
 11 43  1  0  0  0  0
 11 44  1  0  0  0  0
 11 45  1  0  0  0  0
 12 17  1  0  0  0  0
 12 13  2  0  0  0  0
 13 14  1  0  0  0  0
 14 15  2  0  0  0  0
 14 46  1  0  0  0  0
 15 16  1  0  0  0  0
 16 20  1  0  0  0  0
 16 17  2  0  0  0  0
 17 18  1  0  0  0  0
 18 19  2  0  0  0  0
 19 20  1  0  0  0  0
 19 47  1  0  0  0  0
 20 21  1  0  0  0  0
 21 22  1  0  0  0  0
 21 48  1  0  0  0  0
 21 49  1  0  0  0  0
 22 23  1  0  0  0  0
 22 24  1  0  0  0  0
 22 50  1  0  0  0  0
 23 51  1  0  0  0  0
 24 28  1  0  0  0  0
 24 25  1  0  0  0  0
 24 52  1  0  0  0  0
 25 26  1  0  0  0  0
 25 53  1  0  0  0  0
 25 54  1  0  0  0  0
 26 27  1  0  0  0  0
 26 55  1  0  0  0  0
 26 56  1  0  0  0  0
 27 28  1  0  0  0  0
 27 57  1  0  0  0  0
 27 58  1  0  0  0  0
M  END
> <s_m_source_file>
AV-unprocessed.smi

> <i_m_source_file_index>
213

> <i_lp_mmshare_version>
43012

> <i_f3d_flags>
0

> <s_epik_input>
W0NIMl0xW0NIMl1PW0NIMl1bQ0gyXU4xW0NIMl1bQ0BASF0oW0NIM10pTihbQ0gzXSljKG5bY0hdbjIpYyhjMjMpbltjSF1uM1tDSDJdW0NASF0oW09IXSlbQ0BASF00W0NIMl1bQ0gyXVtDSDJdTzQ=

> <s_epik_cmdline>
J2VwaWtfcHl0aG9uJywgJy1waCcsICc3LjAnLCAnLXRuJywgJzgnLCAnLW1hJywgJzIwMCcsICctbWV0YWxfYmluZGluZycsICctaW1hZScsICc8aW5maWxlLm1hZT4nLCAnLW9tYWUnLCAnPG91dGZpbGUubWFlPic=

> <r_lp_tautomer_probability>
1

> <r_epik_Ionization_Penalty>
0.423322

> <r_epik_Ionization_Penalty_Charging>
0

> <r_epik_Ionization_Penalty_Neutral>
0.423322

> <r_epik_State_Penalty>
0.569486

> <r_epik_Charging_Adjusted_Penalty>
0.569486

> <i_epik_Tot_Q>
0

> <i_epik_Tot_abs_Q>
0

> <r_epik_Metal_State_Penalty>
0.568671

> <b_epik_Metal_Only>
0

> <s_lp_Force_Field>
OPLS_2005

> <r_lp_Energy>
51.7694

> <b_lp_Chiralities_Consistent>
1

> <s_lp_Variant>
AV-unprocessed.smi:213-11

> <Gold.Version>
5.8.1

> <Gold.Id.Protein>
6NUR|6NUR_protein|mol2

> <Gold.PLP.Fitness>
44.1454

> <Gold.PLP.PLP>
-40.7896

> <Gold.PLP.part.hbond>
-1.0000

> <Gold.PLP.part.metal>
0.0000

> <Gold.PLP.part.buried>
-4.9268

> <Gold.PLP.part.nonpolar>
-36.3191

> <Gold.PLP.part.repulsive>
1.9914

> <Gold.PLP.ligand.clash>
0.0000

> <Gold.PLP.ligand.torsion>
1.4981

> <Gold.PLP.Chemscore.Hbond>
1.0000

> <Gold.PLP.Chemscore.CHOScore>
1.0000

> <Gold.PLP.Chemscore.Metal>
0.0000

> <Gold.Chemscore.Hbonds>
donor molecule, donor type, donor heavy atom, donor atom, acceptor molecule, acceptor atom, score
      L1  H    23    51       P1  7948  0.86
      L1  C    19    47       P1 10175  1.00

> <Gold.PLP.Chemscore.Internal.Correction>
0.3520

> <Gold.Rescore>
     Score         DG    S(hbond)    S(metal)    S(lipo)     H(rot)  DE(clash)    DE(int)     intcor
     10.14     -13.06       0.64        0.00     106.40       2.74       0.26       2.66       ----

> <Gold.Chemscore.Fitness>
10.1398

> <Gold.Chemscore.DG>
-13.0571

> <Gold.Chemscore.ZeroCoef>
-5.4800

> <Gold.Chemscore.Hbond>
0.6399

> <Gold.Chemscore.Metal>
0.0000

> <Gold.Chemscore.Lipo>
106.3971

> <Gold.Chemscore.Internal_Hbond>
0.0000

> <Gold.Chemscore.DEClash>
0.2604

> <Gold.Chemscore.DEInternal>
2.6569

> <Gold.Chemscore.Rot>
2.7378

> <Gold.Chemscore.Internal.Correction>
   9.000000E+99

> <Gold.Chemscore.Hbonds>
donor molecule, donor type, donor heavy atom, donor atom, acceptor molecule, acceptor atom, score
      L1  H    23    51       P1  7948  0.84

> <Gold.Chemscore.Hbond.Weighted>
-2.1374

> <Gold.Chemscore.Metal.Weighted>
-0.0000

> <Gold.Chemscore.Lipo.Weighted>
-12.4485

> <Gold.Chemscore.Internal_Hbond.Weighted>
0.0000

> <Gold.Chemscore.DEClash.Weighted>
0.2604

> <Gold.Chemscore.DEInternal.Weighted>
2.6569

> <Gold.Chemscore.Rot.Weighted>
7.0087

> <Gold.Chemscore.Internal.Correction.Weighted>
   9.000000E+99

> <Gold.Protein.RotatedTorsions>
[ 6907 6896 6895 6894 ] final  131.52 input  -60.11 | X-H torsion
[ 7974 7965 7964 7962 ] final  -42.13 input  175.53 | X-H torsion
[ 8008 7997 7996 7995 ] final -137.62 input   59.86 | X-H torsion
[ 10167 10162 10161 10158 ] final  132.17 input  -65.29 | X-H torsion
[ 10718 10713 10712 10709 ] final   63.66 input   66.30 | X-H torsion
[ 10763 10752 10751 10750 ] final -108.83 input  -60.55 | X-H torsion
[ 11005 11000 10999 10996 ] final  179.11 input  -57.11 | X-H torsion

> <Gold.Protein.ActiveResidues>
 VAL166  LYS551  ARG553  GLY616  TRP617  ASP618  TYR619  PRO620  LYS621  CYS622 
 ASP623  PHE694  ASN695  SER759  ASP760  ASP761  ALA762  ILE779  LEU786  VAL792 
 PHE793  MET794  SER795  GLU796  ALA797  LYS798  CYS799  TRP800  GLU811  SER814 

> <Gold.Protein.RotatedAtoms>
  152.3418  133.6075  159.5881 H   0  0  0  0  0  0  0  0  0  0  0  0  # atno 6907 bound_to 6896
  150.7483  133.9711  159.3555 H   0  0  0  0  0  0  0  0  0  0  0  0  # atno 6908 bound_to 6896
  151.7574  135.0819  160.0391 H   0  0  0  0  0  0  0  0  0  0  0  0  # atno 6909 bound_to 6896
  146.0145  140.6924  142.9208 H   0  0  0  0  0  0  0  0  0  0  0  0  # atno 7974 bound_to 7965
  155.4149  140.0514  157.3029 H   0  0  0  0  0  0  0  0  0  0  0  0  # atno 8008 bound_to 7997
  154.4929  140.2127  155.9469 H   0  0  0  0  0  0  0  0  0  0  0  0  # atno 8009 bound_to 7997
  156.1367  140.3162  155.8436 H   0  0  0  0  0  0  0  0  0  0  0  0  # atno 8010 bound_to 7997
  139.5351  144.6674  151.4813 H   0  0  0  0  0  0  0  0  0  0  0  0  # atno 10167 bound_to 10162
  157.5986  130.9117  149.9744 H   0  0  0  0  0  0  0  0  0  0  0  0  # atno 10718 bound_to 10713
  154.8158  135.4623  154.0640 H   0  0  0  0  0  0  0  0  0  0  0  0  # atno 10763 bound_to 10752
  153.2034  135.6872  153.8210 H   0  0  0  0  0  0  0  0  0  0  0  0  # atno 10764 bound_to 10752
  153.7687  135.3273  155.3325 H   0  0  0  0  0  0  0  0  0  0  0  0  # atno 10765 bound_to 10752
  140.4026  134.6764  157.4570 H   0  0  0  0  0  0  0  0  0  0  0  0  # atno 11005 bound_to 11000
  144.6966  140.3457  143.7191 LP  0  0  0  0  0  0  0  0  0  0  0  0  # atno 17320 bound_to 7965
  145.7290  139.1731  143.2441 LP  0  0  0  0  0  0  0  0  0  0  0  0  # atno 17321 bound_to 7965
  140.6553  143.8612  150.6829 LP  0  0  0  0  0  0  0  0  0  0  0  0  # atno 17342 bound_to 10162
  140.1989  143.3975  152.1806 LP  0  0  0  0  0  0  0  0  0  0  0  0  # atno 17343 bound_to 10162
  156.1054  130.3653  150.0142 LP  0  0  0  0  0  0  0  0  0  0  0  0  # atno 17370 bound_to 10713
  156.8250  130.9372  151.3639 LP  0  0  0  0  0  0  0  0  0  0  0  0  # atno 17371 bound_to 10713
  140.0325  134.6385  155.9087 LP  0  0  0  0  0  0  0  0  0  0  0  0  # atno 17394 bound_to 11000
  141.1851  133.6554  156.5184 LP  0  0  0  0  0  0  0  0  0  0  0  0  # atno 17395 bound_to 11000

$$$$
