AV-unprocessed.smi:2871|AV-procd|sdf|11031|dock1
  -GOLD-   2272015493D 1   1.00000     0.00000
 Structure written by MMmdl.
 38 40  0  0  0  0  0  0  0  0  1 V2000
  152.2472  144.2531  161.1554 C   0  0  0  0  0  0  0  0  0  0  0  0
  152.0765  143.8010  159.7785 N   0  0  0  0  0  0  0  0  0  0  0  0
  151.4603  144.6772  158.7902 C   0  0  0  0  0  0  0  0  0  0  0  0
  152.5132  142.5105  159.4066 C   0  0  0  0  0  0  0  0  0  0  0  0
  153.5999  141.8697  160.0504 C   0  0  0  0  0  0  0  0  0  0  0  0
  153.9447  140.5777  159.5935 C   0  0  0  0  0  0  0  0  0  0  0  0
  155.0933  139.7856  160.1999 C   0  0  0  0  0  0  0  0  0  0  0  0
  156.2402  140.4349  159.9994 F   0  0  0  0  0  0  0  0  0  0  0  0
  154.9310  139.6095  161.5117 F   0  0  0  0  0  0  0  0  0  0  0  0
  155.1701  138.5875  159.6201 F   0  0  0  0  0  0  0  0  0  0  0  0
  153.2688  139.9802  158.5866 N   0  0  0  0  0  0  0  0  0  0  0  0
  152.2602  140.6622  158.0458 C   0  0  0  0  0  0  0  0  0  0  0  0
  151.5845  140.0169  157.0268 N   0  0  0  0  0  0  0  0  0  0  0  0
  152.0536  138.8062  156.3620 C   0  0  1  0  0  0  0  0  0  0  0  0
  151.3208  137.5440  156.8220 C   0  0  0  0  0  0  0  0  0  0  0  0
  150.8458  136.9523  155.4871 C   0  0  1  0  0  0  0  0  0  0  0  0
  149.6605  137.7387  154.9124 C   0  0  0  0  0  0  0  0  0  0  0  0
  150.3387  139.0254  154.4463 C   0  0  0  0  0  0  0  0  0  0  0  0
  151.8042  138.7741  154.8409 C   0  0  2  0  0  0  0  0  0  0  0  0
  151.8826  137.3765  154.6178 O   0  0  0  0  0  0  0  0  0  0  0  0
  151.8553  141.8851  158.4009 N   0  0  0  0  0  0  0  0  0  0  0  0
  151.6917  143.6117  161.8404 H   0  0  0  0  0  0  0  0  0  0  0  0
  151.8875  145.2735  161.2873 H   0  0  0  0  0  0  0  0  0  0  0  0
  153.3003  144.2313  161.4385 H   0  0  0  0  0  0  0  0  0  0  0  0
  150.5709  144.2106  158.3654 H   0  0  0  0  0  0  0  0  0  0  0  0
  152.1600  144.8948  157.9828 H   0  0  0  0  0  0  0  0  0  0  0  0
  151.1576  145.6260  159.2337 H   0  0  0  0  0  0  0  0  0  0  0  0
  154.1490  142.3339  160.8554 H   0  0  0  0  0  0  0  0  0  0  0  0
  150.7799  140.4883  156.6403 H   0  0  0  0  0  0  0  0  0  0  0  0
  153.1202  138.6847  156.5569 H   0  0  0  0  0  0  0  0  0  0  0  0
  152.0134  136.8675  157.3239 H   0  0  0  0  0  0  0  0  0  0  0  0
  150.4887  137.7394  157.5002 H   0  0  0  0  0  0  0  0  0  0  0  0
  150.6905  135.8736  155.5104 H   0  0  0  0  0  0  0  0  0  0  0  0
  149.2176  137.2122  154.0662 H   0  0  0  0  0  0  0  0  0  0  0  0
  148.8797  137.9145  155.6528 H   0  0  0  0  0  0  0  0  0  0  0  0
  150.2474  139.1301  153.3646 H   0  0  0  0  0  0  0  0  0  0  0  0
  149.9181  139.9203  154.9055 H   0  0  0  0  0  0  0  0  0  0  0  0
  152.5220  139.3553  154.2615 H   0  0  0  0  0  0  0  0  0  0  0  0
  1  2  1  0  0  0  0
  1 22  1  0  0  0  0
  1 23  1  0  0  0  0
  1 24  1  0  0  0  0
  2  3  1  0  0  0  0
  2  4  1  0  0  0  0
  3 25  1  0  0  0  0
  3 26  1  0  0  0  0
  3 27  1  0  0  0  0
  4 21  1  0  0  0  0
  4  5  2  0  0  0  0
  5  6  1  0  0  0  0
  5 28  1  0  0  0  0
  6  7  1  0  0  0  0
  6 11  2  0  0  0  0
  7  8  1  0  0  0  0
  7  9  1  0  0  0  0
  7 10  1  0  0  0  0
 11 12  1  0  0  0  0
 12 13  1  0  0  0  0
 12 21  2  0  0  0  0
 13 14  1  0  0  0  0
 13 29  1  0  0  0  0
 14 19  1  0  0  0  0
 14 15  1  0  0  0  0
 14 30  1  0  0  0  0
 15 16  1  0  0  0  0
 15 31  1  0  0  0  0
 15 32  1  0  0  0  0
 16 20  1  0  0  0  0
 16 17  1  0  0  0  0
 16 33  1  0  0  0  0
 17 18  1  0  0  0  0
 17 34  1  0  0  0  0
 17 35  1  0  0  0  0
 18 19  1  0  0  0  0
 18 36  1  0  0  0  0
 18 37  1  0  0  0  0
 19 20  1  0  0  0  0
 19 38  1  0  0  0  0
M  END
> <s_m_source_file>
AV-unprocessed.smi

> <i_m_source_file_index>
2871

> <i_lp_mmshare_version>
43012

> <i_f3d_flags>
0

> <s_epik_input>
W0NIM11OKFtDSDNdKWMxW2NIXWMoQyhGKShGKUYpbmMobjEpW05IXVtDQEhdKFtDSDJdW0NAQEhdMjMpW0NAQEhdKE8zKVtDSDJdW0NIMl0y

> <s_epik_cmdline>
J2VwaWtfcHl0aG9uJywgJy1waCcsICc3LjAnLCAnLXRuJywgJzgnLCAnLW1hJywgJzIwMCcsICctbWV0YWxfYmluZGluZycsICctaW1hZScsICc8aW5maWxlLm1hZT4nLCAnLW9tYWUnLCAnPG91dGZpbGUubWFlPic=

> <r_lp_tautomer_probability>
1

> <r_epik_Ionization_Penalty>
0.00695968

> <r_epik_Ionization_Penalty_Charging>
0

> <r_epik_Ionization_Penalty_Neutral>
0.00695968

> <r_epik_State_Penalty>
0.0050343

> <r_epik_Charging_Adjusted_Penalty>
0.0050343

> <i_epik_Tot_Q>
0

> <i_epik_Tot_abs_Q>
0

> <r_epik_Metal_State_Penalty>
-0

> <b_epik_Metal_Only>
0

> <s_lp_Force_Field>
OPLS_2005

> <r_lp_Energy>
32.958

> <b_lp_Chiralities_Consistent>
1

> <s_lp_Variant>
AV-unprocessed.smi:2871-2

> <Gold.Version>
5.8.1

> <Gold.Id.Protein>
6NUR|6NUR_protein|mol2

> <Gold.PLP.Fitness>
47.0480

> <Gold.PLP.PLP>
-42.7666

> <Gold.PLP.part.hbond>
-2.0000

> <Gold.PLP.part.metal>
0.0000

> <Gold.PLP.part.buried>
-5.2546

> <Gold.PLP.part.nonpolar>
-36.4456

> <Gold.PLP.part.repulsive>
0.2317

> <Gold.PLP.ligand.clash>
0.0000

> <Gold.PLP.ligand.torsion>
0.6738

> <Gold.PLP.Chemscore.Hbond>
1.8480

> <Gold.PLP.Chemscore.CHOScore>
0.0000

> <Gold.PLP.Chemscore.Metal>
0.0000

> <Gold.Chemscore.Hbonds>
donor molecule, donor type, donor heavy atom, donor atom, acceptor molecule, acceptor atom, score
      P1  H  7997  8008       L1    11  0.99
      P1  H 10752 10764       L1    20  0.86

> <Gold.PLP.Chemscore.Internal.Correction>
0.0850

> <Gold.Rescore>
     Score         DG    S(hbond)    S(metal)    S(lipo)     H(rot)  DE(clash)    DE(int)     intcor
     15.49     -16.00       0.86        0.00      87.41       1.00       0.00       0.51       ----

> <Gold.Chemscore.Fitness>
15.4949

> <Gold.Chemscore.DG>
-16.0047

> <Gold.Chemscore.ZeroCoef>
-5.4800

> <Gold.Chemscore.Hbond>
0.8557

> <Gold.Chemscore.Metal>
0.0000

> <Gold.Chemscore.Lipo>
87.4070

> <Gold.Chemscore.Internal_Hbond>
0.0000

> <Gold.Chemscore.DEClash>
0.0048

> <Gold.Chemscore.DEInternal>
0.5051

> <Gold.Chemscore.Rot>
1.0000

> <Gold.Chemscore.Internal.Correction>
   9.000000E+99

> <Gold.Chemscore.Hbonds>
donor molecule, donor type, donor heavy atom, donor atom, acceptor molecule, acceptor atom, score
      P1  H  7997  8008       L1    11  0.08
      P1  H 10752 10764       L1    20  0.40

> <Gold.Chemscore.Hbond.Weighted>
-2.8581

> <Gold.Chemscore.Metal.Weighted>
-0.0000

> <Gold.Chemscore.Lipo.Weighted>
-10.2266

> <Gold.Chemscore.Internal_Hbond.Weighted>
0.0000

> <Gold.Chemscore.DEClash.Weighted>
0.0048

> <Gold.Chemscore.DEInternal.Weighted>
0.5051

> <Gold.Chemscore.Rot.Weighted>
2.5600

> <Gold.Chemscore.Internal.Correction.Weighted>
   9.000000E+99

> <Gold.Protein.RotatedTorsions>
[ 6907 6896 6895 6894 ] final   50.29 input  -60.11 | X-H torsion
[ 7974 7965 7964 7962 ] final -168.17 input  175.53 | X-H torsion
[ 8008 7997 7996 7995 ] final  -91.99 input   59.86 | X-H torsion
[ 10167 10162 10161 10158 ] final   99.84 input  -65.29 | X-H torsion
[ 10718 10713 10712 10709 ] final -169.57 input   66.30 | X-H torsion
[ 10763 10752 10751 10750 ] final  -82.53 input  -60.55 | X-H torsion
[ 11005 11000 10999 10996 ] final  -51.15 input  -57.11 | X-H torsion

> <Gold.Protein.ActiveResidues>
 VAL166  LYS551  ARG553  GLY616  TRP617  ASP618  TYR619  PRO620  LYS621  CYS622 
 ASP623  PHE694  ASN695  SER759  ASP760  ASP761  ALA762  ILE779  LEU786  VAL792 
 PHE793  MET794  SER795  GLU796  ALA797  LYS798  CYS799  TRP800  GLU811  SER814 

> <Gold.Protein.RotatedAtoms>
  152.3002  134.7620  160.0359 H   0  0  0  0  0  0  0  0  0  0  0  0  # atno 6907 bound_to 6896
  151.8136  133.3380  159.3571 H   0  0  0  0  0  0  0  0  0  0  0  0  # atno 6908 bound_to 6896
  150.7270  134.5570  159.5867 H   0  0  0  0  0  0  0  0  0  0  0  0  # atno 6909 bound_to 6896
  144.7208  140.2410  143.6291 H   0  0  0  0  0  0  0  0  0  0  0  0  # atno 7974 bound_to 7965
  154.7176  140.0513  157.0609 H   0  0  0  0  0  0  0  0  0  0  0  0  # atno 8008 bound_to 7997
  155.0470  140.3175  155.4686 H   0  0  0  0  0  0  0  0  0  0  0  0  # atno 8009 bound_to 7997
  156.2807  140.2122  156.5595 H   0  0  0  0  0  0  0  0  0  0  0  0  # atno 8010 bound_to 7997
  139.7581  144.6963  151.0333 H   0  0  0  0  0  0  0  0  0  0  0  0  # atno 10167 bound_to 10162
  156.7134  130.9242  151.3091 H   0  0  0  0  0  0  0  0  0  0  0  0  # atno 10718 bound_to 10713
  154.5768  135.5588  153.7147 H   0  0  0  0  0  0  0  0  0  0  0  0  # atno 10763 bound_to 10752
  153.0067  135.6310  154.2037 H   0  0  0  0  0  0  0  0  0  0  0  0  # atno 10764 bound_to 10752
  154.1978  135.2879  155.2981 H   0  0  0  0  0  0  0  0  0  0  0  0  # atno 10765 bound_to 10752
  141.0855  133.6643  156.3835 H   0  0  0  0  0  0  0  0  0  0  0  0  # atno 11005 bound_to 11000
  145.8320  139.2090  143.1877 LP  0  0  0  0  0  0  0  0  0  0  0  0  # atno 17320 bound_to 7965
  146.0423  140.8153  142.9823 LP  0  0  0  0  0  0  0  0  0  0  0  0  # atno 17321 bound_to 7965
  140.7804  143.4730  151.0121 LP  0  0  0  0  0  0  0  0  0  0  0  0  # atno 17342 bound_to 10162
  139.8416  143.7556  152.3180 LP  0  0  0  0  0  0  0  0  0  0  0  0  # atno 17343 bound_to 10162
  157.6927  130.9250  150.0557 LP  0  0  0  0  0  0  0  0  0  0  0  0  # atno 17370 bound_to 10713
  156.1645  130.3644  149.9252 LP  0  0  0  0  0  0  0  0  0  0  0  0  # atno 17371 bound_to 10713
  140.5372  134.6156  157.5368 LP  0  0  0  0  0  0  0  0  0  0  0  0  # atno 17394 bound_to 11000
  139.9673  134.7351  156.0112 LP  0  0  0  0  0  0  0  0  0  0  0  0  # atno 17395 bound_to 11000

$$$$
