AV-unprocessed.smi:2397|AV-procd|sdf|9494|dock10
  -GOLD-   2272013123D 1   1.00000     0.00000
 Structure written by MMmdl.
 36 37  0  0  0  0  0  0  0  0  1 V2000
  152.2938  143.3984  160.5182 C   0  0  0  0  0  0  0  0  0  0  0  0
  152.4509  143.3306  158.9911 C   0  0  0  0  0  0  0  0  0  0  0  0
  152.3835  144.7111  158.3193 C   0  0  0  0  0  0  0  0  0  0  0  0
  151.4756  142.3444  158.3616 C   0  0  0  0  0  0  0  0  0  0  0  0
  150.1734  142.6230  158.4740 N   0  0  0  0  0  0  0  0  0  0  0  0
  149.3115  141.7434  157.9215 C   0  0  0  0  0  0  0  0  0  0  0  0
  149.7569  140.5815  157.2603 C   0  0  0  0  0  0  0  0  0  0  0  0
  151.1539  140.3793  157.2014 C   0  0  0  0  0  0  0  0  0  0  0  0
  151.6752  139.2402  156.5508 N   0  0  0  0  0  0  0  0  0  0  0  0
  152.4323  138.4188  157.4946 C   0  0  0  0  0  0  0  0  0  0  0  0
  153.1317  137.2575  156.7764 C   0  0  0  0  0  0  0  0  0  0  0  0
  152.1585  136.4960  156.0775 O   0  0  0  0  0  0  0  0  0  0  0  0
  151.5288  137.2666  155.0623 C   0  0  0  0  0  0  0  0  0  0  0  0
  150.7725  138.4728  155.6702 C   0  0  2  0  0  0  0  0  0  0  0  0
  150.1278  139.2506  154.5019 C   0  0  0  0  0  0  0  0  0  0  0  0
  149.5176  138.5604  153.5324 N   0  0  0  0  0  0  0  0  0  0  0  0
  150.1930  140.4777  154.4740 O   0  0  0  0  0  0  0  0  0  0  0  0
  152.0044  141.2788  157.7519 N   0  0  0  0  0  0  0  0  0  0  0  0
  152.4179  142.4133  160.9689 H   0  0  0  0  0  0  0  0  0  0  0  0
  151.3094  143.7730  160.8007 H   0  0  0  0  0  0  0  0  0  0  0  0
  153.0391  144.0601  160.9601 H   0  0  0  0  0  0  0  0  0  0  0  0
  153.4573  142.9511  158.8052 H   0  0  0  0  0  0  0  0  0  0  0  0
  152.5716  144.6349  157.2481 H   0  0  0  0  0  0  0  0  0  0  0  0
  153.1284  145.3879  158.7385 H   0  0  0  0  0  0  0  0  0  0  0  0
  151.4045  145.1727  158.4530 H   0  0  0  0  0  0  0  0  0  0  0  0
  148.2585  141.9661  158.0092 H   0  0  0  0  0  0  0  0  0  0  0  0
  149.0592  139.8804  156.8264 H   0  0  0  0  0  0  0  0  0  0  0  0
  153.1831  139.0145  158.0152 H   0  0  0  0  0  0  0  0  0  0  0  0
  151.7545  138.0271  158.2554 H   0  0  0  0  0  0  0  0  0  0  0  0
  153.8978  137.6218  156.0900 H   0  0  0  0  0  0  0  0  0  0  0  0
  153.6318  136.6141  157.5004 H   0  0  0  0  0  0  0  0  0  0  0  0
  152.2771  137.5936  154.3374 H   0  0  0  0  0  0  0  0  0  0  0  0
  150.8380  136.6150  154.5254 H   0  0  0  0  0  0  0  0  0  0  0  0
  149.9634  138.0756  156.2862 H   0  0  0  0  0  0  0  0  0  0  0  0
  149.0872  139.0508  152.7619 H   0  0  0  0  0  0  0  0  0  0  0  0
  149.4872  137.5522  153.5772 H   0  0  0  0  0  0  0  0  0  0  0  0
  1  2  1  0  0  0  0
  1 19  1  0  0  0  0
  1 20  1  0  0  0  0
  1 21  1  0  0  0  0
  2  3  1  0  0  0  0
  2  4  1  0  0  0  0
  2 22  1  0  0  0  0
  3 23  1  0  0  0  0
  3 24  1  0  0  0  0
  3 25  1  0  0  0  0
  4 18  1  0  0  0  0
  4  5  2  0  0  0  0
  5  6  1  0  0  0  0
  6  7  2  0  0  0  0
  6 26  1  0  0  0  0
  7  8  1  0  0  0  0
  7 27  1  0  0  0  0
  8  9  1  0  0  0  0
  8 18  2  0  0  0  0
  9 14  1  0  0  0  0
  9 10  1  0  0  0  0
 10 11  1  0  0  0  0
 10 28  1  0  0  0  0
 10 29  1  0  0  0  0
 11 12  1  0  0  0  0
 11 30  1  0  0  0  0
 11 31  1  0  0  0  0
 12 13  1  0  0  0  0
 13 14  1  0  0  0  0
 13 32  1  0  0  0  0
 13 33  1  0  0  0  0
 14 15  1  0  0  0  0
 14 34  1  0  0  0  0
 15 16  1  0  0  0  0
 15 17  2  0  0  0  0
 16 35  1  0  0  0  0
 16 36  1  0  0  0  0
M  END
> <s_m_source_file>
AV-unprocessed.smi

> <i_m_source_file_index>
2397

> <i_lp_mmshare_version>
43012

> <i_f3d_flags>
0

> <s_epik_input>
W0NIM11bQ0hdKFtDSDNdKWMxbltjSF1bY0hdYyhuMSlOMltDSDJdW0NIMl1PW0NIMl1bQ0BIXTJDKD1PKVtOSDJd

> <s_epik_cmdline>
J2VwaWtfcHl0aG9uJywgJy1waCcsICc3LjAnLCAnLXRuJywgJzgnLCAnLW1hJywgJzIwMCcsICctbWV0YWxfYmluZGluZycsICctaW1hZScsICc8aW5maWxlLm1hZT4nLCAnLW9tYWUnLCAnPG91dGZpbGUubWFlPic=

> <r_lp_tautomer_probability>
1

> <r_epik_Ionization_Penalty>
0.0323151

> <r_epik_Ionization_Penalty_Charging>
0

> <r_epik_Ionization_Penalty_Neutral>
0.0323151

> <r_epik_State_Penalty>
0.0267324

> <r_epik_Charging_Adjusted_Penalty>
0.0267324

> <i_epik_Tot_Q>
0

> <i_epik_Tot_abs_Q>
0

> <r_epik_Metal_State_Penalty>
0.0253461

> <b_epik_Metal_Only>
0

> <s_lp_Force_Field>
OPLS_2005

> <r_lp_Energy>
6.15108

> <b_lp_Chiralities_Consistent>
1

> <s_lp_Variant>
AV-unprocessed.smi:2397-2

> <Gold.Version>
5.8.1

> <Gold.Id.Protein>
6NUR|6NUR_protein|mol2

> <Gold.PLP.Fitness>
39.8781

> <Gold.PLP.PLP>
-31.0846

> <Gold.PLP.part.hbond>
-3.8792

> <Gold.PLP.part.metal>
0.0000

> <Gold.PLP.part.buried>
-2.8962

> <Gold.PLP.part.nonpolar>
-23.8643

> <Gold.PLP.part.repulsive>
0.3490

> <Gold.PLP.ligand.clash>
0.0000

> <Gold.PLP.ligand.torsion>
0.5809

> <Gold.PLP.Chemscore.Hbond>
3.2304

> <Gold.PLP.Chemscore.CHOScore>
0.0000

> <Gold.PLP.Chemscore.Metal>
0.0000

> <Gold.Chemscore.Hbonds>
donor molecule, donor type, donor heavy atom, donor atom, acceptor molecule, acceptor atom, score
      L1  H    16    35       P1  7957  0.78
      L1  H    16    36       P1  7948  0.27
      P1  H  7989  7998       L1    17  0.93
      P1  H 10752 10764       L1    12  1.00

> <Gold.PLP.Chemscore.Internal.Correction>
0.2641

> <Gold.Rescore>
     Score         DG    S(hbond)    S(metal)    S(lipo)     H(rot)  DE(clash)    DE(int)     intcor
     13.33     -16.43       2.34        0.00      64.81       1.74       0.09       3.01       ----

> <Gold.Chemscore.Fitness>
13.3272

> <Gold.Chemscore.DG>
-16.4268

> <Gold.Chemscore.ZeroCoef>
-5.4800

> <Gold.Chemscore.Hbond>
2.3427

> <Gold.Chemscore.Metal>
0.0000

> <Gold.Chemscore.Lipo>
64.8129

> <Gold.Chemscore.Internal_Hbond>
0.0000

> <Gold.Chemscore.DEClash>
0.0901

> <Gold.Chemscore.DEInternal>
3.0095

> <Gold.Chemscore.Rot>
1.7426

> <Gold.Chemscore.Internal.Correction>
   9.000000E+99

> <Gold.Chemscore.Hbonds>
donor molecule, donor type, donor heavy atom, donor atom, acceptor molecule, acceptor atom, score
      L1  H    16    35       P1  7957  0.77
      L1  H    16    36       P1  7948  0.26
      P1  H  7989  7998       L1    17  0.54
      P1  H 10752 10764       L1    12  0.08

> <Gold.Chemscore.Hbond.Weighted>
-7.8247

> <Gold.Chemscore.Metal.Weighted>
-0.0000

> <Gold.Chemscore.Lipo.Weighted>
-7.5831

> <Gold.Chemscore.Internal_Hbond.Weighted>
0.0000

> <Gold.Chemscore.DEClash.Weighted>
0.0901

> <Gold.Chemscore.DEInternal.Weighted>
3.0095

> <Gold.Chemscore.Rot.Weighted>
4.4610

> <Gold.Chemscore.Internal.Correction.Weighted>
   9.000000E+99

> <Gold.Protein.RotatedTorsions>
[ 6907 6896 6895 6894 ] final  170.95 input  -60.11 | X-H torsion
[ 7974 7965 7964 7962 ] final   70.52 input  175.53 | X-H torsion
[ 8008 7997 7996 7995 ] final   83.26 input   59.86 | X-H torsion
[ 10167 10162 10161 10158 ] final  156.32 input  -65.29 | X-H torsion
[ 10718 10713 10712 10709 ] final -175.59 input   66.30 | X-H torsion
[ 10763 10752 10751 10750 ] final  -25.74 input  -60.55 | X-H torsion
[ 11005 11000 10999 10996 ] final -101.23 input  -57.11 | X-H torsion

> <Gold.Protein.ActiveResidues>
 VAL166  LYS551  ARG553  GLY616  TRP617  ASP618  TYR619  PRO620  LYS621  CYS622 
 ASP623  PHE694  ASN695  SER759  ASP760  ASP761  ALA762  ILE779  LEU786  VAL792 
 PHE793  MET794  SER795  GLU796  ALA797  LYS798  CYS799  TRP800  GLU811  SER814 

> <Gold.Protein.RotatedAtoms>
  151.8079  133.3378  159.3546 H   0  0  0  0  0  0  0  0  0  0  0  0  # atno 6907 bound_to 6896
  150.7336  134.5691  159.5890 H   0  0  0  0  0  0  0  0  0  0  0  0  # atno 6908 bound_to 6896
  152.3096  134.7515  160.0391 H   0  0  0  0  0  0  0  0  0  0  0  0  # atno 6909 bound_to 6896
  145.7771  139.2870  143.1287 H   0  0  0  0  0  0  0  0  0  0  0  0  # atno 7974 bound_to 7965
  155.9215  140.3421  155.6177 H   0  0  0  0  0  0  0  0  0  0  0  0  # atno 8008 bound_to 7997
  155.7267  140.0790  157.2325 H   0  0  0  0  0  0  0  0  0  0  0  0  # atno 8009 bound_to 7997
  154.4070  140.1595  156.2450 H   0  0  0  0  0  0  0  0  0  0  0  0  # atno 8010 bound_to 7997
  139.4821  144.5019  151.8155 H   0  0  0  0  0  0  0  0  0  0  0  0  # atno 10167 bound_to 10162
  156.8021  130.9556  151.3118 H   0  0  0  0  0  0  0  0  0  0  0  0  # atno 10718 bound_to 10713
  153.7046  135.6954  153.5053 H   0  0  0  0  0  0  0  0  0  0  0  0  # atno 10763 bound_to 10752
  153.2317  135.4335  155.0601 H   0  0  0  0  0  0  0  0  0  0  0  0  # atno 10764 bound_to 10752
  154.8333  135.3486  154.6585 H   0  0  0  0  0  0  0  0  0  0  0  0  # atno 10765 bound_to 10752
  141.1239  133.8461  157.1205 H   0  0  0  0  0  0  0  0  0  0  0  0  # atno 11005 bound_to 11000
  146.0112  140.8434  142.9970 LP  0  0  0  0  0  0  0  0  0  0  0  0  # atno 17320 bound_to 7965
  144.6802  140.2492  143.7334 LP  0  0  0  0  0  0  0  0  0  0  0  0  # atno 17321 bound_to 7965
  140.4513  144.1850  150.5898 LP  0  0  0  0  0  0  0  0  0  0  0  0  # atno 17342 bound_to 10162
  140.4581  143.2459  151.9257 LP  0  0  0  0  0  0  0  0  0  0  0  0  # atno 17343 bound_to 10162
  157.6548  130.8915  149.9707 LP  0  0  0  0  0  0  0  0  0  0  0  0  # atno 17370 bound_to 10713
  156.1095  130.3651  150.0075 LP  0  0  0  0  0  0  0  0  0  0  0  0  # atno 17371 bound_to 10713
  140.0220  134.9941  157.0611 LP  0  0  0  0  0  0  0  0  0  0  0  0  # atno 17394 bound_to 11000
  140.4424  134.1667  155.7175 LP  0  0  0  0  0  0  0  0  0  0  0  0  # atno 17395 bound_to 11000

$$$$
