AV-unprocessed.smi:581|AV-procd|sdf|2992|dock7
  -GOLD-   2262023493D 1   1.00000     0.00000
 Structure written by MMmdl.
 35 36  0  0  0  0  0  0  0  0  2 V2000
  148.9969  141.6340  154.6913 C   0  0  0  0  0  0  0  0  0  0  0  0
  150.1375  141.3060  155.6395 C   0  0  0  0  0  0  0  0  0  0  0  0
  150.3293  142.2417  156.6391 N   0  0  0  0  0  0  0  0  0  0  0  0
  151.3513  142.0521  157.5594 C   0  0  0  0  0  0  0  0  0  0  0  0
  151.4389  143.0459  158.5319 N   0  0  0  0  0  0  0  0  0  0  0  0
  152.4201  142.9310  159.6095 C   0  0  0  0  0  0  0  0  0  0  0  0
  152.0487  143.8327  160.7986 C   0  0  0  0  0  0  0  0  0  0  0  0
  151.9087  145.1761  160.3544 O   0  0  0  0  0  0  0  0  0  0  0  0
  150.8747  145.2995  159.3866 C   0  0  0  0  0  0  0  0  0  0  0  0
  151.2107  144.4403  158.1559 C   0  0  0  0  0  0  0  0  0  0  0  0
  152.1563  141.0304  157.5272 N   0  0  0  0  0  0  0  0  0  0  0  0
  152.0204  140.0513  156.5314 C   0  0  0  0  0  0  0  0  0  0  0  0
  152.8000  139.1008  156.4907 O   0  0  0  0  0  0  0  0  0  0  0  0
  150.9258  140.2072  155.5469 C   0  0  0  0  0  0  0  0  0  0  0  0
  150.7600  139.1543  154.4461 C   0  0  0  0  0  0  0  0  0  0  0  0
  149.8417  137.9678  154.8174 C   0  0  0  0  0  0  0  0  0  0  0  0
  150.5966  136.8356  155.5178 C   0  0  0  0  0  0  0  0  0  0  0  0
  149.9155  135.8834  155.9578 O   0  0  0  0  0  0  0  0  0  0  0  0
  151.8395  136.9432  155.5997 O   0  5  0  0  0  0  0  0  0  0  0  0
  149.7036  143.0328  156.6711 H   0  0  0  0  0  0  0  0  0  0  0  0
  148.1987  140.8980  154.7813 H   0  0  0  0  0  0  0  0  0  0  0  0
  149.3449  141.6478  153.6585 H   0  0  0  0  0  0  0  0  0  0  0  0
  148.5674  142.6131  154.9077 H   0  0  0  0  0  0  0  0  0  0  0  0
  153.4036  143.2060  159.2259 H   0  0  0  0  0  0  0  0  0  0  0  0
  152.4876  141.8960  159.9484 H   0  0  0  0  0  0  0  0  0  0  0  0
  151.1241  143.4943  161.2694 H   0  0  0  0  0  0  0  0  0  0  0  0
  152.8278  143.7901  161.5598 H   0  0  0  0  0  0  0  0  0  0  0  0
  149.9175  145.0021  159.8180 H   0  0  0  0  0  0  0  0  0  0  0  0
  150.7821  146.3468  159.0989 H   0  0  0  0  0  0  0  0  0  0  0  0
  150.4021  144.5226  157.4288 H   0  0  0  0  0  0  0  0  0  0  0  0
  152.1093  144.8235  157.6702 H   0  0  0  0  0  0  0  0  0  0  0  0
  151.7321  138.7759  154.1275 H   0  0  0  0  0  0  0  0  0  0  0  0
  150.3566  139.6433  153.5600 H   0  0  0  0  0  0  0  0  0  0  0  0
  149.0221  138.2988  155.4541 H   0  0  0  0  0  0  0  0  0  0  0  0
  149.3793  137.5680  153.9145 H   0  0  0  0  0  0  0  0  0  0  0  0
  1 21  1  0  0  0  0
  1 22  1  0  0  0  0
  1 23  1  0  0  0  0
  1  2  1  0  0  0  0
  2 14  2  0  0  0  0
  2  3  1  0  0  0  0
  3 20  1  0  0  0  0
  3  4  1  0  0  0  0
  4  5  1  0  0  0  0
  4 11  2  0  0  0  0
  5 10  1  0  0  0  0
  5  6  1  0  0  0  0
  6  7  1  0  0  0  0
  6 24  1  0  0  0  0
  6 25  1  0  0  0  0
  7  8  1  0  0  0  0
  7 26  1  0  0  0  0
  7 27  1  0  0  0  0
  8  9  1  0  0  0  0
  9 10  1  0  0  0  0
  9 28  1  0  0  0  0
  9 29  1  0  0  0  0
 10 30  1  0  0  0  0
 10 31  1  0  0  0  0
 11 12  1  0  0  0  0
 12 13  2  0  0  0  0
 12 14  1  0  0  0  0
 14 15  1  0  0  0  0
 15 16  1  0  0  0  0
 15 32  1  0  0  0  0
 15 33  1  0  0  0  0
 16 17  1  0  0  0  0
 16 34  1  0  0  0  0
 16 35  1  0  0  0  0
 17 18  2  0  0  0  0
 17 19  1  0  0  0  0
M  CHG  1  19  -1
M  END
> <s_m_source_file>
AV-unprocessed.smi

> <i_m_source_file_index>
581

> <i_lp_mmshare_version>
43012

> <i_f3d_flags>
0

> <s_epik_input>
W0NIMl0xW0NIMl1PW0NIMl1bQ0gyXU4xYyhuYzJbQ0gzXSlbbkhdYyg9TyljMltDSDJdW0NIMl1DKD1PKVtPSF0=

> <s_epik_cmdline>
J2VwaWtfcHl0aG9uJywgJy1waCcsICc3LjAnLCAnLXRuJywgJzgnLCAnLW1hJywgJzIwMCcsICctbWV0YWxfYmluZGluZycsICctaW1hZScsICc8aW5maWxlLm1hZT4nLCAnLW9tYWUnLCAnPG91dGZpbGUubWFlPic=

> <r_lp_tautomer_probability>
0.108306

> <r_epik_Ionization_Penalty>
0.0702858

> <r_epik_Ionization_Penalty_Charging>
0.050334

> <r_epik_Ionization_Penalty_Neutral>
0.0199519

> <r_epik_State_Penalty>
1.38976

> <r_epik_Charging_Adjusted_Penalty>
1.44009

> <i_epik_Tot_Q>
-1

> <i_epik_Tot_abs_Q>
1

> <r_epik_Metal_State_Penalty>
1.61644

> <b_epik_Metal_Only>
0

> <s_lp_Force_Field>
OPLS_2005

> <r_lp_Energy>
27.984

> <b_lp_Chiralities_Consistent>
1

> <s_lp_Variant>
AV-unprocessed.smi:581-2

> <Gold.Version>
5.8.1

> <Gold.Id.Protein>
6NUR|6NUR_protein|mol2

> <Gold.PLP.Fitness>
48.2507

> <Gold.PLP.PLP>
-38.7797

> <Gold.PLP.part.hbond>
-3.0000

> <Gold.PLP.part.metal>
0.0000

> <Gold.PLP.part.buried>
-0.7945

> <Gold.PLP.part.nonpolar>
-33.3736

> <Gold.PLP.part.repulsive>
0.3325

> <Gold.PLP.ligand.clash>
0.0000

> <Gold.PLP.ligand.torsion>
0.8684

> <Gold.PLP.Chemscore.Hbond>
3.6221

> <Gold.PLP.Chemscore.CHOScore>
0.0000

> <Gold.PLP.Chemscore.Metal>
0.0000

> <Gold.Chemscore.Hbonds>
donor molecule, donor type, donor heavy atom, donor atom, acceptor molecule, acceptor atom, score
      L1  H     3    20       P1  8028  0.72
      P1  H  7997  8010       L1    13  0.80
      P1  H 10752 10765       L1    19  2.00

> <Gold.PLP.Chemscore.Internal.Correction>
0.3415

> <Gold.Rescore>
     Score         DG    S(hbond)    S(metal)    S(lipo)     H(rot)  DE(clash)    DE(int)     intcor
     13.92     -16.45       1.86        0.00      81.89       1.89       0.20       2.33       ----

> <Gold.Chemscore.Fitness>
13.9189

> <Gold.Chemscore.DG>
-16.4484

> <Gold.Chemscore.ZeroCoef>
-5.4800

> <Gold.Chemscore.Hbond>
1.8631

> <Gold.Chemscore.Metal>
0.0000

> <Gold.Chemscore.Lipo>
81.8921

> <Gold.Chemscore.Internal_Hbond>
0.0000

> <Gold.Chemscore.DEClash>
0.2041

> <Gold.Chemscore.DEInternal>
2.3254

> <Gold.Chemscore.Rot>
1.8890

> <Gold.Chemscore.Internal.Correction>
   9.000000E+99

> <Gold.Chemscore.Hbonds>
donor molecule, donor type, donor heavy atom, donor atom, acceptor molecule, acceptor atom, score
      L1  H     3    20       P1  8028  0.69
      P1  H  7997  8010       L1    13  0.12
      P1  H 10752 10765       L1    19  0.89

> <Gold.Chemscore.Hbond.Weighted>
-6.2228

> <Gold.Chemscore.Metal.Weighted>
-0.0000

> <Gold.Chemscore.Lipo.Weighted>
-9.5814

> <Gold.Chemscore.Internal_Hbond.Weighted>
0.0000

> <Gold.Chemscore.DEClash.Weighted>
0.2041

> <Gold.Chemscore.DEInternal.Weighted>
2.3254

> <Gold.Chemscore.Rot.Weighted>
4.8357

> <Gold.Chemscore.Internal.Correction.Weighted>
   9.000000E+99

> <Gold.Protein.RotatedTorsions>
[ 6907 6896 6895 6894 ] final  -58.21 input  -60.11 | X-H torsion
[ 7974 7965 7964 7962 ] final -155.75 input  175.53 | X-H torsion
[ 8008 7997 7996 7995 ] final   78.10 input   59.86 | X-H torsion
[ 10167 10162 10161 10158 ] final  135.61 input  -65.29 | X-H torsion
[ 10718 10713 10712 10709 ] final  156.46 input   66.30 | X-H torsion
[ 10763 10752 10751 10750 ] final -179.03 input  -60.55 | X-H torsion
[ 11005 11000 10999 10996 ] final -107.68 input  -57.11 | X-H torsion

> <Gold.Protein.ActiveResidues>
 VAL166  LYS551  ARG553  GLY616  TRP617  ASP618  TYR619  PRO620  LYS621  CYS622 
 ASP623  PHE694  ASN695  SER759  ASP760  ASP761  ALA762  ILE779  LEU786  VAL792 
 PHE793  MET794  SER795  GLU796  ALA797  LYS798  CYS799  TRP800  GLU811  SER814 

> <Gold.Protein.RotatedAtoms>
  150.8025  134.7128  159.6613 H   0  0  0  0  0  0  0  0  0  0  0  0  # atno 6907 bound_to 6896
  152.4143  134.6066  160.0024 H   0  0  0  0  0  0  0  0  0  0  0  0  # atno 6908 bound_to 6896
  151.6300  133.3295  159.3143 H   0  0  0  0  0  0  0  0  0  0  0  0  # atno 6909 bound_to 6896
  144.7625  140.4205  143.5966 H   0  0  0  0  0  0  0  0  0  0  0  0  # atno 7974 bound_to 7965
  155.8509  140.3458  155.5693 H   0  0  0  0  0  0  0  0  0  0  0  0  # atno 8008 bound_to 7997
  155.8038  140.0889  157.1961 H   0  0  0  0  0  0  0  0  0  0  0  0  # atno 8009 bound_to 7997
  154.4007  140.1460  156.3294 H   0  0  0  0  0  0  0  0  0  0  0  0  # atno 8010 bound_to 7997
  139.5211  144.6508  151.5308 H   0  0  0  0  0  0  0  0  0  0  0  0  # atno 10167 bound_to 10162
  157.2046  131.0684  151.2005 H   0  0  0  0  0  0  0  0  0  0  0  0  # atno 10718 bound_to 10713
  154.5402  135.2805  155.1102 H   0  0  0  0  0  0  0  0  0  0  0  0  # atno 10763 bound_to 10752
  154.2587  135.6325  153.5270 H   0  0  0  0  0  0  0  0  0  0  0  0  # atno 10764 bound_to 10752
  152.9977  135.5600  154.5940 H   0  0  0  0  0  0  0  0  0  0  0  0  # atno 10765 bound_to 10752
  141.0941  133.9002  157.2004 H   0  0  0  0  0  0  0  0  0  0  0  0  # atno 11005 bound_to 11000
  145.6574  139.1575  143.2828 LP  0  0  0  0  0  0  0  0  0  0  0  0  # atno 17320 bound_to 7965
  146.1702  140.6657  142.9237 LP  0  0  0  0  0  0  0  0  0  0  0  0  # atno 17321 bound_to 7965
  140.6312  143.9072  150.6607 LP  0  0  0  0  0  0  0  0  0  0  0  0  # atno 17342 bound_to 10162
  140.2377  143.3687  152.1513 LP  0  0  0  0  0  0  0  0  0  0  0  0  # atno 17343 bound_to 10162
  157.3733  130.7192  149.6579 LP  0  0  0  0  0  0  0  0  0  0  0  0  # atno 17370 bound_to 10713
  155.9697  130.4193  150.4367 LP  0  0  0  0  0  0  0  0  0  0  0  0  # atno 17371 bound_to 10713
  139.9774  135.0109  156.9665 LP  0  0  0  0  0  0  0  0  0  0  0  0  # atno 17394 bound_to 11000
  140.5181  134.0935  155.7285 LP  0  0  0  0  0  0  0  0  0  0  0  0  # atno 17395 bound_to 11000

$$$$
