AV-unprocessed.smi:1|AV-procd|sdf|3|dock10
  -GOLD-   2262015 83D 1   1.00000     0.00000
 Structure written by MMmdl.
 57 62  0  0  0  0  0  0  0  0  1 V2000
  152.7981  139.6299  157.8133 O   0  0  0  0  0  0  0  0  0  0  0  0
  152.0664  140.5198  158.2482 C   0  0  0  0  0  0  0  0  0  0  0  0
  150.7457  140.7721  157.7001 N   0  0  0  0  0  0  0  0  0  0  0  0
  150.1569  140.1825  156.6334 C   0  0  0  0  0  0  0  0  0  0  0  0
  150.0222  140.8107  155.4360 N   0  0  0  0  0  0  0  0  0  0  0  0
  149.4289  140.1884  154.4137 C   0  0  0  0  0  0  0  0  0  0  0  0
  148.9057  138.9619  154.3761 N   0  0  0  0  0  0  0  0  0  0  0  0
  149.0308  138.3237  155.5767 C   0  0  0  0  0  0  0  0  0  0  0  0
  149.6398  138.8655  156.7432 C   0  0  0  0  0  0  0  0  0  0  0  0
  149.5868  137.9390  157.7762 N   0  0  0  0  0  0  0  0  0  0  0  0
  148.9735  136.9137  157.2495 C   0  0  0  0  0  0  0  0  0  0  0  0
  148.5959  137.0610  155.9334 N   0  0  0  0  0  0  0  0  0  0  0  0
  147.8625  136.0672  155.0862 C   0  0  2  0  0  0  0  0  0  0  0  0
  146.7548  135.6126  155.8014 O   0  0  0  0  0  0  0  0  0  0  0  0
  146.6026  134.2101  155.6352 C   0  0  2  0  0  0  0  0  0  0  0  0
  145.8492  133.5986  156.8223 C   0  0  0  0  0  0  0  0  0  0  0  0
  146.3070  134.1993  158.0222 O   0  0  0  0  0  0  0  0  0  0  0  0
  145.8512  133.7621  159.2120 C   0  0  0  0  0  0  0  0  0  0  0  0
  145.0318  132.8493  159.3357 O   0  0  0  0  0  0  0  0  0  0  0  0
  146.4415  134.5001  160.3658 C   0  0  0  0  0  0  0  0  0  0  0  0
  147.0479  135.7591  160.1465 C   0  0  0  0  0  0  0  0  0  0  0  0
  147.6144  136.4788  161.2164 C   0  0  0  0  0  0  0  0  0  0  0  0
  147.5821  135.9481  162.5189 C   0  0  0  0  0  0  0  0  0  0  0  0
  146.9812  134.6971  162.7505 C   0  0  0  0  0  0  0  0  0  0  0  0
  146.4136  133.9760  161.6820 C   0  0  0  0  0  0  0  0  0  0  0  0
  148.0312  133.6984  155.4634 C   0  0  2  0  0  0  0  0  0  0  0  0
  148.6846  133.5018  156.7053 O   0  0  0  0  0  0  0  0  0  0  0  0
  150.2783  133.9589  156.5166 S   0  0  0  0  0  0  0  0  0  0  0  0
  150.6780  134.7775  157.6710 O   0  0  0  0  0  0  0  0  0  0  0  0
  151.0427  132.7787  156.0847 O   0  0  0  0  0  0  0  0  0  0  0  0
  150.0789  134.9573  155.1911 O   0  0  0  0  0  0  0  0  0  0  0  0
  148.7371  134.8462  154.7305 C   0  0  2  0  0  0  0  0  0  0  0  0
  152.4522  141.3470  159.4395 C   0  0  0  0  0  0  0  0  0  0  0  0
  151.8804  142.6256  159.6275 C   0  0  0  0  0  0  0  0  0  0  0  0
  152.2262  143.4032  160.7498 C   0  0  0  0  0  0  0  0  0  0  0  0
  153.1399  142.9055  161.6978 C   0  0  0  0  0  0  0  0  0  0  0  0
  153.7046  141.6277  161.5251 C   0  0  0  0  0  0  0  0  0  0  0  0
  153.3603  140.8494  160.4026 C   0  0  0  0  0  0  0  0  0  0  0  0
  150.2014  141.4814  158.1688 H   0  0  0  0  0  0  0  0  0  0  0  0
  149.3619  140.7539  153.4961 H   0  0  0  0  0  0  0  0  0  0  0  0
  148.7673  136.0165  157.8147 H   0  0  0  0  0  0  0  0  0  0  0  0
  147.5474  136.6342  154.2093 H   0  0  0  0  0  0  0  0  0  0  0  0
  146.0558  134.0337  154.7073 H   0  0  0  0  0  0  0  0  0  0  0  0
  144.7793  133.7842  156.7210 H   0  0  0  0  0  0  0  0  0  0  0  0
  145.9959  132.5178  156.8503 H   0  0  0  0  0  0  0  0  0  0  0  0
  147.0857  136.1864  159.1547 H   0  0  0  0  0  0  0  0  0  0  0  0
  148.0745  137.4392  161.0363 H   0  0  0  0  0  0  0  0  0  0  0  0
  148.0173  136.4996  163.3393 H   0  0  0  0  0  0  0  0  0  0  0  0
  146.9551  134.2887  163.7498 H   0  0  0  0  0  0  0  0  0  0  0  0
  145.9601  133.0190  161.8950 H   0  0  0  0  0  0  0  0  0  0  0  0
  148.0668  132.7653  154.9001 H   0  0  0  0  0  0  0  0  0  0  0  0
  148.7076  134.6978  153.6508 H   0  0  0  0  0  0  0  0  0  0  0  0
  151.1770  143.0214  158.9089 H   0  0  0  0  0  0  0  0  0  0  0  0
  151.7892  144.3819  160.8828 H   0  0  0  0  0  0  0  0  0  0  0  0
  153.4045  143.5017  162.5586 H   0  0  0  0  0  0  0  0  0  0  0  0
  154.4007  141.2422  162.2553 H   0  0  0  0  0  0  0  0  0  0  0  0
  153.7986  139.8678  160.2940 H   0  0  0  0  0  0  0  0  0  0  0  0
  1  2  2  0  0  0  0
  2  3  1  0  0  0  0
  2 33  1  0  0  0  0
  3  4  1  0  0  0  0
  3 39  1  0  0  0  0
  4  9  1  0  0  0  0
  4  5  2  0  0  0  0
  5  6  1  0  0  0  0
  6  7  2  0  0  0  0
  6 40  1  0  0  0  0
  7  8  1  0  0  0  0
  8 12  1  0  0  0  0
  8  9  2  0  0  0  0
  9 10  1  0  0  0  0
 10 11  2  0  0  0  0
 11 12  1  0  0  0  0
 11 41  1  0  0  0  0
 12 13  1  0  0  0  0
 13 32  1  0  0  0  0
 13 14  1  0  0  0  0
 13 42  1  0  0  0  0
 14 15  1  0  0  0  0
 15 16  1  0  0  0  0
 15 26  1  0  0  0  0
 15 43  1  0  0  0  0
 16 17  1  0  0  0  0
 16 44  1  0  0  0  0
 16 45  1  0  0  0  0
 17 18  1  0  0  0  0
 18 19  2  0  0  0  0
 18 20  1  0  0  0  0
 20 25  1  0  0  0  0
 20 21  2  0  0  0  0
 21 22  1  0  0  0  0
 21 46  1  0  0  0  0
 22 23  2  0  0  0  0
 22 47  1  0  0  0  0
 23 24  1  0  0  0  0
 23 48  1  0  0  0  0
 24 25  2  0  0  0  0
 24 49  1  0  0  0  0
 25 50  1  0  0  0  0
 26 32  1  0  0  0  0
 26 27  1  0  0  0  0
 26 51  1  0  0  0  0
 27 28  1  0  0  0  0
 28 29  2  0  0  0  0
 28 30  2  0  0  0  0
 28 31  1  0  0  0  0
 31 32  1  0  0  0  0
 32 52  1  0  0  0  0
 33 38  1  0  0  0  0
 33 34  2  0  0  0  0
 34 35  1  0  0  0  0
 34 53  1  0  0  0  0
 35 36  2  0  0  0  0
 35 54  1  0  0  0  0
 36 37  1  0  0  0  0
 36 55  1  0  0  0  0
 37 38  2  0  0  0  0
 37 56  1  0  0  0  0
 38 57  1  0  0  0  0
M  END
> <s_m_source_file>
AV-unprocessed.smi

> <i_m_source_file_index>
1

> <i_lp_mmshare_version>
43012

> <i_f3d_flags>
0

> <s_epik_input>
W2NIXTFbY0hdW2NIXVtjSF1bY0hdYzFDKD1PKVtOSF1jKG5bY0hdbjIpYyhjMjMpbltjSF1uM1tDQEBIXShbQ0BIXShbQ0BIXTQ1KU9TKE81KSg9Tyk9TylPW0NASF00W0NIMl1PQyg9TyljNltjSF1bY0hdW2NIXVtjSF1bY0hdNg==

> <s_epik_cmdline>
J2VwaWtfcHl0aG9uJywgJy1waCcsICc3LjAnLCAnLXRuJywgJzgnLCAnLW1hJywgJzIwMCcsICctbWV0YWxfYmluZGluZycsICctaW1hZScsICc8aW5maWxlLm1hZT4nLCAnLW9tYWUnLCAnPG91dGZpbGUubWFlPic=

> <r_lp_tautomer_probability>
1

> <r_epik_Ionization_Penalty>
0.00195722

> <r_epik_Ionization_Penalty_Charging>
0

> <r_epik_Ionization_Penalty_Neutral>
0.00195722

> <r_epik_State_Penalty>
0.00633741

> <r_epik_Charging_Adjusted_Penalty>
0.00633741

> <i_epik_Tot_Q>
0

> <i_epik_Tot_abs_Q>
0

> <r_epik_Metal_State_Penalty>
0.341185

> <b_epik_Metal_Only>
0

> <s_epik_Chemistry_Notes>
This compound has an ester and may undergo hydrolysis at high or low pH. This compound contains an acetal/aminal-like group ( X-CH(R)-Y where X, Y are N, S, or O) that may be acid/base labile, releasing an aldehyde.

> <s_lp_Force_Field>
OPLS_2005

> <r_lp_Energy>
44.5828

> <b_lp_Chiralities_Consistent>
1

> <s_lp_Variant>
AV-unprocessed.smi:1-3

> <Gold.Version>
5.8.1

> <Gold.Id.Protein>
6NUR|6NUR_protein|mol2

> <Gold.PLP.Fitness>
52.6818

> <Gold.PLP.PLP>
-48.4170

> <Gold.PLP.part.hbond>
-1.7053

> <Gold.PLP.part.metal>
0.0000

> <Gold.PLP.part.buried>
-6.6406

> <Gold.PLP.part.nonpolar>
-39.9350

> <Gold.PLP.part.repulsive>
0.4637

> <Gold.PLP.ligand.clash>
0.0000

> <Gold.PLP.ligand.torsion>
1.4960

> <Gold.PLP.Chemscore.Hbond>
1.3520

> <Gold.PLP.Chemscore.CHOScore>
1.0000

> <Gold.PLP.Chemscore.Metal>
0.0000

> <Gold.Chemscore.Hbonds>
donor molecule, donor type, donor heavy atom, donor atom, acceptor molecule, acceptor atom, score
      P1  H  6896  6907       L1    29  0.43
      P1  H  7997  8009       L1     1  1.00
      L1  C     6    40       P1  7957  1.00

> <Gold.PLP.Chemscore.Internal.Correction>
0.2007

> <Gold.Rescore>
     Score         DG    S(hbond)    S(metal)    S(lipo)     H(rot)  DE(clash)    DE(int)     intcor
     13.58     -18.17       1.27        0.00     118.91       2.13       0.35       4.24       ----

> <Gold.Chemscore.Fitness>
13.5765

> <Gold.Chemscore.DG>
-18.1671

> <Gold.Chemscore.ZeroCoef>
-5.4800

> <Gold.Chemscore.Hbond>
1.2684

> <Gold.Chemscore.Metal>
0.0000

> <Gold.Chemscore.Lipo>
118.9075

> <Gold.Chemscore.Internal_Hbond>
0.0000

> <Gold.Chemscore.DEClash>
0.3506

> <Gold.Chemscore.DEInternal>
4.2400

> <Gold.Chemscore.Rot>
2.1333

> <Gold.Chemscore.Internal.Correction>
   9.000000E+99

> <Gold.Chemscore.Hbonds>
donor molecule, donor type, donor heavy atom, donor atom, acceptor molecule, acceptor atom, score
      P1  H  6896  6907       L1    29  0.41
      P1  H  7997  8009       L1     1  0.95

> <Gold.Chemscore.Hbond.Weighted>
-4.2363

> <Gold.Chemscore.Metal.Weighted>
-0.0000

> <Gold.Chemscore.Lipo.Weighted>
-13.9122

> <Gold.Chemscore.Internal_Hbond.Weighted>
0.0000

> <Gold.Chemscore.DEClash.Weighted>
0.3506

> <Gold.Chemscore.DEInternal.Weighted>
4.2400

> <Gold.Chemscore.Rot.Weighted>
5.4614

> <Gold.Chemscore.Internal.Correction.Weighted>
   9.000000E+99

> <Gold.Protein.RotatedTorsions>
[ 6907 6896 6895 6894 ] final -108.08 input  -60.11 | X-H torsion
[ 7974 7965 7964 7962 ] final   73.29 input  175.53 | X-H torsion
[ 8008 7997 7996 7995 ] final  176.55 input   59.86 | X-H torsion
[ 10167 10162 10161 10158 ] final  114.84 input  -65.29 | X-H torsion
[ 10718 10713 10712 10709 ] final -120.42 input   66.30 | X-H torsion
[ 10763 10752 10751 10750 ] final -107.97 input  -60.55 | X-H torsion
[ 11005 11000 10999 10996 ] final  -55.03 input  -57.11 | X-H torsion

> <Gold.Protein.ActiveResidues>
 VAL166  LYS551  ARG553  GLY616  TRP617  ASP618  TYR619  PRO620  LYS621  CYS622 
 ASP623  PHE694  ASN695  SER759  ASP760  ASP761  ALA762  ILE779  LEU786  VAL792 
 PHE793  MET794  SER795  GLU796  ALA797  LYS798  CYS799  TRP800  GLU811  SER814 

> <Gold.Protein.RotatedAtoms>
  150.7481  133.9730  159.3551 H   0  0  0  0  0  0  0  0  0  0  0  0  # atno 6907 bound_to 6896
  151.7665  135.0795  160.0363 H   0  0  0  0  0  0  0  0  0  0  0  0  # atno 6908 bound_to 6896
  152.3368  133.5984  159.5884 H   0  0  0  0  0  0  0  0  0  0  0  0  # atno 6909 bound_to 6896
  145.7427  139.2727  143.1477 H   0  0  0  0  0  0  0  0  0  0  0  0  # atno 7974 bound_to 7965
  156.0752  140.1381  156.9780 H   0  0  0  0  0  0  0  0  0  0  0  0  # atno 8008 bound_to 7997
  154.4554  140.0963  156.6792 H   0  0  0  0  0  0  0  0  0  0  0  0  # atno 8009 bound_to 7997
  155.5164  140.3455  155.4400 H   0  0  0  0  0  0  0  0  0  0  0  0  # atno 8010 bound_to 7997
  139.6359  144.7120  151.2335 H   0  0  0  0  0  0  0  0  0  0  0  0  # atno 10167 bound_to 10162
  156.1257  130.6357  150.9538 H   0  0  0  0  0  0  0  0  0  0  0  0  # atno 10718 bound_to 10713
  154.8107  135.4655  154.0510 H   0  0  0  0  0  0  0  0  0  0  0  0  # atno 10763 bound_to 10752
  153.1943  135.6859  153.8319 H   0  0  0  0  0  0  0  0  0  0  0  0  # atno 10764 bound_to 10752
  153.7826  135.3254  155.3345 H   0  0  0  0  0  0  0  0  0  0  0  0  # atno 10765 bound_to 10752
  141.1054  133.6614  156.4408 H   0  0  0  0  0  0  0  0  0  0  0  0  # atno 11005 bound_to 11000
  146.0433  140.8143  142.9818 LP  0  0  0  0  0  0  0  0  0  0  0  0  # atno 17320 bound_to 7965
  144.6867  140.2942  143.7273 LP  0  0  0  0  0  0  0  0  0  0  0  0  # atno 17321 bound_to 7965
  140.7465  143.6396  150.8347 LP  0  0  0  0  0  0  0  0  0  0  0  0  # atno 17342 bound_to 10162
  140.0027  143.5726  152.2869 LP  0  0  0  0  0  0  0  0  0  0  0  0  # atno 17343 bound_to 10162
  157.6438  131.0906  150.8195 LP  0  0  0  0  0  0  0  0  0  0  0  0  # atno 17370 bound_to 10713
  156.8286  130.5008  149.5334 LP  0  0  0  0  0  0  0  0  0  0  0  0  # atno 17371 bound_to 10713
  140.4915  134.6571  157.5212 LP  0  0  0  0  0  0  0  0  0  0  0  0  # atno 17394 bound_to 11000
  139.9922  134.6967  155.9670 LP  0  0  0  0  0  0  0  0  0  0  0  0  # atno 17395 bound_to 11000

$$$$
