AV-unprocessed.smi:2455|AV-procd|sdf|9699|dock10
  -GOLD-   2272013343D 1   1.00000     0.00000
 Structure written by MMmdl.
 36 36  0  0  0  0  0  0  0  0  2 V2000
  151.0959  138.0231  158.3460 C   0  0  0  0  0  0  0  0  0  0  0  0
  150.4933  139.3258  157.7865 C   0  0  0  0  0  0  0  0  0  0  0  0
  151.5065  140.3721  157.2231 C   0  0  0  0  0  0  0  0  0  0  0  0
  150.7007  141.6573  156.8586 C   0  0  0  0  0  0  0  0  0  0  0  0
  149.6703  141.5305  155.7194 C   0  0  0  0  0  0  0  0  0  0  0  0
  152.6217  140.6872  158.2721 C   0  0  0  0  0  0  0  0  0  0  0  0
  152.2709  141.7805  159.1773 N   0  0  0  0  0  0  0  0  0  0  0  0
  153.0758  142.3365  160.0955 C   0  0  0  0  0  0  0  0  0  0  0  0
  154.2359  141.9786  160.2957 O   0  0  0  0  0  0  0  0  0  0  0  0
  152.4756  143.4751  160.9210 C   0  0  0  0  0  0  0  0  0  0  0  0
  151.9799  144.5379  160.0640 N   0  0  0  0  0  0  0  0  0  0  0  0
  151.2622  145.6623  160.4180 C   0  0  0  0  0  0  0  0  0  0  0  0
  151.0187  146.3670  159.2740 C   0  0  0  0  0  0  0  0  0  0  0  0
  151.6303  145.5817  158.2572 C   0  0  0  0  0  0  0  0  0  0  0  0
  152.2019  144.4870  158.7324 N   0  0  0  0  0  0  0  0  0  0  0  0
  152.1350  139.7966  155.9236 C   0  0  0  0  0  0  0  0  0  0  0  0
  151.3791  139.4843  154.9761 O   0  0  0  0  0  0  0  0  0  0  0  0
  153.3799  139.6692  155.8985 O   0  5  0  0  0  0  0  0  0  0  0  0
  150.3050  137.3546  158.6863 H   0  0  0  0  0  0  0  0  0  0  0  0
  151.7458  138.2133  159.1995 H   0  0  0  0  0  0  0  0  0  0  0  0
  151.6738  137.4845  157.5950 H   0  0  0  0  0  0  0  0  0  0  0  0
  149.7758  139.0560  157.0100 H   0  0  0  0  0  0  0  0  0  0  0  0
  149.8884  139.7857  158.5686 H   0  0  0  0  0  0  0  0  0  0  0  0
  150.1732  142.0179  157.7431 H   0  0  0  0  0  0  0  0  0  0  0  0
  151.3936  142.4590  156.6033 H   0  0  0  0  0  0  0  0  0  0  0  0
  149.1787  142.4876  155.5456 H   0  0  0  0  0  0  0  0  0  0  0  0
  148.8896  140.8069  155.9531 H   0  0  0  0  0  0  0  0  0  0  0  0
  150.1331  141.2324  154.7801 H   0  0  0  0  0  0  0  0  0  0  0  0
  152.8034  139.8172  158.9042 H   0  0  0  0  0  0  0  0  0  0  0  0
  153.5777  140.8824  157.7846 H   0  0  0  0  0  0  0  0  0  0  0  0
  151.3349  142.1483  159.0903 H   0  0  0  0  0  0  0  0  0  0  0  0
  151.6618  143.0886  161.5367 H   0  0  0  0  0  0  0  0  0  0  0  0
  153.2200  143.8928  161.6006 H   0  0  0  0  0  0  0  0  0  0  0  0
  150.9913  145.8662  161.4434 H   0  0  0  0  0  0  0  0  0  0  0  0
  150.4850  147.3009  159.1779 H   0  0  0  0  0  0  0  0  0  0  0  0
  151.6746  145.7730  157.1951 H   0  0  0  0  0  0  0  0  0  0  0  0
  1  2  1  0  0  0  0
  1 19  1  0  0  0  0
  1 20  1  0  0  0  0
  1 21  1  0  0  0  0
  2  3  1  0  0  0  0
  2 22  1  0  0  0  0
  2 23  1  0  0  0  0
  3  4  1  0  0  0  0
  3  6  1  0  0  0  0
  3 16  1  0  0  0  0
  4  5  1  0  0  0  0
  4 24  1  0  0  0  0
  4 25  1  0  0  0  0
  5 26  1  0  0  0  0
  5 27  1  0  0  0  0
  5 28  1  0  0  0  0
  6  7  1  0  0  0  0
  6 29  1  0  0  0  0
  6 30  1  0  0  0  0
  7  8  1  0  0  0  0
  7 31  1  0  0  0  0
  8  9  2  0  0  0  0
  8 10  1  0  0  0  0
 10 11  1  0  0  0  0
 10 32  1  0  0  0  0
 10 33  1  0  0  0  0
 11 15  1  0  0  0  0
 11 12  1  0  0  0  0
 12 13  2  0  0  0  0
 12 34  1  0  0  0  0
 13 14  1  0  0  0  0
 13 35  1  0  0  0  0
 14 15  2  0  0  0  0
 14 36  1  0  0  0  0
 16 17  2  0  0  0  0
 16 18  1  0  0  0  0
M  CHG  1  18  -1
M  END
> <s_m_source_file>
AV-unprocessed.smi

> <i_m_source_file_index>
2455

> <i_lp_mmshare_version>
43012

> <i_f3d_flags>
0

> <s_epik_input>
W0NIM11bQ0gyXUMoW0NIMl1bQ0gzXSkoQyg9TylbT0hdKVtDSDJdW05IXUMoPU8pW0NIMl1uMVtjSF1bY0hdW2NIXW4x

> <s_epik_cmdline>
J2VwaWtfcHl0aG9uJywgJy1waCcsICc3LjAnLCAnLXRuJywgJzgnLCAnLW1hJywgJzIwMCcsICctbWV0YWxfYmluZGluZycsICctaW1hZScsICc8aW5maWxlLm1hZT4nLCAnLW9tYWUnLCAnPG91dGZpbGUubWFlPic=

> <r_lp_tautomer_probability>
1

> <r_epik_Ionization_Penalty>
0.00236672

> <r_epik_Ionization_Penalty_Charging>
0.00235221

> <r_epik_Ionization_Penalty_Neutral>
1.45156e-05

> <r_epik_State_Penalty>
0.00162453

> <r_epik_Charging_Adjusted_Penalty>
0.00397673

> <i_epik_Tot_Q>
-1

> <i_epik_Tot_abs_Q>
1

> <r_epik_Metal_State_Penalty>
-0

> <b_epik_Metal_Only>
0

> <s_lp_Force_Field>
OPLS_2005

> <r_lp_Energy>
9.36787

> <b_lp_Chiralities_Consistent>
1

> <s_lp_Variant>
AV-unprocessed.smi:2455-1

> <Gold.Version>
5.8.1

> <Gold.Id.Protein>
6NUR|6NUR_protein|mol2

> <Gold.PLP.Fitness>
49.4319

> <Gold.PLP.PLP>
-41.7434

> <Gold.PLP.part.hbond>
-2.0000

> <Gold.PLP.part.metal>
0.0000

> <Gold.PLP.part.buried>
-5.8046

> <Gold.PLP.part.nonpolar>
-34.1010

> <Gold.PLP.part.repulsive>
0.2390

> <Gold.PLP.ligand.clash>
0.0000

> <Gold.PLP.ligand.torsion>
0.6926

> <Gold.PLP.Chemscore.Hbond>
3.0000

> <Gold.PLP.Chemscore.CHOScore>
0.0000

> <Gold.PLP.Chemscore.Metal>
0.0000

> <Gold.Chemscore.Hbonds>
donor molecule, donor type, donor heavy atom, donor atom, acceptor molecule, acceptor atom, score
      P1  H  7989  7998       L1    17  0.99
      P1  H  7997  8010       L1    18  0.26

> <Gold.PLP.Chemscore.Internal.Correction>
0.0737

> <Gold.Rescore>
     Score         DG    S(hbond)    S(metal)    S(lipo)     H(rot)  DE(clash)    DE(int)     intcor
     10.86     -14.38       1.91        0.00      79.06       2.63       0.02       3.50       ----

> <Gold.Chemscore.Fitness>
10.8638

> <Gold.Chemscore.DG>
-14.3828

> <Gold.Chemscore.ZeroCoef>
-5.4800

> <Gold.Chemscore.Hbond>
1.9132

> <Gold.Chemscore.Metal>
0.0000

> <Gold.Chemscore.Lipo>
79.0564

> <Gold.Chemscore.Internal_Hbond>
0.0000

> <Gold.Chemscore.DEClash>
0.0202

> <Gold.Chemscore.DEInternal>
3.4987

> <Gold.Chemscore.Rot>
2.6316

> <Gold.Chemscore.Internal.Correction>
   9.000000E+99

> <Gold.Chemscore.Hbonds>
donor molecule, donor type, donor heavy atom, donor atom, acceptor molecule, acceptor atom, score
      P1  H  7989  7998       L1    17  0.56
      P1  H  7997  8010       L1    18  0.15

> <Gold.Chemscore.Hbond.Weighted>
-6.3902

> <Gold.Chemscore.Metal.Weighted>
-0.0000

> <Gold.Chemscore.Lipo.Weighted>
-9.2496

> <Gold.Chemscore.Internal_Hbond.Weighted>
0.0000

> <Gold.Chemscore.DEClash.Weighted>
0.0202

> <Gold.Chemscore.DEInternal.Weighted>
3.4987

> <Gold.Chemscore.Rot.Weighted>
6.7370

> <Gold.Chemscore.Internal.Correction.Weighted>
   9.000000E+99

> <Gold.Protein.RotatedTorsions>
[ 6907 6896 6895 6894 ] final   59.96 input  -60.11 | X-H torsion
[ 7974 7965 7964 7962 ] final  -61.51 input  175.53 | X-H torsion
[ 8008 7997 7996 7995 ] final  104.11 input   59.86 | X-H torsion
[ 10167 10162 10161 10158 ] final -148.79 input  -65.29 | X-H torsion
[ 10718 10713 10712 10709 ] final  162.72 input   66.30 | X-H torsion
[ 10763 10752 10751 10750 ] final  -16.31 input  -60.55 | X-H torsion
[ 11005 11000 10999 10996 ] final  -35.51 input  -57.11 | X-H torsion

> <Gold.Protein.ActiveResidues>
 VAL166  LYS551  ARG553  GLY616  TRP617  ASP618  TYR619  PRO620  LYS621  CYS622 
 ASP623  PHE694  ASN695  SER759  ASP760  ASP761  ALA762  ILE779  LEU786  VAL792 
 PHE793  MET794  SER795  GLU796  ALA797  LYS798  CYS799  TRP800  GLU811  SER814 

> <Gold.Protein.RotatedAtoms>
  152.3961  134.6362  160.0088 H   0  0  0  0  0  0  0  0  0  0  0  0  # atno 6907 bound_to 6896
  151.6582  133.3312  159.3175 H   0  0  0  0  0  0  0  0  0  0  0  0  # atno 6908 bound_to 6896
  150.7869  134.6904  159.6538 H   0  0  0  0  0  0  0  0  0  0  0  0  # atno 6909 bound_to 6896
  145.8026  140.8646  143.0223 H   0  0  0  0  0  0  0  0  0  0  0  0  # atno 7974 bound_to 7965
  156.1544  140.3153  155.8701 H   0  0  0  0  0  0  0  0  0  0  0  0  # atno 8008 bound_to 7997
  155.3908  140.0493  157.3058 H   0  0  0  0  0  0  0  0  0  0  0  0  # atno 8009 bound_to 7997
  154.5087  140.2156  155.9210 H   0  0  0  0  0  0  0  0  0  0  0  0  # atno 8010 bound_to 7997
  139.7500  143.8533  152.2584 H   0  0  0  0  0  0  0  0  0  0  0  0  # atno 10167 bound_to 10162
  157.1185  131.0486  151.2425 H   0  0  0  0  0  0  0  0  0  0  0  0  # atno 10718 bound_to 10713
  153.5567  135.7010  153.5566 H   0  0  0  0  0  0  0  0  0  0  0  0  # atno 10763 bound_to 10752
  153.3466  135.4006  155.1614 H   0  0  0  0  0  0  0  0  0  0  0  0  # atno 10764 bound_to 10752
  154.8654  135.3755  154.5081 H   0  0  0  0  0  0  0  0  0  0  0  0  # atno 10765 bound_to 10752
  140.9802  133.7061  156.1670 H   0  0  0  0  0  0  0  0  0  0  0  0  # atno 11005 bound_to 11000
  144.6767  140.0281  143.7483 LP  0  0  0  0  0  0  0  0  0  0  0  0  # atno 17320 bound_to 7965
  145.9862  139.2979  143.1012 LP  0  0  0  0  0  0  0  0  0  0  0  0  # atno 17321 bound_to 7965
  139.8508  144.7165  150.9216 LP  0  0  0  0  0  0  0  0  0  0  0  0  # atno 17342 bound_to 10162
  140.7796  143.3901  151.1325 LP  0  0  0  0  0  0  0  0  0  0  0  0  # atno 17343 bound_to 10162
  157.4497  130.7591  149.7140 LP  0  0  0  0  0  0  0  0  0  0  0  0  # atno 17370 bound_to 10713
  155.9834  130.4001  150.3367 LP  0  0  0  0  0  0  0  0  0  0  0  0  # atno 17371 bound_to 10713
  140.7198  134.4370  157.5575 LP  0  0  0  0  0  0  0  0  0  0  0  0  # atno 17394 bound_to 11000
  139.8947  134.8701  156.2166 LP  0  0  0  0  0  0  0  0  0  0  0  0  # atno 17395 bound_to 11000

$$$$
