AV-unprocessed.smi:2061|AV-procd|sdf|8378|dock3
  -GOLD-   2272011 53D 1   1.00000     0.00000
 Structure written by MMmdl.
 44 45  0  0  0  0  0  0  0  0  2 V2000
  137.9703  136.5658  154.2483 C   0  0  0  0  0  0  0  0  0  0  0  0
  139.4493  136.6065  154.0681 C   0  0  0  0  0  0  0  0  0  0  0  0
  140.2563  137.2211  153.1533 C   0  0  0  0  0  0  0  0  0  0  0  0
  141.5634  136.8465  153.5692 C   0  0  0  0  0  0  0  0  0  0  0  0
  142.7131  137.1943  152.9707 N   0  5  0  0  0  0  0  0  0  0  0  0
  143.8903  137.0625  153.6244 C   0  0  0  0  0  0  0  0  0  0  0  0
  144.1895  136.1687  154.4198 O   0  0  0  0  0  0  0  0  0  0  0  0
  144.7748  138.0300  153.3420 N   0  0  0  0  0  0  0  0  0  0  0  0
  146.1151  138.1588  153.9098 C   0  0  0  0  0  0  0  0  0  0  0  0
  146.7592  139.5558  153.6689 C   0  0  2  0  0  0  0  0  0  0  0  0
  146.9924  139.7417  152.1474 C   0  0  0  0  0  0  0  0  0  0  0  0
  147.9867  139.7841  154.4683 N   0  0  0  0  0  0  0  0  0  0  0  0
  149.1191  138.9822  153.9959 C   0  0  0  0  0  0  0  0  0  0  0  0
  150.3959  139.1970  154.8281 C   0  0  1  0  0  0  0  0  0  0  0  0
  151.5874  138.4145  154.2655 C   0  0  0  0  0  0  0  0  0  0  0  0
  150.7383  140.5788  154.8282 O   0  0  0  0  0  0  0  0  0  0  0  0
  149.6997  141.4494  155.2708 C   0  0  2  0  0  0  0  0  0  0  0  0
  149.5037  141.3812  156.7953 C   0  0  0  0  0  0  0  0  0  0  0  0
  148.4040  141.1911  154.4759 C   0  0  0  0  0  0  0  0  0  0  0  0
  141.5493  136.0594  154.6319 N   0  0  0  0  0  0  0  0  0  0  0  0
  140.1975  135.9049  154.9613 O   0  0  0  0  0  0  0  0  0  0  0  0
  137.5104  135.9137  153.5056 H   0  0  0  0  0  0  0  0  0  0  0  0
  137.5402  137.5614  154.1379 H   0  0  0  0  0  0  0  0  0  0  0  0
  137.7052  136.1922  155.2376 H   0  0  0  0  0  0  0  0  0  0  0  0
  139.9611  137.8424  152.3213 H   0  0  0  0  0  0  0  0  0  0  0  0
  144.4888  138.7405  152.6847 H   0  0  0  0  0  0  0  0  0  0  0  0
  146.0266  137.9232  154.9693 H   0  0  0  0  0  0  0  0  0  0  0  0
  146.7425  137.3811  153.4736 H   0  0  0  0  0  0  0  0  0  0  0  0
  146.0236  140.3036  153.9695 H   0  0  0  0  0  0  0  0  0  0  0  0
  146.1031  139.5186  151.5590 H   0  0  0  0  0  0  0  0  0  0  0  0
  147.7923  139.0930  151.7891 H   0  0  0  0  0  0  0  0  0  0  0  0
  147.2479  140.7682  151.8895 H   0  0  0  0  0  0  0  0  0  0  0  0
  148.8850  137.9209  154.0480 H   0  0  0  0  0  0  0  0  0  0  0  0
  149.3200  139.2110  152.9480 H   0  0  0  0  0  0  0  0  0  0  0  0
  150.2228  138.8646  155.8521 H   0  0  0  0  0  0  0  0  0  0  0  0
  151.3848  137.3433  154.2556 H   0  0  0  0  0  0  0  0  0  0  0  0
  152.4802  138.5779  154.8694 H   0  0  0  0  0  0  0  0  0  0  0  0
  151.8151  138.7220  153.2444 H   0  0  0  0  0  0  0  0  0  0  0  0
  150.0341  142.4614  155.0413 H   0  0  0  0  0  0  0  0  0  0  0  0
  148.7930  142.1378  157.1282 H   0  0  0  0  0  0  0  0  0  0  0  0
  150.4444  141.5598  157.3165 H   0  0  0  0  0  0  0  0  0  0  0  0
  149.1202  140.4132  157.1171 H   0  0  0  0  0  0  0  0  0  0  0  0
  148.5455  141.5306  153.4486 H   0  0  0  0  0  0  0  0  0  0  0  0
  147.6336  141.8246  154.9099 H   0  0  0  0  0  0  0  0  0  0  0  0
  1  2  1  0  0  0  0
  1 22  1  0  0  0  0
  1 23  1  0  0  0  0
  1 24  1  0  0  0  0
  2 21  1  0  0  0  0
  2  3  2  0  0  0  0
  3  4  1  0  0  0  0
  3 25  1  0  0  0  0
  4  5  1  0  0  0  0
  4 20  2  0  0  0  0
  5  6  1  0  0  0  0
  6  7  2  0  0  0  0
  6  8  1  0  0  0  0
  8  9  1  0  0  0  0
  8 26  1  0  0  0  0
  9 10  1  0  0  0  0
  9 27  1  0  0  0  0
  9 28  1  0  0  0  0
 10 11  1  0  0  0  0
 10 12  1  0  0  0  0
 10 29  1  0  0  0  0
 11 30  1  0  0  0  0
 11 31  1  0  0  0  0
 11 32  1  0  0  0  0
 12 19  1  0  0  0  0
 12 13  1  0  0  0  0
 13 14  1  0  0  0  0
 13 33  1  0  0  0  0
 13 34  1  0  0  0  0
 14 15  1  0  0  0  0
 14 16  1  0  0  0  0
 14 35  1  0  0  0  0
 15 36  1  0  0  0  0
 15 37  1  0  0  0  0
 15 38  1  0  0  0  0
 16 17  1  0  0  0  0
 17 18  1  0  0  0  0
 17 19  1  0  0  0  0
 17 39  1  0  0  0  0
 18 40  1  0  0  0  0
 18 41  1  0  0  0  0
 18 42  1  0  0  0  0
 19 43  1  0  0  0  0
 19 44  1  0  0  0  0
 20 21  1  0  0  0  0
M  CHG  1   5  -1
M  END
> <s_m_source_file>
AV-unprocessed.smi

> <i_m_source_file_index>
2061

> <i_lp_mmshare_version>
43012

> <i_f3d_flags>
0

> <s_epik_input>
W0NIM11jMVtjSF1jKG5vMSlbTkhdQyg9TylbTkhdW0NIMl1bQ0BIXShbQ0gzXSlOMltDSDJdW0NAQEhdKFtDSDNdKU9bQ0BASF0oW0NIM10pW0NIMl0y

> <s_epik_cmdline>
J2VwaWtfcHl0aG9uJywgJy1waCcsICc3LjAnLCAnLXRuJywgJzgnLCAnLW1hJywgJzIwMCcsICctbWV0YWxfYmluZGluZycsICctaW1hZScsICc8aW5maWxlLm1hZT4nLCAnLW9tYWUnLCAnPG91dGZpbGUubWFlPic=

> <r_epik_Ionization_Penalty>
6.88367

> <r_epik_Ionization_Penalty_Charging>
6.57198

> <r_epik_Ionization_Penalty_Neutral>
0.311681

> <r_epik_State_Penalty>
6.77619

> <r_epik_Charging_Adjusted_Penalty>
13.3482

> <i_epik_Tot_Q>
-1

> <i_epik_Tot_abs_Q>
1

> <r_epik_Metal_State_Penalty>
2.70524

> <b_epik_Metal_Only>
1

> <s_lp_Force_Field>
OPLS_2005

> <r_lp_Energy>
23.679

> <b_lp_Chiralities_Consistent>
1

> <s_lp_Variant>
AV-unprocessed.smi:2061-19

> <Gold.Version>
5.8.1

> <Gold.Id.Protein>
6NUR|6NUR_protein|mol2

> <Gold.PLP.Fitness>
42.1763

> <Gold.PLP.PLP>
-34.8305

> <Gold.PLP.part.hbond>
-3.6502

> <Gold.PLP.part.metal>
0.0000

> <Gold.PLP.part.buried>
-2.8808

> <Gold.PLP.part.nonpolar>
-28.7027

> <Gold.PLP.part.repulsive>
0.4715

> <Gold.PLP.ligand.clash>
0.0000

> <Gold.PLP.ligand.torsion>
0.5567

> <Gold.PLP.Chemscore.Hbond>
2.8080

> <Gold.PLP.Chemscore.CHOScore>
0.0000

> <Gold.PLP.Chemscore.Metal>
0.0000

> <Gold.Chemscore.Hbonds>
donor molecule, donor type, donor heavy atom, donor atom, acceptor molecule, acceptor atom, score
      L1  H     8    26       P1 10175  0.93
      P1  H  7989  7998       L1    16  0.99
      P1  H 11000 11005       L1    21  0.66

> <Gold.PLP.Chemscore.Internal.Correction>
0.0352

> <Gold.Rescore>
     Score         DG    S(hbond)    S(metal)    S(lipo)     H(rot)  DE(clash)    DE(int)     intcor
     15.62     -18.11       2.24        0.00      77.30       1.52       0.31       2.18       ----

> <Gold.Chemscore.Fitness>
15.6220

> <Gold.Chemscore.DG>
-18.1137

> <Gold.Chemscore.ZeroCoef>
-5.4800

> <Gold.Chemscore.Hbond>
2.2390

> <Gold.Chemscore.Metal>
0.0000

> <Gold.Chemscore.Lipo>
77.3009

> <Gold.Chemscore.Internal_Hbond>
0.0000

> <Gold.Chemscore.DEClash>
0.3106

> <Gold.Chemscore.DEInternal>
2.1811

> <Gold.Chemscore.Rot>
1.5190

> <Gold.Chemscore.Internal.Correction>
   9.000000E+99

> <Gold.Chemscore.Hbonds>
donor molecule, donor type, donor heavy atom, donor atom, acceptor molecule, acceptor atom, score
      L1  H     8    26       P1 10175  0.89
      P1  H  7989  7998       L1    16  0.65
      P1  H 11000 11005       L1    21  0.60

> <Gold.Chemscore.Hbond.Weighted>
-7.4782

> <Gold.Chemscore.Metal.Weighted>
-0.0000

> <Gold.Chemscore.Lipo.Weighted>
-9.0442

> <Gold.Chemscore.Internal_Hbond.Weighted>
0.0000

> <Gold.Chemscore.DEClash.Weighted>
0.3106

> <Gold.Chemscore.DEInternal.Weighted>
2.1811

> <Gold.Chemscore.Rot.Weighted>
3.8886

> <Gold.Chemscore.Internal.Correction.Weighted>
   9.000000E+99

> <Gold.Protein.RotatedTorsions>
[ 6907 6896 6895 6894 ] final   17.06 input  -60.11 | X-H torsion
[ 7974 7965 7964 7962 ] final    4.25 input  175.53 | X-H torsion
[ 8008 7997 7996 7995 ] final   89.75 input   59.86 | X-H torsion
[ 10167 10162 10161 10158 ] final -100.48 input  -65.29 | X-H torsion
[ 10718 10713 10712 10709 ] final  -16.56 input   66.30 | X-H torsion
[ 10763 10752 10751 10750 ] final  -60.94 input  -60.55 | X-H torsion
[ 11005 11000 10999 10996 ] final   93.06 input  -57.11 | X-H torsion

> <Gold.Protein.ActiveResidues>
 VAL166  LYS551  ARG553  GLY616  TRP617  ASP618  TYR619  PRO620  LYS621  CYS622 
 ASP623  PHE694  ASN695  SER759  ASP760  ASP761  ALA762  ILE779  LEU786  VAL792 
 PHE793  MET794  SER795  GLU796  ALA797  LYS798  CYS799  TRP800  GLU811  SER814 

> <Gold.Protein.RotatedAtoms>
  151.8437  135.0581  160.0450 H   0  0  0  0  0  0  0  0  0  0  0  0  # atno 6907 bound_to 6896
  152.2789  133.5447  159.5494 H   0  0  0  0  0  0  0  0  0  0  0  0  # atno 6908 bound_to 6896
  150.7181  134.0508  159.3840 H   0  0  0  0  0  0  0  0  0  0  0  0  # atno 6909 bound_to 6896
  146.2444  140.0562  142.8371 H   0  0  0  0  0  0  0  0  0  0  0  0  # atno 7974 bound_to 7965
  156.0037  140.3357  155.6871 H   0  0  0  0  0  0  0  0  0  0  0  0  # atno 8008 bound_to 7997
  155.6255  140.0679  157.2683 H   0  0  0  0  0  0  0  0  0  0  0  0  # atno 8009 bound_to 7997
  154.4257  140.1769  156.1405 H   0  0  0  0  0  0  0  0  0  0  0  0  # atno 8010 bound_to 7997
  140.2514  143.3470  152.0711 H   0  0  0  0  0  0  0  0  0  0  0  0  # atno 10167 bound_to 10162
  156.5859  130.4786  149.6300 H   0  0  0  0  0  0  0  0  0  0  0  0  # atno 10718 bound_to 10713
  154.2769  135.6279  153.5332 H   0  0  0  0  0  0  0  0  0  0  0  0  # atno 10763 bound_to 10752
  152.9871  135.5623  154.5538 H   0  0  0  0  0  0  0  0  0  0  0  0  # atno 10764 bound_to 10752
  154.5121  135.2877  155.1310 H   0  0  0  0  0  0  0  0  0  0  0  0  # atno 10765 bound_to 10752
  139.8815  134.8769  156.3663 H   0  0  0  0  0  0  0  0  0  0  0  0  # atno 11005 bound_to 11000
  145.0940  140.9303  143.4752 LP  0  0  0  0  0  0  0  0  0  0  0  0  # atno 17320 bound_to 7965
  145.0741  139.3009  143.5817 LP  0  0  0  0  0  0  0  0  0  0  0  0  # atno 17321 bound_to 7965
  139.5045  144.6776  151.6088 LP  0  0  0  0  0  0  0  0  0  0  0  0  # atno 17342 bound_to 10162
  140.6037  143.9563  150.6404 LP  0  0  0  0  0  0  0  0  0  0  0  0  # atno 17343 bound_to 10162
  156.2591  130.6952  151.1715 LP  0  0  0  0  0  0  0  0  0  0  0  0  # atno 17370 bound_to 10713
  157.7315  131.0607  150.5673 LP  0  0  0  0  0  0  0  0  0  0  0  0  # atno 17371 bound_to 10713
  140.9494  133.7461  156.0252 LP  0  0  0  0  0  0  0  0  0  0  0  0  # atno 17394 bound_to 11000
  140.8123  134.3385  157.5408 LP  0  0  0  0  0  0  0  0  0  0  0  0  # atno 17395 bound_to 11000

$$$$
