AV-unprocessed.smi:3336|AV-procd|sdf|12855|dock3
  -GOLD-   2272019253D 1   1.00000     0.00000
 Structure written by MMmdl.
 42 43  0  0  0  0  0  0  0  0  2 V2000
  144.7047  137.3370  153.5803 C   0  0  0  0  0  0  0  0  0  0  0  0
  146.0342  137.5767  152.8449 C   0  0  2  0  0  0  0  0  0  0  0  0
  145.9916  137.0771  151.3817 C   0  0  0  0  0  0  0  0  0  0  0  0
  145.4403  135.7404  151.2536 N   0  0  0  0  0  0  0  0  0  0  0  0
  146.0188  134.5357  151.5946 C   0  0  0  0  0  0  0  0  0  0  0  0
  145.1230  133.5533  151.2836 C   0  0  0  0  0  0  0  0  0  0  0  0
  144.0150  134.2642  150.7433 C   0  0  0  0  0  0  0  0  0  0  0  0
  144.2091  135.5733  150.7248 N   0  0  0  0  0  0  0  0  0  0  0  0
  147.1289  136.9239  153.6021 N   0  3  0  0  0  0  0  0  0  0  0  0
  147.6728  137.6551  154.7730 C   0  0  1  0  0  0  0  0  0  0  0  0
  146.9064  137.2832  156.0615 C   0  0  0  0  0  0  0  0  0  0  0  0
  149.1813  137.3557  154.9026 C   0  0  0  0  0  0  0  0  0  0  0  0
  149.5301  136.1996  155.1466 O   0  0  0  0  0  0  0  0  0  0  0  0
  150.0884  138.3489  154.7213 N   0  0  0  0  0  0  0  0  0  0  0  0
  149.7052  139.7396  154.4550 C   0  0  0  0  0  0  0  0  0  0  0  0
  150.1549  140.6048  155.6463 C   0  0  0  0  0  0  0  0  0  0  0  0
  151.5624  140.4721  155.8307 O   0  0  0  0  0  0  0  0  0  0  0  0
  151.9745  139.1266  156.0557 C   0  0  0  0  0  0  0  0  0  0  0  0
  151.5448  138.2488  154.8668 C   0  0  0  0  0  0  0  0  0  0  0  0
  143.8817  137.8762  153.1104 H   0  0  0  0  0  0  0  0  0  0  0  0
  144.7612  137.6791  154.6143 H   0  0  0  0  0  0  0  0  0  0  0  0
  144.4439  136.2781  153.5941 H   0  0  0  0  0  0  0  0  0  0  0  0
  146.2032  138.6530  152.8434 H   0  0  0  0  0  0  0  0  0  0  0  0
  145.3929  137.7402  150.7576 H   0  0  0  0  0  0  0  0  0  0  0  0
  146.9969  137.0732  150.9578 H   0  0  0  0  0  0  0  0  0  0  0  0
  147.0066  134.4772  152.0276 H   0  0  0  0  0  0  0  0  0  0  0  0
  145.2418  132.4883  151.4187 H   0  0  0  0  0  0  0  0  0  0  0  0
  143.0828  133.8702  150.3658 H   0  0  0  0  0  0  0  0  0  0  0  0
  146.7933  136.0322  153.9384 H   0  0  0  0  0  0  0  0  0  0  0  0
  147.5539  138.7292  154.6434 H   0  0  0  0  0  0  0  0  0  0  0  0
  147.3650  137.7398  156.9399 H   0  0  0  0  0  0  0  0  0  0  0  0
  146.8833  136.2044  156.2212 H   0  0  0  0  0  0  0  0  0  0  0  0
  145.8749  137.6332  156.0340 H   0  0  0  0  0  0  0  0  0  0  0  0
  150.1897  140.0806  153.5390 H   0  0  0  0  0  0  0  0  0  0  0  0
  148.6343  139.8674  154.2924 H   0  0  0  0  0  0  0  0  0  0  0  0
  149.9200  141.6532  155.4623 H   0  0  0  0  0  0  0  0  0  0  0  0
  149.6307  140.3141  156.5580 H   0  0  0  0  0  0  0  0  0  0  0  0
  153.0583  139.1038  156.1701 H   0  0  0  0  0  0  0  0  0  0  0  0
  151.5464  138.7555  156.9883 H   0  0  0  0  0  0  0  0  0  0  0  0
  151.9109  137.2374  155.0176 H   0  0  0  0  0  0  0  0  0  0  0  0
  152.0228  138.6006  153.9513 H   0  0  0  0  0  0  0  0  0  0  0  0
  147.8860  136.7498  152.9569 H   0  0  0  0  0  0  0  0  0  0  0  0
  1  2  1  0  0  0  0
  1 20  1  0  0  0  0
  1 21  1  0  0  0  0
  1 22  1  0  0  0  0
  2  3  1  0  0  0  0
  2  9  1  0  0  0  0
  2 23  1  0  0  0  0
  3  4  1  0  0  0  0
  3 24  1  0  0  0  0
  3 25  1  0  0  0  0
  4  8  1  0  0  0  0
  4  5  1  0  0  0  0
  5  6  2  0  0  0  0
  5 26  1  0  0  0  0
  6  7  1  0  0  0  0
  6 27  1  0  0  0  0
  7  8  2  0  0  0  0
  7 28  1  0  0  0  0
  9 10  1  0  0  0  0
  9 29  1  0  0  0  0
  9 42  1  0  0  0  0
 10 11  1  0  0  0  0
 10 12  1  0  0  0  0
 10 30  1  0  0  0  0
 11 31  1  0  0  0  0
 11 32  1  0  0  0  0
 11 33  1  0  0  0  0
 12 13  2  0  0  0  0
 12 14  1  0  0  0  0
 14 19  1  0  0  0  0
 14 15  1  0  0  0  0
 15 16  1  0  0  0  0
 15 34  1  0  0  0  0
 15 35  1  0  0  0  0
 16 17  1  0  0  0  0
 16 36  1  0  0  0  0
 16 37  1  0  0  0  0
 17 18  1  0  0  0  0
 18 19  1  0  0  0  0
 18 38  1  0  0  0  0
 18 39  1  0  0  0  0
 19 40  1  0  0  0  0
 19 41  1  0  0  0  0
M  CHG  1   9   1
M  END
> <s_m_source_file>
AV-unprocessed.smi

> <i_m_source_file_index>
3336

> <i_lp_mmshare_version>
43012

> <i_f3d_flags>
0

> <s_epik_input>
bjFbY0hdW2NIXVtjSF1uMVtDSDJdW0NAQEhdKFtDSDNdKVtOSF1bQ0BIXShbQ0gzXSlDKD1PKU4yW0NIMl1bQ0gyXU9bQ0gyXVtDSDJdMg==

> <s_epik_cmdline>
J2VwaWtfcHl0aG9uJywgJy1waCcsICc3LjAnLCAnLXRuJywgJzgnLCAnLW1hJywgJzIwMCcsICctbWV0YWxfYmluZGluZycsICctaW1hZScsICc8aW5maWxlLm1hZT4nLCAnLW9tYWUnLCAnPG91dGZpbGUubWFlPic=

> <r_lp_tautomer_probability>
1

> <r_epik_Ionization_Penalty>
0.200288

> <r_epik_Ionization_Penalty_Charging>
0.200285

> <r_epik_Ionization_Penalty_Neutral>
3.37705e-06

> <r_epik_State_Penalty>
0.190126

> <r_epik_Charging_Adjusted_Penalty>
0.39041

> <i_epik_Tot_Q>
1

> <i_epik_Tot_abs_Q>
1

> <r_epik_Metal_State_Penalty>
0.190133

> <b_epik_Metal_Only>
0

> <s_lp_Force_Field>
OPLS_2005

> <r_lp_Energy>
29.2722

> <b_lp_Chiralities_Consistent>
1

> <s_lp_Variant>
AV-unprocessed.smi:3336-3

> <Gold.Version>
5.8.1

> <Gold.Id.Protein>
6NUR|6NUR_protein|mol2

> <Gold.PLP.Fitness>
40.1264

> <Gold.PLP.PLP>
-29.0150

> <Gold.PLP.part.hbond>
-2.0000

> <Gold.PLP.part.metal>
0.0000

> <Gold.PLP.part.buried>
0.4805

> <Gold.PLP.part.nonpolar>
-27.9224

> <Gold.PLP.part.repulsive>
0.4320

> <Gold.PLP.ligand.clash>
0.0000

> <Gold.PLP.ligand.torsion>
0.9286

> <Gold.PLP.Chemscore.Hbond>
2.2827

> <Gold.PLP.Chemscore.CHOScore>
2.0000

> <Gold.PLP.Chemscore.Metal>
0.0000

> <Gold.Chemscore.Hbonds>
donor molecule, donor type, donor heavy atom, donor atom, acceptor molecule, acceptor atom, score
      L1  H     9    42       P1  7948  2.00
      P1  H  7989  7998       L1    17  0.03
      L1  C     5    26       P1  7948  0.84
      L1  C     7    28       P1 10186  1.00

> <Gold.PLP.Chemscore.Internal.Correction>
0.1204

> <Gold.Rescore>
     Score         DG    S(hbond)    S(metal)    S(lipo)     H(rot)  DE(clash)    DE(int)     intcor
     10.18     -11.15       1.00        0.00      60.49       1.85       0.03       0.94       ----

> <Gold.Chemscore.Fitness>
10.1754

> <Gold.Chemscore.DG>
-11.1482

> <Gold.Chemscore.ZeroCoef>
-5.4800

> <Gold.Chemscore.Hbond>
0.9992

> <Gold.Chemscore.Metal>
0.0000

> <Gold.Chemscore.Lipo>
60.4917

> <Gold.Chemscore.Internal_Hbond>
0.0000

> <Gold.Chemscore.DEClash>
0.0315

> <Gold.Chemscore.DEInternal>
0.9413

> <Gold.Chemscore.Rot>
1.8541

> <Gold.Chemscore.Internal.Correction>
   9.000000E+99

> <Gold.Chemscore.Hbonds>
donor molecule, donor type, donor heavy atom, donor atom, acceptor molecule, acceptor atom, score
      L1  H     9    42       P1  7948  0.99

> <Gold.Chemscore.Hbond.Weighted>
-3.3372

> <Gold.Chemscore.Metal.Weighted>
-0.0000

> <Gold.Chemscore.Lipo.Weighted>
-7.0775

> <Gold.Chemscore.Internal_Hbond.Weighted>
0.0000

> <Gold.Chemscore.DEClash.Weighted>
0.0315

> <Gold.Chemscore.DEInternal.Weighted>
0.9413

> <Gold.Chemscore.Rot.Weighted>
4.7465

> <Gold.Chemscore.Internal.Correction.Weighted>
   9.000000E+99

> <Gold.Protein.RotatedTorsions>
[ 6907 6896 6895 6894 ] final   50.52 input  -60.11 | X-H torsion
[ 7974 7965 7964 7962 ] final -124.01 input  175.53 | X-H torsion
[ 8008 7997 7996 7995 ] final  141.14 input   59.86 | X-H torsion
[ 10167 10162 10161 10158 ] final  137.60 input  -65.29 | X-H torsion
[ 10718 10713 10712 10709 ] final -135.05 input   66.30 | X-H torsion
[ 10763 10752 10751 10750 ] final  -49.30 input  -60.55 | X-H torsion
[ 11005 11000 10999 10996 ] final  164.69 input  -57.11 | X-H torsion

> <Gold.Protein.ActiveResidues>
 VAL166  LYS551  ARG553  GLY616  TRP617  ASP618  TYR619  PRO620  LYS621  CYS622 
 ASP623  PHE694  ASN695  SER759  ASP760  ASP761  ALA762  ILE779  LEU786  VAL792 
 PHE793  MET794  SER795  GLU796  ALA797  LYS798  CYS799  TRP800  GLU811  SER814 

> <Gold.Protein.RotatedAtoms>
  152.3027  134.7592  160.0354 H   0  0  0  0  0  0  0  0  0  0  0  0  # atno 6907 bound_to 6896
  151.8100  133.3375  159.3560 H   0  0  0  0  0  0  0  0  0  0  0  0  # atno 6908 bound_to 6896
  150.7281  134.5603  159.5883 H   0  0  0  0  0  0  0  0  0  0  0  0  # atno 6909 bound_to 6896
  145.0126  140.7919  143.4429 H   0  0  0  0  0  0  0  0  0  0  0  0  # atno 7974 bound_to 7965
  156.2970  140.2323  156.4516 H   0  0  0  0  0  0  0  0  0  0  0  0  # atno 8008 bound_to 7997
  154.8097  140.0444  157.1354 H   0  0  0  0  0  0  0  0  0  0  0  0  # atno 8009 bound_to 7997
  154.9438  140.3033  155.5111 H   0  0  0  0  0  0  0  0  0  0  0  0  # atno 8010 bound_to 7997
  139.5139  144.6401  151.5592 H   0  0  0  0  0  0  0  0  0  0  0  0  # atno 10167 bound_to 10162
  156.2620  130.7215  151.1152 H   0  0  0  0  0  0  0  0  0  0  0  0  # atno 10718 bound_to 10713
  154.0918  135.6576  153.4854 H   0  0  0  0  0  0  0  0  0  0  0  0  # atno 10763 bound_to 10752
  153.0319  135.5204  154.7373 H   0  0  0  0  0  0  0  0  0  0  0  0  # atno 10764 bound_to 10752
  154.6499  135.3000  154.9969 H   0  0  0  0  0  0  0  0  0  0  0  0  # atno 10765 bound_to 10752
  140.2485  134.7995  157.3479 H   0  0  0  0  0  0  0  0  0  0  0  0  # atno 11005 bound_to 11000
  145.2003  139.2255  143.5196 LP  0  0  0  0  0  0  0  0  0  0  0  0  # atno 17320 bound_to 7965
  146.3472  140.1819  142.8589 LP  0  0  0  0  0  0  0  0  0  0  0  0  # atno 17321 bound_to 7965
  140.6164  143.9340  150.6492 LP  0  0  0  0  0  0  0  0  0  0  0  0  # atno 17342 bound_to 10162
  140.2599  143.3531  152.1331 LP  0  0  0  0  0  0  0  0  0  0  0  0  # atno 17343 bound_to 10162
  157.7254  131.0653  150.5955 LP  0  0  0  0  0  0  0  0  0  0  0  0  # atno 17370 bound_to 10713
  156.6044  130.4363  149.5884 LP  0  0  0  0  0  0  0  0  0  0  0  0  # atno 17371 bound_to 10713
  140.1581  134.4763  155.7913 LP  0  0  0  0  0  0  0  0  0  0  0  0  # atno 17394 bound_to 11000
  141.2204  133.6890  156.7497 LP  0  0  0  0  0  0  0  0  0  0  0  0  # atno 17395 bound_to 11000

$$$$
