AV-unprocessed.smi:2218|AV-procd|sdf|8976|dock5
  -GOLD-   2272012193D 1   1.00000     0.00000
 Structure written by MMmdl.
 32 32  0  0  0  0  0  0  0  0  2 V2000
  153.0287  142.6204  161.0219 C   0  0  0  0  0  0  0  0  0  0  0  0
  152.3446  142.5307  159.7011 C   0  0  0  0  0  0  0  0  0  0  0  0
  152.1246  141.3799  159.0601 N   0  0  0  0  0  0  0  0  0  0  0  0
  151.4710  141.5612  157.8364 C   0  0  0  0  0  0  0  0  0  0  0  0
  151.1407  140.3721  156.9777 C   0  0  0  0  0  0  0  0  0  0  0  0
  150.1331  140.7120  155.8711 C   0  0  0  0  0  0  0  0  0  0  0  0
  150.4047  140.5424  154.6812 O   0  0  0  0  0  0  0  0  0  0  0  0
  148.9593  141.2100  156.2890 N   0  0  0  0  0  0  0  0  0  0  0  0
  147.8727  141.6432  155.4184 C   0  0  0  0  0  0  0  0  0  0  0  0
  146.5512  141.7674  156.1937 C   0  0  0  0  0  0  0  0  0  0  0  0
  146.7627  142.1687  157.6601 C   0  0  0  0  0  0  0  0  0  0  0  0
  145.4766  142.7244  158.3036 C   0  0  0  0  0  0  0  0  0  0  0  0
  145.6193  142.9969  159.8068 C   0  0  0  0  0  0  0  0  0  0  0  0
  144.6149  143.4726  160.3796 O   0  0  0  0  0  0  0  0  0  0  0  0
  146.7062  142.7295  160.3665 O   0  5  0  0  0  0  0  0  0  0  0  0
  151.1893  142.8777  157.5644 C   0  0  0  0  0  0  0  0  0  0  0  0
  151.7484  143.9374  158.8289 S   0  0  0  0  0  0  0  0  0  0  0  0
  153.0672  141.6418  161.5015 H   0  0  0  0  0  0  0  0  0  0  0  0
  152.4909  143.3076  161.6751 H   0  0  0  0  0  0  0  0  0  0  0  0
  154.0469  142.9863  160.8890 H   0  0  0  0  0  0  0  0  0  0  0  0
  152.0446  139.9694  156.5189 H   0  0  0  0  0  0  0  0  0  0  0  0
  150.7238  139.5717  157.5901 H   0  0  0  0  0  0  0  0  0  0  0  0
  148.8151  141.3153  157.2828 H   0  0  0  0  0  0  0  0  0  0  0  0
  148.1270  142.5891  154.9368 H   0  0  0  0  0  0  0  0  0  0  0  0
  147.7668  140.9078  154.6205 H   0  0  0  0  0  0  0  0  0  0  0  0
  145.9137  142.5058  155.7056 H   0  0  0  0  0  0  0  0  0  0  0  0
  146.0119  140.8201  156.1556 H   0  0  0  0  0  0  0  0  0  0  0  0
  147.1114  141.3003  158.2211 H   0  0  0  0  0  0  0  0  0  0  0  0
  147.5561  142.9157  157.7152 H   0  0  0  0  0  0  0  0  0  0  0  0
  145.1889  143.6542  157.8116 H   0  0  0  0  0  0  0  0  0  0  0  0
  144.6544  142.0231  158.1575 H   0  0  0  0  0  0  0  0  0  0  0  0
  150.6948  143.2863  156.6959 H   0  0  0  0  0  0  0  0  0  0  0  0
  1  2  1  0  0  0  0
  1 18  1  0  0  0  0
  1 19  1  0  0  0  0
  1 20  1  0  0  0  0
  2 17  1  0  0  0  0
  2  3  2  0  0  0  0
  3  4  1  0  0  0  0
  4  5  1  0  0  0  0
  4 16  2  0  0  0  0
  5  6  1  0  0  0  0
  5 21  1  0  0  0  0
  5 22  1  0  0  0  0
  6  7  2  0  0  0  0
  6  8  1  0  0  0  0
  8  9  1  0  0  0  0
  8 23  1  0  0  0  0
  9 10  1  0  0  0  0
  9 24  1  0  0  0  0
  9 25  1  0  0  0  0
 10 11  1  0  0  0  0
 10 26  1  0  0  0  0
 10 27  1  0  0  0  0
 11 12  1  0  0  0  0
 11 28  1  0  0  0  0
 11 29  1  0  0  0  0
 12 13  1  0  0  0  0
 12 30  1  0  0  0  0
 12 31  1  0  0  0  0
 13 14  2  0  0  0  0
 13 15  1  0  0  0  0
 16 17  1  0  0  0  0
 16 32  1  0  0  0  0
M  CHG  1  15  -1
M  END
> <s_m_source_file>
AV-unprocessed.smi

> <i_m_source_file_index>
2218

> <i_lp_mmshare_version>
43012

> <i_f3d_flags>
0

> <s_epik_input>
W0NIM11jMW5jKFtjSF1zMSlbQ0gyXUMoPU8pW05IXVtDSDJdW0NIMl1bQ0gyXVtDSDJdQyg9TylbT0hd

> <s_epik_cmdline>
J2VwaWtfcHl0aG9uJywgJy1waCcsICc3LjAnLCAnLXRuJywgJzgnLCAnLW1hJywgJzIwMCcsICctbWV0YWxfYmluZGluZycsICctaW1hZScsICc8aW5maWxlLm1hZT4nLCAnLW9tYWUnLCAnPG91dGZpbGUubWFlPic=

> <r_epik_Ionization_Penalty>
0.0039764

> <r_epik_Ionization_Penalty_Charging>
0.00392012

> <r_epik_Ionization_Penalty_Neutral>
5.62812e-05

> <r_epik_State_Penalty>
0.00280293

> <r_epik_Charging_Adjusted_Penalty>
0.00672305

> <i_epik_Tot_Q>
-1

> <i_epik_Tot_abs_Q>
1

> <r_epik_Metal_State_Penalty>
-0

> <b_epik_Metal_Only>
0

> <s_lp_Force_Field>
OPLS_2005

> <r_lp_Energy>
1.59535

> <b_lp_Chiralities_Consistent>
1

> <s_lp_Variant>
AV-unprocessed.smi:2218-1

> <Gold.Version>
5.8.1

> <Gold.Id.Protein>
6NUR|6NUR_protein|mol2

> <Gold.PLP.Fitness>
45.2405

> <Gold.PLP.PLP>
-29.2859

> <Gold.PLP.part.hbond>
-3.0000

> <Gold.PLP.part.metal>
0.0000

> <Gold.PLP.part.buried>
-4.5506

> <Gold.PLP.part.nonpolar>
-22.6476

> <Gold.PLP.part.repulsive>
0.1881

> <Gold.PLP.ligand.clash>
0.0000

> <Gold.PLP.ligand.torsion>
0.5503

> <Gold.PLP.Chemscore.Hbond>
4.6720

> <Gold.PLP.Chemscore.CHOScore>
0.9997

> <Gold.PLP.Chemscore.Metal>
0.0000

> <Gold.Chemscore.Hbonds>
donor molecule, donor type, donor heavy atom, donor atom, acceptor molecule, acceptor atom, score
      P1  H  6933  6944       L1    15  1.30
      P1  H  6934  6946       L1    15  2.00
      P1  H  7989  7998       L1     7  0.96
      L1  C    16    32       P1  8028  1.00

> <Gold.PLP.Chemscore.Internal.Correction>
0.0399

> <Gold.Rescore>
     Score         DG    S(hbond)    S(metal)    S(lipo)     H(rot)  DE(clash)    DE(int)     intcor
     14.28     -14.94       2.64        0.00      67.39       2.83       0.01       0.65       ----

> <Gold.Chemscore.Fitness>
14.2770

> <Gold.Chemscore.DG>
-14.9428

> <Gold.Chemscore.ZeroCoef>
-5.4800

> <Gold.Chemscore.Hbond>
2.6427

> <Gold.Chemscore.Metal>
0.0000

> <Gold.Chemscore.Lipo>
67.3876

> <Gold.Chemscore.Internal_Hbond>
0.0000

> <Gold.Chemscore.DEClash>
0.0149

> <Gold.Chemscore.DEInternal>
0.6510

> <Gold.Chemscore.Rot>
2.8313

> <Gold.Chemscore.Internal.Correction>
   9.000000E+99

> <Gold.Chemscore.Hbonds>
donor molecule, donor type, donor heavy atom, donor atom, acceptor molecule, acceptor atom, score
      P1  H  6933  6944       L1    15  0.64
      P1  H  6934  6946       L1    15  0.80
      P1  H  7989  7998       L1     7  0.92

> <Gold.Chemscore.Hbond.Weighted>
-8.8267

> <Gold.Chemscore.Metal.Weighted>
-0.0000

> <Gold.Chemscore.Lipo.Weighted>
-7.8844

> <Gold.Chemscore.Internal_Hbond.Weighted>
0.0000

> <Gold.Chemscore.DEClash.Weighted>
0.0149

> <Gold.Chemscore.DEInternal.Weighted>
0.6510

> <Gold.Chemscore.Rot.Weighted>
7.2482

> <Gold.Chemscore.Internal.Correction.Weighted>
   9.000000E+99

> <Gold.Protein.RotatedTorsions>
[ 6907 6896 6895 6894 ] final  -97.78 input  -60.11 | X-H torsion
[ 7974 7965 7964 7962 ] final -145.79 input  175.53 | X-H torsion
[ 8008 7997 7996 7995 ] final  105.82 input   59.86 | X-H torsion
[ 10167 10162 10161 10158 ] final  124.70 input  -65.29 | X-H torsion
[ 10718 10713 10712 10709 ] final -166.48 input   66.30 | X-H torsion
[ 10763 10752 10751 10750 ] final   98.68 input  -60.55 | X-H torsion
[ 11005 11000 10999 10996 ] final   68.90 input  -57.11 | X-H torsion

> <Gold.Protein.ActiveResidues>
 VAL166  LYS551  ARG553  GLY616  TRP617  ASP618  TYR619  PRO620  LYS621  CYS622 
 ASP623  PHE694  ASN695  SER759  ASP760  ASP761  ALA762  ILE779  LEU786  VAL792 
 PHE793  MET794  SER795  GLU796  ALA797  LYS798  CYS799  TRP800  GLU811  SER814 

> <Gold.Protein.RotatedAtoms>
  150.7026  134.1296  159.4064 H   0  0  0  0  0  0  0  0  0  0  0  0  # atno 6907 bound_to 6896
  151.9282  135.0266  160.0536 H   0  0  0  0  0  0  0  0  0  0  0  0  # atno 6908 bound_to 6896
  152.2198  133.4940  159.5193 H   0  0  0  0  0  0  0  0  0  0  0  0  # atno 6909 bound_to 6896
  144.8203  140.5539  143.5582 H   0  0  0  0  0  0  0  0  0  0  0  0  # atno 7974 bound_to 7965
  156.1691  140.3123  155.8942 H   0  0  0  0  0  0  0  0  0  0  0  0  # atno 8008 bound_to 7997
  155.3623  140.0477  157.3063 H   0  0  0  0  0  0  0  0  0  0  0  0  # atno 8009 bound_to 7997
  154.5223  140.2202  155.8964 H   0  0  0  0  0  0  0  0  0  0  0  0  # atno 8010 bound_to 7997
  139.5726  144.6947  151.3737 H   0  0  0  0  0  0  0  0  0  0  0  0  # atno 10167 bound_to 10162
  156.6685  130.9074  151.3040 H   0  0  0  0  0  0  0  0  0  0  0  0  # atno 10718 bound_to 10713
  153.2920  135.4140  155.1176 H   0  0  0  0  0  0  0  0  0  0  0  0  # atno 10763 bound_to 10752
  154.8523  135.3520  154.5968 H   0  0  0  0  0  0  0  0  0  0  0  0  # atno 10764 bound_to 10752
  153.6391  135.7057  153.5306 H   0  0  0  0  0  0  0  0  0  0  0  0  # atno 10765 bound_to 10752
  139.9684  134.6941  156.0496 H   0  0  0  0  0  0  0  0  0  0  0  0  # atno 11005 bound_to 11000
  145.5119  139.1479  143.3600 LP  0  0  0  0  0  0  0  0  0  0  0  0  # atno 17320 bound_to 7965
  146.2509  140.5260  142.8894 LP  0  0  0  0  0  0  0  0  0  0  0  0  # atno 17321 bound_to 7965
  140.7010  143.7631  150.7404 LP  0  0  0  0  0  0  0  0  0  0  0  0  # atno 17342 bound_to 10162
  140.1141  143.4672  152.2352 LP  0  0  0  0  0  0  0  0  0  0  0  0  # atno 17343 bound_to 10162
  157.7085  130.9413  150.1011 LP  0  0  0  0  0  0  0  0  0  0  0  0  # atno 17370 bound_to 10713
  156.1957  130.3657  149.8853 LP  0  0  0  0  0  0  0  0  0  0  0  0  # atno 17371 bound_to 10713
  141.1364  133.6574  156.3606 LP  0  0  0  0  0  0  0  0  0  0  0  0  # atno 17394 bound_to 11000
  140.5345  134.6180  157.5360 LP  0  0  0  0  0  0  0  0  0  0  0  0  # atno 17395 bound_to 11000

$$$$
