AV-unprocessed.smi:72|AV-procd|sdf|736|dock4
  -GOLD-   2262017 63D 1   1.00000     0.00000
 Structure written by MMmdl.
 28 29  0  0  0  0  0  0  0  0  2 V2000
  148.6177  136.7609  160.9210 N   0  0  0  0  0  0  0  0  0  0  0  0
  148.7028  136.7935  159.6634 C   0  0  0  0  0  0  0  0  0  0  0  0
  147.7857  137.6080  158.8973 N   0  0  0  0  0  0  0  0  0  0  0  0
  147.9305  137.6336  157.6080 C   0  0  0  0  0  0  0  0  0  0  0  0
  148.9918  136.8923  156.9348 N   0  0  0  0  0  0  0  0  0  0  0  0
  149.1677  136.9017  155.4225 C   0  0  1  0  0  0  0  0  0  0  0  0
  148.1778  137.6847  154.8208 O   0  0  0  0  0  0  0  0  0  0  0  0
  148.6983  138.9803  154.5634 C   0  0  2  0  0  0  0  0  0  0  0  0
  147.8197  139.7346  153.5492 C   0  0  0  0  0  0  0  0  0  0  0  0
  148.4645  140.8778  153.0263 O   0  0  0  0  0  0  0  0  0  0  0  0
  150.1582  138.7322  154.1781 C   0  0  1  0  0  0  0  0  0  0  0  0
  150.9521  139.8480  154.5297 O   0  0  0  0  0  0  0  0  0  0  0  0
  150.5332  137.5143  155.0222 C   0  0  2  0  0  0  0  0  0  0  0  0
  151.3013  136.6093  154.2555 O   0  0  0  0  0  0  0  0  0  0  0  0
  149.8429  136.0598  157.7120 C   0  0  0  0  0  0  0  0  0  0  0  0
  150.6934  135.3907  157.1245 O   0  0  0  0  0  0  0  0  0  0  0  0
  149.6825  136.0341  159.0644 N   0  5  0  0  0  0  0  0  0  0  0  0
  149.0345  135.8603  155.1238 H   0  0  0  0  0  0  0  0  0  0  0  0
  148.6687  139.5264  155.5079 H   0  0  0  0  0  0  0  0  0  0  0  0
  150.2591  138.5123  153.1148 H   0  0  0  0  0  0  0  0  0  0  0  0
  151.0895  137.8053  155.9147 H   0  0  0  0  0  0  0  0  0  0  0  0
  149.3074  136.1572  161.3439 H   0  0  0  0  0  0  0  0  0  0  0  0
  147.2664  138.2067  156.9618 H   0  0  0  0  0  0  0  0  0  0  0  0
  147.5278  139.0747  152.7320 H   0  0  0  0  0  0  0  0  0  0  0  0
  146.9016  140.0642  154.0360 H   0  0  0  0  0  0  0  0  0  0  0  0
  148.7841  140.6730  152.1611 H   0  0  0  0  0  0  0  0  0  0  0  0
  151.8276  139.5423  154.7120 H   0  0  0  0  0  0  0  0  0  0  0  0
  151.0003  136.6533  153.3601 H   0  0  0  0  0  0  0  0  0  0  0  0
  1  2  2  0  0  0  0
  1 22  1  0  0  0  0
  2 17  1  0  0  0  0
  2  3  1  0  0  0  0
  3  4  2  0  0  0  0
  4  5  1  0  0  0  0
  4 23  1  0  0  0  0
  5  6  1  0  0  0  0
  5 15  1  0  0  0  0
  6 18  1  0  0  0  0
  6 13  1  0  0  0  0
  6  7  1  0  0  0  0
  7  8  1  0  0  0  0
  8 19  1  0  0  0  0
  8  9  1  0  0  0  0
  8 11  1  0  0  0  0
  9 10  1  0  0  0  0
  9 24  1  0  0  0  0
  9 25  1  0  0  0  0
 10 26  1  0  0  0  0
 11 20  1  0  0  0  0
 11 12  1  0  0  0  0
 11 13  1  0  0  0  0
 12 27  1  0  0  0  0
 13 21  1  0  0  0  0
 13 14  1  0  0  0  0
 14 28  1  0  0  0  0
 15 16  2  0  0  0  0
 15 17  1  0  0  0  0
M  CHG  1  17  -1
M  END
> <s_m_source_file>
AV-unprocessed.smi

> <i_m_source_file_index>
72

> <i_lp_mmshare_version>
43012

> <i_f3d_flags>
0

> <s_epik_input>
W05IMl1jMW5bY0hdbihjKD1PKW4xKVtDQEBIXTJPW0NASF0oW0NIMl1bT0hdKVtDQEBIXShbT0hdKVtDQEhdMltPSF0=

> <s_epik_cmdline>
J2VwaWtfcHl0aG9uJywgJy1waCcsICc3LjAnLCAnLXRuJywgJzgnLCAnLW1hJywgJzIwMCcsICctbWV0YWxfYmluZGluZycsICctaW1hZScsICc8aW5maWxlLm1hZT4nLCAnLW9tYWUnLCAnPG91dGZpbGUubWFlPic=

> <r_lp_tautomer_probability>
7.17554e-07

> <r_epik_Ionization_Penalty>
12.8705

> <r_epik_Ionization_Penalty_Charging>
5.64144

> <r_epik_Ionization_Penalty_Neutral>
7.22905

> <r_epik_State_Penalty>
3.30104

> <r_epik_Charging_Adjusted_Penalty>
8.94249

> <i_epik_Tot_Q>
-1

> <i_epik_Tot_abs_Q>
1

> <r_epik_Metal_State_Penalty>
0.529074

> <b_epik_Metal_Only>
1

> <s_epik_Chemistry_Notes>
This compound contains an acetal/aminal-like group ( X-CH(R)-Y where X, Y are N, S, or O) that may be acid/base labile, releasing an aldehyde.

> <s_lp_Force_Field>
OPLS_2005

> <r_lp_Energy>
32.432

> <b_lp_Chiralities_Consistent>
1

> <s_lp_Variant>
AV-unprocessed.smi:72-74

> <Gold.Version>
5.8.1

> <Gold.Id.Protein>
6NUR|6NUR_protein|mol2

> <Gold.PLP.Fitness>
43.6706

> <Gold.PLP.PLP>
-23.5356

> <Gold.PLP.part.hbond>
-9.2095

> <Gold.PLP.part.metal>
0.0000

> <Gold.PLP.part.buried>
-2.9267

> <Gold.PLP.part.nonpolar>
-11.4932

> <Gold.PLP.part.repulsive>
0.1055

> <Gold.PLP.ligand.clash>
0.0000

> <Gold.PLP.ligand.torsion>
0.1335

> <Gold.PLP.Chemscore.Hbond>
6.7941

> <Gold.PLP.Chemscore.CHOScore>
0.0000

> <Gold.PLP.Chemscore.Metal>
0.0000

> <Gold.Chemscore.Hbonds>
donor molecule, donor type, donor heavy atom, donor atom, acceptor molecule, acceptor atom, score
      L1  H    10    26       P1  7957  0.75
      L1  H    14    28       P1  7949  0.96
      P1  H  6896  6907       L1    17  2.00
      P1  H  6931  6943       L1     1  0.80
      P1  H  7989  7998       L1    12  0.30
      P1  H 10752 10764       L1    14  0.90

> <Gold.PLP.Chemscore.Internal.Correction>
0.0198

> <Gold.Rescore>
     Score         DG    S(hbond)    S(metal)    S(lipo)     H(rot)  DE(clash)    DE(int)     intcor
      9.57     -10.91       3.82        0.00      25.65       4.04       0.07       1.27       ----

> <Gold.Chemscore.Fitness>
9.5747

> <Gold.Chemscore.DG>
-10.9059

> <Gold.Chemscore.ZeroCoef>
-5.4800

> <Gold.Chemscore.Hbond>
3.8228

> <Gold.Chemscore.Metal>
0.0000

> <Gold.Chemscore.Lipo>
25.6479

> <Gold.Chemscore.Internal_Hbond>
0.0000

> <Gold.Chemscore.DEClash>
0.0659

> <Gold.Chemscore.DEInternal>
1.2652

> <Gold.Chemscore.Rot>
4.0403

> <Gold.Chemscore.Internal.Correction>
   9.000000E+99

> <Gold.Chemscore.Hbonds>
donor molecule, donor type, donor heavy atom, donor atom, acceptor molecule, acceptor atom, score
      L1  H    10    26       P1  7957  0.74
      L1  H    14    28       P1  7949  0.23
      P1  H  6896  6907       L1    17  0.60
      P1  H  6931  6943       L1     1  0.11
      P1  H 10752 10764       L1    14  0.19

> <Gold.Chemscore.Hbond.Weighted>
-12.7681

> <Gold.Chemscore.Metal.Weighted>
-0.0000

> <Gold.Chemscore.Lipo.Weighted>
-3.0008

> <Gold.Chemscore.Internal_Hbond.Weighted>
0.0000

> <Gold.Chemscore.DEClash.Weighted>
0.0659

> <Gold.Chemscore.DEInternal.Weighted>
1.2652

> <Gold.Chemscore.Rot.Weighted>
10.3431

> <Gold.Chemscore.Internal.Correction.Weighted>
   9.000000E+99

> <Gold.Protein.RotatedTorsions>
[ 6907 6896 6895 6894 ] final  -52.29 input  -60.11 | X-H torsion
[ 7974 7965 7964 7962 ] final  -99.75 input  175.53 | X-H torsion
[ 8008 7997 7996 7995 ] final  -47.03 input   59.86 | X-H torsion
[ 10167 10162 10161 10158 ] final  -10.50 input  -65.29 | X-H torsion
[ 10718 10713 10712 10709 ] final -147.41 input   66.30 | X-H torsion
[ 10763 10752 10751 10750 ] final -100.15 input  -60.55 | X-H torsion
[ 11005 11000 10999 10996 ] final -137.97 input  -57.11 | X-H torsion

> <Gold.Protein.ActiveResidues>
 VAL166  LYS551  ARG553  GLY616  TRP617  ASP618  TYR619  PRO620  LYS621  CYS622 
 ASP623  PHE694  ASN695  SER759  ASP760  ASP761  ALA762  ILE779  LEU786  VAL792 
 PHE793  MET794  SER795  GLU796  ALA797  LYS798  CYS799  TRP800  GLU811  SER814 

> <Gold.Protein.RotatedAtoms>
  150.8532  134.7862  159.7024 H   0  0  0  0  0  0  0  0  0  0  0  0  # atno 6907 bound_to 6896
  152.4591  134.5222  159.9796 H   0  0  0  0  0  0  0  0  0  0  0  0  # atno 6908 bound_to 6896
  151.5340  133.3406  159.2959 H   0  0  0  0  0  0  0  0  0  0  0  0  # atno 6909 bound_to 6896
  145.3035  140.9383  143.2810 H   0  0  0  0  0  0  0  0  0  0  0  0  # atno 7974 bound_to 7965
  154.4012  140.1357  156.4108 H   0  0  0  0  0  0  0  0  0  0  0  0  # atno 8008 bound_to 7997
  155.7736  140.3483  155.5239 H   0  0  0  0  0  0  0  0  0  0  0  0  # atno 8009 bound_to 7997
  155.8743  140.0977  157.1519 H   0  0  0  0  0  0  0  0  0  0  0  0  # atno 8010 bound_to 7997
  140.7115  143.5741  150.9061 H   0  0  0  0  0  0  0  0  0  0  0  0  # atno 10167 bound_to 10162
  156.4071  130.7963  151.2178 H   0  0  0  0  0  0  0  0  0  0  0  0  # atno 10718 bound_to 10713
  154.7555  135.4946  153.9368 H   0  0  0  0  0  0  0  0  0  0  0  0  # atno 10763 bound_to 10752
  153.1191  135.6727  153.9374 H   0  0  0  0  0  0  0  0  0  0  0  0  # atno 10764 bound_to 10752
  153.9111  135.3099  155.3427 H   0  0  0  0  0  0  0  0  0  0  0  0  # atno 10765 bound_to 10752
  140.8660  134.2110  157.4679 H   0  0  0  0  0  0  0  0  0  0  0  0  # atno 11005 bound_to 11000
  144.9074  139.4571  143.6603 LP  0  0  0  0  0  0  0  0  0  0  0  0  # atno 17320 bound_to 7965
  146.3144  139.7863  142.8995 LP  0  0  0  0  0  0  0  0  0  0  0  0  # atno 17321 bound_to 7965
  139.9467  143.6319  152.3040 LP  0  0  0  0  0  0  0  0  0  0  0  0  # atno 17342 bound_to 10162
  139.6823  144.7654  151.1586 LP  0  0  0  0  0  0  0  0  0  0  0  0  # atno 17343 bound_to 10162
  157.7506  131.0269  150.3981 LP  0  0  0  0  0  0  0  0  0  0  0  0  # atno 17370 bound_to 10713
  156.4272  130.3965  149.6785 LP  0  0  0  0  0  0  0  0  0  0  0  0  # atno 17371 bound_to 10713
  139.8709  134.9752  156.4874 LP  0  0  0  0  0  0  0  0  0  0  0  0  # atno 17394 bound_to 11000
  140.8628  133.8047  155.9283 LP  0  0  0  0  0  0  0  0  0  0  0  0  # atno 17395 bound_to 11000

$$$$
