AV-unprocessed.smi:2986|AV-procd|sdf|11382|dock1
  -GOLD-   2272016303D 1   1.00000     0.00000
 Structure written by MMmdl.
 43 45  0  0  0  0  0  0  0  0  2 V2000
  149.3836  139.4402  154.6666 C   0  0  0  0  0  0  0  0  0  0  0  0
  150.6268  140.0912  154.4720 O   0  0  0  0  0  0  0  0  0  0  0  0
  151.3804  140.1906  155.6673 C   0  0  0  0  0  0  0  0  0  0  0  0
  150.8643  141.3882  156.4729 C   0  0  0  0  0  0  0  0  0  0  0  0
  151.5098  141.4871  157.7882 N   0  0  0  0  0  0  0  0  0  0  0  0
  152.0696  140.5266  158.5742 C   0  0  0  0  0  0  0  0  0  0  0  0
  152.1834  138.8071  158.2048 S   0  0  0  0  0  0  0  0  0  0  0  0
  150.4604  138.2812  157.9776 C   0  0  0  0  0  0  0  0  0  0  0  0
  149.9798  137.3415  159.0833 C   0  0  0  0  0  0  0  0  0  0  0  0
  150.7781  136.5605  159.5989 O   0  0  0  0  0  0  0  0  0  0  0  0
  148.6773  137.4366  159.4056 N   0  0  0  0  0  0  0  0  0  0  0  0
  147.9377  136.6593  160.3321 C   0  0  0  0  0  0  0  0  0  0  0  0
  148.2563  135.3421  160.7731 C   0  0  0  0  0  0  0  0  0  0  0  0
  147.2456  135.0603  161.6482 C   0  0  0  0  0  0  0  0  0  0  0  0
  146.9327  133.8691  162.4871 C   0  0  0  0  0  0  0  0  0  0  0  0
  146.3853  136.1104  161.7330 O   0  0  0  0  0  0  0  0  0  0  0  0
  146.8374  137.1308  160.8883 N   0  0  0  0  0  0  0  0  0  0  0  0
  152.5620  141.1346  159.6878 N   0  3  0  0  0  0  0  0  0  0  0  0
  152.3015  142.5045  159.6215 C   0  0  0  0  0  0  0  0  0  0  0  0
  152.6015  143.5331  160.5094 C   0  0  0  0  0  0  0  0  0  0  0  0
  152.1898  144.8299  160.1379 C   0  0  0  0  0  0  0  0  0  0  0  0
  151.5093  145.0657  158.9254 C   0  0  0  0  0  0  0  0  0  0  0  0
  151.2126  144.0158  158.0313 C   0  0  0  0  0  0  0  0  0  0  0  0
  151.6232  142.7369  158.4059 C   0  0  0  0  0  0  0  0  0  0  0  0
  148.8404  139.3981  153.7227 H   0  0  0  0  0  0  0  0  0  0  0  0
  148.7649  139.9771  155.3869 H   0  0  0  0  0  0  0  0  0  0  0  0
  149.5252  138.4178  155.0198 H   0  0  0  0  0  0  0  0  0  0  0  0
  151.2814  139.2715  156.2471 H   0  0  0  0  0  0  0  0  0  0  0  0
  152.4382  140.3232  155.4343 H   0  0  0  0  0  0  0  0  0  0  0  0
  151.0567  142.3155  155.9328 H   0  0  0  0  0  0  0  0  0  0  0  0
  149.7843  141.3331  156.6138 H   0  0  0  0  0  0  0  0  0  0  0  0
  149.8254  139.1676  157.9489 H   0  0  0  0  0  0  0  0  0  0  0  0
  150.3619  137.7869  157.0108 H   0  0  0  0  0  0  0  0  0  0  0  0
  148.1402  138.1195  158.8909 H   0  0  0  0  0  0  0  0  0  0  0  0
  149.0821  134.6995  160.5079 H   0  0  0  0  0  0  0  0  0  0  0  0
  147.6968  133.1001  162.3727 H   0  0  0  0  0  0  0  0  0  0  0  0
  145.9728  133.4380  162.2026 H   0  0  0  0  0  0  0  0  0  0  0  0
  146.8830  134.1417  163.5413 H   0  0  0  0  0  0  0  0  0  0  0  0
  153.1227  143.3553  161.4388 H   0  0  0  0  0  0  0  0  0  0  0  0
  152.3997  145.6605  160.7961 H   0  0  0  0  0  0  0  0  0  0  0  0
  151.2085  146.0729  158.6752 H   0  0  0  0  0  0  0  0  0  0  0  0
  150.6904  144.2063  157.1053 H   0  0  0  0  0  0  0  0  0  0  0  0
  153.0402  140.6472  160.4344 H   0  0  0  0  0  0  0  0  0  0  0  0
  1  2  1  0  0  0  0
  1 25  1  0  0  0  0
  1 26  1  0  0  0  0
  1 27  1  0  0  0  0
  2  3  1  0  0  0  0
  3  4  1  0  0  0  0
  3 28  1  0  0  0  0
  3 29  1  0  0  0  0
  4  5  1  0  0  0  0
  4 30  1  0  0  0  0
  4 31  1  0  0  0  0
  5 24  1  0  0  0  0
  5  6  1  0  0  0  0
  6  7  1  0  0  0  0
  6 18  2  0  0  0  0
  7  8  1  0  0  0  0
  8  9  1  0  0  0  0
  8 32  1  0  0  0  0
  8 33  1  0  0  0  0
  9 10  2  0  0  0  0
  9 11  1  0  0  0  0
 11 12  1  0  0  0  0
 11 34  1  0  0  0  0
 12 17  2  0  0  0  0
 12 13  1  0  0  0  0
 13 14  2  0  0  0  0
 13 35  1  0  0  0  0
 14 15  1  0  0  0  0
 14 16  1  0  0  0  0
 15 36  1  0  0  0  0
 15 37  1  0  0  0  0
 15 38  1  0  0  0  0
 16 17  1  0  0  0  0
 18 19  1  0  0  0  0
 18 43  1  0  0  0  0
 19 24  2  0  0  0  0
 19 20  1  0  0  0  0
 20 21  2  0  0  0  0
 20 39  1  0  0  0  0
 21 22  1  0  0  0  0
 21 40  1  0  0  0  0
 22 23  2  0  0  0  0
 22 41  1  0  0  0  0
 23 24  1  0  0  0  0
 23 42  1  0  0  0  0
M  CHG  1  18   1
M  END
> <s_m_source_file>
AV-unprocessed.smi

> <i_m_source_file_index>
2986

> <i_lp_mmshare_version>
43012

> <i_f3d_flags>
0

> <s_epik_input>
W2NIXTFbY0hdW2NIXVtjSF1jKGMxMiluKFtDSDJdW0NIMl1PW0NIM10pYyhuMilTW0NIMl1DKD1PKVtOSF1jM1tjSF1jKFtDSDNdKW9uMw==

> <s_epik_cmdline>
J2VwaWtfcHl0aG9uJywgJy1waCcsICc3LjAnLCAnLXRuJywgJzgnLCAnLW1hJywgJzIwMCcsICctbWV0YWxfYmluZGluZycsICctaW1hZScsICc8aW5maWxlLm1hZT4nLCAnLW9tYWUnLCAnPG91dGZpbGUubWFlPic=

> <r_epik_Ionization_Penalty>
1.88527

> <r_epik_Ionization_Penalty_Charging>
1.88465

> <r_epik_Ionization_Penalty_Neutral>
0.000624705

> <r_epik_State_Penalty>
2.00469

> <r_epik_Charging_Adjusted_Penalty>
3.88934

> <i_epik_Tot_Q>
1

> <i_epik_Tot_abs_Q>
1

> <r_epik_Metal_State_Penalty>
2.24687

> <b_epik_Metal_Only>
0

> <s_lp_Force_Field>
OPLS_2005

> <r_lp_Energy>
12.3116

> <b_lp_Chiralities_Consistent>
1

> <s_lp_Variant>
AV-unprocessed.smi:2986-2

> <Gold.Version>
5.8.1

> <Gold.Id.Protein>
6NUR|6NUR_protein|mol2

> <Gold.PLP.Fitness>
55.9463

> <Gold.PLP.PLP>
-49.4787

> <Gold.PLP.part.hbond>
-2.9301

> <Gold.PLP.part.metal>
0.0000

> <Gold.PLP.part.buried>
-7.1100

> <Gold.PLP.part.nonpolar>
-41.5451

> <Gold.PLP.part.repulsive>
0.4579

> <Gold.PLP.ligand.clash>
0.0130

> <Gold.PLP.ligand.torsion>
1.3304

> <Gold.PLP.Chemscore.Hbond>
2.9913

> <Gold.PLP.Chemscore.CHOScore>
0.0000

> <Gold.PLP.Chemscore.Metal>
0.0000

> <Gold.Chemscore.Hbonds>
donor molecule, donor type, donor heavy atom, donor atom, acceptor molecule, acceptor atom, score
      P1  H  6896  6908       L1    10  1.00
      P1  H  6934  6947       L1    17  1.00
      P1  H  7989  7998       L1     2  0.95

> <Gold.PLP.Chemscore.Internal.Correction>
0.1677

> <Gold.Rescore>
     Score         DG    S(hbond)    S(metal)    S(lipo)     H(rot)  DE(clash)    DE(int)     intcor
     19.67     -22.67       2.69        0.00     121.35       2.35       0.32       2.68       ----

> <Gold.Chemscore.Fitness>
19.6719

> <Gold.Chemscore.DG>
-22.6743

> <Gold.Chemscore.ZeroCoef>
-5.4800

> <Gold.Chemscore.Hbond>
2.6948

> <Gold.Chemscore.Metal>
0.0000

> <Gold.Chemscore.Lipo>
121.3485

> <Gold.Chemscore.Internal_Hbond>
0.0000

> <Gold.Chemscore.DEClash>
0.3227

> <Gold.Chemscore.DEInternal>
2.6798

> <Gold.Chemscore.Rot>
2.3453

> <Gold.Chemscore.Internal.Correction>
   9.000000E+99

> <Gold.Chemscore.Hbonds>
donor molecule, donor type, donor heavy atom, donor atom, acceptor molecule, acceptor atom, score
      P1  H  6896  6908       L1    10  0.96
      P1  H  6934  6947       L1    17  0.39
      P1  H  7989  7998       L1     2  0.21

> <Gold.Chemscore.Hbond.Weighted>
-9.0006

> <Gold.Chemscore.Metal.Weighted>
-0.0000

> <Gold.Chemscore.Lipo.Weighted>
-14.1978

> <Gold.Chemscore.Internal_Hbond.Weighted>
0.0000

> <Gold.Chemscore.DEClash.Weighted>
0.3227

> <Gold.Chemscore.DEInternal.Weighted>
2.6798

> <Gold.Chemscore.Rot.Weighted>
6.0040

> <Gold.Chemscore.Internal.Correction.Weighted>
   9.000000E+99

> <Gold.Protein.RotatedTorsions>
[ 6907 6896 6895 6894 ] final -156.42 input  -60.11 | X-H torsion
[ 7974 7965 7964 7962 ] final  124.03 input  175.53 | X-H torsion
[ 8008 7997 7996 7995 ] final   64.07 input   59.86 | X-H torsion
[ 10167 10162 10161 10158 ] final   39.42 input  -65.29 | X-H torsion
[ 10718 10713 10712 10709 ] final    5.83 input   66.30 | X-H torsion
[ 10763 10752 10751 10750 ] final  125.07 input  -60.55 | X-H torsion
[ 11005 11000 10999 10996 ] final -170.38 input  -57.11 | X-H torsion

> <Gold.Protein.ActiveResidues>
 VAL166  LYS551  ARG553  GLY616  TRP617  ASP618  TYR619  PRO620  LYS621  CYS622 
 ASP623  PHE694  ASN695  SER759  ASP760  ASP761  ALA762  ILE779  LEU786  VAL792 
 PHE793  MET794  SER795  GLU796  ALA797  LYS798  CYS799  TRP800  GLU811  SER814 

> <Gold.Protein.RotatedAtoms>
  151.2874  133.4181  159.2630 H   0  0  0  0  0  0  0  0  0  0  0  0  # atno 6907 bound_to 6896
  151.0308  134.9538  159.8120 H   0  0  0  0  0  0  0  0  0  0  0  0  # atno 6908 bound_to 6896
  152.5345  134.2834  159.9069 H   0  0  0  0  0  0  0  0  0  0  0  0  # atno 6909 bound_to 6896
  145.0891  139.3600  143.4870 H   0  0  0  0  0  0  0  0  0  0  0  0  # atno 7974 bound_to 7965
  155.6402  140.3497  155.4712 H   0  0  0  0  0  0  0  0  0  0  0  0  # atno 8008 bound_to 7997
  155.9932  140.1198  157.0642 H   0  0  0  0  0  0  0  0  0  0  0  0  # atno 8009 bound_to 7997
  154.4225  140.1115  156.5580 H   0  0  0  0  0  0  0  0  0  0  0  0  # atno 8010 bound_to 7997
  140.3841  144.1940  150.6130 H   0  0  0  0  0  0  0  0  0  0  0  0  # atno 10167 bound_to 10162
  156.9132  130.5764  149.5647 H   0  0  0  0  0  0  0  0  0  0  0  0  # atno 10718 bound_to 10713
  153.6714  135.3329  155.3154 H   0  0  0  0  0  0  0  0  0  0  0  0  # atno 10763 bound_to 10752
  154.8490  135.4387  154.1701 H   0  0  0  0  0  0  0  0  0  0  0  0  # atno 10764 bound_to 10752
  153.2693  135.6999  153.7573 H   0  0  0  0  0  0  0  0  0  0  0  0  # atno 10765 bound_to 10752
  140.5201  134.5718  157.5045 H   0  0  0  0  0  0  0  0  0  0  0  0  # atno 11005 bound_to 11000
  146.3531  140.0717  142.8623 LP  0  0  0  0  0  0  0  0  0  0  0  0  # atno 17320 bound_to 7965
  145.1087  140.9391  143.4669 LP  0  0  0  0  0  0  0  0  0  0  0  0  # atno 17321 bound_to 7965
  140.4907  143.2348  151.8822 LP  0  0  0  0  0  0  0  0  0  0  0  0  # atno 17342 bound_to 10162
  139.4793  144.5169  151.8856 LP  0  0  0  0  0  0  0  0  0  0  0  0  # atno 17343 bound_to 10162
  156.0526  130.5593  150.9022 LP  0  0  0  0  0  0  0  0  0  0  0  0  # atno 17370 bound_to 10713
  157.5954  131.0943  150.9049 LP  0  0  0  0  0  0  0  0  0  0  0  0  # atno 17371 bound_to 10713
  139.9611  134.7452  156.0236 LP  0  0  0  0  0  0  0  0  0  0  0  0  # atno 17394 bound_to 11000
  141.1339  133.6580  156.3539 LP  0  0  0  0  0  0  0  0  0  0  0  0  # atno 17395 bound_to 11000

$$$$
