AV-unprocessed.smi:72|AV-procd|sdf|714|dock1
  -GOLD-   2262017 33D 1   1.00000     0.00000
 Structure written by MMmdl.
 28 29  0  0  0  0  0  0  0  0  2 V2000
  154.5769  137.6572  155.8575 N   0  0  0  0  0  0  0  0  0  0  0  0
  153.3280  137.8174  155.7957 C   0  0  0  0  0  0  0  0  0  0  0  0
  152.4424  136.6809  155.9259 N   0  0  0  0  0  0  0  0  0  0  0  0
  151.1656  136.8978  155.8461 C   0  0  0  0  0  0  0  0  0  0  0  0
  150.6239  138.2324  155.6303 N   0  0  0  0  0  0  0  0  0  0  0  0
  149.1267  138.4624  155.5456 C   0  0  1  0  0  0  0  0  0  0  0  0
  148.7996  139.6025  156.2850 O   0  0  0  0  0  0  0  0  0  0  0  0
  147.8335  140.3729  155.5780 C   0  0  1  0  0  0  0  0  0  0  0  0
  147.8388  141.8385  156.0477 C   0  0  0  0  0  0  0  0  0  0  0  0
  149.1436  142.3717  155.9663 O   0  0  0  0  0  0  0  0  0  0  0  0
  148.2086  140.1478  154.1066 C   0  0  1  0  0  0  0  0  0  0  0  0
  149.2594  141.0142  153.7100 O   0  0  0  0  0  0  0  0  0  0  0  0
  148.6265  138.6810  154.1012 C   0  0  1  0  0  0  0  0  0  0  0  0
  149.5461  138.3657  153.0694 O   0  0  0  0  0  0  0  0  0  0  0  0
  151.5162  139.3329  155.5248 C   0  0  0  0  0  0  0  0  0  0  0  0
  151.0397  140.4582  155.3756 O   0  0  0  0  0  0  0  0  0  0  0  0
  152.8560  139.0973  155.6047 N   0  5  0  0  0  0  0  0  0  0  0  0
  148.6523  137.6079  156.0298 H   0  0  0  0  0  0  0  0  0  0  0  0
  146.8506  139.9280  155.7472 H   0  0  0  0  0  0  0  0  0  0  0  0
  147.3603  140.3242  153.4445 H   0  0  0  0  0  0  0  0  0  0  0  0
  147.7385  138.0608  153.9721 H   0  0  0  0  0  0  0  0  0  0  0  0
  154.8328  136.6906  155.9985 H   0  0  0  0  0  0  0  0  0  0  0  0
  150.4241  136.1035  155.9378 H   0  0  0  0  0  0  0  0  0  0  0  0
  147.1445  142.4449  155.4650 H   0  0  0  0  0  0  0  0  0  0  0  0
  147.5283  141.8993  157.0912 H   0  0  0  0  0  0  0  0  0  0  0  0
  149.1057  143.2918  156.1781 H   0  0  0  0  0  0  0  0  0  0  0  0
  149.6704  140.6485  152.9414 H   0  0  0  0  0  0  0  0  0  0  0  0
  149.7642  139.1639  152.6122 H   0  0  0  0  0  0  0  0  0  0  0  0
  1  2  2  0  0  0  0
  1 22  1  0  0  0  0
  2 17  1  0  0  0  0
  2  3  1  0  0  0  0
  3  4  2  0  0  0  0
  4  5  1  0  0  0  0
  4 23  1  0  0  0  0
  5  6  1  0  0  0  0
  5 15  1  0  0  0  0
  6 18  1  0  0  0  0
  6 13  1  0  0  0  0
  6  7  1  0  0  0  0
  7  8  1  0  0  0  0
  8 19  1  0  0  0  0
  8  9  1  0  0  0  0
  8 11  1  0  0  0  0
  9 10  1  0  0  0  0
  9 24  1  0  0  0  0
  9 25  1  0  0  0  0
 10 26  1  0  0  0  0
 11 20  1  0  0  0  0
 11 12  1  0  0  0  0
 11 13  1  0  0  0  0
 12 27  1  0  0  0  0
 13 21  1  0  0  0  0
 13 14  1  0  0  0  0
 14 28  1  0  0  0  0
 15 16  2  0  0  0  0
 15 17  1  0  0  0  0
M  CHG  1  17  -1
M  END
> <s_m_source_file>
AV-unprocessed.smi

> <i_m_source_file_index>
72

> <i_lp_mmshare_version>
43012

> <i_f3d_flags>
0

> <s_epik_input>
W05IMl1jMW5bY0hdbihjKD1PKW4xKVtDQEBIXTJPW0NASF0oW0NIMl1bT0hdKVtDQEBIXShbT0hdKVtDQEhdMltPSF0=

> <s_epik_cmdline>
J2VwaWtfcHl0aG9uJywgJy1waCcsICc3LjAnLCAnLXRuJywgJzgnLCAnLW1hJywgJzIwMCcsICctbWV0YWxfYmluZGluZycsICctaW1hZScsICc8aW5maWxlLm1hZT4nLCAnLW9tYWUnLCAnPG91dGZpbGUubWFlPic=

> <r_lp_tautomer_probability>
7.17554e-07

> <r_epik_Ionization_Penalty>
12.8705

> <r_epik_Ionization_Penalty_Charging>
5.64144

> <r_epik_Ionization_Penalty_Neutral>
7.22905

> <r_epik_State_Penalty>
3.30104

> <r_epik_Charging_Adjusted_Penalty>
8.94249

> <i_epik_Tot_Q>
-1

> <i_epik_Tot_abs_Q>
1

> <r_epik_Metal_State_Penalty>
0.529074

> <b_epik_Metal_Only>
1

> <s_epik_Chemistry_Notes>
This compound contains an acetal/aminal-like group ( X-CH(R)-Y where X, Y are N, S, or O) that may be acid/base labile, releasing an aldehyde.

> <s_lp_Force_Field>
OPLS_2005

> <r_lp_Energy>
43.693

> <b_lp_Chiralities_Consistent>
1

> <s_lp_Variant>
AV-unprocessed.smi:72-52

> <Gold.Version>
5.8.1

> <Gold.Id.Protein>
6NUR|6NUR_protein|mol2

> <Gold.PLP.Fitness>
40.0555

> <Gold.PLP.PLP>
-20.5972

> <Gold.PLP.part.hbond>
-10.4119

> <Gold.PLP.part.metal>
0.0000

> <Gold.PLP.part.buried>
-1.2895

> <Gold.PLP.part.nonpolar>
-10.7200

> <Gold.PLP.part.repulsive>
0.0512

> <Gold.PLP.ligand.clash>
0.0000

> <Gold.PLP.ligand.torsion>
0.4732

> <Gold.PLP.Chemscore.Hbond>
6.8000

> <Gold.PLP.Chemscore.CHOScore>
0.0000

> <Gold.PLP.Chemscore.Metal>
0.0000

> <Gold.Chemscore.Hbonds>
donor molecule, donor type, donor heavy atom, donor atom, acceptor molecule, acceptor atom, score
      L1  H    10    26       P1  8028  0.94
      L1  H    12    27       P1  7957  1.00
      L1  H    14    28       P1  7957  0.90
      P1  H  7989  7998       L1    16  0.98
      P1  H  7997  8008       L1    17  1.90
      P1  H 10752 10764       L1     3  0.99

> <Gold.PLP.Chemscore.Internal.Correction>
0.0046

> <Gold.Rescore>
     Score         DG    S(hbond)    S(metal)    S(lipo)     H(rot)  DE(clash)    DE(int)     intcor
      4.06      -9.59       3.77        0.00      15.84       4.04       0.13       5.40       ----

> <Gold.Chemscore.Fitness>
4.0605

> <Gold.Chemscore.DG>
-9.5912

> <Gold.Chemscore.ZeroCoef>
-5.4800

> <Gold.Chemscore.Hbond>
3.7729

> <Gold.Chemscore.Metal>
0.0000

> <Gold.Chemscore.Lipo>
15.8353

> <Gold.Chemscore.Internal_Hbond>
0.0000

> <Gold.Chemscore.DEClash>
0.1322

> <Gold.Chemscore.DEInternal>
5.3985

> <Gold.Chemscore.Rot>
4.0403

> <Gold.Chemscore.Internal.Correction>
   9.000000E+99

> <Gold.Chemscore.Hbonds>
donor molecule, donor type, donor heavy atom, donor atom, acceptor molecule, acceptor atom, score
      L1  H    10    26       P1  8028  0.85
      L1  H    12    27       P1  7957  0.96
      L1  H    14    28       P1  7957  0.82
      P1  H  7989  7998       L1    16  0.26
      P1  H  7997  8008       L1    17  0.21
      P1  H 10752 10764       L1     3  0.45

> <Gold.Chemscore.Hbond.Weighted>
-12.6016

> <Gold.Chemscore.Metal.Weighted>
-0.0000

> <Gold.Chemscore.Lipo.Weighted>
-1.8527

> <Gold.Chemscore.Internal_Hbond.Weighted>
0.0000

> <Gold.Chemscore.DEClash.Weighted>
0.1322

> <Gold.Chemscore.DEInternal.Weighted>
5.3985

> <Gold.Chemscore.Rot.Weighted>
10.3431

> <Gold.Chemscore.Internal.Correction.Weighted>
   9.000000E+99

> <Gold.Protein.RotatedTorsions>
[ 6907 6896 6895 6894 ] final -133.21 input  -60.11 | X-H torsion
[ 7974 7965 7964 7962 ] final   29.09 input  175.53 | X-H torsion
[ 8008 7997 7996 7995 ] final  -45.88 input   59.86 | X-H torsion
[ 10167 10162 10161 10158 ] final -161.97 input  -65.29 | X-H torsion
[ 10718 10713 10712 10709 ] final -156.06 input   66.30 | X-H torsion
[ 10763 10752 10751 10750 ] final  -32.96 input  -60.55 | X-H torsion
[ 11005 11000 10999 10996 ] final    6.78 input  -57.11 | X-H torsion

> <Gold.Protein.ActiveResidues>
 VAL166  LYS551  ARG553  GLY616  TRP617  ASP618  TYR619  PRO620  LYS621  CYS622 
 ASP623  PHE694  ASN695  SER759  ASP760  ASP761  ALA762  ILE779  LEU786  VAL792 
 PHE793  MET794  SER795  GLU796  ALA797  LYS798  CYS799  TRP800  GLU811  SER814 

> <Gold.Protein.RotatedAtoms>
  150.9714  133.6340  159.2737 H   0  0  0  0  0  0  0  0  0  0  0  0  # atno 6907 bound_to 6896
  151.3628  135.0906  159.9450 H   0  0  0  0  0  0  0  0  0  0  0  0  # atno 6908 bound_to 6896
  152.5184  133.9284  159.7623 H   0  0  0  0  0  0  0  0  0  0  0  0  # atno 6909 bound_to 6896
  146.1691  139.6968  142.8980 H   0  0  0  0  0  0  0  0  0  0  0  0  # atno 7974 bound_to 7965
  154.4003  140.1385  156.3920 H   0  0  0  0  0  0  0  0  0  0  0  0  # atno 8008 bound_to 7997
  155.7905  140.3479  155.5326 H   0  0  0  0  0  0  0  0  0  0  0  0  # atno 8009 bound_to 7997
  155.8584  140.0952  157.1620 H   0  0  0  0  0  0  0  0  0  0  0  0  # atno 8010 bound_to 7997
  139.6426  144.0231  152.2103 H   0  0  0  0  0  0  0  0  0  0  0  0  # atno 10167 bound_to 10162
  156.5213  130.8479  151.2683 H   0  0  0  0  0  0  0  0  0  0  0  0  # atno 10718 bound_to 10713
  153.8223  135.6873  153.4825 H   0  0  0  0  0  0  0  0  0  0  0  0  # atno 10763 bound_to 10752
  153.1562  135.4598  154.9705 H   0  0  0  0  0  0  0  0  0  0  0  0  # atno 10764 bound_to 10752
  154.7922  135.3306  154.7694 H   0  0  0  0  0  0  0  0  0  0  0  0  # atno 10765 bound_to 10752
  140.5556  134.0241  155.7953 H   0  0  0  0  0  0  0  0  0  0  0  0  # atno 11005 bound_to 11000
  145.4387  141.0421  143.2869 LP  0  0  0  0  0  0  0  0  0  0  0  0  # atno 17320 bound_to 7965
  144.8137  139.5916  143.7018 LP  0  0  0  0  0  0  0  0  0  0  0  0  # atno 17321 bound_to 7965
  139.9924  144.6352  150.7802 LP  0  0  0  0  0  0  0  0  0  0  0  0  # atno 17342 bound_to 10162
  140.7499  143.2946  151.3240 LP  0  0  0  0  0  0  0  0  0  0  0  0  # atno 17343 bound_to 10162
  157.7436  130.9916  150.2607 LP  0  0  0  0  0  0  0  0  0  0  0  0  # atno 17370 bound_to 10713
  156.3146  130.3777  149.7630 LP  0  0  0  0  0  0  0  0  0  0  0  0  # atno 17371 bound_to 10713
  141.1145  133.9562  157.2848 LP  0  0  0  0  0  0  0  0  0  0  0  0  # atno 17394 bound_to 11000
  139.9433  135.0188  156.8775 LP  0  0  0  0  0  0  0  0  0  0  0  0  # atno 17395 bound_to 11000

$$$$
