AV-unprocessed.smi:1350|AV-procd|sdf|5520|dock3
  -GOLD-   22720 5103D 1   1.00000     0.00000
 Structure written by MMmdl.
 43 45  0  0  0  0  0  0  0  0  1 V2000
  153.3165  142.6352  162.7535 C   0  0  0  0  0  0  0  0  0  0  0  0
  153.1833  142.0758  161.4549 O   0  0  0  0  0  0  0  0  0  0  0  0
  152.6042  142.8415  160.4631 C   0  0  0  0  0  0  0  0  0  0  0  0
  152.1663  144.1758  160.6680 C   0  0  0  0  0  0  0  0  0  0  0  0
  151.5822  144.9107  159.6191 C   0  0  0  0  0  0  0  0  0  0  0  0
  151.4266  144.3262  158.3505 C   0  0  0  0  0  0  0  0  0  0  0  0
  151.8562  143.0052  158.1335 C   0  0  0  0  0  0  0  0  0  0  0  0
  152.4400  142.2604  159.1800 C   0  0  0  0  0  0  0  0  0  0  0  0
  152.8965  140.8406  158.8852 C   0  0  0  0  0  0  0  0  0  0  0  0
  152.5529  140.4519  157.5658 O   0  0  0  0  0  0  0  0  0  0  0  0
  151.3386  139.7222  157.5037 C   0  0  0  0  0  0  0  0  0  0  0  0
  151.0423  139.3680  156.0397 C   0  0  2  0  0  0  0  0  0  0  0  0
  151.1046  140.5512  155.2675 O   0  0  0  0  0  0  0  0  0  0  0  0
  149.6655  138.6998  155.8607 C   0  0  0  0  0  0  0  0  0  0  0  0
  148.5921  139.4879  156.4383 N   0  0  0  0  0  0  0  0  0  0  0  0
  148.1180  139.4251  157.6975 C   0  0  0  0  0  0  0  0  0  0  0  0
  147.1232  140.2487  158.0161 N   0  0  0  0  0  0  0  0  0  0  0  0
  146.9288  140.9255  156.8240 C   0  0  0  0  0  0  0  0  0  0  0  0
  146.0111  141.9463  156.4872 C   0  0  0  0  0  0  0  0  0  0  0  0
  145.9968  142.4935  155.1871 C   0  0  0  0  0  0  0  0  0  0  0  0
  146.8971  142.0299  154.2058 C   0  0  0  0  0  0  0  0  0  0  0  0
  147.8211  141.0142  154.5180 C   0  0  0  0  0  0  0  0  0  0  0  0
  147.8318  140.4714  155.8162 C   0  0  0  0  0  0  0  0  0  0  0  0
  153.7807  141.9026  163.4135 H   0  0  0  0  0  0  0  0  0  0  0  0
  152.3457  142.8923  163.1792 H   0  0  0  0  0  0  0  0  0  0  0  0
  153.9545  143.5199  162.7433 H   0  0  0  0  0  0  0  0  0  0  0  0
  152.2676  144.6636  161.6253 H   0  0  0  0  0  0  0  0  0  0  0  0
  151.2537  145.9254  159.7889 H   0  0  0  0  0  0  0  0  0  0  0  0
  150.9796  144.8899  157.5450 H   0  0  0  0  0  0  0  0  0  0  0  0
  151.7364  142.5605  157.1563 H   0  0  0  0  0  0  0  0  0  0  0  0
  153.9798  140.8023  159.0086 H   0  0  0  0  0  0  0  0  0  0  0  0
  152.4732  140.1301  159.5950 H   0  0  0  0  0  0  0  0  0  0  0  0
  151.4033  138.8183  158.1119 H   0  0  0  0  0  0  0  0  0  0  0  0
  150.5312  140.3345  157.9093 H   0  0  0  0  0  0  0  0  0  0  0  0
  151.8233  138.6991  155.6751 H   0  0  0  0  0  0  0  0  0  0  0  0
  150.8317  141.2770  155.8076 H   0  0  0  0  0  0  0  0  0  0  0  0
  149.4475  138.5599  154.8012 H   0  0  0  0  0  0  0  0  0  0  0  0
  149.6570  137.7073  156.3138 H   0  0  0  0  0  0  0  0  0  0  0  0
  148.5287  138.7375  158.4226 H   0  0  0  0  0  0  0  0  0  0  0  0
  145.3174  142.3095  157.2308 H   0  0  0  0  0  0  0  0  0  0  0  0
  145.2912  143.2735  154.9415 H   0  0  0  0  0  0  0  0  0  0  0  0
  146.8787  142.4548  153.2129 H   0  0  0  0  0  0  0  0  0  0  0  0
  148.5135  140.6565  153.7705 H   0  0  0  0  0  0  0  0  0  0  0  0
  1  2  1  0  0  0  0
  1 24  1  0  0  0  0
  1 25  1  0  0  0  0
  1 26  1  0  0  0  0
  2  3  1  0  0  0  0
  3  8  1  0  0  0  0
  3  4  2  0  0  0  0
  4  5  1  0  0  0  0
  4 27  1  0  0  0  0
  5  6  2  0  0  0  0
  5 28  1  0  0  0  0
  6  7  1  0  0  0  0
  6 29  1  0  0  0  0
  7  8  2  0  0  0  0
  7 30  1  0  0  0  0
  8  9  1  0  0  0  0
  9 10  1  0  0  0  0
  9 31  1  0  0  0  0
  9 32  1  0  0  0  0
 10 11  1  0  0  0  0
 11 12  1  0  0  0  0
 11 33  1  0  0  0  0
 11 34  1  0  0  0  0
 12 13  1  0  0  0  0
 12 14  1  0  0  0  0
 12 35  1  0  0  0  0
 13 36  1  0  0  0  0
 14 15  1  0  0  0  0
 14 37  1  0  0  0  0
 14 38  1  0  0  0  0
 15 23  1  0  0  0  0
 15 16  1  0  0  0  0
 16 17  2  0  0  0  0
 16 39  1  0  0  0  0
 17 18  1  0  0  0  0
 18 23  2  0  0  0  0
 18 19  1  0  0  0  0
 19 20  2  0  0  0  0
 19 40  1  0  0  0  0
 20 21  1  0  0  0  0
 20 41  1  0  0  0  0
 21 22  2  0  0  0  0
 21 42  1  0  0  0  0
 22 23  1  0  0  0  0
 22 43  1  0  0  0  0
M  END
> <s_m_source_file>
AV-unprocessed.smi

> <i_m_source_file_index>
1350

> <i_lp_mmshare_version>
43012

> <i_f3d_flags>
0

> <s_epik_input>
W0NIM11PYzFbY0hdW2NIXVtjSF1bY0hdYzFbQ0gyXU9bQ0gyXVtDQEhdKFtPSF0pW0NIMl1uKFtjSF1uMiljKGMyMylbY0hdW2NIXVtjSF1bY0hdMw==

> <s_epik_cmdline>
J2VwaWtfcHl0aG9uJywgJy1waCcsICc3LjAnLCAnLXRuJywgJzgnLCAnLW1hJywgJzIwMCcsICctbWV0YWxfYmluZGluZycsICctaW1hZScsICc8aW5maWxlLm1hZT4nLCAnLW9tYWUnLCAnPG91dGZpbGUubWFlPic=

> <r_lp_tautomer_probability>
1

> <r_epik_Ionization_Penalty>
0.0713119

> <r_epik_Ionization_Penalty_Charging>
0

> <r_epik_Ionization_Penalty_Neutral>
0.0713119

> <r_epik_State_Penalty>
0.06259

> <r_epik_Charging_Adjusted_Penalty>
0.06259

> <i_epik_Tot_Q>
0

> <i_epik_Tot_abs_Q>
0

> <r_epik_Metal_State_Penalty>
6.60119e-05

> <b_epik_Metal_Only>
0

> <s_lp_Force_Field>
OPLS_2005

> <r_lp_Energy>
18.6906

> <b_lp_Chiralities_Consistent>
1

> <s_lp_Variant>
AV-unprocessed.smi:1350-1

> <Gold.Version>
5.8.1

> <Gold.Id.Protein>
6NUR|6NUR_protein|mol2

> <Gold.PLP.Fitness>
51.1165

> <Gold.PLP.PLP>
-46.9366

> <Gold.PLP.part.hbond>
-2.0303

> <Gold.PLP.part.metal>
0.0000

> <Gold.PLP.part.buried>
-6.8815

> <Gold.PLP.part.nonpolar>
-37.3019

> <Gold.PLP.part.repulsive>
0.0379

> <Gold.PLP.ligand.clash>
0.0000

> <Gold.PLP.ligand.torsion>
0.6888

> <Gold.PLP.Chemscore.Hbond>
1.8080

> <Gold.PLP.Chemscore.CHOScore>
0.0000

> <Gold.PLP.Chemscore.Metal>
0.0000

> <Gold.Chemscore.Hbonds>
donor molecule, donor type, donor heavy atom, donor atom, acceptor molecule, acceptor atom, score
      P1  H  7989  7998       L1    13  0.93
      P1  H  7997  8009       L1    10  0.76

> <Gold.PLP.Chemscore.Internal.Correction>
0.1335

> <Gold.Rescore>
     Score         DG    S(hbond)    S(metal)    S(lipo)     H(rot)  DE(clash)    DE(int)     intcor
     18.30     -19.14       1.44        0.00     133.16       2.63       0.16       0.69       ----

> <Gold.Chemscore.Fitness>
18.2965

> <Gold.Chemscore.DG>
-19.1446

> <Gold.Chemscore.ZeroCoef>
-5.4800

> <Gold.Chemscore.Hbond>
1.4430

> <Gold.Chemscore.Metal>
0.0000

> <Gold.Chemscore.Lipo>
133.1608

> <Gold.Chemscore.Internal_Hbond>
0.0000

> <Gold.Chemscore.DEClash>
0.1562

> <Gold.Chemscore.DEInternal>
0.6919

> <Gold.Chemscore.Rot>
2.6308

> <Gold.Chemscore.Internal.Correction>
   9.000000E+99

> <Gold.Chemscore.Hbonds>
donor molecule, donor type, donor heavy atom, donor atom, acceptor molecule, acceptor atom, score
      P1  H  7989  7998       L1    13  0.87
      P1  H  7997  8009       L1    10  0.17

> <Gold.Chemscore.Hbond.Weighted>
-4.8195

> <Gold.Chemscore.Metal.Weighted>
-0.0000

> <Gold.Chemscore.Lipo.Weighted>
-15.5798

> <Gold.Chemscore.Internal_Hbond.Weighted>
0.0000

> <Gold.Chemscore.DEClash.Weighted>
0.1562

> <Gold.Chemscore.DEInternal.Weighted>
0.6919

> <Gold.Chemscore.Rot.Weighted>
6.7347

> <Gold.Chemscore.Internal.Correction.Weighted>
   9.000000E+99

> <Gold.Protein.RotatedTorsions>
[ 6907 6896 6895 6894 ] final -170.28 input  -60.11 | X-H torsion
[ 7974 7965 7964 7962 ] final   17.52 input  175.53 | X-H torsion
[ 8008 7997 7996 7995 ] final  168.78 input   59.86 | X-H torsion
[ 10167 10162 10161 10158 ] final  -46.03 input  -65.29 | X-H torsion
[ 10718 10713 10712 10709 ] final  -23.30 input   66.30 | X-H torsion
[ 10763 10752 10751 10750 ] final  143.15 input  -60.55 | X-H torsion
[ 11005 11000 10999 10996 ] final  -37.37 input  -57.11 | X-H torsion

> <Gold.Protein.ActiveResidues>
 VAL166  LYS551  ARG553  GLY616  TRP617  ASP618  TYR619  PRO620  LYS621  CYS622 
 ASP623  PHE694  ASN695  SER759  ASP760  ASP761  ALA762  ILE779  LEU786  VAL792 
 PHE793  MET794  SER795  GLU796  ALA797  LYS798  CYS799  TRP800  GLU811  SER814 

> <Gold.Protein.RotatedAtoms>
  151.5052  133.3496  159.2875 H   0  0  0  0  0  0  0  0  0  0  0  0  # atno 6907 bound_to 6896
  150.8747  134.8130  159.7192 H   0  0  0  0  0  0  0  0  0  0  0  0  # atno 6908 bound_to 6896
  152.4722  134.4941  159.9756 H   0  0  0  0  0  0  0  0  0  0  0  0  # atno 6909 bound_to 6896
  146.2215  139.8590  142.8608 H   0  0  0  0  0  0  0  0  0  0  0  0  # atno 7974 bound_to 7965
  156.1517  140.1581  156.8759 H   0  0  0  0  0  0  0  0  0  0  0  0  # atno 8008 bound_to 7997
  154.5077  140.0809  156.7964 H   0  0  0  0  0  0  0  0  0  0  0  0  # atno 8009 bound_to 7997
  155.3883  140.3408  155.4252 H   0  0  0  0  0  0  0  0  0  0  0  0  # atno 8010 bound_to 7997
  140.6834  143.2850  151.3725 H   0  0  0  0  0  0  0  0  0  0  0  0  # atno 10167 bound_to 10162
  156.4929  130.4570  149.6745 H   0  0  0  0  0  0  0  0  0  0  0  0  # atno 10718 bound_to 10713
  153.9676  135.2954  155.3429 H   0  0  0  0  0  0  0  0  0  0  0  0  # atno 10763 bound_to 10752
  154.7340  135.5055  153.9014 H   0  0  0  0  0  0  0  0  0  0  0  0  # atno 10764 bound_to 10752
  153.0915  135.6709  153.9956 H   0  0  0  0  0  0  0  0  0  0  0  0  # atno 10765 bound_to 10752
  140.9947  133.6986  156.1912 H   0  0  0  0  0  0  0  0  0  0  0  0  # atno 11005 bound_to 11000
  145.2724  141.0113  143.3764 LP  0  0  0  0  0  0  0  0  0  0  0  0  # atno 17320 bound_to 7965
  144.9213  139.4408  143.6539 LP  0  0  0  0  0  0  0  0  0  0  0  0  # atno 17321 bound_to 7965
  139.6173  144.0977  152.2358 LP  0  0  0  0  0  0  0  0  0  0  0  0  # atno 17342 bound_to 10162
  140.0410  144.6007  150.7411 LP  0  0  0  0  0  0  0  0  0  0  0  0  # atno 17343 bound_to 10162
  156.3409  130.7381  151.2326 LP  0  0  0  0  0  0  0  0  0  0  0  0  # atno 17370 bound_to 10713
  157.7472  131.0404  150.4596 LP  0  0  0  0  0  0  0  0  0  0  0  0  # atno 17371 bound_to 10713
  140.6985  134.4589  157.5587 LP  0  0  0  0  0  0  0  0  0  0  0  0  # atno 17394 bound_to 11000
  139.9009  134.8559  156.1902 LP  0  0  0  0  0  0  0  0  0  0  0  0  # atno 17395 bound_to 11000

$$$$
