AV-unprocessed.smi:1240|AV-procd|sdf|5205|dock2
  -GOLD-   22720 4293D 1   1.00000     0.00000
 Structure written by MMmdl.
 48 50  0  0  0  0  0  0  0  0  2 V2000
  144.8617  136.0789  153.5314 O   0  0  0  0  0  0  0  0  0  0  0  0
  146.0142  136.0666  153.0997 C   0  0  0  0  0  0  0  0  0  0  0  0
  146.9733  136.8971  153.5322 N   0  0  0  0  0  0  0  0  0  0  0  0
  146.7952  137.9204  154.5597 C   0  0  0  0  0  0  0  0  0  0  0  0
  147.6804  137.6970  155.8268 C   0  0  2  0  0  0  0  0  0  0  0  0
  146.8532  138.0796  157.1022 C   0  0  1  0  0  0  0  0  0  0  0  0
  145.4881  137.4558  157.3369 C   0  0  0  0  0  0  0  0  0  0  0  0
  145.2165  137.8536  158.7824 C   0  0  0  0  0  0  0  0  0  0  0  0
  146.4866  137.8009  159.4235 O   0  0  0  0  0  0  0  0  0  0  0  0
  147.5250  137.7733  158.4465 C   0  0  0  0  0  0  0  0  0  0  0  0
  149.0236  138.3291  155.7761 N   0  0  0  0  0  0  0  0  0  0  0  0
  149.8547  137.7584  154.7074 C   0  0  0  0  0  0  0  0  0  0  0  0
  151.2832  138.3258  154.7165 C   0  0  0  0  0  0  0  0  0  0  0  0
  151.2267  139.7379  154.5575 O   0  0  0  0  0  0  0  0  0  0  0  0
  150.4496  140.3678  155.5685 C   0  0  0  0  0  0  0  0  0  0  0  0
  149.0254  139.7825  155.5786 C   0  0  0  0  0  0  0  0  0  0  0  0
  146.4726  135.2524  152.1330 N   0  0  0  0  0  0  0  0  0  0  0  0
  145.7659  134.2507  151.4131 C   0  0  0  0  0  0  0  0  0  0  0  0
  146.5221  133.3554  150.6241 C   0  0  0  0  0  0  0  0  0  0  0  0
  145.8644  132.3389  149.9018 C   0  0  0  0  0  0  0  0  0  0  0  0
  144.5215  132.2214  149.9774 N   0  3  0  0  0  0  0  0  0  0  0  0
  143.7579  133.0424  150.7296 C   0  0  0  0  0  0  0  0  0  0  0  0
  144.3593  134.0778  151.4737 C   0  0  0  0  0  0  0  0  0  0  0  0
  147.8929  136.8225  153.1219 H   0  0  0  0  0  0  0  0  0  0  0  0
  147.0129  138.8815  154.0921 H   0  0  0  0  0  0  0  0  0  0  0  0
  145.7391  137.9450  154.8292 H   0  0  0  0  0  0  0  0  0  0  0  0
  147.8403  136.6189  155.8761 H   0  0  0  0  0  0  0  0  0  0  0  0
  146.6795  139.1562  157.0679 H   0  0  0  0  0  0  0  0  0  0  0  0
  144.7214  137.8087  156.6467 H   0  0  0  0  0  0  0  0  0  0  0  0
  145.5346  136.3677  157.2956 H   0  0  0  0  0  0  0  0  0  0  0  0
  144.8374  138.8750  158.8338 H   0  0  0  0  0  0  0  0  0  0  0  0
  144.4944  137.1977  159.2690 H   0  0  0  0  0  0  0  0  0  0  0  0
  147.9685  136.7768  158.4401 H   0  0  0  0  0  0  0  0  0  0  0  0
  148.3073  138.4898  158.6977 H   0  0  0  0  0  0  0  0  0  0  0  0
  149.9091  136.6762  154.7608 H   0  0  0  0  0  0  0  0  0  0  0  0
  149.3995  137.9747  153.7395 H   0  0  0  0  0  0  0  0  0  0  0  0
  151.7957  138.0717  155.6457 H   0  0  0  0  0  0  0  0  0  0  0  0
  151.8663  137.8996  153.8999 H   0  0  0  0  0  0  0  0  0  0  0  0
  150.9280  140.2310  156.5396 H   0  0  0  0  0  0  0  0  0  0  0  0
  150.4177  141.4400  155.3756 H   0  0  0  0  0  0  0  0  0  0  0  0
  148.5222  140.0344  154.6438 H   0  0  0  0  0  0  0  0  0  0  0  0
  148.4783  140.2759  156.3815 H   0  0  0  0  0  0  0  0  0  0  0  0
  147.4217  135.4161  151.8306 H   0  0  0  0  0  0  0  0  0  0  0  0
  147.5970  133.4483  150.5646 H   0  0  0  0  0  0  0  0  0  0  0  0
  146.3687  131.6206  149.2719 H   0  0  0  0  0  0  0  0  0  0  0  0
  142.6960  132.8444  150.7187 H   0  0  0  0  0  0  0  0  0  0  0  0
  143.7318  134.7098  152.0835 H   0  0  0  0  0  0  0  0  0  0  0  0
  144.0647  131.4781  149.4480 H   0  0  0  0  0  0  0  0  0  0  0  0
  1  2  2  0  0  0  0
  2  3  1  0  0  0  0
  2 17  1  0  0  0  0
  3  4  1  0  0  0  0
  3 24  1  0  0  0  0
  4  5  1  0  0  0  0
  4 25  1  0  0  0  0
  4 26  1  0  0  0  0
  5  6  1  0  0  0  0
  5 11  1  0  0  0  0
  5 27  1  0  0  0  0
  6 10  1  0  0  0  0
  6  7  1  0  0  0  0
  6 28  1  0  0  0  0
  7  8  1  0  0  0  0
  7 29  1  0  0  0  0
  7 30  1  0  0  0  0
  8  9  1  0  0  0  0
  8 31  1  0  0  0  0
  8 32  1  0  0  0  0
  9 10  1  0  0  0  0
 10 33  1  0  0  0  0
 10 34  1  0  0  0  0
 11 16  1  0  0  0  0
 11 12  1  0  0  0  0
 12 13  1  0  0  0  0
 12 35  1  0  0  0  0
 12 36  1  0  0  0  0
 13 14  1  0  0  0  0
 13 37  1  0  0  0  0
 13 38  1  0  0  0  0
 14 15  1  0  0  0  0
 15 16  1  0  0  0  0
 15 39  1  0  0  0  0
 15 40  1  0  0  0  0
 16 41  1  0  0  0  0
 16 42  1  0  0  0  0
 17 18  1  0  0  0  0
 17 43  1  0  0  0  0
 18 23  1  0  0  0  0
 18 19  2  0  0  0  0
 19 20  1  0  0  0  0
 19 44  1  0  0  0  0
 20 21  2  0  0  0  0
 20 45  1  0  0  0  0
 21 22  1  0  0  0  0
 21 48  1  0  0  0  0
 22 23  2  0  0  0  0
 22 46  1  0  0  0  0
 23 47  1  0  0  0  0
M  CHG  1  21   1
M  END
> <s_m_source_file>
AV-unprocessed.smi

> <i_m_source_file_index>
1240

> <i_lp_mmshare_version>
43012

> <i_f3d_flags>
0

> <s_epik_input>
W2NIXTFbY0hdbltjSF1bY0hdYzFbTkhdQyg9TylbTkhdW0NIMl1bQ0BIXShbQ0BASF0yW0NIMl1bQ0gyXU9bQ0gyXTIpTjNbQ0gyXVtDSDJdT1tDSDJdW0NIMl0z

> <s_epik_cmdline>
J2VwaWtfcHl0aG9uJywgJy1waCcsICc3LjAnLCAnLXRuJywgJzgnLCAnLW1hJywgJzIwMCcsICctbWV0YWxfYmluZGluZycsICctaW1hZScsICc8aW5maWxlLm1hZT4nLCAnLW9tYWUnLCAnPG91dGZpbGUubWFlPic=

> <r_epik_Ionization_Penalty>
1.15944

> <r_epik_Ionization_Penalty_Charging>
1.0344

> <r_epik_Ionization_Penalty_Neutral>
0.125034

> <r_epik_State_Penalty>
1.2199

> <r_epik_Charging_Adjusted_Penalty>
2.25431

> <i_epik_Tot_Q>
1

> <i_epik_Tot_abs_Q>
1

> <r_epik_Metal_State_Penalty>
1.3155

> <b_epik_Metal_Only>
0

> <s_lp_Force_Field>
OPLS_2005

> <r_lp_Energy>
67.1195

> <b_lp_Chiralities_Consistent>
1

> <s_lp_Variant>
AV-unprocessed.smi:1240-11

> <Gold.Version>
5.8.1

> <Gold.Id.Protein>
6NUR|6NUR_protein|mol2

> <Gold.PLP.Fitness>
38.6682

> <Gold.PLP.PLP>
-28.0609

> <Gold.PLP.part.hbond>
-4.0000

> <Gold.PLP.part.metal>
0.0000

> <Gold.PLP.part.buried>
-5.6403

> <Gold.PLP.part.nonpolar>
-19.6948

> <Gold.PLP.part.repulsive>
0.3036

> <Gold.PLP.ligand.clash>
0.0000

> <Gold.PLP.ligand.torsion>
0.5614

> <Gold.PLP.Chemscore.Hbond>
3.8480

> <Gold.PLP.Chemscore.CHOScore>
0.0000

> <Gold.PLP.Chemscore.Metal>
0.0000

> <Gold.Chemscore.Hbonds>
donor molecule, donor type, donor heavy atom, donor atom, acceptor molecule, acceptor atom, score
      L1  H     3    24       P1  7948  1.00
      L1  H    17    43       P1  7948  1.00
      P1  H  6934  6947       L1     9  0.81
      P1  H  7989  7998       L1    14  1.00

> <Gold.PLP.Chemscore.Internal.Correction>
0.1860

> <Gold.Rescore>
     Score         DG    S(hbond)    S(metal)    S(lipo)     H(rot)  DE(clash)    DE(int)     intcor
     18.75     -20.57       3.60        0.00      63.10       1.69       0.00       1.82       ----

> <Gold.Chemscore.Fitness>
18.7494

> <Gold.Chemscore.DG>
-20.5657

> <Gold.Chemscore.ZeroCoef>
-5.4800

> <Gold.Chemscore.Hbond>
3.6025

> <Gold.Chemscore.Metal>
0.0000

> <Gold.Chemscore.Lipo>
63.1007

> <Gold.Chemscore.Internal_Hbond>
0.0000

> <Gold.Chemscore.DEClash>
0.0000

> <Gold.Chemscore.DEInternal>
1.8163

> <Gold.Chemscore.Rot>
1.6912

> <Gold.Chemscore.Internal.Correction>
   9.000000E+99

> <Gold.Chemscore.Hbonds>
donor molecule, donor type, donor heavy atom, donor atom, acceptor molecule, acceptor atom, score
      L1  H     3    24       P1  7948  0.94
      L1  H    17    43       P1  7948  0.97
      P1  H  6934  6947       L1     9  0.38
      P1  H  7989  7998       L1    14  0.64

> <Gold.Chemscore.Hbond.Weighted>
-12.0324

> <Gold.Chemscore.Metal.Weighted>
-0.0000

> <Gold.Chemscore.Lipo.Weighted>
-7.3828

> <Gold.Chemscore.Internal_Hbond.Weighted>
0.0000

> <Gold.Chemscore.DEClash.Weighted>
0.0000

> <Gold.Chemscore.DEInternal.Weighted>
1.8163

> <Gold.Chemscore.Rot.Weighted>
4.3295

> <Gold.Chemscore.Internal.Correction.Weighted>
   9.000000E+99

> <Gold.Protein.RotatedTorsions>
[ 6907 6896 6895 6894 ] final  110.64 input  -60.11 | X-H torsion
[ 7974 7965 7964 7962 ] final  166.94 input  175.53 | X-H torsion
[ 8008 7997 7996 7995 ] final -160.52 input   59.86 | X-H torsion
[ 10167 10162 10161 10158 ] final   -9.16 input  -65.29 | X-H torsion
[ 10718 10713 10712 10709 ] final -148.53 input   66.30 | X-H torsion
[ 10763 10752 10751 10750 ] final   -3.37 input  -60.55 | X-H torsion
[ 11005 11000 10999 10996 ] final -151.80 input  -57.11 | X-H torsion

> <Gold.Protein.ActiveResidues>
 VAL166  LYS551  ARG553  GLY616  TRP617  ASP618  TYR619  PRO620  LYS621  CYS622 
 ASP623  PHE694  ASN695  SER759  ASP760  ASP761  ALA762  ILE779  LEU786  VAL792 
 PHE793  MET794  SER795  GLU796  ALA797  LYS798  CYS799  TRP800  GLU811  SER814 

> <Gold.Protein.RotatedAtoms>
  152.5009  133.8771  159.7327 H   0  0  0  0  0  0  0  0  0  0  0  0  # atno 6907 bound_to 6896
  150.9243  133.6834  159.2831 H   0  0  0  0  0  0  0  0  0  0  0  0  # atno 6908 bound_to 6896
  151.4200  135.1001  159.9663 H   0  0  0  0  0  0  0  0  0  0  0  0  # atno 6909 bound_to 6896
  144.7443  139.8688  143.6387 H   0  0  0  0  0  0  0  0  0  0  0  0  # atno 7974 bound_to 7965
  155.7786  140.0862  157.2071 H   0  0  0  0  0  0  0  0  0  0  0  0  # atno 8008 bound_to 7997
  154.3991  140.1512  156.3083 H   0  0  0  0  0  0  0  0  0  0  0  0  # atno 8009 bound_to 7997
  155.8676  140.3427  155.5801 H   0  0  0  0  0  0  0  0  0  0  0  0  # atno 8010 bound_to 7997
  140.7079  143.5889  150.8914 H   0  0  0  0  0  0  0  0  0  0  0  0  # atno 10167 bound_to 10162
  156.4215  130.8031  151.2254 H   0  0  0  0  0  0  0  0  0  0  0  0  # atno 10718 bound_to 10713
  153.3704  135.6994  153.6642 H   0  0  0  0  0  0  0  0  0  0  0  0  # atno 10763 bound_to 10752
  153.5294  135.3595  155.2669 H   0  0  0  0  0  0  0  0  0  0  0  0  # atno 10764 bound_to 10752
  154.8680  135.4177  154.2981 H   0  0  0  0  0  0  0  0  0  0  0  0  # atno 10765 bound_to 10752
  140.7257  134.3677  157.5175 H   0  0  0  0  0  0  0  0  0  0  0  0  # atno 11005 bound_to 11000
  146.1295  139.4327  143.0178 LP  0  0  0  0  0  0  0  0  0  0  0  0  # atno 17320 bound_to 7965
  145.7184  141.0083  143.1415 LP  0  0  0  0  0  0  0  0  0  0  0  0  # atno 17321 bound_to 7965
  139.9615  143.6159  152.3001 LP  0  0  0  0  0  0  0  0  0  0  0  0  # atno 17342 bound_to 10162
  139.6713  144.7660  151.1778 LP  0  0  0  0  0  0  0  0  0  0  0  0  # atno 17343 bound_to 10162
  157.7508  131.0226  150.3801 LP  0  0  0  0  0  0  0  0  0  0  0  0  # atno 17370 bound_to 10713
  156.4120  130.3936  149.6885 LP  0  0  0  0  0  0  0  0  0  0  0  0  # atno 17371 bound_to 10713
  139.8837  134.8985  156.2746 LP  0  0  0  0  0  0  0  0  0  0  0  0  # atno 17394 bound_to 11000
  140.9965  133.7177  156.0893 LP  0  0  0  0  0  0  0  0  0  0  0  0  # atno 17395 bound_to 11000

$$$$
