AV-unprocessed.smi:208|AV-procd|sdf|1606|dock7
  -GOLD-   2262019523D 1   1.00000     0.00000
 Structure written by MMmdl.
 50 53  0  0  0  0  0  0  0  0  1 V2000
  152.2775  139.9986  155.5968 C   0  0  0  0  0  0  0  0  0  0  0  0
  151.6747  141.2239  156.3015 C   0  0  0  0  0  0  0  0  0  0  0  0
  151.3395  141.0148  157.8043 C   0  0  1  0  0  0  0  0  0  0  0  0
  152.6435  140.8224  158.6105 C   0  0  0  0  0  0  0  0  0  0  0  0
  153.2840  139.7836  158.4401 O   0  0  0  0  0  0  0  0  0  0  0  0
  153.0458  141.7793  159.4805 N   0  0  0  0  0  0  0  0  0  0  0  0
  154.2738  141.6105  160.2589 C   0  0  0  0  0  0  0  0  0  0  0  0
  152.3124  143.0234  159.7464 C   0  0  0  0  0  0  0  0  0  0  0  0
  151.2125  143.3377  158.7227 C   0  0  0  0  0  0  0  0  0  0  0  0
  150.5192  142.1130  158.3366 N   0  0  0  0  0  0  0  0  0  0  0  0
  149.2102  142.1890  157.9769 C   0  0  0  0  0  0  0  0  0  0  0  0
  148.8030  141.5841  156.8289 N   0  0  0  0  0  0  0  0  0  0  0  0
  147.5173  141.6095  156.4684 C   0  0  0  0  0  0  0  0  0  0  0  0
  146.4872  142.1773  157.0963 N   0  0  0  0  0  0  0  0  0  0  0  0
  146.8872  142.8033  158.2389 C   0  0  0  0  0  0  0  0  0  0  0  0
  148.2165  142.8581  158.7489 C   0  0  0  0  0  0  0  0  0  0  0  0
  148.2343  143.5923  159.9292 N   0  0  0  0  0  0  0  0  0  0  0  0
  146.9895  143.9336  160.1157 C   0  0  0  0  0  0  0  0  0  0  0  0
  146.1127  143.5100  159.1430 N   0  0  0  0  0  0  0  0  0  0  0  0
  144.6778  143.7530  159.1054 C   0  0  0  0  0  0  0  0  0  0  0  0
  143.8898  143.1119  160.2651 C   0  0  0  0  0  0  0  0  0  0  0  0
  142.3881  143.4196  160.0872 C   0  0  0  0  0  0  0  0  0  0  0  0
  141.6003  142.9031  161.1415 O   0  0  0  0  0  0  0  0  0  0  0  0
  144.2408  141.6552  160.6029 C   0  0  0  0  0  0  0  0  0  0  0  0
  144.4846  141.9755  161.9902 O   0  0  0  0  0  0  0  0  0  0  0  0
  144.4754  143.3812  161.6592 C   0  0  0  0  0  0  0  0  0  0  0  0
  152.6264  140.2653  154.5991 H   0  0  0  0  0  0  0  0  0  0  0  0
  151.5521  139.1962  155.4754 H   0  0  0  0  0  0  0  0  0  0  0  0
  153.1298  139.6034  156.1498 H   0  0  0  0  0  0  0  0  0  0  0  0
  152.4063  142.0270  156.2015 H   0  0  0  0  0  0  0  0  0  0  0  0
  150.7961  141.5653  155.7539 H   0  0  0  0  0  0  0  0  0  0  0  0
  150.8099  140.0698  157.9069 H   0  0  0  0  0  0  0  0  0  0  0  0
  155.1453  141.6233  159.6030 H   0  0  0  0  0  0  0  0  0  0  0  0
  154.2657  140.6624  160.7990 H   0  0  0  0  0  0  0  0  0  0  0  0
  154.4023  142.4025  160.9979 H   0  0  0  0  0  0  0  0  0  0  0  0
  151.8585  142.9239  160.7333 H   0  0  0  0  0  0  0  0  0  0  0  0
  153.0030  143.8657  159.8058 H   0  0  0  0  0  0  0  0  0  0  0  0
  150.5316  144.0716  159.1565 H   0  0  0  0  0  0  0  0  0  0  0  0
  151.6478  143.7962  157.8343 H   0  0  0  0  0  0  0  0  0  0  0  0
  147.2797  141.0991  155.5466 H   0  0  0  0  0  0  0  0  0  0  0  0
  146.6763  144.5161  160.9700 H   0  0  0  0  0  0  0  0  0  0  0  0
  144.5237  144.8327  159.0866 H   0  0  0  0  0  0  0  0  0  0  0  0
  144.2998  143.3871  158.1499 H   0  0  0  0  0  0  0  0  0  0  0  0
  142.2162  144.4949  160.0315 H   0  0  0  0  0  0  0  0  0  0  0  0
  142.0045  142.9876  159.1629 H   0  0  0  0  0  0  0  0  0  0  0  0
  140.6932  143.1027  160.9663 H   0  0  0  0  0  0  0  0  0  0  0  0
  143.4165  140.9537  160.4702 H   0  0  0  0  0  0  0  0  0  0  0  0
  145.1452  141.2876  160.1173 H   0  0  0  0  0  0  0  0  0  0  0  0
  145.4844  143.7964  161.6425 H   0  0  0  0  0  0  0  0  0  0  0  0
  143.8307  143.9656  162.3164 H   0  0  0  0  0  0  0  0  0  0  0  0
  1  2  1  0  0  0  0
  1 27  1  0  0  0  0
  1 28  1  0  0  0  0
  1 29  1  0  0  0  0
  2  3  1  0  0  0  0
  2 30  1  0  0  0  0
  2 31  1  0  0  0  0
  3 10  1  0  0  0  0
  3  4  1  0  0  0  0
  3 32  1  0  0  0  0
  4  5  2  0  0  0  0
  4  6  1  0  0  0  0
  6  7  1  0  0  0  0
  6  8  1  0  0  0  0
  7 33  1  0  0  0  0
  7 34  1  0  0  0  0
  7 35  1  0  0  0  0
  8  9  1  0  0  0  0
  8 36  1  0  0  0  0
  8 37  1  0  0  0  0
  9 10  1  0  0  0  0
  9 38  1  0  0  0  0
  9 39  1  0  0  0  0
 10 11  1  0  0  0  0
 11 16  1  0  0  0  0
 11 12  2  0  0  0  0
 12 13  1  0  0  0  0
 13 14  2  0  0  0  0
 13 40  1  0  0  0  0
 14 15  1  0  0  0  0
 15 19  1  0  0  0  0
 15 16  2  0  0  0  0
 16 17  1  0  0  0  0
 17 18  2  0  0  0  0
 18 19  1  0  0  0  0
 18 41  1  0  0  0  0
 19 20  1  0  0  0  0
 20 21  1  0  0  0  0
 20 42  1  0  0  0  0
 20 43  1  0  0  0  0
 21 26  1  0  0  0  0
 21 22  1  0  0  0  0
 21 24  1  0  0  0  0
 22 23  1  0  0  0  0
 22 44  1  0  0  0  0
 22 45  1  0  0  0  0
 23 46  1  0  0  0  0
 24 25  1  0  0  0  0
 24 47  1  0  0  0  0
 24 48  1  0  0  0  0
 25 26  1  0  0  0  0
 26 49  1  0  0  0  0
 26 50  1  0  0  0  0
M  END
> <s_m_source_file>
AV-unprocessed.smi

> <i_m_source_file_index>
208

> <i_lp_mmshare_version>
43012

> <i_f3d_flags>
0

> <s_epik_input>
W0NIM11bQ0gyXVtDQEBIXTFDKD1PKU4oW0NIM10pW0NIMl1bQ0gyXU4xYyhuW2NIXW4yKWMoYzIzKW5bY0hdbjNbQ0gyXUM0KFtDSDJdW09IXSlbQ0gyXU9bQ0gyXTQ=

> <s_epik_cmdline>
J2VwaWtfcHl0aG9uJywgJy1waCcsICc3LjAnLCAnLXRuJywgJzgnLCAnLW1hJywgJzIwMCcsICctbWV0YWxfYmluZGluZycsICctaW1hZScsICc8aW5maWxlLm1hZT4nLCAnLW9tYWUnLCAnPG91dGZpbGUubWFlPic=

> <r_lp_tautomer_probability>
1

> <r_epik_Ionization_Penalty>
0.000581289

> <r_epik_Ionization_Penalty_Charging>
0

> <r_epik_Ionization_Penalty_Neutral>
0.000581289

> <r_epik_State_Penalty>
0.000280365

> <r_epik_Charging_Adjusted_Penalty>
0.000280365

> <i_epik_Tot_Q>
0

> <i_epik_Tot_abs_Q>
0

> <r_epik_Metal_State_Penalty>
-0

> <b_epik_Metal_Only>
0

> <s_lp_Force_Field>
OPLS_2005

> <r_lp_Energy>
42.9171

> <b_lp_Chiralities_Consistent>
1

> <s_lp_Variant>
AV-unprocessed.smi:208-2

> <Gold.Version>
5.8.1

> <Gold.Id.Protein>
6NUR|6NUR_protein|mol2

> <Gold.PLP.Fitness>
46.0008

> <Gold.PLP.PLP>
-41.3620

> <Gold.PLP.part.hbond>
-4.2732

> <Gold.PLP.part.metal>
0.0000

> <Gold.PLP.part.buried>
-7.2732

> <Gold.PLP.part.nonpolar>
-30.8019

> <Gold.PLP.part.repulsive>
0.3823

> <Gold.PLP.ligand.clash>
0.0000

> <Gold.PLP.ligand.torsion>
0.7695

> <Gold.PLP.Chemscore.Hbond>
1.8870

> <Gold.PLP.Chemscore.CHOScore>
0.0000

> <Gold.PLP.Chemscore.Metal>
0.0000

> <Gold.Chemscore.Hbonds>
donor molecule, donor type, donor heavy atom, donor atom, acceptor molecule, acceptor atom, score
      P1  H  6933  6944       L1    17  0.88
      P1  H  7997  8010       L1     5  1.00

> <Gold.PLP.Chemscore.Internal.Correction>
0.5169

> <Gold.Rescore>
     Score         DG    S(hbond)    S(metal)    S(lipo)     H(rot)  DE(clash)    DE(int)     intcor
      6.65     -10.33       0.94        0.00      68.59       2.46       1.56       2.13       ----

> <Gold.Chemscore.Fitness>
6.6492

> <Gold.Chemscore.DG>
-10.3319

> <Gold.Chemscore.ZeroCoef>
-5.4800

> <Gold.Chemscore.Hbond>
0.9353

> <Gold.Chemscore.Metal>
0.0000

> <Gold.Chemscore.Lipo>
68.5907

> <Gold.Chemscore.Internal_Hbond>
0.0000

> <Gold.Chemscore.DEClash>
1.5570

> <Gold.Chemscore.DEInternal>
2.1257

> <Gold.Chemscore.Rot>
2.4598

> <Gold.Chemscore.Internal.Correction>
   9.000000E+99

> <Gold.Chemscore.Hbonds>
donor molecule, donor type, donor heavy atom, donor atom, acceptor molecule, acceptor atom, score
      P1  H  6933  6944       L1    17  0.17
      P1  H  7997  8010       L1     5  0.61

> <Gold.Chemscore.Hbond.Weighted>
-3.1239

> <Gold.Chemscore.Metal.Weighted>
-0.0000

> <Gold.Chemscore.Lipo.Weighted>
-8.0251

> <Gold.Chemscore.Internal_Hbond.Weighted>
0.0000

> <Gold.Chemscore.DEClash.Weighted>
1.5570

> <Gold.Chemscore.DEInternal.Weighted>
2.1257

> <Gold.Chemscore.Rot.Weighted>
6.2972

> <Gold.Chemscore.Internal.Correction.Weighted>
   9.000000E+99

> <Gold.Protein.RotatedTorsions>
[ 6907 6896 6895 6894 ] final  -77.27 input  -60.11 | X-H torsion
[ 7974 7965 7964 7962 ] final   79.82 input  175.53 | X-H torsion
[ 8008 7997 7996 7995 ] final   45.18 input   59.86 | X-H torsion
[ 10167 10162 10161 10158 ] final -113.69 input  -65.29 | X-H torsion
[ 10718 10713 10712 10709 ] final   58.40 input   66.30 | X-H torsion
[ 10763 10752 10751 10750 ] final -166.85 input  -60.55 | X-H torsion
[ 11005 11000 10999 10996 ] final  -49.98 input  -57.11 | X-H torsion

> <Gold.Protein.ActiveResidues>
 VAL166  LYS551  ARG553  GLY616  TRP617  ASP618  TYR619  PRO620  LYS621  CYS622 
 ASP623  PHE694  ASN695  SER759  ASP760  ASP761  ALA762  ILE779  LEU786  VAL792 
 PHE793  MET794  SER795  GLU796  ALA797  LYS798  CYS799  TRP800  GLU811  SER814 

> <Gold.Protein.RotatedAtoms>
  150.7003  134.4447  159.5308 H   0  0  0  0  0  0  0  0  0  0  0  0  # atno 6907 bound_to 6896
  152.2151  134.8463  160.0502 H   0  0  0  0  0  0  0  0  0  0  0  0  # atno 6908 bound_to 6896
  151.9334  133.3582  159.3976 H   0  0  0  0  0  0  0  0  0  0  0  0  # atno 6909 bound_to 6896
  145.6592  139.2467  143.1932 H   0  0  0  0  0  0  0  0  0  0  0  0  # atno 7974 bound_to 7965
  155.3317  140.3403  155.4239 H   0  0  0  0  0  0  0  0  0  0  0  0  # atno 8008 bound_to 7997
  156.1858  140.1680  156.8224 H   0  0  0  0  0  0  0  0  0  0  0  0  # atno 8009 bound_to 7997
  154.5385  140.0730  156.8452 H   0  0  0  0  0  0  0  0  0  0  0  0  # atno 8010 bound_to 7997
  140.1090  143.4544  152.1764 H   0  0  0  0  0  0  0  0  0  0  0  0  # atno 10167 bound_to 10162
  157.5593  130.8823  149.9085 H   0  0  0  0  0  0  0  0  0  0  0  0  # atno 10718 bound_to 10713
  154.6791  135.2951  154.9637 H   0  0  0  0  0  0  0  0  0  0  0  0  # atno 10763 bound_to 10752
  154.0638  135.6627  153.4819 H   0  0  0  0  0  0  0  0  0  0  0  0  # atno 10764 bound_to 10752
  153.0536  135.5158  154.7826 H   0  0  0  0  0  0  0  0  0  0  0  0  # atno 10765 bound_to 10752
  141.0790  133.6658  156.3665 H   0  0  0  0  0  0  0  0  0  0  0  0  # atno 11005 bound_to 11000
  146.1139  140.7394  142.9490 LP  0  0  0  0  0  0  0  0  0  0  0  0  # atno 17320 bound_to 7965
  144.7095  140.3983  143.7092 LP  0  0  0  0  0  0  0  0  0  0  0  0  # atno 17321 bound_to 7965
  139.5629  144.7417  151.4103 LP  0  0  0  0  0  0  0  0  0  0  0  0  # atno 17342 bound_to 10162
  140.6936  143.7803  150.7292 LP  0  0  0  0  0  0  0  0  0  0  0  0  # atno 17343 bound_to 10162
  156.0647  130.3694  150.0904 LP  0  0  0  0  0  0  0  0  0  0  0  0  # atno 17370 bound_to 10713
  156.9069  130.9639  151.3568 LP  0  0  0  0  0  0  0  0  0  0  0  0  # atno 17371 bound_to 10713
  140.5509  134.6028  157.5407 LP  0  0  0  0  0  0  0  0  0  0  0  0  # atno 17394 bound_to 11000
  139.9603  134.7463  156.0251 LP  0  0  0  0  0  0  0  0  0  0  0  0  # atno 17395 bound_to 11000

$$$$
