AV-unprocessed.smi:2203|AV-procd|sdf|8935|dock2
  -GOLD-   2272012153D 1   1.00000     0.00000
 Structure written by MMmdl.
 48 49  0  0  0  0  0  0  0  0  1 V2000
  152.8390  138.6270  154.9380 C   0  0  0  0  0  0  0  0  0  0  0  0
  152.1291  139.5512  155.8856 C   0  0  0  0  0  0  0  0  0  0  0  0
  152.5761  139.6757  157.1234 N   0  0  0  0  0  0  0  0  0  0  0  0
  151.7443  140.5640  157.7061 N   0  0  0  0  0  0  0  0  0  0  0  0
  151.9608  140.9305  159.0980 C   0  0  0  0  0  0  0  0  0  0  0  0
  152.9747  142.0815  159.2740 C   0  0  0  0  0  0  0  0  0  0  0  0
  153.3257  142.2744  160.7563 C   0  0  0  0  0  0  0  0  0  0  0  0
  152.4940  143.4028  158.6496 C   0  0  0  0  0  0  0  0  0  0  0  0
  150.7743  141.0093  156.8261 C   0  0  0  0  0  0  0  0  0  0  0  0
  149.7322  142.0103  157.2123 C   0  0  0  0  0  0  0  0  0  0  0  0
  150.9887  140.3693  155.6346 C   0  0  0  0  0  0  0  0  0  0  0  0
  150.2138  140.4965  154.3477 C   0  0  0  0  0  0  0  0  0  0  0  0
  148.7594  140.0915  154.5855 C   0  0  0  0  0  0  0  0  0  0  0  0
  148.3850  139.7740  155.7143 O   0  0  0  0  0  0  0  0  0  0  0  0
  147.9492  140.1154  153.5179 N   0  0  0  0  0  0  0  0  0  0  0  0
  146.5324  139.7822  153.5503 C   0  0  0  0  0  0  0  0  0  0  0  0
  146.3082  138.3305  153.1059 C   0  0  2  0  0  0  0  0  0  0  0  0
  146.3464  138.1408  151.5896 C   0  0  0  0  0  0  0  0  0  0  0  0
  145.4669  136.9255  151.4073 C   0  0  0  0  0  0  0  0  0  0  0  0
  144.3770  137.1833  152.4417 C   0  0  0  0  0  0  0  0  0  0  0  0
  145.0167  137.8765  153.5094 O   0  0  0  0  0  0  0  0  0  0  0  0
  153.5040  139.1844  154.2782 H   0  0  0  0  0  0  0  0  0  0  0  0
  152.1302  138.0831  154.3138 H   0  0  0  0  0  0  0  0  0  0  0  0
  153.4401  137.8890  155.4706 H   0  0  0  0  0  0  0  0  0  0  0  0
  151.0027  141.2064  159.5421 H   0  0  0  0  0  0  0  0  0  0  0  0
  152.2978  140.0443  159.6361 H   0  0  0  0  0  0  0  0  0  0  0  0
  153.8950  141.7987  158.7626 H   0  0  0  0  0  0  0  0  0  0  0  0
  152.4499  142.5666  161.3365 H   0  0  0  0  0  0  0  0  0  0  0  0
  154.0833  143.0484  160.8841 H   0  0  0  0  0  0  0  0  0  0  0  0
  153.7208  141.3549  161.1892 H   0  0  0  0  0  0  0  0  0  0  0  0
  151.5512  143.7276  159.0911 H   0  0  0  0  0  0  0  0  0  0  0  0
  152.3439  143.3084  157.5741 H   0  0  0  0  0  0  0  0  0  0  0  0
  153.2244  144.1974  158.8037 H   0  0  0  0  0  0  0  0  0  0  0  0
  149.2121  142.3955  156.3353 H   0  0  0  0  0  0  0  0  0  0  0  0
  150.1756  142.8616  157.7285 H   0  0  0  0  0  0  0  0  0  0  0  0
  148.9884  141.5610  157.8700 H   0  0  0  0  0  0  0  0  0  0  0  0
  150.2507  141.5139  153.9564 H   0  0  0  0  0  0  0  0  0  0  0  0
  150.6326  139.8626  153.5656 H   0  0  0  0  0  0  0  0  0  0  0  0
  148.3381  140.3832  152.6255 H   0  0  0  0  0  0  0  0  0  0  0  0
  146.1346  139.9330  154.5552 H   0  0  0  0  0  0  0  0  0  0  0  0
  145.9978  140.4620  152.8854 H   0  0  0  0  0  0  0  0  0  0  0  0
  147.0510  137.6750  153.5637 H   0  0  0  0  0  0  0  0  0  0  0  0
  145.9023  138.9981  151.0811 H   0  0  0  0  0  0  0  0  0  0  0  0
  147.3565  138.0012  151.2039 H   0  0  0  0  0  0  0  0  0  0  0  0
  145.0786  136.8224  150.3937 H   0  0  0  0  0  0  0  0  0  0  0  0
  146.0202  136.0195  151.6584 H   0  0  0  0  0  0  0  0  0  0  0  0
  143.6028  137.8288  152.0249 H   0  0  0  0  0  0  0  0  0  0  0  0
  143.9023  136.2649  152.7876 H   0  0  0  0  0  0  0  0  0  0  0  0
  1  2  1  0  0  0  0
  1 22  1  0  0  0  0
  1 23  1  0  0  0  0
  1 24  1  0  0  0  0
  2 11  1  0  0  0  0
  2  3  2  0  0  0  0
  3  4  1  0  0  0  0
  4  5  1  0  0  0  0
  4  9  1  0  0  0  0
  5  6  1  0  0  0  0
  5 25  1  0  0  0  0
  5 26  1  0  0  0  0
  6  7  1  0  0  0  0
  6  8  1  0  0  0  0
  6 27  1  0  0  0  0
  7 28  1  0  0  0  0
  7 29  1  0  0  0  0
  7 30  1  0  0  0  0
  8 31  1  0  0  0  0
  8 32  1  0  0  0  0
  8 33  1  0  0  0  0
  9 10  1  0  0  0  0
  9 11  2  0  0  0  0
 10 34  1  0  0  0  0
 10 35  1  0  0  0  0
 10 36  1  0  0  0  0
 11 12  1  0  0  0  0
 12 13  1  0  0  0  0
 12 37  1  0  0  0  0
 12 38  1  0  0  0  0
 13 14  2  0  0  0  0
 13 15  1  0  0  0  0
 15 16  1  0  0  0  0
 15 39  1  0  0  0  0
 16 17  1  0  0  0  0
 16 40  1  0  0  0  0
 16 41  1  0  0  0  0
 17 21  1  0  0  0  0
 17 18  1  0  0  0  0
 17 42  1  0  0  0  0
 18 19  1  0  0  0  0
 18 43  1  0  0  0  0
 18 44  1  0  0  0  0
 19 20  1  0  0  0  0
 19 45  1  0  0  0  0
 19 46  1  0  0  0  0
 20 21  1  0  0  0  0
 20 47  1  0  0  0  0
 20 48  1  0  0  0  0
M  END
> <s_m_source_file>
AV-unprocessed.smi

> <i_m_source_file_index>
2203

> <i_lp_mmshare_version>
43012

> <i_f3d_flags>
0

> <s_epik_input>
W0NIM11jMW5uKFtDSDJdW0NIXShbQ0gzXSlbQ0gzXSljKFtDSDNdKWMxW0NIMl1DKD1PKVtOSF1bQ0gyXVtDQEBIXTJbQ0gyXVtDSDJdW0NIMl1PMg==

> <s_epik_cmdline>
J2VwaWtfcHl0aG9uJywgJy1waCcsICc3LjAnLCAnLXRuJywgJzgnLCAnLW1hJywgJzIwMCcsICctbWV0YWxfYmluZGluZycsICctaW1hZScsICc8aW5maWxlLm1hZT4nLCAnLW9tYWUnLCAnPG91dGZpbGUubWFlPic=

> <r_lp_tautomer_probability>
1

> <r_epik_Ionization_Penalty>
0.00306713

> <r_epik_Ionization_Penalty_Charging>
0

> <r_epik_Ionization_Penalty_Neutral>
0.00306713

> <r_epik_State_Penalty>
0.00215672

> <r_epik_Charging_Adjusted_Penalty>
0.00215672

> <i_epik_Tot_Q>
0

> <i_epik_Tot_abs_Q>
0

> <r_epik_Metal_State_Penalty>
-0

> <b_epik_Metal_Only>
0

> <s_lp_Force_Field>
OPLS_2005

> <r_lp_Energy>
15.5636

> <b_lp_Chiralities_Consistent>
1

> <s_lp_Variant>
AV-unprocessed.smi:2203-1

> <Gold.Version>
5.8.1

> <Gold.Id.Protein>
6NUR|6NUR_protein|mol2

> <Gold.PLP.Fitness>
43.9376

> <Gold.PLP.PLP>
-39.2820

> <Gold.PLP.part.hbond>
-2.0000

> <Gold.PLP.part.metal>
0.0000

> <Gold.PLP.part.buried>
3.2285

> <Gold.PLP.part.nonpolar>
-41.0617

> <Gold.PLP.part.repulsive>
0.2195

> <Gold.PLP.ligand.clash>
0.0000

> <Gold.PLP.ligand.torsion>
0.7075

> <Gold.PLP.Chemscore.Hbond>
2.0000

> <Gold.PLP.Chemscore.CHOScore>
0.0000

> <Gold.PLP.Chemscore.Metal>
0.0000

> <Gold.Chemscore.Hbonds>
donor molecule, donor type, donor heavy atom, donor atom, acceptor molecule, acceptor atom, score
      L1  H    15    39       P1  7957  1.00
      P1  H  7997  8008       L1     3  1.00

> <Gold.PLP.Chemscore.Internal.Correction>
0.0707

> <Gold.Rescore>
     Score         DG    S(hbond)    S(metal)    S(lipo)     H(rot)  DE(clash)    DE(int)     intcor
     16.20     -20.51       1.65        0.00     117.20       1.63       2.34       1.97       ----

> <Gold.Chemscore.Fitness>
16.1973

> <Gold.Chemscore.DG>
-20.5083

> <Gold.Chemscore.ZeroCoef>
-5.4800

> <Gold.Chemscore.Hbond>
1.6455

> <Gold.Chemscore.Metal>
0.0000

> <Gold.Chemscore.Lipo>
117.2010

> <Gold.Chemscore.Internal_Hbond>
0.0000

> <Gold.Chemscore.DEClash>
2.3447

> <Gold.Chemscore.DEInternal>
1.9663

> <Gold.Chemscore.Rot>
1.6329

> <Gold.Chemscore.Internal.Correction>
   9.000000E+99

> <Gold.Chemscore.Hbonds>
donor molecule, donor type, donor heavy atom, donor atom, acceptor molecule, acceptor atom, score
      L1  H    15    39       P1  7957  0.93
      P1  H  7997  8008       L1     3  0.29

> <Gold.Chemscore.Hbond.Weighted>
-5.4960

> <Gold.Chemscore.Metal.Weighted>
-0.0000

> <Gold.Chemscore.Lipo.Weighted>
-13.7125

> <Gold.Chemscore.Internal_Hbond.Weighted>
0.0000

> <Gold.Chemscore.DEClash.Weighted>
2.3447

> <Gold.Chemscore.DEInternal.Weighted>
1.9663

> <Gold.Chemscore.Rot.Weighted>
4.1803

> <Gold.Chemscore.Internal.Correction.Weighted>
   9.000000E+99

> <Gold.Protein.RotatedTorsions>
[ 6907 6896 6895 6894 ] final  -63.82 input  -60.11 | X-H torsion
[ 7974 7965 7964 7962 ] final  -90.72 input  175.53 | X-H torsion
[ 8008 7997 7996 7995 ] final  -71.43 input   59.86 | X-H torsion
[ 10167 10162 10161 10158 ] final -126.90 input  -65.29 | X-H torsion
[ 10718 10713 10712 10709 ] final  -86.64 input   66.30 | X-H torsion
[ 10763 10752 10751 10750 ] final  166.48 input  -60.55 | X-H torsion
[ 11005 11000 10999 10996 ] final  -69.82 input  -57.11 | X-H torsion

> <Gold.Protein.ActiveResidues>
 VAL166  LYS551  ARG553  GLY616  TRP617  ASP618  TYR619  PRO620  LYS621  CYS622 
 ASP623  PHE694  ASN695  SER759  ASP760  ASP761  ALA762  ILE779  LEU786  VAL792 
 PHE793  MET794  SER795  GLU796  ALA797  LYS798  CYS799  TRP800  GLU811  SER814 

> <Gold.Protein.RotatedAtoms>
  150.7625  134.6383  159.6223 H   0  0  0  0  0  0  0  0  0  0  0  0  # atno 6907 bound_to 6896
  152.3639  134.6829  160.0207 H   0  0  0  0  0  0  0  0  0  0  0  0  # atno 6908 bound_to 6896
  151.7210  133.3278  159.3351 H   0  0  0  0  0  0  0  0  0  0  0  0  # atno 6909 bound_to 6896
  145.4227  140.9552  143.2172 H   0  0  0  0  0  0  0  0  0  0  0  0  # atno 7974 bound_to 7965
  154.5087  140.0816  156.7946 H   0  0  0  0  0  0  0  0  0  0  0  0  # atno 8008 bound_to 7997
  155.3835  140.3429  155.4229 H   0  0  0  0  0  0  0  0  0  0  0  0  # atno 8009 bound_to 7997
  156.1547  140.1569  156.8700 H   0  0  0  0  0  0  0  0  0  0  0  0  # atno 8010 bound_to 7997
  139.9666  143.5891  152.2427 H   0  0  0  0  0  0  0  0  0  0  0  0  # atno 10167 bound_to 10162
  155.9989  130.4772  150.4746 H   0  0  0  0  0  0  0  0  0  0  0  0  # atno 10718 bound_to 10713
  154.3396  135.2754  155.2429 H   0  0  0  0  0  0  0  0  0  0  0  0  # atno 10763 bound_to 10752
  154.4705  135.5884  153.6322 H   0  0  0  0  0  0  0  0  0  0  0  0  # atno 10764 bound_to 10752
  152.9859  135.6087  154.3596 H   0  0  0  0  0  0  0  0  0  0  0  0  # atno 10765 bound_to 10752
  141.1562  133.6774  156.6658 H   0  0  0  0  0  0  0  0  0  0  0  0  # atno 11005 bound_to 11000
  144.8234  139.5751  143.6976 LP  0  0  0  0  0  0  0  0  0  0  0  0  # atno 17320 bound_to 7965
  146.2648  139.6494  142.9337 LP  0  0  0  0  0  0  0  0  0  0  0  0  # atno 17321 bound_to 7965
  139.6513  144.7661  151.2142 LP  0  0  0  0  0  0  0  0  0  0  0  0  # atno 17342 bound_to 10162
  140.7536  143.6156  150.8562 LP  0  0  0  0  0  0  0  0  0  0  0  0  # atno 17343 bound_to 10162
  157.2757  131.0596  151.2230 LP  0  0  0  0  0  0  0  0  0  0  0  0  # atno 17370 bound_to 10713
  157.3295  130.6977  149.6316 LP  0  0  0  0  0  0  0  0  0  0  0  0  # atno 17371 bound_to 10713
  140.3212  134.8006  157.4254 LP  0  0  0  0  0  0  0  0  0  0  0  0  # atno 17394 bound_to 11000
  140.1095  134.5364  155.8279 LP  0  0  0  0  0  0  0  0  0  0  0  0  # atno 17395 bound_to 11000

$$$$
