AV-unprocessed.smi:54|AV-procd|sdf|547|dock6
  -GOLD-   2262016443D 1   1.00000     0.00000
 Structure written by MMmdl.
 43 45  0  0  0  0  0  0  0  0  2 V2000
  152.1603  144.2272  160.7293 C   0  0  0  0  0  0  0  0  0  0  0  0
  151.9491  143.8794  159.2464 C   0  0  0  0  0  0  0  0  0  0  0  0
  150.5590  144.3234  158.7615 C   0  0  0  0  0  0  0  0  0  0  0  0
  152.1533  142.3771  159.0037 C   0  0  0  0  0  0  0  0  0  0  0  0
  152.5499  141.6688  159.9316 O   0  0  0  0  0  0  0  0  0  0  0  0
  151.8576  141.9497  157.7558 N   0  0  0  0  0  0  0  0  0  0  0  0
  151.9152  140.6559  157.2238 C   0  0  0  0  0  0  0  0  0  0  0  0
  151.1510  140.5018  156.1696 N   0  0  0  0  0  0  0  0  0  0  0  0
  151.2243  139.2266  155.6424 C   0  0  0  0  0  0  0  0  0  0  0  0
  151.9768  138.1762  156.0901 C   0  0  0  0  0  0  0  0  0  0  0  0
  151.7829  137.0438  155.3084 N   0  0  0  0  0  0  0  0  0  0  0  0
  150.9037  137.4754  154.4051 C   0  0  0  0  0  0  0  0  0  0  0  0
  150.5331  138.7679  154.5267 N   0  0  0  0  0  0  0  0  0  0  0  0
  149.5658  139.5485  153.6877 C   0  0  2  0  0  0  0  0  0  0  0  0
  149.4271  140.8238  154.2410 O   0  0  0  0  0  0  0  0  0  0  0  0
  148.2895  140.8466  155.0968 C   0  0  1  0  0  0  0  0  0  0  0  0
  147.8507  142.2883  155.4088 C   0  0  0  0  0  0  0  0  0  0  0  0
  147.7154  143.0229  154.2109 O   0  0  0  0  0  0  0  0  0  0  0  0
  147.2871  140.0003  154.3025 C   0  0  1  0  0  0  0  0  0  0  0  0
  146.6714  140.7799  153.2887 O   0  0  0  0  0  0  0  0  0  0  0  0
  148.1744  138.8879  153.7409 C   0  0  1  0  0  0  0  0  0  0  0  0
  147.7339  138.4102  152.4837 O   0  0  0  0  0  0  0  0  0  0  0  0
  152.8263  138.4211  157.2795 C   0  0  0  0  0  0  0  0  0  0  0  0
  153.5236  137.5074  157.7163 O   0  0  0  0  0  0  0  0  0  0  0  0
  152.7575  139.6832  157.7994 N   0  5  0  0  0  0  0  0  0  0  0  0
  150.0227  139.5873  152.6979 H   0  0  0  0  0  0  0  0  0  0  0  0
  148.5233  140.3195  156.0240 H   0  0  0  0  0  0  0  0  0  0  0  0
  146.5018  139.6001  154.9445 H   0  0  0  0  0  0  0  0  0  0  0  0
  148.1934  138.0544  154.4453 H   0  0  0  0  0  0  0  0  0  0  0  0
  153.1454  143.9099  161.0740 H   0  0  0  0  0  0  0  0  0  0  0  0
  151.4142  143.7488  161.3651 H   0  0  0  0  0  0  0  0  0  0  0  0
  152.0890  145.3032  160.8902 H   0  0  0  0  0  0  0  0  0  0  0  0
  152.6948  144.4268  158.6674 H   0  0  0  0  0  0  0  0  0  0  0  0
  150.4035  144.0638  157.7135 H   0  0  0  0  0  0  0  0  0  0  0  0
  150.4420  145.4036  158.8512 H   0  0  0  0  0  0  0  0  0  0  0  0
  149.7627  143.8559  159.3421 H   0  0  0  0  0  0  0  0  0  0  0  0
  151.4925  142.6634  157.1430 H   0  0  0  0  0  0  0  0  0  0  0  0
  150.5223  136.8269  153.6304 H   0  0  0  0  0  0  0  0  0  0  0  0
  146.9166  142.3083  155.9716 H   0  0  0  0  0  0  0  0  0  0  0  0
  148.6077  142.7888  156.0133 H   0  0  0  0  0  0  0  0  0  0  0  0
  146.8034  143.0300  153.9642 H   0  0  0  0  0  0  0  0  0  0  0  0
  145.7567  140.5486  153.2441 H   0  0  0  0  0  0  0  0  0  0  0  0
  148.1995  138.8795  151.8084 H   0  0  0  0  0  0  0  0  0  0  0  0
  1  2  1  0  0  0  0
  1 30  1  0  0  0  0
  1 31  1  0  0  0  0
  1 32  1  0  0  0  0
  2  3  1  0  0  0  0
  2  4  1  0  0  0  0
  2 33  1  0  0  0  0
  3 34  1  0  0  0  0
  3 35  1  0  0  0  0
  3 36  1  0  0  0  0
  4  5  2  0  0  0  0
  4  6  1  0  0  0  0
  6 37  1  0  0  0  0
  6  7  1  0  0  0  0
  7 25  1  0  0  0  0
  7  8  2  0  0  0  0
  8  9  1  0  0  0  0
  9 13  1  0  0  0  0
  9 10  2  0  0  0  0
 10 11  1  0  0  0  0
 10 23  1  0  0  0  0
 11 12  2  0  0  0  0
 12 13  1  0  0  0  0
 12 38  1  0  0  0  0
 13 14  1  0  0  0  0
 14 26  1  0  0  0  0
 14 21  1  0  0  0  0
 14 15  1  0  0  0  0
 15 16  1  0  0  0  0
 16 27  1  0  0  0  0
 16 17  1  0  0  0  0
 16 19  1  0  0  0  0
 17 18  1  0  0  0  0
 17 39  1  0  0  0  0
 17 40  1  0  0  0  0
 18 41  1  0  0  0  0
 19 28  1  0  0  0  0
 19 20  1  0  0  0  0
 19 21  1  0  0  0  0
 20 42  1  0  0  0  0
 21 29  1  0  0  0  0
 21 22  1  0  0  0  0
 22 43  1  0  0  0  0
 23 24  2  0  0  0  0
 23 25  1  0  0  0  0
M  CHG  1  25  -1
M  END
> <s_m_source_file>
AV-unprocessed.smi

> <i_m_source_file_index>
54

> <i_lp_mmshare_version>
43012

> <i_f3d_flags>
0

> <s_epik_input>
W0NIM11bQ0hdKFtDSDNdKUMoPU8pW05IXWMobjEpW25IXWMoPU8pYyhjMTIpbltjSF1uMltDQEBIXTNPW0NASF0oW0NIMl1bT0hdKVtDQEBIXShbT0hdKVtDQEhdM1tPSF0=

> <s_epik_cmdline>
J2VwaWtfcHl0aG9uJywgJy1waCcsICc3LjAnLCAnLXRuJywgJzgnLCAnLW1hJywgJzIwMCcsICctbWV0YWxfYmluZGluZycsICctaW1hZScsICc8aW5maWxlLm1hZT4nLCAnLW9tYWUnLCAnPG91dGZpbGUubWFlPic=

> <r_lp_tautomer_probability>
0.85571

> <r_epik_Ionization_Penalty>
1.75936

> <r_epik_Ionization_Penalty_Charging>
4.55893e-11

> <r_epik_Ionization_Penalty_Neutral>
1.75936

> <r_epik_State_Penalty>
1.72072

> <r_epik_Charging_Adjusted_Penalty>
1.72072

> <i_epik_Tot_Q>
-1

> <i_epik_Tot_abs_Q>
1

> <r_epik_Metal_State_Penalty>
0.400338

> <b_epik_Metal_Only>
1

> <s_epik_Chemistry_Notes>
This compound contains an acetal/aminal-like group ( X-CH(R)-Y where X, Y are N, S, or O) that may be acid/base labile, releasing an aldehyde.

> <s_lp_Force_Field>
OPLS_2005

> <r_lp_Energy>
64.1359

> <b_lp_Chiralities_Consistent>
1

> <s_lp_Variant>
AV-unprocessed.smi:54-19

> <Gold.Version>
5.8.1

> <Gold.Id.Protein>
6NUR|6NUR_protein|mol2

> <Gold.PLP.Fitness>
50.2959

> <Gold.PLP.PLP>
-35.2791

> <Gold.PLP.part.hbond>
-8.7352

> <Gold.PLP.part.metal>
0.0000

> <Gold.PLP.part.buried>
3.8075

> <Gold.PLP.part.nonpolar>
-31.3237

> <Gold.PLP.part.repulsive>
0.3877

> <Gold.PLP.ligand.clash>
0.0000

> <Gold.PLP.ligand.torsion>
0.2797

> <Gold.PLP.Chemscore.Hbond>
4.2340

> <Gold.PLP.Chemscore.CHOScore>
0.9400

> <Gold.PLP.Chemscore.Metal>
0.0000

> <Gold.Chemscore.Hbonds>
donor molecule, donor type, donor heavy atom, donor atom, acceptor molecule, acceptor atom, score
      L1  H    20    42       P1 10175  0.55
      L1  H    22    43       P1  7957  1.00
      P1  H  7997  8009       L1    25  0.70
      P1  H  8022  8030       L1    18  0.82
      P1  H 10752 10763       L1    11  1.00
      L1  C    12    38       P1  7948  0.48
      L1  C    12    38       P1  7949  0.48

> <Gold.PLP.Chemscore.Internal.Correction>
0.0542

> <Gold.Rescore>
     Score         DG    S(hbond)    S(metal)    S(lipo)     H(rot)  DE(clash)    DE(int)     intcor
      4.83     -12.21       2.97        0.00      60.77       4.02       3.71       3.66       ----

> <Gold.Chemscore.Fitness>
4.8322

> <Gold.Chemscore.DG>
-12.2052

> <Gold.Chemscore.ZeroCoef>
-5.4800

> <Gold.Chemscore.Hbond>
2.9654

> <Gold.Chemscore.Metal>
0.0000

> <Gold.Chemscore.Lipo>
60.7686

> <Gold.Chemscore.Internal_Hbond>
0.0000

> <Gold.Chemscore.DEClash>
3.7136

> <Gold.Chemscore.DEInternal>
3.6593

> <Gold.Chemscore.Rot>
4.0192

> <Gold.Chemscore.Internal.Correction>
   9.000000E+99

> <Gold.Chemscore.Hbonds>
donor molecule, donor type, donor heavy atom, donor atom, acceptor molecule, acceptor atom, score
      L1  H    20    42       P1 10175  0.49
      L1  H    22    43       P1  7957  0.86
      P1  H  8022  8030       L1    18  0.53
      P1  H 10752 10763       L1    11  0.81

> <Gold.Chemscore.Hbond.Weighted>
-9.9045

> <Gold.Chemscore.Metal.Weighted>
-0.0000

> <Gold.Chemscore.Lipo.Weighted>
-7.1099

> <Gold.Chemscore.Internal_Hbond.Weighted>
0.0000

> <Gold.Chemscore.DEClash.Weighted>
3.7136

> <Gold.Chemscore.DEInternal.Weighted>
3.6593

> <Gold.Chemscore.Rot.Weighted>
10.2893

> <Gold.Chemscore.Internal.Correction.Weighted>
   9.000000E+99

> <Gold.Protein.RotatedTorsions>
[ 6907 6896 6895 6894 ] final  -46.49 input  -60.11 | X-H torsion
[ 7974 7965 7964 7962 ] final  148.88 input  175.53 | X-H torsion
[ 8008 7997 7996 7995 ] final  169.35 input   59.86 | X-H torsion
[ 10167 10162 10161 10158 ] final   83.36 input  -65.29 | X-H torsion
[ 10718 10713 10712 10709 ] final -161.44 input   66.30 | X-H torsion
[ 10763 10752 10751 10750 ] final   61.78 input  -60.55 | X-H torsion
[ 11005 11000 10999 10996 ] final   57.17 input  -57.11 | X-H torsion

> <Gold.Protein.ActiveResidues>
 VAL166  LYS551  ARG553  GLY616  TRP617  ASP618  TYR619  PRO620  LYS621  CYS622 
 ASP623  PHE694  ASN695  SER759  ASP760  ASP761  ALA762  ILE779  LEU786  VAL792 
 PHE793  MET794  SER795  GLU796  ALA797  LYS798  CYS799  TRP800  GLU811  SER814 

> <Gold.Protein.RotatedAtoms>
  150.9107  134.8524  159.7423 H   0  0  0  0  0  0  0  0  0  0  0  0  # atno 6907 bound_to 6896
  152.4942  134.4363  159.9539 H   0  0  0  0  0  0  0  0  0  0  0  0  # atno 6908 bound_to 6896
  151.4406  133.3605  159.2816 H   0  0  0  0  0  0  0  0  0  0  0  0  # atno 6909 bound_to 6896
  144.8480  139.6209  143.5986 H   0  0  0  0  0  0  0  0  0  0  0  0  # atno 7974 bound_to 7965
  156.1465  140.1566  156.8838 H   0  0  0  0  0  0  0  0  0  0  0  0  # atno 8008 bound_to 7997
  154.5033  140.0819  156.7880 H   0  0  0  0  0  0  0  0  0  0  0  0  # atno 8009 bound_to 7997
  155.3978  140.3413  155.4257 H   0  0  0  0  0  0  0  0  0  0  0  0  # atno 8010 bound_to 7997
  139.9192  144.6223  150.8458 H   0  0  0  0  0  0  0  0  0  0  0  0  # atno 10167 bound_to 10162
  156.5963  130.8792  151.2903 H   0  0  0  0  0  0  0  0  0  0  0  0  # atno 10718 bound_to 10713
  152.9961  135.5488  154.6087 H   0  0  0  0  0  0  0  0  0  0  0  0  # atno 10763 bound_to 10752
  154.5413  135.2820  155.1095 H   0  0  0  0  0  0  0  0  0  0  0  0  # atno 10764 bound_to 10752
  154.2371  135.6423  153.5247 H   0  0  0  0  0  0  0  0  0  0  0  0  # atno 10765 bound_to 10752
  140.0473  134.5788  155.9307 H   0  0  0  0  0  0  0  0  0  0  0  0  # atno 11005 bound_to 11000
  146.2761  139.6756  142.9262 LP  0  0  0  0  0  0  0  0  0  0  0  0  # atno 17320 bound_to 7965
  145.4557  141.0430  143.2779 LP  0  0  0  0  0  0  0  0  0  0  0  0  # atno 17321 bound_to 7965
  140.7666  143.3309  151.2412 LP  0  0  0  0  0  0  0  0  0  0  0  0  # atno 17342 bound_to 10162
  139.6876  143.9746  152.2842 LP  0  0  0  0  0  0  0  0  0  0  0  0  # atno 17343 bound_to 10162
  157.7291  130.9666  150.1771 LP  0  0  0  0  0  0  0  0  0  0  0  0  # atno 17370 bound_to 10713
  156.2506  130.3700  149.8236 LP  0  0  0  0  0  0  0  0  0  0  0  0  # atno 17371 bound_to 10713
  141.1913  133.6571  156.5450 LP  0  0  0  0  0  0  0  0  0  0  0  0  # atno 17394 bound_to 11000
  140.3973  134.7387  157.4758 LP  0  0  0  0  0  0  0  0  0  0  0  0  # atno 17395 bound_to 11000

$$$$
