AV-unprocessed.smi:3164|AV-procd|sdf|12082|dock10
  -GOLD-   2272017513D 1   1.00000     0.00000
 Structure written by MMmdl.
 40 41  0  0  0  0  0  0  0  0  3 V2000
  143.2992  132.8495  148.9566 C   0  0  0  0  0  0  0  0  0  0  0  0
  144.5169  133.4250  149.5667 N   0  3  2  0  0  0  0  0  0  0  0  0
  145.1645  132.5017  150.5258 C   0  0  0  0  0  0  0  0  0  0  0  0
  146.4409  133.1385  151.0989 C   0  0  0  0  0  0  0  0  0  0  0  0
  146.1179  134.3865  151.7012 O   0  0  0  0  0  0  0  0  0  0  0  0
  145.5843  135.3219  150.7680 C   0  0  2  0  0  0  0  0  0  0  0  0
  145.3538  136.6483  151.5080 C   0  0  0  0  0  0  0  0  0  0  0  0
  146.4879  137.5711  151.3046 N   0  3  0  0  0  0  0  0  0  0  0  0
  146.5409  138.6982  152.2577 C   0  0  0  0  0  0  0  0  0  0  0  0
  147.1758  138.2789  153.5944 C   0  0  0  0  0  0  0  0  0  0  0  0
  148.1825  139.2914  154.1154 C   0  0  0  0  0  0  0  0  0  0  0  0
  149.4995  138.8970  154.4333 C   0  0  0  0  0  0  0  0  0  0  0  0
  150.4014  139.8767  154.8928 C   0  0  0  0  0  0  0  0  0  0  0  0
  149.9544  141.2064  155.0135 C   0  0  0  0  0  0  0  0  0  0  0  0
  148.6198  141.4992  154.6710 C   0  0  0  0  0  0  0  0  0  0  0  0
  147.7476  140.5678  154.2274 N   0  0  0  0  0  0  0  0  0  0  0  0
  144.2749  134.7472  150.1896 C   0  0  0  0  0  0  0  0  0  0  0  0
  142.5347  132.6593  149.7110 H   0  0  0  0  0  0  0  0  0  0  0  0
  143.5283  131.9077  148.4566 H   0  0  0  0  0  0  0  0  0  0  0  0
  142.8842  133.5294  148.2119 H   0  0  0  0  0  0  0  0  0  0  0  0
  144.4703  132.2663  151.3344 H   0  0  0  0  0  0  0  0  0  0  0  0
  145.4084  131.5622  150.0282 H   0  0  0  0  0  0  0  0  0  0  0  0
  146.8810  132.4856  151.8527 H   0  0  0  0  0  0  0  0  0  0  0  0
  147.1927  133.2789  150.3204 H   0  0  0  0  0  0  0  0  0  0  0  0
  146.3005  135.4825  149.9596 H   0  0  0  0  0  0  0  0  0  0  0  0
  144.4438  137.1286  151.1461 H   0  0  0  0  0  0  0  0  0  0  0  0
  145.2186  136.4622  152.5744 H   0  0  0  0  0  0  0  0  0  0  0  0
  147.3446  137.0440  151.4049 H   0  0  0  0  0  0  0  0  0  0  0  0
  147.1149  139.5112  151.8117 H   0  0  0  0  0  0  0  0  0  0  0  0
  145.5332  139.0770  152.4349 H   0  0  0  0  0  0  0  0  0  0  0  0
  146.4006  138.1228  154.3460 H   0  0  0  0  0  0  0  0  0  0  0  0
  147.6744  137.3163  153.4735 H   0  0  0  0  0  0  0  0  0  0  0  0
  149.8154  137.8694  154.3266 H   0  0  0  0  0  0  0  0  0  0  0  0
  151.4176  139.6132  155.1460 H   0  0  0  0  0  0  0  0  0  0  0  0
  150.6186  141.9837  155.3617 H   0  0  0  0  0  0  0  0  0  0  0  0
  148.2434  142.5082  154.7502 H   0  0  0  0  0  0  0  0  0  0  0  0
  143.8640  135.4306  149.4451 H   0  0  0  0  0  0  0  0  0  0  0  0
  143.5272  134.6452  150.9781 H   0  0  0  0  0  0  0  0  0  0  0  0
  146.4501  137.9421  150.3656 H   0  0  0  0  0  0  0  0  0  0  0  0
  145.1755  133.5714  148.8146 H   0  0  0  0  0  0  0  0  0  0  0  0
  1  2  1  0  0  0  0
  1 18  1  0  0  0  0
  1 19  1  0  0  0  0
  1 20  1  0  0  0  0
  2 17  1  0  0  0  0
  2  3  1  0  0  0  0
  2 40  1  0  0  0  0
  3  4  1  0  0  0  0
  3 21  1  0  0  0  0
  3 22  1  0  0  0  0
  4  5  1  0  0  0  0
  4 23  1  0  0  0  0
  4 24  1  0  0  0  0
  5  6  1  0  0  0  0
  6  7  1  0  0  0  0
  6 17  1  0  0  0  0
  6 25  1  0  0  0  0
  7  8  1  0  0  0  0
  7 26  1  0  0  0  0
  7 27  1  0  0  0  0
  8  9  1  0  0  0  0
  8 28  1  0  0  0  0
  8 39  1  0  0  0  0
  9 10  1  0  0  0  0
  9 29  1  0  0  0  0
  9 30  1  0  0  0  0
 10 11  1  0  0  0  0
 10 31  1  0  0  0  0
 10 32  1  0  0  0  0
 11 16  1  0  0  0  0
 11 12  2  0  0  0  0
 12 13  1  0  0  0  0
 12 33  1  0  0  0  0
 13 14  2  0  0  0  0
 13 34  1  0  0  0  0
 14 15  1  0  0  0  0
 14 35  1  0  0  0  0
 15 16  2  0  0  0  0
 15 36  1  0  0  0  0
 17 37  1  0  0  0  0
 17 38  1  0  0  0  0
M  CHG  1   2   1
M  CHG  1   8   1
M  END
> <s_m_source_file>
AV-unprocessed.smi

> <i_m_source_file_index>
3164

> <i_lp_mmshare_version>
43012

> <i_f3d_flags>
0

> <s_epik_input>
W0NIM11OMVtDSDJdW0NIMl1PW0NASF0oW0NIMl0xKVtDSDJdW05IXVtDSDJdW0NIMl1jMltjSF1bY0hdW2NIXVtjSF1uMg==

> <s_epik_cmdline>
J2VwaWtfcHl0aG9uJywgJy1waCcsICc3LjAnLCAnLXRuJywgJzgnLCAnLW1hJywgJzIwMCcsICctbWV0YWxfYmluZGluZycsICctaW1hZScsICc8aW5maWxlLm1hZT4nLCAnLW9tYWUnLCAnPG91dGZpbGUubWFlPic=

> <r_epik_Ionization_Penalty>
0.294944

> <r_epik_Ionization_Penalty_Charging>
0.29381

> <r_epik_Ionization_Penalty_Neutral>
0.00113372

> <r_epik_State_Penalty>
0.271365

> <r_epik_Charging_Adjusted_Penalty>
0.565175

> <i_epik_Tot_Q>
2

> <i_epik_Tot_abs_Q>
2

> <r_epik_Metal_State_Penalty>
0.271365

> <b_epik_Metal_Only>
0

> <s_lp_Force_Field>
OPLS_2005

> <r_lp_Energy>
22.5841

> <b_lp_Chiralities_Consistent>
1

> <s_lp_Variant>
AV-unprocessed.smi:3164-4

> <Gold.Version>
5.8.1

> <Gold.Id.Protein>
6NUR|6NUR_protein|mol2

> <Gold.PLP.Fitness>
44.4325

> <Gold.PLP.PLP>
-34.6564

> <Gold.PLP.part.hbond>
-2.4953

> <Gold.PLP.part.metal>
0.0000

> <Gold.PLP.part.buried>
0.3562

> <Gold.PLP.part.nonpolar>
-32.0553

> <Gold.PLP.part.repulsive>
0.5051

> <Gold.PLP.ligand.clash>
0.0000

> <Gold.PLP.ligand.torsion>
1.0216

> <Gold.PLP.Chemscore.Hbond>
2.9280

> <Gold.PLP.Chemscore.CHOScore>
1.0000

> <Gold.PLP.Chemscore.Metal>
0.0000

> <Gold.Chemscore.Hbonds>
donor molecule, donor type, donor heavy atom, donor atom, acceptor molecule, acceptor atom, score
      L1  H     2    40       P1  7921  0.99
      L1  H     8    28       P1  7948  2.00
      L1  C    15    36       P1  8028  1.00

> <Gold.PLP.Chemscore.Internal.Correction>
0.0353

> <Gold.Rescore>
     Score         DG    S(hbond)    S(metal)    S(lipo)     H(rot)  DE(clash)    DE(int)     intcor
     15.19     -16.45       1.22        0.00      94.91       1.65       0.19       1.07       ----

> <Gold.Chemscore.Fitness>
15.1917

> <Gold.Chemscore.DG>
-16.4526

> <Gold.Chemscore.ZeroCoef>
-5.4800

> <Gold.Chemscore.Hbond>
1.2217

> <Gold.Chemscore.Metal>
0.0000

> <Gold.Chemscore.Lipo>
94.9093

> <Gold.Chemscore.Internal_Hbond>
0.0000

> <Gold.Chemscore.DEClash>
0.1864

> <Gold.Chemscore.DEInternal>
1.0745

> <Gold.Chemscore.Rot>
1.6454

> <Gold.Chemscore.Internal.Correction>
   9.000000E+99

> <Gold.Chemscore.Hbonds>
donor molecule, donor type, donor heavy atom, donor atom, acceptor molecule, acceptor atom, score
      L1  H     2    40       P1  7921  0.65
      L1  H     8    28       P1  7948  1.00

> <Gold.Chemscore.Hbond.Weighted>
-4.0805

> <Gold.Chemscore.Metal.Weighted>
-0.0000

> <Gold.Chemscore.Lipo.Weighted>
-11.1044

> <Gold.Chemscore.Internal_Hbond.Weighted>
0.0000

> <Gold.Chemscore.DEClash.Weighted>
0.1864

> <Gold.Chemscore.DEInternal.Weighted>
1.0745

> <Gold.Chemscore.Rot.Weighted>
4.2122

> <Gold.Chemscore.Internal.Correction.Weighted>
   9.000000E+99

> <Gold.Protein.RotatedTorsions>
[ 6907 6896 6895 6894 ] final   44.64 input  -60.11 | X-H torsion
[ 7974 7965 7964 7962 ] final  112.69 input  175.53 | X-H torsion
[ 8008 7997 7996 7995 ] final  123.95 input   59.86 | X-H torsion
[ 10167 10162 10161 10158 ] final   96.21 input  -65.29 | X-H torsion
[ 10718 10713 10712 10709 ] final   74.53 input   66.30 | X-H torsion
[ 10763 10752 10751 10750 ] final  138.53 input  -60.55 | X-H torsion
[ 11005 11000 10999 10996 ] final  119.85 input  -57.11 | X-H torsion

> <Gold.Protein.ActiveResidues>
 VAL166  LYS551  ARG553  GLY616  TRP617  ASP618  TYR619  PRO620  LYS621  CYS622 
 ASP623  PHE694  ASN695  SER759  ASP760  ASP761  ALA762  ILE779  LEU786  VAL792 
 PHE793  MET794  SER795  GLU796  ALA797  LYS798  CYS799  TRP800  GLU811  SER814 

> <Gold.Protein.RotatedAtoms>
  152.2349  134.8286  160.0468 H   0  0  0  0  0  0  0  0  0  0  0  0  # atno 6907 bound_to 6896
  151.9021  133.3535  159.3842 H   0  0  0  0  0  0  0  0  0  0  0  0  # atno 6908 bound_to 6896
  150.7036  134.4743  159.5484 H   0  0  0  0  0  0  0  0  0  0  0  0  # atno 6909 bound_to 6896
  145.2263  139.2839  143.4191 H   0  0  0  0  0  0  0  0  0  0  0  0  # atno 7974 bound_to 7965
  156.2784  140.2751  156.1709 H   0  0  0  0  0  0  0  0  0  0  0  0  # atno 8008 bound_to 7997
  155.0655  140.0387  157.2609 H   0  0  0  0  0  0  0  0  0  0  0  0  # atno 8009 bound_to 7997
  154.7082  140.2663  155.6660 H   0  0  0  0  0  0  0  0  0  0  0  0  # atno 8010 bound_to 7997
  139.7916  144.6850  150.9885 H   0  0  0  0  0  0  0  0  0  0  0  0  # atno 10167 bound_to 10162
  157.6596  130.9682  150.1224 H   0  0  0  0  0  0  0  0  0  0  0  0  # atno 10718 bound_to 10713
  153.8911  135.3033  155.3447 H   0  0  0  0  0  0  0  0  0  0  0  0  # atno 10763 bound_to 10752
  154.7716  135.4883  153.9662 H   0  0  0  0  0  0  0  0  0  0  0  0  # atno 10764 bound_to 10752
  153.1297  135.6801  153.9297 H   0  0  0  0  0  0  0  0  0  0  0  0  # atno 10765 bound_to 10752
  139.9162  134.9631  156.7718 H   0  0  0  0  0  0  0  0  0  0  0  0  # atno 11005 bound_to 11000
  146.3364  140.2584  142.8601 LP  0  0  0  0  0  0  0  0  0  0  0  0  # atno 17320 bound_to 7965
  144.9718  140.8376  143.5450 LP  0  0  0  0  0  0  0  0  0  0  0  0  # atno 17321 bound_to 7965
  140.7820  143.4375  151.0602 LP  0  0  0  0  0  0  0  0  0  0  0  0  # atno 17342 bound_to 10162
  139.8051  143.8029  152.3166 LP  0  0  0  0  0  0  0  0  0  0  0  0  # atno 17343 bound_to 10162
  156.2092  130.3665  149.8691 LP  0  0  0  0  0  0  0  0  0  0  0  0  # atno 17370 bound_to 10713
  156.6574  130.8768  151.3541 LP  0  0  0  0  0  0  0  0  0  0  0  0  # atno 17371 bound_to 10713
  140.6615  133.9641  155.7807 LP  0  0  0  0  0  0  0  0  0  0  0  0  # atno 17394 bound_to 11000
  141.0640  134.0304  157.3619 LP  0  0  0  0  0  0  0  0  0  0  0  0  # atno 17395 bound_to 11000

$$$$
