AV-unprocessed.smi:3229|AV-procd|sdf|12328|dock2
  -GOLD-   2272018173D 1   1.00000     0.00000
 Structure written by MMmdl.
 35 36  0  0  0  0  0  0  0  0  1 V2000
  153.5272  142.6546  162.2261 C   0  0  0  0  0  0  0  0  0  0  0  0
  152.8231  144.0135  162.1436 C   0  0  0  0  0  0  0  0  0  0  0  0
  152.3455  144.3470  160.7687 C   0  0  0  0  0  0  0  0  0  0  0  0
  151.8562  145.5491  160.3202 C   0  0  0  0  0  0  0  0  0  0  0  0
  151.4881  145.5423  158.9729 N   0  0  0  0  0  0  0  0  0  0  0  0
  151.7011  144.3586  158.3920 C   0  0  0  0  0  0  0  0  0  0  0  0
  151.3672  144.0623  156.9652 C   0  0  0  0  0  0  0  0  0  0  0  0
  151.3285  142.5600  156.6399 C   0  0  0  0  0  0  0  0  0  0  0  0
  150.0511  142.1678  156.0578 N   0  0  0  0  0  0  0  0  0  0  0  0
  149.8603  141.0714  155.3110 C   0  0  0  0  0  0  0  0  0  0  0  0
  150.7599  140.2737  155.0446 O   0  0  0  0  0  0  0  0  0  0  0  0
  148.4342  140.8401  154.8006 C   0  0  1  0  0  0  0  0  0  0  0  0
  147.3879  140.6458  155.9023 C   0  0  0  0  0  0  0  0  0  0  0  0
  146.1299  141.1150  155.2069 C   0  0  0  0  0  0  0  0  0  0  0  0
  146.6441  142.2854  154.3736 C   0  0  0  0  0  0  0  0  0  0  0  0
  148.0074  141.9920  154.0777 O   0  0  0  0  0  0  0  0  0  0  0  0
  152.3551  143.1541  159.4949 S   0  0  0  0  0  0  0  0  0  0  0  0
  153.8523  142.4467  163.2457 H   0  0  0  0  0  0  0  0  0  0  0  0
  154.4081  142.6259  161.5839 H   0  0  0  0  0  0  0  0  0  0  0  0
  152.8612  141.8480  161.9178 H   0  0  0  0  0  0  0  0  0  0  0  0
  151.9794  144.0232  162.8346 H   0  0  0  0  0  0  0  0  0  0  0  0
  153.5029  144.7934  162.4879 H   0  0  0  0  0  0  0  0  0  0  0  0
  151.7339  146.4579  160.8910 H   0  0  0  0  0  0  0  0  0  0  0  0
  150.4043  144.5175  156.7296 H   0  0  0  0  0  0  0  0  0  0  0  0
  152.1023  144.5556  156.3289 H   0  0  0  0  0  0  0  0  0  0  0  0
  152.1344  142.3111  155.9480 H   0  0  0  0  0  0  0  0  0  0  0  0
  151.4982  141.9825  157.5500 H   0  0  0  0  0  0  0  0  0  0  0  0
  149.2581  142.7653  156.2433 H   0  0  0  0  0  0  0  0  0  0  0  0
  148.4053  139.9877  154.1192 H   0  0  0  0  0  0  0  0  0  0  0  0
  147.3176  139.6109  156.2383 H   0  0  0  0  0  0  0  0  0  0  0  0
  147.5863  141.2750  156.7715 H   0  0  0  0  0  0  0  0  0  0  0  0
  145.7493  140.3280  154.5544 H   0  0  0  0  0  0  0  0  0  0  0  0
  145.3365  141.3990  155.8986 H   0  0  0  0  0  0  0  0  0  0  0  0
  146.0621  142.4340  153.4638 H   0  0  0  0  0  0  0  0  0  0  0  0
  146.6087  143.2087  154.9527 H   0  0  0  0  0  0  0  0  0  0  0  0
  1  2  1  0  0  0  0
  1 18  1  0  0  0  0
  1 19  1  0  0  0  0
  1 20  1  0  0  0  0
  2  3  1  0  0  0  0
  2 21  1  0  0  0  0
  2 22  1  0  0  0  0
  3 17  1  0  0  0  0
  3  4  2  0  0  0  0
  4  5  1  0  0  0  0
  4 23  1  0  0  0  0
  5  6  2  0  0  0  0
  6  7  1  0  0  0  0
  6 17  1  0  0  0  0
  7  8  1  0  0  0  0
  7 24  1  0  0  0  0
  7 25  1  0  0  0  0
  8  9  1  0  0  0  0
  8 26  1  0  0  0  0
  8 27  1  0  0  0  0
  9 10  1  0  0  0  0
  9 28  1  0  0  0  0
 10 11  2  0  0  0  0
 10 12  1  0  0  0  0
 12 16  1  0  0  0  0
 12 13  1  0  0  0  0
 12 29  1  0  0  0  0
 13 14  1  0  0  0  0
 13 30  1  0  0  0  0
 13 31  1  0  0  0  0
 14 15  1  0  0  0  0
 14 32  1  0  0  0  0
 14 33  1  0  0  0  0
 15 16  1  0  0  0  0
 15 34  1  0  0  0  0
 15 35  1  0  0  0  0
M  END
> <s_m_source_file>
AV-unprocessed.smi

> <i_m_source_file_index>
3229

> <i_lp_mmshare_version>
43012

> <i_f3d_flags>
0

> <s_epik_input>
W0NIM11bQ0gyXWMxW2NIXW5jKHMxKVtDSDJdW0NIMl1bTkhdQyg9TylbQ0BASF0yW0NIMl1bQ0gyXVtDSDJdTzI=

> <s_epik_cmdline>
J2VwaWtfcHl0aG9uJywgJy1waCcsICc3LjAnLCAnLXRuJywgJzgnLCAnLW1hJywgJzIwMCcsICctbWV0YWxfYmluZGluZycsICctaW1hZScsICc8aW5maWxlLm1hZT4nLCAnLW9tYWUnLCAnPG91dGZpbGUubWFlPic=

> <r_epik_Ionization_Penalty>
0.000508191

> <r_epik_Ionization_Penalty_Charging>
0

> <r_epik_Ionization_Penalty_Neutral>
0.000508191

> <r_epik_State_Penalty>
0.000316483

> <r_epik_Charging_Adjusted_Penalty>
0.000316483

> <i_epik_Tot_Q>
0

> <i_epik_Tot_abs_Q>
0

> <r_epik_Metal_State_Penalty>
-0

> <b_epik_Metal_Only>
0

> <s_lp_Force_Field>
OPLS_2005

> <r_lp_Energy>
10.5911

> <b_lp_Chiralities_Consistent>
1

> <s_lp_Variant>
AV-unprocessed.smi:3229-2

> <Gold.Version>
5.8.1

> <Gold.Id.Protein>
6NUR|6NUR_protein|mol2

> <Gold.PLP.Fitness>
46.3987

> <Gold.PLP.PLP>
-41.7207

> <Gold.PLP.part.hbond>
-4.0000

> <Gold.PLP.part.metal>
0.0000

> <Gold.PLP.part.buried>
-2.0954

> <Gold.PLP.part.nonpolar>
-34.3808

> <Gold.PLP.part.repulsive>
0.5018

> <Gold.PLP.ligand.clash>
0.0000

> <Gold.PLP.ligand.torsion>
0.8384

> <Gold.PLP.Chemscore.Hbond>
2.0976

> <Gold.PLP.Chemscore.CHOScore>
0.0000

> <Gold.PLP.Chemscore.Metal>
0.0000

> <Gold.Chemscore.Hbonds>
donor molecule, donor type, donor heavy atom, donor atom, acceptor molecule, acceptor atom, score
      L1  H     9    28       P1  8028  0.54
      P1  H  7989  7998       L1    11  1.00

> <Gold.PLP.Chemscore.Internal.Correction>
0.0621

> <Gold.Rescore>
     Score         DG    S(hbond)    S(metal)    S(lipo)     H(rot)  DE(clash)    DE(int)     intcor
     16.81     -19.72       1.33        0.00     118.76       1.60       1.87       1.04       ----

> <Gold.Chemscore.Fitness>
16.8087

> <Gold.Chemscore.DG>
-19.7195

> <Gold.Chemscore.ZeroCoef>
-5.4800

> <Gold.Chemscore.Hbond>
1.3327

> <Gold.Chemscore.Metal>
0.0000

> <Gold.Chemscore.Lipo>
118.7557

> <Gold.Chemscore.Internal_Hbond>
0.0000

> <Gold.Chemscore.DEClash>
1.8699

> <Gold.Chemscore.DEInternal>
1.0409

> <Gold.Chemscore.Rot>
1.6040

> <Gold.Chemscore.Internal.Correction>
   9.000000E+99

> <Gold.Chemscore.Hbonds>
donor molecule, donor type, donor heavy atom, donor atom, acceptor molecule, acceptor atom, score
      L1  H     9    28       P1  8028  0.54
      P1  H  7989  7998       L1    11  0.65

> <Gold.Chemscore.Hbond.Weighted>
-4.4513

> <Gold.Chemscore.Metal.Weighted>
-0.0000

> <Gold.Chemscore.Lipo.Weighted>
-13.8944

> <Gold.Chemscore.Internal_Hbond.Weighted>
0.0000

> <Gold.Chemscore.DEClash.Weighted>
1.8699

> <Gold.Chemscore.DEInternal.Weighted>
1.0409

> <Gold.Chemscore.Rot.Weighted>
4.1062

> <Gold.Chemscore.Internal.Correction.Weighted>
   9.000000E+99

> <Gold.Protein.RotatedTorsions>
[ 6907 6896 6895 6894 ] final  -90.68 input  -60.11 | X-H torsion
[ 7974 7965 7964 7962 ] final  133.53 input  175.53 | X-H torsion
[ 8008 7997 7996 7995 ] final   41.07 input   59.86 | X-H torsion
[ 10167 10162 10161 10158 ] final   61.73 input  -65.29 | X-H torsion
[ 10718 10713 10712 10709 ] final  143.20 input   66.30 | X-H torsion
[ 10763 10752 10751 10750 ] final  -60.95 input  -60.55 | X-H torsion
[ 11005 11000 10999 10996 ] final   98.43 input  -57.11 | X-H torsion

> <Gold.Protein.ActiveResidues>
 VAL166  LYS551  ARG553  GLY616  TRP617  ASP618  TYR619  PRO620  LYS621  CYS622 
 ASP623  PHE694  ASN695  SER759  ASP760  ASP761  ALA762  ILE779  LEU786  VAL792 
 PHE793  MET794  SER795  GLU796  ALA797  LYS798  CYS799  TRP800  GLU811  SER814 

> <Gold.Protein.RotatedAtoms>
  150.6884  134.2394  159.4466 H   0  0  0  0  0  0  0  0  0  0  0  0  # atno 6907 bound_to 6896
  152.0339  134.9749  160.0582 H   0  0  0  0  0  0  0  0  0  0  0  0  # atno 6908 bound_to 6896
  152.1277  133.4355  159.4743 H   0  0  0  0  0  0  0  0  0  0  0  0  # atno 6909 bound_to 6896
  144.9856  139.4459  143.5365 H   0  0  0  0  0  0  0  0  0  0  0  0  # atno 7974 bound_to 7965
  155.2635  140.3361  155.4271 H   0  0  0  0  0  0  0  0  0  0  0  0  # atno 8008 bound_to 7997
  156.2164  140.1791  156.7621 H   0  0  0  0  0  0  0  0  0  0  0  0  # atno 8009 bound_to 7997
  154.5760  140.0662  156.9019 H   0  0  0  0  0  0  0  0  0  0  0  0  # atno 8010 bound_to 7997
  140.1516  144.4457  150.6756 H   0  0  0  0  0  0  0  0  0  0  0  0  # atno 10167 bound_to 10162
  157.3717  131.0980  151.0822 H   0  0  0  0  0  0  0  0  0  0  0  0  # atno 10718 bound_to 10713
  154.2772  135.6279  153.5333 H   0  0  0  0  0  0  0  0  0  0  0  0  # atno 10763 bound_to 10752
  152.9871  135.5624  154.5536 H   0  0  0  0  0  0  0  0  0  0  0  0  # atno 10764 bound_to 10752
  154.5118  135.2877  155.1311 H   0  0  0  0  0  0  0  0  0  0  0  0  # atno 10765 bound_to 10752
  139.8772  134.9048  156.4455 H   0  0  0  0  0  0  0  0  0  0  0  0  # atno 11005 bound_to 11000
  146.3419  139.9155  142.8774 LP  0  0  0  0  0  0  0  0  0  0  0  0  # atno 17320 bound_to 7965
  145.2359  140.9991  143.3964 LP  0  0  0  0  0  0  0  0  0  0  0  0  # atno 17321 bound_to 7965
  140.6699  143.2282  151.5651 LP  0  0  0  0  0  0  0  0  0  0  0  0  # atno 17342 bound_to 10162
  139.5423  144.2614  152.1375 LP  0  0  0  0  0  0  0  0  0  0  0  0  # atno 17343 bound_to 10162
  157.1924  130.6358  149.5709 LP  0  0  0  0  0  0  0  0  0  0  0  0  # atno 17370 bound_to 10713
  155.9757  130.4718  150.6476 LP  0  0  0  0  0  0  0  0  0  0  0  0  # atno 17371 bound_to 10713
  140.8969  133.7807  155.9635 LP  0  0  0  0  0  0  0  0  0  0  0  0  # atno 17394 bound_to 11000
  140.8693  134.2746  157.5198 LP  0  0  0  0  0  0  0  0  0  0  0  0  # atno 17395 bound_to 11000

$$$$
