AV-unprocessed.smi:1389|AV-procd|sdf|5655|dock1
  -GOLD-   22720 5273D 1   1.00000     0.00000
 Structure written by MMmdl.
 52 54  0  0  0  0  0  0  0  0  4 V2000
  150.0210  133.7544  154.9648 C   0  0  0  0  0  0  0  0  0  0  0  0
  148.8289  134.7394  155.0178 C   0  0  1  0  0  0  0  0  0  0  0  0
  149.2520  136.2059  155.3068 C   0  0  0  0  0  0  0  0  0  0  0  0
  150.1155  136.2747  156.4905 N   0  5  0  0  0  0  0  0  0  0  0  0
  150.7273  137.4032  156.9395 C   0  0  0  0  0  0  0  0  0  0  0  0
  151.7746  137.4870  157.5911 O   0  0  0  0  0  0  0  0  0  0  0  0
  150.0598  138.5150  156.5872 N   0  0  0  0  0  0  0  0  0  0  0  0
  150.4367  139.8701  156.7983 C   0  0  0  0  0  0  0  0  0  0  0  0
  151.3530  140.2196  157.8222 C   0  0  0  0  0  0  0  0  0  0  0  0
  151.6554  141.5733  158.0615 C   0  0  0  0  0  0  0  0  0  0  0  0
  151.0214  142.5585  157.2848 C   0  0  0  0  0  0  0  0  0  0  0  0
  150.1424  142.1939  156.3284 N   0  3  0  0  0  0  0  0  0  0  0  0
  149.8222  140.9074  156.0399 C   0  0  0  0  0  0  0  0  0  0  0  0
  148.8934  140.6728  155.0007 N   0  0  0  0  0  0  0  0  0  0  0  0
  147.7020  139.8670  155.2420 C   0  0  0  0  0  0  0  0  0  0  0  0
  146.7882  140.1448  154.0515 C   0  0  0  0  0  0  0  0  0  0  0  0
  147.0789  141.6121  153.7508 C   0  0  0  0  0  0  0  0  0  0  0  0
  148.5663  141.7627  154.0859 C   0  0  0  0  0  0  0  0  0  0  0  0
  147.9446  134.6603  153.8130 N   0  3  0  0  0  0  0  0  0  0  0  0
  147.7996  133.3237  153.1737 C   0  0  0  0  0  0  0  0  0  0  0  0
  147.0149  133.4543  151.8589 C   0  0  0  0  0  0  0  0  0  0  0  0
  145.7432  134.0355  152.1223 O   0  0  0  0  0  0  0  0  0  0  0  0
  145.8568  135.3439  152.6692 C   0  0  0  0  0  0  0  0  0  0  0  0
  146.6148  135.2880  154.0063 C   0  0  0  0  0  0  0  0  0  0  0  0
  150.5665  133.7306  155.9101 H   0  0  0  0  0  0  0  0  0  0  0  0
  150.7401  134.0011  154.1816 H   0  0  0  0  0  0  0  0  0  0  0  0
  149.6739  132.7373  154.7808 H   0  0  0  0  0  0  0  0  0  0  0  0
  148.2317  134.4321  155.8779 H   0  0  0  0  0  0  0  0  0  0  0  0
  149.7388  136.6201  154.4229 H   0  0  0  0  0  0  0  0  0  0  0  0
  148.3547  136.8086  155.4480 H   0  0  0  0  0  0  0  0  0  0  0  0
  149.2700  138.3699  155.9754 H   0  0  0  0  0  0  0  0  0  0  0  0
  151.8131  139.4646  158.4420 H   0  0  0  0  0  0  0  0  0  0  0  0
  152.3535  141.8507  158.8377 H   0  0  0  0  0  0  0  0  0  0  0  0
  151.1853  143.6201  157.4005 H   0  0  0  0  0  0  0  0  0  0  0  0
  147.9476  138.8078  155.3254 H   0  0  0  0  0  0  0  0  0  0  0  0
  147.2079  140.1806  156.1625 H   0  0  0  0  0  0  0  0  0  0  0  0
  147.0813  139.5263  153.2019 H   0  0  0  0  0  0  0  0  0  0  0  0
  145.7371  139.9511  154.2675 H   0  0  0  0  0  0  0  0  0  0  0  0
  146.8455  141.8922  152.7233 H   0  0  0  0  0  0  0  0  0  0  0  0
  146.4874  142.2447  154.4142 H   0  0  0  0  0  0  0  0  0  0  0  0
  148.7783  142.7422  154.5170 H   0  0  0  0  0  0  0  0  0  0  0  0
  149.1656  141.6532  153.1812 H   0  0  0  0  0  0  0  0  0  0  0  0
  148.7779  132.8867  152.9720 H   0  0  0  0  0  0  0  0  0  0  0  0
  147.2716  132.6412  153.8407 H   0  0  0  0  0  0  0  0  0  0  0  0
  147.5640  134.0581  151.1344 H   0  0  0  0  0  0  0  0  0  0  0  0
  146.8678  132.4720  151.4099 H   0  0  0  0  0  0  0  0  0  0  0  0
  146.3649  136.0021  151.9624 H   0  0  0  0  0  0  0  0  0  0  0  0
  144.8573  135.7515  152.8210 H   0  0  0  0  0  0  0  0  0  0  0  0
  146.0437  134.7223  154.7438 H   0  0  0  0  0  0  0  0  0  0  0  0
  146.7316  136.3006  154.3946 H   0  0  0  0  0  0  0  0  0  0  0  0
  148.4142  135.2442  153.1342 H   0  0  0  0  0  0  0  0  0  0  0  0
  149.6976  142.9316  155.7824 H   0  0  0  0  0  0  0  0  0  0  0  0
  1  2  1  0  0  0  0
  1 25  1  0  0  0  0
  1 26  1  0  0  0  0
  1 27  1  0  0  0  0
  2  3  1  0  0  0  0
  2 19  1  0  0  0  0
  2 28  1  0  0  0  0
  3  4  1  0  0  0  0
  3 29  1  0  0  0  0
  3 30  1  0  0  0  0
  4  5  1  0  0  0  0
  5  6  2  0  0  0  0
  5  7  1  0  0  0  0
  7  8  1  0  0  0  0
  7 31  1  0  0  0  0
  8 13  1  0  0  0  0
  8  9  2  0  0  0  0
  9 10  1  0  0  0  0
  9 32  1  0  0  0  0
 10 11  2  0  0  0  0
 10 33  1  0  0  0  0
 11 12  1  0  0  0  0
 11 34  1  0  0  0  0
 12 13  2  0  0  0  0
 12 52  1  0  0  0  0
 13 14  1  0  0  0  0
 14 18  1  0  0  0  0
 14 15  1  0  0  0  0
 15 16  1  0  0  0  0
 15 35  1  0  0  0  0
 15 36  1  0  0  0  0
 16 17  1  0  0  0  0
 16 37  1  0  0  0  0
 16 38  1  0  0  0  0
 17 18  1  0  0  0  0
 17 39  1  0  0  0  0
 17 40  1  0  0  0  0
 18 41  1  0  0  0  0
 18 42  1  0  0  0  0
 19 24  1  0  0  0  0
 19 20  1  0  0  0  0
 19 51  1  0  0  0  0
 20 21  1  0  0  0  0
 20 43  1  0  0  0  0
 20 44  1  0  0  0  0
 21 22  1  0  0  0  0
 21 45  1  0  0  0  0
 21 46  1  0  0  0  0
 22 23  1  0  0  0  0
 23 24  1  0  0  0  0
 23 47  1  0  0  0  0
 23 48  1  0  0  0  0
 24 49  1  0  0  0  0
 24 50  1  0  0  0  0
M  CHG  1   4  -1
M  CHG  1  12   1
M  CHG  1  19   1
M  END
> <s_m_source_file>
AV-unprocessed.smi

> <i_m_source_file_index>
1389

> <i_lp_mmshare_version>
43012

> <i_f3d_flags>
0

> <s_epik_input>
W0NIMl0xW0NIMl1PW0NIMl1bQ0gyXU4xW0NASF0oW0NIM10pW0NIMl1bTkhdQyg9TylbTkhdYzJbY0hdW2NIXVtjSF1uYzJOM1tDSDJdW0NIMl1bQ0gyXVtDSDJdMw==

> <s_epik_cmdline>
J2VwaWtfcHl0aG9uJywgJy1waCcsICc3LjAnLCAnLXRuJywgJzgnLCAnLW1hJywgJzIwMCcsICctbWV0YWxfYmluZGluZycsICctaW1hZScsICc8aW5maWxlLm1hZT4nLCAnLW9tYWUnLCAnPG91dGZpbGUubWFlPic=

> <r_lp_tautomer_probability>
0.999994

> <r_epik_Ionization_Penalty>
8.58362

> <r_epik_Ionization_Penalty_Charging>
8.58361

> <r_epik_Ionization_Penalty_Neutral>
3.55275e-06

> <r_epik_State_Penalty>
8.57766

> <r_epik_Charging_Adjusted_Penalty>
17.1613

> <i_epik_Tot_Q>
1

> <i_epik_Tot_abs_Q>
3

> <r_epik_Metal_State_Penalty>
4.57399

> <b_epik_Metal_Only>
1

> <s_lp_Force_Field>
OPLS_2005

> <r_lp_Energy>
47.3553

> <b_lp_Chiralities_Consistent>
1

> <s_lp_Variant>
AV-unprocessed.smi:1389-10

> <Gold.Version>
5.8.1

> <Gold.Id.Protein>
6NUR|6NUR_protein|mol2

> <Gold.PLP.Fitness>
41.9143

> <Gold.PLP.PLP>
-30.5605

> <Gold.PLP.part.hbond>
-2.0000

> <Gold.PLP.part.metal>
0.0000

> <Gold.PLP.part.buried>
-3.9058

> <Gold.PLP.part.nonpolar>
-24.8929

> <Gold.PLP.part.repulsive>
0.2920

> <Gold.PLP.ligand.clash>
0.0000

> <Gold.PLP.ligand.torsion>
0.8055

> <Gold.PLP.Chemscore.Hbond>
4.0000

> <Gold.PLP.Chemscore.CHOScore>
0.0000

> <Gold.PLP.Chemscore.Metal>
0.0000

> <Gold.Chemscore.Hbonds>
donor molecule, donor type, donor heavy atom, donor atom, acceptor molecule, acceptor atom, score
      L1  H    12    52       P1  8028  2.00
      L1  H    19    51       P1  7948  2.00

> <Gold.PLP.Chemscore.Internal.Correction>
0.9648

> <Gold.Rescore>
     Score         DG    S(hbond)    S(metal)    S(lipo)     H(rot)  DE(clash)    DE(int)     intcor
     13.66     -16.16       1.82        0.00      75.02       1.63       0.01       2.49       ----

> <Gold.Chemscore.Fitness>
13.6556

> <Gold.Chemscore.DG>
-16.1601

> <Gold.Chemscore.ZeroCoef>
-5.4800

> <Gold.Chemscore.Hbond>
1.8195

> <Gold.Chemscore.Metal>
0.0000

> <Gold.Chemscore.Lipo>
75.0234

> <Gold.Chemscore.Internal_Hbond>
0.0000

> <Gold.Chemscore.DEClash>
0.0149

> <Gold.Chemscore.DEInternal>
2.4897

> <Gold.Chemscore.Rot>
1.6307

> <Gold.Chemscore.Internal.Correction>
   9.000000E+99

> <Gold.Chemscore.Hbonds>
donor molecule, donor type, donor heavy atom, donor atom, acceptor molecule, acceptor atom, score
      L1  H    12    52       P1  8028  0.94
      L1  H    19    51       P1  7948  0.94

> <Gold.Chemscore.Hbond.Weighted>
-6.0770

> <Gold.Chemscore.Metal.Weighted>
-0.0000

> <Gold.Chemscore.Lipo.Weighted>
-8.7777

> <Gold.Chemscore.Internal_Hbond.Weighted>
0.0000

> <Gold.Chemscore.DEClash.Weighted>
0.0149

> <Gold.Chemscore.DEInternal.Weighted>
2.4897

> <Gold.Chemscore.Rot.Weighted>
4.1746

> <Gold.Chemscore.Internal.Correction.Weighted>
   9.000000E+99

> <Gold.Protein.RotatedTorsions>
[ 6907 6896 6895 6894 ] final   11.26 input  -60.11 | X-H torsion
[ 7974 7965 7964 7962 ] final   57.34 input  175.53 | X-H torsion
[ 8008 7997 7996 7995 ] final  117.41 input   59.86 | X-H torsion
[ 10167 10162 10161 10158 ] final  157.69 input  -65.29 | X-H torsion
[ 10718 10713 10712 10709 ] final   -1.29 input   66.30 | X-H torsion
[ 10763 10752 10751 10750 ] final -175.46 input  -60.55 | X-H torsion
[ 11005 11000 10999 10996 ] final   59.91 input  -57.11 | X-H torsion

> <Gold.Protein.ActiveResidues>
 VAL166  LYS551  ARG553  GLY616  TRP617  ASP618  TYR619  PRO620  LYS621  CYS622 
 ASP623  PHE694  ASN695  SER759  ASP760  ASP761  ALA762  ILE779  LEU786  VAL792 
 PHE793  MET794  SER795  GLU796  ALA797  LYS798  CYS799  TRP800  GLU811  SER814 

> <Gold.Protein.RotatedAtoms>
  151.7515  135.0831  160.0331 H   0  0  0  0  0  0  0  0  0  0  0  0  # atno 6907 bound_to 6896
  152.3414  133.6066  159.5887 H   0  0  0  0  0  0  0  0  0  0  0  0  # atno 6908 bound_to 6896
  150.7481  133.9633  159.3564 H   0  0  0  0  0  0  0  0  0  0  0  0  # atno 6909 bound_to 6896
  145.9301  139.3801  143.0426 H   0  0  0  0  0  0  0  0  0  0  0  0  # atno 7974 bound_to 7965
  156.2493  140.2897  156.0675 H   0  0  0  0  0  0  0  0  0  0  0  0  # atno 8008 bound_to 7997
  155.1708  140.0402  157.2879 H   0  0  0  0  0  0  0  0  0  0  0  0  # atno 8009 bound_to 7997
  154.6327  140.2503  155.7421 H   0  0  0  0  0  0  0  0  0  0  0  0  # atno 8010 bound_to 7997
  139.4824  144.4894  151.8330 H   0  0  0  0  0  0  0  0  0  0  0  0  # atno 10167 bound_to 10162
  156.8078  130.5414  149.5713 H   0  0  0  0  0  0  0  0  0  0  0  0  # atno 10718 bound_to 10713
  154.5841  135.2839  155.0702 H   0  0  0  0  0  0  0  0  0  0  0  0  # atno 10763 bound_to 10752
  154.2027  135.6421  153.5095 H   0  0  0  0  0  0  0  0  0  0  0  0  # atno 10764 bound_to 10752
  153.0098  135.5473  154.6505 H   0  0  0  0  0  0  0  0  0  0  0  0  # atno 10765 bound_to 10752
  140.0270  134.6068  155.9560 H   0  0  0  0  0  0  0  0  0  0  0  0  # atno 11005 bound_to 11000
  145.8437  140.9567  143.0786 LP  0  0  0  0  0  0  0  0  0  0  0  0  # atno 17320 bound_to 7965
  144.6764  140.0317  143.7482 LP  0  0  0  0  0  0  0  0  0  0  0  0  # atno 17321 bound_to 7965
  140.4377  144.2030  150.5890 LP  0  0  0  0  0  0  0  0  0  0  0  0  # atno 17342 bound_to 10162
  140.4715  143.2411  151.9082 LP  0  0  0  0  0  0  0  0  0  0  0  0  # atno 17343 bound_to 10162
  156.1062  130.6006  150.9975 LP  0  0  0  0  0  0  0  0  0  0  0  0  # atno 17370 bound_to 10713
  157.6521  131.0895  150.8028 LP  0  0  0  0  0  0  0  0  0  0  0  0  # atno 17371 bound_to 10713
  141.1808  133.6546  156.5014 LP  0  0  0  0  0  0  0  0  0  0  0  0  # atno 17394 bound_to 11000
  140.4290  134.7119  157.4931 LP  0  0  0  0  0  0  0  0  0  0  0  0  # atno 17395 bound_to 11000

$$$$
