AV-unprocessed.smi:3150|AV-procd|sdf|12008|dock6
  -GOLD-   2272017413D 1   1.00000     0.00000
 Structure written by MMmdl.
 33 34  0  0  0  0  0  0  0  0  1 V2000
  153.0159  137.6198  156.3941 C   0  0  0  0  0  0  0  0  0  0  0  0
  152.0720  138.6595  157.0166 C   0  0  1  0  0  0  0  0  0  0  0  0
  152.8600  139.5259  157.8286 O   0  0  0  0  0  0  0  0  0  0  0  0
  152.1255  140.4375  158.6366 C   0  0  0  0  0  0  0  0  0  0  0  0
  153.1011  141.3075  159.3991 C   0  0  0  0  0  0  0  0  0  0  0  0
  152.6309  142.1235  160.5820 C   0  0  0  0  0  0  0  0  0  0  0  0
  153.0287  142.8147  159.3028 C   0  0  0  0  0  0  0  0  0  0  0  0
  151.3324  139.4654  155.9362 C   0  0  0  0  0  0  0  0  0  0  0  0
  151.9730  140.1616  155.1479 O   0  0  0  0  0  0  0  0  0  0  0  0
  149.9908  139.3565  155.9459 N   0  0  0  0  0  0  0  0  0  0  0  0
  149.0431  139.9825  155.0901 C   0  0  0  0  0  0  0  0  0  0  0  0
  148.8555  141.3257  155.0494 N   0  0  0  0  0  0  0  0  0  0  0  0
  147.9360  141.8412  154.2074 C   0  0  0  0  0  0  0  0  0  0  0  0
  147.1463  141.0508  153.3535 C   0  0  0  0  0  0  0  0  0  0  0  0
  147.3287  139.6574  153.3848 C   0  0  0  0  0  0  0  0  0  0  0  0
  148.2877  139.1129  154.2625 C   0  0  0  0  0  0  0  0  0  0  0  0
  148.4690  137.7579  154.2983 O   0  0  0  0  0  0  0  0  0  0  0  0
  152.4748  136.9346  155.7407 H   0  0  0  0  0  0  0  0  0  0  0  0
  153.4975  137.0231  157.1691 H   0  0  0  0  0  0  0  0  0  0  0  0
  153.8042  138.0924  155.8069 H   0  0  0  0  0  0  0  0  0  0  0  0
  151.3515  138.1313  157.6445 H   0  0  0  0  0  0  0  0  0  0  0  0
  151.4683  141.0691  158.0374 H   0  0  0  0  0  0  0  0  0  0  0  0
  151.5067  139.8936  159.3511 H   0  0  0  0  0  0  0  0  0  0  0  0
  154.0971  140.8777  159.4888 H   0  0  0  0  0  0  0  0  0  0  0  0
  151.5710  142.0985  160.8283 H   0  0  0  0  0  0  0  0  0  0  0  0
  153.3050  142.2117  161.4315 H   0  0  0  0  0  0  0  0  0  0  0  0
  153.9689  143.3621  159.2981 H   0  0  0  0  0  0  0  0  0  0  0  0
  152.2351  143.2465  158.6960 H   0  0  0  0  0  0  0  0  0  0  0  0
  149.5964  138.7556  156.6550 H   0  0  0  0  0  0  0  0  0  0  0  0
  147.8277  142.9157  154.2145 H   0  0  0  0  0  0  0  0  0  0  0  0
  146.4209  141.5018  152.6931 H   0  0  0  0  0  0  0  0  0  0  0  0
  146.7408  139.0168  152.7439 H   0  0  0  0  0  0  0  0  0  0  0  0
  148.5123  137.3671  153.4388 H   0  0  0  0  0  0  0  0  0  0  0  0
  1  2  1  0  0  0  0
  1 18  1  0  0  0  0
  1 19  1  0  0  0  0
  1 20  1  0  0  0  0
  2  3  1  0  0  0  0
  2  8  1  0  0  0  0
  2 21  1  0  0  0  0
  3  4  1  0  0  0  0
  4  5  1  0  0  0  0
  4 22  1  0  0  0  0
  4 23  1  0  0  0  0
  5  7  1  0  0  0  0
  5  6  1  0  0  0  0
  5 24  1  0  0  0  0
  6  7  1  0  0  0  0
  6 25  1  0  0  0  0
  6 26  1  0  0  0  0
  7 27  1  0  0  0  0
  7 28  1  0  0  0  0
  8  9  2  0  0  0  0
  8 10  1  0  0  0  0
 10 11  1  0  0  0  0
 10 29  1  0  0  0  0
 11 16  1  0  0  0  0
 11 12  2  0  0  0  0
 12 13  1  0  0  0  0
 13 14  2  0  0  0  0
 13 30  1  0  0  0  0
 14 15  1  0  0  0  0
 14 31  1  0  0  0  0
 15 16  2  0  0  0  0
 15 32  1  0  0  0  0
 16 17  1  0  0  0  0
 17 33  1  0  0  0  0
M  END
> <s_m_source_file>
AV-unprocessed.smi

> <i_m_source_file_index>
3150

> <i_lp_mmshare_version>
43012

> <i_f3d_flags>
0

> <s_epik_input>
W0NIMl0xW0NIMl1bQ0hdMVtDSDJdT1tDQEBIXShbQ0gzXSlDKD1PKVtOSF1jMm5bY0hdW2NIXVtjSF1jMltPSF0=

> <s_epik_cmdline>
J2VwaWtfcHl0aG9uJywgJy1waCcsICc3LjAnLCAnLXRuJywgJzgnLCAnLW1hJywgJzIwMCcsICctbWV0YWxfYmluZGluZycsICctaW1hZScsICc8aW5maWxlLm1hZT4nLCAnLW9tYWUnLCAnPG91dGZpbGUubWFlPic=

> <r_lp_tautomer_probability>
0.43658

> <r_epik_Ionization_Penalty>
0.0204299

> <r_epik_Ionization_Penalty_Charging>
0

> <r_epik_Ionization_Penalty_Neutral>
0.0204299

> <r_epik_State_Penalty>
0.419322

> <r_epik_Charging_Adjusted_Penalty>
0.419322

> <i_epik_Tot_Q>
0

> <i_epik_Tot_abs_Q>
0

> <r_epik_Metal_State_Penalty>
0.377394

> <b_epik_Metal_Only>
0

> <s_lp_Force_Field>
OPLS_2005

> <r_lp_Energy>
16.197

> <b_lp_Chiralities_Consistent>
1

> <s_lp_Variant>
AV-unprocessed.smi:3150-2

> <Gold.Version>
5.8.1

> <Gold.Id.Protein>
6NUR|6NUR_protein|mol2

> <Gold.PLP.Fitness>
40.2641

> <Gold.PLP.PLP>
-30.4470

> <Gold.PLP.part.hbond>
-3.0000

> <Gold.PLP.part.metal>
0.0000

> <Gold.PLP.part.buried>
-3.7596

> <Gold.PLP.part.nonpolar>
-24.5699

> <Gold.PLP.part.repulsive>
0.2043

> <Gold.PLP.ligand.clash>
0.0000

> <Gold.PLP.ligand.torsion>
1.0759

> <Gold.PLP.Chemscore.Hbond>
2.8000

> <Gold.PLP.Chemscore.CHOScore>
0.9979

> <Gold.PLP.Chemscore.Metal>
0.0000

> <Gold.Chemscore.Hbonds>
donor molecule, donor type, donor heavy atom, donor atom, acceptor molecule, acceptor atom, score
      L1  H    17    33       P1  7948  1.00
      P1  H  7989  7998       L1     9  0.80
      P1  H  7997  8009       L1     3  1.00
      L1  C    13    30       P1  8028  1.00

> <Gold.PLP.Chemscore.Internal.Correction>
0.5752

> <Gold.Rescore>
     Score         DG    S(hbond)    S(metal)    S(lipo)     H(rot)  DE(clash)    DE(int)     intcor
     16.99     -18.12       2.84        0.00      75.54       2.22       0.01       1.12       ----

> <Gold.Chemscore.Fitness>
16.9902

> <Gold.Chemscore.DG>
-18.1209

> <Gold.Chemscore.ZeroCoef>
-5.4800

> <Gold.Chemscore.Hbond>
2.8394

> <Gold.Chemscore.Metal>
0.0000

> <Gold.Chemscore.Lipo>
75.5435

> <Gold.Chemscore.Internal_Hbond>
0.0000

> <Gold.Chemscore.DEClash>
0.0110

> <Gold.Chemscore.DEInternal>
1.1198

> <Gold.Chemscore.Rot>
2.2192

> <Gold.Chemscore.Internal.Correction>
   9.000000E+99

> <Gold.Chemscore.Hbonds>
donor molecule, donor type, donor heavy atom, donor atom, acceptor molecule, acceptor atom, score
      L1  H    17    33       P1  7948  0.97
      P1  H  7989  7998       L1     9  0.80
      P1  H  7997  8009       L1     3  0.85

> <Gold.Chemscore.Hbond.Weighted>
-9.4836

> <Gold.Chemscore.Metal.Weighted>
-0.0000

> <Gold.Chemscore.Lipo.Weighted>
-8.8386

> <Gold.Chemscore.Internal_Hbond.Weighted>
0.0000

> <Gold.Chemscore.DEClash.Weighted>
0.0110

> <Gold.Chemscore.DEInternal.Weighted>
1.1198

> <Gold.Chemscore.Rot.Weighted>
5.6812

> <Gold.Chemscore.Internal.Correction.Weighted>
   9.000000E+99

> <Gold.Protein.RotatedTorsions>
[ 6907 6896 6895 6894 ] final -125.06 input  -60.11 | X-H torsion
[ 7974 7965 7964 7962 ] final   37.88 input  175.53 | X-H torsion
[ 8008 7997 7996 7995 ] final  155.10 input   59.86 | X-H torsion
[ 10167 10162 10161 10158 ] final   95.57 input  -65.29 | X-H torsion
[ 10718 10713 10712 10709 ] final   64.28 input   66.30 | X-H torsion
[ 10763 10752 10751 10750 ] final  -53.52 input  -60.55 | X-H torsion
[ 11005 11000 10999 10996 ] final  145.08 input  -57.11 | X-H torsion

> <Gold.Protein.ActiveResidues>
 VAL166  LYS551  ARG553  GLY616  TRP617  ASP618  TYR619  PRO620  LYS621  CYS622 
 ASP623  PHE694  ASN695  SER759  ASP760  ASP761  ALA762  ILE779  LEU786  VAL792 
 PHE793  MET794  SER795  GLU796  ALA797  LYS798  CYS799  TRP800  GLU811  SER814 

> <Gold.Protein.RotatedAtoms>
  150.8830  133.7346  159.2926 H   0  0  0  0  0  0  0  0  0  0  0  0  # atno 6907 bound_to 6896
  151.4921  135.1056  159.9816 H   0  0  0  0  0  0  0  0  0  0  0  0  # atno 6908 bound_to 6896
  152.4772  133.8120  159.7064 H   0  0  0  0  0  0  0  0  0  0  0  0  # atno 6909 bound_to 6896
  146.1104  139.5839  142.9356 H   0  0  0  0  0  0  0  0  0  0  0  0  # atno 7974 bound_to 7965
  156.2496  140.1948  156.6750 H   0  0  0  0  0  0  0  0  0  0  0  0  # atno 8008 bound_to 7997
  154.6365  140.0589  156.9820 H   0  0  0  0  0  0  0  0  0  0  0  0  # atno 8009 bound_to 7997
  155.1630  140.3261  155.4410 H   0  0  0  0  0  0  0  0  0  0  0  0  # atno 8010 bound_to 7997
  139.7976  144.6827  150.9808 H   0  0  0  0  0  0  0  0  0  0  0  0  # atno 10167 bound_to 10162
  157.6029  130.9151  149.9826 H   0  0  0  0  0  0  0  0  0  0  0  0  # atno 10718 bound_to 10713
  154.1601  135.6476  153.4984 H   0  0  0  0  0  0  0  0  0  0  0  0  # atno 10763 bound_to 10752
  153.0113  135.5358  154.6720 H   0  0  0  0  0  0  0  0  0  0  0  0  # atno 10764 bound_to 10752
  154.6031  135.2946  155.0486 H   0  0  0  0  0  0  0  0  0  0  0  0  # atno 10765 bound_to 10752
  140.0683  134.9166  157.1302 H   0  0  0  0  0  0  0  0  0  0  0  0  # atno 11005 bound_to 11000
  145.5675  141.0398  143.2192 LP  0  0  0  0  0  0  0  0  0  0  0  0  # atno 17320 bound_to 7965
  144.7506  139.7203  143.7274 LP  0  0  0  0  0  0  0  0  0  0  0  0  # atno 17321 bound_to 7965
  140.7820  143.4315  151.0687 LP  0  0  0  0  0  0  0  0  0  0  0  0  # atno 17342 bound_to 10162
  139.7989  143.8112  152.3160 LP  0  0  0  0  0  0  0  0  0  0  0  0  # atno 17343 bound_to 10162
  156.1107  130.3650  150.0054 LP  0  0  0  0  0  0  0  0  0  0  0  0  # atno 17370 bound_to 10713
  156.8153  130.9339  151.3643 LP  0  0  0  0  0  0  0  0  0  0  0  0  # atno 17371 bound_to 10713
  140.3665  134.2437  155.7182 LP  0  0  0  0  0  0  0  0  0  0  0  0  # atno 17394 bound_to 11000
  141.2002  133.7994  157.0502 LP  0  0  0  0  0  0  0  0  0  0  0  0  # atno 17395 bound_to 11000

$$$$
