AV-unprocessed.smi:55|AV-procd|sdf|561|dock3
  -GOLD-   2262016463D 1   1.00000     0.00000
 Structure written by MMmdl.
 31 32  0  0  0  0  0  0  0  0  1 V2000
  148.1879  137.5278  158.6384 C   0  0  0  0  0  0  0  0  0  0  0  0
  149.4313  138.0776  157.9595 C   0  0  0  0  0  0  0  0  0  0  0  0
  149.3716  138.8318  156.8326 C   0  0  0  0  0  0  0  0  0  0  0  0
  150.4868  139.3469  156.1874 N   0  0  0  0  0  0  0  0  0  0  0  0
  150.3296  140.1577  154.9209 C   0  0  2  0  0  0  0  0  0  0  0  0
  149.7933  141.5621  155.2213 C   0  0  0  0  0  0  0  0  0  0  0  0
  148.3835  141.5030  154.6610 C   0  0  1  0  0  0  0  0  0  0  0  0
  147.9776  142.7662  154.1747 O   0  0  0  0  0  0  0  0  0  0  0  0
  148.5075  140.4605  153.5463 C   0  0  2  0  0  0  0  0  0  0  0  0
  147.1771  139.7774  153.1949 C   0  0  0  0  0  0  0  0  0  0  0  0
  147.4033  138.7055  152.3049 O   0  0  0  0  0  0  0  0  0  0  0  0
  149.4086  139.5073  154.0997 O   0  0  0  0  0  0  0  0  0  0  0  0
  151.7711  139.0749  156.7059 C   0  0  0  0  0  0  0  0  0  0  0  0
  152.8093  139.4931  156.1948 O   0  0  0  0  0  0  0  0  0  0  0  0
  151.8332  138.3004  157.8634 N   0  0  0  0  0  0  0  0  0  0  0  0
  150.7373  137.7699  158.5485 C   0  0  0  0  0  0  0  0  0  0  0  0
  150.9214  137.1019  159.5647 O   0  0  0  0  0  0  0  0  0  0  0  0
  151.2908  140.1825  154.4068 H   0  0  0  0  0  0  0  0  0  0  0  0
  147.6884  141.1645  155.4302 H   0  0  0  0  0  0  0  0  0  0  0  0
  148.9668  140.9158  152.6663 H   0  0  0  0  0  0  0  0  0  0  0  0
  152.7499  138.1059  158.2390 H   0  0  0  0  0  0  0  0  0  0  0  0
  147.2774  137.8276  158.1192 H   0  0  0  0  0  0  0  0  0  0  0  0
  148.1215  137.8904  159.6648 H   0  0  0  0  0  0  0  0  0  0  0  0
  148.2170  136.4378  158.6607 H   0  0  0  0  0  0  0  0  0  0  0  0
  148.3993  139.0388  156.4112 H   0  0  0  0  0  0  0  0  0  0  0  0
  149.8306  141.8024  156.2847 H   0  0  0  0  0  0  0  0  0  0  0  0
  150.4077  142.2824  154.6787 H   0  0  0  0  0  0  0  0  0  0  0  0
  148.2296  143.4265  154.8021 H   0  0  0  0  0  0  0  0  0  0  0  0
  146.6619  139.4280  154.0903 H   0  0  0  0  0  0  0  0  0  0  0  0
  146.5136  140.4826  152.6935 H   0  0  0  0  0  0  0  0  0  0  0  0
  148.2031  138.8728  151.8300 H   0  0  0  0  0  0  0  0  0  0  0  0
  1  2  1  0  0  0  0
  1 22  1  0  0  0  0
  1 23  1  0  0  0  0
  1 24  1  0  0  0  0
  2 16  1  0  0  0  0
  2  3  2  0  0  0  0
  3  4  1  0  0  0  0
  3 25  1  0  0  0  0
  4  5  1  0  0  0  0
  4 13  1  0  0  0  0
  5 18  1  0  0  0  0
  5 12  1  0  0  0  0
  5  6  1  0  0  0  0
  6  7  1  0  0  0  0
  6 26  1  0  0  0  0
  6 27  1  0  0  0  0
  7 19  1  0  0  0  0
  7  8  1  0  0  0  0
  7  9  1  0  0  0  0
  8 28  1  0  0  0  0
  9 20  1  0  0  0  0
  9 10  1  0  0  0  0
  9 12  1  0  0  0  0
 10 11  1  0  0  0  0
 10 29  1  0  0  0  0
 10 30  1  0  0  0  0
 11 31  1  0  0  0  0
 13 14  2  0  0  0  0
 13 15  1  0  0  0  0
 15 21  1  0  0  0  0
 15 16  1  0  0  0  0
 16 17  2  0  0  0  0
M  END
> <s_m_source_file>
AV-unprocessed.smi

> <i_m_source_file_index>
55

> <i_lp_mmshare_version>
43012

> <i_f3d_flags>
0

> <s_epik_input>
Tz1jMVtuSF1jKD1PKW4oW2NIXWMxW0NIM10pW0NAQEhdMltDSDJdW0NAQEhdKFtPSF0pW0NAQEhdKE8yKVtDSDJdW09IXQ==

> <s_epik_cmdline>
J2VwaWtfcHl0aG9uJywgJy1waCcsICc3LjAnLCAnLXRuJywgJzgnLCAnLW1hJywgJzIwMCcsICctbWV0YWxfYmluZGluZycsICctaW1hZScsICc8aW5maWxlLm1hZT4nLCAnLW9tYWUnLCAnPG91dGZpbGUubWFlPic=

> <r_lp_tautomer_probability>
0.999537

> <r_epik_Ionization_Penalty>
0.00121888

> <r_epik_Ionization_Penalty_Charging>
0.00121876

> <r_epik_Ionization_Penalty_Neutral>
1.19946e-07

> <r_epik_State_Penalty>
0.000805124

> <r_epik_Charging_Adjusted_Penalty>
0.00202389

> <i_epik_Tot_Q>
0

> <i_epik_Tot_abs_Q>
0

> <r_epik_Metal_State_Penalty>
0.662472

> <b_epik_Metal_Only>
0

> <s_epik_Chemistry_Notes>
This compound contains an acetal/aminal-like group ( X-CH(R)-Y where X, Y are N, S, or O) that may be acid/base labile, releasing an aldehyde.

> <s_lp_Force_Field>
OPLS_2005

> <r_lp_Energy>
24.9707

> <b_lp_Chiralities_Consistent>
1

> <s_lp_Variant>
AV-unprocessed.smi:55-1

> <Gold.Version>
5.8.1

> <Gold.Id.Protein>
6NUR|6NUR_protein|mol2

> <Gold.PLP.Fitness>
35.3912

> <Gold.PLP.PLP>
-24.1132

> <Gold.PLP.part.hbond>
-6.9401

> <Gold.PLP.part.metal>
0.0000

> <Gold.PLP.part.buried>
1.1866

> <Gold.PLP.part.nonpolar>
-18.6026

> <Gold.PLP.part.repulsive>
1.0693

> <Gold.PLP.ligand.clash>
0.0000

> <Gold.PLP.ligand.torsion>
0.3673

> <Gold.PLP.Chemscore.Hbond>
4.0000

> <Gold.PLP.Chemscore.CHOScore>
0.0000

> <Gold.PLP.Chemscore.Metal>
0.0000

> <Gold.Chemscore.Hbonds>
donor molecule, donor type, donor heavy atom, donor atom, acceptor molecule, acceptor atom, score
      L1  H     8    28       P1  8028  1.00
      L1  H    11    31       P1  7957  1.00
      P1  H  6896  6908       L1    17  1.00
      P1  H  7997  8009       L1    14  1.00

> <Gold.PLP.Chemscore.Internal.Correction>
0.0127

> <Gold.Rescore>
     Score         DG    S(hbond)    S(metal)    S(lipo)     H(rot)  DE(clash)    DE(int)     intcor
     14.02     -15.80       3.90        0.00      36.52       2.73       1.53       0.24       ----

> <Gold.Chemscore.Fitness>
14.0207

> <Gold.Chemscore.DG>
-15.7962

> <Gold.Chemscore.ZeroCoef>
-5.4800

> <Gold.Chemscore.Hbond>
3.8984

> <Gold.Chemscore.Metal>
0.0000

> <Gold.Chemscore.Lipo>
36.5155

> <Gold.Chemscore.Internal_Hbond>
0.0000

> <Gold.Chemscore.DEClash>
1.5338

> <Gold.Chemscore.DEInternal>
0.2417

> <Gold.Chemscore.Rot>
2.7253

> <Gold.Chemscore.Internal.Correction>
   9.000000E+99

> <Gold.Chemscore.Hbonds>
donor molecule, donor type, donor heavy atom, donor atom, acceptor molecule, acceptor atom, score
      L1  H     8    28       P1  8028  0.95
      L1  H    11    31       P1  7957  0.86
      P1  H  6896  6908       L1    17  0.93
      P1  H  7997  8009       L1    14  0.98

> <Gold.Chemscore.Hbond.Weighted>
-13.0208

> <Gold.Chemscore.Metal.Weighted>
-0.0000

> <Gold.Chemscore.Lipo.Weighted>
-4.2723

> <Gold.Chemscore.Internal_Hbond.Weighted>
0.0000

> <Gold.Chemscore.DEClash.Weighted>
1.5338

> <Gold.Chemscore.DEInternal.Weighted>
0.2417

> <Gold.Chemscore.Rot.Weighted>
6.9769

> <Gold.Chemscore.Internal.Correction.Weighted>
   9.000000E+99

> <Gold.Protein.RotatedTorsions>
[ 6907 6896 6895 6894 ] final -140.54 input  -60.11 | X-H torsion
[ 7974 7965 7964 7962 ] final  142.19 input  175.53 | X-H torsion
[ 8008 7997 7996 7995 ] final  179.85 input   59.86 | X-H torsion
[ 10167 10162 10161 10158 ] final  -29.95 input  -65.29 | X-H torsion
[ 10718 10713 10712 10709 ] final  -59.18 input   66.30 | X-H torsion
[ 10763 10752 10751 10750 ] final  -78.85 input  -60.55 | X-H torsion
[ 11005 11000 10999 10996 ] final -138.88 input  -57.11 | X-H torsion

> <Gold.Protein.ActiveResidues>
 VAL166  LYS551  ARG553  GLY616  TRP617  ASP618  TYR619  PRO620  LYS621  CYS622 
 ASP623  PHE694  ASN695  SER759  ASP760  ASP761  ALA762  ILE779  LEU786  VAL792 
 PHE793  MET794  SER795  GLU796  ALA797  LYS798  CYS799  TRP800  GLU811  SER814 

> <Gold.Protein.RotatedAtoms>
  151.0620  133.5536  159.2633 H   0  0  0  0  0  0  0  0  0  0  0  0  # atno 6907 bound_to 6896
  151.2508  135.0621  159.9071 H   0  0  0  0  0  0  0  0  0  0  0  0  # atno 6908 bound_to 6896
  152.5399  134.0380  159.8109 H   0  0  0  0  0  0  0  0  0  0  0  0  # atno 6909 bound_to 6896
  144.9029  139.5398  143.5745 H   0  0  0  0  0  0  0  0  0  0  0  0  # atno 7974 bound_to 7965
  156.0387  140.1298  157.0179 H   0  0  0  0  0  0  0  0  0  0  0  0  # atno 8008 bound_to 7997
  154.4381  140.1034  156.6276 H   0  0  0  0  0  0  0  0  0  0  0  0  # atno 8009 bound_to 7997
  155.5699  140.3466  155.4515 H   0  0  0  0  0  0  0  0  0  0  0  0  # atno 8010 bound_to 7997
  140.7255  143.3887  151.1468 H   0  0  0  0  0  0  0  0  0  0  0  0  # atno 10167 bound_to 10162
  156.1081  130.4178  150.0679 H   0  0  0  0  0  0  0  0  0  0  0  0  # atno 10718 bound_to 10713
  154.5312  135.5715  153.6760 H   0  0  0  0  0  0  0  0  0  0  0  0  # atno 10763 bound_to 10752
  152.9940  135.6205  154.2626 H   0  0  0  0  0  0  0  0  0  0  0  0  # atno 10764 bound_to 10752
  154.2553  135.2858  155.2780 H   0  0  0  0  0  0  0  0  0  0  0  0  # atno 10765 bound_to 10752
  140.8574  134.2211  157.4727 H   0  0  0  0  0  0  0  0  0  0  0  0  # atno 11005 bound_to 11000
  146.3118  139.7774  142.9014 LP  0  0  0  0  0  0  0  0  0  0  0  0  # atno 17320 bound_to 7965
  145.3585  141.0321  143.3298 LP  0  0  0  0  0  0  0  0  0  0  0  0  # atno 17321 bound_to 7965
  139.7489  143.8809  152.3071 LP  0  0  0  0  0  0  0  0  0  0  0  0  # atno 17342 bound_to 10162
  139.8656  144.7095  150.9048 LP  0  0  0  0  0  0  0  0  0  0  0  0  # atno 17343 bound_to 10162
  156.8649  130.9504  151.3614 LP  0  0  0  0  0  0  0  0  0  0  0  0  # atno 17370 bound_to 10713
  157.6259  130.8691  149.9189 LP  0  0  0  0  0  0  0  0  0  0  0  0  # atno 17371 bound_to 10713
  139.8705  134.9713  156.4731 LP  0  0  0  0  0  0  0  0  0  0  0  0  # atno 17394 bound_to 11000
  140.8722  133.7980  155.9376 LP  0  0  0  0  0  0  0  0  0  0  0  0  # atno 17395 bound_to 11000

$$$$
