AV-unprocessed.smi:1123|AV-procd|sdf|4829|dock10
  -GOLD-   22720 3393D 1   1.00000     0.00000
 Structure written by MMmdl.
 37 38  0  0  0  0  0  0  0  0  1 V2000
  148.0460  140.3699  153.8051 C   0  0  0  0  0  0  0  0  0  0  0  0
  148.1523  141.6430  154.6696 C   0  0  2  0  0  0  0  0  0  0  0  0
  148.8180  141.3822  156.0301 C   0  0  0  0  0  0  0  0  0  0  0  0
  149.0234  140.2317  156.4190 O   0  0  0  0  0  0  0  0  0  0  0  0
  149.1493  142.4678  156.7473 N   0  0  0  0  0  0  0  0  0  0  0  0
  149.7670  142.4449  158.0673 C   0  0  0  0  0  0  0  0  0  0  0  0
  151.1661  141.8024  158.0226 C   0  0  0  0  0  0  0  0  0  0  0  0
  151.8490  141.7227  159.3127 N   0  0  0  0  0  0  0  0  0  0  0  0
  153.0143  140.8480  159.2328 C   0  0  0  0  0  0  0  0  0  0  0  0
  153.7533  140.7471  160.5783 C   0  0  0  0  0  0  0  0  0  0  0  0
  154.1317  142.0495  161.0113 O   0  0  0  0  0  0  0  0  0  0  0  0
  153.0179  142.9253  161.1499 C   0  0  0  0  0  0  0  0  0  0  0  0
  152.2713  143.0314  159.8085 C   0  0  0  0  0  0  0  0  0  0  0  0
  146.8610  142.2934  154.8584 N   0  0  0  0  0  0  0  0  0  0  0  0
  146.1985  142.5724  155.9833 C   0  0  0  0  0  0  0  0  0  0  0  0
  145.0130  143.1320  155.7867 N   0  0  0  0  0  0  0  0  0  0  0  0
  144.9987  143.1605  154.4211 C   0  0  0  0  0  0  0  0  0  0  0  0
  146.0758  142.6615  153.8152 N   0  0  0  0  0  0  0  0  0  0  0  0
  149.0293  139.9323  153.6293 H   0  0  0  0  0  0  0  0  0  0  0  0
  147.6124  140.5977  152.8309 H   0  0  0  0  0  0  0  0  0  0  0  0
  147.4234  139.6057  154.2723 H   0  0  0  0  0  0  0  0  0  0  0  0
  148.7861  142.3458  154.1262 H   0  0  0  0  0  0  0  0  0  0  0  0
  148.9487  143.3761  156.3547 H   0  0  0  0  0  0  0  0  0  0  0  0
  149.8251  143.4765  158.4127 H   0  0  0  0  0  0  0  0  0  0  0  0
  149.1250  141.9147  158.7728 H   0  0  0  0  0  0  0  0  0  0  0  0
  151.0574  140.7923  157.6253 H   0  0  0  0  0  0  0  0  0  0  0  0
  151.7923  142.3383  157.3076 H   0  0  0  0  0  0  0  0  0  0  0  0
  152.7072  139.8506  158.9163 H   0  0  0  0  0  0  0  0  0  0  0  0
  153.7028  141.2181  158.4716 H   0  0  0  0  0  0  0  0  0  0  0  0
  153.1222  140.2743  161.3324 H   0  0  0  0  0  0  0  0  0  0  0  0
  154.6470  140.1315  160.4756 H   0  0  0  0  0  0  0  0  0  0  0  0
  152.3534  142.5579  161.9332 H   0  0  0  0  0  0  0  0  0  0  0  0
  153.3727  143.9066  161.4652 H   0  0  0  0  0  0  0  0  0  0  0  0
  152.9171  143.5147  159.0740 H   0  0  0  0  0  0  0  0  0  0  0  0
  151.4084  143.6824  159.9438 H   0  0  0  0  0  0  0  0  0  0  0  0
  146.5900  142.3576  156.9666 H   0  0  0  0  0  0  0  0  0  0  0  0
  144.1669  143.5553  153.8565 H   0  0  0  0  0  0  0  0  0  0  0  0
  1  2  1  0  0  0  0
  1 19  1  0  0  0  0
  1 20  1  0  0  0  0
  1 21  1  0  0  0  0
  2  3  1  0  0  0  0
  2 14  1  0  0  0  0
  2 22  1  0  0  0  0
  3  4  2  0  0  0  0
  3  5  1  0  0  0  0
  5  6  1  0  0  0  0
  5 23  1  0  0  0  0
  6  7  1  0  0  0  0
  6 24  1  0  0  0  0
  6 25  1  0  0  0  0
  7  8  1  0  0  0  0
  7 26  1  0  0  0  0
  7 27  1  0  0  0  0
  8 13  1  0  0  0  0
  8  9  1  0  0  0  0
  9 10  1  0  0  0  0
  9 28  1  0  0  0  0
  9 29  1  0  0  0  0
 10 11  1  0  0  0  0
 10 30  1  0  0  0  0
 10 31  1  0  0  0  0
 11 12  1  0  0  0  0
 12 13  1  0  0  0  0
 12 32  1  0  0  0  0
 12 33  1  0  0  0  0
 13 34  1  0  0  0  0
 13 35  1  0  0  0  0
 14 18  1  0  0  0  0
 14 15  1  0  0  0  0
 15 16  2  0  0  0  0
 15 36  1  0  0  0  0
 16 17  1  0  0  0  0
 17 18  2  0  0  0  0
 17 37  1  0  0  0  0
M  END
> <s_m_source_file>
AV-unprocessed.smi

> <i_m_source_file_index>
1123

> <i_lp_mmshare_version>
43012

> <i_f3d_flags>
0

> <s_epik_input>
bjFbY0hdbltjSF1uMVtDQEhdKFtDSDNdKUMoPU8pW05IXVtDSDJdW0NIMl1OMltDSDJdW0NIMl1PW0NIMl1bQ0gyXTI=

> <s_epik_cmdline>
J2VwaWtfcHl0aG9uJywgJy1waCcsICc3LjAnLCAnLXRuJywgJzgnLCAnLW1hJywgJzIwMCcsICctbWV0YWxfYmluZGluZycsICctaW1hZScsICc8aW5maWxlLm1hZT4nLCAnLW9tYWUnLCAnPG91dGZpbGUubWFlPic=

> <r_lp_tautomer_probability>
1

> <r_epik_Ionization_Penalty>
0.211373

> <r_epik_Ionization_Penalty_Charging>
0

> <r_epik_Ionization_Penalty_Neutral>
0.211373

> <r_epik_State_Penalty>
0.201459

> <r_epik_Charging_Adjusted_Penalty>
0.201459

> <i_epik_Tot_Q>
0

> <i_epik_Tot_abs_Q>
0

> <r_epik_Metal_State_Penalty>
0.201458

> <b_epik_Metal_Only>
0

> <s_lp_Force_Field>
OPLS_2005

> <r_lp_Energy>
26.6349

> <b_lp_Chiralities_Consistent>
1

> <s_lp_Variant>
AV-unprocessed.smi:1123-1

> <Gold.Version>
5.8.1

> <Gold.Id.Protein>
6NUR|6NUR_protein|mol2

> <Gold.PLP.Fitness>
36.5179

> <Gold.PLP.PLP>
-30.8887

> <Gold.PLP.part.hbond>
-1.6174

> <Gold.PLP.part.metal>
0.0000

> <Gold.PLP.part.buried>
-3.6459

> <Gold.PLP.part.nonpolar>
-26.4424

> <Gold.PLP.part.repulsive>
0.3732

> <Gold.PLP.ligand.clash>
0.0000

> <Gold.PLP.ligand.torsion>
0.2286

> <Gold.PLP.Chemscore.Hbond>
1.0000

> <Gold.PLP.Chemscore.CHOScore>
0.9851

> <Gold.PLP.Chemscore.Metal>
0.0000

> <Gold.Chemscore.Hbonds>
donor molecule, donor type, donor heavy atom, donor atom, acceptor molecule, acceptor atom, score
      L1  H     5    23       P1  8028  0.94
      L1  C    17    37       P1 10174  1.00

> <Gold.PLP.Chemscore.Internal.Correction>
0.1311

> <Gold.Rescore>
     Score         DG    S(hbond)    S(metal)    S(lipo)     H(rot)  DE(clash)    DE(int)     intcor
      9.02      -9.48       0.96        0.00      63.88       2.61       0.14       0.32       ----

> <Gold.Chemscore.Fitness>
9.0248

> <Gold.Chemscore.DG>
-9.4808

> <Gold.Chemscore.ZeroCoef>
-5.4800

> <Gold.Chemscore.Hbond>
0.9605

> <Gold.Chemscore.Metal>
0.0000

> <Gold.Chemscore.Lipo>
63.8754

> <Gold.Chemscore.Internal_Hbond>
0.0000

> <Gold.Chemscore.DEClash>
0.1394

> <Gold.Chemscore.DEInternal>
0.3166

> <Gold.Chemscore.Rot>
2.6097

> <Gold.Chemscore.Internal.Correction>
   9.000000E+99

> <Gold.Chemscore.Hbonds>
donor molecule, donor type, donor heavy atom, donor atom, acceptor molecule, acceptor atom, score
      L1  H     5    23       P1  8028  0.89

> <Gold.Chemscore.Hbond.Weighted>
-3.2082

> <Gold.Chemscore.Metal.Weighted>
-0.0000

> <Gold.Chemscore.Lipo.Weighted>
-7.4734

> <Gold.Chemscore.Internal_Hbond.Weighted>
0.0000

> <Gold.Chemscore.DEClash.Weighted>
0.1394

> <Gold.Chemscore.DEInternal.Weighted>
0.3166

> <Gold.Chemscore.Rot.Weighted>
6.6809

> <Gold.Chemscore.Internal.Correction.Weighted>
   9.000000E+99

> <Gold.Protein.RotatedTorsions>
[ 6907 6896 6895 6894 ] final  173.48 input  -60.11 | X-H torsion
[ 7974 7965 7964 7962 ] final  157.69 input  175.53 | X-H torsion
[ 8008 7997 7996 7995 ] final   47.19 input   59.86 | X-H torsion
[ 10167 10162 10161 10158 ] final -146.90 input  -65.29 | X-H torsion
[ 10718 10713 10712 10709 ] final   80.16 input   66.30 | X-H torsion
[ 10763 10752 10751 10750 ] final   71.18 input  -60.55 | X-H torsion
[ 11005 11000 10999 10996 ] final   28.04 input  -57.11 | X-H torsion

> <Gold.Protein.ActiveResidues>
 VAL166  LYS551  ARG553  GLY616  TRP617  ASP618  TYR619  PRO620  LYS621  CYS622 
 ASP623  PHE694  ASN695  SER759  ASP760  ASP761  ALA762  ILE779  LEU786  VAL792 
 PHE793  MET794  SER795  GLU796  ALA797  LYS798  CYS799  TRP800  GLU811  SER814 

> <Gold.Protein.RotatedAtoms>
  151.7677  133.3338  159.3435 H   0  0  0  0  0  0  0  0  0  0  0  0  # atno 6907 bound_to 6896
  150.7473  134.6047  159.6064 H   0  0  0  0  0  0  0  0  0  0  0  0  # atno 6908 bound_to 6896
  152.3362  134.7196  160.0327 H   0  0  0  0  0  0  0  0  0  0  0  0  # atno 6909 bound_to 6896
  144.7889  139.7375  143.6229 H   0  0  0  0  0  0  0  0  0  0  0  0  # atno 7974 bound_to 7965
  155.3650  140.3420  155.4241 H   0  0  0  0  0  0  0  0  0  0  0  0  # atno 8008 bound_to 7997
  156.1693  140.1626  156.8510 H   0  0  0  0  0  0  0  0  0  0  0  0  # atno 8009 bound_to 7997
  154.5217  140.0765  156.8166 H   0  0  0  0  0  0  0  0  0  0  0  0  # atno 8010 bound_to 7997
  139.7671  143.8292  152.2618 H   0  0  0  0  0  0  0  0  0  0  0  0  # atno 10167 bound_to 10162
  157.6798  130.9947  150.2038 H   0  0  0  0  0  0  0  0  0  0  0  0  # atno 10718 bound_to 10713
  153.0384  135.5146  154.7554 H   0  0  0  0  0  0  0  0  0  0  0  0  # atno 10763 bound_to 10752
  154.6511  135.2925  154.9987 H   0  0  0  0  0  0  0  0  0  0  0  0  # atno 10764 bound_to 10752
  154.0871  135.6655  153.4899 H   0  0  0  0  0  0  0  0  0  0  0  0  # atno 10765 bound_to 10752
  140.3198  134.2556  155.7719 H   0  0  0  0  0  0  0  0  0  0  0  0  # atno 11005 bound_to 11000
  146.2133  139.5504  142.9667 LP  0  0  0  0  0  0  0  0  0  0  0  0  # atno 17320 bound_to 7965
  145.5848  141.0378  143.2102 LP  0  0  0  0  0  0  0  0  0  0  0  0  # atno 17321 bound_to 7965
  139.8315  144.7251  150.9444 LP  0  0  0  0  0  0  0  0  0  0  0  0  # atno 17342 bound_to 10162
  140.7811  143.4065  151.1062 LP  0  0  0  0  0  0  0  0  0  0  0  0  # atno 17343 bound_to 10162
  156.2723  130.3723  149.8019 LP  0  0  0  0  0  0  0  0  0  0  0  0  # atno 17370 bound_to 10713
  156.5732  130.8433  151.3362 LP  0  0  0  0  0  0  0  0  0  0  0  0  # atno 17371 bound_to 10713
  141.2089  133.7764  157.0030 LP  0  0  0  0  0  0  0  0  0  0  0  0  # atno 17394 bound_to 11000
  140.0951  134.9569  157.1837 LP  0  0  0  0  0  0  0  0  0  0  0  0  # atno 17395 bound_to 11000

$$$$
