AV-unprocessed.smi:2890|AV-procd|sdf|11116|dock8
  -GOLD-   2272015583D 1   1.00000     0.00000
 Structure written by MMmdl.
 38 39  0  0  0  0  0  0  0  0  1 V2000
  146.8654  141.5789  153.7542 C   0  0  0  0  0  0  0  0  0  0  0  0
  147.6628  141.5827  155.0630 C   0  0  0  0  0  0  0  0  0  0  0  0
  148.9446  140.8046  154.9439 C   0  0  0  0  0  0  0  0  0  0  0  0
  150.1007  141.4330  155.0776 N   0  0  0  0  0  0  0  0  0  0  0  0
  151.0887  140.4578  154.9154 O   0  0  0  0  0  0  0  0  0  0  0  0
  150.4822  139.2657  154.6841 C   0  0  0  0  0  0  0  0  0  0  0  0
  151.3782  138.0885  154.4826 C   0  0  0  0  0  0  0  0  0  0  0  0
  151.4351  137.1614  155.7006 C   0  0  0  0  0  0  0  0  0  0  0  0
  149.1220  139.4149  154.6822 C   0  0  0  0  0  0  0  0  0  0  0  0
  148.0620  138.3663  154.4578 C   0  0  0  0  0  0  0  0  0  0  0  0
  148.3723  137.1273  155.2973 C   0  0  0  0  0  0  0  0  0  0  0  0
  148.2725  137.1735  156.5228 O   0  0  0  0  0  0  0  0  0  0  0  0
  148.7443  136.0264  154.6254 N   0  0  0  0  0  0  0  0  0  0  0  0
  149.0445  134.7313  155.2274 C   0  0  0  0  0  0  0  0  0  0  0  0
  149.7235  134.8304  156.5344 C   0  0  0  0  0  0  0  0  0  0  0  0
  150.2563  134.9082  157.5583 N   0  0  0  0  0  0  0  0  0  0  0  0
  147.8242  133.7966  155.2395 C   0  0  0  0  0  0  0  0  0  0  0  0
  148.7759  132.6565  154.8535 C   0  0  0  0  0  0  0  0  0  0  0  0
  149.6924  133.7304  154.2532 C   0  0  0  0  0  0  0  0  0  0  0  0
  145.9403  142.1453  153.8614 H   0  0  0  0  0  0  0  0  0  0  0  0
  146.6021  140.5629  153.4583 H   0  0  0  0  0  0  0  0  0  0  0  0
  147.4380  142.0276  152.9420 H   0  0  0  0  0  0  0  0  0  0  0  0
  147.8767  142.6124  155.3520 H   0  0  0  0  0  0  0  0  0  0  0  0
  147.0466  141.1716  155.8627 H   0  0  0  0  0  0  0  0  0  0  0  0
  151.0386  137.5241  153.6139 H   0  0  0  0  0  0  0  0  0  0  0  0
  152.3851  138.4313  154.2435 H   0  0  0  0  0  0  0  0  0  0  0  0
  152.0997  136.3171  155.5159 H   0  0  0  0  0  0  0  0  0  0  0  0
  150.4486  136.7626  155.9394 H   0  0  0  0  0  0  0  0  0  0  0  0
  151.8049  137.6907  156.5792 H   0  0  0  0  0  0  0  0  0  0  0  0
  147.0693  138.7337  154.7197 H   0  0  0  0  0  0  0  0  0  0  0  0
  148.0078  138.0808  153.4064 H   0  0  0  0  0  0  0  0  0  0  0  0
  148.7970  136.0828  153.6188 H   0  0  0  0  0  0  0  0  0  0  0  0
  147.3439  133.6789  156.2115 H   0  0  0  0  0  0  0  0  0  0  0  0
  147.0963  134.0167  154.4559 H   0  0  0  0  0  0  0  0  0  0  0  0
  149.2146  132.1531  155.7169 H   0  0  0  0  0  0  0  0  0  0  0  0
  148.3715  131.9460  154.1317 H   0  0  0  0  0  0  0  0  0  0  0  0
  149.4693  133.9332  153.2040 H   0  0  0  0  0  0  0  0  0  0  0  0
  150.7580  133.5606  154.4115 H   0  0  0  0  0  0  0  0  0  0  0  0
  1  2  1  0  0  0  0
  1 20  1  0  0  0  0
  1 21  1  0  0  0  0
  1 22  1  0  0  0  0
  2  3  1  0  0  0  0
  2 23  1  0  0  0  0
  2 24  1  0  0  0  0
  3  9  1  0  0  0  0
  3  4  2  0  0  0  0
  4  5  1  0  0  0  0
  5  6  1  0  0  0  0
  6  7  1  0  0  0  0
  6  9  2  0  0  0  0
  7  8  1  0  0  0  0
  7 25  1  0  0  0  0
  7 26  1  0  0  0  0
  8 27  1  0  0  0  0
  8 28  1  0  0  0  0
  8 29  1  0  0  0  0
  9 10  1  0  0  0  0
 10 11  1  0  0  0  0
 10 30  1  0  0  0  0
 10 31  1  0  0  0  0
 11 12  2  0  0  0  0
 11 13  1  0  0  0  0
 13 14  1  0  0  0  0
 13 32  1  0  0  0  0
 14 19  1  0  0  0  0
 14 15  1  0  0  0  0
 14 17  1  0  0  0  0
 15 16  3  0  0  0  0
 17 18  1  0  0  0  0
 17 33  1  0  0  0  0
 17 34  1  0  0  0  0
 18 19  1  0  0  0  0
 18 35  1  0  0  0  0
 18 36  1  0  0  0  0
 19 37  1  0  0  0  0
 19 38  1  0  0  0  0
M  END
> <s_m_source_file>
AV-unprocessed.smi

> <i_m_source_file_index>
2890

> <i_lp_mmshare_version>
43012

> <i_f3d_flags>
0

> <s_epik_input>
W0NIM11bQ0gyXWMxbm9jKFtDSDJdW0NIM10pYzFbQ0gyXUMoPU8pW05IXUMyKEMjTilbQ0gyXVtDSDJdW0NIMl0y

> <s_epik_cmdline>
J2VwaWtfcHl0aG9uJywgJy1waCcsICc3LjAnLCAnLXRuJywgJzgnLCAnLW1hJywgJzIwMCcsICctbWV0YWxfYmluZGluZycsICctaW1hZScsICc8aW5maWxlLm1hZT4nLCAnLW9tYWUnLCAnPG91dGZpbGUubWFlPic=

> <r_lp_tautomer_probability>
1

> <r_epik_Ionization_Penalty>
5.40968e-07

> <r_epik_Ionization_Penalty_Charging>
0

> <r_epik_Ionization_Penalty_Neutral>
5.40968e-07

> <r_epik_State_Penalty>
-0

> <r_epik_Charging_Adjusted_Penalty>
0

> <i_epik_Tot_Q>
0

> <i_epik_Tot_abs_Q>
0

> <r_epik_Metal_State_Penalty>
-0

> <b_epik_Metal_Only>
0

> <s_lp_Force_Field>
OPLS_2005

> <r_lp_Energy>
4.95517

> <b_lp_Chiralities_Consistent>
1

> <s_lp_Variant>
AV-unprocessed.smi:2890-1

> <Gold.Version>
5.8.1

> <Gold.Id.Protein>
6NUR|6NUR_protein|mol2

> <Gold.PLP.Fitness>
35.3822

> <Gold.PLP.PLP>
-28.8115

> <Gold.PLP.part.hbond>
-4.0000

> <Gold.PLP.part.metal>
0.0000

> <Gold.PLP.part.buried>
-3.4732

> <Gold.PLP.part.nonpolar>
-21.7011

> <Gold.PLP.part.repulsive>
0.1996

> <Gold.PLP.ligand.clash>
0.0000

> <Gold.PLP.ligand.torsion>
0.8466

> <Gold.PLP.Chemscore.Hbond>
2.6708

> <Gold.PLP.Chemscore.CHOScore>
0.0000

> <Gold.PLP.Chemscore.Metal>
0.0000

> <Gold.Chemscore.Hbonds>
donor molecule, donor type, donor heavy atom, donor atom, acceptor molecule, acceptor atom, score
      L1  H    13    32       P1  7948  1.00
      P1  H  6896  6908       L1    16  0.67
      P1  H  7989  7998       L1     5  0.95

> <Gold.PLP.Chemscore.Internal.Correction>
0.2515

> <Gold.Rescore>
     Score         DG    S(hbond)    S(metal)    S(lipo)     H(rot)  DE(clash)    DE(int)     intcor
     13.00     -15.30       1.94        0.00      66.21       1.72       0.01       2.28       ----

> <Gold.Chemscore.Fitness>
13.0036

> <Gold.Chemscore.DG>
-15.2987

> <Gold.Chemscore.ZeroCoef>
-5.4800

> <Gold.Chemscore.Hbond>
1.9390

> <Gold.Chemscore.Metal>
0.0000

> <Gold.Chemscore.Lipo>
66.2079

> <Gold.Chemscore.Internal_Hbond>
0.0000

> <Gold.Chemscore.DEClash>
0.0126

> <Gold.Chemscore.DEInternal>
2.2825

> <Gold.Chemscore.Rot>
1.7202

> <Gold.Chemscore.Internal.Correction>
   9.000000E+99

> <Gold.Chemscore.Hbonds>
donor molecule, donor type, donor heavy atom, donor atom, acceptor molecule, acceptor atom, score
      L1  H    13    32       P1  7948  1.00
      P1  H  6896  6908       L1    16  0.66
      P1  H  7989  7998       L1     5  0.09

> <Gold.Chemscore.Hbond.Weighted>
-6.4761

> <Gold.Chemscore.Metal.Weighted>
-0.0000

> <Gold.Chemscore.Lipo.Weighted>
-7.7463

> <Gold.Chemscore.Internal_Hbond.Weighted>
0.0000

> <Gold.Chemscore.DEClash.Weighted>
0.0126

> <Gold.Chemscore.DEInternal.Weighted>
2.2825

> <Gold.Chemscore.Rot.Weighted>
4.4037

> <Gold.Chemscore.Internal.Correction.Weighted>
   9.000000E+99

> <Gold.Protein.RotatedTorsions>
[ 6907 6896 6895 6894 ] final  144.01 input  -60.11 | X-H torsion
[ 7974 7965 7964 7962 ] final  -18.29 input  175.53 | X-H torsion
[ 8008 7997 7996 7995 ] final   74.76 input   59.86 | X-H torsion
[ 10167 10162 10161 10158 ] final -124.87 input  -65.29 | X-H torsion
[ 10718 10713 10712 10709 ] final -112.05 input   66.30 | X-H torsion
[ 10763 10752 10751 10750 ] final -120.18 input  -60.55 | X-H torsion
[ 11005 11000 10999 10996 ] final  -50.63 input  -57.11 | X-H torsion

> <Gold.Protein.ActiveResidues>
 VAL166  LYS551  ARG553  GLY616  TRP617  ASP618  TYR619  PRO620  LYS621  CYS622 
 ASP623  PHE694  ASN695  SER759  ASP760  ASP761  ALA762  ILE779  LEU786  VAL792 
 PHE793  MET794  SER795  GLU796  ALA797  LYS798  CYS799  TRP800  GLU811  SER814 

> <Gold.Protein.RotatedAtoms>
  152.1991  133.4828  159.5048 H   0  0  0  0  0  0  0  0  0  0  0  0  # atno 6907 bound_to 6896
  150.6966  134.1613  159.4186 H   0  0  0  0  0  0  0  0  0  0  0  0  # atno 6908 bound_to 6896
  151.9530  135.0160  160.0594 H   0  0  0  0  0  0  0  0  0  0  0  0  # atno 6909 bound_to 6896
  146.1899  140.3900  142.8462 H   0  0  0  0  0  0  0  0  0  0  0  0  # atno 7974 bound_to 7965
  155.8030  140.3475  155.5413 H   0  0  0  0  0  0  0  0  0  0  0  0  # atno 8008 bound_to 7997
  155.8518  140.0957  157.1690 H   0  0  0  0  0  0  0  0  0  0  0  0  # atno 8009 bound_to 7997
  154.4008  140.1375  156.3841 H   0  0  0  0  0  0  0  0  0  0  0  0  # atno 8010 bound_to 7997
  139.9882  143.5669  152.2352 H   0  0  0  0  0  0  0  0  0  0  0  0  # atno 10167 bound_to 10162
  156.0683  130.5900  150.8456 H   0  0  0  0  0  0  0  0  0  0  0  0  # atno 10718 bound_to 10713
  154.8637  135.4212  154.2418 H   0  0  0  0  0  0  0  0  0  0  0  0  # atno 10763 bound_to 10752
  153.3382  135.6992  153.6895 H   0  0  0  0  0  0  0  0  0  0  0  0  # atno 10764 bound_to 10752
  153.5884  135.3559  155.2874 H   0  0  0  0  0  0  0  0  0  0  0  0  # atno 10765 bound_to 10752
  141.0826  133.6649  156.3759 H   0  0  0  0  0  0  0  0  0  0  0  0  # atno 11005 bound_to 11000
  144.8468  140.6941  143.6194 LP  0  0  0  0  0  0  0  0  0  0  0  0  # atno 17320 bound_to 7965
  145.3823  139.1634  143.4274 LP  0  0  0  0  0  0  0  0  0  0  0  0  # atno 17321 bound_to 7965
  139.6359  144.7650  151.2438 LP  0  0  0  0  0  0  0  0  0  0  0  0  # atno 17342 bound_to 10162
  140.7464  143.6399  150.8345 LP  0  0  0  0  0  0  0  0  0  0  0  0  # atno 17343 bound_to 10162
  157.5738  131.0946  150.9377 LP  0  0  0  0  0  0  0  0  0  0  0  0  # atno 17370 bound_to 10713
  156.9587  130.5447  149.5285 LP  0  0  0  0  0  0  0  0  0  0  0  0  # atno 17371 bound_to 10713
  140.5433  134.6099  157.5386 LP  0  0  0  0  0  0  0  0  0  0  0  0  # atno 17394 bound_to 11000
  139.9642  134.7402  156.0174 LP  0  0  0  0  0  0  0  0  0  0  0  0  # atno 17395 bound_to 11000

$$$$
