AV-unprocessed.smi:2077|AV-procd|sdf|8461|dock5
  -GOLD-   2272011163D 1   1.00000     0.00000
 Structure written by MMmdl.
 38 40  0  0  0  0  0  0  0  0  1 V2000
  151.8957  144.3671  160.9989 C   0  0  0  0  0  0  0  0  0  0  0  0
  152.2284  143.0710  160.3783 N   0  0  0  0  0  0  0  0  0  0  0  0
  151.6337  142.7497  159.1862 C   0  0  0  0  0  0  0  0  0  0  0  0
  150.8336  143.4670  158.5846 O   0  0  0  0  0  0  0  0  0  0  0  0
  152.0352  141.4418  158.6553 C   0  0  0  0  0  0  0  0  0  0  0  0
  152.9173  140.6279  159.2861 C   0  0  0  0  0  0  0  0  0  0  0  0
  153.1265  139.4565  158.5664 N   0  0  0  0  0  0  0  0  0  0  0  0
  152.3360  139.6336  157.5076 C   0  0  0  0  0  0  0  0  0  0  0  0
  151.6495  140.7936  157.4816 N   0  0  0  0  0  0  0  0  0  0  0  0
  150.7313  141.2203  156.4361 C   0  0  0  0  0  0  0  0  0  0  0  0
  150.2491  140.0521  155.5512 C   0  0  2  0  0  0  0  0  0  0  0  0
  151.2818  139.6305  154.6813 O   0  0  0  0  0  0  0  0  0  0  0  0
  148.9835  140.4200  154.7935 C   0  0  0  0  0  0  0  0  0  0  0  0
  148.4435  141.7195  154.9034 C   0  0  0  0  0  0  0  0  0  0  0  0
  147.2725  142.0627  154.1997 C   0  0  0  0  0  0  0  0  0  0  0  0
  146.6369  141.1100  153.3806 C   0  0  0  0  0  0  0  0  0  0  0  0
  147.1732  139.8132  153.2643 C   0  0  0  0  0  0  0  0  0  0  0  0
  146.5640  138.8968  152.4753 F   0  0  0  0  0  0  0  0  0  0  0  0
  148.3435  139.4692  153.9681 C   0  0  0  0  0  0  0  0  0  0  0  0
  153.4752  141.0606  160.5170 N   0  0  0  0  0  0  0  0  0  0  0  0
  154.4332  140.1947  161.2102 C   0  0  0  0  0  0  0  0  0  0  0  0
  153.1356  142.2759  161.0570 C   0  0  0  0  0  0  0  0  0  0  0  0
  153.6343  142.6444  162.1244 O   0  0  0  0  0  0  0  0  0  0  0  0
  151.1383  144.9478  160.4712 H   0  0  0  0  0  0  0  0  0  0  0  0
  152.7855  144.9955  161.0603 H   0  0  0  0  0  0  0  0  0  0  0  0
  151.5177  144.2215  162.0123 H   0  0  0  0  0  0  0  0  0  0  0  0
  152.2551  138.8960  156.7227 H   0  0  0  0  0  0  0  0  0  0  0  0
  149.8729  141.6925  156.9161 H   0  0  0  0  0  0  0  0  0  0  0  0
  151.2005  142.0002  155.8381 H   0  0  0  0  0  0  0  0  0  0  0  0
  150.0263  139.2010  156.1965 H   0  0  0  0  0  0  0  0  0  0  0  0
  151.8015  138.9786  155.1264 H   0  0  0  0  0  0  0  0  0  0  0  0
  148.9242  142.4585  155.5276 H   0  0  0  0  0  0  0  0  0  0  0  0
  146.8621  143.0579  154.2881 H   0  0  0  0  0  0  0  0  0  0  0  0
  145.7392  141.3737  152.8410 H   0  0  0  0  0  0  0  0  0  0  0  0
  148.7503  138.4730  153.8716 H   0  0  0  0  0  0  0  0  0  0  0  0
  154.0798  139.9565  162.2145 H   0  0  0  0  0  0  0  0  0  0  0  0
  155.4007  140.6908  161.2986 H   0  0  0  0  0  0  0  0  0  0  0  0
  154.5992  139.2495  160.6941 H   0  0  0  0  0  0  0  0  0  0  0  0
  1  2  1  0  0  0  0
  1 24  1  0  0  0  0
  1 25  1  0  0  0  0
  1 26  1  0  0  0  0
  2 22  1  0  0  0  0
  2  3  1  0  0  0  0
  3  4  2  0  0  0  0
  3  5  1  0  0  0  0
  5  9  1  0  0  0  0
  5  6  2  0  0  0  0
  6  7  1  0  0  0  0
  6 20  1  0  0  0  0
  7  8  2  0  0  0  0
  8  9  1  0  0  0  0
  8 27  1  0  0  0  0
  9 10  1  0  0  0  0
 10 11  1  0  0  0  0
 10 28  1  0  0  0  0
 10 29  1  0  0  0  0
 11 12  1  0  0  0  0
 11 13  1  0  0  0  0
 11 30  1  0  0  0  0
 12 31  1  0  0  0  0
 13 19  1  0  0  0  0
 13 14  2  0  0  0  0
 14 15  1  0  0  0  0
 14 32  1  0  0  0  0
 15 16  2  0  0  0  0
 15 33  1  0  0  0  0
 16 17  1  0  0  0  0
 16 34  1  0  0  0  0
 17 18  1  0  0  0  0
 17 19  2  0  0  0  0
 19 35  1  0  0  0  0
 20 21  1  0  0  0  0
 20 22  1  0  0  0  0
 21 36  1  0  0  0  0
 21 37  1  0  0  0  0
 21 38  1  0  0  0  0
 22 23  2  0  0  0  0
M  END
> <s_m_source_file>
AV-unprocessed.smi

> <i_m_source_file_index>
2077

> <i_lp_mmshare_version>
43012

> <i_f3d_flags>
0

> <s_epik_input>
Tz1jMW4oW0NIM10pYyg9TyluKFtDSDNdKWMoYzEyKW5bY0hdbjJbQ0gyXVtDQEhdKFtPSF0pYzNbY0hdW2NIXVtjSF1jKEYpW2NIXTM=

> <s_epik_cmdline>
J2VwaWtfcHl0aG9uJywgJy1waCcsICc3LjAnLCAnLXRuJywgJzgnLCAnLW1hJywgJzIwMCcsICctbWV0YWxfYmluZGluZycsICctaW1hZScsICc8aW5maWxlLm1hZT4nLCAnLW9tYWUnLCAnPG91dGZpbGUubWFlPic=

> <r_lp_tautomer_probability>
1

> <r_epik_Ionization_Penalty>
1.5338e-06

> <r_epik_Ionization_Penalty_Charging>
3.74189e-09

> <r_epik_Ionization_Penalty_Neutral>
1.53006e-06

> <r_epik_State_Penalty>
-0

> <r_epik_Charging_Adjusted_Penalty>
3.74189e-09

> <i_epik_Tot_Q>
0

> <i_epik_Tot_abs_Q>
0

> <r_epik_Metal_State_Penalty>
-0

> <b_epik_Metal_Only>
0

> <s_lp_Force_Field>
OPLS_2005

> <r_lp_Energy>
35.2177

> <b_lp_Chiralities_Consistent>
1

> <s_lp_Variant>
AV-unprocessed.smi:2077-1

> <Gold.Version>
5.8.1

> <Gold.Id.Protein>
6NUR|6NUR_protein|mol2

> <Gold.PLP.Fitness>
51.6336

> <Gold.PLP.PLP>
-48.5444

> <Gold.PLP.part.hbond>
-2.2352

> <Gold.PLP.part.metal>
0.0000

> <Gold.PLP.part.buried>
2.5571

> <Gold.PLP.part.nonpolar>
-47.6942

> <Gold.PLP.part.repulsive>
0.1571

> <Gold.PLP.ligand.clash>
0.0000

> <Gold.PLP.ligand.torsion>
0.3876

> <Gold.PLP.Chemscore.Hbond>
1.2782

> <Gold.PLP.Chemscore.CHOScore>
0.0000

> <Gold.PLP.Chemscore.Metal>
0.0000

> <Gold.Chemscore.Hbonds>
donor molecule, donor type, donor heavy atom, donor atom, acceptor molecule, acceptor atom, score
      P1  H  7989  7998       L1    12  1.00
      P1  H  7997  8010       L1     7  0.14

> <Gold.PLP.Chemscore.Internal.Correction>
0.0296

> <Gold.Rescore>
     Score         DG    S(hbond)    S(metal)    S(lipo)     H(rot)  DE(clash)    DE(int)     intcor
     11.49     -12.11       0.94        0.00      78.88       2.24       0.08       0.54       ----

> <Gold.Chemscore.Fitness>
11.4912

> <Gold.Chemscore.DG>
-12.1104

> <Gold.Chemscore.ZeroCoef>
-5.4800

> <Gold.Chemscore.Hbond>
0.9372

> <Gold.Chemscore.Metal>
0.0000

> <Gold.Chemscore.Lipo>
78.8781

> <Gold.Chemscore.Internal_Hbond>
0.0000

> <Gold.Chemscore.DEClash>
0.0750

> <Gold.Chemscore.DEInternal>
0.5442

> <Gold.Chemscore.Rot>
2.2377

> <Gold.Chemscore.Internal.Correction>
   9.000000E+99

> <Gold.Chemscore.Hbonds>
donor molecule, donor type, donor heavy atom, donor atom, acceptor molecule, acceptor atom, score
      P1  H  7989  7998       L1    12  0.78

> <Gold.Chemscore.Hbond.Weighted>
-3.1303

> <Gold.Chemscore.Metal.Weighted>
-0.0000

> <Gold.Chemscore.Lipo.Weighted>
-9.2287

> <Gold.Chemscore.Internal_Hbond.Weighted>
0.0000

> <Gold.Chemscore.DEClash.Weighted>
0.0750

> <Gold.Chemscore.DEInternal.Weighted>
0.5442

> <Gold.Chemscore.Rot.Weighted>
5.7286

> <Gold.Chemscore.Internal.Correction.Weighted>
   9.000000E+99

> <Gold.Protein.RotatedTorsions>
[ 6907 6896 6895 6894 ] final   93.64 input  -60.11 | X-H torsion
[ 7974 7965 7964 7962 ] final  113.10 input  175.53 | X-H torsion
[ 8008 7997 7996 7995 ] final    8.04 input   59.86 | X-H torsion
[ 10167 10162 10161 10158 ] final   83.35 input  -65.29 | X-H torsion
[ 10718 10713 10712 10709 ] final  -75.35 input   66.30 | X-H torsion
[ 10763 10752 10751 10750 ] final  -79.73 input  -60.55 | X-H torsion
[ 11005 11000 10999 10996 ] final  -63.31 input  -57.11 | X-H torsion

> <Gold.Protein.ActiveResidues>
 VAL166  LYS551  ARG553  GLY616  TRP617  ASP618  TYR619  PRO620  LYS621  CYS622 
 ASP623  PHE694  ASN695  SER759  ASP760  ASP761  ALA762  ILE779  LEU786  VAL792 
 PHE793  MET794  SER795  GLU796  ALA797  LYS798  CYS799  TRP800  GLU811  SER814 

> <Gold.Protein.RotatedAtoms>
  152.5452  134.1316  159.8441 H   0  0  0  0  0  0  0  0  0  0  0  0  # atno 6907 bound_to 6896
  151.1361  133.4996  159.2605 H   0  0  0  0  0  0  0  0  0  0  0  0  # atno 6908 bound_to 6896
  151.1623  135.0289  159.8770 H   0  0  0  0  0  0  0  0  0  0  0  0  # atno 6909 bound_to 6896
  145.2212  139.2861  143.4217 H   0  0  0  0  0  0  0  0  0  0  0  0  # atno 7974 bound_to 7965
  154.7616  140.2785  155.6209 H   0  0  0  0  0  0  0  0  0  0  0  0  # atno 8008 bound_to 7997
  156.2916  140.2659  156.2323 H   0  0  0  0  0  0  0  0  0  0  0  0  # atno 8009 bound_to 7997
  155.0010  140.0373  157.2350 H   0  0  0  0  0  0  0  0  0  0  0  0  # atno 8010 bound_to 7997
  139.9193  144.6222  150.8456 H   0  0  0  0  0  0  0  0  0  0  0  0  # atno 10167 bound_to 10162
  156.0211  130.4438  150.3029 H   0  0  0  0  0  0  0  0  0  0  0  0  # atno 10718 bound_to 10713
  154.5423  135.5685  153.6850 H   0  0  0  0  0  0  0  0  0  0  0  0  # atno 10763 bound_to 10752
  152.9967  135.6231  154.2485 H   0  0  0  0  0  0  0  0  0  0  0  0  # atno 10764 bound_to 10752
  154.2416  135.2862  155.2831 H   0  0  0  0  0  0  0  0  0  0  0  0  # atno 10765 bound_to 10752
  141.1389  133.6650  156.5661 H   0  0  0  0  0  0  0  0  0  0  0  0  # atno 11005 bound_to 11000
  146.3375  140.2518  142.8599 LP  0  0  0  0  0  0  0  0  0  0  0  0  # atno 17320 bound_to 7965
  144.9764  140.8417  143.5424 LP  0  0  0  0  0  0  0  0  0  0  0  0  # atno 17321 bound_to 7965
  140.7666  143.3308  151.2414 LP  0  0  0  0  0  0  0  0  0  0  0  0  # atno 17342 bound_to 10162
  139.6875  143.9749  152.2842 LP  0  0  0  0  0  0  0  0  0  0  0  0  # atno 17343 bound_to 10162
  157.1132  131.0227  151.3039 LP  0  0  0  0  0  0  0  0  0  0  0  0  # atno 17370 bound_to 10713
  157.4688  130.7696  149.7304 LP  0  0  0  0  0  0  0  0  0  0  0  0  # atno 17371 bound_to 10713
  140.3949  134.7407  157.4744 LP  0  0  0  0  0  0  0  0  0  0  0  0  # atno 17394 bound_to 11000
  140.0538  134.6092  155.8829 LP  0  0  0  0  0  0  0  0  0  0  0  0  # atno 17395 bound_to 11000

$$$$
