AV-unprocessed.smi:1795|AV-procd|sdf|7240|dock3
  -GOLD-   22720 8483D 1   1.00000     0.00000
 Structure written by MMmdl.
 47 48  0  0  0  0  0  0  0  0  1 V2000
  154.3797  140.2684  160.2767 C   0  0  0  0  0  0  0  0  0  0  0  0
  153.0108  140.6789  159.7237 C   0  0  1  0  0  0  0  0  0  0  0  0
  152.6961  142.1610  160.0011 C   0  0  0  0  0  0  0  0  0  0  0  0
  151.4276  142.6018  159.4093 N   0  0  0  0  0  0  0  0  0  0  0  0
  151.1580  144.0389  159.6500 C   0  0  1  0  0  0  0  0  0  0  0  0
  152.3050  144.9572  159.1572 C   0  0  0  0  0  0  0  0  0  0  0  0
  149.8227  144.5337  159.0213 C   0  0  0  0  0  0  0  0  0  0  0  0
  148.6460  144.1727  159.8072 N   0  0  0  0  0  0  0  0  0  0  0  0
  147.9488  145.0198  160.5795 C   0  0  0  0  0  0  0  0  0  0  0  0
  148.2287  146.2144  160.6910 O   0  0  0  0  0  0  0  0  0  0  0  0
  146.7426  144.4221  161.3180 C   0  0  0  0  0  0  0  0  0  0  0  0
  145.6103  144.1135  160.4284 N   0  0  0  0  0  0  0  0  0  0  0  0
  145.1445  145.1523  159.5979 C   0  0  0  0  0  0  0  0  0  0  0  0
  144.1173  144.9779  158.7514 C   0  0  0  0  0  0  0  0  0  0  0  0
  143.4843  143.6811  158.7040 C   0  0  0  0  0  0  0  0  0  0  0  0
  143.9191  142.6817  159.4972 C   0  0  0  0  0  0  0  0  0  0  0  0
  145.0398  142.8690  160.4262 C   0  0  0  0  0  0  0  0  0  0  0  0
  145.4412  141.9627  161.1571 O   0  0  0  0  0  0  0  0  0  0  0  0
  151.4603  142.2716  157.9801 C   0  0  0  0  0  0  0  0  0  0  0  0
  151.7724  140.7874  157.7106 C   0  0  1  0  0  0  0  0  0  0  0  0
  151.8766  140.4801  156.2131 C   0  0  0  0  0  0  0  0  0  0  0  0
  153.0131  140.4552  158.3198 O   0  0  0  0  0  0  0  0  0  0  0  0
  154.4245  140.4077  161.3571 H   0  0  0  0  0  0  0  0  0  0  0  0
  155.1788  140.8603  159.8292 H   0  0  0  0  0  0  0  0  0  0  0  0
  154.5858  139.2185  160.0679 H   0  0  0  0  0  0  0  0  0  0  0  0
  152.2452  140.0501  160.1819 H   0  0  0  0  0  0  0  0  0  0  0  0
  152.6773  142.2774  161.0822 H   0  0  0  0  0  0  0  0  0  0  0  0
  153.5114  142.7832  159.6282 H   0  0  0  0  0  0  0  0  0  0  0  0
  151.0789  144.1832  160.7287 H   0  0  0  0  0  0  0  0  0  0  0  0
  152.0731  146.0144  159.2802 H   0  0  0  0  0  0  0  0  0  0  0  0
  152.5176  144.7901  158.1008 H   0  0  0  0  0  0  0  0  0  0  0  0
  153.2265  144.8015  159.7163 H   0  0  0  0  0  0  0  0  0  0  0  0
  149.8429  145.6189  158.9151 H   0  0  0  0  0  0  0  0  0  0  0  0
  149.6605  144.1333  158.0220 H   0  0  0  0  0  0  0  0  0  0  0  0
  148.3463  143.2093  159.7654 H   0  0  0  0  0  0  0  0  0  0  0  0
  147.0766  143.5239  161.8392 H   0  0  0  0  0  0  0  0  0  0  0  0
  146.4224  145.1065  162.1061 H   0  0  0  0  0  0  0  0  0  0  0  0
  145.6664  146.0927  159.6991 H   0  0  0  0  0  0  0  0  0  0  0  0
  143.7708  145.7872  158.1255 H   0  0  0  0  0  0  0  0  0  0  0  0
  142.6575  143.5119  158.0302 H   0  0  0  0  0  0  0  0  0  0  0  0
  143.4322  141.7188  159.4490 H   0  0  0  0  0  0  0  0  0  0  0  0
  150.4973  142.4835  157.5183 H   0  0  0  0  0  0  0  0  0  0  0  0
  152.1986  142.8966  157.4748 H   0  0  0  0  0  0  0  0  0  0  0  0
  150.9863  140.1641  158.1411 H   0  0  0  0  0  0  0  0  0  0  0  0
  150.9423  140.7076  155.6996 H   0  0  0  0  0  0  0  0  0  0  0  0
  152.0985  139.4257  156.0469 H   0  0  0  0  0  0  0  0  0  0  0  0
  152.6682  141.0653  155.7441 H   0  0  0  0  0  0  0  0  0  0  0  0
  1  2  1  0  0  0  0
  1 23  1  0  0  0  0
  1 24  1  0  0  0  0
  1 25  1  0  0  0  0
  2 22  1  0  0  0  0
  2  3  1  0  0  0  0
  2 26  1  0  0  0  0
  3  4  1  0  0  0  0
  3 27  1  0  0  0  0
  3 28  1  0  0  0  0
  4  5  1  0  0  0  0
  4 19  1  0  0  0  0
  5  6  1  0  0  0  0
  5  7  1  0  0  0  0
  5 29  1  0  0  0  0
  6 30  1  0  0  0  0
  6 31  1  0  0  0  0
  6 32  1  0  0  0  0
  7  8  1  0  0  0  0
  7 33  1  0  0  0  0
  7 34  1  0  0  0  0
  8  9  1  0  0  0  0
  8 35  1  0  0  0  0
  9 10  2  0  0  0  0
  9 11  1  0  0  0  0
 11 12  1  0  0  0  0
 11 36  1  0  0  0  0
 11 37  1  0  0  0  0
 12 17  1  0  0  0  0
 12 13  1  0  0  0  0
 13 14  2  0  0  0  0
 13 38  1  0  0  0  0
 14 15  1  0  0  0  0
 14 39  1  0  0  0  0
 15 16  2  0  0  0  0
 15 40  1  0  0  0  0
 16 17  1  0  0  0  0
 16 41  1  0  0  0  0
 17 18  2  0  0  0  0
 19 20  1  0  0  0  0
 19 42  1  0  0  0  0
 19 43  1  0  0  0  0
 20 21  1  0  0  0  0
 20 22  1  0  0  0  0
 20 44  1  0  0  0  0
 21 45  1  0  0  0  0
 21 46  1  0  0  0  0
 21 47  1  0  0  0  0
M  END
> <s_m_source_file>
AV-unprocessed.smi

> <i_m_source_file_index>
1795

> <i_lp_mmshare_version>
43012

> <i_f3d_flags>
0

> <s_epik_input>
W0NIM11bQ0BASF0xW0NIMl1OKFtDSDJdW0NASF0oTzEpW0NIM10pW0NASF0oW0NIM10pW0NIMl1bTkhdQyg9TylbQ0gyXW4yW2NIXVtjSF1bY0hdW2NIXWMyPU8=

> <s_epik_cmdline>
J2VwaWtfcHl0aG9uJywgJy1waCcsICc3LjAnLCAnLXRuJywgJzgnLCAnLW1hJywgJzIwMCcsICctbWV0YWxfYmluZGluZycsICctaW1hZScsICc8aW5maWxlLm1hZT4nLCAnLW9tYWUnLCAnPG91dGZpbGUubWFlPic=

> <r_lp_tautomer_probability>
1

> <r_epik_Ionization_Penalty>
0.237383

> <r_epik_Ionization_Penalty_Charging>
3.58805e-07

> <r_epik_Ionization_Penalty_Neutral>
0.237382

> <r_epik_State_Penalty>
0.228245

> <r_epik_Charging_Adjusted_Penalty>
0.228245

> <i_epik_Tot_Q>
0

> <i_epik_Tot_abs_Q>
0

> <r_epik_Metal_State_Penalty>
0.228221

> <b_epik_Metal_Only>
0

> <s_lp_Force_Field>
OPLS_2005

> <r_lp_Energy>
36.5227

> <b_lp_Chiralities_Consistent>
1

> <s_lp_Variant>
AV-unprocessed.smi:1795-4

> <Gold.Version>
5.8.1

> <Gold.Id.Protein>
6NUR|6NUR_protein|mol2

> <Gold.PLP.Fitness>
45.4027

> <Gold.PLP.PLP>
-42.0339

> <Gold.PLP.part.hbond>
-4.5504

> <Gold.PLP.part.metal>
0.0000

> <Gold.PLP.part.buried>
-6.0753

> <Gold.PLP.part.nonpolar>
-32.2798

> <Gold.PLP.part.repulsive>
0.4348

> <Gold.PLP.ligand.clash>
0.0000

> <Gold.PLP.ligand.torsion>
0.5296

> <Gold.PLP.Chemscore.Hbond>
1.4575

> <Gold.PLP.Chemscore.CHOScore>
0.0000

> <Gold.PLP.Chemscore.Metal>
0.0000

> <Gold.Chemscore.Hbonds>
donor molecule, donor type, donor heavy atom, donor atom, acceptor molecule, acceptor atom, score
      P1  H  6934  6946       L1    18  0.91
      P1  H  7997  8008       L1    22  0.73

> <Gold.PLP.Chemscore.Internal.Correction>
0.0557

> <Gold.Rescore>
     Score         DG    S(hbond)    S(metal)    S(lipo)     H(rot)  DE(clash)    DE(int)     intcor
     15.64     -16.39       1.60        0.00      87.63       1.83       0.29       0.47       ----

> <Gold.Chemscore.Fitness>
15.6432

> <Gold.Chemscore.DG>
-16.3948

> <Gold.Chemscore.ZeroCoef>
-5.4800

> <Gold.Chemscore.Hbond>
1.5973

> <Gold.Chemscore.Metal>
0.0000

> <Gold.Chemscore.Lipo>
87.6259

> <Gold.Chemscore.Internal_Hbond>
0.0000

> <Gold.Chemscore.DEClash>
0.2855

> <Gold.Chemscore.DEInternal>
0.4660

> <Gold.Chemscore.Rot>
1.8251

> <Gold.Chemscore.Internal.Correction>
   9.000000E+99

> <Gold.Chemscore.Hbonds>
donor molecule, donor type, donor heavy atom, donor atom, acceptor molecule, acceptor atom, score
      P1  H  6934  6946       L1    18  0.88
      P1  H  7997  8008       L1    22  0.59

> <Gold.Chemscore.Hbond.Weighted>
-5.3349

> <Gold.Chemscore.Metal.Weighted>
-0.0000

> <Gold.Chemscore.Lipo.Weighted>
-10.2522

> <Gold.Chemscore.Internal_Hbond.Weighted>
0.0000

> <Gold.Chemscore.DEClash.Weighted>
0.2855

> <Gold.Chemscore.DEInternal.Weighted>
0.4660

> <Gold.Chemscore.Rot.Weighted>
4.6724

> <Gold.Chemscore.Internal.Correction.Weighted>
   9.000000E+99

> <Gold.Protein.RotatedTorsions>
[ 6907 6896 6895 6894 ] final  -52.78 input  -60.11 | X-H torsion
[ 7974 7965 7964 7962 ] final -169.08 input  175.53 | X-H torsion
[ 8008 7997 7996 7995 ] final  -78.27 input   59.86 | X-H torsion
[ 10167 10162 10161 10158 ] final -146.11 input  -65.29 | X-H torsion
[ 10718 10713 10712 10709 ] final -144.14 input   66.30 | X-H torsion
[ 10763 10752 10751 10750 ] final -166.02 input  -60.55 | X-H torsion
[ 11005 11000 10999 10996 ] final  -93.08 input  -57.11 | X-H torsion

> <Gold.Protein.ActiveResidues>
 VAL166  LYS551  ARG553  GLY616  TRP617  ASP618  TYR619  PRO620  LYS621  CYS622 
 ASP623  PHE694  ASN695  SER759  ASP760  ASP761  ALA762  ILE779  LEU786  VAL792 
 PHE793  MET794  SER795  GLU796  ALA797  LYS798  CYS799  TRP800  GLU811  SER814 

> <Gold.Protein.RotatedAtoms>
  150.8487  134.7804  159.6990 H   0  0  0  0  0  0  0  0  0  0  0  0  # atno 6907 bound_to 6896
  152.4557  134.5293  159.9816 H   0  0  0  0  0  0  0  0  0  0  0  0  # atno 6908 bound_to 6896
  151.5419  133.3393  159.2972 H   0  0  0  0  0  0  0  0  0  0  0  0  # atno 6909 bound_to 6896
  144.7191  140.2275  143.6308 H   0  0  0  0  0  0  0  0  0  0  0  0  # atno 7974 bound_to 7965
  154.5674  140.0697  156.8912 H   0  0  0  0  0  0  0  0  0  0  0  0  # atno 8008 bound_to 7997
  155.2698  140.3364  155.4248 H   0  0  0  0  0  0  0  0  0  0  0  0  # atno 8009 bound_to 7997
  156.2091  140.1752  156.7720 H   0  0  0  0  0  0  0  0  0  0  0  0  # atno 8010 bound_to 7997
  139.7743  143.8192  152.2629 H   0  0  0  0  0  0  0  0  0  0  0  0  # atno 10167 bound_to 10162
  156.3664  130.7765  151.1940 H   0  0  0  0  0  0  0  0  0  0  0  0  # atno 10718 bound_to 10713
  154.6874  135.2965  154.9527 H   0  0  0  0  0  0  0  0  0  0  0  0  # atno 10763 bound_to 10752
  154.0502  135.6645  153.4803 H   0  0  0  0  0  0  0  0  0  0  0  0  # atno 10764 bound_to 10752
  153.0589  135.5128  154.7949 H   0  0  0  0  0  0  0  0  0  0  0  0  # atno 10765 bound_to 10752
  141.1506  133.7864  157.0110 H   0  0  0  0  0  0  0  0  0  0  0  0  # atno 11005 bound_to 11000
  145.8443  139.2144  143.1809 LP  0  0  0  0  0  0  0  0  0  0  0  0  # atno 17320 bound_to 7965
  146.0318  140.8250  142.9872 LP  0  0  0  0  0  0  0  0  0  0  0  0  # atno 17321 bound_to 7965
  139.8236  144.7285  150.9541 LP  0  0  0  0  0  0  0  0  0  0  0  0  # atno 17342 bound_to 10162
  140.7815  143.4136  151.0953 LP  0  0  0  0  0  0  0  0  0  0  0  0  # atno 17343 bound_to 10162
  157.7479  131.0385  150.4505 LP  0  0  0  0  0  0  0  0  0  0  0  0  # atno 17370 bound_to 10713
  156.4725  130.4056  149.6510 LP  0  0  0  0  0  0  0  0  0  0  0  0  # atno 17371 bound_to 10713
  140.0877  134.9611  157.1727 LP  0  0  0  0  0  0  0  0  0  0  0  0  # atno 17394 bound_to 11000
  140.3488  134.2622  155.7201 LP  0  0  0  0  0  0  0  0  0  0  0  0  # atno 17395 bound_to 11000

$$$$
