AV-unprocessed.smi:102|AV-procd|sdf|965|dock1
  -GOLD-   2262017503D 1   1.00000     0.00000
 Structure written by MMmdl.
 43 44  0  0  0  0  0  0  0  0  2 V2000
  149.1367  131.1836  159.8858 C   0  0  0  0  0  0  0  0  0  0  0  0
  149.6151  131.5808  158.4950 C   0  0  0  0  0  0  0  0  0  0  0  0
  150.8089  131.7642  158.2569 O   0  0  0  0  0  0  0  0  0  0  0  0
  148.6083  131.6964  157.6158 O   0  0  0  0  0  0  0  0  0  0  0  0
  148.8978  131.9067  156.2437 C   0  0  0  0  0  0  0  0  0  0  0  0
  148.5167  133.3432  155.8540 C   0  0  2  0  0  0  0  0  0  0  0  0
  149.6869  134.1475  155.7981 O   0  0  0  0  0  0  0  0  0  0  0  0
  149.9152  134.7048  157.0522 C   0  0  1  0  0  0  0  0  0  0  0  0
  150.6577  136.0069  156.8884 N   0  0  0  0  0  0  0  0  0  0  0  0
  151.1364  136.3902  155.6475 C   0  0  0  0  0  0  0  0  0  0  0  0
  151.7780  137.5642  155.4792 C   0  0  0  0  0  0  0  0  0  0  0  0
  152.2325  137.9108  154.2627 F   0  0  0  0  0  0  0  0  0  0  0  0
  151.9680  138.4545  156.6230 C   0  0  0  0  0  0  0  0  0  0  0  0
  152.5638  139.5189  156.4662 O   0  0  0  0  0  0  0  0  0  0  0  0
  151.4655  138.0600  157.8290 N   0  5  0  0  0  0  0  0  0  0  0  0
  150.8073  136.8761  158.0024 C   0  0  0  0  0  0  0  0  0  0  0  0
  150.3266  136.5250  159.0799 O   0  0  0  0  0  0  0  0  0  0  0  0
  148.5491  134.9475  157.6933 C   0  0  2  0  0  0  0  0  0  0  0  0
  148.5889  134.6160  159.0739 O   0  0  0  0  0  0  0  0  0  0  0  0
  147.8144  135.2804  159.9473 C   0  0  0  0  0  0  0  0  0  0  0  0
  147.4244  134.4250  161.1453 C   0  0  0  0  0  0  0  0  0  0  0  0
  147.4286  136.4443  159.8355 O   0  0  0  0  0  0  0  0  0  0  0  0
  147.6277  134.0123  156.9151 C   0  0  1  0  0  0  0  0  0  0  0  0
  146.5869  134.7793  156.3227 O   0  0  0  0  0  0  0  0  0  0  0  0
  145.6637  134.1860  155.5471 C   0  0  0  0  0  0  0  0  0  0  0  0
  144.6538  135.1775  154.9847 C   0  0  0  0  0  0  0  0  0  0  0  0
  145.6007  132.9850  155.2837 O   0  0  0  0  0  0  0  0  0  0  0  0
  148.0487  131.1246  159.9235 H   0  0  0  0  0  0  0  0  0  0  0  0
  149.4678  131.9166  160.6215 H   0  0  0  0  0  0  0  0  0  0  0  0
  149.5443  130.2105  160.1602 H   0  0  0  0  0  0  0  0  0  0  0  0
  149.9669  131.7575  156.0849 H   0  0  0  0  0  0  0  0  0  0  0  0
  148.3717  131.1794  155.6240 H   0  0  0  0  0  0  0  0  0  0  0  0
  148.0284  133.3339  154.8786 H   0  0  0  0  0  0  0  0  0  0  0  0
  150.5584  134.0258  157.6155 H   0  0  0  0  0  0  0  0  0  0  0  0
  150.9919  135.7469  154.7923 H   0  0  0  0  0  0  0  0  0  0  0  0
  148.2689  135.9909  157.5355 H   0  0  0  0  0  0  0  0  0  0  0  0
  148.2561  133.7879  161.4464 H   0  0  0  0  0  0  0  0  0  0  0  0
  146.5735  133.7912  160.8956 H   0  0  0  0  0  0  0  0  0  0  0  0
  147.1508  135.0561  161.9910 H   0  0  0  0  0  0  0  0  0  0  0  0
  147.2015  133.2637  157.5852 H   0  0  0  0  0  0  0  0  0  0  0  0
  144.3801  135.9142  155.7401 H   0  0  0  0  0  0  0  0  0  0  0  0
  143.7490  134.6608  154.6643 H   0  0  0  0  0  0  0  0  0  0  0  0
  145.0765  135.7000  154.1267 H   0  0  0  0  0  0  0  0  0  0  0  0
  1  2  1  0  0  0  0
  1 28  1  0  0  0  0
  1 29  1  0  0  0  0
  1 30  1  0  0  0  0
  2  3  2  0  0  0  0
  2  4  1  0  0  0  0
  4  5  1  0  0  0  0
  5  6  1  0  0  0  0
  5 31  1  0  0  0  0
  5 32  1  0  0  0  0
  6 23  1  0  0  0  0
  6  7  1  0  0  0  0
  6 33  1  0  0  0  0
  7  8  1  0  0  0  0
  8  9  1  0  0  0  0
  8 18  1  0  0  0  0
  8 34  1  0  0  0  0
  9 16  1  0  0  0  0
  9 10  1  0  0  0  0
 10 11  2  0  0  0  0
 10 35  1  0  0  0  0
 11 12  1  0  0  0  0
 11 13  1  0  0  0  0
 13 14  2  0  0  0  0
 13 15  1  0  0  0  0
 15 16  1  0  0  0  0
 16 17  2  0  0  0  0
 18 19  1  0  0  0  0
 18 23  1  0  0  0  0
 18 36  1  0  0  0  0
 19 20  1  0  0  0  0
 20 21  1  0  0  0  0
 20 22  2  0  0  0  0
 21 37  1  0  0  0  0
 21 38  1  0  0  0  0
 21 39  1  0  0  0  0
 23 24  1  0  0  0  0
 23 40  1  0  0  0  0
 24 25  1  0  0  0  0
 25 26  1  0  0  0  0
 25 27  2  0  0  0  0
 26 41  1  0  0  0  0
 26 42  1  0  0  0  0
 26 43  1  0  0  0  0
M  CHG  1  15  -1
M  END
> <s_m_source_file>
AV-unprocessed.smi

> <i_m_source_file_index>
102

> <i_lp_mmshare_version>
43012

> <i_f3d_flags>
0

> <s_epik_input>
W0NIM11DKD1PKU9bQ0gyXVtDQEBIXTFPW0NASF0oW0NAQEhdKE9DKD1PKVtDSDNdKVtDQEhdMU9DKD1PKVtDSDNdKW4yW2NIXWMoRiljKD1PKVtuSF1jMj1P

> <s_epik_cmdline>
J2VwaWtfcHl0aG9uJywgJy1waCcsICc3LjAnLCAnLXRuJywgJzgnLCAnLW1hJywgJzIwMCcsICctbWV0YWxfYmluZGluZycsICctaW1hZScsICc8aW5maWxlLm1hZT4nLCAnLW9tYWUnLCAnPG91dGZpbGUubWFlPic=

> <r_epik_Ionization_Penalty>
1.40304

> <r_epik_Ionization_Penalty_Charging>
1.43915e-08

> <r_epik_Ionization_Penalty_Neutral>
1.40304

> <r_epik_State_Penalty>
1.48536

> <r_epik_Charging_Adjusted_Penalty>
1.48536

> <i_epik_Tot_Q>
-1

> <i_epik_Tot_abs_Q>
1

> <r_epik_Metal_State_Penalty>
0.00663881

> <b_epik_Metal_Only>
0

> <s_epik_Chemistry_Notes>
This compound has an ester and may undergo hydrolysis at high or low pH. This compound contains an acetal/aminal-like group ( X-CH(R)-Y where X, Y are N, S, or O) that may be acid/base labile, releasing an aldehyde.

> <s_lp_Force_Field>
OPLS_2005

> <r_lp_Energy>
22.1455

> <b_lp_Chiralities_Consistent>
1

> <s_lp_Variant>
AV-unprocessed.smi:102-21

> <Gold.Version>
5.8.1

> <Gold.Id.Protein>
6NUR|6NUR_protein|mol2

> <Gold.PLP.Fitness>
34.6584

> <Gold.PLP.PLP>
-24.3155

> <Gold.PLP.part.hbond>
-5.4790

> <Gold.PLP.part.metal>
0.0000

> <Gold.PLP.part.buried>
-5.0205

> <Gold.PLP.part.nonpolar>
-13.4476

> <Gold.PLP.part.repulsive>
0.0923

> <Gold.PLP.ligand.clash>
0.0000

> <Gold.PLP.ligand.torsion>
1.9790

> <Gold.PLP.Chemscore.Hbond>
4.6640

> <Gold.PLP.Chemscore.CHOScore>
0.0000

> <Gold.PLP.Chemscore.Metal>
0.0000

> <Gold.Chemscore.Hbonds>
donor molecule, donor type, donor heavy atom, donor atom, acceptor molecule, acceptor atom, score
      P1  H  6896  6908       L1     3  1.00
      P1  H  6896  6909       L1    17  1.00
      P1  H  7997  8008       L1    14  1.00

> <Gold.PLP.Chemscore.Internal.Correction>
0.3091

> <Gold.Rescore>
     Score         DG    S(hbond)    S(metal)    S(lipo)     H(rot)  DE(clash)    DE(int)     intcor
      9.22     -13.93       4.61        0.00      27.93       4.00       0.00       4.71       ----

> <Gold.Chemscore.Fitness>
9.2198

> <Gold.Chemscore.DG>
-13.9316

> <Gold.Chemscore.ZeroCoef>
-5.4800

> <Gold.Chemscore.Hbond>
4.6142

> <Gold.Chemscore.Metal>
0.0000

> <Gold.Chemscore.Lipo>
27.9273

> <Gold.Chemscore.Internal_Hbond>
0.0000

> <Gold.Chemscore.DEClash>
0.0021

> <Gold.Chemscore.DEInternal>
4.7097

> <Gold.Chemscore.Rot>
3.9951

> <Gold.Chemscore.Internal.Correction>
   9.000000E+99

> <Gold.Chemscore.Hbonds>
donor molecule, donor type, donor heavy atom, donor atom, acceptor molecule, acceptor atom, score
      P1  H  6896  6908       L1     3  0.55
      P1  H  6896  6909       L1    17  0.93
      P1  H  7997  8008       L1    14  1.00

> <Gold.Chemscore.Hbond.Weighted>
-15.4116

> <Gold.Chemscore.Metal.Weighted>
-0.0000

> <Gold.Chemscore.Lipo.Weighted>
-3.2675

> <Gold.Chemscore.Internal_Hbond.Weighted>
0.0000

> <Gold.Chemscore.DEClash.Weighted>
0.0021

> <Gold.Chemscore.DEInternal.Weighted>
4.7097

> <Gold.Chemscore.Rot.Weighted>
10.2274

> <Gold.Chemscore.Internal.Correction.Weighted>
   9.000000E+99

> <Gold.Protein.RotatedTorsions>
[ 6907 6896 6895 6894 ] final   80.90 input  -60.11 | X-H torsion
[ 7974 7965 7964 7962 ] final  111.29 input  175.53 | X-H torsion
[ 8008 7997 7996 7995 ] final  -48.71 input   59.86 | X-H torsion
[ 10167 10162 10161 10158 ] final  -20.98 input  -65.29 | X-H torsion
[ 10718 10713 10712 10709 ] final -110.93 input   66.30 | X-H torsion
[ 10763 10752 10751 10750 ] final  -13.56 input  -60.55 | X-H torsion
[ 11005 11000 10999 10996 ] final  -20.17 input  -57.11 | X-H torsion

> <Gold.Protein.ActiveResidues>
 VAL166  LYS551  ARG553  GLY616  TRP617  ASP618  TYR619  PRO620  LYS621  CYS622 
 ASP623  PHE694  ASN695  SER759  ASP760  ASP761  ALA762  ILE779  LEU786  VAL792 
 PHE793  MET794  SER795  GLU796  ALA797  LYS798  CYS799  TRP800  GLU811  SER814 

> <Gold.Protein.RotatedAtoms>
  152.5250  134.3287  159.9174 H   0  0  0  0  0  0  0  0  0  0  0  0  # atno 6907 bound_to 6896
  151.3236  133.4023  159.2664 H   0  0  0  0  0  0  0  0  0  0  0  0  # atno 6908 bound_to 6896
  150.9938  134.9284  159.7972 H   0  0  0  0  0  0  0  0  0  0  0  0  # atno 6909 bound_to 6896
  145.2442  139.2766  143.4102 H   0  0  0  0  0  0  0  0  0  0  0  0  # atno 7974 bound_to 7965
  154.4033  140.1315  156.4383 H   0  0  0  0  0  0  0  0  0  0  0  0  # atno 8008 bound_to 7997
  155.7484  140.3488  155.5118 H   0  0  0  0  0  0  0  0  0  0  0  0  # atno 8009 bound_to 7997
  155.8973  140.1013  157.1366 H   0  0  0  0  0  0  0  0  0  0  0  0  # atno 8010 bound_to 7997
  140.7279  143.4671  151.0298 H   0  0  0  0  0  0  0  0  0  0  0  0  # atno 10167 bound_to 10162
  156.0618  130.5841  150.8304 H   0  0  0  0  0  0  0  0  0  0  0  0  # atno 10718 bound_to 10713
  153.5152  135.7016  153.5760 H   0  0  0  0  0  0  0  0  0  0  0  0  # atno 10763 bound_to 10752
  153.3833  135.3914  155.1872 H   0  0  0  0  0  0  0  0  0  0  0  0  # atno 10764 bound_to 10752
  154.8700  135.3840  154.4636 H   0  0  0  0  0  0  0  0  0  0  0  0  # atno 10765 bound_to 10752
  140.8438  133.7906  155.9890 H   0  0  0  0  0  0  0  0  0  0  0  0  # atno 11005 bound_to 11000
  146.3320  140.2813  142.8610 LP  0  0  0  0  0  0  0  0  0  0  0  0  # atno 17320 bound_to 7965
  144.9562  140.8229  143.5542 LP  0  0  0  0  0  0  0  0  0  0  0  0  # atno 17321 bound_to 7965
  139.8360  143.7627  152.3180 LP  0  0  0  0  0  0  0  0  0  0  0  0  # atno 17342 bound_to 10162
  139.7759  144.7461  151.0158 LP  0  0  0  0  0  0  0  0  0  0  0  0  # atno 17343 bound_to 10162
  157.5632  131.0946  150.9528 LP  0  0  0  0  0  0  0  0  0  0  0  0  # atno 17370 bound_to 10713
  156.9760  130.5509  149.5293 LP  0  0  0  0  0  0  0  0  0  0  0  0  # atno 17371 bound_to 10713
  140.8865  134.2547  157.5117 LP  0  0  0  0  0  0  0  0  0  0  0  0  # atno 17394 bound_to 11000
  139.8703  134.9641  156.4483 LP  0  0  0  0  0  0  0  0  0  0  0  0  # atno 17395 bound_to 11000

$$$$
