AV-unprocessed.smi:2154|AV-procd|sdf|8776|dock4
  -GOLD-   2272011553D 1   1.00000     0.00000
 Structure written by MMmdl.
 31 32  0  0  0  0  0  0  0  0  2 V2000
  152.9078  143.1979  159.9292 C   0  0  0  0  0  0  0  0  0  0  0  0
  152.5116  144.5490  159.3681 C   0  0  2  0  0  0  0  0  0  0  0  0
  151.4810  145.4013  160.0706 C   0  0  0  0  0  0  0  0  0  0  0  0
  151.1622  144.7962  158.7223 C   0  0  2  0  0  0  0  0  0  0  0  0
  150.1241  143.6957  158.5824 C   0  0  0  0  0  0  0  0  0  0  0  0
  150.0605  143.0762  157.2655 N   0  0  0  0  0  0  0  0  0  0  0  0
  150.5139  141.8486  156.9716 C   0  0  0  0  0  0  0  0  0  0  0  0
  151.0248  141.1003  157.8062 O   0  0  0  0  0  0  0  0  0  0  0  0
  150.3319  141.3934  155.5172 C   0  0  0  0  0  0  0  0  0  0  0  0
  150.6132  139.9617  155.3230 N   0  0  0  0  0  0  0  0  0  0  0  0
  149.6044  139.1689  154.7480 C   0  0  0  0  0  0  0  0  0  0  0  0
  149.7720  137.8496  154.5358 C   0  0  0  0  0  0  0  0  0  0  0  0
  151.0416  137.2446  154.9191 C   0  0  0  0  0  0  0  0  0  0  0  0
  151.2140  136.0422  154.7283 O   0  0  0  0  0  0  0  0  0  0  0  0
  151.9878  138.0550  155.4780 N   0  5  0  0  0  0  0  0  0  0  0  0
  151.8022  139.3949  155.6902 C   0  0  0  0  0  0  0  0  0  0  0  0
  152.6685  140.1078  156.1983 O   0  0  0  0  0  0  0  0  0  0  0  0
  152.0897  142.7471  160.4907 H   0  0  0  0  0  0  0  0  0  0  0  0
  153.7596  143.3098  160.5999 H   0  0  0  0  0  0  0  0  0  0  0  0
  153.1893  142.5241  159.1201 H   0  0  0  0  0  0  0  0  0  0  0  0
  153.3447  145.0834  158.9156 H   0  0  0  0  0  0  0  0  0  0  0  0
  150.9830  144.9813  160.9425 H   0  0  0  0  0  0  0  0  0  0  0  0
  151.6551  146.4747  160.1089 H   0  0  0  0  0  0  0  0  0  0  0  0
  151.1843  145.4754  157.8719 H   0  0  0  0  0  0  0  0  0  0  0  0
  150.3610  142.9122  159.3023 H   0  0  0  0  0  0  0  0  0  0  0  0
  149.1373  144.0739  158.8533 H   0  0  0  0  0  0  0  0  0  0  0  0
  149.6523  143.6221  156.5207 H   0  0  0  0  0  0  0  0  0  0  0  0
  149.3093  141.6243  155.2161 H   0  0  0  0  0  0  0  0  0  0  0  0
  150.9656  141.9917  154.8596 H   0  0  0  0  0  0  0  0  0  0  0  0
  148.6933  139.6928  154.4992 H   0  0  0  0  0  0  0  0  0  0  0  0
  148.9857  137.2541  154.0957 H   0  0  0  0  0  0  0  0  0  0  0  0
  1  2  1  0  0  0  0
  1 18  1  0  0  0  0
  1 19  1  0  0  0  0
  1 20  1  0  0  0  0
  2  4  1  0  0  0  0
  2  3  1  0  0  0  0
  2 21  1  0  0  0  0
  3  4  1  0  0  0  0
  3 22  1  0  0  0  0
  3 23  1  0  0  0  0
  4  5  1  0  0  0  0
  4 24  1  0  0  0  0
  5  6  1  0  0  0  0
  5 25  1  0  0  0  0
  5 26  1  0  0  0  0
  6  7  1  0  0  0  0
  6 27  1  0  0  0  0
  7  8  2  0  0  0  0
  7  9  1  0  0  0  0
  9 10  1  0  0  0  0
  9 28  1  0  0  0  0
  9 29  1  0  0  0  0
 10 16  1  0  0  0  0
 10 11  1  0  0  0  0
 11 12  2  0  0  0  0
 11 30  1  0  0  0  0
 12 13  1  0  0  0  0
 12 31  1  0  0  0  0
 13 14  2  0  0  0  0
 13 15  1  0  0  0  0
 15 16  1  0  0  0  0
 16 17  2  0  0  0  0
M  CHG  1  15  -1
M  END
> <s_m_source_file>
AV-unprocessed.smi

> <i_m_source_file_index>
2154

> <i_lp_mmshare_version>
43012

> <i_f3d_flags>
0

> <s_epik_input>
W0NIM11bQ0BASF0xW0NIMl1bQ0BIXTFbQ0gyXVtOSF1DKD1PKVtDSDJdbjJbY0hdW2NIXWMoPU8pW25IXWMyPU8=

> <s_epik_cmdline>
J2VwaWtfcHl0aG9uJywgJy1waCcsICc3LjAnLCAnLXRuJywgJzgnLCAnLW1hJywgJzIwMCcsICctbWV0YWxfYmluZGluZycsICctaW1hZScsICc8aW5maWxlLm1hZT4nLCAnLW9tYWUnLCAnPG91dGZpbGUubWFlPic=

> <r_lp_tautomer_probability>
0.999537

> <r_epik_Ionization_Penalty>
3.12283

> <r_epik_Ionization_Penalty_Charging>
2.83566e-08

> <r_epik_Ionization_Penalty_Neutral>
3.12283

> <r_epik_State_Penalty>
3.12192

> <r_epik_Charging_Adjusted_Penalty>
3.12192

> <i_epik_Tot_Q>
-1

> <i_epik_Tot_abs_Q>
1

> <r_epik_Metal_State_Penalty>
0.463748

> <b_epik_Metal_Only>
1

> <s_lp_Force_Field>
OPLS_2005

> <r_lp_Energy>
24.9188

> <b_lp_Chiralities_Consistent>
1

> <s_lp_Variant>
AV-unprocessed.smi:2154-7

> <Gold.Version>
5.8.1

> <Gold.Id.Protein>
6NUR|6NUR_protein|mol2

> <Gold.PLP.Fitness>
44.8298

> <Gold.PLP.PLP>
-36.2715

> <Gold.PLP.part.hbond>
-3.0000

> <Gold.PLP.part.metal>
0.0000

> <Gold.PLP.part.buried>
-3.1852

> <Gold.PLP.part.nonpolar>
-30.7703

> <Gold.PLP.part.repulsive>
0.2243

> <Gold.PLP.ligand.clash>
0.0000

> <Gold.PLP.ligand.torsion>
0.4921

> <Gold.PLP.Chemscore.Hbond>
3.0000

> <Gold.PLP.Chemscore.CHOScore>
0.0000

> <Gold.PLP.Chemscore.Metal>
0.0000

> <Gold.Chemscore.Hbonds>
donor molecule, donor type, donor heavy atom, donor atom, acceptor molecule, acceptor atom, score
      L1  H     6    27       P1  8028  1.00
      P1  H  7997  8010       L1    17  1.00
      P1  H 10752 10765       L1    14  1.00

> <Gold.PLP.Chemscore.Internal.Correction>
0.5426

> <Gold.Rescore>
     Score         DG    S(hbond)    S(metal)    S(lipo)     H(rot)  DE(clash)    DE(int)     intcor
     13.32     -18.48       2.84        0.00      72.84       1.96       0.40       4.77       ----

> <Gold.Chemscore.Fitness>
13.3182

> <Gold.Chemscore.DG>
-18.4845

> <Gold.Chemscore.ZeroCoef>
-5.4800

> <Gold.Chemscore.Hbond>
2.8448

> <Gold.Chemscore.Metal>
0.0000

> <Gold.Chemscore.Lipo>
72.8438

> <Gold.Chemscore.Internal_Hbond>
0.0000

> <Gold.Chemscore.DEClash>
0.3991

> <Gold.Chemscore.DEInternal>
4.7672

> <Gold.Chemscore.Rot>
1.9609

> <Gold.Chemscore.Internal.Correction>
   9.000000E+99

> <Gold.Chemscore.Hbonds>
donor molecule, donor type, donor heavy atom, donor atom, acceptor molecule, acceptor atom, score
      L1  H     6    27       P1  8028  0.98
      P1  H  7997  8010       L1    17  0.95
      P1  H 10752 10765       L1    14  0.85

> <Gold.Chemscore.Hbond.Weighted>
-9.5018

> <Gold.Chemscore.Metal.Weighted>
-0.0000

> <Gold.Chemscore.Lipo.Weighted>
-8.5227

> <Gold.Chemscore.Internal_Hbond.Weighted>
0.0000

> <Gold.Chemscore.DEClash.Weighted>
0.3991

> <Gold.Chemscore.DEInternal.Weighted>
4.7672

> <Gold.Chemscore.Rot.Weighted>
5.0200

> <Gold.Chemscore.Internal.Correction.Weighted>
   9.000000E+99

> <Gold.Protein.RotatedTorsions>
[ 6907 6896 6895 6894 ] final  -20.80 input  -60.11 | X-H torsion
[ 7974 7965 7964 7962 ] final   29.07 input  175.53 | X-H torsion
[ 8008 7997 7996 7995 ] final   93.17 input   59.86 | X-H torsion
[ 10167 10162 10161 10158 ] final  114.27 input  -65.29 | X-H torsion
[ 10718 10713 10712 10709 ] final  -95.99 input   66.30 | X-H torsion
[ 10763 10752 10751 10750 ] final  162.76 input  -60.55 | X-H torsion
[ 11005 11000 10999 10996 ] final   80.58 input  -57.11 | X-H torsion

> <Gold.Protein.ActiveResidues>
 VAL166  LYS551  ARG553  GLY616  TRP617  ASP618  TYR619  PRO620  LYS621  CYS622 
 ASP623  PHE694  ASN695  SER759  ASP760  ASP761  ALA762  ILE779  LEU786  VAL792 
 PHE793  MET794  SER795  GLU796  ALA797  LYS798  CYS799  TRP800  GLU811  SER814 

> <Gold.Protein.RotatedAtoms>
  151.2427  135.0594  159.9031 H   0  0  0  0  0  0  0  0  0  0  0  0  # atno 6907 bound_to 6896
  152.5391  134.0416  159.8080 H   0  0  0  0  0  0  0  0  0  0  0  0  # atno 6908 bound_to 6896
  151.0613  133.5493  159.2665 H   0  0  0  0  0  0  0  0  0  0  0  0  # atno 6909 bound_to 6896
  146.1693  139.6971  142.8979 H   0  0  0  0  0  0  0  0  0  0  0  0  # atno 7974 bound_to 7965
  156.0437  140.3316  155.7272 H   0  0  0  0  0  0  0  0  0  0  0  0  # atno 8008 bound_to 7997
  155.5706  140.0627  157.2825 H   0  0  0  0  0  0  0  0  0  0  0  0  # atno 8009 bound_to 7997
  154.4404  140.1861  156.0864 H   0  0  0  0  0  0  0  0  0  0  0  0  # atno 8010 bound_to 7997
  139.6401  144.7123  151.2255 H   0  0  0  0  0  0  0  0  0  0  0  0  # atno 10167 bound_to 10162
  156.0053  130.5132  150.6159 H   0  0  0  0  0  0  0  0  0  0  0  0  # atno 10718 bound_to 10713
  154.2833  135.2762  155.2687 H   0  0  0  0  0  0  0  0  0  0  0  0  # atno 10763 bound_to 10752
  154.5199  135.5759  153.6675 H   0  0  0  0  0  0  0  0  0  0  0  0  # atno 10764 bound_to 10752
  152.9925  135.6202  154.2993 H   0  0  0  0  0  0  0  0  0  0  0  0  # atno 10765 bound_to 10752
  139.9129  134.7931  156.1928 H   0  0  0  0  0  0  0  0  0  0  0  0  # atno 11005 bound_to 11000
  145.4384  141.0420  143.2871 LP  0  0  0  0  0  0  0  0  0  0  0  0  # atno 17320 bound_to 7965
  144.8139  139.5912  143.7017 LP  0  0  0  0  0  0  0  0  0  0  0  0  # atno 17321 bound_to 7965
  140.7486  143.6327  150.8408 LP  0  0  0  0  0  0  0  0  0  0  0  0  # atno 17342 bound_to 10162
  139.9963  143.5792  152.2892 LP  0  0  0  0  0  0  0  0  0  0  0  0  # atno 17343 bound_to 10162
  157.3983  131.0806  151.1331 LP  0  0  0  0  0  0  0  0  0  0  0  0  # atno 17370 bound_to 10713
  157.2001  130.6391  149.5735 LP  0  0  0  0  0  0  0  0  0  0  0  0  # atno 17371 bound_to 10713
  141.0573  133.6859  156.1885 LP  0  0  0  0  0  0  0  0  0  0  0  0  # atno 17394 bound_to 11000
  140.6716  134.4862  157.5587 LP  0  0  0  0  0  0  0  0  0  0  0  0  # atno 17395 bound_to 11000

$$$$
