AV-unprocessed.smi:3345|AV-procd|sdf|12899|dock1
  -GOLD-   2272019303D 1   1.00000     0.00000
 Structure written by MMmdl.
 40 41  0  0  0  0  0  0  0  0  1 V2000
  145.9863  141.0459  155.1388 C   0  0  0  0  0  0  0  0  0  0  0  0
  146.2544  139.5607  154.8633 C   0  0  2  0  0  0  0  0  0  0  0  0
  147.5242  139.3597  154.0079 C   0  0  0  0  0  0  0  0  0  0  0  0
  148.7940  139.5025  154.7241 N   0  0  0  0  0  0  0  0  0  0  0  0
  149.2045  140.8959  154.8785 C   0  0  0  0  0  0  0  0  0  0  0  0
  150.5387  141.0163  155.6345 C   0  0  0  0  0  0  0  0  0  0  0  0
  151.5408  140.2619  154.9604 O   0  0  0  0  0  0  0  0  0  0  0  0
  151.1962  138.8869  154.8249 C   0  0  0  0  0  0  0  0  0  0  0  0
  149.8634  138.7610  154.0668 C   0  0  0  0  0  0  0  0  0  0  0  0
  145.1071  138.9774  154.1726 N   0  0  0  0  0  0  0  0  0  0  0  0
  144.7737  137.6766  154.1624 C   0  0  0  0  0  0  0  0  0  0  0  0
  145.3023  136.8346  154.8891 O   0  0  0  0  0  0  0  0  0  0  0  0
  143.7095  137.2697  153.1325 C   0  0  2  0  0  0  0  0  0  0  0  0
  142.4212  136.7237  153.7818 C   0  0  0  0  0  0  0  0  0  0  0  0
  144.2919  136.3315  152.1787 N   0  0  0  0  0  0  0  0  0  0  0  0
  143.8551  135.1350  151.7789 C   0  0  0  0  0  0  0  0  0  0  0  0
  144.5999  134.5753  150.8362 N   0  0  0  0  0  0  0  0  0  0  0  0
  145.5394  135.5539  150.6786 C   0  0  0  0  0  0  0  0  0  0  0  0
  145.3957  136.6315  151.4494 N   0  0  0  0  0  0  0  0  0  0  0  0
  146.8259  141.5038  155.6625 H   0  0  0  0  0  0  0  0  0  0  0  0
  145.1004  141.1757  155.7614 H   0  0  0  0  0  0  0  0  0  0  0  0
  145.8282  141.6013  154.2137 H   0  0  0  0  0  0  0  0  0  0  0  0
  146.4036  139.0789  155.8303 H   0  0  0  0  0  0  0  0  0  0  0  0
  147.4791  138.3568  153.5807 H   0  0  0  0  0  0  0  0  0  0  0  0
  147.5034  140.0444  153.1586 H   0  0  0  0  0  0  0  0  0  0  0  0
  149.3000  141.3649  153.8981 H   0  0  0  0  0  0  0  0  0  0  0  0
  148.4461  141.4582  155.4215 H   0  0  0  0  0  0  0  0  0  0  0  0
  150.8517  142.0589  155.6881 H   0  0  0  0  0  0  0  0  0  0  0  0
  150.4336  140.6600  156.6601 H   0  0  0  0  0  0  0  0  0  0  0  0
  151.9905  138.3717  154.2847 H   0  0  0  0  0  0  0  0  0  0  0  0
  151.1259  138.4238  155.8099 H   0  0  0  0  0  0  0  0  0  0  0  0
  149.5919  137.7074  153.9922 H   0  0  0  0  0  0  0  0  0  0  0  0
  149.9923  139.1239  153.0461 H   0  0  0  0  0  0  0  0  0  0  0  0
  144.6033  139.5916  153.5495 H   0  0  0  0  0  0  0  0  0  0  0  0
  143.4362  138.1668  152.5746 H   0  0  0  0  0  0  0  0  0  0  0  0
  141.9714  137.4642  154.4439 H   0  0  0  0  0  0  0  0  0  0  0  0
  142.6067  135.8244  154.3705 H   0  0  0  0  0  0  0  0  0  0  0  0
  141.6801  136.4732  153.0222 H   0  0  0  0  0  0  0  0  0  0  0  0
  142.9672  134.6677  152.1789 H   0  0  0  0  0  0  0  0  0  0  0  0
  146.3480  135.4741  149.9669 H   0  0  0  0  0  0  0  0  0  0  0  0
  1  2  1  0  0  0  0
  1 20  1  0  0  0  0
  1 21  1  0  0  0  0
  1 22  1  0  0  0  0
  2  3  1  0  0  0  0
  2 10  1  0  0  0  0
  2 23  1  0  0  0  0
  3  4  1  0  0  0  0
  3 24  1  0  0  0  0
  3 25  1  0  0  0  0
  4  9  1  0  0  0  0
  4  5  1  0  0  0  0
  5  6  1  0  0  0  0
  5 26  1  0  0  0  0
  5 27  1  0  0  0  0
  6  7  1  0  0  0  0
  6 28  1  0  0  0  0
  6 29  1  0  0  0  0
  7  8  1  0  0  0  0
  8  9  1  0  0  0  0
  8 30  1  0  0  0  0
  8 31  1  0  0  0  0
  9 32  1  0  0  0  0
  9 33  1  0  0  0  0
 10 11  1  0  0  0  0
 10 34  1  0  0  0  0
 11 12  2  0  0  0  0
 11 13  1  0  0  0  0
 13 14  1  0  0  0  0
 13 15  1  0  0  0  0
 13 35  1  0  0  0  0
 14 36  1  0  0  0  0
 14 37  1  0  0  0  0
 14 38  1  0  0  0  0
 15 19  1  0  0  0  0
 15 16  1  0  0  0  0
 16 17  2  0  0  0  0
 16 39  1  0  0  0  0
 17 18  1  0  0  0  0
 18 19  2  0  0  0  0
 18 40  1  0  0  0  0
M  END
> <s_m_source_file>
AV-unprocessed.smi

> <i_m_source_file_index>
3345

> <i_lp_mmshare_version>
43012

> <i_f3d_flags>
0

> <s_epik_input>
W0NIMl0xW0NIMl1PW0NIMl1bQ0gyXU4xW0NIMl1bQ0BASF0oW0NIM10pW05IXUMoPU8pW0NASF0oW0NIM10pbjJbY0hdbltjSF1uMg==

> <s_epik_cmdline>
J2VwaWtfcHl0aG9uJywgJy1waCcsICc3LjAnLCAnLXRuJywgJzgnLCAnLW1hJywgJzIwMCcsICctbWV0YWxfYmluZGluZycsICctaW1hZScsICc8aW5maWxlLm1hZT4nLCAnLW9tYWUnLCAnPG91dGZpbGUubWFlPic=

> <r_lp_tautomer_probability>
1

> <r_epik_Ionization_Penalty>
0.211373

> <r_epik_Ionization_Penalty_Charging>
0

> <r_epik_Ionization_Penalty_Neutral>
0.211373

> <r_epik_State_Penalty>
0.201459

> <r_epik_Charging_Adjusted_Penalty>
0.201459

> <i_epik_Tot_Q>
0

> <i_epik_Tot_abs_Q>
0

> <r_epik_Metal_State_Penalty>
0.201458

> <b_epik_Metal_Only>
0

> <s_lp_Force_Field>
OPLS_2005

> <r_lp_Energy>
29.1887

> <b_lp_Chiralities_Consistent>
1

> <s_lp_Variant>
AV-unprocessed.smi:3345-1

> <Gold.Version>
5.8.1

> <Gold.Id.Protein>
6NUR|6NUR_protein|mol2

> <Gold.PLP.Fitness>
34.7007

> <Gold.PLP.PLP>
-27.0289

> <Gold.PLP.part.hbond>
-1.9925

> <Gold.PLP.part.metal>
0.0000

> <Gold.PLP.part.buried>
-4.0831

> <Gold.PLP.part.nonpolar>
-21.5620

> <Gold.PLP.part.repulsive>
1.2527

> <Gold.PLP.ligand.clash>
0.0000

> <Gold.PLP.ligand.torsion>
0.7839

> <Gold.PLP.Chemscore.Hbond>
2.0000

> <Gold.PLP.Chemscore.CHOScore>
1.0000

> <Gold.PLP.Chemscore.Metal>
0.0000

> <Gold.Chemscore.Hbonds>
donor molecule, donor type, donor heavy atom, donor atom, acceptor molecule, acceptor atom, score
      L1  H    10    34       P1 10175  1.00
      P1  H  7989  7998       L1     7  1.00
      L1  C    18    40       P1  7921  0.94

> <Gold.PLP.Chemscore.Internal.Correction>
0.2397

> <Gold.Rescore>
     Score         DG    S(hbond)    S(metal)    S(lipo)     H(rot)  DE(clash)    DE(int)     intcor
      8.65      -9.47       1.57        0.00      44.79       2.54       0.01       0.81       ----

> <Gold.Chemscore.Fitness>
8.6458

> <Gold.Chemscore.DG>
-9.4651

> <Gold.Chemscore.ZeroCoef>
-5.4800

> <Gold.Chemscore.Hbond>
1.5673

> <Gold.Chemscore.Metal>
0.0000

> <Gold.Chemscore.Lipo>
44.7930

> <Gold.Chemscore.Internal_Hbond>
0.0000

> <Gold.Chemscore.DEClash>
0.0126

> <Gold.Chemscore.DEInternal>
0.8067

> <Gold.Chemscore.Rot>
2.5353

> <Gold.Chemscore.Internal.Correction>
   9.000000E+99

> <Gold.Chemscore.Hbonds>
donor molecule, donor type, donor heavy atom, donor atom, acceptor molecule, acceptor atom, score
      L1  H    10    34       P1 10175  1.00
      P1  H  7989  7998       L1     7  0.33

> <Gold.Chemscore.Hbond.Weighted>
-5.2348

> <Gold.Chemscore.Metal.Weighted>
-0.0000

> <Gold.Chemscore.Lipo.Weighted>
-5.2408

> <Gold.Chemscore.Internal_Hbond.Weighted>
0.0000

> <Gold.Chemscore.DEClash.Weighted>
0.0126

> <Gold.Chemscore.DEInternal.Weighted>
0.8067

> <Gold.Chemscore.Rot.Weighted>
6.4905

> <Gold.Chemscore.Internal.Correction.Weighted>
   9.000000E+99

> <Gold.Protein.RotatedTorsions>
[ 6907 6896 6895 6894 ] final  134.32 input  -60.11 | X-H torsion
[ 7974 7965 7964 7962 ] final  -14.24 input  175.53 | X-H torsion
[ 8008 7997 7996 7995 ] final   77.36 input   59.86 | X-H torsion
[ 10167 10162 10161 10158 ] final  172.45 input  -65.29 | X-H torsion
[ 10718 10713 10712 10709 ] final   38.05 input   66.30 | X-H torsion
[ 10763 10752 10751 10750 ] final  160.79 input  -60.55 | X-H torsion
[ 11005 11000 10999 10996 ] final  146.51 input  -57.11 | X-H torsion

> <Gold.Protein.ActiveResidues>
 VAL166  LYS551  ARG553  GLY616  TRP617  ASP618  TYR619  PRO620  LYS621  CYS622 
 ASP623  PHE694  ASN695  SER759  ASP760  ASP761  ALA762  ILE779  LEU786  VAL792 
 PHE793  MET794  SER795  GLU796  ALA797  LYS798  CYS799  TRP800  GLU811  SER814 

> <Gold.Protein.RotatedAtoms>
  152.3126  133.5768  159.5690 H   0  0  0  0  0  0  0  0  0  0  0  0  # atno 6907 bound_to 6896
  150.7330  134.0130  159.3685 H   0  0  0  0  0  0  0  0  0  0  0  0  # atno 6908 bound_to 6896
  151.8021  135.0706  160.0452 H   0  0  0  0  0  0  0  0  0  0  0  0  # atno 6909 bound_to 6896
  146.2082  140.3320  142.8400 H   0  0  0  0  0  0  0  0  0  0  0  0  # atno 7974 bound_to 7965
  155.8405  140.3462  155.5629 H   0  0  0  0  0  0  0  0  0  0  0  0  # atno 8008 bound_to 7997
  155.8146  140.0904  157.1904 H   0  0  0  0  0  0  0  0  0  0  0  0  # atno 8009 bound_to 7997
  154.4005  140.1441  156.3414 H   0  0  0  0  0  0  0  0  0  0  0  0  # atno 8010 bound_to 7997
  139.5077  144.3372  152.0053 H   0  0  0  0  0  0  0  0  0  0  0  0  # atno 10167 bound_to 10162
  157.3543  130.7615  149.7001 H   0  0  0  0  0  0  0  0  0  0  0  0  # atno 10718 bound_to 10713
  154.2529  135.2771  155.2809 H   0  0  0  0  0  0  0  0  0  0  0  0  # atno 10763 bound_to 10752
  154.5449  135.5692  153.6875 H   0  0  0  0  0  0  0  0  0  0  0  0  # atno 10764 bound_to 10752
  152.9977  135.6260  154.2677 H   0  0  0  0  0  0  0  0  0  0  0  0  # atno 10765 bound_to 10752
  140.0799  134.9103  157.1484 H   0  0  0  0  0  0  0  0  0  0  0  0  # atno 11005 bound_to 11000
  144.8845  140.7444  143.5965 LP  0  0  0  0  0  0  0  0  0  0  0  0  # atno 17320 bound_to 7965
  145.3241  139.1779  143.4572 LP  0  0  0  0  0  0  0  0  0  0  0  0  # atno 17321 bound_to 7965
  140.2811  144.3859  150.6119 LP  0  0  0  0  0  0  0  0  0  0  0  0  # atno 17342 bound_to 10162
  140.6017  143.2167  151.7058 LP  0  0  0  0  0  0  0  0  0  0  0  0  # atno 17343 bound_to 10162
  155.9726  130.4132  150.4069 LP  0  0  0  0  0  0  0  0  0  0  0  0  # atno 17370 bound_to 10713
  157.2137  131.0466  151.2585 LP  0  0  0  0  0  0  0  0  0  0  0  0  # atno 17371 bound_to 10713
  140.3503  134.2606  155.7199 LP  0  0  0  0  0  0  0  0  0  0  0  0  # atno 17394 bound_to 11000
  141.2043  133.7890  157.0294 LP  0  0  0  0  0  0  0  0  0  0  0  0  # atno 17395 bound_to 11000

$$$$
