AV-unprocessed.smi:1493|AV-procd|sdf|6051|dock2
  -GOLD-   22720 6163D 1   1.00000     0.00000
 Structure written by MMmdl.
 34 34  0  0  0  0  0  0  0  0  1 V2000
  152.8292  143.3761  162.2037 C   0  0  0  0  0  0  0  0  0  0  0  0
  153.0761  142.1207  161.3605 C   0  0  0  0  0  0  0  0  0  0  0  0
  153.0630  142.4126  159.8496 C   0  0  0  0  0  0  0  0  0  0  0  0
  151.7980  143.1526  159.3740 C   0  0  1  0  0  0  0  0  0  0  0  0
  151.9313  144.6731  159.5387 C   0  0  0  0  0  0  0  0  0  0  0  0
  151.5254  142.8407  157.9722 N   0  0  0  0  0  0  0  0  0  0  0  0
  151.0340  141.6839  157.5016 C   0  0  0  0  0  0  0  0  0  0  0  0
  150.7584  140.7215  158.2195 O   0  0  0  0  0  0  0  0  0  0  0  0
  150.8497  141.6092  155.9786 C   0  0  0  0  0  0  0  0  0  0  0  0
  150.8254  140.2352  155.4566 N   0  0  0  0  0  0  0  0  0  0  0  0
  149.7111  139.9420  154.6851 N   0  0  0  0  0  0  0  0  0  0  0  0
  149.5809  138.7708  154.1600 C   0  0  0  0  0  0  0  0  0  0  0  0
  148.4636  138.5244  153.4007 O   0  0  0  0  0  0  0  0  0  0  0  0
  150.5795  137.7441  154.3623 C   0  0  0  0  0  0  0  0  0  0  0  0
  151.6597  138.0380  155.1187 C   0  0  0  0  0  0  0  0  0  0  0  0
  151.8389  139.3566  155.7292 C   0  0  0  0  0  0  0  0  0  0  0  0
  152.8113  139.6514  156.4237 O   0  0  0  0  0  0  0  0  0  0  0  0
  148.6510  138.8961  152.5524 H   0  0  0  0  0  0  0  0  0  0  0  0
  152.8448  143.1388  163.2677 H   0  0  0  0  0  0  0  0  0  0  0  0
  151.8593  143.8193  161.9763 H   0  0  0  0  0  0  0  0  0  0  0  0
  153.5947  144.1303  162.0199 H   0  0  0  0  0  0  0  0  0  0  0  0
  154.0322  141.6839  161.6500 H   0  0  0  0  0  0  0  0  0  0  0  0
  152.3145  141.3760  161.5947 H   0  0  0  0  0  0  0  0  0  0  0  0
  153.9390  143.0134  159.6017 H   0  0  0  0  0  0  0  0  0  0  0  0
  153.1710  141.4784  159.2966 H   0  0  0  0  0  0  0  0  0  0  0  0
  150.9678  142.8256  160.0024 H   0  0  0  0  0  0  0  0  0  0  0  0
  152.1203  144.9402  160.5788 H   0  0  0  0  0  0  0  0  0  0  0  0
  151.0176  145.1824  159.2302 H   0  0  0  0  0  0  0  0  0  0  0  0
  152.7519  145.0680  158.9388 H   0  0  0  0  0  0  0  0  0  0  0  0
  151.7262  143.5697  157.3031 H   0  0  0  0  0  0  0  0  0  0  0  0
  149.9320  142.1296  155.6978 H   0  0  0  0  0  0  0  0  0  0  0  0
  151.6593  142.1742  155.5133 H   0  0  0  0  0  0  0  0  0  0  0  0
  150.4555  136.7688  153.9152 H   0  0  0  0  0  0  0  0  0  0  0  0
  152.4136  137.2810  155.2779 H   0  0  0  0  0  0  0  0  0  0  0  0
  1  2  1  0  0  0  0
  1 19  1  0  0  0  0
  1 20  1  0  0  0  0
  1 21  1  0  0  0  0
  2  3  1  0  0  0  0
  2 22  1  0  0  0  0
  2 23  1  0  0  0  0
  3  4  1  0  0  0  0
  3 24  1  0  0  0  0
  3 25  1  0  0  0  0
  4  5  1  0  0  0  0
  4  6  1  0  0  0  0
  4 26  1  0  0  0  0
  5 27  1  0  0  0  0
  5 28  1  0  0  0  0
  5 29  1  0  0  0  0
  6  7  1  0  0  0  0
  6 30  1  0  0  0  0
  7  8  2  0  0  0  0
  7  9  1  0  0  0  0
  9 31  1  0  0  0  0
  9 32  1  0  0  0  0
  9 10  1  0  0  0  0
 10 11  1  0  0  0  0
 10 16  1  0  0  0  0
 11 12  2  0  0  0  0
 12 13  1  0  0  0  0
 12 14  1  0  0  0  0
 13 18  1  0  0  0  0
 14 33  1  0  0  0  0
 14 15  2  0  0  0  0
 15 34  1  0  0  0  0
 15 16  1  0  0  0  0
 16 17  2  0  0  0  0
M  END
> <s_m_source_file>
AV-unprocessed.smi

> <i_m_source_file_index>
1493

> <i_lp_mmshare_version>
43012

> <i_f3d_flags>
0

> <s_epik_input>
W0NIM11bQ0gyXVtDSDJdW0NASF0oW0NIM10pW05IXUMoPU8pW0NIMl1uMVtuSF1jKD1PKVtjSF1bY0hdYzE9Tw==

> <s_epik_cmdline>
J2VwaWtfcHl0aG9uJywgJy1waCcsICc3LjAnLCAnLXRuJywgJzgnLCAnLW1hJywgJzIwMCcsICctbWV0YWxfYmluZGluZycsICctaW1hZScsICc8aW5maWxlLm1hZT4nLCAnLW9tYWUnLCAnPG91dGZpbGUubWFlPic=

> <r_lp_tautomer_probability>
0.9996

> <r_epik_Ionization_Penalty>
2.12047

> <r_epik_Ionization_Penalty_Charging>
3.81971e-08

> <r_epik_Ionization_Penalty_Neutral>
2.12047

> <r_epik_State_Penalty>
1.69728

> <r_epik_Charging_Adjusted_Penalty>
1.69728

> <i_epik_Tot_Q>
0

> <i_epik_Tot_abs_Q>
0

> <r_epik_Metal_State_Penalty>
1.69728

> <b_epik_Metal_Only>
0

> <s_lp_Force_Field>
OPLS_2005

> <r_lp_Energy>
15.6532

> <b_lp_Chiralities_Consistent>
1

> <s_lp_Variant>
AV-unprocessed.smi:1493-4

> <Gold.Version>
5.8.1

> <Gold.Id.Protein>
6NUR|6NUR_protein|mol2

> <Gold.PLP.Fitness>
46.5320

> <Gold.PLP.PLP>
-42.2218

> <Gold.PLP.part.hbond>
-3.3783

> <Gold.PLP.part.metal>
0.0000

> <Gold.PLP.part.buried>
-3.8993

> <Gold.PLP.part.nonpolar>
-33.9818

> <Gold.PLP.part.repulsive>
0.1272

> <Gold.PLP.ligand.clash>
0.0000

> <Gold.PLP.ligand.torsion>
0.8699

> <Gold.PLP.Chemscore.Hbond>
2.0000

> <Gold.PLP.Chemscore.CHOScore>
0.0000

> <Gold.PLP.Chemscore.Metal>
0.0000

> <Gold.Chemscore.Hbonds>
donor molecule, donor type, donor heavy atom, donor atom, acceptor molecule, acceptor atom, score
      L1  H    13    18       P1  7957  1.00
      P1  H  7997  8010       L1    17  1.00

> <Gold.PLP.Chemscore.Internal.Correction>
0.0499

> <Gold.Rescore>
     Score         DG    S(hbond)    S(metal)    S(lipo)     H(rot)  DE(clash)    DE(int)     intcor
     12.25     -14.19       1.96        0.00      79.32       2.78       0.10       1.84       ----

> <Gold.Chemscore.Fitness>
12.2522

> <Gold.Chemscore.DG>
-14.1883

> <Gold.Chemscore.ZeroCoef>
-5.4800

> <Gold.Chemscore.Hbond>
1.9583

> <Gold.Chemscore.Metal>
0.0000

> <Gold.Chemscore.Lipo>
79.3207

> <Gold.Chemscore.Internal_Hbond>
0.0000

> <Gold.Chemscore.DEClash>
0.0994

> <Gold.Chemscore.DEInternal>
1.8367

> <Gold.Chemscore.Rot>
2.7785

> <Gold.Chemscore.Internal.Correction>
   9.000000E+99

> <Gold.Chemscore.Hbonds>
donor molecule, donor type, donor heavy atom, donor atom, acceptor molecule, acceptor atom, score
      L1  H    13    18       P1  7957  0.92
      P1  H  7997  8010       L1    17  0.99

> <Gold.Chemscore.Hbond.Weighted>
-6.5407

> <Gold.Chemscore.Metal.Weighted>
-0.0000

> <Gold.Chemscore.Lipo.Weighted>
-9.2805

> <Gold.Chemscore.Internal_Hbond.Weighted>
0.0000

> <Gold.Chemscore.DEClash.Weighted>
0.0994

> <Gold.Chemscore.DEInternal.Weighted>
1.8367

> <Gold.Chemscore.Rot.Weighted>
7.1129

> <Gold.Chemscore.Internal.Correction.Weighted>
   9.000000E+99

> <Gold.Protein.RotatedTorsions>
[ 6907 6896 6895 6894 ] final   41.50 input  -60.11 | X-H torsion
[ 7974 7965 7964 7962 ] final -156.31 input  175.53 | X-H torsion
[ 8008 7997 7996 7995 ] final   62.65 input   59.86 | X-H torsion
[ 10167 10162 10161 10158 ] final   34.76 input  -65.29 | X-H torsion
[ 10718 10713 10712 10709 ] final   47.39 input   66.30 | X-H torsion
[ 10763 10752 10751 10750 ] final  135.28 input  -60.55 | X-H torsion
[ 11005 11000 10999 10996 ] final  -38.05 input  -57.11 | X-H torsion

> <Gold.Protein.ActiveResidues>
 VAL166  LYS551  ARG553  GLY616  TRP617  ASP618  TYR619  PRO620  LYS621  CYS622 
 ASP623  PHE694  ASN695  SER759  ASP760  ASP761  ALA762  ILE779  LEU786  VAL792 
 PHE793  MET794  SER795  GLU796  ALA797  LYS798  CYS799  TRP800  GLU811  SER814 

> <Gold.Protein.RotatedAtoms>
  152.1960  134.8630  160.0512 H   0  0  0  0  0  0  0  0  0  0  0  0  # atno 6907 bound_to 6896
  151.9501  133.3658  159.4005 H   0  0  0  0  0  0  0  0  0  0  0  0  # atno 6908 bound_to 6896
  150.6945  134.4273  159.5276 H   0  0  0  0  0  0  0  0  0  0  0  0  # atno 6909 bound_to 6896
  144.7599  140.4128  143.5984 H   0  0  0  0  0  0  0  0  0  0  0  0  # atno 7974 bound_to 7965
  155.6176  140.3495  155.4642 H   0  0  0  0  0  0  0  0  0  0  0  0  # atno 8008 bound_to 7997
  156.0104  140.1232  157.0483 H   0  0  0  0  0  0  0  0  0  0  0  0  # atno 8009 bound_to 7997
  154.4279  140.1082  156.5808 H   0  0  0  0  0  0  0  0  0  0  0  0  # atno 8010 bound_to 7997
  140.4285  144.1359  150.6156 H   0  0  0  0  0  0  0  0  0  0  0  0  # atno 10167 bound_to 10162
  157.4580  130.8178  149.7856 H   0  0  0  0  0  0  0  0  0  0  0  0  # atno 10718 bound_to 10713
  153.8375  135.3096  155.3423 H   0  0  0  0  0  0  0  0  0  0  0  0  # atno 10763 bound_to 10752
  154.7947  135.4762  154.0136 H   0  0  0  0  0  0  0  0  0  0  0  0  # atno 10764 bound_to 10752
  153.1596  135.6858  153.8853 H   0  0  0  0  0  0  0  0  0  0  0  0  # atno 10765 bound_to 10752
  140.9998  133.6961  156.2002 H   0  0  0  0  0  0  0  0  0  0  0  0  # atno 11005 bound_to 11000
  145.6653  139.1589  143.2785 LP  0  0  0  0  0  0  0  0  0  0  0  0  # atno 17320 bound_to 7965
  146.1651  140.6730  142.9259 LP  0  0  0  0  0  0  0  0  0  0  0  0  # atno 17321 bound_to 7965
  140.4454  143.2509  151.9418 LP  0  0  0  0  0  0  0  0  0  0  0  0  # atno 17342 bound_to 10162
  139.4784  144.5614  151.8233 LP  0  0  0  0  0  0  0  0  0  0  0  0  # atno 17343 bound_to 10162
  156.0016  130.3877  150.2586 LP  0  0  0  0  0  0  0  0  0  0  0  0  # atno 17370 bound_to 10713
  157.0762  131.0130  151.3173 LP  0  0  0  0  0  0  0  0  0  0  0  0  # atno 17371 bound_to 10713
  140.6907  134.4669  157.5588 LP  0  0  0  0  0  0  0  0  0  0  0  0  # atno 17394 bound_to 11000
  139.9033  134.8506  156.1806 LP  0  0  0  0  0  0  0  0  0  0  0  0  # atno 17395 bound_to 11000

$$$$
