AV-unprocessed.smi:1748|AV-procd|sdf|7040|dock4
  -GOLD-   22720 8263D 1   1.00000     0.00000
 Structure written by MMmdl.
 39 40  0  0  0  0  0  0  0  0  3 V2000
  146.0580  135.6626  153.1444 C   0  0  0  0  0  0  0  0  0  0  0  0
  146.7835  136.9481  153.0556 N   0  3  1  0  0  0  0  0  0  0  0  0
  145.9927  137.9954  152.3620 C   0  0  0  0  0  0  0  0  0  0  0  0
  146.8208  139.2773  152.1734 C   0  0  0  0  0  0  0  0  0  0  0  0
  147.3604  139.7888  153.5164 C   0  0  0  0  0  0  0  0  0  0  0  0
  148.1490  138.6777  154.2288 C   0  0  1  0  0  0  0  0  0  0  0  0
  148.6057  139.1483  155.5331 N   0  0  0  0  0  0  0  0  0  0  0  0
  149.7106  139.8777  155.7466 C   0  0  0  0  0  0  0  0  0  0  0  0
  150.4703  140.2251  154.8426 O   0  0  0  0  0  0  0  0  0  0  0  0
  149.8680  140.1411  157.0563 N   0  0  0  0  0  0  0  0  0  0  0  0
  150.8666  140.8940  157.6975 C   0  0  0  0  0  0  0  0  0  0  0  0
  150.7216  142.1850  158.1065 C   0  0  0  0  0  0  0  0  0  0  0  0
  151.7885  142.9105  158.7856 C   0  0  0  0  0  0  0  0  0  0  0  0
  151.6804  144.3484  159.2592 C   0  0  0  0  0  0  0  0  0  0  0  0
  152.0826  144.4476  160.5258 F   0  0  0  0  0  0  0  0  0  0  0  0
  152.4573  145.1371  158.5174 F   0  0  0  0  0  0  0  0  0  0  0  0
  150.4272  144.7958  159.1790 F   0  0  0  0  0  0  0  0  0  0  0  0
  152.9189  142.1383  158.9638 C   0  0  0  0  0  0  0  0  0  0  0  0
  153.1399  140.8564  158.5989 N   0  5  0  0  0  0  0  0  0  0  0  0
  152.1379  140.1881  157.9606 C   0  0  0  0  0  0  0  0  0  0  0  0
  152.2707  139.0177  157.6010 O   0  0  0  0  0  0  0  0  0  0  0  0
  147.2812  137.4093  154.3755 C   0  0  0  0  0  0  0  0  0  0  0  0
  145.1563  135.7631  153.7500 H   0  0  0  0  0  0  0  0  0  0  0  0
  146.6885  134.8945  153.5931 H   0  0  0  0  0  0  0  0  0  0  0  0
  145.7672  135.3152  152.1524 H   0  0  0  0  0  0  0  0  0  0  0  0
  145.6692  137.6252  151.3884 H   0  0  0  0  0  0  0  0  0  0  0  0
  145.0898  138.2117  152.9356 H   0  0  0  0  0  0  0  0  0  0  0  0
  147.6524  139.0792  151.4956 H   0  0  0  0  0  0  0  0  0  0  0  0
  146.2124  140.0477  151.6990 H   0  0  0  0  0  0  0  0  0  0  0  0
  147.9952  140.6608  153.3541 H   0  0  0  0  0  0  0  0  0  0  0  0
  146.5295  140.1187  154.1419 H   0  0  0  0  0  0  0  0  0  0  0  0
  149.0227  138.4392  153.6184 H   0  0  0  0  0  0  0  0  0  0  0  0
  148.0384  138.9046  156.3319 H   0  0  0  0  0  0  0  0  0  0  0  0
  149.2035  139.7157  157.6861 H   0  0  0  0  0  0  0  0  0  0  0  0
  149.7911  142.7077  157.9575 H   0  0  0  0  0  0  0  0  0  0  0  0
  153.7733  142.6266  159.4800 H   0  0  0  0  0  0  0  0  0  0  0  0
  146.4345  137.6008  155.0375 H   0  0  0  0  0  0  0  0  0  0  0  0
  147.8664  136.6107  154.8335 H   0  0  0  0  0  0  0  0  0  0  0  0
  147.5998  136.7770  152.4859 H   0  0  0  0  0  0  0  0  0  0  0  0
  1  2  1  0  0  0  0
  1 23  1  0  0  0  0
  1 24  1  0  0  0  0
  1 25  1  0  0  0  0
  2 22  1  0  0  0  0
  2  3  1  0  0  0  0
  2 39  1  0  0  0  0
  3  4  1  0  0  0  0
  3 26  1  0  0  0  0
  3 27  1  0  0  0  0
  4  5  1  0  0  0  0
  4 28  1  0  0  0  0
  4 29  1  0  0  0  0
  5  6  1  0  0  0  0
  5 30  1  0  0  0  0
  5 31  1  0  0  0  0
  6  7  1  0  0  0  0
  6 22  1  0  0  0  0
  6 32  1  0  0  0  0
  7  8  1  0  0  0  0
  7 33  1  0  0  0  0
  8  9  2  0  0  0  0
  8 10  1  0  0  0  0
 10 11  1  0  0  0  0
 10 34  1  0  0  0  0
 11 20  1  0  0  0  0
 11 12  2  0  0  0  0
 12 13  1  0  0  0  0
 12 35  1  0  0  0  0
 13 14  1  0  0  0  0
 13 18  2  0  0  0  0
 14 15  1  0  0  0  0
 14 16  1  0  0  0  0
 14 17  1  0  0  0  0
 18 19  1  0  0  0  0
 18 36  1  0  0  0  0
 19 20  1  0  0  0  0
 20 21  2  0  0  0  0
 22 37  1  0  0  0  0
 22 38  1  0  0  0  0
M  CHG  1   2   1
M  CHG  1  19  -1
M  END
> <s_m_source_file>
AV-unprocessed.smi

> <i_m_source_file_index>
1748

> <i_lp_mmshare_version>
43012

> <i_f3d_flags>
0

> <s_epik_input>
W0NIM11OMVtDSDJdW0NIMl1bQ0gyXVtDQEhdKFtDSDJdMSlbTkhdQyg9TylbTkhdYzJbY0hdYyhDKEYpKEYpRilbY0hdW25IXWMyPU8=

> <s_epik_cmdline>
J2VwaWtfcHl0aG9uJywgJy1waCcsICc3LjAnLCAnLXRuJywgJzgnLCAnLW1hJywgJzIwMCcsICctbWV0YWxfYmluZGluZycsICctaW1hZScsICc8aW5maWxlLm1hZT4nLCAnLW9tYWUnLCAnPG91dGZpbGUubWFlPic=

> <r_lp_tautomer_probability>
1

> <r_epik_Ionization_Penalty>
3.00907

> <r_epik_Ionization_Penalty_Charging>
0.148702

> <r_epik_Ionization_Penalty_Neutral>
2.86036

> <r_epik_State_Penalty>
2.85557

> <r_epik_Charging_Adjusted_Penalty>
3.00428

> <i_epik_Tot_Q>
0

> <i_epik_Tot_abs_Q>
2

> <r_epik_Metal_State_Penalty>
0.443779

> <b_epik_Metal_Only>
1

> <s_lp_Force_Field>
OPLS_2005

> <r_lp_Energy>
26.5134

> <b_lp_Chiralities_Consistent>
1

> <s_lp_Variant>
AV-unprocessed.smi:1748-5

> <Gold.Version>
5.8.1

> <Gold.Id.Protein>
6NUR|6NUR_protein|mol2

> <Gold.PLP.Fitness>
44.2745

> <Gold.PLP.PLP>
-38.0193

> <Gold.PLP.part.hbond>
-2.5207

> <Gold.PLP.part.metal>
0.0000

> <Gold.PLP.part.buried>
-3.2839

> <Gold.PLP.part.nonpolar>
-32.9774

> <Gold.PLP.part.repulsive>
0.1106

> <Gold.PLP.ligand.clash>
0.0000

> <Gold.PLP.ligand.torsion>
1.3794

> <Gold.PLP.Chemscore.Hbond>
3.0000

> <Gold.PLP.Chemscore.CHOScore>
0.0000

> <Gold.PLP.Chemscore.Metal>
0.0000

> <Gold.Chemscore.Hbonds>
donor molecule, donor type, donor heavy atom, donor atom, acceptor molecule, acceptor atom, score
      L1  H     2    39       P1  7948  2.00
      P1  H  7989  7998       L1     9  1.00
      P1  H  7997  8008       L1    19  0.02

> <Gold.PLP.Chemscore.Internal.Correction>
0.0140

> <Gold.Rescore>
     Score         DG    S(hbond)    S(metal)    S(lipo)     H(rot)  DE(clash)    DE(int)     intcor
     17.45     -18.70       2.03        0.00      76.77       1.00       0.12       1.12       ----

> <Gold.Chemscore.Fitness>
17.4549

> <Gold.Chemscore.DG>
-18.6962

> <Gold.Chemscore.ZeroCoef>
-5.4800

> <Gold.Chemscore.Hbond>
2.0341

> <Gold.Chemscore.Metal>
0.0000

> <Gold.Chemscore.Lipo>
76.7713

> <Gold.Chemscore.Internal_Hbond>
0.0000

> <Gold.Chemscore.DEClash>
0.1174

> <Gold.Chemscore.DEInternal>
1.1239

> <Gold.Chemscore.Rot>
1.0000

> <Gold.Chemscore.Internal.Correction>
   9.000000E+99

> <Gold.Chemscore.Hbonds>
donor molecule, donor type, donor heavy atom, donor atom, acceptor molecule, acceptor atom, score
      L1  H     2    39       P1  7948  0.97
      P1  H  7989  7998       L1     9  0.99
      P1  H  7997  8008       L1    19  0.01

> <Gold.Chemscore.Hbond.Weighted>
-6.7939

> <Gold.Chemscore.Metal.Weighted>
-0.0000

> <Gold.Chemscore.Lipo.Weighted>
-8.9822

> <Gold.Chemscore.Internal_Hbond.Weighted>
0.0000

> <Gold.Chemscore.DEClash.Weighted>
0.1174

> <Gold.Chemscore.DEInternal.Weighted>
1.1239

> <Gold.Chemscore.Rot.Weighted>
2.5600

> <Gold.Chemscore.Internal.Correction.Weighted>
   9.000000E+99

> <Gold.Protein.RotatedTorsions>
[ 6907 6896 6895 6894 ] final  151.71 input  -60.11 | X-H torsion
[ 7974 7965 7964 7962 ] final   22.14 input  175.53 | X-H torsion
[ 8008 7997 7996 7995 ] final -116.74 input   59.86 | X-H torsion
[ 10167 10162 10161 10158 ] final  -81.89 input  -65.29 | X-H torsion
[ 10718 10713 10712 10709 ] final   95.74 input   66.30 | X-H torsion
[ 10763 10752 10751 10750 ] final   -7.27 input  -60.55 | X-H torsion
[ 11005 11000 10999 10996 ] final  159.40 input  -57.11 | X-H torsion

> <Gold.Protein.ActiveResidues>
 VAL166  LYS551  ARG553  GLY616  TRP617  ASP618  TYR619  PRO620  LYS621  CYS622 
 ASP623  PHE694  ASN695  SER759  ASP760  ASP761  ALA762  ILE779  LEU786  VAL792 
 PHE793  MET794  SER795  GLU796  ALA797  LYS798  CYS799  TRP800  GLU811  SER814 

> <Gold.Protein.RotatedAtoms>
  152.0969  133.4229  159.4568 H   0  0  0  0  0  0  0  0  0  0  0  0  # atno 6907 bound_to 6896
  150.6863  134.2806  159.4635 H   0  0  0  0  0  0  0  0  0  0  0  0  # atno 6908 bound_to 6896
  152.0663  134.9562  160.0625 H   0  0  0  0  0  0  0  0  0  0  0  0  # atno 6909 bound_to 6896
  146.2041  139.7927  142.8739 H   0  0  0  0  0  0  0  0  0  0  0  0  # atno 7974 bound_to 7965
  155.0726  140.0393  157.2613 H   0  0  0  0  0  0  0  0  0  0  0  0  # atno 8008 bound_to 7997
  154.6970  140.2665  155.6732 H   0  0  0  0  0  0  0  0  0  0  0  0  # atno 8009 bound_to 7997
  156.2748  140.2748  156.1568 H   0  0  0  0  0  0  0  0  0  0  0  0  # atno 8010 bound_to 7997
  140.4371  143.2528  151.8679 H   0  0  0  0  0  0  0  0  0  0  0  0  # atno 10167 bound_to 10162
  157.6935  131.0555  150.4386 H   0  0  0  0  0  0  0  0  0  0  0  0  # atno 10718 bound_to 10713
  153.4239  135.7010  153.6275 H   0  0  0  0  0  0  0  0  0  0  0  0  # atno 10763 bound_to 10752
  153.4718  135.3713  155.2395 H   0  0  0  0  0  0  0  0  0  0  0  0  # atno 10764 bound_to 10752
  154.8723  135.4045  154.3612 H   0  0  0  0  0  0  0  0  0  0  0  0  # atno 10765 bound_to 10752
  140.1958  134.8374  157.2963 H   0  0  0  0  0  0  0  0  0  0  0  0  # atno 11005 bound_to 11000
  145.3380  141.0281  143.3408 LP  0  0  0  0  0  0  0  0  0  0  0  0  # atno 17320 bound_to 7965
  144.8752  139.4982  143.6749 LP  0  0  0  0  0  0  0  0  0  0  0  0  # atno 17321 bound_to 7965
  139.4787  144.5271  151.8720 LP  0  0  0  0  0  0  0  0  0  0  0  0  # atno 17342 bound_to 10162
  140.4361  144.2049  150.5889 LP  0  0  0  0  0  0  0  0  0  0  0  0  # atno 17343 bound_to 10162
  156.4746  130.4060  149.6497 LP  0  0  0  0  0  0  0  0  0  0  0  0  # atno 17370 bound_to 10713
  156.3565  130.7459  151.2426 LP  0  0  0  0  0  0  0  0  0  0  0  0  # atno 17371 bound_to 10713
  140.2108  134.4140  155.7613 LP  0  0  0  0  0  0  0  0  0  0  0  0  # atno 17394 bound_to 11000
  141.2227  133.7117  156.8335 LP  0  0  0  0  0  0  0  0  0  0  0  0  # atno 17395 bound_to 11000

$$$$
