AV-unprocessed.smi:357|AV-procd|sdf|2416|dock4
  -GOLD-   2262022353D 1   1.00000     0.00000
 Structure written by MMmdl.
 37 38  0  0  0  0  0  0  0  0  1 V2000
  152.4803  139.8704  155.4549 O   0  0  0  0  0  0  0  0  0  0  0  0
  151.3082  140.1394  155.1885 C   0  0  0  0  0  0  0  0  0  0  0  0
  150.4822  139.3423  154.2701 C   0  0  0  0  0  0  0  0  0  0  0  0
  151.2151  137.9495  153.5458 Cl  0  0  0  0  0  0  0  0  0  0  0  0
  149.1934  139.6683  153.9817 C   0  0  0  0  0  0  0  0  0  0  0  0
  148.4449  138.8956  153.1015 N   0  0  0  0  0  0  0  0  0  0  0  0
  147.0666  139.0789  152.6707 C   0  0  0  0  0  0  0  0  0  0  0  0
  146.2998  137.7499  152.6084 C   0  0  0  0  0  0  0  0  0  0  0  0
  144.9359  137.9842  152.3303 O   0  0  0  0  0  0  0  0  0  0  0  0
  148.6663  140.8583  154.6330 C   0  0  0  0  0  0  0  0  0  0  0  0
  149.3618  141.5754  155.4464 N   0  0  0  0  0  0  0  0  0  0  0  0
  150.6659  141.2194  155.7235 N   0  0  0  0  0  0  0  0  0  0  0  0
  151.3524  142.1326  156.6432 C   0  0  0  0  0  0  0  0  0  0  0  0
  150.5173  142.3839  157.9076 C   0  0  0  0  0  0  0  0  0  0  0  0
  151.1109  143.4445  158.6437 O   0  0  0  0  0  0  0  0  0  0  0  0
  151.9502  143.1213  159.6882 C   0  0  0  0  0  0  0  0  0  0  0  0
  152.6655  141.9104  159.5829 C   0  0  0  0  0  0  0  0  0  0  0  0
  153.5443  141.5007  160.6041 C   0  0  0  0  0  0  0  0  0  0  0  0
  153.7168  142.3025  161.7475 C   0  0  0  0  0  0  0  0  0  0  0  0
  154.7925  141.8032  163.0005 Cl  0  0  0  0  0  0  0  0  0  0  0  0
  153.0090  143.5130  161.8664 C   0  0  0  0  0  0  0  0  0  0  0  0
  152.1307  143.9228  160.8444 C   0  0  0  0  0  0  0  0  0  0  0  0
  148.9024  138.0817  152.7154 H   0  0  0  0  0  0  0  0  0  0  0  0
  146.5971  139.7124  153.4236 H   0  0  0  0  0  0  0  0  0  0  0  0
  146.9992  139.6316  151.7335 H   0  0  0  0  0  0  0  0  0  0  0  0
  146.7298  137.0680  151.8737 H   0  0  0  0  0  0  0  0  0  0  0  0
  146.3526  137.2515  153.5766 H   0  0  0  0  0  0  0  0  0  0  0  0
  144.7150  138.8554  152.6224 H   0  0  0  0  0  0  0  0  0  0  0  0
  147.6368  141.1221  154.3949 H   0  0  0  0  0  0  0  0  0  0  0  0
  152.3214  141.7170  156.9259 H   0  0  0  0  0  0  0  0  0  0  0  0
  151.5772  143.0788  156.1479 H   0  0  0  0  0  0  0  0  0  0  0  0
  149.4938  142.6468  157.6349 H   0  0  0  0  0  0  0  0  0  0  0  0
  150.4872  141.4758  158.5119 H   0  0  0  0  0  0  0  0  0  0  0  0
  152.5396  141.2885  158.7087 H   0  0  0  0  0  0  0  0  0  0  0  0
  154.0850  140.5706  160.5079 H   0  0  0  0  0  0  0  0  0  0  0  0
  153.1383  144.1305  162.7431 H   0  0  0  0  0  0  0  0  0  0  0  0
  151.6061  144.8572  160.9729 H   0  0  0  0  0  0  0  0  0  0  0  0
  1  2  2  0  0  0  0
  2 12  1  0  0  0  0
  2  3  1  0  0  0  0
  3  4  1  0  0  0  0
  3  5  2  0  0  0  0
  5  6  1  0  0  0  0
  5 10  1  0  0  0  0
  6  7  1  0  0  0  0
  6 23  1  0  0  0  0
  7  8  1  0  0  0  0
  7 24  1  0  0  0  0
  7 25  1  0  0  0  0
  8  9  1  0  0  0  0
  8 26  1  0  0  0  0
  8 27  1  0  0  0  0
  9 28  1  0  0  0  0
 10 11  2  0  0  0  0
 10 29  1  0  0  0  0
 11 12  1  0  0  0  0
 12 13  1  0  0  0  0
 13 14  1  0  0  0  0
 13 30  1  0  0  0  0
 13 31  1  0  0  0  0
 14 15  1  0  0  0  0
 14 32  1  0  0  0  0
 14 33  1  0  0  0  0
 15 16  1  0  0  0  0
 16 22  1  0  0  0  0
 16 17  2  0  0  0  0
 17 18  1  0  0  0  0
 17 34  1  0  0  0  0
 18 19  2  0  0  0  0
 18 35  1  0  0  0  0
 19 20  1  0  0  0  0
 19 21  1  0  0  0  0
 21 22  2  0  0  0  0
 21 36  1  0  0  0  0
 22 37  1  0  0  0  0
M  END
> <s_m_source_file>
AV-unprocessed.smi

> <i_m_source_file_index>
357

> <i_lp_mmshare_version>
43012

> <i_f3d_flags>
0

> <s_epik_input>
W09IXVtDSDJdW0NIMl1bTkhdYyhjKENsKWMxPU8pW2NIXW5uMVtDSDJdW0NIMl1PYzJbY0hdW2NIXWMoQ2wpW2NIXVtjSF0y

> <s_epik_cmdline>
J2VwaWtfcHl0aG9uJywgJy1waCcsICc3LjAnLCAnLXRuJywgJzgnLCAnLW1hJywgJzIwMCcsICctbWV0YWxfYmluZGluZycsICctaW1hZScsICc8aW5maWxlLm1hZT4nLCAnLW9tYWUnLCAnPG91dGZpbGUubWFlPic=

> <r_lp_tautomer_probability>
1

> <r_epik_Ionization_Penalty>
2.22594e-05

> <r_epik_Ionization_Penalty_Charging>
1.05597e-09

> <r_epik_Ionization_Penalty_Neutral>
2.22583e-05

> <r_epik_State_Penalty>
-0

> <r_epik_Charging_Adjusted_Penalty>
1.05597e-09

> <i_epik_Tot_Q>
0

> <i_epik_Tot_abs_Q>
0

> <r_epik_Metal_State_Penalty>
-0

> <b_epik_Metal_Only>
0

> <s_lp_Force_Field>
OPLS_2005

> <r_lp_Energy>
32.065

> <b_lp_Chiralities_Consistent>
1

> <s_lp_Variant>
AV-unprocessed.smi:357-1

> <Gold.Version>
5.8.1

> <Gold.Id.Protein>
6NUR|6NUR_protein|mol2

> <Gold.PLP.Fitness>
60.1459

> <Gold.PLP.PLP>
-53.0809

> <Gold.PLP.part.hbond>
-4.9270

> <Gold.PLP.part.metal>
0.0000

> <Gold.PLP.part.buried>
-0.7673

> <Gold.PLP.part.nonpolar>
-45.9325

> <Gold.PLP.part.repulsive>
0.6313

> <Gold.PLP.ligand.clash>
0.0000

> <Gold.PLP.ligand.torsion>
0.8885

> <Gold.PLP.Chemscore.Hbond>
2.9175

> <Gold.PLP.Chemscore.CHOScore>
0.0000

> <Gold.PLP.Chemscore.Metal>
0.0000

> <Gold.Chemscore.Hbonds>
donor molecule, donor type, donor heavy atom, donor atom, acceptor molecule, acceptor atom, score
      L1  H     6    23       P1  7948  1.00
      L1  H     9    28       P1 10175  0.99
      P1  H  7997  8010       L1     1  1.00

> <Gold.PLP.Chemscore.Internal.Correction>
0.0895

> <Gold.Rescore>
     Score         DG    S(hbond)    S(metal)    S(lipo)     H(rot)  DE(clash)    DE(int)     intcor
     18.24     -19.99       1.89        0.00     129.14       2.70       0.17       1.58       ----

> <Gold.Chemscore.Fitness>
18.2396

> <Gold.Chemscore.DG>
-19.9904

> <Gold.Chemscore.ZeroCoef>
-5.4800

> <Gold.Chemscore.Hbond>
1.8901

> <Gold.Chemscore.Metal>
0.0000

> <Gold.Chemscore.Lipo>
129.1403

> <Gold.Chemscore.Internal_Hbond>
0.0000

> <Gold.Chemscore.DEClash>
0.1714

> <Gold.Chemscore.DEInternal>
1.5794

> <Gold.Chemscore.Rot>
2.6999

> <Gold.Chemscore.Internal.Correction>
   9.000000E+99

> <Gold.Chemscore.Hbonds>
donor molecule, donor type, donor heavy atom, donor atom, acceptor molecule, acceptor atom, score
      L1  H     6    23       P1  7948  0.94
      L1  H     9    28       P1 10175  0.94
      P1  H  7997  8010       L1     1  0.93

> <Gold.Chemscore.Hbond.Weighted>
-6.3128

> <Gold.Chemscore.Metal.Weighted>
-0.0000

> <Gold.Chemscore.Lipo.Weighted>
-15.1094

> <Gold.Chemscore.Internal_Hbond.Weighted>
0.0000

> <Gold.Chemscore.DEClash.Weighted>
0.1714

> <Gold.Chemscore.DEInternal.Weighted>
1.5794

> <Gold.Chemscore.Rot.Weighted>
6.9118

> <Gold.Chemscore.Internal.Correction.Weighted>
   9.000000E+99

> <Gold.Protein.RotatedTorsions>
[ 6907 6896 6895 6894 ] final  143.28 input  -60.11 | X-H torsion
[ 7974 7965 7964 7962 ] final  -30.05 input  175.53 | X-H torsion
[ 8008 7997 7996 7995 ] final   84.02 input   59.86 | X-H torsion
[ 10167 10162 10161 10158 ] final    2.29 input  -65.29 | X-H torsion
[ 10718 10713 10712 10709 ] final  113.37 input   66.30 | X-H torsion
[ 10763 10752 10751 10750 ] final -128.25 input  -60.55 | X-H torsion
[ 11005 11000 10999 10996 ] final   51.44 input  -57.11 | X-H torsion

> <Gold.Protein.ActiveResidues>
 VAL166  LYS551  ARG553  GLY616  TRP617  ASP618  TYR619  PRO620  LYS621  CYS622 
 ASP623  PHE694  ASN695  SER759  ASP760  ASP761  ALA762  ILE779  LEU786  VAL792 
 PHE793  MET794  SER795  GLU796  ALA797  LYS798  CYS799  TRP800  GLU811  SER814 

> <Gold.Protein.RotatedAtoms>
  152.2082  133.4891  159.5095 H   0  0  0  0  0  0  0  0  0  0  0  0  # atno 6907 bound_to 6896
  150.6984  134.1501  159.4146 H   0  0  0  0  0  0  0  0  0  0  0  0  # atno 6908 bound_to 6896
  151.9420  135.0209  160.0587 H   0  0  0  0  0  0  0  0  0  0  0  0  # atno 6909 bound_to 6896
  146.1171  140.5491  142.8752 H   0  0  0  0  0  0  0  0  0  0  0  0  # atno 7974 bound_to 7965
  155.9316  140.3414  155.6254 H   0  0  0  0  0  0  0  0  0  0  0  0  # atno 8008 bound_to 7997
  155.7150  140.0776  157.2373 H   0  0  0  0  0  0  0  0  0  0  0  0  # atno 8009 bound_to 7997
  154.4086  140.1616  156.2326 H   0  0  0  0  0  0  0  0  0  0  0  0  # atno 8010 bound_to 7997
  140.6642  143.7223  150.7796 H   0  0  0  0  0  0  0  0  0  0  0  0  # atno 10167 bound_to 10162
  157.6342  131.0982  150.7031 H   0  0  0  0  0  0  0  0  0  0  0  0  # atno 10718 bound_to 10713
  154.8755  135.3934  154.3727 H   0  0  0  0  0  0  0  0  0  0  0  0  # atno 10763 bound_to 10752
  153.4484  135.7028  153.6129 H   0  0  0  0  0  0  0  0  0  0  0  0  # atno 10764 bound_to 10752
  153.4680  135.3797  155.2344 H   0  0  0  0  0  0  0  0  0  0  0  0  # atno 10765 bound_to 10752
  140.0932  134.5181  155.8832 H   0  0  0  0  0  0  0  0  0  0  0  0  # atno 11005 bound_to 11000
  144.7563  140.5315  143.6766 LP  0  0  0  0  0  0  0  0  0  0  0  0  # atno 17320 bound_to 7965
  145.5543  139.1477  143.3376 LP  0  0  0  0  0  0  0  0  0  0  0  0  # atno 17321 bound_to 7965
  140.0898  143.4889  152.2485 LP  0  0  0  0  0  0  0  0  0  0  0  0  # atno 17342 bound_to 10162
  139.5885  144.7541  151.3459 LP  0  0  0  0  0  0  0  0  0  0  0  0  # atno 17343 bound_to 10162
  156.7365  130.4726  149.5487 LP  0  0  0  0  0  0  0  0  0  0  0  0  # atno 17370 bound_to 10713
  156.1568  130.6347  151.0667 LP  0  0  0  0  0  0  0  0  0  0  0  0  # atno 17371 bound_to 10713
  141.2084  133.6673  156.6370 LP  0  0  0  0  0  0  0  0  0  0  0  0  # atno 17394 bound_to 11000
  140.3323  134.7919  157.4335 LP  0  0  0  0  0  0  0  0  0  0  0  0  # atno 17395 bound_to 11000

$$$$
