AV-unprocessed.smi:34|AV-procd|sdf|217|dock9
  -GOLD-   2262015533D 1   1.00000     0.00000
 Structure written by MMmdl.
 55 59  0  0  0  0  0  0  0  0  1 V2000
  151.9321  140.0708  158.8326 O   0  0  0  0  0  0  0  0  0  0  0  0
  151.5922  141.0417  158.1559 C   0  0  0  0  0  0  0  0  0  0  0  0
  151.0637  140.8984  156.8105 N   0  0  0  0  0  0  0  0  0  0  0  0
  150.7997  139.7561  156.1332 C   0  0  0  0  0  0  0  0  0  0  0  0
  150.9082  139.6675  154.7813 N   0  0  0  0  0  0  0  0  0  0  0  0
  150.6330  138.5183  154.1583 C   0  0  0  0  0  0  0  0  0  0  0  0
  150.2390  137.3581  154.6866 N   0  0  0  0  0  0  0  0  0  0  0  0
  150.1293  137.4360  156.0435 C   0  0  0  0  0  0  0  0  0  0  0  0
  150.3916  138.5906  156.8331 C   0  0  0  0  0  0  0  0  0  0  0  0
  150.1783  138.3012  158.1742 N   0  0  0  0  0  0  0  0  0  0  0  0
  149.8125  137.0475  158.1722 C   0  0  0  0  0  0  0  0  0  0  0  0
  149.7489  136.4508  156.9323 N   0  0  0  0  0  0  0  0  0  0  0  0
  149.3641  135.0395  156.6263 C   0  0  2  0  0  0  0  0  0  0  0  0
  150.1117  134.1921  157.4479 O   0  0  0  0  0  0  0  0  0  0  0  0
  150.5735  133.0583  156.7090 C   0  0  2  0  0  0  0  0  0  0  0  0
  152.1070  133.0872  156.6394 C   0  0  0  0  0  0  0  0  0  0  0  0
  152.5905  131.7961  156.3055 O   0  0  0  0  0  0  0  0  0  0  0  0
  152.9915  130.9545  157.2789 C   0  0  0  0  0  0  0  0  0  0  0  0
  152.8116  131.1656  158.4800 O   0  0  0  0  0  0  0  0  0  0  0  0
  153.6786  129.7406  156.7506 C   0  0  0  0  0  0  0  0  0  0  0  0
  153.9416  129.6414  155.3642 C   0  0  0  0  0  0  0  0  0  0  0  0
  154.5870  128.5063  154.8357 C   0  0  0  0  0  0  0  0  0  0  0  0
  154.9767  127.4563  155.6872 C   0  0  0  0  0  0  0  0  0  0  0  0
  154.7206  127.5426  157.0680 C   0  0  0  0  0  0  0  0  0  0  0  0
  154.0756  128.6771  157.5985 C   0  0  0  0  0  0  0  0  0  0  0  0
  149.9042  133.1665  155.3355 C   0  0  1  0  0  0  0  0  0  0  0  0
  148.7305  132.5315  155.4057 F   0  0  0  0  0  0  0  0  0  0  0  0
  149.7012  134.6646  155.1838 C   0  0  1  0  0  0  0  0  0  0  0  0
  148.6623  134.9371  154.2649 O   0  0  0  0  0  0  0  0  0  0  0  0
  151.7784  142.4485  158.6464 C   0  0  0  0  0  0  0  0  0  0  0  0
  151.5061  143.5377  157.7881 C   0  0  0  0  0  0  0  0  0  0  0  0
  151.6956  144.8606  158.2321 C   0  0  0  0  0  0  0  0  0  0  0  0
  152.1649  145.1063  159.5363 C   0  0  0  0  0  0  0  0  0  0  0  0
  152.4489  144.0274  160.3947 C   0  0  0  0  0  0  0  0  0  0  0  0
  152.2608  142.7037  159.9513 C   0  0  0  0  0  0  0  0  0  0  0  0
  150.8529  141.7584  156.3254 H   0  0  0  0  0  0  0  0  0  0  0  0
  150.7432  138.5301  153.0839 H   0  0  0  0  0  0  0  0  0  0  0  0
  149.5730  136.5199  159.0840 H   0  0  0  0  0  0  0  0  0  0  0  0
  148.3031  134.9560  156.8670 H   0  0  0  0  0  0  0  0  0  0  0  0
  150.2581  132.1521  157.2285 H   0  0  0  0  0  0  0  0  0  0  0  0
  152.4466  133.8154  155.9027 H   0  0  0  0  0  0  0  0  0  0  0  0
  152.5167  133.3800  157.6070 H   0  0  0  0  0  0  0  0  0  0  0  0
  153.6512  130.4349  154.6908 H   0  0  0  0  0  0  0  0  0  0  0  0
  154.7824  128.4418  153.7754 H   0  0  0  0  0  0  0  0  0  0  0  0
  155.4716  126.5860  155.2818 H   0  0  0  0  0  0  0  0  0  0  0  0
  155.0188  126.7370  157.7228 H   0  0  0  0  0  0  0  0  0  0  0  0
  153.8938  128.7107  158.6628 H   0  0  0  0  0  0  0  0  0  0  0  0
  150.4764  132.7147  154.5243 H   0  0  0  0  0  0  0  0  0  0  0  0
  150.6295  135.1449  154.8726 H   0  0  0  0  0  0  0  0  0  0  0  0
  149.0164  135.4546  153.5578 H   0  0  0  0  0  0  0  0  0  0  0  0
  151.1460  143.3663  156.7836 H   0  0  0  0  0  0  0  0  0  0  0  0
  151.4813  145.6874  157.5710 H   0  0  0  0  0  0  0  0  0  0  0  0
  152.3102  146.1209  159.8768 H   0  0  0  0  0  0  0  0  0  0  0  0
  152.8153  144.2153  161.3932 H   0  0  0  0  0  0  0  0  0  0  0  0
  152.4950  141.8910  160.6233 H   0  0  0  0  0  0  0  0  0  0  0  0
  1  2  2  0  0  0  0
  2  3  1  0  0  0  0
  2 30  1  0  0  0  0
  3  4  1  0  0  0  0
  3 36  1  0  0  0  0
  4  9  1  0  0  0  0
  4  5  2  0  0  0  0
  5  6  1  0  0  0  0
  6  7  2  0  0  0  0
  6 37  1  0  0  0  0
  7  8  1  0  0  0  0
  8 12  1  0  0  0  0
  8  9  2  0  0  0  0
  9 10  1  0  0  0  0
 10 11  2  0  0  0  0
 11 12  1  0  0  0  0
 11 38  1  0  0  0  0
 12 13  1  0  0  0  0
 13 28  1  0  0  0  0
 13 14  1  0  0  0  0
 13 39  1  0  0  0  0
 14 15  1  0  0  0  0
 15 16  1  0  0  0  0
 15 26  1  0  0  0  0
 15 40  1  0  0  0  0
 16 17  1  0  0  0  0
 16 41  1  0  0  0  0
 16 42  1  0  0  0  0
 17 18  1  0  0  0  0
 18 19  2  0  0  0  0
 18 20  1  0  0  0  0
 20 25  1  0  0  0  0
 20 21  2  0  0  0  0
 21 22  1  0  0  0  0
 21 43  1  0  0  0  0
 22 23  2  0  0  0  0
 22 44  1  0  0  0  0
 23 24  1  0  0  0  0
 23 45  1  0  0  0  0
 24 25  2  0  0  0  0
 24 46  1  0  0  0  0
 25 47  1  0  0  0  0
 26 27  1  0  0  0  0
 26 28  1  0  0  0  0
 26 48  1  0  0  0  0
 28 29  1  0  0  0  0
 28 49  1  0  0  0  0
 29 50  1  0  0  0  0
 30 35  1  0  0  0  0
 30 31  2  0  0  0  0
 31 32  1  0  0  0  0
 31 51  1  0  0  0  0
 32 33  2  0  0  0  0
 32 52  1  0  0  0  0
 33 34  1  0  0  0  0
 33 53  1  0  0  0  0
 34 35  2  0  0  0  0
 34 54  1  0  0  0  0
 35 55  1  0  0  0  0
M  END
> <s_m_source_file>
AV-unprocessed.smi

> <i_m_source_file_index>
34

> <i_lp_mmshare_version>
43012

> <i_f3d_flags>
0

> <s_epik_input>
W2NIXTFbY0hdW2NIXVtjSF1bY0hdYzFDKD1PKVtOSF1jKG5bY0hdbjIpYyhjMjMpbltjSF1uM1tDQEBIXTRPW0NASF0oW0NAQEhdKEYpW0NASF00W09IXSlbQ0gyXU9DKD1PKWM1W2NIXVtjSF1bY0hdW2NIXVtjSF01

> <s_epik_cmdline>
J2VwaWtfcHl0aG9uJywgJy1waCcsICc3LjAnLCAnLXRuJywgJzgnLCAnLW1hJywgJzIwMCcsICctbWV0YWxfYmluZGluZycsICctaW1hZScsICc8aW5maWxlLm1hZT4nLCAnLW9tYWUnLCAnPG91dGZpbGUubWFlPic=

> <r_lp_tautomer_probability>
1

> <r_epik_Ionization_Penalty>
0.00257489

> <r_epik_Ionization_Penalty_Charging>
0

> <r_epik_Ionization_Penalty_Neutral>
0.00257489

> <r_epik_State_Penalty>
0.00519398

> <r_epik_Charging_Adjusted_Penalty>
0.00519398

> <i_epik_Tot_Q>
0

> <i_epik_Tot_abs_Q>
0

> <r_epik_Metal_State_Penalty>
0.335891

> <b_epik_Metal_Only>
0

> <s_epik_Chemistry_Notes>
This compound has an ester and may undergo hydrolysis at high or low pH. This compound contains an acetal/aminal-like group ( X-CH(R)-Y where X, Y are N, S, or O) that may be acid/base labile, releasing an aldehyde.

> <s_lp_Force_Field>
OPLS_2005

> <r_lp_Energy>
51.1648

> <b_lp_Chiralities_Consistent>
1

> <s_lp_Variant>
AV-unprocessed.smi:34-3

> <Gold.Version>
5.8.1

> <Gold.Id.Protein>
6NUR|6NUR_protein|mol2

> <Gold.PLP.Fitness>
56.3326

> <Gold.PLP.PLP>
-46.7514

> <Gold.PLP.part.hbond>
-3.0000

> <Gold.PLP.part.metal>
0.0000

> <Gold.PLP.part.buried>
-7.9583

> <Gold.PLP.part.nonpolar>
-36.3466

> <Gold.PLP.part.repulsive>
0.3427

> <Gold.PLP.ligand.clash>
0.0000

> <Gold.PLP.ligand.torsion>
0.9588

> <Gold.PLP.Chemscore.Hbond>
2.7842

> <Gold.PLP.Chemscore.CHOScore>
1.0000

> <Gold.PLP.Chemscore.Metal>
0.0000

> <Gold.Chemscore.Hbonds>
donor molecule, donor type, donor heavy atom, donor atom, acceptor molecule, acceptor atom, score
      L1  H    29    50       P1  7948  1.00
      P1  H  6896  6908       L1    14  0.82
      P1  H  7989  7998       L1     5  1.00
      L1  C     6    37       P1  7957  0.60

> <Gold.PLP.Chemscore.Internal.Correction>
0.1463

> <Gold.Rescore>
     Score         DG    S(hbond)    S(metal)    S(lipo)     H(rot)  DE(clash)    DE(int)     intcor
     15.67     -20.88       2.52        0.00     119.23       2.72       0.27       4.94       ----

> <Gold.Chemscore.Fitness>
15.6654

> <Gold.Chemscore.DG>
-20.8760

> <Gold.Chemscore.ZeroCoef>
-5.4800

> <Gold.Chemscore.Hbond>
2.5191

> <Gold.Chemscore.Metal>
0.0000

> <Gold.Chemscore.Lipo>
119.2257

> <Gold.Chemscore.Internal_Hbond>
0.0000

> <Gold.Chemscore.DEClash>
0.2686

> <Gold.Chemscore.DEInternal>
4.9421

> <Gold.Chemscore.Rot>
2.7215

> <Gold.Chemscore.Internal.Correction>
   9.000000E+99

> <Gold.Chemscore.Hbonds>
donor molecule, donor type, donor heavy atom, donor atom, acceptor molecule, acceptor atom, score
      L1  H    29    50       P1  7948  0.68
      P1  H  6896  6908       L1    14  0.65
      P1  H  7989  7998       L1     5  0.65

> <Gold.Chemscore.Hbond.Weighted>
-8.4137

> <Gold.Chemscore.Metal.Weighted>
-0.0000

> <Gold.Chemscore.Lipo.Weighted>
-13.9494

> <Gold.Chemscore.Internal_Hbond.Weighted>
0.0000

> <Gold.Chemscore.DEClash.Weighted>
0.2686

> <Gold.Chemscore.DEInternal.Weighted>
4.9421

> <Gold.Chemscore.Rot.Weighted>
6.9670

> <Gold.Chemscore.Internal.Correction.Weighted>
   9.000000E+99

> <Gold.Protein.RotatedTorsions>
[ 6907 6896 6895 6894 ] final  141.09 input  -60.11 | X-H torsion
[ 7974 7965 7964 7962 ] final  -65.94 input  175.53 | X-H torsion
[ 8008 7997 7996 7995 ] final  -71.65 input   59.86 | X-H torsion
[ 10167 10162 10161 10158 ] final  153.49 input  -65.29 | X-H torsion
[ 10718 10713 10712 10709 ] final  -34.67 input   66.30 | X-H torsion
[ 10763 10752 10751 10750 ] final  -81.75 input  -60.55 | X-H torsion
[ 11005 11000 10999 10996 ] final  -69.35 input  -57.11 | X-H torsion

> <Gold.Protein.ActiveResidues>
 VAL166  LYS551  ARG553  GLY616  TRP617  ASP618  TYR619  PRO620  LYS621  CYS622 
 ASP623  PHE694  ASN695  SER759  ASP760  ASP761  ALA762  ILE779  LEU786  VAL792 
 PHE793  MET794  SER795  GLU796  ALA797  LYS798  CYS799  TRP800  GLU811  SER814 

> <Gold.Protein.RotatedAtoms>
  152.2352  133.5090  159.5238 H   0  0  0  0  0  0  0  0  0  0  0  0  # atno 6907 bound_to 6896
  150.7048  134.1163  159.4027 H   0  0  0  0  0  0  0  0  0  0  0  0  # atno 6908 bound_to 6896
  151.9084  135.0349  160.0563 H   0  0  0  0  0  0  0  0  0  0  0  0  # atno 6909 bound_to 6896
  145.7479  140.8922  143.0495 H   0  0  0  0  0  0  0  0  0  0  0  0  # atno 7974 bound_to 7965
  154.5104  140.0812  156.7978 H   0  0  0  0  0  0  0  0  0  0  0  0  # atno 8008 bound_to 7997
  155.3798  140.3427  155.4228 H   0  0  0  0  0  0  0  0  0  0  0  0  # atno 8009 bound_to 7997
  156.1566  140.1575  156.8669 H   0  0  0  0  0  0  0  0  0  0  0  0  # atno 8010 bound_to 7997
  139.4827  144.5268  151.7787 H   0  0  0  0  0  0  0  0  0  0  0  0  # atno 10167 bound_to 10162
  156.3477  130.4303  149.7731 H   0  0  0  0  0  0  0  0  0  0  0  0  # atno 10718 bound_to 10713
  154.5674  135.5615  153.7063 H   0  0  0  0  0  0  0  0  0  0  0  0  # atno 10763 bound_to 10752
  153.0037  135.6288  154.2162 H   0  0  0  0  0  0  0  0  0  0  0  0  # atno 10764 bound_to 10752
  154.2101  135.2874  155.2941 H   0  0  0  0  0  0  0  0  0  0  0  0  # atno 10765 bound_to 10752
  141.1552  133.6762  156.6586 H   0  0  0  0  0  0  0  0  0  0  0  0  # atno 11005 bound_to 11000
  144.6856  139.9551  143.7479 LP  0  0  0  0  0  0  0  0  0  0  0  0  # atno 17320 bound_to 7965
  146.0385  139.3399  143.0712 LP  0  0  0  0  0  0  0  0  0  0  0  0  # atno 17321 bound_to 7965
  140.4789  144.1478  150.5929 LP  0  0  0  0  0  0  0  0  0  0  0  0  # atno 17342 bound_to 10162
  140.4299  143.2573  151.9608 LP  0  0  0  0  0  0  0  0  0  0  0  0  # atno 17343 bound_to 10162
  156.4943  130.8099  151.3107 LP  0  0  0  0  0  0  0  0  0  0  0  0  # atno 17370 bound_to 10713
  157.7456  130.9965  150.2782 LP  0  0  0  0  0  0  0  0  0  0  0  0  # atno 17371 bound_to 10713
  140.3265  134.7964  157.4293 LP  0  0  0  0  0  0  0  0  0  0  0  0  # atno 17394 bound_to 11000
  140.1053  134.5418  155.8315 LP  0  0  0  0  0  0  0  0  0  0  0  0  # atno 17395 bound_to 11000

$$$$
