AV-unprocessed.smi:1836|AV-procd|sdf|7478|dock7
  -GOLD-   22720 9173D 1   1.00000     0.00000
 Structure written by MMmdl.
 33 34  0  0  0  0  0  0  0  0  1 V2000
  151.9837  136.8897  156.0255 C   0  0  0  0  0  0  0  0  0  0  0  0
  150.6798  137.4074  155.4030 C   0  0  1  0  0  0  0  0  0  0  0  0
  150.9369  138.6717  154.5502 C   0  0  0  0  0  0  0  0  0  0  0  0
  150.6505  139.9087  155.2756 N   0  0  0  0  0  0  0  0  0  0  0  0
  149.5173  140.7412  154.9069 C   0  0  0  0  0  0  0  0  0  0  0  0
  149.3763  141.7444  156.0595 C   0  0  0  0  0  0  0  0  0  0  0  0
  150.7092  141.6923  156.8140 C   0  0  0  0  0  0  0  0  0  0  0  0
  151.3518  140.4167  156.2964 C   0  0  0  0  0  0  0  0  0  0  0  0
  152.3761  139.9392  156.7823 O   0  0  0  0  0  0  0  0  0  0  0  0
  150.1049  136.3416  154.5835 N   0  0  0  0  0  0  0  0  0  0  0  0
  150.0203  135.0490  154.9337 C   0  0  0  0  0  0  0  0  0  0  0  0
  150.4406  134.6042  156.0021 O   0  0  0  0  0  0  0  0  0  0  0  0
  149.4169  134.3241  153.9757 N   0  0  0  0  0  0  0  0  0  0  0  0
  149.0790  132.9451  153.9995 C   0  0  0  0  0  0  0  0  0  0  0  0
  149.4743  132.0985  154.9632 N   0  0  0  0  0  0  0  0  0  0  0  0
  148.9985  130.8110  154.7509 N   0  0  0  0  0  0  0  0  0  0  0  0
  148.2628  130.7379  153.6382 C   0  0  0  0  0  0  0  0  0  0  0  0
  148.0763  132.2355  152.7424 S   0  0  0  0  0  0  0  0  0  0  0  0
  152.4286  137.6391  156.6809 H   0  0  0  0  0  0  0  0  0  0  0  0
  152.7194  136.6382  155.2607 H   0  0  0  0  0  0  0  0  0  0  0  0
  151.8060  135.9961  156.6248 H   0  0  0  0  0  0  0  0  0  0  0  0
  150.0064  137.6464  156.2279 H   0  0  0  0  0  0  0  0  0  0  0  0
  151.9833  138.7019  154.2421 H   0  0  0  0  0  0  0  0  0  0  0  0
  150.3543  138.6357  153.6284 H   0  0  0  0  0  0  0  0  0  0  0  0
  149.7395  141.2524  153.9692 H   0  0  0  0  0  0  0  0  0  0  0  0
  148.6093  140.1533  154.7688 H   0  0  0  0  0  0  0  0  0  0  0  0
  149.1441  142.7471  155.6999 H   0  0  0  0  0  0  0  0  0  0  0  0
  148.5666  141.4363  156.7229 H   0  0  0  0  0  0  0  0  0  0  0  0
  151.3426  142.5440  156.5650 H   0  0  0  0  0  0  0  0  0  0  0  0
  150.5702  141.6595  157.8952 H   0  0  0  0  0  0  0  0  0  0  0  0
  149.7348  136.6139  153.6848 H   0  0  0  0  0  0  0  0  0  0  0  0
  149.1513  134.8204  153.1380 H   0  0  0  0  0  0  0  0  0  0  0  0
  147.8251  129.7955  153.3441 H   0  0  0  0  0  0  0  0  0  0  0  0
  1  2  1  0  0  0  0
  1 19  1  0  0  0  0
  1 20  1  0  0  0  0
  1 21  1  0  0  0  0
  2  3  1  0  0  0  0
  2 10  1  0  0  0  0
  2 22  1  0  0  0  0
  3  4  1  0  0  0  0
  3 23  1  0  0  0  0
  3 24  1  0  0  0  0
  4  8  1  0  0  0  0
  4  5  1  0  0  0  0
  5  6  1  0  0  0  0
  5 25  1  0  0  0  0
  5 26  1  0  0  0  0
  6  7  1  0  0  0  0
  6 27  1  0  0  0  0
  6 28  1  0  0  0  0
  7  8  1  0  0  0  0
  7 29  1  0  0  0  0
  7 30  1  0  0  0  0
  8  9  2  0  0  0  0
 10 11  1  0  0  0  0
 10 31  1  0  0  0  0
 11 12  2  0  0  0  0
 11 13  1  0  0  0  0
 13 14  1  0  0  0  0
 13 32  1  0  0  0  0
 14 18  1  0  0  0  0
 14 15  2  0  0  0  0
 15 16  1  0  0  0  0
 16 17  2  0  0  0  0
 17 18  1  0  0  0  0
 17 33  1  0  0  0  0
M  END
> <s_m_source_file>
AV-unprocessed.smi

> <i_m_source_file_index>
1836

> <i_lp_mmshare_version>
43012

> <i_f3d_flags>
0

> <s_epik_input>
Tz1DMVtDSDJdW0NIMl1bQ0gyXU4xW0NIMl1bQ0BASF0oW0NIM10pW05IXUMoPU8pW05IXWMybm5bY0hdczI=

> <s_epik_cmdline>
J2VwaWtfcHl0aG9uJywgJy1waCcsICc3LjAnLCAnLXRuJywgJzgnLCAnLW1hJywgJzIwMCcsICctbWV0YWxfYmluZGluZycsICctaW1hZScsICc8aW5maWxlLm1hZT4nLCAnLW9tYWUnLCAnPG91dGZpbGUubWFlPic=

> <r_lp_tautomer_probability>
1

> <r_epik_Ionization_Penalty>
0.00192022

> <r_epik_Ionization_Penalty_Charging>
0

> <r_epik_Ionization_Penalty_Neutral>
0.00192022

> <r_epik_State_Penalty>
-0

> <r_epik_Charging_Adjusted_Penalty>
0

> <i_epik_Tot_Q>
0

> <i_epik_Tot_abs_Q>
0

> <r_epik_Metal_State_Penalty>
0.336618

> <b_epik_Metal_Only>
0

> <s_lp_Force_Field>
OPLS_2005

> <r_lp_Energy>
17.3914

> <b_lp_Chiralities_Consistent>
1

> <s_lp_Variant>
AV-unprocessed.smi:1836-2

> <Gold.Version>
5.8.1

> <Gold.Id.Protein>
6NUR|6NUR_protein|mol2

> <Gold.PLP.Fitness>
35.3284

> <Gold.PLP.PLP>
-27.9912

> <Gold.PLP.part.hbond>
-3.0000

> <Gold.PLP.part.metal>
0.0000

> <Gold.PLP.part.buried>
0.4067

> <Gold.PLP.part.nonpolar>
-25.0688

> <Gold.PLP.part.repulsive>
0.1111

> <Gold.PLP.ligand.clash>
0.0000

> <Gold.PLP.ligand.torsion>
0.8266

> <Gold.PLP.Chemscore.Hbond>
2.9920

> <Gold.PLP.Chemscore.CHOScore>
0.0000

> <Gold.PLP.Chemscore.Metal>
0.0000

> <Gold.Chemscore.Hbonds>
donor molecule, donor type, donor heavy atom, donor atom, acceptor molecule, acceptor atom, score
      L1  H    10    31       P1  7948  1.00
      L1  H    13    32       P1  7948  0.60
      P1  H  7997  8008       L1     9  1.00

> <Gold.PLP.Chemscore.Internal.Correction>
0.0143

> <Gold.Rescore>
     Score         DG    S(hbond)    S(metal)    S(lipo)     H(rot)  DE(clash)    DE(int)     intcor
     12.49     -15.69       2.78        0.00      46.18       1.76       1.25       1.95       ----

> <Gold.Chemscore.Fitness>
12.4898

> <Gold.Chemscore.DG>
-15.6850

> <Gold.Chemscore.ZeroCoef>
-5.4800

> <Gold.Chemscore.Hbond>
2.7846

> <Gold.Chemscore.Metal>
0.0000

> <Gold.Chemscore.Lipo>
46.1765

> <Gold.Chemscore.Internal_Hbond>
0.0000

> <Gold.Chemscore.DEClash>
1.2461

> <Gold.Chemscore.DEInternal>
1.9491

> <Gold.Chemscore.Rot>
1.7571

> <Gold.Chemscore.Internal.Correction>
   9.000000E+99

> <Gold.Chemscore.Hbonds>
donor molecule, donor type, donor heavy atom, donor atom, acceptor molecule, acceptor atom, score
      L1  H    10    31       P1  7948  0.47
      L1  H    13    32       P1  7948  0.04
      P1  H  7997  8008       L1     9  0.96

> <Gold.Chemscore.Hbond.Weighted>
-9.3006

> <Gold.Chemscore.Metal.Weighted>
-0.0000

> <Gold.Chemscore.Lipo.Weighted>
-5.4027

> <Gold.Chemscore.Internal_Hbond.Weighted>
0.0000

> <Gold.Chemscore.DEClash.Weighted>
1.2461

> <Gold.Chemscore.DEInternal.Weighted>
1.9491

> <Gold.Chemscore.Rot.Weighted>
4.4983

> <Gold.Chemscore.Internal.Correction.Weighted>
   9.000000E+99

> <Gold.Protein.RotatedTorsions>
[ 6907 6896 6895 6894 ] final  133.68 input  -60.11 | X-H torsion
[ 7974 7965 7964 7962 ] final   13.99 input  175.53 | X-H torsion
[ 8008 7997 7996 7995 ] final  -55.23 input   59.86 | X-H torsion
[ 10167 10162 10161 10158 ] final   51.47 input  -65.29 | X-H torsion
[ 10718 10713 10712 10709 ] final   33.81 input   66.30 | X-H torsion
[ 10763 10752 10751 10750 ] final  164.33 input  -60.55 | X-H torsion
[ 11005 11000 10999 10996 ] final   76.04 input  -57.11 | X-H torsion

> <Gold.Protein.ActiveResidues>
 VAL166  LYS551  ARG553  GLY616  TRP617  ASP618  TYR619  PRO620  LYS621  CYS622 
 ASP623  PHE694  ASN695  SER759  ASP760  ASP761  ALA762  ILE779  LEU786  VAL792 
 PHE793  MET794  SER795  GLU796  ALA797  LYS798  CYS799  TRP800  GLU811  SER814 

> <Gold.Protein.RotatedAtoms>
  152.3193  133.5837  159.5733 H   0  0  0  0  0  0  0  0  0  0  0  0  # atno 6907 bound_to 6896
  150.7363  134.0034  159.3655 H   0  0  0  0  0  0  0  0  0  0  0  0  # atno 6908 bound_to 6896
  151.7920  135.0733  160.0439 H   0  0  0  0  0  0  0  0  0  0  0  0  # atno 6909 bound_to 6896
  146.2316  139.9106  142.8525 H   0  0  0  0  0  0  0  0  0  0  0  0  # atno 7974 bound_to 7965
  154.4188  140.1158  156.5443 H   0  0  0  0  0  0  0  0  0  0  0  0  # atno 8008 bound_to 7997
  155.6475  140.3496  155.4717 H   0  0  0  0  0  0  0  0  0  0  0  0  # atno 8009 bound_to 7997
  155.9820  140.1162  157.0708 H   0  0  0  0  0  0  0  0  0  0  0  0  # atno 8010 bound_to 7997
  140.2616  144.3367  150.6316 H   0  0  0  0  0  0  0  0  0  0  0  0  # atno 10167 bound_to 10162
  157.3026  130.7358  149.6676 H   0  0  0  0  0  0  0  0  0  0  0  0  # atno 10718 bound_to 10713
  154.3074  135.2758  155.2582 H   0  0  0  0  0  0  0  0  0  0  0  0  # atno 10763 bound_to 10752
  154.4993  135.5812  153.6522 H   0  0  0  0  0  0  0  0  0  0  0  0  # atno 10764 bound_to 10752
  152.9892  135.6154  154.3248 H   0  0  0  0  0  0  0  0  0  0  0  0  # atno 10765 bound_to 10752
  139.9316  134.7568  156.1346 H   0  0  0  0  0  0  0  0  0  0  0  0  # atno 11005 bound_to 11000
  145.2233  140.9944  143.4033 LP  0  0  0  0  0  0  0  0  0  0  0  0  # atno 17320 bound_to 7965
  144.9592  139.3998  143.6364 LP  0  0  0  0  0  0  0  0  0  0  0  0  # atno 17321 bound_to 7965
  140.5961  143.2167  151.7161 LP  0  0  0  0  0  0  0  0  0  0  0  0  # atno 17342 bound_to 10162
  139.5015  144.3864  152.0324 LP  0  0  0  0  0  0  0  0  0  0  0  0  # atno 17343 bound_to 10162
  155.9672  130.4275  150.4748 LP  0  0  0  0  0  0  0  0  0  0  0  0  # atno 17370 bound_to 10713
  157.2732  131.0591  151.2246 LP  0  0  0  0  0  0  0  0  0  0  0  0  # atno 17371 bound_to 10713
  141.0908  133.6715  156.2536 LP  0  0  0  0  0  0  0  0  0  0  0  0  # atno 17394 bound_to 11000
  140.6187  134.5384  157.5544 LP  0  0  0  0  0  0  0  0  0  0  0  0  # atno 17395 bound_to 11000

$$$$
