AV-unprocessed.smi:1764|AV-procd|sdf|7133|dock4
  -GOLD-   22720 8373D 1   1.00000     0.00000
 Structure written by MMmdl.
 31 32  0  0  0  0  0  0  0  0  1 V2000
  150.4060  140.5770  156.0789 O   0  0  0  0  0  0  0  0  0  0  0  0
  150.0549  141.7504  155.9515 C   0  0  0  0  0  0  0  0  0  0  0  0
  149.1376  142.1561  155.0617 N   0  0  0  0  0  0  0  0  0  0  0  0
  148.4311  141.2919  154.1213 C   0  0  0  0  0  0  0  0  0  0  0  0
  146.9217  141.5871  154.0995 C   0  0  1  0  0  0  0  0  0  0  0  0
  146.2002  141.3856  155.4326 C   0  0  0  0  0  0  0  0  0  0  0  0
  144.9967  142.2834  155.2626 C   0  0  0  0  0  0  0  0  0  0  0  0
  145.5966  143.4706  154.5145 C   0  0  0  0  0  0  0  0  0  0  0  0
  146.6926  142.9528  153.7635 O   0  0  0  0  0  0  0  0  0  0  0  0
  150.5316  142.7865  156.6641 N   0  0  0  0  0  0  0  0  0  0  0  0
  151.4964  142.7659  157.7065 C   0  0  0  0  0  0  0  0  0  0  0  0
  151.8707  144.0359  158.2006 C   0  0  0  0  0  0  0  0  0  0  0  0
  152.8191  144.1241  159.2379 C   0  0  0  0  0  0  0  0  0  0  0  0
  153.3691  142.9382  159.7560 C   0  0  0  0  0  0  0  0  0  0  0  0
  152.9423  141.7146  159.2079 C   0  0  0  0  0  0  0  0  0  0  0  0
  152.0339  141.6280  158.2133 N   0  0  0  0  0  0  0  0  0  0  0  0
  148.9131  143.1397  155.0262 H   0  0  0  0  0  0  0  0  0  0  0  0
  148.8514  141.3725  153.1172 H   0  0  0  0  0  0  0  0  0  0  0  0
  148.5932  140.2606  154.4347 H   0  0  0  0  0  0  0  0  0  0  0  0
  146.4353  140.9796  153.3344 H   0  0  0  0  0  0  0  0  0  0  0  0
  145.9349  140.3451  155.6228 H   0  0  0  0  0  0  0  0  0  0  0  0
  146.8148  141.7401  156.2614 H   0  0  0  0  0  0  0  0  0  0  0  0
  144.2460  141.7886  154.6450 H   0  0  0  0  0  0  0  0  0  0  0  0
  144.5319  142.5651  156.2077 H   0  0  0  0  0  0  0  0  0  0  0  0
  144.8688  143.9627  153.8691 H   0  0  0  0  0  0  0  0  0  0  0  0
  145.9793  144.2106  155.2183 H   0  0  0  0  0  0  0  0  0  0  0  0
  150.1575  143.6959  156.4375 H   0  0  0  0  0  0  0  0  0  0  0  0
  151.4378  144.9375  157.7917 H   0  0  0  0  0  0  0  0  0  0  0  0
  153.1184  145.0854  159.6287 H   0  0  0  0  0  0  0  0  0  0  0  0
  154.0985  142.9653  160.5520 H   0  0  0  0  0  0  0  0  0  0  0  0
  153.3394  140.7810  159.5781 H   0  0  0  0  0  0  0  0  0  0  0  0
  1  2  2  0  0  0  0
  2  3  1  0  0  0  0
  2 10  1  0  0  0  0
  3  4  1  0  0  0  0
  3 17  1  0  0  0  0
  4  5  1  0  0  0  0
  4 18  1  0  0  0  0
  4 19  1  0  0  0  0
  5  9  1  0  0  0  0
  5  6  1  0  0  0  0
  5 20  1  0  0  0  0
  6  7  1  0  0  0  0
  6 21  1  0  0  0  0
  6 22  1  0  0  0  0
  7  8  1  0  0  0  0
  7 23  1  0  0  0  0
  7 24  1  0  0  0  0
  8  9  1  0  0  0  0
  8 25  1  0  0  0  0
  8 26  1  0  0  0  0
 10 11  1  0  0  0  0
 10 27  1  0  0  0  0
 11 16  1  0  0  0  0
 11 12  2  0  0  0  0
 12 13  1  0  0  0  0
 12 28  1  0  0  0  0
 13 14  2  0  0  0  0
 13 29  1  0  0  0  0
 14 15  1  0  0  0  0
 14 30  1  0  0  0  0
 15 16  2  0  0  0  0
 15 31  1  0  0  0  0
M  END
> <s_m_source_file>
AV-unprocessed.smi

> <i_m_source_file_index>
1764

> <i_lp_mmshare_version>
43012

> <i_f3d_flags>
0

> <s_epik_input>
bjFbY0hdW2NIXVtjSF1bY0hdYzFbTkhdQyg9TylbTkhdW0NIMl1bQ0BASF0yW0NIMl1bQ0gyXVtDSDJdTzI=

> <s_epik_cmdline>
J2VwaWtfcHl0aG9uJywgJy1waCcsICc3LjAnLCAnLXRuJywgJzgnLCAnLW1hJywgJzIwMCcsICctbWV0YWxfYmluZGluZycsICctaW1hZScsICc8aW5maWxlLm1hZT4nLCAnLW9tYWUnLCAnPG91dGZpbGUubWFlPic=

> <r_lp_tautomer_probability>
1

> <r_epik_Ionization_Penalty>
4.47751e-05

> <r_epik_Ionization_Penalty_Charging>
0

> <r_epik_Ionization_Penalty_Neutral>
4.47751e-05

> <r_epik_State_Penalty>
-0

> <r_epik_Charging_Adjusted_Penalty>
0

> <i_epik_Tot_Q>
0

> <i_epik_Tot_abs_Q>
0

> <r_epik_Metal_State_Penalty>
-0

> <b_epik_Metal_Only>
0

> <s_lp_Force_Field>
OPLS_2005

> <r_lp_Energy>
18.9713

> <b_lp_Chiralities_Consistent>
1

> <s_lp_Variant>
AV-unprocessed.smi:1764-2

> <Gold.Version>
5.8.1

> <Gold.Id.Protein>
6NUR|6NUR_protein|mol2

> <Gold.PLP.Fitness>
40.3543

> <Gold.PLP.PLP>
-34.5306

> <Gold.PLP.part.hbond>
-2.5610

> <Gold.PLP.part.metal>
0.0000

> <Gold.PLP.part.buried>
-4.1231

> <Gold.PLP.part.nonpolar>
-28.2732

> <Gold.PLP.part.repulsive>
0.4939

> <Gold.PLP.ligand.clash>
0.0000

> <Gold.PLP.ligand.torsion>
0.0887

> <Gold.PLP.Chemscore.Hbond>
2.0000

> <Gold.PLP.Chemscore.CHOScore>
0.0000

> <Gold.PLP.Chemscore.Metal>
0.0000

> <Gold.Chemscore.Hbonds>
donor molecule, donor type, donor heavy atom, donor atom, acceptor molecule, acceptor atom, score
      L1  H     3    17       P1  8028  1.00
      L1  H    10    27       P1  8028  1.00

> <Gold.PLP.Chemscore.Internal.Correction>
0.0011

> <Gold.Rescore>
     Score         DG    S(hbond)    S(metal)    S(lipo)     H(rot)  DE(clash)    DE(int)     intcor
     16.38     -17.80       1.95        0.00      77.49       1.27       0.08       1.34       ----

> <Gold.Chemscore.Fitness>
16.3802

> <Gold.Chemscore.DG>
-17.8044

> <Gold.Chemscore.ZeroCoef>
-5.4800

> <Gold.Chemscore.Hbond>
1.9473

> <Gold.Chemscore.Metal>
0.0000

> <Gold.Chemscore.Lipo>
77.4871

> <Gold.Chemscore.Internal_Hbond>
0.0000

> <Gold.Chemscore.DEClash>
0.0835

> <Gold.Chemscore.DEInternal>
1.3406

> <Gold.Chemscore.Rot>
1.2678

> <Gold.Chemscore.Internal.Correction>
   9.000000E+99

> <Gold.Chemscore.Hbonds>
donor molecule, donor type, donor heavy atom, donor atom, acceptor molecule, acceptor atom, score
      L1  H     3    17       P1  8028  0.98
      L1  H    10    27       P1  8028  0.95

> <Gold.Chemscore.Hbond.Weighted>
-6.5039

> <Gold.Chemscore.Metal.Weighted>
-0.0000

> <Gold.Chemscore.Lipo.Weighted>
-9.0660

> <Gold.Chemscore.Internal_Hbond.Weighted>
0.0000

> <Gold.Chemscore.DEClash.Weighted>
0.0835

> <Gold.Chemscore.DEInternal.Weighted>
1.3406

> <Gold.Chemscore.Rot.Weighted>
3.2455

> <Gold.Chemscore.Internal.Correction.Weighted>
   9.000000E+99

> <Gold.Protein.RotatedTorsions>
[ 6907 6896 6895 6894 ] final  178.81 input  -60.11 | X-H torsion
[ 7974 7965 7964 7962 ] final  -87.85 input  175.53 | X-H torsion
[ 8008 7997 7996 7995 ] final    9.56 input   59.86 | X-H torsion
[ 10167 10162 10161 10158 ] final  168.91 input  -65.29 | X-H torsion
[ 10718 10713 10712 10709 ] final   30.29 input   66.30 | X-H torsion
[ 10763 10752 10751 10750 ] final  126.93 input  -60.55 | X-H torsion
[ 11005 11000 10999 10996 ] final   87.79 input  -57.11 | X-H torsion

> <Gold.Protein.ActiveResidues>
 VAL166  LYS551  ARG553  GLY616  TRP617  ASP618  TYR619  PRO620  LYS621  CYS622 
 ASP623  PHE694  ASN695  SER759  ASP760  ASP761  ALA762  ILE779  LEU786  VAL792 
 PHE793  MET794  SER795  GLU796  ALA797  LYS798  CYS799  TRP800  GLU811  SER814 

> <Gold.Protein.RotatedAtoms>
  151.6818  133.3312  159.3220 H   0  0  0  0  0  0  0  0  0  0  0  0  # atno 6907 bound_to 6896
  150.7819  134.6774  159.6435 H   0  0  0  0  0  0  0  0  0  0  0  0  # atno 6908 bound_to 6896
  152.3879  134.6491  160.0170 H   0  0  0  0  0  0  0  0  0  0  0  0  # atno 6909 bound_to 6896
  145.4610  140.9561  143.1969 H   0  0  0  0  0  0  0  0  0  0  0  0  # atno 7974 bound_to 7965
  154.7816  140.2820  155.6059 H   0  0  0  0  0  0  0  0  0  0  0  0  # atno 8008 bound_to 7997
  156.2951  140.2622  156.2571 H   0  0  0  0  0  0  0  0  0  0  0  0  # atno 8009 bound_to 7997
  154.9777  140.0375  157.2253 H   0  0  0  0  0  0  0  0  0  0  0  0  # atno 8010 bound_to 7997
  139.4979  144.3764  151.9670 H   0  0  0  0  0  0  0  0  0  0  0  0  # atno 10167 bound_to 10162
  157.2577  130.7146  149.6438 H   0  0  0  0  0  0  0  0  0  0  0  0  # atno 10718 bound_to 10713
  153.7012  135.3283  155.3225 H   0  0  0  0  0  0  0  0  0  0  0  0  # atno 10763 bound_to 10752
  154.8412  135.4454  154.1409 H   0  0  0  0  0  0  0  0  0  0  0  0  # atno 10764 bound_to 10752
  153.2477  135.6978  153.7792 H   0  0  0  0  0  0  0  0  0  0  0  0  # atno 10765 bound_to 10752
  139.8911  134.8445  156.2909 H   0  0  0  0  0  0  0  0  0  0  0  0  # atno 11005 bound_to 11000
  144.8003  139.6154  143.7075 LP  0  0  0  0  0  0  0  0  0  0  0  0  # atno 17320 bound_to 7965
  146.2451  139.6081  142.9465 LP  0  0  0  0  0  0  0  0  0  0  0  0  # atno 17321 bound_to 7965
  140.3200  144.3439  150.6012 LP  0  0  0  0  0  0  0  0  0  0  0  0  # atno 17342 bound_to 10162
  140.5730  143.2179  151.7565 LP  0  0  0  0  0  0  0  0  0  0  0  0  # atno 17343 bound_to 10162
  155.9664  130.4407  150.5312 LP  0  0  0  0  0  0  0  0  0  0  0  0  # atno 17370 bound_to 10713
  157.3209  131.0681  151.1932 LP  0  0  0  0  0  0  0  0  0  0  0  0  # atno 17371 bound_to 10713
  140.9977  133.7170  156.0911 LP  0  0  0  0  0  0  0  0  0  0  0  0  # atno 17394 bound_to 11000
  140.7541  134.4013  157.5537 LP  0  0  0  0  0  0  0  0  0  0  0  0  # atno 17395 bound_to 11000

$$$$
