AV-unprocessed.smi:3201|AV-procd|sdf|12237|dock7
  -GOLD-   2272018 73D 1   1.00000     0.00000
 Structure written by MMmdl.
 41 43  0  0  0  0  0  0  0  0  2 V2000
  151.8987  144.7581  161.2180 C   0  0  0  0  0  0  0  0  0  0  0  0
  152.4907  143.4381  160.8421 C   0  0  0  0  0  0  0  0  0  0  0  0
  152.5152  142.7771  159.6432 C   0  0  0  0  0  0  0  0  0  0  0  0
  151.9363  143.1917  158.3182 C   0  0  0  0  0  0  0  0  0  0  0  0
  150.9497  142.1441  157.7868 C   0  0  0  0  0  0  0  0  0  0  0  0
  150.6180  142.3971  156.3702 N   0  3  0  0  0  0  0  0  0  0  0  0
  149.9378  141.2735  155.6895 C   0  0  2  0  0  0  0  0  0  0  0  0
  149.2014  141.6727  154.3917 C   0  0  0  0  0  0  0  0  0  0  0  0
  147.7887  141.0980  154.6143 C   0  0  2  0  0  0  0  0  0  0  0  0
  147.0395  141.9927  155.6170 C   0  0  0  0  0  0  0  0  0  0  0  0
  147.7493  141.6745  156.9456 C   0  0  0  0  0  0  0  0  0  0  0  0
  148.8129  140.6336  156.5316 C   0  0  1  0  0  0  0  0  0  0  0  0
  148.0645  139.8542  155.4545 C   0  0  0  0  0  0  0  0  0  0  0  0
  153.2233  141.5771  159.9346 C   0  0  0  0  0  0  0  0  0  0  0  0
  153.6032  141.4988  161.1971 N   0  0  0  0  0  0  0  0  0  0  0  0
  153.1548  142.6414  161.7562 N   0  0  0  0  0  0  0  0  0  0  0  0
  153.4053  142.8907  163.1629 C   0  0  0  0  0  0  0  0  0  0  0  0
  151.3252  145.1837  160.3949 H   0  0  0  0  0  0  0  0  0  0  0  0
  152.6800  145.4693  161.4864 H   0  0  0  0  0  0  0  0  0  0  0  0
  151.2276  144.6550  162.0707 H   0  0  0  0  0  0  0  0  0  0  0  0
  151.4329  144.1554  158.4030 H   0  0  0  0  0  0  0  0  0  0  0  0
  152.7318  143.3389  157.5869 H   0  0  0  0  0  0  0  0  0  0  0  0
  151.3798  141.1469  157.8883 H   0  0  0  0  0  0  0  0  0  0  0  0
  150.0332  142.1616  158.3782 H   0  0  0  0  0  0  0  0  0  0  0  0
  150.0077  143.2010  156.3344 H   0  0  0  0  0  0  0  0  0  0  0  0
  150.6811  140.5059  155.4664 H   0  0  0  0  0  0  0  0  0  0  0  0
  149.1759  142.7502  154.2226 H   0  0  0  0  0  0  0  0  0  0  0  0
  149.6796  141.2127  153.5261 H   0  0  0  0  0  0  0  0  0  0  0  0
  147.2366  140.9202  153.6909 H   0  0  0  0  0  0  0  0  0  0  0  0
  147.0957  143.0500  155.3554 H   0  0  0  0  0  0  0  0  0  0  0  0
  145.9852  141.7180  155.6705 H   0  0  0  0  0  0  0  0  0  0  0  0
  148.1757  142.5615  157.4142 H   0  0  0  0  0  0  0  0  0  0  0  0
  147.0438  141.2388  157.6547 H   0  0  0  0  0  0  0  0  0  0  0  0
  149.1787  140.0279  157.3612 H   0  0  0  0  0  0  0  0  0  0  0  0
  147.1574  139.3695  155.8204 H   0  0  0  0  0  0  0  0  0  0  0  0
  148.6822  139.1140  154.9423 H   0  0  0  0  0  0  0  0  0  0  0  0
  153.4689  140.7634  159.2680 H   0  0  0  0  0  0  0  0  0  0  0  0
  154.0547  143.7599  163.2700 H   0  0  0  0  0  0  0  0  0  0  0  0
  153.8879  142.0298  163.6280 H   0  0  0  0  0  0  0  0  0  0  0  0
  152.4629  143.0832  163.6757 H   0  0  0  0  0  0  0  0  0  0  0  0
  151.4659  142.6140  155.8661 H   0  0  0  0  0  0  0  0  0  0  0  0
  1  2  1  0  0  0  0
  1 18  1  0  0  0  0
  1 19  1  0  0  0  0
  1 20  1  0  0  0  0
  2 16  1  0  0  0  0
  2  3  2  0  0  0  0
  3  4  1  0  0  0  0
  3 14  1  0  0  0  0
  4  5  1  0  0  0  0
  4 21  1  0  0  0  0
  4 22  1  0  0  0  0
  5  6  1  0  0  0  0
  5 23  1  0  0  0  0
  5 24  1  0  0  0  0
  6  7  1  0  0  0  0
  6 25  1  0  0  0  0
  6 41  1  0  0  0  0
  7 12  1  0  0  0  0
  7  8  1  0  0  0  0
  7 26  1  0  0  0  0
  8  9  1  0  0  0  0
  8 27  1  0  0  0  0
  8 28  1  0  0  0  0
  9 13  1  0  0  0  0
  9 10  1  0  0  0  0
  9 29  1  0  0  0  0
 10 11  1  0  0  0  0
 10 30  1  0  0  0  0
 10 31  1  0  0  0  0
 11 12  1  0  0  0  0
 11 32  1  0  0  0  0
 11 33  1  0  0  0  0
 12 13  1  0  0  0  0
 12 34  1  0  0  0  0
 13 35  1  0  0  0  0
 13 36  1  0  0  0  0
 14 15  2  0  0  0  0
 14 37  1  0  0  0  0
 15 16  1  0  0  0  0
 16 17  1  0  0  0  0
 17 38  1  0  0  0  0
 17 39  1  0  0  0  0
 17 40  1  0  0  0  0
M  CHG  1   6   1
M  END
> <s_m_source_file>
AV-unprocessed.smi

> <i_m_source_file_index>
3201

> <i_lp_mmshare_version>
43012

> <i_f3d_flags>
0

> <s_epik_input>
W0NIM11uMW5bY0hdYyhjMVtDSDNdKVtDSDJdW0NIMl1bTkhdW0NASF0oW0NIMl1bQ0BIXTIzKVtDQEhdKFtDSDJdMylbQ0gyXVtDSDJdMg==

> <s_epik_cmdline>
J2VwaWtfcHl0aG9uJywgJy1waCcsICc3LjAnLCAnLXRuJywgJzgnLCAnLW1hJywgJzIwMCcsICctbWV0YWxfYmluZGluZycsICctaW1hZScsICc8aW5maWxlLm1hZT4nLCAnLW9tYWUnLCAnPG91dGZpbGUubWFlPic=

> <r_lp_tautomer_probability>
1

> <r_epik_Ionization_Penalty>
0.000331174

> <r_epik_Ionization_Penalty_Charging>
0.000242709

> <r_epik_Ionization_Penalty_Neutral>
8.84659e-05

> <r_epik_State_Penalty>
-0

> <r_epik_Charging_Adjusted_Penalty>
0.000242709

> <i_epik_Tot_Q>
1

> <i_epik_Tot_abs_Q>
1

> <r_epik_Metal_State_Penalty>
-0

> <b_epik_Metal_Only>
0

> <s_lp_Force_Field>
OPLS_2005

> <r_lp_Energy>
50.9619

> <b_lp_Chiralities_Consistent>
1

> <s_lp_Variant>
AV-unprocessed.smi:3201-1

> <Gold.Version>
5.8.1

> <Gold.Id.Protein>
6NUR|6NUR_protein|mol2

> <Gold.PLP.Fitness>
44.9785

> <Gold.PLP.PLP>
-39.4346

> <Gold.PLP.part.hbond>
-1.0000

> <Gold.PLP.part.metal>
0.0000

> <Gold.PLP.part.buried>
-1.8759

> <Gold.PLP.part.nonpolar>
-35.2472

> <Gold.PLP.part.repulsive>
0.0878

> <Gold.PLP.ligand.clash>
0.0000

> <Gold.PLP.ligand.torsion>
0.2364

> <Gold.PLP.Chemscore.Hbond>
2.0000

> <Gold.PLP.Chemscore.CHOScore>
0.0000

> <Gold.PLP.Chemscore.Metal>
0.0000

> <Gold.Chemscore.Hbonds>
donor molecule, donor type, donor heavy atom, donor atom, acceptor molecule, acceptor atom, score
      L1  H     6    25       P1  8028  2.00

> <Gold.PLP.Chemscore.Internal.Correction>
0.0166

> <Gold.Rescore>
     Score         DG    S(hbond)    S(metal)    S(lipo)     H(rot)  DE(clash)    DE(int)     intcor
     17.50     -18.09       0.99        0.00     109.29       1.36       0.27       0.32       ----

> <Gold.Chemscore.Fitness>
17.5000

> <Gold.Chemscore.DG>
-18.0904

> <Gold.Chemscore.ZeroCoef>
-5.4800

> <Gold.Chemscore.Hbond>
0.9888

> <Gold.Chemscore.Metal>
0.0000

> <Gold.Chemscore.Lipo>
109.2858

> <Gold.Chemscore.Internal_Hbond>
0.0000

> <Gold.Chemscore.DEClash>
0.2703

> <Gold.Chemscore.DEInternal>
0.3201

> <Gold.Chemscore.Rot>
1.3588

> <Gold.Chemscore.Internal.Correction>
   9.000000E+99

> <Gold.Chemscore.Hbonds>
donor molecule, donor type, donor heavy atom, donor atom, acceptor molecule, acceptor atom, score
      L1  H     6    25       P1  8028  0.96

> <Gold.Chemscore.Hbond.Weighted>
-3.3025

> <Gold.Chemscore.Metal.Weighted>
-0.0000

> <Gold.Chemscore.Lipo.Weighted>
-12.7864

> <Gold.Chemscore.Internal_Hbond.Weighted>
0.0000

> <Gold.Chemscore.DEClash.Weighted>
0.2703

> <Gold.Chemscore.DEInternal.Weighted>
0.3201

> <Gold.Chemscore.Rot.Weighted>
3.4786

> <Gold.Chemscore.Internal.Correction.Weighted>
   9.000000E+99

> <Gold.Protein.RotatedTorsions>
[ 6907 6896 6895 6894 ] final -129.70 input  -60.11 | X-H torsion
[ 7974 7965 7964 7962 ] final  129.11 input  175.53 | X-H torsion
[ 8008 7997 7996 7995 ] final   39.98 input   59.86 | X-H torsion
[ 10167 10162 10161 10158 ] final -167.65 input  -65.29 | X-H torsion
[ 10718 10713 10712 10709 ] final   92.00 input   66.30 | X-H torsion
[ 10763 10752 10751 10750 ] final  111.50 input  -60.55 | X-H torsion
[ 11005 11000 10999 10996 ] final  -23.49 input  -57.11 | X-H torsion

> <Gold.Protein.ActiveResidues>
 VAL166  LYS551  ARG553  GLY616  TRP617  ASP618  TYR619  PRO620  LYS621  CYS622 
 ASP623  PHE694  ASN695  SER759  ASP760  ASP761  ALA762  ILE779  LEU786  VAL792 
 PHE793  MET794  SER795  GLU796  ALA797  LYS798  CYS799  TRP800  GLU811  SER814 

> <Gold.Protein.RotatedAtoms>
  150.9316  133.6761  159.2809 H   0  0  0  0  0  0  0  0  0  0  0  0  # atno 6907 bound_to 6896
  151.4181  135.0993  159.9615 H   0  0  0  0  0  0  0  0  0  0  0  0  # atno 6908 bound_to 6896
  152.5028  133.8774  159.7384 H   0  0  0  0  0  0  0  0  0  0  0  0  # atno 6909 bound_to 6896
  145.0323  139.4036  143.5144 H   0  0  0  0  0  0  0  0  0  0  0  0  # atno 7974 bound_to 7965
  155.2455  140.3348  155.4287 H   0  0  0  0  0  0  0  0  0  0  0  0  # atno 8008 bound_to 7997
  156.2238  140.1820  156.7458 H   0  0  0  0  0  0  0  0  0  0  0  0  # atno 8009 bound_to 7997
  154.5866  140.0645  156.9165 H   0  0  0  0  0  0  0  0  0  0  0  0  # atno 8010 bound_to 7997
  139.6036  144.0960  152.1769 H   0  0  0  0  0  0  0  0  0  0  0  0  # atno 10167 bound_to 10162
  157.6959  131.0427  150.3814 H   0  0  0  0  0  0  0  0  0  0  0  0  # atno 10718 bound_to 10713
  153.4642  135.3715  155.2355 H   0  0  0  0  0  0  0  0  0  0  0  0  # atno 10763 bound_to 10752
  154.8757  135.3916  154.3888 H   0  0  0  0  0  0  0  0  0  0  0  0  # atno 10764 bound_to 10752
  153.4466  135.7085  153.6199 H   0  0  0  0  0  0  0  0  0  0  0  0  # atno 10765 bound_to 10752
  140.8757  133.7689  156.0240 H   0  0  0  0  0  0  0  0  0  0  0  0  # atno 11005 bound_to 11000
  146.3500  139.9879  142.8689 LP  0  0  0  0  0  0  0  0  0  0  0  0  # atno 17320 bound_to 7965
  145.1755  140.9742  143.4297 LP  0  0  0  0  0  0  0  0  0  0  0  0  # atno 17321 bound_to 7965
  140.0562  144.5893  150.7298 LP  0  0  0  0  0  0  0  0  0  0  0  0  # atno 17342 bound_to 10162
  140.7268  143.2645  151.4093 LP  0  0  0  0  0  0  0  0  0  0  0  0  # atno 17343 bound_to 10162
  156.4228  130.3956  149.6813 LP  0  0  0  0  0  0  0  0  0  0  0  0  # atno 17370 bound_to 10713
  156.4058  130.7697  151.2708 LP  0  0  0  0  0  0  0  0  0  0  0  0  # atno 17371 bound_to 10713
  140.8521  134.2941  157.5271 LP  0  0  0  0  0  0  0  0  0  0  0  0  # atno 17394 bound_to 11000
  139.8715  134.9473  156.3964 LP  0  0  0  0  0  0  0  0  0  0  0  0  # atno 17395 bound_to 11000

$$$$
