AV-unprocessed.smi:1728|AV-procd|sdf|6968|dock9
  -GOLD-   22720 8183D 1   1.00000     0.00000
 Structure written by MMmdl.
 47 48  0  0  0  0  0  0  0  0  2 V2000
  151.7980  139.9732  156.0491 C   0  0  0  0  0  0  0  0  0  0  0  0
  152.4329  140.2717  157.2877 O   0  0  0  0  0  0  0  0  0  0  0  0
  152.2181  141.5126  157.8573 C   0  0  0  0  0  0  0  0  0  0  0  0
  151.3785  142.3732  157.2290 N   0  0  0  0  0  0  0  0  0  0  0  0
  151.1633  143.5825  157.7858 C   0  0  0  0  0  0  0  0  0  0  0  0
  151.7623  143.9933  158.9903 C   0  0  0  0  0  0  0  0  0  0  0  0
  152.6335  143.1026  159.6444 C   0  0  0  0  0  0  0  0  0  0  0  0
  152.8809  141.8336  159.0653 C   0  0  0  0  0  0  0  0  0  0  0  0
  153.7279  140.8467  159.6424 N   0  0  0  0  0  0  0  0  0  0  0  0
  154.3581  140.8589  160.8289 C   0  0  0  0  0  0  0  0  0  0  0  0
  154.3093  141.7681  161.6567 O   0  0  0  0  0  0  0  0  0  0  0  0
  155.0832  139.7441  160.9985 N   0  0  0  0  0  0  0  0  0  0  0  0
  155.8924  139.4243  162.1738 C   0  0  0  0  0  0  0  0  0  0  0  0
  156.4753  137.9783  162.1553 C   0  0  0  0  0  0  0  0  0  0  0  0
  156.9407  137.6214  160.7216 C   0  0  0  0  0  0  0  0  0  0  0  0
  157.7383  137.8894  163.0488 C   0  0  0  0  0  0  0  0  0  0  0  0
  155.4563  136.9713  162.6250 N   0  3  0  0  0  0  0  0  0  0  0  0
  155.8959  135.5470  162.6079 C   0  0  0  0  0  0  0  0  0  0  0  0
  154.7175  134.6127  162.9285 C   0  0  0  0  0  0  0  0  0  0  0  0
  154.1673  134.9521  164.1931 O   0  0  0  0  0  0  0  0  0  0  0  0
  153.6581  136.2779  164.2033 C   0  0  0  0  0  0  0  0  0  0  0  0
  154.7972  137.2734  163.9276 C   0  0  0  0  0  0  0  0  0  0  0  0
  152.0672  138.9632  155.7404 H   0  0  0  0  0  0  0  0  0  0  0  0
  152.1184  140.6560  155.2610 H   0  0  0  0  0  0  0  0  0  0  0  0
  150.7114  140.0135  156.1382 H   0  0  0  0  0  0  0  0  0  0  0  0
  150.4878  144.2392  157.2578 H   0  0  0  0  0  0  0  0  0  0  0  0
  151.5543  144.9679  159.4063 H   0  0  0  0  0  0  0  0  0  0  0  0
  153.0779  143.4082  160.5783 H   0  0  0  0  0  0  0  0  0  0  0  0
  153.9232  140.0547  159.0475 H   0  0  0  0  0  0  0  0  0  0  0  0
  155.0664  139.0555  160.2601 H   0  0  0  0  0  0  0  0  0  0  0  0
  156.6838  140.1659  162.2849 H   0  0  0  0  0  0  0  0  0  0  0  0
  155.2378  139.5591  163.0339 H   0  0  0  0  0  0  0  0  0  0  0  0
  157.8159  138.2007  160.4251 H   0  0  0  0  0  0  0  0  0  0  0  0
  156.1757  137.8271  159.9734 H   0  0  0  0  0  0  0  0  0  0  0  0
  157.2139  136.5685  160.6433 H   0  0  0  0  0  0  0  0  0  0  0  0
  158.5764  138.4413  162.6216 H   0  0  0  0  0  0  0  0  0  0  0  0
  158.0686  136.8571  163.1708 H   0  0  0  0  0  0  0  0  0  0  0  0
  157.5751  138.3101  164.0407 H   0  0  0  0  0  0  0  0  0  0  0  0
  156.2897  135.2593  161.6351 H   0  0  0  0  0  0  0  0  0  0  0  0
  156.6894  135.3862  163.3377 H   0  0  0  0  0  0  0  0  0  0  0  0
  153.9509  134.6721  162.1542 H   0  0  0  0  0  0  0  0  0  0  0  0
  155.0581  133.5776  162.9600 H   0  0  0  0  0  0  0  0  0  0  0  0
  152.8612  136.3827  163.4654 H   0  0  0  0  0  0  0  0  0  0  0  0
  153.2150  136.4762  165.1794 H   0  0  0  0  0  0  0  0  0  0  0  0
  155.5224  137.2203  164.7400 H   0  0  0  0  0  0  0  0  0  0  0  0
  154.3716  138.2749  163.9393 H   0  0  0  0  0  0  0  0  0  0  0  0
  154.7163  137.0233  161.9394 H   0  0  0  0  0  0  0  0  0  0  0  0
  1  2  1  0  0  0  0
  1 23  1  0  0  0  0
  1 24  1  0  0  0  0
  1 25  1  0  0  0  0
  2  3  1  0  0  0  0
  3  8  1  0  0  0  0
  3  4  2  0  0  0  0
  4  5  1  0  0  0  0
  5  6  2  0  0  0  0
  5 26  1  0  0  0  0
  6  7  1  0  0  0  0
  6 27  1  0  0  0  0
  7  8  2  0  0  0  0
  7 28  1  0  0  0  0
  8  9  1  0  0  0  0
  9 10  1  0  0  0  0
  9 29  1  0  0  0  0
 10 11  2  0  0  0  0
 10 12  1  0  0  0  0
 12 13  1  0  0  0  0
 12 30  1  0  0  0  0
 13 14  1  0  0  0  0
 13 31  1  0  0  0  0
 13 32  1  0  0  0  0
 14 15  1  0  0  0  0
 14 16  1  0  0  0  0
 14 17  1  0  0  0  0
 15 33  1  0  0  0  0
 15 34  1  0  0  0  0
 15 35  1  0  0  0  0
 16 36  1  0  0  0  0
 16 37  1  0  0  0  0
 16 38  1  0  0  0  0
 17 22  1  0  0  0  0
 17 18  1  0  0  0  0
 17 47  1  0  0  0  0
 18 19  1  0  0  0  0
 18 39  1  0  0  0  0
 18 40  1  0  0  0  0
 19 20  1  0  0  0  0
 19 41  1  0  0  0  0
 19 42  1  0  0  0  0
 20 21  1  0  0  0  0
 21 22  1  0  0  0  0
 21 43  1  0  0  0  0
 21 44  1  0  0  0  0
 22 45  1  0  0  0  0
 22 46  1  0  0  0  0
M  CHG  1  17   1
M  END
> <s_m_source_file>
AV-unprocessed.smi

> <i_m_source_file_index>
1728

> <i_lp_mmshare_version>
43012

> <i_f3d_flags>
0

> <s_epik_input>
W0NIM11PYzFuW2NIXVtjSF1bY0hdYzFbTkhdQyg9TylbTkhdW0NIMl1DKFtDSDNdKShbQ0gzXSlOMltDSDJdW0NIMl1PW0NIMl1bQ0gyXTI=

> <s_epik_cmdline>
J2VwaWtfcHl0aG9uJywgJy1waCcsICc3LjAnLCAnLXRuJywgJzgnLCAnLW1hJywgJzIwMCcsICctbWV0YWxfYmluZGluZycsICctaW1hZScsICc8aW5maWxlLm1hZT4nLCAnLW9tYWUnLCAnPG91dGZpbGUubWFlPic=

> <r_lp_tautomer_probability>
1

> <r_epik_Ionization_Penalty>
0.602608

> <r_epik_Ionization_Penalty_Charging>
0.602531

> <r_epik_Ionization_Penalty_Neutral>
7.74611e-05

> <r_epik_State_Penalty>
0.617039

> <r_epik_Charging_Adjusted_Penalty>
1.21957

> <i_epik_Tot_Q>
1

> <i_epik_Tot_abs_Q>
1

> <r_epik_Metal_State_Penalty>
0.617043

> <b_epik_Metal_Only>
0

> <s_lp_Force_Field>
OPLS_2005

> <r_lp_Energy>
27.5646

> <b_lp_Chiralities_Consistent>
1

> <s_lp_Variant>
AV-unprocessed.smi:1728-2

> <Gold.Version>
5.8.1

> <Gold.Id.Protein>
6NUR|6NUR_protein|mol2

> <Gold.PLP.Fitness>
38.3603

> <Gold.PLP.PLP>
-33.4568

> <Gold.PLP.part.hbond>
-2.0000

> <Gold.PLP.part.metal>
0.0000

> <Gold.PLP.part.buried>
-4.2686

> <Gold.PLP.part.nonpolar>
-26.2485

> <Gold.PLP.part.repulsive>
0.2180

> <Gold.PLP.ligand.clash>
0.0000

> <Gold.PLP.ligand.torsion>
0.4324

> <Gold.PLP.Chemscore.Hbond>
0.8897

> <Gold.PLP.Chemscore.CHOScore>
1.0000

> <Gold.PLP.Chemscore.Metal>
0.0000

> <Gold.Chemscore.Hbonds>
donor molecule, donor type, donor heavy atom, donor atom, acceptor molecule, acceptor atom, score
      P1  H  7997  8010       L1     2  0.74
      L1  C     5    26       P1  8028  1.00

> <Gold.PLP.Chemscore.Internal.Correction>
0.0992

> <Gold.Rescore>
     Score         DG    S(hbond)    S(metal)    S(lipo)     H(rot)  DE(clash)    DE(int)     intcor
      9.76     -11.26       0.18        0.00      82.80       1.76       0.12       1.38       ----

> <Gold.Chemscore.Fitness>
9.7568

> <Gold.Chemscore.DG>
-11.2622

> <Gold.Chemscore.ZeroCoef>
-5.4800

> <Gold.Chemscore.Hbond>
0.1780

> <Gold.Chemscore.Metal>
0.0000

> <Gold.Chemscore.Lipo>
82.7971

> <Gold.Chemscore.Internal_Hbond>
0.0000

> <Gold.Chemscore.DEClash>
0.1243

> <Gold.Chemscore.DEInternal>
1.3810

> <Gold.Chemscore.Rot>
1.7577

> <Gold.Chemscore.Internal.Correction>
   9.000000E+99

> <Gold.Chemscore.Hbonds>
donor molecule, donor type, donor heavy atom, donor atom, acceptor molecule, acceptor atom, score
      P1  H  7997  8010       L1     2  0.21

> <Gold.Chemscore.Hbond.Weighted>
-0.5947

> <Gold.Chemscore.Metal.Weighted>
-0.0000

> <Gold.Chemscore.Lipo.Weighted>
-9.6873

> <Gold.Chemscore.Internal_Hbond.Weighted>
0.0000

> <Gold.Chemscore.DEClash.Weighted>
0.1243

> <Gold.Chemscore.DEInternal.Weighted>
1.3810

> <Gold.Chemscore.Rot.Weighted>
4.4997

> <Gold.Chemscore.Internal.Correction.Weighted>
   9.000000E+99

> <Gold.Protein.RotatedTorsions>
[ 6907 6896 6895 6894 ] final   89.42 input  -60.11 | X-H torsion
[ 7974 7965 7964 7962 ] final  -78.78 input  175.53 | X-H torsion
[ 8008 7997 7996 7995 ] final   44.66 input   59.86 | X-H torsion
[ 10167 10162 10161 10158 ] final  -28.30 input  -65.29 | X-H torsion
[ 10718 10713 10712 10709 ] final -178.83 input   66.30 | X-H torsion
[ 10763 10752 10751 10750 ] final  162.53 input  -60.55 | X-H torsion
[ 11005 11000 10999 10996 ] final   34.06 input  -57.11 | X-H torsion

> <Gold.Protein.ActiveResidues>
 VAL166  LYS551  ARG553  GLY616  TRP617  ASP618  TYR619  PRO620  LYS621  CYS622 
 ASP623  PHE694  ASN695  SER759  ASP760  ASP761  ALA762  ILE779  LEU786  VAL792 
 PHE793  MET794  SER795  GLU796  ALA797  LYS798  CYS799  TRP800  GLU811  SER814 

> <Gold.Protein.RotatedAtoms>
  152.5436  134.1969  159.8696 H   0  0  0  0  0  0  0  0  0  0  0  0  # atno 6907 bound_to 6896
  151.1961  133.4631  159.2603 H   0  0  0  0  0  0  0  0  0  0  0  0  # atno 6908 bound_to 6896
  151.1035  134.9998  159.8516 H   0  0  0  0  0  0  0  0  0  0  0  0  # atno 6909 bound_to 6896
  145.5820  140.9446  143.1339 H   0  0  0  0  0  0  0  0  0  0  0  0  # atno 7974 bound_to 7965
  155.3230  140.3398  155.4241 H   0  0  0  0  0  0  0  0  0  0  0  0  # atno 8008 bound_to 7997
  156.1899  140.1694  156.8149 H   0  0  0  0  0  0  0  0  0  0  0  0  # atno 8009 bound_to 7997
  154.5430  140.0721  156.8525 H   0  0  0  0  0  0  0  0  0  0  0  0  # atno 8010 bound_to 7997
  140.7271  143.4022  151.1246 H   0  0  0  0  0  0  0  0  0  0  0  0  # atno 10167 bound_to 10162
  156.8501  130.9716  151.3093 H   0  0  0  0  0  0  0  0  0  0  0  0  # atno 10718 bound_to 10713
  154.2798  135.2763  155.2702 H   0  0  0  0  0  0  0  0  0  0  0  0  # atno 10763 bound_to 10752
  154.5228  135.5751  153.6698 H   0  0  0  0  0  0  0  0  0  0  0  0  # atno 10764 bound_to 10752
  152.9931  135.6208  154.2957 H   0  0  0  0  0  0  0  0  0  0  0  0  # atno 10765 bound_to 10752
  140.2567  134.3240  155.7871 H   0  0  0  0  0  0  0  0  0  0  0  0  # atno 11005 bound_to 11000
  144.7389  139.7504  143.7318 LP  0  0  0  0  0  0  0  0  0  0  0  0  # atno 17320 bound_to 7965
  146.1709  139.4859  142.9928 LP  0  0  0  0  0  0  0  0  0  0  0  0  # atno 17321 bound_to 7965
  139.7643  143.8588  152.3107 LP  0  0  0  0  0  0  0  0  0  0  0  0  # atno 17342 bound_to 10162
  139.8485  144.7176  150.9243 LP  0  0  0  0  0  0  0  0  0  0  0  0  # atno 17343 bound_to 10162
  157.6308  130.8728  149.9271 LP  0  0  0  0  0  0  0  0  0  0  0  0  # atno 17370 bound_to 10713
  156.0833  130.3670  150.0537 LP  0  0  0  0  0  0  0  0  0  0  0  0  # atno 17371 bound_to 10713
  141.2195  133.7385  156.9123 LP  0  0  0  0  0  0  0  0  0  0  0  0  # atno 17394 bound_to 11000
  140.1504  134.9234  157.2585 LP  0  0  0  0  0  0  0  0  0  0  0  0  # atno 17395 bound_to 11000

$$$$
