AV-unprocessed.smi:1521|AV-procd|sdf|6130|dock9
  -GOLD-   22720 6273D 1   1.00000     0.00000
 Structure written by MMmdl.
 36 37  0  0  0  0  0  0  0  0  1 V2000
  148.8113  133.4458  155.5094 O   0  0  0  0  0  0  0  0  0  0  0  0
  148.8191  134.2265  154.5577 C   0  0  0  0  0  0  0  0  0  0  0  0
  149.4854  135.3892  154.5657 N   0  0  0  0  0  0  0  0  0  0  0  0
  150.2923  135.8879  155.6743 C   0  0  0  0  0  0  0  0  0  0  0  0
  150.3179  137.4254  155.7100 C   0  0  2  0  0  0  0  0  0  0  0  0
  151.0577  138.0182  154.4942 C   0  0  0  0  0  0  0  0  0  0  0  0
  151.0896  139.4351  154.6080 O   0  0  0  0  0  0  0  0  0  0  0  0
  151.7609  139.8436  155.7922 C   0  0  0  0  0  0  0  0  0  0  0  0
  151.0307  139.2549  157.0106 C   0  0  0  0  0  0  0  0  0  0  0  0
  150.9996  137.8389  156.8902 O   0  0  0  0  0  0  0  0  0  0  0  0
  148.1963  134.0382  153.3798 N   0  0  0  0  0  0  0  0  0  0  0  0
  147.3683  132.9776  152.9758 C   0  0  0  0  0  0  0  0  0  0  0  0
  147.6518  131.6615  153.1594 C   0  0  0  0  0  0  0  0  0  0  0  0
  146.7428  130.6101  152.7340 C   0  0  0  0  0  0  0  0  0  0  0  0
  147.1050  129.1394  152.8719 C   0  0  0  0  0  0  0  0  0  0  0  0
  147.1254  128.5328  151.6845 F   0  0  0  0  0  0  0  0  0  0  0  0
  148.3033  128.9924  153.4376 F   0  0  0  0  0  0  0  0  0  0  0  0
  146.2063  128.5222  153.6378 F   0  0  0  0  0  0  0  0  0  0  0  0
  145.6038  131.0070  152.1372 C   0  0  0  0  0  0  0  0  0  0  0  0
  145.2948  132.3582  151.9648 N   0  0  0  0  0  0  0  0  0  0  0  0
  146.0982  133.3761  152.3469 C   0  0  0  0  0  0  0  0  0  0  0  0
  145.7530  134.5427  152.1615 O   0  0  0  0  0  0  0  0  0  0  0  0
  144.4129  132.5748  151.5233 H   0  0  0  0  0  0  0  0  0  0  0  0
  149.4457  135.9667  153.7385 H   0  0  0  0  0  0  0  0  0  0  0  0
  149.8760  135.4987  156.6037 H   0  0  0  0  0  0  0  0  0  0  0  0
  151.3070  135.4927  155.6022 H   0  0  0  0  0  0  0  0  0  0  0  0
  149.2945  137.8045  155.7280 H   0  0  0  0  0  0  0  0  0  0  0  0
  152.0732  137.6251  154.4218 H   0  0  0  0  0  0  0  0  0  0  0  0
  150.5448  137.7519  153.5698 H   0  0  0  0  0  0  0  0  0  0  0  0
  152.8014  139.5168  155.7673 H   0  0  0  0  0  0  0  0  0  0  0  0
  151.7666  140.9325  155.8421 H   0  0  0  0  0  0  0  0  0  0  0  0
  151.5503  139.5233  157.9303 H   0  0  0  0  0  0  0  0  0  0  0  0
  150.0169  139.6506  157.0863 H   0  0  0  0  0  0  0  0  0  0  0  0
  148.3688  134.7310  152.6657 H   0  0  0  0  0  0  0  0  0  0  0  0
  148.5591  131.3551  153.6542 H   0  0  0  0  0  0  0  0  0  0  0  0
  144.8547  130.3335  151.7474 H   0  0  0  0  0  0  0  0  0  0  0  0
  1  2  2  0  0  0  0
  2  3  1  0  0  0  0
  2 11  1  0  0  0  0
  3  4  1  0  0  0  0
  3 24  1  0  0  0  0
  4  5  1  0  0  0  0
  4 25  1  0  0  0  0
  4 26  1  0  0  0  0
  5 10  1  0  0  0  0
  5  6  1  0  0  0  0
  5 27  1  0  0  0  0
  6  7  1  0  0  0  0
  6 28  1  0  0  0  0
  6 29  1  0  0  0  0
  7  8  1  0  0  0  0
  8  9  1  0  0  0  0
  8 30  1  0  0  0  0
  8 31  1  0  0  0  0
  9 10  1  0  0  0  0
  9 32  1  0  0  0  0
  9 33  1  0  0  0  0
 11 12  1  0  0  0  0
 11 34  1  0  0  0  0
 12 21  1  0  0  0  0
 12 13  2  0  0  0  0
 13 14  1  0  0  0  0
 13 35  1  0  0  0  0
 14 15  1  0  0  0  0
 14 19  2  0  0  0  0
 15 16  1  0  0  0  0
 15 17  1  0  0  0  0
 15 18  1  0  0  0  0
 19 20  1  0  0  0  0
 19 36  1  0  0  0  0
 20 23  1  0  0  0  0
 20 21  1  0  0  0  0
 21 22  2  0  0  0  0
M  END
> <s_m_source_file>
AV-unprocessed.smi

> <i_m_source_file_index>
1521

> <i_lp_mmshare_version>
43012

> <i_f3d_flags>
0

> <s_epik_input>
Tz1jMVtuSF1bY0hdYyhDKEYpKEYpRilbY0hdYzFbTkhdQyg9TylbTkhdW0NIMl1bQ0BASF0yW0NIMl1PW0NIMl1bQ0gyXU8y

> <s_epik_cmdline>
J2VwaWtfcHl0aG9uJywgJy1waCcsICc3LjAnLCAnLXRuJywgJzgnLCAnLW1hJywgJzIwMCcsICctbWV0YWxfYmluZGluZycsICctaW1hZScsICc8aW5maWxlLm1hZT4nLCAnLW9tYWUnLCAnPG91dGZpbGUubWFlPic=

> <r_lp_tautomer_probability>
1

> <r_epik_Ionization_Penalty>
0.00396636

> <r_epik_Ionization_Penalty_Charging>
0.00394789

> <r_epik_Ionization_Penalty_Neutral>
1.84676e-05

> <r_epik_State_Penalty>
-0

> <r_epik_Charging_Adjusted_Penalty>
0.00394789

> <i_epik_Tot_Q>
0

> <i_epik_Tot_abs_Q>
0

> <r_epik_Metal_State_Penalty>
0.372669

> <b_epik_Metal_Only>
0

> <s_lp_Force_Field>
OPLS_2005

> <r_lp_Energy>
18.8562

> <b_lp_Chiralities_Consistent>
1

> <s_lp_Variant>
AV-unprocessed.smi:1521-1

> <Gold.Version>
5.8.1

> <Gold.Id.Protein>
6NUR|6NUR_protein|mol2

> <Gold.PLP.Fitness>
41.7153

> <Gold.PLP.PLP>
-33.9315

> <Gold.PLP.part.hbond>
-3.0000

> <Gold.PLP.part.metal>
0.0000

> <Gold.PLP.part.buried>
-3.1566

> <Gold.PLP.part.nonpolar>
-27.6955

> <Gold.PLP.part.repulsive>
0.2640

> <Gold.PLP.ligand.clash>
0.0000

> <Gold.PLP.ligand.torsion>
0.6353

> <Gold.PLP.Chemscore.Hbond>
3.0000

> <Gold.PLP.Chemscore.CHOScore>
0.0000

> <Gold.PLP.Chemscore.Metal>
0.0000

> <Gold.Chemscore.Hbonds>
donor molecule, donor type, donor heavy atom, donor atom, acceptor molecule, acceptor atom, score
      L1  H     3    24       P1  7948  1.00
      L1  H    11    34       P1  7948  1.00
      P1  H  7989  7998       L1     7  0.90

> <Gold.PLP.Chemscore.Internal.Correction>
0.0545

> <Gold.Rescore>
     Score         DG    S(hbond)    S(metal)    S(lipo)     H(rot)  DE(clash)    DE(int)     intcor
     15.30     -16.03       2.24        0.00      56.28       1.37       0.08       0.65       ----

> <Gold.Chemscore.Fitness>
15.2991

> <Gold.Chemscore.DG>
-16.0267

> <Gold.Chemscore.ZeroCoef>
-5.4800

> <Gold.Chemscore.Hbond>
2.2389

> <Gold.Chemscore.Metal>
0.0000

> <Gold.Chemscore.Lipo>
56.2825

> <Gold.Chemscore.Internal_Hbond>
0.0000

> <Gold.Chemscore.DEClash>
0.0756

> <Gold.Chemscore.DEInternal>
0.6520

> <Gold.Chemscore.Rot>
1.3735

> <Gold.Chemscore.Internal.Correction>
   9.000000E+99

> <Gold.Chemscore.Hbonds>
donor molecule, donor type, donor heavy atom, donor atom, acceptor molecule, acceptor atom, score
      L1  H     3    24       P1  7948  0.52
      L1  H    11    34       P1  7948  0.35
      P1  H  7989  7998       L1     7  0.18

> <Gold.Chemscore.Hbond.Weighted>
-7.4778

> <Gold.Chemscore.Metal.Weighted>
-0.0000

> <Gold.Chemscore.Lipo.Weighted>
-6.5851

> <Gold.Chemscore.Internal_Hbond.Weighted>
0.0000

> <Gold.Chemscore.DEClash.Weighted>
0.0756

> <Gold.Chemscore.DEInternal.Weighted>
0.6520

> <Gold.Chemscore.Rot.Weighted>
3.5162

> <Gold.Chemscore.Internal.Correction.Weighted>
   9.000000E+99

> <Gold.Protein.RotatedTorsions>
[ 6907 6896 6895 6894 ] final   22.79 input  -60.11 | X-H torsion
[ 7974 7965 7964 7962 ] final -126.54 input  175.53 | X-H torsion
[ 8008 7997 7996 7995 ] final  -80.81 input   59.86 | X-H torsion
[ 10167 10162 10161 10158 ] final   84.72 input  -65.29 | X-H torsion
[ 10718 10713 10712 10709 ] final -171.07 input   66.30 | X-H torsion
[ 10763 10752 10751 10750 ] final  -24.86 input  -60.55 | X-H torsion
[ 11005 11000 10999 10996 ] final  -95.53 input  -57.11 | X-H torsion

> <Gold.Protein.ActiveResidues>
 VAL166  LYS551  ARG553  GLY616  TRP617  ASP618  TYR619  PRO620  LYS621  CYS622 
 ASP623  PHE694  ASN695  SER759  ASP760  ASP761  ALA762  ILE779  LEU786  VAL792 
 PHE793  MET794  SER795  GLU796  ALA797  LYS798  CYS799  TRP800  GLU811  SER814 

> <Gold.Protein.RotatedAtoms>
  151.9325  135.0250  160.0529 H   0  0  0  0  0  0  0  0  0  0  0  0  # atno 6907 bound_to 6896
  152.2106  133.4904  159.5116 H   0  0  0  0  0  0  0  0  0  0  0  0  # atno 6908 bound_to 6896
  150.6975  134.1389  159.4140 H   0  0  0  0  0  0  0  0  0  0  0  0  # atno 6909 bound_to 6896
  144.9862  140.7689  143.4582 H   0  0  0  0  0  0  0  0  0  0  0  0  # atno 7974 bound_to 7965
  154.5920  140.0657  156.9252 H   0  0  0  0  0  0  0  0  0  0  0  0  # atno 8008 bound_to 7997
  155.2279  140.3335  155.4289 H   0  0  0  0  0  0  0  0  0  0  0  0  # atno 8009 bound_to 7997
  156.2262  140.1820  156.7341 H   0  0  0  0  0  0  0  0  0  0  0  0  # atno 8010 bound_to 7997
  139.9051  144.6306  150.8596 H   0  0  0  0  0  0  0  0  0  0  0  0  # atno 10167 bound_to 10162
  156.7354  130.9322  151.3107 H   0  0  0  0  0  0  0  0  0  0  0  0  # atno 10718 bound_to 10713
  153.6905  135.6962  153.5091 H   0  0  0  0  0  0  0  0  0  0  0  0  # atno 10763 bound_to 10752
  153.2417  135.4304  155.0703 H   0  0  0  0  0  0  0  0  0  0  0  0  # atno 10764 bound_to 10752
  154.8374  135.3509  154.6447 H   0  0  0  0  0  0  0  0  0  0  0  0  # atno 10765 bound_to 10752
  141.1439  133.8033  157.0448 H   0  0  0  0  0  0  0  0  0  0  0  0  # atno 11005 bound_to 11000
  145.2350  139.2098  143.5023 LP  0  0  0  0  0  0  0  0  0  0  0  0  # atno 17320 bound_to 7965
  146.3420  140.2234  142.8592 LP  0  0  0  0  0  0  0  0  0  0  0  0  # atno 17321 bound_to 7965
  140.7698  143.3407  151.2214 LP  0  0  0  0  0  0  0  0  0  0  0  0  # atno 17342 bound_to 10162
  139.6991  143.9563  152.2897 LP  0  0  0  0  0  0  0  0  0  0  0  0  # atno 17343 bound_to 10162
  157.6841  130.9168  150.0341 LP  0  0  0  0  0  0  0  0  0  0  0  0  # atno 17370 bound_to 10713
  156.1500  130.3642  149.9452 LP  0  0  0  0  0  0  0  0  0  0  0  0  # atno 17371 bound_to 10713
  140.0669  134.9724  157.1401 LP  0  0  0  0  0  0  0  0  0  0  0  0  # atno 17394 bound_to 11000
  140.3766  134.2332  155.7174 LP  0  0  0  0  0  0  0  0  0  0  0  0  # atno 17395 bound_to 11000

$$$$
