AV-unprocessed.smi:244|AV-procd|sdf|1874|dock5
  -GOLD-   2262020513D 1   1.00000     0.00000
 Structure written by MMmdl.
 56 60  0  0  0  0  0  0  0  0  1 V2000
  150.5849  144.3281  158.9284 C   0  0  0  0  0  0  0  0  0  0  0  0
  151.6851  143.7239  158.1854 N   0  0  0  0  0  0  0  0  0  0  0  0
  152.6784  143.0843  159.0507 C   0  0  0  0  0  0  0  0  0  0  0  0
  152.1525  141.7884  159.7001 C   0  0  0  0  0  0  0  0  0  0  0  0
  151.6295  140.7974  158.6508 C   0  0  2  0  0  0  0  0  0  0  0  0
  152.7242  140.2725  157.9030 O   0  0  0  0  0  0  0  0  0  0  0  0
  152.3059  139.2891  156.9629 C   0  0  0  0  0  0  0  0  0  0  0  0
  151.3398  139.9202  155.9481 C   0  0  0  0  0  0  0  0  0  0  0  0
  150.2283  140.5686  156.6442 N   0  0  0  0  0  0  0  0  0  0  0  0
  149.1447  140.9370  155.9103 C   0  0  0  0  0  0  0  0  0  0  0  0
  149.2768  141.1460  154.5726 N   0  0  0  0  0  0  0  0  0  0  0  0
  148.2279  141.5292  153.8396 C   0  0  0  0  0  0  0  0  0  0  0  0
  146.9736  141.7549  154.2328 N   0  0  0  0  0  0  0  0  0  0  0  0
  146.8278  141.5341  155.5702 C   0  0  0  0  0  0  0  0  0  0  0  0
  147.8507  141.1294  156.4750 C   0  0  0  0  0  0  0  0  0  0  0  0
  147.3209  141.0000  157.7541 N   0  0  0  0  0  0  0  0  0  0  0  0
  146.0647  141.3228  157.6161 C   0  0  0  0  0  0  0  0  0  0  0  0
  145.6799  141.6466  156.3352 N   0  0  0  0  0  0  0  0  0  0  0  0
  144.3467  142.0323  155.8982 C   0  0  0  0  0  0  0  0  0  0  0  0
  144.2372  143.5063  155.4340 C   0  0  0  0  0  0  0  0  0  0  0  0
  144.7915  144.3229  156.4507 O   0  0  0  0  0  0  0  0  0  0  0  0
  145.0047  143.7774  154.1212 C   0  0  0  0  0  0  0  0  0  0  0  0
  144.7165  145.1818  153.5616 C   0  0  0  0  0  0  0  0  0  0  0  0
  143.3158  145.3663  153.3961 O   0  0  0  0  0  0  0  0  0  0  0  0
  142.6035  145.2992  154.6255 C   0  0  0  0  0  0  0  0  0  0  0  0
  142.7581  143.8996  155.2461 C   0  0  0  0  0  0  0  0  0  0  0  0
  150.6314  141.4965  157.7036 C   0  0  2  0  0  0  0  0  0  0  0  0
  151.2277  142.8114  157.1368 C   0  0  0  0  0  0  0  0  0  0  0  0
  150.9675  145.0563  159.6439 H   0  0  0  0  0  0  0  0  0  0  0  0
  149.9975  143.5929  159.4774 H   0  0  0  0  0  0  0  0  0  0  0  0
  149.9145  144.8543  158.2483 H   0  0  0  0  0  0  0  0  0  0  0  0
  153.5587  142.8547  158.4491 H   0  0  0  0  0  0  0  0  0  0  0  0
  153.0052  143.7879  159.8171 H   0  0  0  0  0  0  0  0  0  0  0  0
  152.9436  141.3211  160.2870 H   0  0  0  0  0  0  0  0  0  0  0  0
  151.3568  142.0242  160.4068 H   0  0  0  0  0  0  0  0  0  0  0  0
  151.1351  139.9730  159.1679 H   0  0  0  0  0  0  0  0  0  0  0  0
  153.1818  138.8910  156.4507 H   0  0  0  0  0  0  0  0  0  0  0  0
  151.8334  138.4530  157.4806 H   0  0  0  0  0  0  0  0  0  0  0  0
  151.8680  140.6489  155.3318 H   0  0  0  0  0  0  0  0  0  0  0  0
  150.9634  139.1457  155.2785 H   0  0  0  0  0  0  0  0  0  0  0  0
  148.4218  141.6776  152.7876 H   0  0  0  0  0  0  0  0  0  0  0  0
  145.3764  141.3233  158.4488 H   0  0  0  0  0  0  0  0  0  0  0  0
  144.0556  141.3637  155.0872 H   0  0  0  0  0  0  0  0  0  0  0  0
  143.6489  141.8389  156.7140 H   0  0  0  0  0  0  0  0  0  0  0  0
  144.2488  144.2547  157.2212 H   0  0  0  0  0  0  0  0  0  0  0  0
  146.0791  143.6580  154.2657 H   0  0  0  0  0  0  0  0  0  0  0  0
  144.7111  143.0385  153.3744 H   0  0  0  0  0  0  0  0  0  0  0  0
  145.1220  145.9555  154.2153 H   0  0  0  0  0  0  0  0  0  0  0  0
  145.2025  145.3027  152.5932 H   0  0  0  0  0  0  0  0  0  0  0  0
  142.9559  146.0747  155.3077 H   0  0  0  0  0  0  0  0  0  0  0  0
  141.5506  145.5055  154.4323 H   0  0  0  0  0  0  0  0  0  0  0  0
  142.2737  143.1773  154.5876 H   0  0  0  0  0  0  0  0  0  0  0  0
  142.2249  143.8503  156.1964 H   0  0  0  0  0  0  0  0  0  0  0  0
  149.7568  141.7474  158.2996 H   0  0  0  0  0  0  0  0  0  0  0  0
  150.4982  143.3244  156.5088 H   0  0  0  0  0  0  0  0  0  0  0  0
  152.0807  142.5885  156.4954 H   0  0  0  0  0  0  0  0  0  0  0  0
  1  2  1  0  0  0  0
  1 29  1  0  0  0  0
  1 30  1  0  0  0  0
  1 31  1  0  0  0  0
  2 28  1  0  0  0  0
  2  3  1  0  0  0  0
  3  4  1  0  0  0  0
  3 32  1  0  0  0  0
  3 33  1  0  0  0  0
  4  5  1  0  0  0  0
  4 34  1  0  0  0  0
  4 35  1  0  0  0  0
  5 27  1  0  0  0  0
  5  6  1  0  0  0  0
  5 36  1  0  0  0  0
  6  7  1  0  0  0  0
  7  8  1  0  0  0  0
  7 37  1  0  0  0  0
  7 38  1  0  0  0  0
  8  9  1  0  0  0  0
  8 39  1  0  0  0  0
  8 40  1  0  0  0  0
  9 10  1  0  0  0  0
  9 27  1  0  0  0  0
 10 15  1  0  0  0  0
 10 11  2  0  0  0  0
 11 12  1  0  0  0  0
 12 13  2  0  0  0  0
 12 41  1  0  0  0  0
 13 14  1  0  0  0  0
 14 18  1  0  0  0  0
 14 15  2  0  0  0  0
 15 16  1  0  0  0  0
 16 17  2  0  0  0  0
 17 18  1  0  0  0  0
 17 42  1  0  0  0  0
 18 19  1  0  0  0  0
 19 20  1  0  0  0  0
 19 43  1  0  0  0  0
 19 44  1  0  0  0  0
 20 26  1  0  0  0  0
 20 21  1  0  0  0  0
 20 22  1  0  0  0  0
 21 45  1  0  0  0  0
 22 23  1  0  0  0  0
 22 46  1  0  0  0  0
 22 47  1  0  0  0  0
 23 24  1  0  0  0  0
 23 48  1  0  0  0  0
 23 49  1  0  0  0  0
 24 25  1  0  0  0  0
 25 26  1  0  0  0  0
 25 50  1  0  0  0  0
 25 51  1  0  0  0  0
 26 52  1  0  0  0  0
 26 53  1  0  0  0  0
 27 28  1  0  0  0  0
 27 54  1  0  0  0  0
 28 55  1  0  0  0  0
 28 56  1  0  0  0  0
M  END
> <s_m_source_file>
AV-unprocessed.smi

> <i_m_source_file_index>
244

> <i_lp_mmshare_version>
43012

> <i_f3d_flags>
0

> <s_epik_input>
W0NIMl0xW0NIMl1OKFtDSDNdKVtDSDJdW0NAQEhdKFtDQEhdMTIpTihbQ0gyXVtDSDJdTzIpYyhuW2NIXW4zKWMoYzM0KW5bY0hdbjRbQ0gyXUM1KFtPSF0pW0NIMl1bQ0gyXU9bQ0gyXVtDSDJdNQ==

> <s_epik_cmdline>
J2VwaWtfcHl0aG9uJywgJy1waCcsICc3LjAnLCAnLXRuJywgJzgnLCAnLW1hJywgJzIwMCcsICctbWV0YWxfYmluZGluZycsICctaW1hZScsICc8aW5maWxlLm1hZT4nLCAnLW9tYWUnLCAnPG91dGZpbGUubWFlPic=

> <r_lp_tautomer_probability>
1

> <r_epik_Ionization_Penalty>
2.27765

> <r_epik_Ionization_Penalty_Charging>
0

> <r_epik_Ionization_Penalty_Neutral>
2.27765

> <r_epik_State_Penalty>
2.4114

> <r_epik_Charging_Adjusted_Penalty>
2.4114

> <i_epik_Tot_Q>
0

> <i_epik_Tot_abs_Q>
0

> <r_epik_Metal_State_Penalty>
2.39769

> <b_epik_Metal_Only>
0

> <s_lp_Force_Field>
OPLS_2005

> <r_lp_Energy>
43.9701

> <b_lp_Chiralities_Consistent>
1

> <s_lp_Variant>
AV-unprocessed.smi:244-11

> <Gold.Version>
5.8.1

> <Gold.Id.Protein>
6NUR|6NUR_protein|mol2

> <Gold.PLP.Fitness>
44.9429

> <Gold.PLP.PLP>
-41.2638

> <Gold.PLP.part.hbond>
-2.2064

> <Gold.PLP.part.metal>
0.0000

> <Gold.PLP.part.buried>
-7.8905

> <Gold.PLP.part.nonpolar>
-31.6595

> <Gold.PLP.part.repulsive>
0.5650

> <Gold.PLP.ligand.clash>
0.0000

> <Gold.PLP.ligand.torsion>
0.4478

> <Gold.PLP.Chemscore.Hbond>
0.3797

> <Gold.PLP.Chemscore.CHOScore>
1.0000

> <Gold.PLP.Chemscore.Metal>
0.0000

> <Gold.Chemscore.Hbonds>
donor molecule, donor type, donor heavy atom, donor atom, acceptor molecule, acceptor atom, score
      P1  H  7997  8008       L1     6  0.19
      L1  C    12    41       P1  7957  0.86

> <Gold.PLP.Chemscore.Internal.Correction>
0.4358

> <Gold.Rescore>
     Score         DG    S(hbond)    S(metal)    S(lipo)     H(rot)  DE(clash)    DE(int)     intcor
     11.27     -12.45       0.59        0.00      87.81       2.06       0.43       0.75       ----

> <Gold.Chemscore.Fitness>
11.2667

> <Gold.Chemscore.DG>
-12.4497

> <Gold.Chemscore.ZeroCoef>
-5.4800

> <Gold.Chemscore.Hbond>
0.5905

> <Gold.Chemscore.Metal>
0.0000

> <Gold.Chemscore.Lipo>
87.8123

> <Gold.Chemscore.Internal_Hbond>
0.0000

> <Gold.Chemscore.DEClash>
0.4343

> <Gold.Chemscore.DEInternal>
0.7487

> <Gold.Chemscore.Rot>
2.0611

> <Gold.Chemscore.Internal.Correction>
   9.000000E+99

> <Gold.Chemscore.Hbond.Weighted>
-1.9722

> <Gold.Chemscore.Metal.Weighted>
-0.0000

> <Gold.Chemscore.Lipo.Weighted>
-10.2740

> <Gold.Chemscore.Internal_Hbond.Weighted>
0.0000

> <Gold.Chemscore.DEClash.Weighted>
0.4343

> <Gold.Chemscore.DEInternal.Weighted>
0.7487

> <Gold.Chemscore.Rot.Weighted>
5.2765

> <Gold.Chemscore.Internal.Correction.Weighted>
   9.000000E+99

> <Gold.Protein.RotatedTorsions>
[ 6907 6896 6895 6894 ] final  -87.92 input  -60.11 | X-H torsion
[ 7974 7965 7964 7962 ] final  -18.01 input  175.53 | X-H torsion
[ 8008 7997 7996 7995 ] final  -86.27 input   59.86 | X-H torsion
[ 10167 10162 10161 10158 ] final  -83.52 input  -65.29 | X-H torsion
[ 10718 10713 10712 10709 ] final  -94.21 input   66.30 | X-H torsion
[ 10763 10752 10751 10750 ] final   34.35 input  -60.55 | X-H torsion
[ 11005 11000 10999 10996 ] final  -92.52 input  -57.11 | X-H torsion

> <Gold.Protein.ActiveResidues>
 VAL166  LYS551  ARG553  GLY616  TRP617  ASP618  TYR619  PRO620  LYS621  CYS622 
 ASP623  PHE694  ASN695  SER759  ASP760  ASP761  ALA762  ILE779  LEU786  VAL792 
 PHE793  MET794  SER795  GLU796  ALA797  LYS798  CYS799  TRP800  GLU811  SER814 

> <Gold.Protein.RotatedAtoms>
  150.6867  134.2822  159.4631 H   0  0  0  0  0  0  0  0  0  0  0  0  # atno 6907 bound_to 6896
  152.0735  134.9515  160.0583 H   0  0  0  0  0  0  0  0  0  0  0  0  # atno 6908 bound_to 6896
  152.0896  133.4159  159.4575 H   0  0  0  0  0  0  0  0  0  0  0  0  # atno 6909 bound_to 6896
  146.1913  140.3860  142.8457 H   0  0  0  0  0  0  0  0  0  0  0  0  # atno 7974 bound_to 7965
  154.6500  140.0580  156.9945 H   0  0  0  0  0  0  0  0  0  0  0  0  # atno 8008 bound_to 7997
  155.1385  140.3263  155.4439 H   0  0  0  0  0  0  0  0  0  0  0  0  # atno 8009 bound_to 7997
  156.2572  140.1968  156.6502 H   0  0  0  0  0  0  0  0  0  0  0  0  # atno 8010 bound_to 7997
  140.4219  143.2581  151.8878 H   0  0  0  0  0  0  0  0  0  0  0  0  # atno 10167 bound_to 10162
  156.0024  130.5058  150.5892 H   0  0  0  0  0  0  0  0  0  0  0  0  # atno 10718 bound_to 10713
  153.0168  135.6363  154.1654 H   0  0  0  0  0  0  0  0  0  0  0  0  # atno 10763 bound_to 10752
  154.1393  135.2835  155.3167 H   0  0  0  0  0  0  0  0  0  0  0  0  # atno 10764 bound_to 10752
  154.6137  135.5548  153.7561 H   0  0  0  0  0  0  0  0  0  0  0  0  # atno 10765 bound_to 10752
  141.1520  133.7826  157.0031 H   0  0  0  0  0  0  0  0  0  0  0  0  # atno 11005 bound_to 11000
  144.8492  140.6976  143.6179 LP  0  0  0  0  0  0  0  0  0  0  0  0  # atno 17320 bound_to 7965
  145.3783  139.1642  143.4294 LP  0  0  0  0  0  0  0  0  0  0  0  0  # atno 17321 bound_to 7965
  139.4783  144.5428  151.8503 LP  0  0  0  0  0  0  0  0  0  0  0  0  # atno 17342 bound_to 10162
  140.4524  144.1837  150.5898 LP  0  0  0  0  0  0  0  0  0  0  0  0  # atno 17343 bound_to 10162
  157.3760  131.0773  151.1518 LP  0  0  0  0  0  0  0  0  0  0  0  0  # atno 17370 bound_to 10713
  157.2256  130.6501  149.5828 LP  0  0  0  0  0  0  0  0  0  0  0  0  # atno 17371 bound_to 10713
  140.0927  134.9583  157.1801 LP  0  0  0  0  0  0  0  0  0  0  0  0  # atno 17394 bound_to 11000
  140.3424  134.2689  155.7210 LP  0  0  0  0  0  0  0  0  0  0  0  0  # atno 17395 bound_to 11000

$$$$
