AV-unprocessed.smi:218|AV-procd|sdf|1674|dock6
  -GOLD-   2262020 93D 1   1.00000     0.00000
 Structure written by MMmdl.
 54 57  0  0  0  0  0  0  0  0  1 V2000
  152.3983  143.6458  157.9907 C   0  0  0  0  0  0  0  0  0  0  0  0
  151.0762  143.0940  157.4440 C   0  0  0  0  0  0  0  0  0  0  0  0
  149.9737  143.1286  158.5165 C   0  0  0  0  0  0  0  0  0  0  0  0
  151.3261  141.7484  157.0325 O   0  0  0  0  0  0  0  0  0  0  0  0
  150.3317  141.0153  156.4134 C   0  0  0  0  0  0  0  0  0  0  0  0
  149.2791  140.5136  157.2063 C   0  0  0  0  0  0  0  0  0  0  0  0
  148.2603  139.7585  156.5893 C   0  0  0  0  0  0  0  0  0  0  0  0
  147.1064  139.1980  157.4025 C   0  0  0  0  0  0  0  0  0  0  0  0
  147.0168  137.7419  157.4084 N   0  0  0  0  0  0  0  0  0  0  0  0
  145.9357  137.1155  156.8926 C   0  0  0  0  0  0  0  0  0  0  0  0
  144.7696  137.0397  157.5862 N   0  0  0  0  0  0  0  0  0  0  0  0
  143.7141  136.4178  157.0528 C   0  0  0  0  0  0  0  0  0  0  0  0
  143.6118  135.8212  155.8635 N   0  0  0  0  0  0  0  0  0  0  0  0
  144.7782  135.8984  155.1596 C   0  0  0  0  0  0  0  0  0  0  0  0
  145.9756  136.5270  155.6021 C   0  0  0  0  0  0  0  0  0  0  0  0
  146.9556  136.4159  154.6244 N   0  0  0  0  0  0  0  0  0  0  0  0
  146.3674  135.7581  153.6620 C   0  0  0  0  0  0  0  0  0  0  0  0
  145.0592  135.4002  153.9029 N   0  0  0  0  0  0  0  0  0  0  0  0
  144.1440  134.6338  152.9987 C   0  0  2  0  0  0  0  0  0  0  0  0
  144.7741  133.4484  152.6274 O   0  0  0  0  0  0  0  0  0  0  0  0
  144.4021  133.1249  151.2928 C   0  0  2  0  0  0  0  0  0  0  0  0
  145.3816  132.1119  150.6747 C   0  0  0  0  0  0  0  0  0  0  0  0
  146.7051  132.5887  150.7886 O   0  0  0  0  0  0  0  0  0  0  0  0
  144.3418  134.4968  150.6044 C   0  0  2  0  0  0  0  0  0  0  0  0
  145.6251  134.9014  150.1590 O   0  0  0  0  0  0  0  0  0  0  0  0
  143.7876  135.3985  151.7059 C   0  0  2  0  0  0  0  0  0  0  0  0
  144.2491  136.7383  151.6313 O   0  0  0  0  0  0  0  0  0  0  0  0
  148.3365  139.5309  155.2010 C   0  0  0  0  0  0  0  0  0  0  0  0
  149.4251  140.0740  154.4921 C   0  0  0  0  0  0  0  0  0  0  0  0
  150.4040  140.7966  155.0768 N   0  0  0  0  0  0  0  0  0  0  0  0
  143.2685  134.4171  153.6124 H   0  0  0  0  0  0  0  0  0  0  0  0
  143.3925  132.7092  151.3079 H   0  0  0  0  0  0  0  0  0  0  0  0
  143.6812  134.4800  149.7370 H   0  0  0  0  0  0  0  0  0  0  0  0
  142.6990  135.4121  151.6392 H   0  0  0  0  0  0  0  0  0  0  0  0
  152.2850  144.6767  158.3277 H   0  0  0  0  0  0  0  0  0  0  0  0
  153.1730  143.6315  157.2236 H   0  0  0  0  0  0  0  0  0  0  0  0
  152.7547  143.0543  158.8347 H   0  0  0  0  0  0  0  0  0  0  0  0
  150.7920  143.7200  156.5967 H   0  0  0  0  0  0  0  0  0  0  0  0
  149.7989  144.1474  158.8633 H   0  0  0  0  0  0  0  0  0  0  0  0
  150.2485  142.5250  159.3819 H   0  0  0  0  0  0  0  0  0  0  0  0
  149.0264  142.7473  158.1363 H   0  0  0  0  0  0  0  0  0  0  0  0
  149.2558  140.7071  158.2687 H   0  0  0  0  0  0  0  0  0  0  0  0
  147.1596  139.5643  158.4285 H   0  0  0  0  0  0  0  0  0  0  0  0
  146.1780  139.5906  156.9877 H   0  0  0  0  0  0  0  0  0  0  0  0
  147.7259  137.2607  157.9427 H   0  0  0  0  0  0  0  0  0  0  0  0
  142.8248  136.3951  157.6651 H   0  0  0  0  0  0  0  0  0  0  0  0
  146.8790  135.5075  152.7441 H   0  0  0  0  0  0  0  0  0  0  0  0
  145.3302  131.1639  151.2108 H   0  0  0  0  0  0  0  0  0  0  0  0
  145.1408  131.9101  149.6303 H   0  0  0  0  0  0  0  0  0  0  0  0
  147.2846  131.9547  150.3946 H   0  0  0  0  0  0  0  0  0  0  0  0
  145.5758  135.0790  149.2318 H   0  0  0  0  0  0  0  0  0  0  0  0
  143.8886  137.1368  150.8539 H   0  0  0  0  0  0  0  0  0  0  0  0
  147.5769  138.9598  154.6878 H   0  0  0  0  0  0  0  0  0  0  0  0
  149.5127  139.9223  153.4266 H   0  0  0  0  0  0  0  0  0  0  0  0
  1  2  1  0  0  0  0
  1 35  1  0  0  0  0
  1 36  1  0  0  0  0
  1 37  1  0  0  0  0
  2  3  1  0  0  0  0
  2  4  1  0  0  0  0
  2 38  1  0  0  0  0
  3 39  1  0  0  0  0
  3 40  1  0  0  0  0
  3 41  1  0  0  0  0
  4  5  1  0  0  0  0
  5 30  1  0  0  0  0
  5  6  2  0  0  0  0
  6  7  1  0  0  0  0
  6 42  1  0  0  0  0
  7  8  1  0  0  0  0
  7 28  2  0  0  0  0
  8  9  1  0  0  0  0
  8 43  1  0  0  0  0
  8 44  1  0  0  0  0
  9 10  1  0  0  0  0
  9 45  1  0  0  0  0
 10 15  1  0  0  0  0
 10 11  2  0  0  0  0
 11 12  1  0  0  0  0
 12 13  2  0  0  0  0
 12 46  1  0  0  0  0
 13 14  1  0  0  0  0
 14 18  1  0  0  0  0
 14 15  2  0  0  0  0
 15 16  1  0  0  0  0
 16 17  2  0  0  0  0
 17 18  1  0  0  0  0
 17 47  1  0  0  0  0
 18 19  1  0  0  0  0
 19 31  1  0  0  0  0
 19 26  1  0  0  0  0
 19 20  1  0  0  0  0
 20 21  1  0  0  0  0
 21 32  1  0  0  0  0
 21 22  1  0  0  0  0
 21 24  1  0  0  0  0
 22 23  1  0  0  0  0
 22 48  1  0  0  0  0
 22 49  1  0  0  0  0
 23 50  1  0  0  0  0
 24 33  1  0  0  0  0
 24 25  1  0  0  0  0
 24 26  1  0  0  0  0
 25 51  1  0  0  0  0
 26 34  1  0  0  0  0
 26 27  1  0  0  0  0
 27 52  1  0  0  0  0
 28 29  1  0  0  0  0
 28 53  1  0  0  0  0
 29 30  2  0  0  0  0
 29 54  1  0  0  0  0
M  END
> <s_m_source_file>
AV-unprocessed.smi

> <i_m_source_file_index>
218

> <i_lp_mmshare_version>
43012

> <i_f3d_flags>
0

> <s_epik_input>
W0NIM11bQ0hdKFtDSDNdKU9jMVtjSF1jKFtjSF1bY0hdbjEpW0NIMl1bTkhdYyhuW2NIXW4yKWMoYzIzKW5bY0hdbjNbQ0BASF00T1tDQEhdKFtDSDJdW09IXSlbQ0BASF0oW09IXSlbQ0BIXTRbT0hd

> <s_epik_cmdline>
J2VwaWtfcHl0aG9uJywgJy1waCcsICc3LjAnLCAnLXRuJywgJzgnLCAnLW1hJywgJzIwMCcsICctbWV0YWxfYmluZGluZycsICctaW1hZScsICc8aW5maWxlLm1hZT4nLCAnLW9tYWUnLCAnPG91dGZpbGUubWFlPic=

> <r_lp_tautomer_probability>
1

> <r_epik_Ionization_Penalty>
0.00457014

> <r_epik_Ionization_Penalty_Charging>
0

> <r_epik_Ionization_Penalty_Neutral>
0.00457014

> <r_epik_State_Penalty>
-0

> <r_epik_Charging_Adjusted_Penalty>
0

> <i_epik_Tot_Q>
0

> <i_epik_Tot_abs_Q>
0

> <r_epik_Metal_State_Penalty>
-0

> <b_epik_Metal_Only>
0

> <s_epik_Chemistry_Notes>
This compound contains an acetal/aminal-like group ( X-CH(R)-Y where X, Y are N, S, or O) that may be acid/base labile, releasing an aldehyde.

> <s_lp_Force_Field>
OPLS_2005

> <r_lp_Energy>
51.9748

> <b_lp_Chiralities_Consistent>
1

> <s_lp_Variant>
AV-unprocessed.smi:218-13

> <Gold.Version>
5.8.1

> <Gold.Id.Protein>
6NUR|6NUR_protein|mol2

> <Gold.PLP.Fitness>
45.5815

> <Gold.PLP.PLP>
-30.5437

> <Gold.PLP.part.hbond>
-4.0000

> <Gold.PLP.part.metal>
0.0000

> <Gold.PLP.part.buried>
-5.6905

> <Gold.PLP.part.nonpolar>
-20.7946

> <Gold.PLP.part.repulsive>
0.3852

> <Gold.PLP.ligand.clash>
0.0000

> <Gold.PLP.ligand.torsion>
1.0121

> <Gold.PLP.Chemscore.Hbond>
3.6495

> <Gold.PLP.Chemscore.CHOScore>
2.0000

> <Gold.PLP.Chemscore.Metal>
0.0000

> <Gold.Chemscore.Hbonds>
donor molecule, donor type, donor heavy atom, donor atom, acceptor molecule, acceptor atom, score
      L1  H    23    50       P1 10747  1.00
      L1  H    25    51       P1  7921  1.00
      L1  H    27    52       P1 10171  0.94
      P1  H  7989  7998       L1    30  0.71
      L1  C    17    47       P1  7948  1.00
      L1  C    29    54       P1  7957  1.00

> <Gold.PLP.Chemscore.Internal.Correction>
0.1133

> <Gold.Rescore>
     Score         DG    S(hbond)    S(metal)    S(lipo)     H(rot)  DE(clash)    DE(int)     intcor
      9.56     -10.77       2.89        0.00      69.98       4.90       0.03       1.18       ----

> <Gold.Chemscore.Fitness>
9.5588

> <Gold.Chemscore.DG>
-10.7670

> <Gold.Chemscore.ZeroCoef>
-5.4800

> <Gold.Chemscore.Hbond>
2.8894

> <Gold.Chemscore.Metal>
0.0000

> <Gold.Chemscore.Lipo>
69.9834

> <Gold.Chemscore.Internal_Hbond>
0.0000

> <Gold.Chemscore.DEClash>
0.0272

> <Gold.Chemscore.DEInternal>
1.1810

> <Gold.Chemscore.Rot>
4.9029

> <Gold.Chemscore.Internal.Correction>
   9.000000E+99

> <Gold.Chemscore.Hbonds>
donor molecule, donor type, donor heavy atom, donor atom, acceptor molecule, acceptor atom, score
      L1  H    23    50       P1 10747  0.93
      L1  H    25    51       P1  7921  0.94
      L1  H    27    52       P1 10171  0.91
      P1  H  7989  7998       L1    30  0.12

> <Gold.Chemscore.Hbond.Weighted>
-9.6505

> <Gold.Chemscore.Metal.Weighted>
-0.0000

> <Gold.Chemscore.Lipo.Weighted>
-8.1881

> <Gold.Chemscore.Internal_Hbond.Weighted>
0.0000

> <Gold.Chemscore.DEClash.Weighted>
0.0272

> <Gold.Chemscore.DEInternal.Weighted>
1.1810

> <Gold.Chemscore.Rot.Weighted>
12.5515

> <Gold.Chemscore.Internal.Correction.Weighted>
   9.000000E+99

> <Gold.Protein.RotatedTorsions>
[ 6907 6896 6895 6894 ] final  -96.94 input  -60.11 | X-H torsion
[ 7974 7965 7964 7962 ] final -114.32 input  175.53 | X-H torsion
[ 8008 7997 7996 7995 ] final  138.56 input   59.86 | X-H torsion
[ 10167 10162 10161 10158 ] final  124.48 input  -65.29 | X-H torsion
[ 10718 10713 10712 10709 ] final -176.29 input   66.30 | X-H torsion
[ 10763 10752 10751 10750 ] final  158.18 input  -60.55 | X-H torsion
[ 11005 11000 10999 10996 ] final   -8.59 input  -57.11 | X-H torsion

> <Gold.Protein.ActiveResidues>
 VAL166  LYS551  ARG553  GLY616  TRP617  ASP618  TYR619  PRO620  LYS621  CYS622 
 ASP623  PHE694  ASN695  SER759  ASP760  ASP761  ALA762  ILE779  LEU786  VAL792 
 PHE793  MET794  SER795  GLU796  ALA797  LYS798  CYS799  TRP800  GLU811  SER814 

> <Gold.Protein.RotatedAtoms>
  150.7002  134.1426  159.4110 H   0  0  0  0  0  0  0  0  0  0  0  0  # atno 6907 bound_to 6896
  151.9410  135.0211  160.0545 H   0  0  0  0  0  0  0  0  0  0  0  0  # atno 6908 bound_to 6896
  152.2094  133.4864  159.5138 H   0  0  0  0  0  0  0  0  0  0  0  0  # atno 6909 bound_to 6896
  145.1215  140.8672  143.3811 H   0  0  0  0  0  0  0  0  0  0  0  0  # atno 7974 bound_to 7965
  156.2996  140.2390  156.4093 H   0  0  0  0  0  0  0  0  0  0  0  0  # atno 8008 bound_to 7997
  154.8456  140.0426  157.1590 H   0  0  0  0  0  0  0  0  0  0  0  0  # atno 8009 bound_to 7997
  154.9055  140.2983  155.5298 H   0  0  0  0  0  0  0  0  0  0  0  0  # atno 8010 bound_to 7997
  139.5739  144.6953  151.3704 H   0  0  0  0  0  0  0  0  0  0  0  0  # atno 10167 bound_to 10162
  156.8125  130.9591  151.3115 H   0  0  0  0  0  0  0  0  0  0  0  0  # atno 10718 bound_to 10713
  154.2121  135.2785  155.2955 H   0  0  0  0  0  0  0  0  0  0  0  0  # atno 10763 bound_to 10752
  154.5770  135.5601  153.7152 H   0  0  0  0  0  0  0  0  0  0  0  0  # atno 10764 bound_to 10752
  153.0062  135.6335  154.2260 H   0  0  0  0  0  0  0  0  0  0  0  0  # atno 10765 bound_to 10752
  140.7251  133.8796  155.8850 H   0  0  0  0  0  0  0  0  0  0  0  0  # atno 11005 bound_to 11000
  145.0734  139.3014  143.5820 LP  0  0  0  0  0  0  0  0  0  0  0  0  # atno 17320 bound_to 7965
  146.3520  140.0217  142.8658 LP  0  0  0  0  0  0  0  0  0  0  0  0  # atno 17321 bound_to 7965
  140.7023  143.7601  150.7423 LP  0  0  0  0  0  0  0  0  0  0  0  0  # atno 17342 bound_to 10162
  140.1116  143.4694  152.2367 LP  0  0  0  0  0  0  0  0  0  0  0  0  # atno 17343 bound_to 10162
  157.6498  130.8875  149.9611 LP  0  0  0  0  0  0  0  0  0  0  0  0  # atno 17370 bound_to 10713
  156.1036  130.3654  150.0174 LP  0  0  0  0  0  0  0  0  0  0  0  0  # atno 17371 bound_to 10713
  140.9970  134.1202  157.4354 LP  0  0  0  0  0  0  0  0  0  0  0  0  # atno 17394 bound_to 11000
  139.8839  135.0057  156.6332 LP  0  0  0  0  0  0  0  0  0  0  0  0  # atno 17395 bound_to 11000

$$$$
