AV-unprocessed.smi:675|AV-procd|sdf|3304|dock1
  -GOLD-   22720 0263D 1   1.00000     0.00000
 Structure written by MMmdl.
 29 30  0  0  0  0  0  0  0  0  1 V2000
  152.6077  136.6598  156.5480 O   0  0  0  0  0  0  0  0  0  0  0  0
  152.2168  137.7797  156.8714 C   0  0  0  0  0  0  0  0  0  0  0  0
  151.6908  138.6400  155.9026 N   0  0  0  0  0  0  0  0  0  0  0  0
  151.2133  139.9306  156.1341 C   0  0  0  0  0  0  0  0  0  0  0  0
  150.7794  140.5991  155.1962 O   0  0  0  0  0  0  0  0  0  0  0  0
  151.2637  140.3975  157.4679 N   0  0  0  0  0  0  0  0  0  0  0  0
  150.8025  141.7370  157.7431 C   0  0  0  0  0  0  0  0  0  0  0  0
  151.9543  142.7358  157.9914 C   0  0  1  0  0  0  0  0  0  0  0  0
  151.6053  143.9897  157.4359 O   0  0  0  0  0  0  0  0  0  0  0  0
  152.2682  142.8406  159.4835 C   0  0  0  0  0  0  0  0  0  0  0  0
  152.9518  141.7899  160.1399 C   0  0  0  0  0  0  0  0  0  0  0  0
  153.2553  141.8770  161.5116 C   0  0  0  0  0  0  0  0  0  0  0  0
  152.8843  143.0195  162.2428 C   0  0  0  0  0  0  0  0  0  0  0  0
  152.2159  144.0765  161.5984 C   0  0  0  0  0  0  0  0  0  0  0  0
  151.9100  143.9955  160.2249 C   0  0  0  0  0  0  0  0  0  0  0  0
  151.1099  145.3368  159.4812 Cl  0  0  0  0  0  0  0  0  0  0  0  0
  151.7848  139.5810  158.4599 C   0  0  0  0  0  0  0  0  0  0  0  0
  152.2487  138.3299  158.2258 C   0  0  0  0  0  0  0  0  0  0  0  0
  152.8846  137.3748  159.5170 Cl  0  0  0  0  0  0  0  0  0  0  0  0
  151.6552  138.2989  154.9531 H   0  0  0  0  0  0  0  0  0  0  0  0
  150.1015  142.0529  156.9671 H   0  0  0  0  0  0  0  0  0  0  0  0
  150.2004  141.6267  158.6471 H   0  0  0  0  0  0  0  0  0  0  0  0
  152.8504  142.4098  157.4639 H   0  0  0  0  0  0  0  0  0  0  0  0
  152.3717  144.3597  157.0253 H   0  0  0  0  0  0  0  0  0  0  0  0
  153.2544  140.9078  159.5948 H   0  0  0  0  0  0  0  0  0  0  0  0
  153.7756  141.0673  162.0018 H   0  0  0  0  0  0  0  0  0  0  0  0
  153.1174  143.0881  163.2952 H   0  0  0  0  0  0  0  0  0  0  0  0
  151.9407  144.9565  162.1611 H   0  0  0  0  0  0  0  0  0  0  0  0
  151.8278  139.9596  159.4715 H   0  0  0  0  0  0  0  0  0  0  0  0
  1  2  2  0  0  0  0
  2 18  1  0  0  0  0
  2  3  1  0  0  0  0
  3 20  1  0  0  0  0
  3  4  1  0  0  0  0
  4  5  2  0  0  0  0
  4  6  1  0  0  0  0
  6  7  1  0  0  0  0
  6 17  1  0  0  0  0
  7  8  1  0  0  0  0
  7 21  1  0  0  0  0
  7 22  1  0  0  0  0
  8  9  1  0  0  0  0
  8 10  1  0  0  0  0
  8 23  1  0  0  0  0
  9 24  1  0  0  0  0
 10 15  1  0  0  0  0
 10 11  2  0  0  0  0
 11 12  1  0  0  0  0
 11 25  1  0  0  0  0
 12 13  2  0  0  0  0
 12 26  1  0  0  0  0
 13 14  1  0  0  0  0
 13 27  1  0  0  0  0
 14 15  2  0  0  0  0
 14 28  1  0  0  0  0
 15 16  1  0  0  0  0
 17 18  2  0  0  0  0
 17 29  1  0  0  0  0
 18 19  1  0  0  0  0
M  END
> <s_m_source_file>
AV-unprocessed.smi

> <i_m_source_file_index>
675

> <i_lp_mmshare_version>
43012

> <i_f3d_flags>
0

> <s_epik_input>
Tz1jMVtuSF1jKD1PKW4oW2NIXWMxQ2wpW0NIMl1bQ0BIXShbT0hdKWMyW2NIXVtjSF1bY0hdW2NIXWMyQ2w=

> <s_epik_cmdline>
J2VwaWtfcHl0aG9uJywgJy1waCcsICc3LjAnLCAnLXRuJywgJzgnLCAnLW1hJywgJzIwMCcsICctbWV0YWxfYmluZGluZycsICctaW1hZScsICc8aW5maWxlLm1hZT4nLCAnLW9tYWUnLCAnPG91dGZpbGUubWFlPic=

> <r_lp_tautomer_probability>
0.999537

> <r_epik_Ionization_Penalty>
0.029206

> <r_epik_Ionization_Penalty_Charging>
0.0292057

> <r_epik_Ionization_Penalty_Neutral>
2.68278e-07

> <r_epik_State_Penalty>
0.0240115

> <r_epik_Charging_Adjusted_Penalty>
0.0532172

> <i_epik_Tot_Q>
0

> <i_epik_Tot_abs_Q>
0

> <r_epik_Metal_State_Penalty>
2.21956

> <b_epik_Metal_Only>
0

> <s_lp_Force_Field>
OPLS_2005

> <r_lp_Energy>
14.2263

> <b_lp_Chiralities_Consistent>
1

> <s_lp_Variant>
AV-unprocessed.smi:675-2

> <Gold.Version>
5.8.1

> <Gold.Id.Protein>
6NUR|6NUR_protein|mol2

> <Gold.PLP.Fitness>
47.3275

> <Gold.PLP.PLP>
-43.7444

> <Gold.PLP.part.hbond>
-2.1565

> <Gold.PLP.part.metal>
0.0000

> <Gold.PLP.part.buried>
-7.1465

> <Gold.PLP.part.nonpolar>
-34.0236

> <Gold.PLP.part.repulsive>
0.1954

> <Gold.PLP.ligand.clash>
0.0540

> <Gold.PLP.ligand.torsion>
0.9876

> <Gold.PLP.Chemscore.Hbond>
1.8560

> <Gold.PLP.Chemscore.CHOScore>
0.0000

> <Gold.PLP.Chemscore.Metal>
0.0000

> <Gold.Chemscore.Hbonds>
donor molecule, donor type, donor heavy atom, donor atom, acceptor molecule, acceptor atom, score
      P1  H  7989  7998       L1     5  0.94
      P1  H 10752 10764       L1     1  0.86

> <Gold.PLP.Chemscore.Internal.Correction>
0.0444

> <Gold.Rescore>
     Score         DG    S(hbond)    S(metal)    S(lipo)     H(rot)  DE(clash)    DE(int)     intcor
     15.79     -18.72       1.87        0.00     107.57       2.18       0.01       2.92       ----

> <Gold.Chemscore.Fitness>
15.7899

> <Gold.Chemscore.DG>
-18.7226

> <Gold.Chemscore.ZeroCoef>
-5.4800

> <Gold.Chemscore.Hbond>
1.8656

> <Gold.Chemscore.Metal>
0.0000

> <Gold.Chemscore.Lipo>
107.5738

> <Gold.Chemscore.Internal_Hbond>
0.0000

> <Gold.Chemscore.DEClash>
0.0109

> <Gold.Chemscore.DEInternal>
2.9218

> <Gold.Chemscore.Rot>
2.1775

> <Gold.Chemscore.Internal.Correction>
   9.000000E+99

> <Gold.Chemscore.Hbonds>
donor molecule, donor type, donor heavy atom, donor atom, acceptor molecule, acceptor atom, score
      P1  H  7989  7998       L1     5  0.91
      P1  H 10752 10764       L1     1  0.82

> <Gold.Chemscore.Hbond.Weighted>
-6.2310

> <Gold.Chemscore.Metal.Weighted>
-0.0000

> <Gold.Chemscore.Lipo.Weighted>
-12.5861

> <Gold.Chemscore.Internal_Hbond.Weighted>
0.0000

> <Gold.Chemscore.DEClash.Weighted>
0.0109

> <Gold.Chemscore.DEInternal.Weighted>
2.9218

> <Gold.Chemscore.Rot.Weighted>
5.5745

> <Gold.Chemscore.Internal.Correction.Weighted>
   9.000000E+99

> <Gold.Protein.RotatedTorsions>
[ 6907 6896 6895 6894 ] final  165.85 input  -60.11 | X-H torsion
[ 7974 7965 7964 7962 ] final  111.32 input  175.53 | X-H torsion
[ 8008 7997 7996 7995 ] final   67.79 input   59.86 | X-H torsion
[ 10167 10162 10161 10158 ] final  -54.41 input  -65.29 | X-H torsion
[ 10718 10713 10712 10709 ] final   83.51 input   66.30 | X-H torsion
[ 10763 10752 10751 10750 ] final    3.40 input  -60.55 | X-H torsion
[ 11005 11000 10999 10996 ] final   55.54 input  -57.11 | X-H torsion

> <Gold.Protein.ActiveResidues>
 VAL166  LYS551  ARG553  GLY616  TRP617  ASP618  TYR619  PRO620  LYS621  CYS622 
 ASP623  PHE694  ASN695  SER759  ASP760  ASP761  ALA762  ILE779  LEU786  VAL792 
 PHE793  MET794  SER795  GLU796  ALA797  LYS798  CYS799  TRP800  GLU811  SER814 

> <Gold.Protein.RotatedAtoms>
  151.8880  133.3509  159.3788 H   0  0  0  0  0  0  0  0  0  0  0  0  # atno 6907 bound_to 6896
  150.7110  134.4953  159.5544 H   0  0  0  0  0  0  0  0  0  0  0  0  # atno 6908 bound_to 6896
  152.2517  134.8126  160.0496 H   0  0  0  0  0  0  0  0  0  0  0  0  # atno 6909 bound_to 6896
  145.2438  139.2768  143.4104 H   0  0  0  0  0  0  0  0  0  0  0  0  # atno 7974 bound_to 7965
  155.6983  140.3495  155.4922 H   0  0  0  0  0  0  0  0  0  0  0  0  # atno 8008 bound_to 7997
  155.9463  140.1111  157.1036 H   0  0  0  0  0  0  0  0  0  0  0  0  # atno 8009 bound_to 7997
  154.4113  140.1203  156.4980 H   0  0  0  0  0  0  0  0  0  0  0  0  # atno 8010 bound_to 7997
  140.6432  143.2520  151.4932 H   0  0  0  0  0  0  0  0  0  0  0  0  # atno 10167 bound_to 10162
  157.6880  131.0094  150.2534 H   0  0  0  0  0  0  0  0  0  0  0  0  # atno 10718 bound_to 10713
  153.2837  135.6943  153.7360 H   0  0  0  0  0  0  0  0  0  0  0  0  # atno 10763 bound_to 10752
  153.6337  135.3405  155.3051 H   0  0  0  0  0  0  0  0  0  0  0  0  # atno 10764 bound_to 10752
  154.8503  135.4415  154.1899 H   0  0  0  0  0  0  0  0  0  0  0  0  # atno 10765 bound_to 10752
  140.0599  134.5617  155.9164 H   0  0  0  0  0  0  0  0  0  0  0  0  # atno 11005 bound_to 11000
  146.3321  140.2809  142.8610 LP  0  0  0  0  0  0  0  0  0  0  0  0  # atno 17320 bound_to 7965
  144.9565  140.8232  143.5540 LP  0  0  0  0  0  0  0  0  0  0  0  0  # atno 17321 bound_to 7965
  139.5642  144.2084  152.1738 LP  0  0  0  0  0  0  0  0  0  0  0  0  # atno 17342 bound_to 10162
  140.1360  144.5245  150.6773 LP  0  0  0  0  0  0  0  0  0  0  0  0  # atno 17343 bound_to 10162
  156.3126  130.3774  149.7647 LP  0  0  0  0  0  0  0  0  0  0  0  0  # atno 17370 bound_to 10713
  156.5243  130.8229  151.3214 LP  0  0  0  0  0  0  0  0  0  0  0  0  # atno 17371 bound_to 10713
  141.1968  133.6593  156.5711 LP  0  0  0  0  0  0  0  0  0  0  0  0  # atno 17394 bound_to 11000
  140.3787  134.7543  157.4646 LP  0  0  0  0  0  0  0  0  0  0  0  0  # atno 17395 bound_to 11000

$$$$
