AV-unprocessed.smi:3311|AV-procd|sdf|12721|dock4
  -GOLD-   2272019 63D 1   1.00000     0.00000
 Structure written by MMmdl.
 44 45  0  0  0  0  0  0  0  0  2 V2000
  145.7254  136.9733  150.1685 C   0  0  0  0  0  0  0  0  0  0  0  0
  145.3002  137.0486  151.6462 C   0  0  2  0  0  0  0  0  0  0  0  0
  146.4660  137.4695  152.4544 N   0  3  0  0  0  0  0  0  0  0  0  0
  146.7724  138.9161  152.4026 C   0  0  0  0  0  0  0  0  0  0  0  0
  147.6954  139.3624  153.5624 C   0  0  0  0  0  0  0  0  0  0  0  0
  148.9145  138.6595  153.4095 O   0  0  0  0  0  0  0  0  0  0  0  0
  148.0044  140.8798  153.5604 C   0  0  0  0  0  0  0  0  0  0  0  0
  146.7789  141.7271  153.9456 C   0  0  0  0  0  0  0  0  0  0  0  0
  146.2164  141.3002  155.3104 C   0  0  0  0  0  0  0  0  0  0  0  0
  145.8932  139.7982  155.3396 C   0  0  0  0  0  0  0  0  0  0  0  0
  147.1158  138.9532  154.9371 C   0  0  0  0  0  0  0  0  0  0  0  0
  144.7201  135.7103  152.1795 C   0  0  1  0  0  0  0  0  0  0  0  0
  143.1846  135.7263  152.3051 C   0  0  0  0  0  0  0  0  0  0  0  0
  145.1392  134.5725  151.3704 N   0  0  0  0  0  0  0  0  0  0  0  0
  144.3643  133.7661  150.5619 C   0  0  0  0  0  0  0  0  0  0  0  0
  145.1910  132.8361  149.9996 C   0  0  0  0  0  0  0  0  0  0  0  0
  146.4724  133.1595  150.5267 C   0  0  0  0  0  0  0  0  0  0  0  0
  146.4389  134.1992  151.3440 N   0  0  0  0  0  0  0  0  0  0  0  0
  144.8797  136.7671  149.5120 H   0  0  0  0  0  0  0  0  0  0  0  0
  146.4688  136.1917  150.0092 H   0  0  0  0  0  0  0  0  0  0  0  0
  146.1606  137.9174  149.8391 H   0  0  0  0  0  0  0  0  0  0  0  0
  144.5260  137.8150  151.7154 H   0  0  0  0  0  0  0  0  0  0  0  0
  146.3023  137.2118  153.4176 H   0  0  0  0  0  0  0  0  0  0  0  0
  147.2304  139.1345  151.4379 H   0  0  0  0  0  0  0  0  0  0  0  0
  145.8385  139.4791  152.4355 H   0  0  0  0  0  0  0  0  0  0  0  0
  148.7404  137.8504  152.9519 H   0  0  0  0  0  0  0  0  0  0  0  0
  148.8018  141.0867  154.2763 H   0  0  0  0  0  0  0  0  0  0  0  0
  148.3882  141.2015  152.5919 H   0  0  0  0  0  0  0  0  0  0  0  0
  147.0548  142.7816  153.9756 H   0  0  0  0  0  0  0  0  0  0  0  0
  146.0056  141.6373  153.1824 H   0  0  0  0  0  0  0  0  0  0  0  0
  146.9427  141.5304  156.0911 H   0  0  0  0  0  0  0  0  0  0  0  0
  145.3215  141.8785  155.5419 H   0  0  0  0  0  0  0  0  0  0  0  0
  145.5627  139.5130  156.3389 H   0  0  0  0  0  0  0  0  0  0  0  0
  145.0555  139.5892  154.6740 H   0  0  0  0  0  0  0  0  0  0  0  0
  146.8515  137.8948  154.9400 H   0  0  0  0  0  0  0  0  0  0  0  0
  147.8816  139.0729  155.7055 H   0  0  0  0  0  0  0  0  0  0  0  0
  145.1262  135.5458  153.1789 H   0  0  0  0  0  0  0  0  0  0  0  0
  142.8491  136.4721  153.0257 H   0  0  0  0  0  0  0  0  0  0  0  0
  142.8111  134.7606  152.6470 H   0  0  0  0  0  0  0  0  0  0  0  0
  142.7065  135.9470  151.3501 H   0  0  0  0  0  0  0  0  0  0  0  0
  143.3004  133.9180  150.4549 H   0  0  0  0  0  0  0  0  0  0  0  0
  144.9221  132.0458  149.3146 H   0  0  0  0  0  0  0  0  0  0  0  0
  147.4189  132.6735  150.3408 H   0  0  0  0  0  0  0  0  0  0  0  0
  147.2785  136.9687  152.1244 H   0  0  0  0  0  0  0  0  0  0  0  0
  1  2  1  0  0  0  0
  1 19  1  0  0  0  0
  1 20  1  0  0  0  0
  1 21  1  0  0  0  0
  2  3  1  0  0  0  0
  2 12  1  0  0  0  0
  2 22  1  0  0  0  0
  3  4  1  0  0  0  0
  3 23  1  0  0  0  0
  3 44  1  0  0  0  0
  4  5  1  0  0  0  0
  4 24  1  0  0  0  0
  4 25  1  0  0  0  0
  5 11  1  0  0  0  0
  5  6  1  0  0  0  0
  5  7  1  0  0  0  0
  6 26  1  0  0  0  0
  7  8  1  0  0  0  0
  7 27  1  0  0  0  0
  7 28  1  0  0  0  0
  8  9  1  0  0  0  0
  8 29  1  0  0  0  0
  8 30  1  0  0  0  0
  9 10  1  0  0  0  0
  9 31  1  0  0  0  0
  9 32  1  0  0  0  0
 10 11  1  0  0  0  0
 10 33  1  0  0  0  0
 10 34  1  0  0  0  0
 11 35  1  0  0  0  0
 11 36  1  0  0  0  0
 12 13  1  0  0  0  0
 12 14  1  0  0  0  0
 12 37  1  0  0  0  0
 13 38  1  0  0  0  0
 13 39  1  0  0  0  0
 13 40  1  0  0  0  0
 14 18  1  0  0  0  0
 14 15  1  0  0  0  0
 15 16  2  0  0  0  0
 15 41  1  0  0  0  0
 16 17  1  0  0  0  0
 16 42  1  0  0  0  0
 17 18  2  0  0  0  0
 17 43  1  0  0  0  0
M  CHG  1   3   1
M  END
> <s_m_source_file>
AV-unprocessed.smi

> <i_m_source_file_index>
3311

> <i_lp_mmshare_version>
43012

> <i_f3d_flags>
0

> <s_epik_input>
bjFbY0hdW2NIXVtjSF1uMVtDQEBIXShbQ0gzXSlbQ0BIXShbQ0gzXSlbTkhdW0NIMl1DMihbT0hdKVtDSDJdW0NIMl1bQ0gyXVtDSDJdW0NIMl0y

> <s_epik_cmdline>
J2VwaWtfcHl0aG9uJywgJy1waCcsICc3LjAnLCAnLXRuJywgJzgnLCAnLW1hJywgJzIwMCcsICctbWV0YWxfYmluZGluZycsICctaW1hZScsICc8aW5maWxlLm1hZT4nLCAnLW9tYWUnLCAnPG91dGZpbGUubWFlPic=

> <r_lp_tautomer_probability>
1

> <r_epik_Ionization_Penalty>
0.0141403

> <r_epik_Ionization_Penalty_Charging>
0.0141276

> <r_epik_Ionization_Penalty_Neutral>
1.27139e-05

> <r_epik_State_Penalty>
0.0110334

> <r_epik_Charging_Adjusted_Penalty>
0.025161

> <i_epik_Tot_Q>
1

> <i_epik_Tot_abs_Q>
1

> <r_epik_Metal_State_Penalty>
0.0110573

> <b_epik_Metal_Only>
0

> <s_lp_Force_Field>
OPLS_2005

> <r_lp_Energy>
22.4961

> <b_lp_Chiralities_Consistent>
1

> <s_lp_Variant>
AV-unprocessed.smi:3311-3

> <Gold.Version>
5.8.1

> <Gold.Id.Protein>
6NUR|6NUR_protein|mol2

> <Gold.PLP.Fitness>
41.2266

> <Gold.PLP.PLP>
-29.5882

> <Gold.PLP.part.hbond>
-3.0000

> <Gold.PLP.part.metal>
0.0000

> <Gold.PLP.part.buried>
3.9466

> <Gold.PLP.part.nonpolar>
-30.8209

> <Gold.PLP.part.repulsive>
0.2379

> <Gold.PLP.ligand.clash>
0.0000

> <Gold.PLP.ligand.torsion>
1.6860

> <Gold.PLP.Chemscore.Hbond>
3.0000

> <Gold.PLP.Chemscore.CHOScore>
1.9564

> <Gold.PLP.Chemscore.Metal>
0.0000

> <Gold.Chemscore.Hbonds>
donor molecule, donor type, donor heavy atom, donor atom, acceptor molecule, acceptor atom, score
      L1  H     3    44       P1  7948  2.00
      L1  H     6    26       P1  7948  1.00
      L1  C    15    41       P1 10186  1.00
      L1  C    17    43       P1 10747  1.00

> <Gold.PLP.Chemscore.Internal.Correction>
0.1412

> <Gold.Rescore>
     Score         DG    S(hbond)    S(metal)    S(lipo)     H(rot)  DE(clash)    DE(int)     intcor
     13.12     -16.58       2.00        0.00      84.71       2.14       1.81       1.66       ----

> <Gold.Chemscore.Fitness>
13.1176

> <Gold.Chemscore.DG>
-16.5810

> <Gold.Chemscore.ZeroCoef>
-5.4800

> <Gold.Chemscore.Hbond>
1.9983

> <Gold.Chemscore.Metal>
0.0000

> <Gold.Chemscore.Lipo>
84.7123

> <Gold.Chemscore.Internal_Hbond>
0.0000

> <Gold.Chemscore.DEClash>
1.8075

> <Gold.Chemscore.DEInternal>
1.6559

> <Gold.Chemscore.Rot>
2.1424

> <Gold.Chemscore.Internal.Correction>
   9.000000E+99

> <Gold.Chemscore.Hbonds>
donor molecule, donor type, donor heavy atom, donor atom, acceptor molecule, acceptor atom, score
      L1  H     3    44       P1  7948  1.00
      L1  H     6    26       P1  7948  0.99

> <Gold.Chemscore.Hbond.Weighted>
-6.6743

> <Gold.Chemscore.Metal.Weighted>
-0.0000

> <Gold.Chemscore.Lipo.Weighted>
-9.9113

> <Gold.Chemscore.Internal_Hbond.Weighted>
0.0000

> <Gold.Chemscore.DEClash.Weighted>
1.8075

> <Gold.Chemscore.DEInternal.Weighted>
1.6559

> <Gold.Chemscore.Rot.Weighted>
5.4846

> <Gold.Chemscore.Internal.Correction.Weighted>
   9.000000E+99

> <Gold.Protein.RotatedTorsions>
[ 6907 6896 6895 6894 ] final   -2.75 input  -60.11 | X-H torsion
[ 7974 7965 7964 7962 ] final   29.96 input  175.53 | X-H torsion
[ 8008 7997 7996 7995 ] final -108.50 input   59.86 | X-H torsion
[ 10167 10162 10161 10158 ] final  -73.83 input  -65.29 | X-H torsion
[ 10718 10713 10712 10709 ] final  -51.85 input   66.30 | X-H torsion
[ 10763 10752 10751 10750 ] final   -4.45 input  -60.55 | X-H torsion
[ 11005 11000 10999 10996 ] final -165.65 input  -57.11 | X-H torsion

> <Gold.Protein.ActiveResidues>
 VAL166  LYS551  ARG553  GLY616  TRP617  ASP618  TYR619  PRO620  LYS621  CYS622 
 ASP623  PHE694  ASN695  SER759  ASP760  ASP761  ALA762  ILE779  LEU786  VAL792 
 PHE793  MET794  SER795  GLU796  ALA797  LYS798  CYS799  TRP800  GLU811  SER814 

> <Gold.Protein.RotatedAtoms>
  151.5248  135.1067  159.9887 H   0  0  0  0  0  0  0  0  0  0  0  0  # atno 6907 bound_to 6896
  152.4604  133.7807  159.6859 H   0  0  0  0  0  0  0  0  0  0  0  0  # atno 6908 bound_to 6896
  150.8564  133.7644  159.3032 H   0  0  0  0  0  0  0  0  0  0  0  0  # atno 6909 bound_to 6896
  146.1640  139.6852  142.9014 H   0  0  0  0  0  0  0  0  0  0  0  0  # atno 7974 bound_to 7965
  154.9452  140.0402  157.2116 H   0  0  0  0  0  0  0  0  0  0  0  0  # atno 8008 bound_to 7997
  154.8031  140.2855  155.5885 H   0  0  0  0  0  0  0  0  0  0  0  0  # atno 8009 bound_to 7997
  156.2963  140.2551  156.2904 H   0  0  0  0  0  0  0  0  0  0  0  0  # atno 8010 bound_to 7997
  140.5077  143.2350  151.7646 H   0  0  0  0  0  0  0  0  0  0  0  0  # atno 10167 bound_to 10162
  156.1674  130.4149  149.9700 H   0  0  0  0  0  0  0  0  0  0  0  0  # atno 10718 bound_to 10713
  153.3850  135.7000  153.6537 H   0  0  0  0  0  0  0  0  0  0  0  0  # atno 10763 bound_to 10752
  153.5132  135.3627  155.2597 H   0  0  0  0  0  0  0  0  0  0  0  0  # atno 10764 bound_to 10752
  154.8696  135.4140  154.3156 H   0  0  0  0  0  0  0  0  0  0  0  0  # atno 10765 bound_to 10752
  140.5733  134.5216  157.5166 H   0  0  0  0  0  0  0  0  0  0  0  0  # atno 11005 bound_to 11000
  145.4514  141.0428  143.2802 LP  0  0  0  0  0  0  0  0  0  0  0  0  # atno 17320 bound_to 7965
  144.8067  139.6039  143.7048 LP  0  0  0  0  0  0  0  0  0  0  0  0  # atno 17321 bound_to 7965
  139.4888  144.4434  151.9738 LP  0  0  0  0  0  0  0  0  0  0  0  0  # atno 17342 bound_to 10162
  140.3525  144.3072  150.5947 LP  0  0  0  0  0  0  0  0  0  0  0  0  # atno 17343 bound_to 10162
  156.7511  130.9115  151.3637 LP  0  0  0  0  0  0  0  0  0  0  0  0  # atno 17370 bound_to 10713
  157.6777  130.9110  150.0191 LP  0  0  0  0  0  0  0  0  0  0  0  0  # atno 17371 bound_to 10713
  139.9351  134.7890  156.0824 LP  0  0  0  0  0  0  0  0  0  0  0  0  # atno 17394 bound_to 11000
  141.1042  133.6666  156.2826 LP  0  0  0  0  0  0  0  0  0  0  0  0  # atno 17395 bound_to 11000

$$$$
