AV-unprocessed.smi:1197|AV-procd|sdf|5008|dock6
  -GOLD-   22720 4 23D 1   1.00000     0.00000
 Structure written by MMmdl.
 40 41  0  0  0  0  0  0  0  0  1 V2000
  150.9979  141.5413  158.0424 C   0  0  0  0  0  0  0  0  0  0  0  0
  151.2994  141.3234  156.6685 O   0  0  0  0  0  0  0  0  0  0  0  0
  150.4484  140.5275  155.9294 C   0  0  0  0  0  0  0  0  0  0  0  0
  149.1702  140.2433  156.4491 C   0  0  0  0  0  0  0  0  0  0  0  0
  148.2957  139.4297  155.7032 C   0  0  0  0  0  0  0  0  0  0  0  0
  148.7268  138.9289  154.4507 C   0  0  0  0  0  0  0  0  0  0  0  0
  147.9550  138.0867  153.6032 N   0  0  0  0  0  0  0  0  0  0  0  0
  146.6305  137.8562  153.6109 C   0  0  0  0  0  0  0  0  0  0  0  0
  145.8153  138.3858  154.3650 O   0  0  0  0  0  0  0  0  0  0  0  0
  146.2904  136.9691  152.6650 N   0  0  0  0  0  0  0  0  0  0  0  0
  144.9348  136.4969  152.4095 C   0  0  0  0  0  0  0  0  0  0  0  0
  144.8788  135.5884  151.1665 C   0  0  0  0  0  0  0  0  0  0  0  0
  144.9805  134.1573  151.4459 N   0  0  0  0  0  0  0  0  0  0  0  0
  146.3520  133.7321  151.7181 C   0  0  0  0  0  0  0  0  0  0  0  0
  146.4416  132.2191  151.9832 C   0  0  0  0  0  0  0  0  0  0  0  0
  145.8975  131.5051  150.8782 O   0  0  0  0  0  0  0  0  0  0  0  0
  144.5445  131.8580  150.6104 C   0  0  0  0  0  0  0  0  0  0  0  0
  144.4519  133.3693  150.3374 C   0  0  0  0  0  0  0  0  0  0  0  0
  150.0279  139.2678  154.0245 C   0  0  0  0  0  0  0  0  0  0  0  0
  150.8716  140.0455  154.7349 N   0  0  0  0  0  0  0  0  0  0  0  0
  151.7639  142.1797  158.4827 H   0  0  0  0  0  0  0  0  0  0  0  0
  150.9861  140.6052  158.6027 H   0  0  0  0  0  0  0  0  0  0  0  0
  150.0376  142.0444  158.1646 H   0  0  0  0  0  0  0  0  0  0  0  0
  148.8662  140.6385  157.4071 H   0  0  0  0  0  0  0  0  0  0  0  0
  147.3260  139.2041  156.1167 H   0  0  0  0  0  0  0  0  0  0  0  0
  148.4781  137.6138  152.8811 H   0  0  0  0  0  0  0  0  0  0  0  0
  147.0221  136.5854  152.0852 H   0  0  0  0  0  0  0  0  0  0  0  0
  144.6085  135.9575  153.2979 H   0  0  0  0  0  0  0  0  0  0  0  0
  144.2596  137.3467  152.2933 H   0  0  0  0  0  0  0  0  0  0  0  0
  143.9316  135.7743  150.6584 H   0  0  0  0  0  0  0  0  0  0  0  0
  145.6581  135.8829  150.4619 H   0  0  0  0  0  0  0  0  0  0  0  0
  146.9938  133.9890  150.8740 H   0  0  0  0  0  0  0  0  0  0  0  0
  146.7484  134.2593  152.5852 H   0  0  0  0  0  0  0  0  0  0  0  0
  147.4803  131.9202  152.1246 H   0  0  0  0  0  0  0  0  0  0  0  0
  145.9043  131.9552  152.8956 H   0  0  0  0  0  0  0  0  0  0  0  0
  144.1930  131.2940  149.7464 H   0  0  0  0  0  0  0  0  0  0  0  0
  143.9134  131.5782  151.4555 H   0  0  0  0  0  0  0  0  0  0  0  0
  143.4106  133.6379  150.1555 H   0  0  0  0  0  0  0  0  0  0  0  0
  144.9986  133.6041  149.4226 H   0  0  0  0  0  0  0  0  0  0  0  0
  150.4072  138.9037  153.0808 H   0  0  0  0  0  0  0  0  0  0  0  0
  1  2  1  0  0  0  0
  1 21  1  0  0  0  0
  1 22  1  0  0  0  0
  1 23  1  0  0  0  0
  2  3  1  0  0  0  0
  3 20  1  0  0  0  0
  3  4  2  0  0  0  0
  4  5  1  0  0  0  0
  4 24  1  0  0  0  0
  5  6  2  0  0  0  0
  5 25  1  0  0  0  0
  6  7  1  0  0  0  0
  6 19  1  0  0  0  0
  7  8  1  0  0  0  0
  7 26  1  0  0  0  0
  8  9  2  0  0  0  0
  8 10  1  0  0  0  0
 10 11  1  0  0  0  0
 10 27  1  0  0  0  0
 11 12  1  0  0  0  0
 11 28  1  0  0  0  0
 11 29  1  0  0  0  0
 12 13  1  0  0  0  0
 12 30  1  0  0  0  0
 12 31  1  0  0  0  0
 13 18  1  0  0  0  0
 13 14  1  0  0  0  0
 14 15  1  0  0  0  0
 14 32  1  0  0  0  0
 14 33  1  0  0  0  0
 15 16  1  0  0  0  0
 15 34  1  0  0  0  0
 15 35  1  0  0  0  0
 16 17  1  0  0  0  0
 17 18  1  0  0  0  0
 17 36  1  0  0  0  0
 17 37  1  0  0  0  0
 18 38  1  0  0  0  0
 18 39  1  0  0  0  0
 19 20  2  0  0  0  0
 19 40  1  0  0  0  0
M  END
> <s_m_source_file>
AV-unprocessed.smi

> <i_m_source_file_index>
1197

> <i_lp_mmshare_version>
43012

> <i_f3d_flags>
0

> <s_epik_input>
W0NIM11PYzFbY0hdW2NIXWMoW2NIXW4xKVtOSF1DKD1PKVtOSF1bQ0gyXVtDSDJdTjJbQ0gyXVtDSDJdT1tDSDJdW0NIMl0y

> <s_epik_cmdline>
J2VwaWtfcHl0aG9uJywgJy1waCcsICc3LjAnLCAnLXRuJywgJzgnLCAnLW1hJywgJzIwMCcsICctbWV0YWxfYmluZGluZycsICctaW1hZScsICc8aW5maWxlLm1hZT4nLCAnLW9tYWUnLCAnPG91dGZpbGUubWFlPic=

> <r_lp_tautomer_probability>
1

> <r_epik_Ionization_Penalty>
0.266083

> <r_epik_Ionization_Penalty_Charging>
0

> <r_epik_Ionization_Penalty_Neutral>
0.266083

> <r_epik_State_Penalty>
0.257924

> <r_epik_Charging_Adjusted_Penalty>
0.257924

> <i_epik_Tot_Q>
0

> <i_epik_Tot_abs_Q>
0

> <r_epik_Metal_State_Penalty>
0.257922

> <b_epik_Metal_Only>
0

> <s_lp_Force_Field>
OPLS_2005

> <r_lp_Energy>
24.2104

> <b_lp_Chiralities_Consistent>
1

> <s_lp_Variant>
AV-unprocessed.smi:1197-1

> <Gold.Version>
5.8.1

> <Gold.Id.Protein>
6NUR|6NUR_protein|mol2

> <Gold.PLP.Fitness>
38.2307

> <Gold.PLP.PLP>
-28.6050

> <Gold.PLP.part.hbond>
-3.0000

> <Gold.PLP.part.metal>
0.0000

> <Gold.PLP.part.buried>
-5.0288

> <Gold.PLP.part.nonpolar>
-21.4486

> <Gold.PLP.part.repulsive>
0.5185

> <Gold.PLP.ligand.clash>
0.0000

> <Gold.PLP.ligand.torsion>
0.6862

> <Gold.PLP.Chemscore.Hbond>
2.9600

> <Gold.PLP.Chemscore.CHOScore>
0.6844

> <Gold.PLP.Chemscore.Metal>
0.0000

> <Gold.Chemscore.Hbonds>
donor molecule, donor type, donor heavy atom, donor atom, acceptor molecule, acceptor atom, score
      L1  H     7    26       P1  7948  1.00
      L1  H    10    27       P1  7948  0.98
      P1  H  7989  7998       L1    20  1.00
      L1  C    19    40       P1  7957  0.73

> <Gold.PLP.Chemscore.Internal.Correction>
0.0650

> <Gold.Rescore>
     Score         DG    S(hbond)    S(metal)    S(lipo)     H(rot)  DE(clash)    DE(int)     intcor
     14.27     -16.24       2.37        0.00      62.85       1.76       0.32       1.65       ----

> <Gold.Chemscore.Fitness>
14.2735

> <Gold.Chemscore.DG>
-16.2410

> <Gold.Chemscore.ZeroCoef>
-5.4800

> <Gold.Chemscore.Hbond>
2.3713

> <Gold.Chemscore.Metal>
0.0000

> <Gold.Chemscore.Lipo>
62.8470

> <Gold.Chemscore.Internal_Hbond>
0.0000

> <Gold.Chemscore.DEClash>
0.3167

> <Gold.Chemscore.DEInternal>
1.6508

> <Gold.Chemscore.Rot>
1.7626

> <Gold.Chemscore.Internal.Correction>
   9.000000E+99

> <Gold.Chemscore.Hbonds>
donor molecule, donor type, donor heavy atom, donor atom, acceptor molecule, acceptor atom, score
      L1  H     7    26       P1  7948  0.99
      L1  H    10    27       P1  7948  0.92
      P1  H  7989  7998       L1    20  0.26

> <Gold.Chemscore.Hbond.Weighted>
-7.9203

> <Gold.Chemscore.Metal.Weighted>
-0.0000

> <Gold.Chemscore.Lipo.Weighted>
-7.3531

> <Gold.Chemscore.Internal_Hbond.Weighted>
0.0000

> <Gold.Chemscore.DEClash.Weighted>
0.3167

> <Gold.Chemscore.DEInternal.Weighted>
1.6508

> <Gold.Chemscore.Rot.Weighted>
4.5123

> <Gold.Chemscore.Internal.Correction.Weighted>
   9.000000E+99

> <Gold.Protein.RotatedTorsions>
[ 6907 6896 6895 6894 ] final  -51.96 input  -60.11 | X-H torsion
[ 7974 7965 7964 7962 ] final    8.60 input  175.53 | X-H torsion
[ 8008 7997 7996 7995 ] final   -2.72 input   59.86 | X-H torsion
[ 10167 10162 10161 10158 ] final -110.32 input  -65.29 | X-H torsion
[ 10718 10713 10712 10709 ] final  -58.98 input   66.30 | X-H torsion
[ 10763 10752 10751 10750 ] final   71.92 input  -60.55 | X-H torsion
[ 11005 11000 10999 10996 ] final  168.68 input  -57.11 | X-H torsion

> <Gold.Protein.ActiveResidues>
 VAL166  LYS551  ARG553  GLY616  TRP617  ASP618  TYR619  PRO620  LYS621  CYS622 
 ASP623  PHE694  ASN695  SER759  ASP760  ASP761  ALA762  ILE779  LEU786  VAL792 
 PHE793  MET794  SER795  GLU796  ALA797  LYS798  CYS799  TRP800  GLU811  SER814 

> <Gold.Protein.RotatedAtoms>
  150.8563  134.7902  159.7047 H   0  0  0  0  0  0  0  0  0  0  0  0  # atno 6907 bound_to 6896
  152.4613  134.5174  159.9782 H   0  0  0  0  0  0  0  0  0  0  0  0  # atno 6908 bound_to 6896
  151.5286  133.3415  159.2949 H   0  0  0  0  0  0  0  0  0  0  0  0  # atno 6909 bound_to 6896
  146.2414  139.9909  142.8426 H   0  0  0  0  0  0  0  0  0  0  0  0  # atno 7974 bound_to 7965
  154.6326  140.2527  155.7415 H   0  0  0  0  0  0  0  0  0  0  0  0  # atno 8008 bound_to 7997
  156.2487  140.2904  156.0605 H   0  0  0  0  0  0  0  0  0  0  0  0  # atno 8009 bound_to 7997
  155.1721  140.0387  157.2855 H   0  0  0  0  0  0  0  0  0  0  0  0  # atno 8010 bound_to 7997
  140.1457  143.4241  152.1531 H   0  0  0  0  0  0  0  0  0  0  0  0  # atno 10167 bound_to 10162
  156.1095  130.4176  150.0652 H   0  0  0  0  0  0  0  0  0  0  0  0  # atno 10718 bound_to 10713
  153.0428  135.5119  154.7666 H   0  0  0  0  0  0  0  0  0  0  0  0  # atno 10763 bound_to 10752
  154.6590  135.2936  154.9893 H   0  0  0  0  0  0  0  0  0  0  0  0  # atno 10764 bound_to 10752
  154.0750  135.6672  153.4882 H   0  0  0  0  0  0  0  0  0  0  0  0  # atno 10765 bound_to 10752
  140.2898  134.7682  157.3829 H   0  0  0  0  0  0  0  0  0  0  0  0  # atno 11005 bound_to 11000
  145.1504  140.9620  143.4436 LP  0  0  0  0  0  0  0  0  0  0  0  0  # atno 17320 bound_to 7965
  145.0210  139.3424  143.6072 LP  0  0  0  0  0  0  0  0  0  0  0  0  # atno 17321 bound_to 7965
  139.5450  144.7290  151.4612 LP  0  0  0  0  0  0  0  0  0  0  0  0  # atno 17342 bound_to 10162
  140.6733  143.8245  150.7027 LP  0  0  0  0  0  0  0  0  0  0  0  0  # atno 17343 bound_to 10162
  156.8619  130.9494  151.3617 LP  0  0  0  0  0  0  0  0  0  0  0  0  # atno 17370 bound_to 10713
  157.6275  130.8703  149.9215 LP  0  0  0  0  0  0  0  0  0  0  0  0  # atno 17371 bound_to 10713
  140.1206  134.5225  155.8187 LP  0  0  0  0  0  0  0  0  0  0  0  0  # atno 17394 bound_to 11000
  141.2148  133.6755  156.6858 LP  0  0  0  0  0  0  0  0  0  0  0  0  # atno 17395 bound_to 11000

$$$$
