AV-unprocessed.smi:332|AV-procd|sdf|2357|dock8
  -GOLD-   2262022273D 1   1.00000     0.00000
 Structure written by MMmdl.
 42 44  0  0  0  0  0  0  0  0  1 V2000
  150.6183  137.0203  156.3324 C   0  0  0  0  0  0  0  0  0  0  0  0
  149.6653  138.1363  156.7902 C   0  0  1  0  0  0  0  0  0  0  0  0
  148.5227  137.5401  157.4798 N   0  0  0  0  0  0  0  0  0  0  0  0
  148.5847  136.6403  158.4734 C   0  0  0  0  0  0  0  0  0  0  0  0
  149.6444  136.2041  158.9257 O   0  0  0  0  0  0  0  0  0  0  0  0
  147.2309  136.1744  159.0296 C   0  0  0  0  0  0  0  0  0  0  0  0
  147.3223  135.5215  160.3465 N   0  0  0  0  0  0  0  0  0  0  0  0
  147.4859  134.1218  160.3549 C   0  0  0  0  0  0  0  0  0  0  0  0
  147.5786  133.4243  161.4981 C   0  0  0  0  0  0  0  0  0  0  0  0
  147.5080  134.1468  162.7459 C   0  0  0  0  0  0  0  0  0  0  0  0
  147.3556  135.4860  162.7495 C   0  0  0  0  0  0  0  0  0  0  0  0
  147.2536  136.2527  161.5022 C   0  0  0  0  0  0  0  0  0  0  0  0
  147.1154  137.4763  161.4966 O   0  0  0  0  0  0  0  0  0  0  0  0
  150.3506  139.1574  157.7286 C   0  0  2  0  0  0  0  0  0  0  0  0
  149.5323  140.4436  157.9891 C   0  0  0  0  0  0  0  0  0  0  0  0
  150.5546  141.5648  157.7256 C   0  0  2  0  0  0  0  0  0  0  0  0
  150.7912  141.6841  156.2089 C   0  0  0  0  0  0  0  0  0  0  0  0
  151.6217  140.4259  155.8978 C   0  0  0  0  0  0  0  0  0  0  0  0
  151.7163  139.7286  157.2706 C   0  0  1  0  0  0  0  0  0  0  0  0
  151.8575  140.9309  158.1993 C   0  0  0  0  0  0  0  0  0  0  0  0
  151.4538  137.4219  155.7593 H   0  0  0  0  0  0  0  0  0  0  0  0
  150.1038  136.3026  155.6925 H   0  0  0  0  0  0  0  0  0  0  0  0
  151.0283  136.4740  157.1825 H   0  0  0  0  0  0  0  0  0  0  0  0
  149.3057  138.6630  155.9058 H   0  0  0  0  0  0  0  0  0  0  0  0
  147.6078  137.8384  157.1746 H   0  0  0  0  0  0  0  0  0  0  0  0
  146.5580  137.0324  159.0764 H   0  0  0  0  0  0  0  0  0  0  0  0
  146.7750  135.4962  158.3064 H   0  0  0  0  0  0  0  0  0  0  0  0
  147.5366  133.6580  159.3804 H   0  0  0  0  0  0  0  0  0  0  0  0
  147.7065  132.3519  161.4850 H   0  0  0  0  0  0  0  0  0  0  0  0
  147.5794  133.6114  163.6811 H   0  0  0  0  0  0  0  0  0  0  0  0
  147.3068  136.0099  163.6929 H   0  0  0  0  0  0  0  0  0  0  0  0
  150.5139  138.6640  158.6888 H   0  0  0  0  0  0  0  0  0  0  0  0
  148.6599  140.5347  157.3403 H   0  0  0  0  0  0  0  0  0  0  0  0
  149.1789  140.4695  159.0206 H   0  0  0  0  0  0  0  0  0  0  0  0
  150.2991  142.5110  158.2035 H   0  0  0  0  0  0  0  0  0  0  0  0
  149.8581  141.7171  155.6450 H   0  0  0  0  0  0  0  0  0  0  0  0
  151.3580  142.5852  155.9712 H   0  0  0  0  0  0  0  0  0  0  0  0
  151.1766  139.8044  155.1220 H   0  0  0  0  0  0  0  0  0  0  0  0
  152.6158  140.7096  155.5496 H   0  0  0  0  0  0  0  0  0  0  0  0
  152.5344  139.0111  157.3389 H   0  0  0  0  0  0  0  0  0  0  0  0
  152.7376  141.5414  157.9895 H   0  0  0  0  0  0  0  0  0  0  0  0
  151.8503  140.6672  159.2584 H   0  0  0  0  0  0  0  0  0  0  0  0
  1  2  1  0  0  0  0
  1 21  1  0  0  0  0
  1 22  1  0  0  0  0
  1 23  1  0  0  0  0
  2  3  1  0  0  0  0
  2 14  1  0  0  0  0
  2 24  1  0  0  0  0
  3  4  1  0  0  0  0
  3 25  1  0  0  0  0
  4  5  2  0  0  0  0
  4  6  1  0  0  0  0
  6  7  1  0  0  0  0
  6 26  1  0  0  0  0
  6 27  1  0  0  0  0
  7 12  1  0  0  0  0
  7  8  1  0  0  0  0
  8  9  2  0  0  0  0
  8 28  1  0  0  0  0
  9 10  1  0  0  0  0
  9 29  1  0  0  0  0
 10 11  2  0  0  0  0
 10 30  1  0  0  0  0
 11 12  1  0  0  0  0
 11 31  1  0  0  0  0
 12 13  2  0  0  0  0
 14 19  1  0  0  0  0
 14 15  1  0  0  0  0
 14 32  1  0  0  0  0
 15 16  1  0  0  0  0
 15 33  1  0  0  0  0
 15 34  1  0  0  0  0
 16 20  1  0  0  0  0
 16 17  1  0  0  0  0
 16 35  1  0  0  0  0
 17 18  1  0  0  0  0
 17 36  1  0  0  0  0
 17 37  1  0  0  0  0
 18 19  1  0  0  0  0
 18 38  1  0  0  0  0
 18 39  1  0  0  0  0
 19 20  1  0  0  0  0
 19 40  1  0  0  0  0
 20 41  1  0  0  0  0
 20 42  1  0  0  0  0
M  END
> <s_m_source_file>
AV-unprocessed.smi

> <i_m_source_file_index>
332

> <i_lp_mmshare_version>
43012

> <i_f3d_flags>
0

> <s_epik_input>
W0NIMl0xW0NIMl1bQ0BIXShbQ0gyXTIpW0NAQEhdKFtDSDJdW0NAQEhdMTIpW0NASF0oW0NIM10pW05IXUMoPU8pW0NIMl1uM1tjSF1bY0hdW2NIXVtjSF1jMz1P

> <s_epik_cmdline>
J2VwaWtfcHl0aG9uJywgJy1waCcsICc3LjAnLCAnLXRuJywgJzgnLCAnLW1hJywgJzIwMCcsICctbWV0YWxfYmluZGluZycsICctaW1hZScsICc8aW5maWxlLm1hZT4nLCAnLW9tYWUnLCAnPG91dGZpbGUubWFlPic=

> <r_lp_tautomer_probability>
1

> <r_epik_Ionization_Penalty>
4.05802e-07

> <r_epik_Ionization_Penalty_Charging>
3.84175e-07

> <r_epik_Ionization_Penalty_Neutral>
2.16269e-08

> <r_epik_State_Penalty>
-0

> <r_epik_Charging_Adjusted_Penalty>
3.84175e-07

> <i_epik_Tot_Q>
0

> <i_epik_Tot_abs_Q>
0

> <r_epik_Metal_State_Penalty>
-0

> <b_epik_Metal_Only>
0

> <s_lp_Force_Field>
OPLS_2005

> <r_lp_Energy>
60.6372

> <b_lp_Chiralities_Consistent>
1

> <s_lp_Variant>
AV-unprocessed.smi:332-6

> <Gold.Version>
5.8.1

> <Gold.Id.Protein>
6NUR|6NUR_protein|mol2

> <Gold.PLP.Fitness>
41.4691

> <Gold.PLP.PLP>
-35.3226

> <Gold.PLP.part.hbond>
-3.0000

> <Gold.PLP.part.metal>
0.0000

> <Gold.PLP.part.buried>
-3.8161

> <Gold.PLP.part.nonpolar>
-27.4282

> <Gold.PLP.part.repulsive>
0.0363

> <Gold.PLP.ligand.clash>
0.0000

> <Gold.PLP.ligand.torsion>
0.8396

> <Gold.PLP.Chemscore.Hbond>
2.6030

> <Gold.PLP.Chemscore.CHOScore>
0.0000

> <Gold.PLP.Chemscore.Metal>
0.0000

> <Gold.Chemscore.Hbonds>
donor molecule, donor type, donor heavy atom, donor atom, acceptor molecule, acceptor atom, score
      P1  H  6896  6909       L1     5  1.00
      P1  H  6931  6943       L1    13  0.58
      P1  H  6934  6947       L1    13  0.98

> <Gold.PLP.Chemscore.Internal.Correction>
0.0169

> <Gold.Rescore>
     Score         DG    S(hbond)    S(metal)    S(lipo)     H(rot)  DE(clash)    DE(int)     intcor
     17.54     -19.56       2.77        0.00      75.02       1.54       0.00       2.01       ----

> <Gold.Chemscore.Fitness>
17.5407

> <Gold.Chemscore.DG>
-19.5550

> <Gold.Chemscore.ZeroCoef>
-5.4800

> <Gold.Chemscore.Hbond>
2.7663

> <Gold.Chemscore.Metal>
0.0000

> <Gold.Chemscore.Lipo>
75.0215

> <Gold.Chemscore.Internal_Hbond>
0.0000

> <Gold.Chemscore.DEClash>
0.0000

> <Gold.Chemscore.DEInternal>
2.0143

> <Gold.Chemscore.Rot>
1.5398

> <Gold.Chemscore.Internal.Correction>
   9.000000E+99

> <Gold.Chemscore.Hbonds>
donor molecule, donor type, donor heavy atom, donor atom, acceptor molecule, acceptor atom, score
      P1  H  6896  6909       L1     5  0.96
      P1  H  6931  6943       L1    13  0.31
      P1  H  6934  6947       L1    13  0.92

> <Gold.Chemscore.Hbond.Weighted>
-9.2394

> <Gold.Chemscore.Metal.Weighted>
-0.0000

> <Gold.Chemscore.Lipo.Weighted>
-8.7775

> <Gold.Chemscore.Internal_Hbond.Weighted>
0.0000

> <Gold.Chemscore.DEClash.Weighted>
0.0000

> <Gold.Chemscore.DEInternal.Weighted>
2.0143

> <Gold.Chemscore.Rot.Weighted>
3.9419

> <Gold.Chemscore.Internal.Correction.Weighted>
   9.000000E+99

> <Gold.Protein.RotatedTorsions>
[ 6907 6896 6895 6894 ] final   53.09 input  -60.11 | X-H torsion
[ 7974 7965 7964 7962 ] final -116.50 input  175.53 | X-H torsion
[ 8008 7997 7996 7995 ] final  -66.69 input   59.86 | X-H torsion
[ 10167 10162 10161 10158 ] final  132.45 input  -65.29 | X-H torsion
[ 10718 10713 10712 10709 ] final  127.16 input   66.30 | X-H torsion
[ 10763 10752 10751 10750 ] final    2.48 input  -60.55 | X-H torsion
[ 11005 11000 10999 10996 ] final  178.28 input  -57.11 | X-H torsion

> <Gold.Protein.ActiveResidues>
 VAL166  LYS551  ARG553  GLY616  TRP617  ASP618  TYR619  PRO620  LYS621  CYS622 
 ASP623  PHE694  ASN695  SER759  ASP760  ASP761  ALA762  ILE779  LEU786  VAL792 
 PHE793  MET794  SER795  GLU796  ALA797  LYS798  CYS799  TRP800  GLU811  SER814 

> <Gold.Protein.RotatedAtoms>
  152.3301  134.7270  160.0291 H   0  0  0  0  0  0  0  0  0  0  0  0  # atno 6907 bound_to 6896
  151.7689  133.3334  159.3447 H   0  0  0  0  0  0  0  0  0  0  0  0  # atno 6908 bound_to 6896
  150.7418  134.5968  159.6060 H   0  0  0  0  0  0  0  0  0  0  0  0  # atno 6909 bound_to 6896
  145.0960  140.8521  143.3954 H   0  0  0  0  0  0  0  0  0  0  0  0  # atno 7974 bound_to 7965
  154.4751  140.0907  156.7242 H   0  0  0  0  0  0  0  0  0  0  0  0  # atno 8008 bound_to 7997
  155.4619  140.3461  155.4295 H   0  0  0  0  0  0  0  0  0  0  0  0  # atno 8009 bound_to 7997
  156.1103  140.1446  156.9336 H   0  0  0  0  0  0  0  0  0  0  0  0  # atno 8010 bound_to 7997
  139.5339  144.6661  151.4854 H   0  0  0  0  0  0  0  0  0  0  0  0  # atno 10167 bound_to 10162
  157.5357  131.1097  150.8939 H   0  0  0  0  0  0  0  0  0  0  0  0  # atno 10718 bound_to 10713
  153.2951  135.6951  153.7256 H   0  0  0  0  0  0  0  0  0  0  0  0  # atno 10763 bound_to 10752
  153.6192  135.3430  155.3006 H   0  0  0  0  0  0  0  0  0  0  0  0  # atno 10764 bound_to 10752
  154.8535  135.4382  154.2046 H   0  0  0  0  0  0  0  0  0  0  0  0  # atno 10765 bound_to 10752
  140.3933  134.6842  157.4520 H   0  0  0  0  0  0  0  0  0  0  0  0  # atno 11005 bound_to 11000
  145.1010  139.2822  143.5686 LP  0  0  0  0  0  0  0  0  0  0  0  0  # atno 17320 bound_to 7965
  146.3530  140.0577  142.8631 LP  0  0  0  0  0  0  0  0  0  0  0  0  # atno 17321 bound_to 7965
  140.6534  143.8649  150.6809 LP  0  0  0  0  0  0  0  0  0  0  0  0  # atno 17342 bound_to 10162
  140.2021  143.3951  152.1783 LP  0  0  0  0  0  0  0  0  0  0  0  0  # atno 17343 bound_to 10162
  156.9506  130.5418  149.5282 LP  0  0  0  0  0  0  0  0  0  0  0  0  # atno 17370 bound_to 10713
  156.0457  130.5534  150.8875 LP  0  0  0  0  0  0  0  0  0  0  0  0  # atno 17371 bound_to 10713
  140.0390  134.6295  155.9005 LP  0  0  0  0  0  0  0  0  0  0  0  0  # atno 17394 bound_to 11000
  141.1883  133.6562  156.5318 LP  0  0  0  0  0  0  0  0  0  0  0  0  # atno 17395 bound_to 11000

$$$$
