AV-unprocessed.smi:283|AV-procd|sdf|2137|dock5
  -GOLD-   2262021463D 1   1.00000     0.00000
 Structure written by MMmdl.
 48 51  0  0  0  0  0  0  0  0  1 V2000
  151.0329  142.5957  157.8590 C   0  0  0  0  0  0  0  0  0  0  0  0
  152.1906  141.8393  158.5236 C   0  0  2  0  0  0  0  0  0  0  0  0
  151.9741  140.3978  158.4103 N   0  0  0  0  0  0  0  0  0  0  0  0
  151.5583  139.8474  157.2475 C   0  0  0  0  0  0  0  0  0  0  0  0
  152.3777  139.7867  156.1653 N   0  0  0  0  0  0  0  0  0  0  0  0
  151.9424  139.2394  155.0268 C   0  0  0  0  0  0  0  0  0  0  0  0
  150.7479  138.7053  154.7611 N   0  0  0  0  0  0  0  0  0  0  0  0
  149.9206  138.7663  155.8449 C   0  0  0  0  0  0  0  0  0  0  0  0
  150.2477  139.3212  157.1129 C   0  0  0  0  0  0  0  0  0  0  0  0
  149.1585  139.2156  157.9663 N   0  0  0  0  0  0  0  0  0  0  0  0
  148.2421  138.6366  157.2379 C   0  0  0  0  0  0  0  0  0  0  0  0
  148.6217  138.3152  155.9491 N   0  0  0  0  0  0  0  0  0  0  0  0
  147.8354  137.6798  154.8369 C   0  0  2  0  0  0  0  0  0  0  0  0
  146.6312  138.3653  154.7179 O   0  0  0  0  0  0  0  0  0  0  0  0
  145.6738  137.7900  155.5955 C   0  0  1  0  0  0  0  0  0  0  0  0
  144.2551  138.1396  155.1207 C   0  0  0  0  0  0  0  0  0  0  0  0
  144.0768  137.7331  153.7808 O   0  0  0  0  0  0  0  0  0  0  0  0
  145.9912  136.2875  155.5167 C   0  0  2  0  0  0  0  0  0  0  0  0
  145.7584  135.6800  156.7725 O   0  0  0  0  0  0  0  0  0  0  0  0
  147.4773  136.2174  155.1481 C   0  0  1  0  0  0  0  0  0  0  0  0
  147.6724  135.3947  154.0159 O   0  0  0  0  0  0  0  0  0  0  0  0
  152.4008  142.3335  159.9568 C   0  0  0  0  0  0  0  0  0  0  0  0
  151.7511  143.5111  160.3949 C   0  0  0  0  0  0  0  0  0  0  0  0
  151.9299  143.9839  161.7085 C   0  0  0  0  0  0  0  0  0  0  0  0
  152.7667  143.2866  162.5980 C   0  0  0  0  0  0  0  0  0  0  0  0
  153.4269  142.1201  162.1700 C   0  0  0  0  0  0  0  0  0  0  0  0
  153.2517  141.6421  160.8557 C   0  0  0  0  0  0  0  0  0  0  0  0
  154.0980  140.2107  160.3819 Cl  0  0  0  0  0  0  0  0  0  0  0  0
  148.4588  137.8027  153.9505 H   0  0  0  0  0  0  0  0  0  0  0  0
  145.8437  138.1616  156.6077 H   0  0  0  0  0  0  0  0  0  0  0  0
  145.3773  135.8054  154.7538 H   0  0  0  0  0  0  0  0  0  0  0  0
  148.1041  135.8311  155.9529 H   0  0  0  0  0  0  0  0  0  0  0  0
  151.2164  143.6706  157.8600 H   0  0  0  0  0  0  0  0  0  0  0  0
  150.0908  142.4185  158.3790 H   0  0  0  0  0  0  0  0  0  0  0  0
  150.9053  142.2859  156.8214 H   0  0  0  0  0  0  0  0  0  0  0  0
  153.0869  142.0527  157.9422 H   0  0  0  0  0  0  0  0  0  0  0  0
  152.3058  139.8441  159.1869 H   0  0  0  0  0  0  0  0  0  0  0  0
  152.6524  139.2277  154.2130 H   0  0  0  0  0  0  0  0  0  0  0  0
  147.2590  138.4313  157.6337 H   0  0  0  0  0  0  0  0  0  0  0  0
  143.4982  137.6849  155.7604 H   0  0  0  0  0  0  0  0  0  0  0  0
  144.1040  139.2188  155.1568 H   0  0  0  0  0  0  0  0  0  0  0  0
  144.0293  138.5036  153.2358 H   0  0  0  0  0  0  0  0  0  0  0  0
  144.8263  135.6289  156.9159 H   0  0  0  0  0  0  0  0  0  0  0  0
  148.0748  135.9115  153.3347 H   0  0  0  0  0  0  0  0  0  0  0  0
  151.1082  144.0604  159.7229 H   0  0  0  0  0  0  0  0  0  0  0  0
  151.4258  144.8824  162.0326 H   0  0  0  0  0  0  0  0  0  0  0  0
  152.9054  143.6477  163.6064 H   0  0  0  0  0  0  0  0  0  0  0  0
  154.0728  141.5900  162.8543 H   0  0  0  0  0  0  0  0  0  0  0  0
  1  2  1  0  0  0  0
  1 33  1  0  0  0  0
  1 34  1  0  0  0  0
  1 35  1  0  0  0  0
  2  3  1  0  0  0  0
  2 22  1  0  0  0  0
  2 36  1  0  0  0  0
  3  4  1  0  0  0  0
  3 37  1  0  0  0  0
  4  9  1  0  0  0  0
  4  5  2  0  0  0  0
  5  6  1  0  0  0  0
  6  7  2  0  0  0  0
  6 38  1  0  0  0  0
  7  8  1  0  0  0  0
  8 12  1  0  0  0  0
  8  9  2  0  0  0  0
  9 10  1  0  0  0  0
 10 11  2  0  0  0  0
 11 12  1  0  0  0  0
 11 39  1  0  0  0  0
 12 13  1  0  0  0  0
 13 29  1  0  0  0  0
 13 20  1  0  0  0  0
 13 14  1  0  0  0  0
 14 15  1  0  0  0  0
 15 30  1  0  0  0  0
 15 16  1  0  0  0  0
 15 18  1  0  0  0  0
 16 17  1  0  0  0  0
 16 40  1  0  0  0  0
 16 41  1  0  0  0  0
 17 42  1  0  0  0  0
 18 31  1  0  0  0  0
 18 19  1  0  0  0  0
 18 20  1  0  0  0  0
 19 43  1  0  0  0  0
 20 32  1  0  0  0  0
 20 21  1  0  0  0  0
 21 44  1  0  0  0  0
 22 27  1  0  0  0  0
 22 23  2  0  0  0  0
 23 24  1  0  0  0  0
 23 45  1  0  0  0  0
 24 25  2  0  0  0  0
 24 46  1  0  0  0  0
 25 26  1  0  0  0  0
 25 47  1  0  0  0  0
 26 27  2  0  0  0  0
 26 48  1  0  0  0  0
 27 28  1  0  0  0  0
M  END
> <s_m_source_file>
AV-unprocessed.smi

> <i_m_source_file_index>
283

> <i_lp_mmshare_version>
43012

> <i_f3d_flags>
0

> <s_epik_input>
Q2xjMVtjSF1bY0hdW2NIXVtjSF1jMVtDQEhdKFtDSDNdKVtOSF1jKG5bY0hdbjIpYyhjMjMpbltjSF1uM1tDQEBIXTRPW0NASF0oW0NIMl1bT0hdKVtDQEBIXShbT0hdKVtDQEhdNFtPSF0=

> <s_epik_cmdline>
J2VwaWtfcHl0aG9uJywgJy1waCcsICc3LjAnLCAnLXRuJywgJzgnLCAnLW1hJywgJzIwMCcsICctbWV0YWxfYmluZGluZycsICctaW1hZScsICc8aW5maWxlLm1hZT4nLCAnLW9tYWUnLCAnPG91dGZpbGUubWFlPic=

> <r_lp_tautomer_probability>
1

> <r_epik_Ionization_Penalty>
0.000266407

> <r_epik_Ionization_Penalty_Charging>
0

> <r_epik_Ionization_Penalty_Neutral>
0.000266407

> <r_epik_State_Penalty>
-0

> <r_epik_Charging_Adjusted_Penalty>
0

> <i_epik_Tot_Q>
0

> <i_epik_Tot_abs_Q>
0

> <r_epik_Metal_State_Penalty>
-0

> <b_epik_Metal_Only>
0

> <s_epik_Chemistry_Notes>
This compound contains an acetal/aminal-like group ( X-CH(R)-Y where X, Y are N, S, or O) that may be acid/base labile, releasing an aldehyde.

> <s_lp_Force_Field>
OPLS_2005

> <r_lp_Energy>
39.6204

> <b_lp_Chiralities_Consistent>
1

> <s_lp_Variant>
AV-unprocessed.smi:283-13

> <Gold.Version>
5.8.1

> <Gold.Id.Protein>
6NUR|6NUR_protein|mol2

> <Gold.PLP.Fitness>
48.2156

> <Gold.PLP.PLP>
-41.6545

> <Gold.PLP.part.hbond>
-3.0000

> <Gold.PLP.part.metal>
0.0000

> <Gold.PLP.part.buried>
-6.2521

> <Gold.PLP.part.nonpolar>
-32.0362

> <Gold.PLP.part.repulsive>
0.3214

> <Gold.PLP.ligand.clash>
0.0000

> <Gold.PLP.ligand.torsion>
1.2657

> <Gold.PLP.Chemscore.Hbond>
3.0000

> <Gold.PLP.Chemscore.CHOScore>
0.0000

> <Gold.PLP.Chemscore.Metal>
0.0000

> <Gold.Chemscore.Hbonds>
donor molecule, donor type, donor heavy atom, donor atom, acceptor molecule, acceptor atom, score
      L1  H    17    42       P1 10175  0.78
      L1  H    21    44       P1  7948  1.00
      P1  H  7997  8009       L1     5  0.98

> <Gold.PLP.Chemscore.Internal.Correction>
0.0927

> <Gold.Rescore>
     Score         DG    S(hbond)    S(metal)    S(lipo)     H(rot)  DE(clash)    DE(int)     intcor
     14.73     -16.52       2.88        0.00     101.63       4.10       0.10       1.69       ----

> <Gold.Chemscore.Fitness>
14.7287

> <Gold.Chemscore.DG>
-16.5183

> <Gold.Chemscore.ZeroCoef>
-5.4800

> <Gold.Chemscore.Hbond>
2.8849

> <Gold.Chemscore.Metal>
0.0000

> <Gold.Chemscore.Lipo>
101.6282

> <Gold.Chemscore.Internal_Hbond>
0.0000

> <Gold.Chemscore.DEClash>
0.0989

> <Gold.Chemscore.DEInternal>
1.6907

> <Gold.Chemscore.Rot>
4.0968

> <Gold.Chemscore.Internal.Correction>
   9.000000E+99

> <Gold.Chemscore.Hbonds>
donor molecule, donor type, donor heavy atom, donor atom, acceptor molecule, acceptor atom, score
      L1  H    17    42       P1 10175  0.77
      L1  H    21    44       P1  7948  0.99
      P1  H  7997  8009       L1     5  0.70

> <Gold.Chemscore.Hbond.Weighted>
-9.6357

> <Gold.Chemscore.Metal.Weighted>
-0.0000

> <Gold.Chemscore.Lipo.Weighted>
-11.8905

> <Gold.Chemscore.Internal_Hbond.Weighted>
0.0000

> <Gold.Chemscore.DEClash.Weighted>
0.0989

> <Gold.Chemscore.DEInternal.Weighted>
1.6907

> <Gold.Chemscore.Rot.Weighted>
10.4879

> <Gold.Chemscore.Internal.Correction.Weighted>
   9.000000E+99

> <Gold.Protein.RotatedTorsions>
[ 6907 6896 6895 6894 ] final   86.18 input  -60.11 | X-H torsion
[ 7974 7965 7964 7962 ] final  153.45 input  175.53 | X-H torsion
[ 8008 7997 7996 7995 ] final -144.70 input   59.86 | X-H torsion
[ 10167 10162 10161 10158 ] final  -40.13 input  -65.29 | X-H torsion
[ 10718 10713 10712 10709 ] final  -80.90 input   66.30 | X-H torsion
[ 10763 10752 10751 10750 ] final   54.78 input  -60.55 | X-H torsion
[ 11005 11000 10999 10996 ] final   20.94 input  -57.11 | X-H torsion

> <Gold.Protein.ActiveResidues>
 VAL166  LYS551  ARG553  GLY616  TRP617  ASP618  TYR619  PRO620  LYS621  CYS622 
 ASP623  PHE694  ASN695  SER759  ASP760  ASP761  ALA762  ILE779  LEU786  VAL792 
 PHE793  MET794  SER795  GLU796  ALA797  LYS798  CYS799  TRP800  GLU811  SER814 

> <Gold.Protein.RotatedAtoms>
  152.5389  134.2471  159.8884 H   0  0  0  0  0  0  0  0  0  0  0  0  # atno 6907 bound_to 6896
  151.2436  133.4380  159.2616 H   0  0  0  0  0  0  0  0  0  0  0  0  # atno 6908 bound_to 6896
  151.0604  134.9747  159.8314 H   0  0  0  0  0  0  0  0  0  0  0  0  # atno 6909 bound_to 6896
  144.8154  139.6802  143.6123 H   0  0  0  0  0  0  0  0  0  0  0  0  # atno 7974 bound_to 7965
  155.5313  140.0600  157.2888 H   0  0  0  0  0  0  0  0  0  0  0  0  # atno 8008 bound_to 7997
  154.4483  140.1935  156.0542 H   0  0  0  0  0  0  0  0  0  0  0  0  # atno 8009 bound_to 7997
  156.0650  140.3267  155.7511 H   0  0  0  0  0  0  0  0  0  0  0  0  # atno 8010 bound_to 7997
  140.7044  143.3172  151.2880 H   0  0  0  0  0  0  0  0  0  0  0  0  # atno 10167 bound_to 10162
  156.0061  130.4588  150.3870 H   0  0  0  0  0  0  0  0  0  0  0  0  # atno 10718 bound_to 10713
  152.9808  135.5733  154.4960 H   0  0  0  0  0  0  0  0  0  0  0  0  # atno 10763 bound_to 10752
  154.4487  135.2778  155.1798 H   0  0  0  0  0  0  0  0  0  0  0  0  # atno 10764 bound_to 10752
  154.3435  135.6224  153.5661 H   0  0  0  0  0  0  0  0  0  0  0  0  # atno 10765 bound_to 10752
  140.3970  134.1758  155.7663 H   0  0  0  0  0  0  0  0  0  0  0  0  # atno 11005 bound_to 11000
  146.2456  139.6092  142.9461 LP  0  0  0  0  0  0  0  0  0  0  0  0  # atno 17320 bound_to 7965
  145.5227  141.0431  143.2426 LP  0  0  0  0  0  0  0  0  0  0  0  0  # atno 17321 bound_to 7965
  139.6615  144.0182  152.2695 LP  0  0  0  0  0  0  0  0  0  0  0  0  # atno 17342 bound_to 10162
  139.9750  144.6467  150.7953 LP  0  0  0  0  0  0  0  0  0  0  0  0  # atno 17343 bound_to 10162
  157.1947  131.0423  151.2682 LP  0  0  0  0  0  0  0  0  0  0  0  0  # atno 17370 bound_to 10713
  157.4030  130.7343  149.6781 LP  0  0  0  0  0  0  0  0  0  0  0  0  # atno 17371 bound_to 10713
  141.1870  133.8290  157.1046 LP  0  0  0  0  0  0  0  0  0  0  0  0  # atno 17394 bound_to 11000
  140.0364  134.9876  157.0879 LP  0  0  0  0  0  0  0  0  0  0  0  0  # atno 17395 bound_to 11000

$$$$
