AV-unprocessed.smi:2751|AV-procd|sdf|10603|dock9
  -GOLD-   2272015 53D 1   1.00000     0.00000
 Structure written by MMmdl.
 33 34  0  0  0  0  0  0  0  0  2 V2000
  153.7722  139.0800  157.4874 O   0  0  0  0  0  0  0  0  0  0  0  0
  152.7009  139.6440  157.7231 C   0  0  0  0  0  0  0  0  0  0  0  0
  152.5937  140.4593  158.7824 N   0  0  0  0  0  0  0  0  0  0  0  0
  153.6551  140.7678  159.7349 C   0  0  0  0  0  0  0  0  0  0  0  0
  153.2197  141.8506  160.7374 C   0  0  0  0  0  0  0  0  0  0  0  0
  153.0013  143.2217  160.0783 C   0  0  2  0  0  0  0  0  0  0  0  0
  152.0206  144.0977  160.8821 C   0  0  0  0  0  0  0  0  0  0  0  0
  151.7687  145.4268  160.1609 C   0  0  0  0  0  0  0  0  0  0  0  0
  151.3310  145.1567  158.7175 C   0  0  0  0  0  0  0  0  0  0  0  0
  152.3347  144.2245  158.0207 C   0  0  0  0  0  0  0  0  0  0  0  0
  152.4763  143.0197  158.7670 O   0  0  0  0  0  0  0  0  0  0  0  0
  151.5610  139.5309  157.0042 N   0  5  0  0  0  0  0  0  0  0  0  0
  151.5816  138.9159  155.8107 C   0  0  0  0  0  0  0  0  0  0  0  0
  152.6414  138.3493  155.2311 N   0  0  0  0  0  0  0  0  0  0  0  0
  152.1901  137.8541  154.0173 C   0  0  0  0  0  0  0  0  0  0  0  0
  150.8589  138.1518  153.9115 C   0  0  0  0  0  0  0  0  0  0  0  0
  150.4648  138.8261  155.0338 O   0  0  0  0  0  0  0  0  0  0  0  0
  151.6992  140.9009  158.9380 H   0  0  0  0  0  0  0  0  0  0  0  0
  153.9649  139.8616  160.2580 H   0  0  0  0  0  0  0  0  0  0  0  0
  154.5222  141.1096  159.1695 H   0  0  0  0  0  0  0  0  0  0  0  0
  152.3069  141.5375  161.2457 H   0  0  0  0  0  0  0  0  0  0  0  0
  153.9825  141.9482  161.5109 H   0  0  0  0  0  0  0  0  0  0  0  0
  153.9634  143.7324  160.0057 H   0  0  0  0  0  0  0  0  0  0  0  0
  151.0755  143.5685  161.0121 H   0  0  0  0  0  0  0  0  0  0  0  0
  152.4132  144.2863  161.8819 H   0  0  0  0  0  0  0  0  0  0  0  0
  151.0110  146.0082  160.6864 H   0  0  0  0  0  0  0  0  0  0  0  0
  152.6814  146.0239  160.1627 H   0  0  0  0  0  0  0  0  0  0  0  0
  150.3433  144.6941  158.7146 H   0  0  0  0  0  0  0  0  0  0  0  0
  151.2403  146.0940  158.1679 H   0  0  0  0  0  0  0  0  0  0  0  0
  151.9837  143.9782  157.0186 H   0  0  0  0  0  0  0  0  0  0  0  0
  153.3046  144.7110  157.9074 H   0  0  0  0  0  0  0  0  0  0  0  0
  152.8447  137.3354  153.3330 H   0  0  0  0  0  0  0  0  0  0  0  0
  150.1043  137.9718  153.1607 H   0  0  0  0  0  0  0  0  0  0  0  0
  1  2  2  0  0  0  0
  2 12  1  0  0  0  0
  2  3  1  0  0  0  0
  3  4  1  0  0  0  0
  3 18  1  0  0  0  0
  4  5  1  0  0  0  0
  4 19  1  0  0  0  0
  4 20  1  0  0  0  0
  5  6  1  0  0  0  0
  5 21  1  0  0  0  0
  5 22  1  0  0  0  0
  6 11  1  0  0  0  0
  6  7  1  0  0  0  0
  6 23  1  0  0  0  0
  7  8  1  0  0  0  0
  7 24  1  0  0  0  0
  7 25  1  0  0  0  0
  8  9  1  0  0  0  0
  8 26  1  0  0  0  0
  8 27  1  0  0  0  0
  9 10  1  0  0  0  0
  9 28  1  0  0  0  0
  9 29  1  0  0  0  0
 10 11  1  0  0  0  0
 10 30  1  0  0  0  0
 10 31  1  0  0  0  0
 12 13  1  0  0  0  0
 13 17  1  0  0  0  0
 13 14  2  0  0  0  0
 14 15  1  0  0  0  0
 15 32  1  0  0  0  0
 15 16  2  0  0  0  0
 16 33  1  0  0  0  0
 16 17  1  0  0  0  0
M  CHG  1  12  -1
M  END
> <s_m_source_file>
AV-unprocessed.smi

> <i_m_source_file_index>
2751

> <i_lp_mmshare_version>
43012

> <i_f3d_flags>
0

> <s_epik_input>
bzFbY0hdW2NIXW5jMVtOSF1DKD1PKVtOSF1bQ0gyXVtDSDJdW0NAQEhdMltDSDJdW0NIMl1bQ0gyXVtDSDJdTzI=

> <s_epik_cmdline>
J2VwaWtfcHl0aG9uJywgJy1waCcsICc3LjAnLCAnLXRuJywgJzgnLCAnLW1hJywgJzIwMCcsICctbWV0YWxfYmluZGluZycsICctaW1hZScsICc8aW5maWxlLm1hZT4nLCAnLW9tYWUnLCAnPG91dGZpbGUubWFlPic=

> <r_lp_tautomer_probability>
0.107061

> <r_epik_Ionization_Penalty>
11.077

> <r_epik_Ionization_Penalty_Charging>
7.79122

> <r_epik_Ionization_Penalty_Neutral>
3.28583

> <r_epik_State_Penalty>
5.8984

> <r_epik_Charging_Adjusted_Penalty>
13.6896

> <i_epik_Tot_Q>
-1

> <i_epik_Tot_abs_Q>
1

> <r_epik_Metal_State_Penalty>
1.82322

> <b_epik_Metal_Only>
1

> <s_lp_Force_Field>
OPLS_2005

> <r_lp_Energy>
3.95886

> <b_lp_Chiralities_Consistent>
1

> <s_lp_Variant>
AV-unprocessed.smi:2751-9

> <Gold.Version>
5.8.1

> <Gold.Id.Protein>
6NUR|6NUR_protein|mol2

> <Gold.PLP.Fitness>
46.4335

> <Gold.PLP.PLP>
-38.1774

> <Gold.PLP.part.hbond>
-1.0000

> <Gold.PLP.part.metal>
0.0000

> <Gold.PLP.part.buried>
-5.9108

> <Gold.PLP.part.nonpolar>
-32.3158

> <Gold.PLP.part.repulsive>
0.1886

> <Gold.PLP.ligand.clash>
0.0000

> <Gold.PLP.ligand.torsion>
0.3362

> <Gold.PLP.Chemscore.Hbond>
1.0000

> <Gold.PLP.Chemscore.CHOScore>
1.9717

> <Gold.PLP.Chemscore.Metal>
0.0000

> <Gold.Chemscore.Hbonds>
donor molecule, donor type, donor heavy atom, donor atom, acceptor molecule, acceptor atom, score
      P1  H  7997  8010       L1     1  0.59
      L1  C    15    32       P1  7949  0.15
      L1  C    16    33       P1  7948  1.00
      L1  C    16    33       P1  7949  0.03
      L1  C    16    33       P1  7957  0.07

> <Gold.PLP.Chemscore.Internal.Correction>
0.0136

> <Gold.Rescore>
     Score         DG    S(hbond)    S(metal)    S(lipo)     H(rot)  DE(clash)    DE(int)     intcor
     12.62     -16.35       0.99        0.00      99.68       1.60       0.01       3.72       ----

> <Gold.Chemscore.Fitness>
12.6241

> <Gold.Chemscore.DG>
-16.3484

> <Gold.Chemscore.ZeroCoef>
-5.4800

> <Gold.Chemscore.Hbond>
0.9921

> <Gold.Chemscore.Metal>
0.0000

> <Gold.Chemscore.Lipo>
99.6833

> <Gold.Chemscore.Internal_Hbond>
0.0000

> <Gold.Chemscore.DEClash>
0.0089

> <Gold.Chemscore.DEInternal>
3.7154

> <Gold.Chemscore.Rot>
1.6048

> <Gold.Chemscore.Internal.Correction>
   9.000000E+99

> <Gold.Chemscore.Hbonds>
donor molecule, donor type, donor heavy atom, donor atom, acceptor molecule, acceptor atom, score
      P1  H  7997  8010       L1     1  0.42

> <Gold.Chemscore.Hbond.Weighted>
-3.3136

> <Gold.Chemscore.Metal.Weighted>
-0.0000

> <Gold.Chemscore.Lipo.Weighted>
-11.6629

> <Gold.Chemscore.Internal_Hbond.Weighted>
0.0000

> <Gold.Chemscore.DEClash.Weighted>
0.0089

> <Gold.Chemscore.DEInternal.Weighted>
3.7154

> <Gold.Chemscore.Rot.Weighted>
4.1082

> <Gold.Chemscore.Internal.Correction.Weighted>
   9.000000E+99

> <Gold.Protein.RotatedTorsions>
[ 6907 6896 6895 6894 ] final  -23.97 input  -60.11 | X-H torsion
[ 7974 7965 7964 7962 ] final  127.15 input  175.53 | X-H torsion
[ 8008 7997 7996 7995 ] final   24.85 input   59.86 | X-H torsion
[ 10167 10162 10161 10158 ] final -106.80 input  -65.29 | X-H torsion
[ 10718 10713 10712 10709 ] final  176.01 input   66.30 | X-H torsion
[ 10763 10752 10751 10750 ] final  -33.04 input  -60.55 | X-H torsion
[ 11005 11000 10999 10996 ] final  154.33 input  -57.11 | X-H torsion

> <Gold.Protein.ActiveResidues>
 VAL166  LYS551  ARG553  GLY616  TRP617  ASP618  TYR619  PRO620  LYS621  CYS622 
 ASP623  PHE694  ASN695  SER759  ASP760  ASP761  ALA762  ILE779  LEU786  VAL792 
 PHE793  MET794  SER795  GLU796  ALA797  LYS798  CYS799  TRP800  GLU811  SER814 

> <Gold.Protein.RotatedAtoms>
  151.1963  135.0424  159.8853 H   0  0  0  0  0  0  0  0  0  0  0  0  # atno 6907 bound_to 6896
  152.5436  134.0900  159.8283 H   0  0  0  0  0  0  0  0  0  0  0  0  # atno 6908 bound_to 6896
  151.1035  133.5178  159.2641 H   0  0  0  0  0  0  0  0  0  0  0  0  # atno 6909 bound_to 6896
  145.0538  139.3861  143.5040 H   0  0  0  0  0  0  0  0  0  0  0  0  # atno 7974 bound_to 7965
  155.0026  140.3127  155.4861 H   0  0  0  0  0  0  0  0  0  0  0  0  # atno 8008 bound_to 7997
  156.2922  140.2229  156.5077 H   0  0  0  0  0  0  0  0  0  0  0  0  # atno 8009 bound_to 7997
  154.7605  140.0459  157.0957 H   0  0  0  0  0  0  0  0  0  0  0  0  # atno 8010 bound_to 7997
  140.1838  143.3945  152.1260 H   0  0  0  0  0  0  0  0  0  0  0  0  # atno 10167 bound_to 10162
  156.9265  130.9957  151.2995 H   0  0  0  0  0  0  0  0  0  0  0  0  # atno 10718 bound_to 10713
  153.8236  135.6872  153.4824 H   0  0  0  0  0  0  0  0  0  0  0  0  # atno 10763 bound_to 10752
  153.1554  135.4601  154.9695 H   0  0  0  0  0  0  0  0  0  0  0  0  # atno 10764 bound_to 10752
  154.7917  135.3304  154.7706 H   0  0  0  0  0  0  0  0  0  0  0  0  # atno 10765 bound_to 10752
  140.1479  134.8694  157.2417 H   0  0  0  0  0  0  0  0  0  0  0  0  # atno 11005 bound_to 11000
  146.3520  140.0201  142.8659 LP  0  0  0  0  0  0  0  0  0  0  0  0  # atno 17320 bound_to 7965
  145.1494  140.9615  143.4442 LP  0  0  0  0  0  0  0  0  0  0  0  0  # atno 17321 bound_to 7965
  139.5285  144.7131  151.5143 LP  0  0  0  0  0  0  0  0  0  0  0  0  # atno 17342 bound_to 10162
  140.6502  143.8713  150.6777 LP  0  0  0  0  0  0  0  0  0  0  0  0  # atno 17343 bound_to 10162
  157.5874  130.8420  149.8610 LP  0  0  0  0  0  0  0  0  0  0  0  0  # atno 17370 bound_to 10713
  156.0467  130.3726  150.1300 LP  0  0  0  0  0  0  0  0  0  0  0  0  # atno 17371 bound_to 10713
  140.2640  134.3537  155.7396 LP  0  0  0  0  0  0  0  0  0  0  0  0  # atno 17394 bound_to 11000
  141.2195  133.7385  156.9123 LP  0  0  0  0  0  0  0  0  0  0  0  0  # atno 17395 bound_to 11000

$$$$
