AV-unprocessed.smi:3346|AV-procd|sdf|12910|dock2
  -GOLD-   2272019323D 1   1.00000     0.00000
 Structure written by MMmdl.
 47 48  0  0  0  0  0  0  0  0  1 V2000
  148.8893  140.7849  154.2267 C   0  0  0  0  0  0  0  0  0  0  0  0
  147.5133  140.2885  153.7508 C   0  0  0  0  0  0  0  0  0  0  0  0
  146.4211  140.7159  154.7429 C   0  0  0  0  0  0  0  0  0  0  0  0
  147.4779  138.7592  153.5321 C   0  0  0  0  0  0  0  0  0  0  0  0
  146.3839  138.2520  152.5679 C   0  0  1  0  0  0  0  0  0  0  0  0
  146.6023  138.7786  151.1423 C   0  0  0  0  0  0  0  0  0  0  0  0
  146.4219  136.7965  152.5015 N   0  0  0  0  0  0  0  0  0  0  0  0
  145.3588  136.2832  151.6527 C   0  0  0  0  0  0  0  0  0  0  0  0
  144.0751  136.0387  152.4268 C   0  0  0  0  0  0  0  0  0  0  0  0
  143.4216  137.1231  153.0481 C   0  0  0  0  0  0  0  0  0  0  0  0
  142.2287  136.8890  153.7564 C   0  0  0  0  0  0  0  0  0  0  0  0
  141.7354  135.5724  153.8152 C   0  0  0  0  0  0  0  0  0  0  0  0
  142.3517  134.5245  153.2295 N   0  0  0  0  0  0  0  0  0  0  0  0
  143.5013  134.7467  152.5467 C   0  0  0  0  0  0  0  0  0  0  0  0
  144.1370  133.6359  151.9674 N   0  0  0  0  0  0  0  0  0  0  0  0
  144.1261  133.6679  150.5107 C   0  0  0  0  0  0  0  0  0  0  0  0
  144.6699  132.3415  149.9523 C   0  0  0  0  0  0  0  0  0  0  0  0
  145.9668  132.0900  150.4872 O   0  0  0  0  0  0  0  0  0  0  0  0
  145.9502  131.9894  151.9088 C   0  0  0  0  0  0  0  0  0  0  0  0
  145.4512  133.3139  152.5104 C   0  0  0  0  0  0  0  0  0  0  0  0
  149.1807  140.3069  155.1625 H   0  0  0  0  0  0  0  0  0  0  0  0
  148.8787  141.8622  154.3948 H   0  0  0  0  0  0  0  0  0  0  0  0
  149.6690  140.5848  153.4925 H   0  0  0  0  0  0  0  0  0  0  0  0
  147.2880  140.7794  152.8036 H   0  0  0  0  0  0  0  0  0  0  0  0
  146.5767  140.2630  155.7227 H   0  0  0  0  0  0  0  0  0  0  0  0
  145.4324  140.4190  154.3921 H   0  0  0  0  0  0  0  0  0  0  0  0
  146.4098  141.7983  154.8741 H   0  0  0  0  0  0  0  0  0  0  0  0
  148.4534  138.4436  153.1594 H   0  0  0  0  0  0  0  0  0  0  0  0
  147.3577  138.2584  154.4943 H   0  0  0  0  0  0  0  0  0  0  0  0
  145.4056  138.6034  152.8971 H   0  0  0  0  0  0  0  0  0  0  0  0
  146.5749  139.8684  151.1203 H   0  0  0  0  0  0  0  0  0  0  0  0
  145.8248  138.4201  150.4669 H   0  0  0  0  0  0  0  0  0  0  0  0
  147.5659  138.4630  150.7401 H   0  0  0  0  0  0  0  0  0  0  0  0
  147.3087  136.5158  152.1086 H   0  0  0  0  0  0  0  0  0  0  0  0
  145.1565  136.9930  150.8500 H   0  0  0  0  0  0  0  0  0  0  0  0
  145.6804  135.3558  151.1771 H   0  0  0  0  0  0  0  0  0  0  0  0
  143.8279  138.1219  152.9827 H   0  0  0  0  0  0  0  0  0  0  0  0
  141.7049  137.6985  154.2425 H   0  0  0  0  0  0  0  0  0  0  0  0
  140.8224  135.3538  154.3490 H   0  0  0  0  0  0  0  0  0  0  0  0
  143.1136  133.8410  150.1445 H   0  0  0  0  0  0  0  0  0  0  0  0
  144.7402  134.4989  150.1611 H   0  0  0  0  0  0  0  0  0  0  0  0
  144.0011  131.5145  150.1943 H   0  0  0  0  0  0  0  0  0  0  0  0
  144.7359  132.3905  148.8655 H   0  0  0  0  0  0  0  0  0  0  0  0
  145.3148  131.1576  152.2177 H   0  0  0  0  0  0  0  0  0  0  0  0
  146.9574  131.7705  152.2635 H   0  0  0  0  0  0  0  0  0  0  0  0
  146.1570  134.1124  152.2777 H   0  0  0  0  0  0  0  0  0  0  0  0
  145.3938  133.2365  153.5967 H   0  0  0  0  0  0  0  0  0  0  0  0
  1  2  1  0  0  0  0
  1 21  1  0  0  0  0
  1 22  1  0  0  0  0
  1 23  1  0  0  0  0
  2  3  1  0  0  0  0
  2  4  1  0  0  0  0
  2 24  1  0  0  0  0
  3 25  1  0  0  0  0
  3 26  1  0  0  0  0
  3 27  1  0  0  0  0
  4  5  1  0  0  0  0
  4 28  1  0  0  0  0
  4 29  1  0  0  0  0
  5  6  1  0  0  0  0
  5  7  1  0  0  0  0
  5 30  1  0  0  0  0
  6 31  1  0  0  0  0
  6 32  1  0  0  0  0
  6 33  1  0  0  0  0
  7  8  1  0  0  0  0
  7 34  1  0  0  0  0
  8  9  1  0  0  0  0
  8 35  1  0  0  0  0
  8 36  1  0  0  0  0
  9 14  1  0  0  0  0
  9 10  2  0  0  0  0
 10 11  1  0  0  0  0
 10 37  1  0  0  0  0
 11 12  2  0  0  0  0
 11 38  1  0  0  0  0
 12 13  1  0  0  0  0
 12 39  1  0  0  0  0
 13 14  2  0  0  0  0
 14 15  1  0  0  0  0
 15 20  1  0  0  0  0
 15 16  1  0  0  0  0
 16 17  1  0  0  0  0
 16 40  1  0  0  0  0
 16 41  1  0  0  0  0
 17 18  1  0  0  0  0
 17 42  1  0  0  0  0
 17 43  1  0  0  0  0
 18 19  1  0  0  0  0
 19 20  1  0  0  0  0
 19 44  1  0  0  0  0
 19 45  1  0  0  0  0
 20 46  1  0  0  0  0
 20 47  1  0  0  0  0
M  END
> <s_m_source_file>
AV-unprocessed.smi

> <i_m_source_file_index>
3346

> <i_lp_mmshare_version>
43012

> <i_f3d_flags>
0

> <s_epik_input>
W0NIM11bQ0hdKFtDSDNdKVtDSDJdW0NASF0oW0NIM10pW05IXVtDSDJdYzFbY0hdW2NIXVtjSF1uYzFOMltDSDJdW0NIMl1PW0NIMl1bQ0gyXTI=

> <s_epik_cmdline>
J2VwaWtfcHl0aG9uJywgJy1waCcsICc3LjAnLCAnLXRuJywgJzgnLCAnLW1hJywgJzIwMCcsICctbWV0YWxfYmluZGluZycsICctaW1hZScsICc8aW5maWxlLm1hZT4nLCAnLW9tYWUnLCAnPG91dGZpbGUubWFlPic=

> <r_lp_tautomer_probability>
1

> <r_epik_Ionization_Penalty>
2.09752

> <r_epik_Ionization_Penalty_Charging>
0

> <r_epik_Ionization_Penalty_Neutral>
2.09752

> <r_epik_State_Penalty>
2.22589

> <r_epik_Charging_Adjusted_Penalty>
2.22589

> <i_epik_Tot_Q>
0

> <i_epik_Tot_abs_Q>
0

> <r_epik_Metal_State_Penalty>
2.21996

> <b_epik_Metal_Only>
0

> <s_lp_Force_Field>
OPLS_2005

> <r_lp_Energy>
27.6792

> <b_lp_Chiralities_Consistent>
1

> <s_lp_Variant>
AV-unprocessed.smi:3346-4

> <Gold.Version>
5.8.1

> <Gold.Id.Protein>
6NUR|6NUR_protein|mol2

> <Gold.PLP.Fitness>
40.0043

> <Gold.PLP.PLP>
-35.3597

> <Gold.PLP.part.hbond>
-1.0000

> <Gold.PLP.part.metal>
0.0000

> <Gold.PLP.part.buried>
-3.6867

> <Gold.PLP.part.nonpolar>
-33.2939

> <Gold.PLP.part.repulsive>
0.4797

> <Gold.PLP.ligand.clash>
0.0000

> <Gold.PLP.ligand.torsion>
0.4661

> <Gold.PLP.Chemscore.Hbond>
1.0000

> <Gold.PLP.Chemscore.CHOScore>
0.7759

> <Gold.PLP.Chemscore.Metal>
0.0000

> <Gold.Chemscore.Hbonds>
donor molecule, donor type, donor heavy atom, donor atom, acceptor molecule, acceptor atom, score
      L1  H     7    34       P1  7948  1.00
      L1  C    12    39       P1 11000  0.71

> <Gold.PLP.Chemscore.Internal.Correction>
0.2492

> <Gold.Rescore>
     Score         DG    S(hbond)    S(metal)    S(lipo)     H(rot)  DE(clash)    DE(int)     intcor
     14.99     -16.13       1.00        0.00      96.49       1.55       0.65       0.50       ----

> <Gold.Chemscore.Fitness>
14.9927

> <Gold.Chemscore.DG>
-16.1343

> <Gold.Chemscore.ZeroCoef>
-5.4800

> <Gold.Chemscore.Hbond>
0.9991

> <Gold.Chemscore.Metal>
0.0000

> <Gold.Chemscore.Lipo>
96.4870

> <Gold.Chemscore.Internal_Hbond>
0.0000

> <Gold.Chemscore.DEClash>
0.6460

> <Gold.Chemscore.DEInternal>
0.4956

> <Gold.Chemscore.Rot>
1.5514

> <Gold.Chemscore.Internal.Correction>
   9.000000E+99

> <Gold.Chemscore.Hbonds>
donor molecule, donor type, donor heavy atom, donor atom, acceptor molecule, acceptor atom, score
      L1  H     7    34       P1  7948  1.00

> <Gold.Chemscore.Hbond.Weighted>
-3.3369

> <Gold.Chemscore.Metal.Weighted>
-0.0000

> <Gold.Chemscore.Lipo.Weighted>
-11.2890

> <Gold.Chemscore.Internal_Hbond.Weighted>
0.0000

> <Gold.Chemscore.DEClash.Weighted>
0.6460

> <Gold.Chemscore.DEInternal.Weighted>
0.4956

> <Gold.Chemscore.Rot.Weighted>
3.9715

> <Gold.Chemscore.Internal.Correction.Weighted>
   9.000000E+99

> <Gold.Protein.RotatedTorsions>
[ 6907 6896 6895 6894 ] final  -26.91 input  -60.11 | X-H torsion
[ 7974 7965 7964 7962 ] final   16.14 input  175.53 | X-H torsion
[ 8008 7997 7996 7995 ] final  -23.59 input   59.86 | X-H torsion
[ 10167 10162 10161 10158 ] final  -75.26 input  -65.29 | X-H torsion
[ 10718 10713 10712 10709 ] final   -3.73 input   66.30 | X-H torsion
[ 10763 10752 10751 10750 ] final  -12.78 input  -60.55 | X-H torsion
[ 11005 11000 10999 10996 ] final -105.96 input  -57.11 | X-H torsion

> <Gold.Protein.ActiveResidues>
 VAL166  LYS551  ARG553  GLY616  TRP617  ASP618  TYR619  PRO620  LYS621  CYS622 
 ASP623  PHE694  ASN695  SER759  ASP760  ASP761  ALA762  ILE779  LEU786  VAL792 
 PHE793  MET794  SER795  GLU796  ALA797  LYS798  CYS799  TRP800  GLU811  SER814 

> <Gold.Protein.RotatedAtoms>
  151.1543  135.0242  159.8681 H   0  0  0  0  0  0  0  0  0  0  0  0  # atno 6907 bound_to 6896
  152.5452  134.1352  159.8466 H   0  0  0  0  0  0  0  0  0  0  0  0  # atno 6908 bound_to 6896
  151.1441  133.4905  159.2629 H   0  0  0  0  0  0  0  0  0  0  0  0  # atno 6909 bound_to 6896
  146.2258  139.8792  142.8574 H   0  0  0  0  0  0  0  0  0  0  0  0  # atno 7974 bound_to 7965
  154.4577  140.1976  156.0333 H   0  0  0  0  0  0  0  0  0  0  0  0  # atno 8008 bound_to 7997
  156.0778  140.3275  155.7628 H   0  0  0  0  0  0  0  0  0  0  0  0  # atno 8009 bound_to 7997
  155.5160  140.0566  157.2906 H   0  0  0  0  0  0  0  0  0  0  0  0  # atno 8010 bound_to 7997
  140.4958  143.2371  151.7834 H   0  0  0  0  0  0  0  0  0  0  0  0  # atno 10167 bound_to 10162
  156.7717  130.5302  149.5766 H   0  0  0  0  0  0  0  0  0  0  0  0  # atno 10718 bound_to 10713
  153.5035  135.7017  153.5819 H   0  0  0  0  0  0  0  0  0  0  0  0  # atno 10763 bound_to 10752
  153.3940  135.3889  155.1942 H   0  0  0  0  0  0  0  0  0  0  0  0  # atno 10764 bound_to 10752
  154.8709  135.3865  154.4508 H   0  0  0  0  0  0  0  0  0  0  0  0  # atno 10765 bound_to 10752
  141.1028  133.8852  157.1798 H   0  0  0  0  0  0  0  0  0  0  0  0  # atno 11005 bound_to 11000
  145.2530  141.0050  143.3870 LP  0  0  0  0  0  0  0  0  0  0  0  0  # atno 17320 bound_to 7965
  144.9359  139.4244  143.6472 LP  0  0  0  0  0  0  0  0  0  0  0  0  # atno 17321 bound_to 7965
  139.4861  144.4589  151.9565 LP  0  0  0  0  0  0  0  0  0  0  0  0  # atno 17342 bound_to 10162
  140.3677  144.2895  150.5924 LP  0  0  0  0  0  0  0  0  0  0  0  0  # atno 17343 bound_to 10162
  156.1273  130.6153  151.0283 LP  0  0  0  0  0  0  0  0  0  0  0  0  # atno 17370 bound_to 10713
  157.6688  131.0866  150.7664 LP  0  0  0  0  0  0  0  0  0  0  0  0  # atno 17371 bound_to 10713
  139.9886  135.0073  156.9921 LP  0  0  0  0  0  0  0  0  0  0  0  0  # atno 17394 bound_to 11000
  140.4979  134.1127  155.7245 LP  0  0  0  0  0  0  0  0  0  0  0  0  # atno 17395 bound_to 11000

$$$$
