AV-unprocessed.smi:2424|AV-procd|sdf|9570|dock2
  -GOLD-   2272013203D 1   1.00000     0.00000
 Structure written by MMmdl.
 49 50  0  0  0  0  0  0  0  0  2 V2000
  149.6600  137.0378  157.9844 C   0  0  0  0  0  0  0  0  0  0  0  0
  149.5434  138.2377  157.0273 C   0  0  0  0  0  0  0  0  0  0  0  0
  149.1990  137.9051  155.5461 C   0  0  0  0  0  0  0  0  0  0  0  0
  150.3528  137.0538  154.9653 C   0  0  0  0  0  0  0  0  0  0  0  0
  151.6588  137.8090  154.6786 C   0  0  0  0  0  0  0  0  0  0  0  0
  147.7320  137.4515  155.2660 C   0  0  2  0  0  0  0  0  0  0  0  0
  147.5981  136.6437  154.0490 N   0  0  0  0  0  0  0  0  0  0  0  0
  146.5397  135.8860  153.7330 C   0  0  0  0  0  0  0  0  0  0  0  0
  145.5305  135.8074  154.4325 O   0  0  0  0  0  0  0  0  0  0  0  0
  146.7561  135.2253  152.5815 N   0  0  0  0  0  0  0  0  0  0  0  0
  145.9024  134.3499  151.8973 C   0  0  0  0  0  0  0  0  0  0  0  0
  144.5419  134.1657  152.1019 C   0  0  0  0  0  0  0  0  0  0  0  0
  143.7000  133.3396  151.4419 N   0  5  0  0  0  0  0  0  0  0  0  0
  144.2038  132.5672  150.4373 C   0  0  0  0  0  0  0  0  0  0  0  0
  143.4947  131.7907  149.7984 O   0  0  0  0  0  0  0  0  0  0  0  0
  145.6402  132.6712  150.1130 C   0  0  0  0  0  0  0  0  0  0  0  0
  146.2025  131.8112  148.9943 C   0  0  0  0  0  0  0  0  0  0  0  0
  146.4229  133.5243  150.8183 C   0  0  0  0  0  0  0  0  0  0  0  0
  147.3563  138.9252  155.0210 C   0  0  2  0  0  0  0  0  0  0  0  0
  146.2654  139.2865  154.0162 C   0  0  0  0  0  0  0  0  0  0  0  0
  148.8375  139.1361  154.6702 C   0  0  1  0  0  0  0  0  0  0  0  0
  149.4175  140.3494  155.1274 O   0  0  0  0  0  0  0  0  0  0  0  0
  148.7192  141.5034  154.6951 C   0  0  0  0  0  0  0  0  0  0  0  0
  150.0941  137.3504  158.9341 H   0  0  0  0  0  0  0  0  0  0  0  0
  150.2822  136.2388  157.5860 H   0  0  0  0  0  0  0  0  0  0  0  0
  148.6817  136.6144  158.2109 H   0  0  0  0  0  0  0  0  0  0  0  0
  148.7950  138.9009  157.4603 H   0  0  0  0  0  0  0  0  0  0  0  0
  150.4711  138.8089  157.0794 H   0  0  0  0  0  0  0  0  0  0  0  0
  150.5905  136.2380  155.6484 H   0  0  0  0  0  0  0  0  0  0  0  0
  150.0279  136.5528  154.0529 H   0  0  0  0  0  0  0  0  0  0  0  0
  152.4599  137.1089  154.4416 H   0  0  0  0  0  0  0  0  0  0  0  0
  151.9806  138.3989  155.5366 H   0  0  0  0  0  0  0  0  0  0  0  0
  151.5564  138.4752  153.8229 H   0  0  0  0  0  0  0  0  0  0  0  0
  147.2090  137.0342  156.1253 H   0  0  0  0  0  0  0  0  0  0  0  0
  148.3845  136.6423  153.4164 H   0  0  0  0  0  0  0  0  0  0  0  0
  147.6591  135.3580  152.1506 H   0  0  0  0  0  0  0  0  0  0  0  0
  144.0361  134.7747  152.8771 H   0  0  0  0  0  0  0  0  0  0  0  0
  147.2684  131.9909  148.8527 H   0  0  0  0  0  0  0  0  0  0  0  0
  145.6955  132.0296  148.0541 H   0  0  0  0  0  0  0  0  0  0  0  0
  146.0663  130.7536  149.2227 H   0  0  0  0  0  0  0  0  0  0  0  0
  147.4732  133.5934  150.5760 H   0  0  0  0  0  0  0  0  0  0  0  0
  147.1426  139.3874  155.9866 H   0  0  0  0  0  0  0  0  0  0  0  0
  146.5486  139.0197  152.9978 H   0  0  0  0  0  0  0  0  0  0  0  0
  146.0529  140.3551  154.0277 H   0  0  0  0  0  0  0  0  0  0  0  0
  145.3346  138.7677  154.2461 H   0  0  0  0  0  0  0  0  0  0  0  0
  149.0407  138.9599  153.6111 H   0  0  0  0  0  0  0  0  0  0  0  0
  149.2437  142.3951  155.0386 H   0  0  0  0  0  0  0  0  0  0  0  0
  147.7095  141.5336  155.1034 H   0  0  0  0  0  0  0  0  0  0  0  0
  148.6605  141.5465  153.6068 H   0  0  0  0  0  0  0  0  0  0  0  0
  1  2  1  0  0  0  0
  1 24  1  0  0  0  0
  1 25  1  0  0  0  0
  1 26  1  0  0  0  0
  2  3  1  0  0  0  0
  2 27  1  0  0  0  0
  2 28  1  0  0  0  0
  3 21  1  0  0  0  0
  3  4  1  0  0  0  0
  3  6  1  0  0  0  0
  4  5  1  0  0  0  0
  4 29  1  0  0  0  0
  4 30  1  0  0  0  0
  5 31  1  0  0  0  0
  5 32  1  0  0  0  0
  5 33  1  0  0  0  0
  6  7  1  0  0  0  0
  6 19  1  0  0  0  0
  6 34  1  0  0  0  0
  7  8  1  0  0  0  0
  7 35  1  0  0  0  0
  8  9  2  0  0  0  0
  8 10  1  0  0  0  0
 10 11  1  0  0  0  0
 10 36  1  0  0  0  0
 11 18  1  0  0  0  0
 11 12  2  0  0  0  0
 12 13  1  0  0  0  0
 12 37  1  0  0  0  0
 13 14  1  0  0  0  0
 14 15  2  0  0  0  0
 14 16  1  0  0  0  0
 16 17  1  0  0  0  0
 16 18  2  0  0  0  0
 17 38  1  0  0  0  0
 17 39  1  0  0  0  0
 17 40  1  0  0  0  0
 18 41  1  0  0  0  0
 19 20  1  0  0  0  0
 19 21  1  0  0  0  0
 19 42  1  0  0  0  0
 20 43  1  0  0  0  0
 20 44  1  0  0  0  0
 20 45  1  0  0  0  0
 21 22  1  0  0  0  0
 21 46  1  0  0  0  0
 22 23  1  0  0  0  0
 23 47  1  0  0  0  0
 23 48  1  0  0  0  0
 23 49  1  0  0  0  0
M  CHG  1  13  -1
M  END
> <s_m_source_file>
AV-unprocessed.smi

> <i_m_source_file_index>
2424

> <i_lp_mmshare_version>
43012

> <i_f3d_flags>
0

> <s_epik_input>
W0NIM11PW0NAQEhdMVtDQEhdKFtDSDNdKVtDQEBIXShDMShbQ0gyXVtDSDNdKVtDSDJdW0NIM10pW05IXUMoPU8pW05IXWMyW2NIXVtuSF1jKD1PKWMoW0NIM10pW2NIXTI=

> <s_epik_cmdline>
J2VwaWtfcHl0aG9uJywgJy1waCcsICc3LjAnLCAnLXRuJywgJzgnLCAnLW1hJywgJzIwMCcsICctbWV0YWxfYmluZGluZycsICctaW1hZScsICc8aW5maWxlLm1hZT4nLCAnLW9tYWUnLCAnPG91dGZpbGUubWFlPic=

> <r_lp_tautomer_probability>
1

> <r_epik_Ionization_Penalty>
7.6122

> <r_epik_Ionization_Penalty_Charging>
1.53843

> <r_epik_Ionization_Penalty_Neutral>
6.07377

> <r_epik_State_Penalty>
6.07371

> <r_epik_Charging_Adjusted_Penalty>
7.61214

> <i_epik_Tot_Q>
-1

> <i_epik_Tot_abs_Q>
1

> <r_epik_Metal_State_Penalty>
2.02136

> <b_epik_Metal_Only>
1

> <s_lp_Force_Field>
OPLS_2005

> <r_lp_Energy>
41.3797

> <b_lp_Chiralities_Consistent>
1

> <s_lp_Variant>
AV-unprocessed.smi:2424-12

> <Gold.Version>
5.8.1

> <Gold.Id.Protein>
6NUR|6NUR_protein|mol2

> <Gold.PLP.Fitness>
38.0548

> <Gold.PLP.PLP>
-30.0503

> <Gold.PLP.part.hbond>
-2.9197

> <Gold.PLP.part.metal>
0.0000

> <Gold.PLP.part.buried>
-4.4060

> <Gold.PLP.part.nonpolar>
-23.5573

> <Gold.PLP.part.repulsive>
1.0337

> <Gold.PLP.ligand.clash>
0.0000

> <Gold.PLP.ligand.torsion>
0.7133

> <Gold.PLP.Chemscore.Hbond>
2.9440

> <Gold.PLP.Chemscore.CHOScore>
0.0000

> <Gold.PLP.Chemscore.Metal>
0.0000

> <Gold.Chemscore.Hbonds>
donor molecule, donor type, donor heavy atom, donor atom, acceptor molecule, acceptor atom, score
      L1  H     7    35       P1  7948  0.94
      L1  H    10    36       P1  7948  1.00
      P1  H 10785 10796       L1    15  1.00

> <Gold.PLP.Chemscore.Internal.Correction>
0.5991

> <Gold.Rescore>
     Score         DG    S(hbond)    S(metal)    S(lipo)     H(rot)  DE(clash)    DE(int)     intcor
     18.17     -19.89       2.82        0.00      75.95       1.52       0.10       1.61       ----

> <Gold.Chemscore.Fitness>
18.1722

> <Gold.Chemscore.DG>
-19.8861

> <Gold.Chemscore.ZeroCoef>
-5.4800

> <Gold.Chemscore.Hbond>
2.8179

> <Gold.Chemscore.Metal>
0.0000

> <Gold.Chemscore.Lipo>
75.9519

> <Gold.Chemscore.Internal_Hbond>
0.0000

> <Gold.Chemscore.DEClash>
0.1046

> <Gold.Chemscore.DEInternal>
1.6093

> <Gold.Chemscore.Rot>
1.5204

> <Gold.Chemscore.Internal.Correction>
   9.000000E+99

> <Gold.Chemscore.Hbonds>
donor molecule, donor type, donor heavy atom, donor atom, acceptor molecule, acceptor atom, score
      L1  H     7    35       P1  7948  0.91
      L1  H    10    36       P1  7948  0.93
      P1  H 10785 10796       L1    15  0.93

> <Gold.Chemscore.Hbond.Weighted>
-9.4120

> <Gold.Chemscore.Metal.Weighted>
-0.0000

> <Gold.Chemscore.Lipo.Weighted>
-8.8864

> <Gold.Chemscore.Internal_Hbond.Weighted>
0.0000

> <Gold.Chemscore.DEClash.Weighted>
0.1046

> <Gold.Chemscore.DEInternal.Weighted>
1.6093

> <Gold.Chemscore.Rot.Weighted>
3.8922

> <Gold.Chemscore.Internal.Correction.Weighted>
   9.000000E+99

> <Gold.Protein.RotatedTorsions>
[ 6907 6896 6895 6894 ] final -175.44 input  -60.11 | X-H torsion
[ 7974 7965 7964 7962 ] final   -0.97 input  175.53 | X-H torsion
[ 8008 7997 7996 7995 ] final   76.08 input   59.86 | X-H torsion
[ 10167 10162 10161 10158 ] final  110.29 input  -65.29 | X-H torsion
[ 10718 10713 10712 10709 ] final  -60.54 input   66.30 | X-H torsion
[ 10763 10752 10751 10750 ] final   72.76 input  -60.55 | X-H torsion
[ 11005 11000 10999 10996 ] final -136.80 input  -57.11 | X-H torsion

> <Gold.Protein.ActiveResidues>
 VAL166  LYS551  ARG553  GLY616  TRP617  ASP618  TYR619  PRO620  LYS621  CYS622 
 ASP623  PHE694  ASN695  SER759  ASP760  ASP761  ALA762  ILE779  LEU786  VAL792 
 PHE793  MET794  SER795  GLU796  ALA797  LYS798  CYS799  TRP800  GLU811  SER814 

> <Gold.Protein.RotatedAtoms>
  151.5887  133.3369  159.3022 H   0  0  0  0  0  0  0  0  0  0  0  0  # atno 6907 bound_to 6896
  150.8272  134.7512  159.6834 H   0  0  0  0  0  0  0  0  0  0  0  0  # atno 6908 bound_to 6896
  152.4360  134.5691  159.9967 H   0  0  0  0  0  0  0  0  0  0  0  0  # atno 6909 bound_to 6896
  146.2422  140.1350  142.8337 H   0  0  0  0  0  0  0  0  0  0  0  0  # atno 7974 bound_to 7965
  155.8222  140.3469  155.5521 H   0  0  0  0  0  0  0  0  0  0  0  0  # atno 8008 bound_to 7997
  155.8330  140.0930  157.1801 H   0  0  0  0  0  0  0  0  0  0  0  0  # atno 8009 bound_to 7997
  154.4004  140.1408  156.3624 H   0  0  0  0  0  0  0  0  0  0  0  0  # atno 8010 bound_to 7997
  139.6700  144.7126  151.1706 H   0  0  0  0  0  0  0  0  0  0  0  0  # atno 10167 bound_to 10162
  156.0983  130.4190  150.0869 H   0  0  0  0  0  0  0  0  0  0  0  0  # atno 10718 bound_to 10713
  153.0479  135.5088  154.7792 H   0  0  0  0  0  0  0  0  0  0  0  0  # atno 10763 bound_to 10752
  154.6677  135.2948  154.9785 H   0  0  0  0  0  0  0  0  0  0  0  0  # atno 10764 bound_to 10752
  154.0614  135.6690  153.4865 H   0  0  0  0  0  0  0  0  0  0  0  0  # atno 10765 bound_to 10752
  140.8771  134.1978  157.4615 H   0  0  0  0  0  0  0  0  0  0  0  0  # atno 11005 bound_to 11000
  145.0294  140.8859  143.5118 LP  0  0  0  0  0  0  0  0  0  0  0  0  # atno 17320 bound_to 7965
  145.1412  139.2571  143.5489 LP  0  0  0  0  0  0  0  0  0  0  0  0  # atno 17321 bound_to 7965
  140.7614  143.5859  150.8846 LP  0  0  0  0  0  0  0  0  0  0  0  0  # atno 17342 bound_to 10162
  139.9524  143.6257  152.3025 LP  0  0  0  0  0  0  0  0  0  0  0  0  # atno 17343 bound_to 10162
  156.8862  130.9573  151.3594 LP  0  0  0  0  0  0  0  0  0  0  0  0  # atno 17370 bound_to 10713
  157.6149  130.8610  149.9011 LP  0  0  0  0  0  0  0  0  0  0  0  0  # atno 17371 bound_to 10713
  139.8716  134.9800  156.5061 LP  0  0  0  0  0  0  0  0  0  0  0  0  # atno 17394 bound_to 11000
  140.8505  133.8136  155.9164 LP  0  0  0  0  0  0  0  0  0  0  0  0  # atno 17395 bound_to 11000

$$$$
