AV-unprocessed.smi:634|AV-procd|sdf|3138|dock6
  -GOLD-   22720 0 63D 1   1.00000     0.00000
 Structure written by MMmdl.
 32 33  0  0  0  0  0  0  0  0  2 V2000
  153.3351  142.2163  161.2087 C   0  0  0  0  0  0  0  0  0  0  0  0
  152.6053  142.3967  159.9222 C   0  0  0  0  0  0  0  0  0  0  0  0
  152.2820  141.5394  158.9085 C   0  0  0  0  0  0  0  0  0  0  0  0
  151.5878  142.3731  157.9916 C   0  0  0  0  0  0  0  0  0  0  0  0
  151.0813  141.8452  156.7748 N   0  0  0  0  0  0  0  0  0  0  0  0
  151.4243  140.7093  156.1412 C   0  0  0  0  0  0  0  0  0  0  0  0
  152.3127  139.9825  156.5983 O   0  0  0  0  0  0  0  0  0  0  0  0
  150.6928  140.5122  155.0081 N   0  5  0  0  0  0  0  0  0  0  0  0
  149.2287  140.3847  154.8867 C   0  0  2  0  0  0  0  0  0  0  0  0
  148.9609  139.0714  154.1222 C   0  0  0  0  0  0  0  0  0  0  0  0
  148.6044  141.5733  154.1056 C   0  0  0  0  0  0  0  0  0  0  0  0
  147.0821  141.5822  154.3186 C   0  0  0  0  0  0  0  0  0  0  0  0
  146.7996  140.8751  155.9882 S   0  0  0  0  0  0  0  0  0  0  0  0
  146.4707  141.9558  156.9308 O   0  0  0  0  0  0  0  0  0  0  0  0
  145.9286  139.6952  155.8654 O   0  0  0  0  0  0  0  0  0  0  0  0
  148.5343  140.3379  156.2677 C   0  0  0  0  0  0  0  0  0  0  0  0
  151.4939  143.6266  158.4111 N   0  0  0  0  0  0  0  0  0  0  0  0
  152.1448  143.6478  159.6501 O   0  0  0  0  0  0  0  0  0  0  0  0
  153.8643  141.2634  161.2257 H   0  0  0  0  0  0  0  0  0  0  0  0
  152.6428  142.2345  162.0505 H   0  0  0  0  0  0  0  0  0  0  0  0
  154.0671  143.0108  161.3540 H   0  0  0  0  0  0  0  0  0  0  0  0
  152.5087  140.4862  158.8343 H   0  0  0  0  0  0  0  0  0  0  0  0
  150.3534  142.3869  156.3333 H   0  0  0  0  0  0  0  0  0  0  0  0
  147.8953  138.8799  153.9970 H   0  0  0  0  0  0  0  0  0  0  0  0
  149.3814  138.2129  154.6476 H   0  0  0  0  0  0  0  0  0  0  0  0
  149.4048  139.0935  153.1261 H   0  0  0  0  0  0  0  0  0  0  0  0
  148.9869  142.5206  154.4847 H   0  0  0  0  0  0  0  0  0  0  0  0
  148.8567  141.5452  153.0450 H   0  0  0  0  0  0  0  0  0  0  0  0
  146.6578  142.5845  154.2610 H   0  0  0  0  0  0  0  0  0  0  0  0
  146.5736  140.9512  153.5886 H   0  0  0  0  0  0  0  0  0  0  0  0
  148.5510  139.3491  156.7262 H   0  0  0  0  0  0  0  0  0  0  0  0
  148.9713  141.0407  156.9761 H   0  0  0  0  0  0  0  0  0  0  0  0
  1  2  1  0  0  0  0
  1 19  1  0  0  0  0
  1 20  1  0  0  0  0
  1 21  1  0  0  0  0
  2 18  1  0  0  0  0
  2  3  2  0  0  0  0
  3  4  1  0  0  0  0
  3 22  1  0  0  0  0
  4  5  1  0  0  0  0
  4 17  2  0  0  0  0
  5  6  1  0  0  0  0
  5 23  1  0  0  0  0
  6  7  2  0  0  0  0
  6  8  1  0  0  0  0
  8  9  1  0  0  0  0
  9 16  1  0  0  0  0
  9 10  1  0  0  0  0
  9 11  1  0  0  0  0
 10 24  1  0  0  0  0
 10 25  1  0  0  0  0
 10 26  1  0  0  0  0
 11 12  1  0  0  0  0
 11 27  1  0  0  0  0
 11 28  1  0  0  0  0
 12 13  1  0  0  0  0
 12 29  1  0  0  0  0
 12 30  1  0  0  0  0
 13 14  2  0  0  0  0
 13 15  2  0  0  0  0
 13 16  1  0  0  0  0
 16 31  1  0  0  0  0
 16 32  1  0  0  0  0
 17 18  1  0  0  0  0
M  CHG  1   8  -1
M  END
> <s_m_source_file>
AV-unprocessed.smi

> <i_m_source_file_index>
634

> <i_lp_mmshare_version>
43012

> <i_f3d_flags>
0

> <s_epik_input>
W0NIM11jMVtjSF1jKG5vMSlbTkhdQyg9TylbTkhdW0NAQF0yKFtDSDNdKVtDSDJdW0NIMl1TKD1PKSg9TylbQ0gyXTI=

> <s_epik_cmdline>
J2VwaWtfcHl0aG9uJywgJy1waCcsICc3LjAnLCAnLXRuJywgJzgnLCAnLW1hJywgJzIwMCcsICctbWV0YWxfYmluZGluZycsICctaW1hZScsICc8aW5maWxlLm1hZT4nLCAnLW9tYWUnLCAnPG91dGZpbGUubWFlPic=

> <r_lp_tautomer_probability>
1

> <r_epik_Ionization_Penalty>
6.62388

> <r_epik_Ionization_Penalty_Charging>
6.62387

> <r_epik_Ionization_Penalty_Neutral>
5.45748e-06

> <r_epik_State_Penalty>
6.65157

> <r_epik_Charging_Adjusted_Penalty>
13.2754

> <i_epik_Tot_Q>
-1

> <i_epik_Tot_abs_Q>
1

> <r_epik_Metal_State_Penalty>
2.59195

> <b_epik_Metal_Only>
1

> <s_lp_Force_Field>
OPLS_2005

> <r_lp_Energy>
8.10378

> <b_lp_Chiralities_Consistent>
1

> <s_lp_Variant>
AV-unprocessed.smi:634-6

> <Gold.Version>
5.8.1

> <Gold.Id.Protein>
6NUR|6NUR_protein|mol2

> <Gold.PLP.Fitness>
33.9572

> <Gold.PLP.PLP>
-29.3439

> <Gold.PLP.part.hbond>
-2.0000

> <Gold.PLP.part.metal>
0.0000

> <Gold.PLP.part.buried>
-3.9680

> <Gold.PLP.part.nonpolar>
-23.3376

> <Gold.PLP.part.repulsive>
0.3789

> <Gold.PLP.ligand.clash>
0.0000

> <Gold.PLP.ligand.torsion>
0.6972

> <Gold.PLP.Chemscore.Hbond>
2.0000

> <Gold.PLP.Chemscore.CHOScore>
0.0000

> <Gold.PLP.Chemscore.Metal>
0.0000

> <Gold.Chemscore.Hbonds>
donor molecule, donor type, donor heavy atom, donor atom, acceptor molecule, acceptor atom, score
      P1  H  7989  7998       L1     8  1.00
      P1  H  7997  8008       L1     7  0.98

> <Gold.PLP.Chemscore.Internal.Correction>
0.0078

> <Gold.Rescore>
     Score         DG    S(hbond)    S(metal)    S(lipo)     H(rot)  DE(clash)    DE(int)     intcor
     13.81     -15.97       1.81        0.00      59.91       1.00       0.00       2.15       ----

> <Gold.Chemscore.Fitness>
13.8104

> <Gold.Chemscore.DG>
-15.9672

> <Gold.Chemscore.ZeroCoef>
-5.4800

> <Gold.Chemscore.Hbond>
1.8078

> <Gold.Chemscore.Metal>
0.0000

> <Gold.Chemscore.Lipo>
59.9070

> <Gold.Chemscore.Internal_Hbond>
0.0000

> <Gold.Chemscore.DEClash>
0.0021

> <Gold.Chemscore.DEInternal>
2.1547

> <Gold.Chemscore.Rot>
1.0000

> <Gold.Chemscore.Internal.Correction>
   9.000000E+99

> <Gold.Chemscore.Hbonds>
donor molecule, donor type, donor heavy atom, donor atom, acceptor molecule, acceptor atom, score
      P1  H  7989  7998       L1     8  0.78
      P1  H  7997  8008       L1     7  0.90

> <Gold.Chemscore.Hbond.Weighted>
-6.0381

> <Gold.Chemscore.Metal.Weighted>
-0.0000

> <Gold.Chemscore.Lipo.Weighted>
-7.0091

> <Gold.Chemscore.Internal_Hbond.Weighted>
0.0000

> <Gold.Chemscore.DEClash.Weighted>
0.0021

> <Gold.Chemscore.DEInternal.Weighted>
2.1547

> <Gold.Chemscore.Rot.Weighted>
2.5600

> <Gold.Chemscore.Internal.Correction.Weighted>
   9.000000E+99

> <Gold.Protein.RotatedTorsions>
[ 6907 6896 6895 6894 ] final -161.30 input  -60.11 | X-H torsion
[ 7974 7965 7964 7962 ] final -156.93 input  175.53 | X-H torsion
[ 8008 7997 7996 7995 ] final  -41.42 input   59.86 | X-H torsion
[ 10167 10162 10161 10158 ] final   99.35 input  -65.29 | X-H torsion
[ 10718 10713 10712 10709 ] final -132.08 input   66.30 | X-H torsion
[ 10763 10752 10751 10750 ] final -149.97 input  -60.55 | X-H torsion
[ 11005 11000 10999 10996 ] final   66.78 input  -57.11 | X-H torsion

> <Gold.Protein.ActiveResidues>
 VAL166  LYS551  ARG553  GLY616  TRP617  ASP618  TYR619  PRO620  LYS621  CYS622 
 ASP623  PHE694  ASN695  SER759  ASP760  ASP761  ALA762  ILE779  LEU786  VAL792 
 PHE793  MET794  SER795  GLU796  ALA797  LYS798  CYS799  TRP800  GLU811  SER814 

> <Gold.Protein.RotatedAtoms>
  151.3626  133.3884  159.2690 H   0  0  0  0  0  0  0  0  0  0  0  0  # atno 6907 bound_to 6896
  150.9714  134.9087  159.7800 H   0  0  0  0  0  0  0  0  0  0  0  0  # atno 6908 bound_to 6896
  152.5186  134.3588  159.9329 H   0  0  0  0  0  0  0  0  0  0  0  0  # atno 6909 bound_to 6896
  144.7571  140.4041  143.6004 H   0  0  0  0  0  0  0  0  0  0  0  0  # atno 7974 bound_to 7965
  154.4004  140.1500  156.3188 H   0  0  0  0  0  0  0  0  0  0  0  0  # atno 8008 bound_to 7997
  155.8549  140.3456  155.5696 H   0  0  0  0  0  0  0  0  0  0  0  0  # atno 8009 bound_to 7997
  155.7944  140.0861  157.1982 H   0  0  0  0  0  0  0  0  0  0  0  0  # atno 8010 bound_to 7997
  139.7626  144.6949  151.0271 H   0  0  0  0  0  0  0  0  0  0  0  0  # atno 10167 bound_to 10162
  156.2309  130.7037  151.0857 H   0  0  0  0  0  0  0  0  0  0  0  0  # atno 10718 bound_to 10713
  154.8146  135.3296  154.7211 H   0  0  0  0  0  0  0  0  0  0  0  0  # atno 10763 bound_to 10752
  153.7854  135.6915  153.4885 H   0  0  0  0  0  0  0  0  0  0  0  0  # atno 10764 bound_to 10752
  153.1952  135.4536  155.0146 H   0  0  0  0  0  0  0  0  0  0  0  0  # atno 10765 bound_to 10752
  139.9811  134.6743  156.0261 H   0  0  0  0  0  0  0  0  0  0  0  0  # atno 11005 bound_to 11000
  145.6743  139.1605  143.2737 LP  0  0  0  0  0  0  0  0  0  0  0  0  # atno 17320 bound_to 7965
  146.1593  140.6811  142.9285 LP  0  0  0  0  0  0  0  0  0  0  0  0  # atno 17321 bound_to 7965
  140.7808  143.4680  151.0185 LP  0  0  0  0  0  0  0  0  0  0  0  0  # atno 17342 bound_to 10162
  139.8366  143.7620  152.3180 LP  0  0  0  0  0  0  0  0  0  0  0  0  # atno 17343 bound_to 10162
  157.7132  131.0723  150.6423 LP  0  0  0  0  0  0  0  0  0  0  0  0  # atno 17370 bound_to 10713
  156.6490  130.4480  149.5726 LP  0  0  0  0  0  0  0  0  0  0  0  0  # atno 17371 bound_to 10713
  141.1483  133.6552  156.3934 LP  0  0  0  0  0  0  0  0  0  0  0  0  # atno 17394 bound_to 11000
  140.5095  134.6409  157.5279 LP  0  0  0  0  0  0  0  0  0  0  0  0  # atno 17395 bound_to 11000

$$$$
