AV-unprocessed.smi:1295|AV-procd|sdf|5411|dock4
  -GOLD-   22720 4573D 1   1.00000     0.00000
 Structure written by MMmdl.
 42 43  0  0  0  0  0  0  0  0  2 V2000
  150.4372  135.7396  154.0924 C   0  0  0  0  0  0  0  0  0  0  0  0
  150.4359  136.8925  155.0731 C   0  0  0  0  0  0  0  0  0  0  0  0
  150.0366  136.6936  156.2712 N   0  0  0  0  0  0  0  0  0  0  0  0
  150.0320  137.7608  157.1850 C   0  0  0  0  0  0  0  0  0  0  0  0
  149.5633  137.4295  158.5907 C   0  0  0  0  0  0  0  0  0  0  0  0
  150.4385  139.0087  156.8145 C   0  0  0  0  0  0  0  0  0  0  0  0
  150.4723  140.1984  157.7766 C   0  0  0  0  0  0  0  0  0  0  0  0
  151.8606  140.7637  158.0873 C   0  0  0  0  0  0  0  0  0  0  0  0
  152.8637  140.2305  157.6141 O   0  0  0  0  0  0  0  0  0  0  0  0
  151.8983  141.8436  158.8819 N   0  0  0  0  0  0  0  0  0  0  0  0
  153.0836  142.6075  159.2621 C   0  0  2  0  0  0  0  0  0  0  0  0
  154.2267  141.6563  159.6718 C   0  0  0  0  0  0  0  0  0  0  0  0
  153.9309  140.9326  160.9971 C   0  0  0  0  0  0  0  0  0  0  0  0
  153.6117  141.9331  162.1177 C   0  0  0  0  0  0  0  0  0  0  0  0
  152.4558  142.8665  161.7232 C   0  0  0  0  0  0  0  0  0  0  0  0
  152.7473  143.6042  160.3992 C   0  0  2  0  0  0  0  0  0  0  0  0
  151.6044  144.5663  160.0278 C   0  0  0  0  0  0  0  0  0  0  0  0
  150.8981  139.1942  155.4263 C   0  0  0  0  0  0  0  0  0  0  0  0
  151.3014  140.2934  155.0483 O   0  0  0  0  0  0  0  0  0  0  0  0
  150.8730  138.1096  154.6009 N   0  5  0  0  0  0  0  0  0  0  0  0
  150.2176  134.7963  154.5943 H   0  0  0  0  0  0  0  0  0  0  0  0
  151.4117  135.6498  153.6111 H   0  0  0  0  0  0  0  0  0  0  0  0
  149.6834  135.9007  153.3212 H   0  0  0  0  0  0  0  0  0  0  0  0
  148.6621  137.9918  158.8358 H   0  0  0  0  0  0  0  0  0  0  0  0
  150.3359  137.6745  159.3198 H   0  0  0  0  0  0  0  0  0  0  0  0
  149.3345  136.3681  158.6911 H   0  0  0  0  0  0  0  0  0  0  0  0
  149.8443  141.0107  157.4093 H   0  0  0  0  0  0  0  0  0  0  0  0
  150.0107  139.8962  158.7169 H   0  0  0  0  0  0  0  0  0  0  0  0
  151.0149  142.1926  159.2261 H   0  0  0  0  0  0  0  0  0  0  0  0
  153.4196  143.1882  158.4013 H   0  0  0  0  0  0  0  0  0  0  0  0
  154.4135  140.9277  158.8820 H   0  0  0  0  0  0  0  0  0  0  0  0
  155.1483  142.2297  159.7776 H   0  0  0  0  0  0  0  0  0  0  0  0
  153.0905  140.2497  160.8659 H   0  0  0  0  0  0  0  0  0  0  0  0
  154.7847  140.3172  161.2815 H   0  0  0  0  0  0  0  0  0  0  0  0
  153.3596  141.3970  163.0330 H   0  0  0  0  0  0  0  0  0  0  0  0
  154.4994  142.5262  162.3407 H   0  0  0  0  0  0  0  0  0  0  0  0
  151.5343  142.2887  161.6345 H   0  0  0  0  0  0  0  0  0  0  0  0
  152.2860  143.5895  162.5215 H   0  0  0  0  0  0  0  0  0  0  0  0
  153.6351  144.2177  160.5600 H   0  0  0  0  0  0  0  0  0  0  0  0
  150.6560  144.0417  159.9048 H   0  0  0  0  0  0  0  0  0  0  0  0
  151.8192  145.0880  159.0949 H   0  0  0  0  0  0  0  0  0  0  0  0
  151.4624  145.3205  160.8021 H   0  0  0  0  0  0  0  0  0  0  0  0
  1  2  1  0  0  0  0
  1 21  1  0  0  0  0
  1 22  1  0  0  0  0
  1 23  1  0  0  0  0
  2 20  1  0  0  0  0
  2  3  2  0  0  0  0
  3  4  1  0  0  0  0
  4  5  1  0  0  0  0
  4  6  2  0  0  0  0
  5 24  1  0  0  0  0
  5 25  1  0  0  0  0
  5 26  1  0  0  0  0
  6  7  1  0  0  0  0
  6 18  1  0  0  0  0
  7  8  1  0  0  0  0
  7 27  1  0  0  0  0
  7 28  1  0  0  0  0
  8  9  2  0  0  0  0
  8 10  1  0  0  0  0
 10 11  1  0  0  0  0
 10 29  1  0  0  0  0
 11 16  1  0  0  0  0
 11 12  1  0  0  0  0
 11 30  1  0  0  0  0
 12 13  1  0  0  0  0
 12 31  1  0  0  0  0
 12 32  1  0  0  0  0
 13 14  1  0  0  0  0
 13 33  1  0  0  0  0
 13 34  1  0  0  0  0
 14 15  1  0  0  0  0
 14 35  1  0  0  0  0
 14 36  1  0  0  0  0
 15 16  1  0  0  0  0
 15 37  1  0  0  0  0
 15 38  1  0  0  0  0
 16 17  1  0  0  0  0
 16 39  1  0  0  0  0
 17 40  1  0  0  0  0
 17 41  1  0  0  0  0
 17 42  1  0  0  0  0
 18 19  2  0  0  0  0
 18 20  1  0  0  0  0
M  CHG  1  20  -1
M  END
> <s_m_source_file>
AV-unprocessed.smi

> <i_m_source_file_index>
1295

> <i_lp_mmshare_version>
43012

> <i_f3d_flags>
0

> <s_epik_input>
W0NIM11jMW5jKFtDSDNdKWMoYyg9TylbbkhdMSlbQ0gyXUMoPU8pW05IXVtDQEBIXTJbQ0gyXVtDSDJdW0NIMl1bQ0gyXVtDQEhdMltDSDNd

> <s_epik_cmdline>
J2VwaWtfcHl0aG9uJywgJy1waCcsICc3LjAnLCAnLXRuJywgJzgnLCAnLW1hJywgJzIwMCcsICctbWV0YWxfYmluZGluZycsICctaW1hZScsICc8aW5maWxlLm1hZT4nLCAnLW9tYWUnLCAnPG91dGZpbGUubWFlPic=

> <r_lp_tautomer_probability>
0.839158

> <r_epik_Ionization_Penalty>
6.67742

> <r_epik_Ionization_Penalty_Charging>
7.78154e-08

> <r_epik_Ionization_Penalty_Neutral>
6.67742

> <r_epik_State_Penalty>
4.51991

> <r_epik_Charging_Adjusted_Penalty>
4.51991

> <i_epik_Tot_Q>
-1

> <i_epik_Tot_abs_Q>
1

> <r_epik_Metal_State_Penalty>
0.853272

> <b_epik_Metal_Only>
1

> <s_lp_Force_Field>
OPLS_2005

> <r_lp_Energy>
12.2009

> <b_lp_Chiralities_Consistent>
1

> <s_lp_Variant>
AV-unprocessed.smi:1295-11

> <Gold.Version>
5.8.1

> <Gold.Id.Protein>
6NUR|6NUR_protein|mol2

> <Gold.PLP.Fitness>
45.8621

> <Gold.PLP.PLP>
-40.1964

> <Gold.PLP.part.hbond>
-2.0000

> <Gold.PLP.part.metal>
0.0000

> <Gold.PLP.part.buried>
-5.7567

> <Gold.PLP.part.nonpolar>
-32.0466

> <Gold.PLP.part.repulsive>
0.2502

> <Gold.PLP.ligand.clash>
0.0000

> <Gold.PLP.ligand.torsion>
0.1716

> <Gold.PLP.Chemscore.Hbond>
2.0000

> <Gold.PLP.Chemscore.CHOScore>
0.0000

> <Gold.PLP.Chemscore.Metal>
0.0000

> <Gold.Chemscore.Hbonds>
donor molecule, donor type, donor heavy atom, donor atom, acceptor molecule, acceptor atom, score
      P1  H  7989  7998       L1    19  1.00
      P1  H  7997  8009       L1     9  0.91

> <Gold.PLP.Chemscore.Internal.Correction>
0.0089

> <Gold.Rescore>
     Score         DG    S(hbond)    S(metal)    S(lipo)     H(rot)  DE(clash)    DE(int)     intcor
     18.78     -20.39       1.95        0.00     103.42       1.45       0.07       1.54       ----

> <Gold.Chemscore.Fitness>
18.7821

> <Gold.Chemscore.DG>
-20.3917

> <Gold.Chemscore.ZeroCoef>
-5.4800

> <Gold.Chemscore.Hbond>
1.9494

> <Gold.Chemscore.Metal>
0.0000

> <Gold.Chemscore.Lipo>
103.4176

> <Gold.Chemscore.Internal_Hbond>
0.0000

> <Gold.Chemscore.DEClash>
0.0673

> <Gold.Chemscore.DEInternal>
1.5423

> <Gold.Chemscore.Rot>
1.4450

> <Gold.Chemscore.Internal.Correction>
   9.000000E+99

> <Gold.Chemscore.Hbonds>
donor molecule, donor type, donor heavy atom, donor atom, acceptor molecule, acceptor atom, score
      P1  H  7989  7998       L1    19  0.97
      P1  H  7997  8009       L1     9  0.88

> <Gold.Chemscore.Hbond.Weighted>
-6.5110

> <Gold.Chemscore.Metal.Weighted>
-0.0000

> <Gold.Chemscore.Lipo.Weighted>
-12.0999

> <Gold.Chemscore.Internal_Hbond.Weighted>
0.0000

> <Gold.Chemscore.DEClash.Weighted>
0.0673

> <Gold.Chemscore.DEInternal.Weighted>
1.5423

> <Gold.Chemscore.Rot.Weighted>
3.6992

> <Gold.Chemscore.Internal.Correction.Weighted>
   9.000000E+99

> <Gold.Protein.RotatedTorsions>
[ 6907 6896 6895 6894 ] final  -96.75 input  -60.11 | X-H torsion
[ 7974 7965 7964 7962 ] final  142.78 input  175.53 | X-H torsion
[ 8008 7997 7996 7995 ] final  159.05 input   59.86 | X-H torsion
[ 10167 10162 10161 10158 ] final   95.08 input  -65.29 | X-H torsion
[ 10718 10713 10712 10709 ] final   75.08 input   66.30 | X-H torsion
[ 10763 10752 10751 10750 ] final  -82.71 input  -60.55 | X-H torsion
[ 11005 11000 10999 10996 ] final  -91.04 input  -57.11 | X-H torsion

> <Gold.Protein.ActiveResidues>
 VAL166  LYS551  ARG553  GLY616  TRP617  ASP618  TYR619  PRO620  LYS621  CYS622 
 ASP623  PHE694  ASN695  SER759  ASP760  ASP761  ALA762  ILE779  LEU786  VAL792 
 PHE793  MET794  SER795  GLU796  ALA797  LYS798  CYS799  TRP800  GLU811  SER814 

> <Gold.Protein.RotatedAtoms>
  150.6997  134.1455  159.4120 H   0  0  0  0  0  0  0  0  0  0  0  0  # atno 6907 bound_to 6896
  151.9439  135.0198  160.0547 H   0  0  0  0  0  0  0  0  0  0  0  0  # atno 6908 bound_to 6896
  152.2070  133.4847  159.5126 H   0  0  0  0  0  0  0  0  0  0  0  0  # atno 6909 bound_to 6896
  144.8977  139.5467  143.5768 H   0  0  0  0  0  0  0  0  0  0  0  0  # atno 7974 bound_to 7965
  156.2264  140.1841  156.7353 H   0  0  0  0  0  0  0  0  0  0  0  0  # atno 8008 bound_to 7997
  154.5947  140.0645  156.9316 H   0  0  0  0  0  0  0  0  0  0  0  0  # atno 8009 bound_to 7997
  155.2275  140.3312  155.4310 H   0  0  0  0  0  0  0  0  0  0  0  0  # atno 8010 bound_to 7997
  139.8023  144.6808  150.9749 H   0  0  0  0  0  0  0  0  0  0  0  0  # atno 10167 bound_to 10162
  157.6619  130.9709  150.1303 H   0  0  0  0  0  0  0  0  0  0  0  0  # atno 10718 bound_to 10713
  154.5790  135.5582  153.7167 H   0  0  0  0  0  0  0  0  0  0  0  0  # atno 10763 bound_to 10752
  153.0074  135.6315  154.2009 H   0  0  0  0  0  0  0  0  0  0  0  0  # atno 10764 bound_to 10752
  154.1950  135.2880  155.2989 H   0  0  0  0  0  0  0  0  0  0  0  0  # atno 10765 bound_to 10752
  141.1553  133.7730  156.9823 H   0  0  0  0  0  0  0  0  0  0  0  0  # atno 11005 bound_to 11000
  146.3091  139.7682  142.9034 LP  0  0  0  0  0  0  0  0  0  0  0  0  # atno 17320 bound_to 7965
  145.3671  141.0336  143.3252 LP  0  0  0  0  0  0  0  0  0  0  0  0  # atno 17321 bound_to 7965
  140.7820  143.4269  151.0754 LP  0  0  0  0  0  0  0  0  0  0  0  0  # atno 17342 bound_to 10162
  139.7940  143.8177  152.3155 LP  0  0  0  0  0  0  0  0  0  0  0  0  # atno 17343 bound_to 10162
  156.2151  130.3669  149.8623 LP  0  0  0  0  0  0  0  0  0  0  0  0  # atno 17370 bound_to 10713
  156.6491  130.8736  151.3528 LP  0  0  0  0  0  0  0  0  0  0  0  0  # atno 17371 bound_to 10713
  140.1058  134.9507  157.1991 LP  0  0  0  0  0  0  0  0  0  0  0  0  # atno 17394 bound_to 11000
  140.3259  134.2864  155.7237 LP  0  0  0  0  0  0  0  0  0  0  0  0  # atno 17395 bound_to 11000

$$$$
