AV-unprocessed.smi:33|AV-procd|sdf|199|dock2
  -GOLD-   2262015473D 1   1.00000     0.00000
 Structure written by MMmdl.
 67 72  0  0  0  0  0  0  0  0  1 V2000
  147.8726  142.6476  159.2040 O   0  0  0  0  0  0  0  0  0  0  0  0
  148.8699  142.5962  158.4812 C   0  0  0  0  0  0  0  0  0  0  0  0
  148.9891  141.7590  157.4344 O   0  0  0  0  0  0  0  0  0  0  0  0
  147.9049  140.9257  157.0596 C   0  0  0  0  0  0  0  0  0  0  0  0
  148.3761  139.9941  155.9390 C   0  0  2  0  0  0  0  0  0  0  0  0
  149.7427  139.6420  156.1084 O   0  0  0  0  0  0  0  0  0  0  0  0
  150.2307  139.1336  154.9033 C   0  0  1  0  0  0  0  0  0  0  0  0
  150.1973  137.6352  154.9740 N   0  0  0  0  0  0  0  0  0  0  0  0
  151.2043  136.7209  154.7388 C   0  0  0  0  0  0  0  0  0  0  0  0
  150.8638  135.4676  154.8760 N   0  0  0  0  0  0  0  0  0  0  0  0
  149.5197  135.5209  155.2204 C   0  0  0  0  0  0  0  0  0  0  0  0
  148.5328  134.5423  155.5140 C   0  0  0  0  0  0  0  0  0  0  0  0
  148.7931  133.2141  155.5112 N   0  0  0  0  0  0  0  0  0  0  0  0
  147.8580  132.3526  154.7730 C   0  0  0  0  0  0  0  0  0  0  0  0
  147.7386  131.1687  155.0942 O   0  0  0  0  0  0  0  0  0  0  0  0
  147.0175  132.9167  153.6629 C   0  0  0  0  0  0  0  0  0  0  0  0
  147.5834  133.1352  152.3877 C   0  0  0  0  0  0  0  0  0  0  0  0
  146.8032  133.6782  151.3484 C   0  0  0  0  0  0  0  0  0  0  0  0
  145.4584  134.0227  151.5825 C   0  0  0  0  0  0  0  0  0  0  0  0
  144.8965  133.8346  152.8595 C   0  0  0  0  0  0  0  0  0  0  0  0
  145.6757  133.2918  153.8993 C   0  0  0  0  0  0  0  0  0  0  0  0
  149.9812  132.7563  156.2464 C   0  0  0  0  0  0  0  0  0  0  0  0
  150.4241  133.4397  157.1715 O   0  0  0  0  0  0  0  0  0  0  0  0
  150.6219  131.4384  155.9148 C   0  0  0  0  0  0  0  0  0  0  0  0
  150.4683  130.8831  154.6255 C   0  0  0  0  0  0  0  0  0  0  0  0
  151.0567  129.6426  154.3122 C   0  0  0  0  0  0  0  0  0  0  0  0
  151.7851  128.9406  155.2912 C   0  0  0  0  0  0  0  0  0  0  0  0
  151.9178  129.4750  156.5869 C   0  0  0  0  0  0  0  0  0  0  0  0
  151.3317  130.7164  156.9005 C   0  0  0  0  0  0  0  0  0  0  0  0
  147.2782  134.9712  155.8102 N   0  0  0  0  0  0  0  0  0  0  0  0
  147.0089  136.2805  155.8207 C   0  0  0  0  0  0  0  0  0  0  0  0
  147.8296  137.3047  155.5727 N   0  0  0  0  0  0  0  0  0  0  0  0
  149.0892  136.8738  155.2731 C   0  0  0  0  0  0  0  0  0  0  0  0
  149.3265  139.6994  153.7777 C   0  0  1  0  0  0  0  0  0  0  0  0
  148.5860  138.7262  153.0611 O   0  0  0  0  0  0  0  0  0  0  0  0
  148.3788  140.6130  154.5431 C   0  0  2  0  0  0  0  0  0  0  0  0
  148.8835  141.8481  154.5797 F   0  0  0  0  0  0  0  0  0  0  0  0
  150.0731  143.4563  158.6740 C   0  0  0  0  0  0  0  0  0  0  0  0
  151.1848  143.2958  157.8145 C   0  0  0  0  0  0  0  0  0  0  0  0
  152.3350  144.0932  157.9728 C   0  0  0  0  0  0  0  0  0  0  0  0
  152.3876  145.0608  158.9929 C   0  0  0  0  0  0  0  0  0  0  0  0
  151.2886  145.2297  159.8550 C   0  0  0  0  0  0  0  0  0  0  0  0
  150.1373  144.4337  159.6981 C   0  0  0  0  0  0  0  0  0  0  0  0
  147.5905  140.3395  157.9242 H   0  0  0  0  0  0  0  0  0  0  0  0
  147.0524  141.5232  156.7333 H   0  0  0  0  0  0  0  0  0  0  0  0
  147.7613  139.0926  155.9229 H   0  0  0  0  0  0  0  0  0  0  0  0
  151.2871  139.3778  154.7862 H   0  0  0  0  0  0  0  0  0  0  0  0
  152.2080  137.0054  154.4588 H   0  0  0  0  0  0  0  0  0  0  0  0
  148.6145  132.8750  152.1970 H   0  0  0  0  0  0  0  0  0  0  0  0
  147.2373  133.8314  150.3714 H   0  0  0  0  0  0  0  0  0  0  0  0
  144.8602  134.4381  150.7850 H   0  0  0  0  0  0  0  0  0  0  0  0
  143.8680  134.1086  153.0427 H   0  0  0  0  0  0  0  0  0  0  0  0
  145.2359  133.1576  154.8773 H   0  0  0  0  0  0  0  0  0  0  0  0
  149.9121  131.4137  153.8661 H   0  0  0  0  0  0  0  0  0  0  0  0
  150.9486  129.2298  153.3200 H   0  0  0  0  0  0  0  0  0  0  0  0
  152.2366  127.9894  155.0502 H   0  0  0  0  0  0  0  0  0  0  0  0
  152.4683  128.9329  157.3414 H   0  0  0  0  0  0  0  0  0  0  0  0
  151.4366  131.1149  157.8995 H   0  0  0  0  0  0  0  0  0  0  0  0
  145.9906  136.5455  156.0641 H   0  0  0  0  0  0  0  0  0  0  0  0
  149.9371  140.2602  153.0692 H   0  0  0  0  0  0  0  0  0  0  0  0
  149.1857  138.0645  152.7509 H   0  0  0  0  0  0  0  0  0  0  0  0
  147.3836  140.6858  154.1024 H   0  0  0  0  0  0  0  0  0  0  0  0
  151.1679  142.5589  157.0244 H   0  0  0  0  0  0  0  0  0  0  0  0
  153.1775  143.9615  157.3102 H   0  0  0  0  0  0  0  0  0  0  0  0
  153.2697  145.6722  159.1142 H   0  0  0  0  0  0  0  0  0  0  0  0
  151.3280  145.9716  160.6389 H   0  0  0  0  0  0  0  0  0  0  0  0
  149.3120  144.5895  160.3774 H   0  0  0  0  0  0  0  0  0  0  0  0
  1  2  2  0  0  0  0
  2  3  1  0  0  0  0
  2 38  1  0  0  0  0
  3  4  1  0  0  0  0
  4  5  1  0  0  0  0
  4 44  1  0  0  0  0
  4 45  1  0  0  0  0
  5 36  1  0  0  0  0
  5  6  1  0  0  0  0
  5 46  1  0  0  0  0
  6  7  1  0  0  0  0
  7  8  1  0  0  0  0
  7 34  1  0  0  0  0
  7 47  1  0  0  0  0
  8 33  1  0  0  0  0
  8  9  1  0  0  0  0
  9 10  2  0  0  0  0
  9 48  1  0  0  0  0
 10 11  1  0  0  0  0
 11 33  2  0  0  0  0
 11 12  1  0  0  0  0
 12 13  1  0  0  0  0
 12 30  2  0  0  0  0
 13 14  1  0  0  0  0
 13 22  1  0  0  0  0
 14 15  2  0  0  0  0
 14 16  1  0  0  0  0
 16 21  1  0  0  0  0
 16 17  2  0  0  0  0
 17 18  1  0  0  0  0
 17 49  1  0  0  0  0
 18 19  2  0  0  0  0
 18 50  1  0  0  0  0
 19 20  1  0  0  0  0
 19 51  1  0  0  0  0
 20 21  2  0  0  0  0
 20 52  1  0  0  0  0
 21 53  1  0  0  0  0
 22 23  2  0  0  0  0
 22 24  1  0  0  0  0
 24 29  1  0  0  0  0
 24 25  2  0  0  0  0
 25 26  1  0  0  0  0
 25 54  1  0  0  0  0
 26 27  2  0  0  0  0
 26 55  1  0  0  0  0
 27 28  1  0  0  0  0
 27 56  1  0  0  0  0
 28 29  2  0  0  0  0
 28 57  1  0  0  0  0
 29 58  1  0  0  0  0
 30 31  1  0  0  0  0
 31 32  2  0  0  0  0
 31 59  1  0  0  0  0
 32 33  1  0  0  0  0
 34 35  1  0  0  0  0
 34 36  1  0  0  0  0
 34 60  1  0  0  0  0
 35 61  1  0  0  0  0
 36 37  1  0  0  0  0
 36 62  1  0  0  0  0
 38 43  1  0  0  0  0
 38 39  2  0  0  0  0
 39 40  1  0  0  0  0
 39 63  1  0  0  0  0
 40 41  2  0  0  0  0
 40 64  1  0  0  0  0
 41 42  1  0  0  0  0
 41 65  1  0  0  0  0
 42 43  2  0  0  0  0
 42 66  1  0  0  0  0
 43 67  1  0  0  0  0
M  END
> <s_m_source_file>
AV-unprocessed.smi

> <i_m_source_file_index>
33

> <i_lp_mmshare_version>
43012

> <i_f3d_flags>
0

> <s_epik_input>
W2NIXTFbY0hdW2NIXVtjSF1bY0hdYzFDKD1PKU9bQ0gyXVtDQEBIXTJPW0NASF0oW0NAQEhdKFtPSF0pW0NAQEhdMkYpbihbY0hdbjMpYyhjMzQpbltjSF1uYzROKEMoPU8pYzVbY0hdW2NIXVtjSF1bY0hdW2NIXTUpQyg9TyljNltjSF1bY0hdW2NIXVtjSF1bY0hdNg==

> <s_epik_cmdline>
J2VwaWtfcHl0aG9uJywgJy1waCcsICc3LjAnLCAnLXRuJywgJzgnLCAnLW1hJywgJzIwMCcsICctbWV0YWxfYmluZGluZycsICctaW1hZScsICc8aW5maWxlLm1hZT4nLCAnLW9tYWUnLCAnPG91dGZpbGUubWFlPic=

> <r_lp_tautomer_probability>
1

> <r_epik_Ionization_Penalty>
0.00067664

> <r_epik_Ionization_Penalty_Charging>
0

> <r_epik_Ionization_Penalty_Neutral>
0.00067664

> <r_epik_State_Penalty>
0.000428095

> <r_epik_Charging_Adjusted_Penalty>
0.000428095

> <i_epik_Tot_Q>
0

> <i_epik_Tot_abs_Q>
0

> <r_epik_Metal_State_Penalty>
-0

> <b_epik_Metal_Only>
0

> <s_epik_Chemistry_Notes>
This compound has an ester and may undergo hydrolysis at high or low pH. This compound contains an acetal/aminal-like group ( X-CH(R)-Y where X, Y are N, S, or O) that may be acid/base labile, releasing an aldehyde.

> <s_lp_Force_Field>
OPLS_2005

> <r_lp_Energy>
71.8737

> <b_lp_Chiralities_Consistent>
1

> <s_lp_Variant>
AV-unprocessed.smi:33-1

> <Gold.Version>
5.8.1

> <Gold.Id.Protein>
6NUR|6NUR_protein|mol2

> <Gold.PLP.Fitness>
60.6752

> <Gold.PLP.PLP>
-59.8252

> <Gold.PLP.part.hbond>
-5.6229

> <Gold.PLP.part.metal>
0.0000

> <Gold.PLP.part.buried>
-3.0198

> <Gold.PLP.part.nonpolar>
-52.3636

> <Gold.PLP.part.repulsive>
0.4355

> <Gold.PLP.ligand.clash>
2.3752

> <Gold.PLP.ligand.torsion>
3.3896

> <Gold.PLP.Chemscore.Hbond>
1.5686

> <Gold.PLP.Chemscore.CHOScore>
0.0000

> <Gold.PLP.Chemscore.Metal>
0.0000

> <Gold.Chemscore.Hbonds>
donor molecule, donor type, donor heavy atom, donor atom, acceptor molecule, acceptor atom, score
      L1  H    35    61       P1  7948  0.70
      P1  H  6896  6908       L1    23  0.67
      P1  H  6933  6944       L1     1  0.13

> <Gold.PLP.Chemscore.Internal.Correction>
5.2986

> <Gold.Rescore>
     Score         DG    S(hbond)    S(metal)    S(lipo)     H(rot)  DE(clash)    DE(int)     intcor
      9.00     -21.77       2.38        0.00     126.64       2.52       0.12      12.66       ----

> <Gold.Chemscore.Fitness>
8.9978

> <Gold.Chemscore.DG>
-21.7726

> <Gold.Chemscore.ZeroCoef>
-5.4800

> <Gold.Chemscore.Hbond>
2.3771

> <Gold.Chemscore.Metal>
0.0000

> <Gold.Chemscore.Lipo>
126.6353

> <Gold.Chemscore.Internal_Hbond>
0.0000

> <Gold.Chemscore.DEClash>
0.1160

> <Gold.Chemscore.DEInternal>
12.6588

> <Gold.Chemscore.Rot>
2.5247

> <Gold.Chemscore.Internal.Correction>
   9.000000E+99

> <Gold.Chemscore.Hbonds>
donor molecule, donor type, donor heavy atom, donor atom, acceptor molecule, acceptor atom, score
      L1  H    35    61       P1  7948  0.65
      P1  H  6896  6908       L1    23  0.66
      P1  H  6933  6944       L1     1  0.09

> <Gold.Chemscore.Hbond.Weighted>
-7.9396

> <Gold.Chemscore.Metal.Weighted>
-0.0000

> <Gold.Chemscore.Lipo.Weighted>
-14.8163

> <Gold.Chemscore.Internal_Hbond.Weighted>
0.0000

> <Gold.Chemscore.DEClash.Weighted>
0.1160

> <Gold.Chemscore.DEInternal.Weighted>
12.6588

> <Gold.Chemscore.Rot.Weighted>
6.4633

> <Gold.Chemscore.Internal.Correction.Weighted>
   9.000000E+99

> <Gold.Protein.RotatedTorsions>
[ 6907 6896 6895 6894 ] final   95.89 input  -60.11 | X-H torsion
[ 7974 7965 7964 7962 ] final   26.04 input  175.53 | X-H torsion
[ 8008 7997 7996 7995 ] final  -89.94 input   59.86 | X-H torsion
[ 10167 10162 10161 10158 ] final   71.11 input  -65.29 | X-H torsion
[ 10718 10713 10712 10709 ] final -140.63 input   66.30 | X-H torsion
[ 10763 10752 10751 10750 ] final   81.52 input  -60.55 | X-H torsion
[ 11005 11000 10999 10996 ] final  110.46 input  -57.11 | X-H torsion

> <Gold.Protein.ActiveResidues>
 VAL166  LYS551  ARG553  GLY616  TRP617  ASP618  TYR619  PRO620  LYS621  CYS622 
 ASP623  PHE694  ASN695  SER759  ASP760  ASP761  ALA762  ILE779  LEU786  VAL792 
 PHE793  MET794  SER795  GLU796  ALA797  LYS798  CYS799  TRP800  GLU811  SER814 

> <Gold.Protein.RotatedAtoms>
  152.5440  134.0970  159.8300 H   0  0  0  0  0  0  0  0  0  0  0  0  # atno 6907 bound_to 6896
  151.1052  133.5206  159.2615 H   0  0  0  0  0  0  0  0  0  0  0  0  # atno 6908 bound_to 6896
  151.1946  135.0426  159.8901 H   0  0  0  0  0  0  0  0  0  0  0  0  # atno 6909 bound_to 6896
  146.1858  139.7383  142.8868 H   0  0  0  0  0  0  0  0  0  0  0  0  # atno 7974 bound_to 7965
  154.6926  140.0536  157.0378 H   0  0  0  0  0  0  0  0  0  0  0  0  # atno 8008 bound_to 7997
  155.0796  140.3208  155.4587 H   0  0  0  0  0  0  0  0  0  0  0  0  # atno 8009 bound_to 7997
  156.2733  140.2067  156.5923 H   0  0  0  0  0  0  0  0  0  0  0  0  # atno 8010 bound_to 7997
  140.0496  144.5322  150.7373 H   0  0  0  0  0  0  0  0  0  0  0  0  # atno 10167 bound_to 10162
  156.3246  130.7553  151.1658 H   0  0  0  0  0  0  0  0  0  0  0  0  # atno 10718 bound_to 10713
  153.1124  135.4762  154.9057 H   0  0  0  0  0  0  0  0  0  0  0  0  # atno 10763 bound_to 10752
  154.7494  135.3102  154.8588 H   0  0  0  0  0  0  0  0  0  0  0  0  # atno 10764 bound_to 10752
  153.9174  135.6858  153.4802 H   0  0  0  0  0  0  0  0  0  0  0  0  # atno 10765 bound_to 10752
  139.8882  134.9484  156.6283 H   0  0  0  0  0  0  0  0  0  0  0  0  # atno 11005 bound_to 11000
  145.3943  141.0376  143.3106 LP  0  0  0  0  0  0  0  0  0  0  0  0  # atno 17320 bound_to 7965
  144.8395  139.5496  143.6907 LP  0  0  0  0  0  0  0  0  0  0  0  0  # atno 17321 bound_to 7965
  140.7223  143.2600  151.4238 LP  0  0  0  0  0  0  0  0  0  0  0  0  # atno 17342 bound_to 10162
  139.5961  144.1394  152.2146 LP  0  0  0  0  0  0  0  0  0  0  0  0  # atno 17343 bound_to 10162
  157.7418  131.0498  150.5067 LP  0  0  0  0  0  0  0  0  0  0  0  0  # atno 17370 bound_to 10713
  156.5224  130.4165  149.6244 LP  0  0  0  0  0  0  0  0  0  0  0  0  # atno 17371 bound_to 10713
  140.7686  133.8757  155.8474 LP  0  0  0  0  0  0  0  0  0  0  0  0  # atno 17394 bound_to 11000
  140.9861  134.1341  157.4451 LP  0  0  0  0  0  0  0  0  0  0  0  0  # atno 17395 bound_to 11000

$$$$
