AV-unprocessed.smi:1529|AV-procd|sdf|6154|dock2
  -GOLD-   22720 6303D 1   1.00000     0.00000
 Structure written by MMmdl.
 50 51  0  0  0  0  0  0  0  0  1 V2000
  146.2470  133.2757  151.6681 C   0  0  0  0  0  0  0  0  0  0  0  0
  145.4361  134.5571  151.5061 C   0  0  0  0  0  0  0  0  0  0  0  0
  144.2292  134.4992  151.2726 O   0  0  0  0  0  0  0  0  0  0  0  0
  146.1137  135.7080  151.6327 N   0  0  0  0  0  0  0  0  0  0  0  0
  145.5322  137.0409  151.5196 C   0  0  0  0  0  0  0  0  0  0  0  0
  145.9049  137.9287  152.7180 C   0  0  0  0  0  0  0  0  0  0  0  0
  146.3624  139.3305  152.2837 C   0  0  0  0  0  0  0  0  0  0  0  0
  147.2196  139.9535  153.2856 N   0  0  0  0  0  0  0  0  0  0  0  0
  146.9803  139.9608  154.6074 C   0  0  0  0  0  0  0  0  0  0  0  0
  146.0011  139.4217  155.1235 O   0  0  0  0  0  0  0  0  0  0  0  0
  148.0314  140.6176  155.4548 C   0  0  0  0  0  0  0  0  0  0  0  0
  149.2587  141.0565  154.9118 C   0  0  0  0  0  0  0  0  0  0  0  0
  150.1965  141.6832  155.7550 C   0  0  0  0  0  0  0  0  0  0  0  0
  149.8832  141.8646  157.1225 C   0  0  0  0  0  0  0  0  0  0  0  0
  150.8111  142.4868  157.9846 N   0  0  0  0  0  0  0  0  0  0  0  0
  151.2794  143.8028  157.5589 C   0  0  0  0  0  0  0  0  0  0  0  0
  152.0171  144.5247  158.7032 C   0  0  1  0  0  0  0  0  0  0  0  0
  151.0734  145.0830  159.7833 C   0  0  0  0  0  0  0  0  0  0  0  0
  153.0270  143.6763  159.2538 O   0  0  0  0  0  0  0  0  0  0  0  0
  152.5571  142.4123  159.7200 C   0  0  2  0  0  0  0  0  0  0  0  0
  153.7567  141.6333  160.2693 C   0  0  0  0  0  0  0  0  0  0  0  0
  151.8660  141.6624  158.5677 C   0  0  0  0  0  0  0  0  0  0  0  0
  148.6965  141.4597  157.6377 N   0  0  0  0  0  0  0  0  0  0  0  0
  147.8007  140.8591  156.8259 C   0  0  0  0  0  0  0  0  0  0  0  0
  147.0950  133.2711  150.9826 H   0  0  0  0  0  0  0  0  0  0  0  0
  145.6337  132.3991  151.4568 H   0  0  0  0  0  0  0  0  0  0  0  0
  146.6247  133.1909  152.6876 H   0  0  0  0  0  0  0  0  0  0  0  0
  147.1036  135.6565  151.8255 H   0  0  0  0  0  0  0  0  0  0  0  0
  145.8463  137.5086  150.5848 H   0  0  0  0  0  0  0  0  0  0  0  0
  144.4490  136.9313  151.4623 H   0  0  0  0  0  0  0  0  0  0  0  0
  145.0479  138.0170  153.3873 H   0  0  0  0  0  0  0  0  0  0  0  0
  146.6976  137.4486  153.2935 H   0  0  0  0  0  0  0  0  0  0  0  0
  146.8816  139.2836  151.3249 H   0  0  0  0  0  0  0  0  0  0  0  0
  145.4950  139.9742  152.1348 H   0  0  0  0  0  0  0  0  0  0  0  0
  148.0611  140.4009  152.9524 H   0  0  0  0  0  0  0  0  0  0  0  0
  149.4876  140.9256  153.8642 H   0  0  0  0  0  0  0  0  0  0  0  0
  151.1323  142.0308  155.3431 H   0  0  0  0  0  0  0  0  0  0  0  0
  151.9597  143.6640  156.7176 H   0  0  0  0  0  0  0  0  0  0  0  0
  150.4657  144.4315  157.1993 H   0  0  0  0  0  0  0  0  0  0  0  0
  152.5410  145.3783  158.2718 H   0  0  0  0  0  0  0  0  0  0  0  0
  150.4046  145.8328  159.3602 H   0  0  0  0  0  0  0  0  0  0  0  0
  151.6385  145.5599  160.5846 H   0  0  0  0  0  0  0  0  0  0  0  0
  150.4481  144.3091  160.2281 H   0  0  0  0  0  0  0  0  0  0  0  0
  151.8499  142.5613  160.5360 H   0  0  0  0  0  0  0  0  0  0  0  0
  153.4511  140.6579  160.6484 H   0  0  0  0  0  0  0  0  0  0  0  0
  154.2307  142.1746  161.0886 H   0  0  0  0  0  0  0  0  0  0  0  0
  154.5091  141.4721  159.4970 H   0  0  0  0  0  0  0  0  0  0  0  0
  151.4487  140.7278  158.9449 H   0  0  0  0  0  0  0  0  0  0  0  0
  152.5916  141.4073  157.7939 H   0  0  0  0  0  0  0  0  0  0  0  0
  146.8745  140.5598  157.2948 H   0  0  0  0  0  0  0  0  0  0  0  0
  1  2  1  0  0  0  0
  1 25  1  0  0  0  0
  1 26  1  0  0  0  0
  1 27  1  0  0  0  0
  2  3  2  0  0  0  0
  2  4  1  0  0  0  0
  4  5  1  0  0  0  0
  4 28  1  0  0  0  0
  5  6  1  0  0  0  0
  5 29  1  0  0  0  0
  5 30  1  0  0  0  0
  6  7  1  0  0  0  0
  6 31  1  0  0  0  0
  6 32  1  0  0  0  0
  7  8  1  0  0  0  0
  7 33  1  0  0  0  0
  7 34  1  0  0  0  0
  8  9  1  0  0  0  0
  8 35  1  0  0  0  0
  9 10  2  0  0  0  0
  9 11  1  0  0  0  0
 11 24  1  0  0  0  0
 11 12  2  0  0  0  0
 12 13  1  0  0  0  0
 12 36  1  0  0  0  0
 13 14  2  0  0  0  0
 13 37  1  0  0  0  0
 14 15  1  0  0  0  0
 14 23  1  0  0  0  0
 15 22  1  0  0  0  0
 15 16  1  0  0  0  0
 16 17  1  0  0  0  0
 16 38  1  0  0  0  0
 16 39  1  0  0  0  0
 17 18  1  0  0  0  0
 17 19  1  0  0  0  0
 17 40  1  0  0  0  0
 18 41  1  0  0  0  0
 18 42  1  0  0  0  0
 18 43  1  0  0  0  0
 19 20  1  0  0  0  0
 20 21  1  0  0  0  0
 20 22  1  0  0  0  0
 20 44  1  0  0  0  0
 21 45  1  0  0  0  0
 21 46  1  0  0  0  0
 21 47  1  0  0  0  0
 22 48  1  0  0  0  0
 22 49  1  0  0  0  0
 23 24  2  0  0  0  0
 24 50  1  0  0  0  0
M  END
> <s_m_source_file>
AV-unprocessed.smi

> <i_m_source_file_index>
1529

> <i_lp_mmshare_version>
43012

> <i_f3d_flags>
0

> <s_epik_input>
W0NIM11DKD1PKVtOSF1bQ0gyXVtDSDJdW0NIMl1bTkhdQyg9TyljMVtjSF1bY0hdYyhuW2NIXTEpTjJbQ0gyXVtDQEBIXShbQ0gzXSlPW0NAQEhdKFtDSDNdKVtDSDJdMg==

> <s_epik_cmdline>
J2VwaWtfcHl0aG9uJywgJy1waCcsICc3LjAnLCAnLXRuJywgJzgnLCAnLW1hJywgJzIwMCcsICctbWV0YWxfYmluZGluZycsICctaW1hZScsICc8aW5maWxlLm1hZT4nLCAnLW9tYWUnLCAnPG91dGZpbGUubWFlPic=

> <r_lp_tautomer_probability>
1

> <r_epik_Ionization_Penalty>
2.1474e-05

> <r_epik_Ionization_Penalty_Charging>
0

> <r_epik_Ionization_Penalty_Neutral>
2.1474e-05

> <r_epik_State_Penalty>
-0

> <r_epik_Charging_Adjusted_Penalty>
0

> <i_epik_Tot_Q>
0

> <i_epik_Tot_abs_Q>
0

> <r_epik_Metal_State_Penalty>
-0

> <b_epik_Metal_Only>
0

> <s_lp_Force_Field>
OPLS_2005

> <r_lp_Energy>
18.7347

> <b_lp_Chiralities_Consistent>
1

> <s_lp_Variant>
AV-unprocessed.smi:1529-3

> <Gold.Version>
5.8.1

> <Gold.Id.Protein>
6NUR|6NUR_protein|mol2

> <Gold.PLP.Fitness>
50.7204

> <Gold.PLP.PLP>
-47.4737

> <Gold.PLP.part.hbond>
-2.0000

> <Gold.PLP.part.metal>
0.0000

> <Gold.PLP.part.buried>
-0.6831

> <Gold.PLP.part.nonpolar>
-44.4998

> <Gold.PLP.part.repulsive>
0.6580

> <Gold.PLP.ligand.clash>
0.0000

> <Gold.PLP.ligand.torsion>
0.9990

> <Gold.PLP.Chemscore.Hbond>
1.6240

> <Gold.PLP.Chemscore.CHOScore>
0.0000

> <Gold.PLP.Chemscore.Metal>
0.0000

> <Gold.Chemscore.Hbonds>
donor molecule, donor type, donor heavy atom, donor atom, acceptor molecule, acceptor atom, score
      L1  H     4    28       P1  7948  1.00
      L1  H     8    35       P1  7957  0.08

> <Gold.PLP.Chemscore.Internal.Correction>
0.3727

> <Gold.Rescore>
     Score         DG    S(hbond)    S(metal)    S(lipo)     H(rot)  DE(clash)    DE(int)     intcor
     15.33     -18.71       1.41        0.00     118.01       2.07       1.20       2.18       ----

> <Gold.Chemscore.Fitness>
15.3286

> <Gold.Chemscore.DG>
-18.7097

> <Gold.Chemscore.ZeroCoef>
-5.4800

> <Gold.Chemscore.Hbond>
1.4147

> <Gold.Chemscore.Metal>
0.0000

> <Gold.Chemscore.Lipo>
118.0092

> <Gold.Chemscore.Internal_Hbond>
0.0000

> <Gold.Chemscore.DEClash>
1.2026

> <Gold.Chemscore.DEInternal>
2.1785

> <Gold.Chemscore.Rot>
2.0713

> <Gold.Chemscore.Internal.Correction>
   9.000000E+99

> <Gold.Chemscore.Hbonds>
donor molecule, donor type, donor heavy atom, donor atom, acceptor molecule, acceptor atom, score
      L1  H     4    28       P1  7948  0.99
      L1  H     8    35       P1  7957  0.10

> <Gold.Chemscore.Hbond.Weighted>
-4.7252

> <Gold.Chemscore.Metal.Weighted>
-0.0000

> <Gold.Chemscore.Lipo.Weighted>
-13.8071

> <Gold.Chemscore.Internal_Hbond.Weighted>
0.0000

> <Gold.Chemscore.DEClash.Weighted>
1.2026

> <Gold.Chemscore.DEInternal.Weighted>
2.1785

> <Gold.Chemscore.Rot.Weighted>
5.3025

> <Gold.Chemscore.Internal.Correction.Weighted>
   9.000000E+99

> <Gold.Protein.RotatedTorsions>
[ 6907 6896 6895 6894 ] final -177.88 input  -60.11 | X-H torsion
[ 7974 7965 7964 7962 ] final -107.90 input  175.53 | X-H torsion
[ 8008 7997 7996 7995 ] final  140.86 input   59.86 | X-H torsion
[ 10167 10162 10161 10158 ] final -142.86 input  -65.29 | X-H torsion
[ 10718 10713 10712 10709 ] final  -19.80 input   66.30 | X-H torsion
[ 10763 10752 10751 10750 ] final  -65.28 input  -60.55 | X-H torsion
[ 11005 11000 10999 10996 ] final   -6.97 input  -57.11 | X-H torsion

> <Gold.Protein.ActiveResidues>
 VAL166  LYS551  ARG553  GLY616  TRP617  ASP618  TYR619  PRO620  LYS621  CYS622 
 ASP623  PHE694  ASN695  SER759  ASP760  ASP761  ALA762  ILE779  LEU786  VAL792 
 PHE793  MET794  SER795  GLU796  ALA797  LYS798  CYS799  TRP800  GLU811  SER814 

> <Gold.Protein.RotatedAtoms>
  151.6281  133.3334  159.3102 H   0  0  0  0  0  0  0  0  0  0  0  0  # atno 6907 bound_to 6896
  150.8071  134.7206  159.6665 H   0  0  0  0  0  0  0  0  0  0  0  0  # atno 6908 bound_to 6896
  152.4166  134.6034  160.0058 H   0  0  0  0  0  0  0  0  0  0  0  0  # atno 6909 bound_to 6896
  145.1996  140.9050  143.3377 H   0  0  0  0  0  0  0  0  0  0  0  0  # atno 7974 bound_to 7965
  156.2973  140.2330  156.4471 H   0  0  0  0  0  0  0  0  0  0  0  0  # atno 8008 bound_to 7997
  154.8135  140.0441  157.1380 H   0  0  0  0  0  0  0  0  0  0  0  0  # atno 8009 bound_to 7997
  154.9396  140.3027  155.5130 H   0  0  0  0  0  0  0  0  0  0  0  0  # atno 8010 bound_to 7997
  139.8048  143.7783  152.2660 H   0  0  0  0  0  0  0  0  0  0  0  0  # atno 10167 bound_to 10162
  156.5406  130.4677  149.6500 H   0  0  0  0  0  0  0  0  0  0  0  0  # atno 10718 bound_to 10713
  154.3426  135.6153  153.5604 H   0  0  0  0  0  0  0  0  0  0  0  0  # atno 10763 bound_to 10752
  152.9803  135.5773  154.4835 H   0  0  0  0  0  0  0  0  0  0  0  0  # atno 10764 bound_to 10752
  154.4542  135.2854  155.1737 H   0  0  0  0  0  0  0  0  0  0  0  0  # atno 10765 bound_to 10752
  140.7078  133.8935  155.8729 H   0  0  0  0  0  0  0  0  0  0  0  0  # atno 11005 bound_to 11000
  144.9961  139.3643  143.6191 LP  0  0  0  0  0  0  0  0  0  0  0  0  # atno 17320 bound_to 7965
  146.3420  139.9164  142.8773 LP  0  0  0  0  0  0  0  0  0  0  0  0  # atno 17321 bound_to 7965
  139.7914  144.7408  150.9949 LP  0  0  0  0  0  0  0  0  0  0  0  0  # atno 17342 bound_to 10162
  140.7819  143.4438  151.0513 LP  0  0  0  0  0  0  0  0  0  0  0  0  # atno 17343 bound_to 10162
  156.2975  130.7158  151.2022 LP  0  0  0  0  0  0  0  0  0  0  0  0  # atno 17370 bound_to 10713
  157.7406  131.0515  150.5156 LP  0  0  0  0  0  0  0  0  0  0  0  0  # atno 17371 bound_to 10713
  141.0110  134.1020  157.4221 LP  0  0  0  0  0  0  0  0  0  0  0  0  # atno 17394 bound_to 11000
  139.8879  135.0094  156.6592 LP  0  0  0  0  0  0  0  0  0  0  0  0  # atno 17395 bound_to 11000

$$$$
