AV-unprocessed.smi:1884|AV-procd|sdf|7648|dock5
  -GOLD-   22720 9373D 1   1.00000     0.00000
 Structure written by MMmdl.
 41 43  0  0  0  0  0  0  0  0  2 V2000
  151.7288  138.9874  155.7066 C   0  0  0  0  0  0  0  0  0  0  0  0
  151.8202  140.0591  156.7404 C   0  0  0  0  0  0  0  0  0  0  0  0
  152.4753  139.9709  157.9320 N   0  3  0  0  0  0  0  0  0  0  0  0
  152.3422  141.1698  158.6338 C   0  0  0  0  0  0  0  0  0  0  0  0
  152.8305  141.5549  159.8786 C   0  0  0  0  0  0  0  0  0  0  0  0
  152.5145  142.8612  160.3059 C   0  0  0  0  0  0  0  0  0  0  0  0
  151.7424  143.7285  159.5061 C   0  0  0  0  0  0  0  0  0  0  0  0
  151.2520  143.3267  158.2460 C   0  0  0  0  0  0  0  0  0  0  0  0
  151.5674  142.0326  157.8310 C   0  0  0  0  0  0  0  0  0  0  0  0
  151.2670  141.3036  156.6734 N   0  0  0  0  0  0  0  0  0  0  0  0
  150.4529  141.9158  155.6112 C   0  0  0  0  0  0  0  0  0  0  0  0
  149.4210  140.9401  155.0115 C   0  0  2  0  0  0  0  0  0  0  0  0
  149.5314  140.9252  153.6027 O   0  0  0  0  0  0  0  0  0  0  0  0
  147.9778  141.3091  155.3836 C   0  0  0  0  0  0  0  0  0  0  0  0
  147.4006  142.0437  154.3120 O   0  0  0  0  0  0  0  0  0  0  0  0
  146.2954  142.8236  154.5758 C   0  0  0  0  0  0  0  0  0  0  0  0
  145.8005  143.6111  153.5160 C   0  0  0  0  0  0  0  0  0  0  0  0
  144.6749  144.4383  153.6954 C   0  0  0  0  0  0  0  0  0  0  0  0
  144.0281  144.4867  154.9459 C   0  0  0  0  0  0  0  0  0  0  0  0
  142.8654  145.3379  155.1347 C   0  0  0  0  0  0  0  0  0  0  0  0
  141.9396  146.0153  155.2851 N   0  0  0  0  0  0  0  0  0  0  0  0
  144.5132  143.7054  156.0130 C   0  0  0  0  0  0  0  0  0  0  0  0
  145.6392  142.8786  155.8315 C   0  0  0  0  0  0  0  0  0  0  0  0
  152.2883  138.1049  156.0182 H   0  0  0  0  0  0  0  0  0  0  0  0
  152.1378  139.3407  154.7601 H   0  0  0  0  0  0  0  0  0  0  0  0
  150.6883  138.7016  155.5521 H   0  0  0  0  0  0  0  0  0  0  0  0
  153.4235  140.8927  160.4924 H   0  0  0  0  0  0  0  0  0  0  0  0
  152.8723  143.2056  161.2656 H   0  0  0  0  0  0  0  0  0  0  0  0
  151.5223  144.7233  159.8657 H   0  0  0  0  0  0  0  0  0  0  0  0
  150.6660  144.0023  157.6408 H   0  0  0  0  0  0  0  0  0  0  0  0
  149.9427  142.7722  156.0534 H   0  0  0  0  0  0  0  0  0  0  0  0
  151.1081  142.3230  154.8409 H   0  0  0  0  0  0  0  0  0  0  0  0
  149.6264  139.9286  155.3634 H   0  0  0  0  0  0  0  0  0  0  0  0
  149.2967  140.0634  153.2943 H   0  0  0  0  0  0  0  0  0  0  0  0
  147.4002  140.4063  155.5907 H   0  0  0  0  0  0  0  0  0  0  0  0
  147.9788  141.9257  156.2845 H   0  0  0  0  0  0  0  0  0  0  0  0
  146.2892  143.5804  152.5531 H   0  0  0  0  0  0  0  0  0  0  0  0
  144.3133  145.0326  152.8684 H   0  0  0  0  0  0  0  0  0  0  0  0
  144.0255  143.7351  156.9768 H   0  0  0  0  0  0  0  0  0  0  0  0
  145.9800  142.2960  156.6738 H   0  0  0  0  0  0  0  0  0  0  0  0
  152.9764  139.1477  158.2407 H   0  0  0  0  0  0  0  0  0  0  0  0
  1  2  1  0  0  0  0
  1 24  1  0  0  0  0
  1 25  1  0  0  0  0
  1 26  1  0  0  0  0
  2 10  1  0  0  0  0
  2  3  2  0  0  0  0
  3  4  1  0  0  0  0
  3 41  1  0  0  0  0
  4  9  2  0  0  0  0
  4  5  1  0  0  0  0
  5  6  2  0  0  0  0
  5 27  1  0  0  0  0
  6  7  1  0  0  0  0
  6 28  1  0  0  0  0
  7  8  2  0  0  0  0
  7 29  1  0  0  0  0
  8  9  1  0  0  0  0
  8 30  1  0  0  0  0
  9 10  1  0  0  0  0
 10 11  1  0  0  0  0
 11 12  1  0  0  0  0
 11 31  1  0  0  0  0
 11 32  1  0  0  0  0
 12 13  1  0  0  0  0
 12 14  1  0  0  0  0
 12 33  1  0  0  0  0
 13 34  1  0  0  0  0
 14 15  1  0  0  0  0
 14 35  1  0  0  0  0
 14 36  1  0  0  0  0
 15 16  1  0  0  0  0
 16 23  1  0  0  0  0
 16 17  2  0  0  0  0
 17 18  1  0  0  0  0
 17 37  1  0  0  0  0
 18 19  2  0  0  0  0
 18 38  1  0  0  0  0
 19 20  1  0  0  0  0
 19 22  1  0  0  0  0
 20 21  3  0  0  0  0
 22 23  2  0  0  0  0
 22 39  1  0  0  0  0
 23 40  1  0  0  0  0
M  CHG  1   3   1
M  END
> <s_m_source_file>
AV-unprocessed.smi

> <i_m_source_file_index>
1884

> <i_lp_mmshare_version>
43012

> <i_f3d_flags>
0

> <s_epik_input>
W2NIXTFbY0hdW2NIXVtjSF1jKGMxMiluKGMobjIpW0NIM10pW0NIMl1bQ0BIXShbT0hdKVtDSDJdT2MzW2NIXVtjSF1jKEMjTilbY0hdW2NIXTM=

> <s_epik_cmdline>
J2VwaWtfcHl0aG9uJywgJy1waCcsICc3LjAnLCAnLXRuJywgJzgnLCAnLW1hJywgJzIwMCcsICctbWV0YWxfYmluZGluZycsICctaW1hZScsICc8aW5maWxlLm1hZT4nLCAnLW9tYWUnLCAnPG91dGZpbGUubWFlPic=

> <r_epik_Ionization_Penalty>
1.04791

> <r_epik_Ionization_Penalty_Charging>
1.04791

> <r_epik_Ionization_Penalty_Neutral>
2.3993e-06

> <r_epik_State_Penalty>
1.10051

> <r_epik_Charging_Adjusted_Penalty>
2.14841

> <i_epik_Tot_Q>
1

> <i_epik_Tot_abs_Q>
1

> <r_epik_Metal_State_Penalty>
5.09283

> <b_epik_Metal_Only>
0

> <s_lp_Force_Field>
OPLS_2005

> <r_lp_Energy>
18.2912

> <b_lp_Chiralities_Consistent>
1

> <s_lp_Variant>
AV-unprocessed.smi:1884-3

> <Gold.Version>
5.8.1

> <Gold.Id.Protein>
6NUR|6NUR_protein|mol2

> <Gold.PLP.Fitness>
49.4387

> <Gold.PLP.PLP>
-48.4174

> <Gold.PLP.part.hbond>
-3.0000

> <Gold.PLP.part.metal>
0.0000

> <Gold.PLP.part.buried>
-6.2611

> <Gold.PLP.part.nonpolar>
-39.1401

> <Gold.PLP.part.repulsive>
0.2580

> <Gold.PLP.ligand.clash>
0.0000

> <Gold.PLP.ligand.torsion>
1.5823

> <Gold.PLP.Chemscore.Hbond>
1.3737

> <Gold.PLP.Chemscore.CHOScore>
0.0000

> <Gold.PLP.Chemscore.Metal>
0.0000

> <Gold.Chemscore.Hbonds>
donor molecule, donor type, donor heavy atom, donor atom, acceptor molecule, acceptor atom, score
      L1  H    13    34       P1  7957  0.10
      P1  H  7989  7998       L1    13  0.29
      P1  H  8011  8017       L1    13  1.00

> <Gold.PLP.Chemscore.Internal.Correction>
0.0648

> <Gold.Rescore>
     Score         DG    S(hbond)    S(metal)    S(lipo)     H(rot)  DE(clash)    DE(int)     intcor
     14.75     -16.39       0.96        0.00     118.15       2.39       0.14       1.50       ----

> <Gold.Chemscore.Fitness>
14.7476

> <Gold.Chemscore.DG>
-16.3902

> <Gold.Chemscore.ZeroCoef>
-5.4800

> <Gold.Chemscore.Hbond>
0.9608

> <Gold.Chemscore.Metal>
0.0000

> <Gold.Chemscore.Lipo>
118.1525

> <Gold.Chemscore.Internal_Hbond>
0.0000

> <Gold.Chemscore.DEClash>
0.1382

> <Gold.Chemscore.DEInternal>
1.5044

> <Gold.Chemscore.Rot>
2.3917

> <Gold.Chemscore.Internal.Correction>
   9.000000E+99

> <Gold.Chemscore.Hbonds>
donor molecule, donor type, donor heavy atom, donor atom, acceptor molecule, acceptor atom, score
      L1  H    13    34       P1  7957  0.10
      P1  H  7989  7998       L1    13  0.02
      P1  H  8011  8017       L1    13  0.93

> <Gold.Chemscore.Hbond.Weighted>
-3.2092

> <Gold.Chemscore.Metal.Weighted>
-0.0000

> <Gold.Chemscore.Lipo.Weighted>
-13.8238

> <Gold.Chemscore.Internal_Hbond.Weighted>
0.0000

> <Gold.Chemscore.DEClash.Weighted>
0.1382

> <Gold.Chemscore.DEInternal.Weighted>
1.5044

> <Gold.Chemscore.Rot.Weighted>
6.1229

> <Gold.Chemscore.Internal.Correction.Weighted>
   9.000000E+99

> <Gold.Protein.RotatedTorsions>
[ 6907 6896 6895 6894 ] final  158.17 input  -60.11 | X-H torsion
[ 7974 7965 7964 7962 ] final  178.71 input  175.53 | X-H torsion
[ 8008 7997 7996 7995 ] final   25.91 input   59.86 | X-H torsion
[ 10167 10162 10161 10158 ] final   12.42 input  -65.29 | X-H torsion
[ 10718 10713 10712 10709 ] final -104.15 input   66.30 | X-H torsion
[ 10763 10752 10751 10750 ] final  -94.45 input  -60.55 | X-H torsion
[ 11005 11000 10999 10996 ] final   -2.79 input  -57.11 | X-H torsion

> <Gold.Protein.ActiveResidues>
 VAL166  LYS551  ARG553  GLY616  TRP617  ASP618  TYR619  PRO620  LYS621  CYS622 
 ASP623  PHE694  ASN695  SER759  ASP760  ASP761  ALA762  ILE779  LEU786  VAL792 
 PHE793  MET794  SER795  GLU796  ALA797  LYS798  CYS799  TRP800  GLU811  SER814 

> <Gold.Protein.RotatedAtoms>
  152.0043  133.3837  159.4193 H   0  0  0  0  0  0  0  0  0  0  0  0  # atno 6907 bound_to 6896
  150.6906  134.3800  159.5039 H   0  0  0  0  0  0  0  0  0  0  0  0  # atno 6908 bound_to 6896
  152.1552  134.8956  160.0596 H   0  0  0  0  0  0  0  0  0  0  0  0  # atno 6909 bound_to 6896
  144.7153  140.0438  143.6437 H   0  0  0  0  0  0  0  0  0  0  0  0  # atno 7974 bound_to 7965
  155.0191  140.3145  155.4800 H   0  0  0  0  0  0  0  0  0  0  0  0  # atno 8008 bound_to 7997
  156.2895  140.2201  156.5250 H   0  0  0  0  0  0  0  0  0  0  0  0  # atno 8009 bound_to 7997
  154.7468  140.0469  157.0847 H   0  0  0  0  0  0  0  0  0  0  0  0  # atno 8010 bound_to 7997
  140.6069  143.8490  150.7023 H   0  0  0  0  0  0  0  0  0  0  0  0  # atno 10167 bound_to 10162
  156.0293  130.5501  150.7356 H   0  0  0  0  0  0  0  0  0  0  0  0  # atno 10718 bound_to 10713
  154.7056  135.5157  153.8591 H   0  0  0  0  0  0  0  0  0  0  0  0  # atno 10763 bound_to 10752
  153.0739  135.6610  154.0197 H   0  0  0  0  0  0  0  0  0  0  0  0  # atno 10764 bound_to 10752
  154.0048  135.3007  155.3378 H   0  0  0  0  0  0  0  0  0  0  0  0  # atno 10765 bound_to 10752
  140.6622  133.9310  155.8443 H   0  0  0  0  0  0  0  0  0  0  0  0  # atno 11005 bound_to 11000
  146.0001  139.3084  143.0933 LP  0  0  0  0  0  0  0  0  0  0  0  0  # atno 17320 bound_to 7965
  145.8803  140.9367  143.0605 LP  0  0  0  0  0  0  0  0  0  0  0  0  # atno 17321 bound_to 7965
  140.2049  143.3930  152.1763 LP  0  0  0  0  0  0  0  0  0  0  0  0  # atno 17342 bound_to 10162
  139.5331  144.7181  151.4985 LP  0  0  0  0  0  0  0  0  0  0  0  0  # atno 17343 bound_to 10162
  157.4937  131.0913  151.0396 LP  0  0  0  0  0  0  0  0  0  0  0  0  # atno 17370 bound_to 10713
  157.0796  130.5897  149.5418 LP  0  0  0  0  0  0  0  0  0  0  0  0  # atno 17371 bound_to 10713
  141.0456  134.0558  157.3848 LP  0  0  0  0  0  0  0  0  0  0  0  0  # atno 17394 bound_to 11000
  139.9009  135.0164  156.7263 LP  0  0  0  0  0  0  0  0  0  0  0  0  # atno 17395 bound_to 11000

$$$$
