AV-unprocessed.smi:1947|AV-procd|sdf|7867|dock8
  -GOLD-   2272010 13D 1   1.00000     0.00000
 Structure written by MMmdl.
 39 40  0  0  0  0  0  0  0  0  1 V2000
  153.0489  142.1892  161.5092 C   0  0  0  0  0  0  0  0  0  0  0  0
  152.8473  143.4128  160.6003 C   0  0  2  0  0  0  0  0  0  0  0  0
  151.8107  144.3948  161.1811 C   0  0  0  0  0  0  0  0  0  0  0  0
  151.6366  145.6269  160.2786 C   0  0  0  0  0  0  0  0  0  0  0  0
  151.2601  145.2211  158.8454 C   0  0  0  0  0  0  0  0  0  0  0  0
  152.2851  144.2383  158.2542 C   0  0  0  0  0  0  0  0  0  0  0  0
  152.4800  143.0050  159.1564 C   0  0  2  0  0  0  0  0  0  0  0  0
  151.2655  142.2662  159.1861 O   0  0  0  0  0  0  0  0  0  0  0  0
  151.0688  141.4181  158.0662 C   0  0  0  0  0  0  0  0  0  0  0  0
  150.3362  142.2071  156.9694 C   0  0  0  0  0  0  0  0  0  0  0  0
  149.3466  143.1226  157.5286 N   0  0  0  0  0  0  0  0  0  0  0  0
  148.3872  142.7908  158.4034 C   0  0  0  0  0  0  0  0  0  0  0  0
  148.1844  141.6384  158.7854 O   0  0  0  0  0  0  0  0  0  0  0  0
  147.7015  143.8743  158.8006 N   0  0  0  0  0  0  0  0  0  0  0  0
  146.6859  143.9500  159.7856 C   0  0  0  0  0  0  0  0  0  0  0  0
  146.6140  142.9665  160.6902 N   0  0  0  0  0  0  0  0  0  0  0  0
  145.5710  143.1601  161.5878 N   0  0  0  0  0  0  0  0  0  0  0  0
  144.8955  144.2825  161.3229 C   0  0  0  0  0  0  0  0  0  0  0  0
  145.4651  145.2154  159.9501 S   0  0  0  0  0  0  0  0  0  0  0  0
  152.1260  141.6207  161.6261 H   0  0  0  0  0  0  0  0  0  0  0  0
  153.3794  142.4898  162.5037 H   0  0  0  0  0  0  0  0  0  0  0  0
  153.8032  141.5164  161.1003 H   0  0  0  0  0  0  0  0  0  0  0  0
  153.8036  143.9363  160.5568 H   0  0  0  0  0  0  0  0  0  0  0  0
  150.8503  143.8919  161.3023 H   0  0  0  0  0  0  0  0  0  0  0  0
  152.1177  144.7139  162.1776 H   0  0  0  0  0  0  0  0  0  0  0  0
  150.8708  146.2842  160.6915 H   0  0  0  0  0  0  0  0  0  0  0  0
  152.5628  146.2025  160.2640 H   0  0  0  0  0  0  0  0  0  0  0  0
  150.2701  144.7632  158.8443 H   0  0  0  0  0  0  0  0  0  0  0  0
  151.1894  146.1073  158.2146 H   0  0  0  0  0  0  0  0  0  0  0  0
  151.9712  143.9277  157.2573 H   0  0  0  0  0  0  0  0  0  0  0  0
  153.2411  144.7480  158.1293 H   0  0  0  0  0  0  0  0  0  0  0  0
  153.2948  142.3994  158.7542 H   0  0  0  0  0  0  0  0  0  0  0  0
  152.0293  141.0582  157.6951 H   0  0  0  0  0  0  0  0  0  0  0  0
  150.4829  140.5448  158.3566 H   0  0  0  0  0  0  0  0  0  0  0  0
  151.0549  142.7962  156.3994 H   0  0  0  0  0  0  0  0  0  0  0  0
  149.8590  141.5258  156.2634 H   0  0  0  0  0  0  0  0  0  0  0  0
  149.4359  144.0942  157.2694 H   0  0  0  0  0  0  0  0  0  0  0  0
  147.9624  144.7534  158.3786 H   0  0  0  0  0  0  0  0  0  0  0  0
  144.0545  144.5620  161.9401 H   0  0  0  0  0  0  0  0  0  0  0  0
  1  2  1  0  0  0  0
  1 20  1  0  0  0  0
  1 21  1  0  0  0  0
  1 22  1  0  0  0  0
  2  7  1  0  0  0  0
  2  3  1  0  0  0  0
  2 23  1  0  0  0  0
  3  4  1  0  0  0  0
  3 24  1  0  0  0  0
  3 25  1  0  0  0  0
  4  5  1  0  0  0  0
  4 26  1  0  0  0  0
  4 27  1  0  0  0  0
  5  6  1  0  0  0  0
  5 28  1  0  0  0  0
  5 29  1  0  0  0  0
  6  7  1  0  0  0  0
  6 30  1  0  0  0  0
  6 31  1  0  0  0  0
  7  8  1  0  0  0  0
  7 32  1  0  0  0  0
  8  9  1  0  0  0  0
  9 10  1  0  0  0  0
  9 33  1  0  0  0  0
  9 34  1  0  0  0  0
 10 11  1  0  0  0  0
 10 35  1  0  0  0  0
 10 36  1  0  0  0  0
 11 12  1  0  0  0  0
 11 37  1  0  0  0  0
 12 13  2  0  0  0  0
 12 14  1  0  0  0  0
 14 15  1  0  0  0  0
 14 38  1  0  0  0  0
 15 19  1  0  0  0  0
 15 16  2  0  0  0  0
 16 17  1  0  0  0  0
 17 18  2  0  0  0  0
 18 19  1  0  0  0  0
 18 39  1  0  0  0  0
M  END
> <s_m_source_file>
AV-unprocessed.smi

> <i_m_source_file_index>
1947

> <i_lp_mmshare_version>
43012

> <i_f3d_flags>
0

> <s_epik_input>
W0NIM11bQ0BASF0xW0NIMl1bQ0gyXVtDSDJdW0NIMl1bQ0BIXTFPW0NIMl1bQ0gyXVtOSF1DKD1PKVtOSF1jMm5uW2NIXXMy

> <s_epik_cmdline>
J2VwaWtfcHl0aG9uJywgJy1waCcsICc3LjAnLCAnLXRuJywgJzgnLCAnLW1hJywgJzIwMCcsICctbWV0YWxfYmluZGluZycsICctaW1hZScsICc8aW5maWxlLm1hZT4nLCAnLW9tYWUnLCAnPG91dGZpbGUubWFlPic=

> <r_lp_tautomer_probability>
1

> <r_epik_Ionization_Penalty>
0.00220897

> <r_epik_Ionization_Penalty_Charging>
0

> <r_epik_Ionization_Penalty_Neutral>
0.00220897

> <r_epik_State_Penalty>
-0

> <r_epik_Charging_Adjusted_Penalty>
0

> <i_epik_Tot_Q>
0

> <i_epik_Tot_abs_Q>
0

> <r_epik_Metal_State_Penalty>
0.345002

> <b_epik_Metal_Only>
0

> <s_lp_Force_Field>
OPLS_2005

> <r_lp_Energy>
8.93842

> <b_lp_Chiralities_Consistent>
1

> <s_lp_Variant>
AV-unprocessed.smi:1947-3

> <Gold.Version>
5.8.1

> <Gold.Id.Protein>
6NUR|6NUR_protein|mol2

> <Gold.PLP.Fitness>
51.7833

> <Gold.PLP.PLP>
-42.9036

> <Gold.PLP.part.hbond>
-5.6288

> <Gold.PLP.part.metal>
0.0000

> <Gold.PLP.part.buried>
-3.6971

> <Gold.PLP.part.nonpolar>
-34.2825

> <Gold.PLP.part.repulsive>
0.1900

> <Gold.PLP.ligand.clash>
0.0000

> <Gold.PLP.ligand.torsion>
0.6472

> <Gold.PLP.Chemscore.Hbond>
3.3840

> <Gold.PLP.Chemscore.CHOScore>
0.0000

> <Gold.PLP.Chemscore.Metal>
0.0000

> <Gold.Chemscore.Hbonds>
donor molecule, donor type, donor heavy atom, donor atom, acceptor molecule, acceptor atom, score
      L1  H    11    37       P1  8028  0.48
      L1  H    14    38       P1  8029  1.00
      P1  H  6933  6944       L1    16  0.77
      P1  H  6934  6946       L1    16  0.74

> <Gold.PLP.Chemscore.Internal.Correction>
0.0221

> <Gold.Rescore>
     Score         DG    S(hbond)    S(metal)    S(lipo)     H(rot)  DE(clash)    DE(int)     intcor
     17.90     -21.16       2.41        0.00     107.56       1.94       0.80       2.46       ----

> <Gold.Chemscore.Fitness>
17.9013

> <Gold.Chemscore.DG>
-21.1612

> <Gold.Chemscore.ZeroCoef>
-5.4800

> <Gold.Chemscore.Hbond>
2.4130

> <Gold.Chemscore.Metal>
0.0000

> <Gold.Chemscore.Lipo>
107.5599

> <Gold.Chemscore.Internal_Hbond>
0.0000

> <Gold.Chemscore.DEClash>
0.7950

> <Gold.Chemscore.DEInternal>
2.4650

> <Gold.Chemscore.Rot>
1.9385

> <Gold.Chemscore.Internal.Correction>
   9.000000E+99

> <Gold.Chemscore.Hbonds>
donor molecule, donor type, donor heavy atom, donor atom, acceptor molecule, acceptor atom, score
      L1  H    11    37       P1  8028  0.14
      L1  H    14    38       P1  8029  0.92
      P1  H  6933  6944       L1    16  0.62
      P1  H  6934  6946       L1    16  0.28

> <Gold.Chemscore.Hbond.Weighted>
-8.0593

> <Gold.Chemscore.Metal.Weighted>
-0.0000

> <Gold.Chemscore.Lipo.Weighted>
-12.5845

> <Gold.Chemscore.Internal_Hbond.Weighted>
0.0000

> <Gold.Chemscore.DEClash.Weighted>
0.7950

> <Gold.Chemscore.DEInternal.Weighted>
2.4650

> <Gold.Chemscore.Rot.Weighted>
4.9625

> <Gold.Chemscore.Internal.Correction.Weighted>
   9.000000E+99

> <Gold.Protein.RotatedTorsions>
[ 6907 6896 6895 6894 ] final -162.80 input  -60.11 | X-H torsion
[ 7974 7965 7964 7962 ] final   32.74 input  175.53 | X-H torsion
[ 8008 7997 7996 7995 ] final -160.56 input   59.86 | X-H torsion
[ 10167 10162 10161 10158 ] final   34.77 input  -65.29 | X-H torsion
[ 10718 10713 10712 10709 ] final -162.49 input   66.30 | X-H torsion
[ 10763 10752 10751 10750 ] final   62.29 input  -60.55 | X-H torsion
[ 11005 11000 10999 10996 ] final  -29.42 input  -57.11 | X-H torsion

> <Gold.Protein.ActiveResidues>
 VAL166  LYS551  ARG553  GLY616  TRP617  ASP618  TYR619  PRO620  LYS621  CYS622 
 ASP623  PHE694  ASN695  SER759  ASP760  ASP761  ALA762  ILE779  LEU786  VAL792 
 PHE793  MET794  SER795  GLU796  ALA797  LYS798  CYS799  TRP800  GLU811  SER814 

> <Gold.Protein.RotatedAtoms>
  151.3860  133.3805  159.2715 H   0  0  0  0  0  0  0  0  0  0  0  0  # atno 6907 bound_to 6896
  150.9541  134.8939  159.7701 H   0  0  0  0  0  0  0  0  0  0  0  0  # atno 6908 bound_to 6896
  152.5123  134.3816  159.9405 H   0  0  0  0  0  0  0  0  0  0  0  0  # atno 6909 bound_to 6896
  146.1467  139.6487  142.9127 H   0  0  0  0  0  0  0  0  0  0  0  0  # atno 7974 bound_to 7965
  155.7792  140.0862  157.2068 H   0  0  0  0  0  0  0  0  0  0  0  0  # atno 8008 bound_to 7997
  154.3991  140.1511  156.3090 H   0  0  0  0  0  0  0  0  0  0  0  0  # atno 8009 bound_to 7997
  155.8670  140.3427  155.5798 H   0  0  0  0  0  0  0  0  0  0  0  0  # atno 8010 bound_to 7997
  140.4284  144.1360  150.6156 H   0  0  0  0  0  0  0  0  0  0  0  0  # atno 10167 bound_to 10162
  156.6112  130.8851  151.2937 H   0  0  0  0  0  0  0  0  0  0  0  0  # atno 10718 bound_to 10713
  152.9978  135.5470  154.6170 H   0  0  0  0  0  0  0  0  0  0  0  0  # atno 10763 bound_to 10752
  154.5478  135.2824  155.1039 H   0  0  0  0  0  0  0  0  0  0  0  0  # atno 10764 bound_to 10752
  154.2290  135.6437  153.5222 H   0  0  0  0  0  0  0  0  0  0  0  0  # atno 10765 bound_to 10752
  140.9294  133.7347  156.0915 H   0  0  0  0  0  0  0  0  0  0  0  0  # atno 11005 bound_to 11000
  145.4921  141.0438  143.2587 LP  0  0  0  0  0  0  0  0  0  0  0  0  # atno 17320 bound_to 7965
  144.7854  139.6437  143.7136 LP  0  0  0  0  0  0  0  0  0  0  0  0  # atno 17321 bound_to 7965
  140.4455  143.2508  151.9417 LP  0  0  0  0  0  0  0  0  0  0  0  0  # atno 17342 bound_to 10162
  139.4784  144.5613  151.8234 LP  0  0  0  0  0  0  0  0  0  0  0  0  # atno 17343 bound_to 10162
  157.7253  130.9615  150.1611 LP  0  0  0  0  0  0  0  0  0  0  0  0  # atno 17370 bound_to 10713
  156.2388  130.3689  149.8361 LP  0  0  0  0  0  0  0  0  0  0  0  0  # atno 17371 bound_to 10713
  140.7882  134.3648  157.5471 LP  0  0  0  0  0  0  0  0  0  0  0  0  # atno 17394 bound_to 11000
  139.8793  134.9124  156.3059 LP  0  0  0  0  0  0  0  0  0  0  0  0  # atno 17395 bound_to 11000

$$$$
