AV-unprocessed.smi:1867|AV-procd|sdf|7580|dock6
  -GOLD-   22720 9293D 1   1.00000     0.00000
 Structure written by MMmdl.
 52 55  0  0  0  0  0  0  0  0  4 V2000
  146.3095  140.3476  155.5755 O   0  0  0  0  0  0  0  0  0  0  0  0
  146.9354  139.4003  155.1034 C   0  0  0  0  0  0  0  0  0  0  0  0
  148.2851  139.3739  155.2343 N   0  0  0  0  0  0  0  0  0  0  0  0
  149.1386  140.2894  155.9057 C   0  0  0  0  0  0  0  0  0  0  0  0
  150.2008  139.7626  156.6690 C   0  0  0  0  0  0  0  0  0  0  0  0
  151.0608  140.6346  157.3673 C   0  0  0  0  0  0  0  0  0  0  0  0
  150.8436  142.0315  157.3050 C   0  0  0  0  0  0  0  0  0  0  0  0
  151.6596  142.9599  157.9786 N   0  0  0  0  0  0  0  0  0  0  0  0
  152.0991  142.7299  159.3460 C   0  0  0  0  0  0  0  0  0  0  0  0
  152.7795  144.0347  159.7564 C   0  0  0  0  0  0  0  0  0  0  0  0
  151.9846  145.0931  158.9910 C   0  0  0  0  0  0  0  0  0  0  0  0
  151.5703  144.3859  157.6951 C   0  0  0  0  0  0  0  0  0  0  0  0
  149.7959  142.4910  156.5799 N   0  3  0  0  0  0  0  0  0  0  0  0
  148.9504  141.6915  155.8941 C   0  0  0  0  0  0  0  0  0  0  0  0
  146.2980  138.3953  154.4295 N   0  5  0  0  0  0  0  0  0  0  0  0
  146.6891  137.7190  153.1830 C   0  0  2  0  0  0  0  0  0  0  0  0
  146.3894  138.5565  151.9308 C   0  0  0  0  0  0  0  0  0  0  0  0
  146.1489  137.5203  150.8187 C   0  0  0  0  0  0  0  0  0  0  0  0
  146.1537  136.1974  151.4843 N   0  3  2  0  0  0  0  0  0  0  0  0
  145.3656  135.1192  150.8333 C   0  0  0  0  0  0  0  0  0  0  0  0
  143.8627  135.2145  151.1405 C   0  0  0  0  0  0  0  0  0  0  0  0
  143.6264  135.2813  152.6523 C   0  0  0  0  0  0  0  0  0  0  0  0
  144.3737  136.4874  153.2314 C   0  0  0  0  0  0  0  0  0  0  0  0
  145.9016  136.4184  152.9280 C   0  0  2  0  0  0  0  0  0  0  0  0
  148.7522  138.6303  154.7370 H   0  0  0  0  0  0  0  0  0  0  0  0
  150.3618  138.6953  156.7169 H   0  0  0  0  0  0  0  0  0  0  0  0
  151.8717  140.2204  157.9478 H   0  0  0  0  0  0  0  0  0  0  0  0
  151.2335  142.5325  159.9801 H   0  0  0  0  0  0  0  0  0  0  0  0
  152.7799  141.8807  159.4140 H   0  0  0  0  0  0  0  0  0  0  0  0
  152.7779  144.1942  160.8351 H   0  0  0  0  0  0  0  0  0  0  0  0
  153.8162  144.0352  159.4159 H   0  0  0  0  0  0  0  0  0  0  0  0
  151.0943  145.3609  159.5619 H   0  0  0  0  0  0  0  0  0  0  0  0
  152.5531  146.0061  158.8116 H   0  0  0  0  0  0  0  0  0  0  0  0
  152.2599  144.6279  156.8856 H   0  0  0  0  0  0  0  0  0  0  0  0
  150.5667  144.6863  157.3925 H   0  0  0  0  0  0  0  0  0  0  0  0
  148.1536  142.2051  155.3770 H   0  0  0  0  0  0  0  0  0  0  0  0
  147.7519  137.4694  153.1757 H   0  0  0  0  0  0  0  0  0  0  0  0
  145.4898  139.1587  152.0689 H   0  0  0  0  0  0  0  0  0  0  0  0
  147.2061  139.2382  151.6915 H   0  0  0  0  0  0  0  0  0  0  0  0
  145.1942  137.7119  150.3267 H   0  0  0  0  0  0  0  0  0  0  0  0
  146.9277  137.5514  150.0554 H   0  0  0  0  0  0  0  0  0  0  0  0
  145.5423  135.1313  149.7573 H   0  0  0  0  0  0  0  0  0  0  0  0
  145.7442  134.1639  151.1985 H   0  0  0  0  0  0  0  0  0  0  0  0
  143.4361  136.0960  150.6607 H   0  0  0  0  0  0  0  0  0  0  0  0
  143.3431  134.3532  150.7200 H   0  0  0  0  0  0  0  0  0  0  0  0
  142.5597  135.3640  152.8632 H   0  0  0  0  0  0  0  0  0  0  0  0
  143.9717  134.3626  153.1283 H   0  0  0  0  0  0  0  0  0  0  0  0
  143.9204  137.3927  152.8209 H   0  0  0  0  0  0  0  0  0  0  0  0
  144.2020  136.5258  154.3086 H   0  0  0  0  0  0  0  0  0  0  0  0
  146.3365  135.5940  153.4949 H   0  0  0  0  0  0  0  0  0  0  0  0
  147.1179  135.9010  151.4382 H   0  0  0  0  0  0  0  0  0  0  0  0
  149.6335  143.4975  156.5485 H   0  0  0  0  0  0  0  0  0  0  0  0
  1  2  2  0  0  0  0
  2  3  1  0  0  0  0
  2 15  1  0  0  0  0
  3  4  1  0  0  0  0
  3 25  1  0  0  0  0
  4 14  1  0  0  0  0
  4  5  2  0  0  0  0
  5  6  1  0  0  0  0
  5 26  1  0  0  0  0
  6  7  2  0  0  0  0
  6 27  1  0  0  0  0
  7  8  1  0  0  0  0
  7 13  1  0  0  0  0
  8 12  1  0  0  0  0
  8  9  1  0  0  0  0
  9 10  1  0  0  0  0
  9 28  1  0  0  0  0
  9 29  1  0  0  0  0
 10 11  1  0  0  0  0
 10 30  1  0  0  0  0
 10 31  1  0  0  0  0
 11 12  1  0  0  0  0
 11 32  1  0  0  0  0
 11 33  1  0  0  0  0
 12 34  1  0  0  0  0
 12 35  1  0  0  0  0
 13 14  2  0  0  0  0
 13 52  1  0  0  0  0
 14 36  1  0  0  0  0
 15 16  1  0  0  0  0
 16 24  1  0  0  0  0
 16 17  1  0  0  0  0
 16 37  1  0  0  0  0
 17 18  1  0  0  0  0
 17 38  1  0  0  0  0
 17 39  1  0  0  0  0
 18 19  1  0  0  0  0
 18 40  1  0  0  0  0
 18 41  1  0  0  0  0
 19 24  1  0  0  0  0
 19 20  1  0  0  0  0
 19 51  1  0  0  0  0
 20 21  1  0  0  0  0
 20 42  1  0  0  0  0
 20 43  1  0  0  0  0
 21 22  1  0  0  0  0
 21 44  1  0  0  0  0
 21 45  1  0  0  0  0
 22 23  1  0  0  0  0
 22 46  1  0  0  0  0
 22 47  1  0  0  0  0
 23 24  1  0  0  0  0
 23 48  1  0  0  0  0
 23 49  1  0  0  0  0
 24 50  1  0  0  0  0
M  CHG  1  13   1
M  CHG  1  15  -1
M  CHG  1  19   1
M  END
> <s_m_source_file>
AV-unprocessed.smi

> <i_m_source_file_index>
1867

> <i_lp_mmshare_version>
43012

> <i_f3d_flags>
0

> <s_epik_input>
W0NIMl0xW0NIMl1bQ0gyXVtDSDJdW0NASF0oTjEyKVtDQEBIXShbQ0gyXVtDSDJdMilbTkhdQyg9TylbTkhdYzNbY0hdW2NIXWMobltjSF0zKU40W0NIMl1bQ0gyXVtDSDJdW0NIMl00

> <s_epik_cmdline>
J2VwaWtfcHl0aG9uJywgJy1waCcsICc3LjAnLCAnLXRuJywgJzgnLCAnLW1hJywgJzIwMCcsICctbWV0YWxfYmluZGluZycsICctaW1hZScsICc8aW5maWxlLm1hZT4nLCAnLW9tYWUnLCAnPG91dGZpbGUubWFlPic=

> <r_lp_tautomer_probability>
0.999994

> <r_epik_Ionization_Penalty>
8.56137

> <r_epik_Ionization_Penalty_Charging>
8.56136

> <r_epik_Ionization_Penalty_Neutral>
3.91889e-06

> <r_epik_State_Penalty>
8.16255

> <r_epik_Charging_Adjusted_Penalty>
16.7239

> <i_epik_Tot_Q>
1

> <i_epik_Tot_abs_Q>
3

> <r_epik_Metal_State_Penalty>
4.14279

> <b_epik_Metal_Only>
1

> <s_lp_Force_Field>
OPLS_2005

> <r_lp_Energy>
70.2226

> <b_lp_Chiralities_Consistent>
1

> <s_lp_Variant>
AV-unprocessed.smi:1867-21

> <Gold.Version>
5.8.1

> <Gold.Id.Protein>
6NUR|6NUR_protein|mol2

> <Gold.PLP.Fitness>
48.2605

> <Gold.PLP.PLP>
-39.1613

> <Gold.PLP.part.hbond>
-2.0000

> <Gold.PLP.part.metal>
0.0000

> <Gold.PLP.part.buried>
2.4789

> <Gold.PLP.part.nonpolar>
-40.5560

> <Gold.PLP.part.repulsive>
0.2865

> <Gold.PLP.ligand.clash>
0.0000

> <Gold.PLP.ligand.torsion>
1.2425

> <Gold.PLP.Chemscore.Hbond>
3.7760

> <Gold.PLP.Chemscore.CHOScore>
0.0000

> <Gold.PLP.Chemscore.Metal>
0.0000

> <Gold.Chemscore.Hbonds>
donor molecule, donor type, donor heavy atom, donor atom, acceptor molecule, acceptor atom, score
      L1  H    13    52       P1  8028  1.76
      L1  H    19    51       P1  7948  2.00

> <Gold.PLP.Chemscore.Internal.Correction>
0.2562

> <Gold.Rescore>
     Score         DG    S(hbond)    S(metal)    S(lipo)     H(rot)  DE(clash)    DE(int)     intcor
     18.67     -22.61       1.81        0.00     116.60       1.00       1.65       2.29       ----

> <Gold.Chemscore.Fitness>
18.6729

> <Gold.Chemscore.DG>
-22.6106

> <Gold.Chemscore.ZeroCoef>
-5.4800

> <Gold.Chemscore.Hbond>
1.8109

> <Gold.Chemscore.Metal>
0.0000

> <Gold.Chemscore.Lipo>
116.6003

> <Gold.Chemscore.Internal_Hbond>
0.0000

> <Gold.Chemscore.DEClash>
1.6457

> <Gold.Chemscore.DEInternal>
2.2920

> <Gold.Chemscore.Rot>
1.0000

> <Gold.Chemscore.Internal.Correction>
   9.000000E+99

> <Gold.Chemscore.Hbonds>
donor molecule, donor type, donor heavy atom, donor atom, acceptor molecule, acceptor atom, score
      L1  H    13    52       P1  8028  0.86
      L1  H    19    51       P1  7948  0.94

> <Gold.Chemscore.Hbond.Weighted>
-6.0483

> <Gold.Chemscore.Metal.Weighted>
-0.0000

> <Gold.Chemscore.Lipo.Weighted>
-13.6422

> <Gold.Chemscore.Internal_Hbond.Weighted>
0.0000

> <Gold.Chemscore.DEClash.Weighted>
1.6457

> <Gold.Chemscore.DEInternal.Weighted>
2.2920

> <Gold.Chemscore.Rot.Weighted>
2.5600

> <Gold.Chemscore.Internal.Correction.Weighted>
   9.000000E+99

> <Gold.Protein.RotatedTorsions>
[ 6907 6896 6895 6894 ] final -170.27 input  -60.11 | X-H torsion
[ 7974 7965 7964 7962 ] final -177.15 input  175.53 | X-H torsion
[ 8008 7997 7996 7995 ] final   21.20 input   59.86 | X-H torsion
[ 10167 10162 10161 10158 ] final  132.31 input  -65.29 | X-H torsion
[ 10718 10713 10712 10709 ] final   80.48 input   66.30 | X-H torsion
[ 10763 10752 10751 10750 ] final  -33.40 input  -60.55 | X-H torsion
[ 11005 11000 10999 10996 ] final   72.20 input  -57.11 | X-H torsion

> <Gold.Protein.ActiveResidues>
 VAL166  LYS551  ARG553  GLY616  TRP617  ASP618  TYR619  PRO620  LYS621  CYS622 
 ASP623  PHE694  ASN695  SER759  ASP760  ASP761  ALA762  ILE779  LEU786  VAL792 
 PHE793  MET794  SER795  GLU796  ALA797  LYS798  CYS799  TRP800  GLU811  SER814 

> <Gold.Protein.RotatedAtoms>
  151.5050  133.3496  159.2875 H   0  0  0  0  0  0  0  0  0  0  0  0  # atno 6907 bound_to 6896
  150.8748  134.8132  159.7193 H   0  0  0  0  0  0  0  0  0  0  0  0  # atno 6908 bound_to 6896
  152.4723  134.4939  159.9756 H   0  0  0  0  0  0  0  0  0  0  0  0  # atno 6909 bound_to 6896
  144.7127  140.1063  143.6413 H   0  0  0  0  0  0  0  0  0  0  0  0  # atno 7974 bound_to 7965
  154.9471  140.3061  155.5093 H   0  0  0  0  0  0  0  0  0  0  0  0  # atno 8008 bound_to 7997
  156.2990  140.2325  156.4483 H   0  0  0  0  0  0  0  0  0  0  0  0  # atno 8009 bound_to 7997
  154.8090  140.0429  157.1317 H   0  0  0  0  0  0  0  0  0  0  0  0  # atno 8010 bound_to 7997
  139.5345  144.6668  151.4833 H   0  0  0  0  0  0  0  0  0  0  0  0  # atno 10167 bound_to 10162
  157.6807  130.9961  150.2085 H   0  0  0  0  0  0  0  0  0  0  0  0  # atno 10718 bound_to 10713
  153.8296  135.6867  153.4816 H   0  0  0  0  0  0  0  0  0  0  0  0  # atno 10763 bound_to 10752
  153.1519  135.4614  154.9647 H   0  0  0  0  0  0  0  0  0  0  0  0  # atno 10764 bound_to 10752
  154.7892  135.3296  154.7760 H   0  0  0  0  0  0  0  0  0  0  0  0  # atno 10765 bound_to 10752
  139.9503  134.7239  156.0879 H   0  0  0  0  0  0  0  0  0  0  0  0  # atno 11005 bound_to 11000
  145.9494  139.2723  143.1221 LP  0  0  0  0  0  0  0  0  0  0  0  0  # atno 17320 bound_to 7965
  145.9340  140.9028  143.0342 LP  0  0  0  0  0  0  0  0  0  0  0  0  # atno 17321 bound_to 7965
  140.6544  143.8630  150.6819 LP  0  0  0  0  0  0  0  0  0  0  0  0  # atno 17342 bound_to 10162
  140.2005  143.3963  152.1795 LP  0  0  0  0  0  0  0  0  0  0  0  0  # atno 17343 bound_to 10162
  156.2761  130.3727  149.7982 LP  0  0  0  0  0  0  0  0  0  0  0  0  # atno 17370 bound_to 10713
  156.5685  130.8414  151.3349 LP  0  0  0  0  0  0  0  0  0  0  0  0  # atno 17371 bound_to 10713
  141.1164  133.6626  156.3105 LP  0  0  0  0  0  0  0  0  0  0  0  0  # atno 17394 bound_to 11000
  140.5735  134.5817  157.5463 LP  0  0  0  0  0  0  0  0  0  0  0  0  # atno 17395 bound_to 11000

$$$$
