AV-unprocessed.smi:2530|AV-procd|sdf|9962|dock8
  -GOLD-   2272014 03D 1   1.00000     0.00000
 Structure written by MMmdl.
 44 46  0  0  0  0  0  0  0  0  1 V2000
  151.5519  138.8163  154.9038 C   0  0  0  0  0  0  0  0  0  0  0  0
  150.2625  139.5667  154.6422 C   0  0  0  0  0  0  0  0  0  0  0  0
  150.0915  140.8757  155.1273 C   0  0  0  0  0  0  0  0  0  0  0  0
  148.8841  141.5579  154.8942 C   0  0  0  0  0  0  0  0  0  0  0  0
  147.8308  140.9437  154.1823 C   0  0  0  0  0  0  0  0  0  0  0  0
  146.5489  141.7376  153.9878 C   0  0  0  0  0  0  0  0  0  0  0  0
  147.9994  139.6206  153.6842 C   0  0  0  0  0  0  0  0  0  0  0  0
  146.9073  138.8502  152.9327 C   0  0  2  0  0  0  0  0  0  0  0  0
  146.2999  139.5914  151.8953 O   0  0  0  0  0  0  0  0  0  0  0  0
  145.8113  138.2483  153.8483 C   0  0  0  0  0  0  0  0  0  0  0  0
  145.2715  136.9754  153.3368 N   0  0  0  0  0  0  0  0  0  0  0  0
  146.2004  135.9508  153.0663 C   0  0  0  0  0  0  0  0  0  0  0  0
  145.8357  134.8194  152.5534 N   0  0  0  0  0  0  0  0  0  0  0  0
  144.4870  134.5910  152.2541 C   0  0  0  0  0  0  0  0  0  0  0  0
  144.0826  133.2486  151.6569 C   0  0  0  0  0  0  0  0  0  0  0  0
  145.1789  132.1826  151.4702 C   0  0  0  0  0  0  0  0  0  0  0  0
  144.5181  131.8389  150.1296 C   0  0  0  0  0  0  0  0  0  0  0  0
  143.9210  133.2513  150.1309 C   0  0  0  0  0  0  0  0  0  0  0  0
  143.5541  135.5312  152.5328 C   0  0  0  0  0  0  0  0  0  0  0  0
  143.9351  136.8200  153.1100 C   0  0  0  0  0  0  0  0  0  0  0  0
  143.1151  137.7046  153.3561 O   0  0  0  0  0  0  0  0  0  0  0  0
  149.2217  138.9509  153.9219 C   0  0  0  0  0  0  0  0  0  0  0  0
  152.3802  139.5060  155.0682 H   0  0  0  0  0  0  0  0  0  0  0  0
  151.8063  138.1784  154.0570 H   0  0  0  0  0  0  0  0  0  0  0  0
  151.4463  138.1880  155.7884 H   0  0  0  0  0  0  0  0  0  0  0  0
  150.8820  141.3591  155.6827 H   0  0  0  0  0  0  0  0  0  0  0  0
  148.7683  142.5620  155.2756 H   0  0  0  0  0  0  0  0  0  0  0  0
  146.4393  142.0394  152.9463 H   0  0  0  0  0  0  0  0  0  0  0  0
  146.5518  142.6448  154.5928 H   0  0  0  0  0  0  0  0  0  0  0  0
  145.6744  141.1602  154.2804 H   0  0  0  0  0  0  0  0  0  0  0  0
  147.3958  138.0193  152.4224 H   0  0  0  0  0  0  0  0  0  0  0  0
  145.5718  140.0719  152.2590 H   0  0  0  0  0  0  0  0  0  0  0  0
  146.2000  138.1158  154.8582 H   0  0  0  0  0  0  0  0  0  0  0  0
  145.0009  138.9695  153.9686 H   0  0  0  0  0  0  0  0  0  0  0  0
  147.2397  136.1815  153.3058 H   0  0  0  0  0  0  0  0  0  0  0  0
  143.2042  132.8283  152.1514 H   0  0  0  0  0  0  0  0  0  0  0  0
  146.1884  132.5727  151.3345 H   0  0  0  0  0  0  0  0  0  0  0  0
  145.1582  131.3768  152.2044 H   0  0  0  0  0  0  0  0  0  0  0  0
  145.2138  131.6382  149.3144 H   0  0  0  0  0  0  0  0  0  0  0  0
  143.7601  131.0588  150.2180 H   0  0  0  0  0  0  0  0  0  0  0  0
  142.8900  133.3124  149.7816 H   0  0  0  0  0  0  0  0  0  0  0  0
  144.5610  133.9792  149.6290 H   0  0  0  0  0  0  0  0  0  0  0  0
  142.5131  135.3398  152.3158 H   0  0  0  0  0  0  0  0  0  0  0  0
  149.3588  137.9409  153.5634 H   0  0  0  0  0  0  0  0  0  0  0  0
  1  2  1  0  0  0  0
  1 23  1  0  0  0  0
  1 24  1  0  0  0  0
  1 25  1  0  0  0  0
  2 22  1  0  0  0  0
  2  3  2  0  0  0  0
  3  4  1  0  0  0  0
  3 26  1  0  0  0  0
  4  5  2  0  0  0  0
  4 27  1  0  0  0  0
  5  6  1  0  0  0  0
  5  7  1  0  0  0  0
  6 28  1  0  0  0  0
  6 29  1  0  0  0  0
  6 30  1  0  0  0  0
  7  8  1  0  0  0  0
  7 22  2  0  0  0  0
  8  9  1  0  0  0  0
  8 10  1  0  0  0  0
  8 31  1  0  0  0  0
  9 32  1  0  0  0  0
 10 11  1  0  0  0  0
 10 33  1  0  0  0  0
 10 34  1  0  0  0  0
 11 20  1  0  0  0  0
 11 12  1  0  0  0  0
 12 13  2  0  0  0  0
 12 35  1  0  0  0  0
 13 14  1  0  0  0  0
 14 15  1  0  0  0  0
 14 19  2  0  0  0  0
 15 18  1  0  0  0  0
 15 16  1  0  0  0  0
 15 36  1  0  0  0  0
 16 17  1  0  0  0  0
 16 37  1  0  0  0  0
 16 38  1  0  0  0  0
 17 18  1  0  0  0  0
 17 39  1  0  0  0  0
 17 40  1  0  0  0  0
 18 41  1  0  0  0  0
 18 42  1  0  0  0  0
 19 20  1  0  0  0  0
 19 43  1  0  0  0  0
 20 21  2  0  0  0  0
 22 44  1  0  0  0  0
M  END
> <s_m_source_file>
AV-unprocessed.smi

> <i_m_source_file_index>
2530

> <i_lp_mmshare_version>
43012

> <i_f3d_flags>
0

> <s_epik_input>
W0NIM11jMVtjSF1bY0hdYyhbQ0gzXSljKFtjSF0xKVtDQEhdKFtPSF0pW0NIMl1uMltjSF1uYyhbY0hdYzI9TylbQ0hdM1tDSDJdW0NIMl1bQ0gyXTM=

> <s_epik_cmdline>
J2VwaWtfcHl0aG9uJywgJy1waCcsICc3LjAnLCAnLXRuJywgJzgnLCAnLW1hJywgJzIwMCcsICctbWV0YWxfYmluZGluZycsICctaW1hZScsICc8aW5maWxlLm1hZT4nLCAnLW9tYWUnLCAnPG91dGZpbGUubWFlPic=

> <r_lp_tautomer_probability>
1

> <r_epik_Ionization_Penalty>
2.57341e-05

> <r_epik_Ionization_Penalty_Charging>
5.39435e-08

> <r_epik_Ionization_Penalty_Neutral>
2.56801e-05

> <r_epik_State_Penalty>
-0

> <r_epik_Charging_Adjusted_Penalty>
5.39435e-08

> <i_epik_Tot_Q>
0

> <i_epik_Tot_abs_Q>
0

> <r_epik_Metal_State_Penalty>
-0

> <b_epik_Metal_Only>
0

> <s_lp_Force_Field>
OPLS_2005

> <r_lp_Energy>
27.4041

> <b_lp_Chiralities_Consistent>
1

> <s_lp_Variant>
AV-unprocessed.smi:2530-1

> <Gold.Version>
5.8.1

> <Gold.Id.Protein>
6NUR|6NUR_protein|mol2

> <Gold.PLP.Fitness>
42.1067

> <Gold.PLP.PLP>
-38.2794

> <Gold.PLP.part.hbond>
-1.1853

> <Gold.PLP.part.metal>
0.0000

> <Gold.PLP.part.buried>
-0.1971

> <Gold.PLP.part.nonpolar>
-38.1813

> <Gold.PLP.part.repulsive>
2.3425

> <Gold.PLP.ligand.clash>
0.0000

> <Gold.PLP.ligand.torsion>
1.1114

> <Gold.PLP.Chemscore.Hbond>
1.0000

> <Gold.PLP.Chemscore.CHOScore>
0.8727

> <Gold.PLP.Chemscore.Metal>
0.0000

> <Gold.Chemscore.Hbonds>
donor molecule, donor type, donor heavy atom, donor atom, acceptor molecule, acceptor atom, score
      L1  H     9    32       P1 10175  1.00
      L1  C    12    35       P1  7948  0.92

> <Gold.PLP.Chemscore.Internal.Correction>
0.4319

> <Gold.Rescore>
     Score         DG    S(hbond)    S(metal)    S(lipo)     H(rot)  DE(clash)    DE(int)     intcor
     13.28     -15.84       0.88        0.00     106.41       1.97       0.98       1.58       ----

> <Gold.Chemscore.Fitness>
13.2774

> <Gold.Chemscore.DG>
-15.8365

> <Gold.Chemscore.ZeroCoef>
-5.4800

> <Gold.Chemscore.Hbond>
0.8819

> <Gold.Chemscore.Metal>
0.0000

> <Gold.Chemscore.Lipo>
106.4108

> <Gold.Chemscore.Internal_Hbond>
0.0000

> <Gold.Chemscore.DEClash>
0.9832

> <Gold.Chemscore.DEInternal>
1.5759

> <Gold.Chemscore.Rot>
1.9684

> <Gold.Chemscore.Internal.Correction>
   9.000000E+99

> <Gold.Chemscore.Hbonds>
donor molecule, donor type, donor heavy atom, donor atom, acceptor molecule, acceptor atom, score
      L1  H     9    32       P1 10175  0.72

> <Gold.Chemscore.Hbond.Weighted>
-2.9456

> <Gold.Chemscore.Metal.Weighted>
-0.0000

> <Gold.Chemscore.Lipo.Weighted>
-12.4501

> <Gold.Chemscore.Internal_Hbond.Weighted>
0.0000

> <Gold.Chemscore.DEClash.Weighted>
0.9832

> <Gold.Chemscore.DEInternal.Weighted>
1.5759

> <Gold.Chemscore.Rot.Weighted>
5.0391

> <Gold.Chemscore.Internal.Correction.Weighted>
   9.000000E+99

> <Gold.Protein.RotatedTorsions>
[ 6907 6896 6895 6894 ] final  -52.62 input  -60.11 | X-H torsion
[ 7974 7965 7964 7962 ] final  -30.61 input  175.53 | X-H torsion
[ 8008 7997 7996 7995 ] final  148.84 input   59.86 | X-H torsion
[ 10167 10162 10161 10158 ] final  142.56 input  -65.29 | X-H torsion
[ 10718 10713 10712 10709 ] final  134.19 input   66.30 | X-H torsion
[ 10763 10752 10751 10750 ] final  100.59 input  -60.55 | X-H torsion
[ 11005 11000 10999 10996 ] final -142.13 input  -57.11 | X-H torsion

> <Gold.Protein.ActiveResidues>
 VAL166  LYS551  ARG553  GLY616  TRP617  ASP618  TYR619  PRO620  LYS621  CYS622 
 ASP623  PHE694  ASN695  SER759  ASP760  ASP761  ALA762  ILE779  LEU786  VAL792 
 PHE793  MET794  SER795  GLU796  ALA797  LYS798  CYS799  TRP800  GLU811  SER814 

> <Gold.Protein.RotatedAtoms>
  150.8501  134.7823  159.7001 H   0  0  0  0  0  0  0  0  0  0  0  0  # atno 6907 bound_to 6896
  152.4568  134.5271  159.9809 H   0  0  0  0  0  0  0  0  0  0  0  0  # atno 6908 bound_to 6896
  151.5393  133.3397  159.2968 H   0  0  0  0  0  0  0  0  0  0  0  0  # atno 6909 bound_to 6896
  146.1130  140.5562  142.8769 H   0  0  0  0  0  0  0  0  0  0  0  0  # atno 7974 bound_to 7965
  156.2777  140.2118  156.5762 H   0  0  0  0  0  0  0  0  0  0  0  0  # atno 8008 bound_to 7997
  154.7095  140.0513  157.0559 H   0  0  0  0  0  0  0  0  0  0  0  0  # atno 8009 bound_to 7997
  155.0625  140.3168  155.4659 H   0  0  0  0  0  0  0  0  0  0  0  0  # atno 8010 bound_to 7997
  139.4991  144.6098  151.6296 H   0  0  0  0  0  0  0  0  0  0  0  0  # atno 10167 bound_to 10162
  157.4697  131.1079  150.9818 H   0  0  0  0  0  0  0  0  0  0  0  0  # atno 10718 bound_to 10713
  153.3158  135.4074  155.1375 H   0  0  0  0  0  0  0  0  0  0  0  0  # atno 10763 bound_to 10752
  154.8588  135.3575  154.5662 H   0  0  0  0  0  0  0  0  0  0  0  0  # atno 10764 bound_to 10752
  153.6093  135.7068  153.5412 H   0  0  0  0  0  0  0  0  0  0  0  0  # atno 10765 bound_to 10752
  140.8256  134.2579  157.4880 H   0  0  0  0  0  0  0  0  0  0  0  0  # atno 11005 bound_to 11000
  144.7528  140.5233  143.6790 LP  0  0  0  0  0  0  0  0  0  0  0  0  # atno 17320 bound_to 7965
  145.5625  139.1480  143.3333 LP  0  0  0  0  0  0  0  0  0  0  0  0  # atno 17321 bound_to 7965
  140.5770  144.0011  150.6247 LP  0  0  0  0  0  0  0  0  0  0  0  0  # atno 17342 bound_to 10162
  140.3148  143.3175  152.0843 LP  0  0  0  0  0  0  0  0  0  0  0  0  # atno 17343 bound_to 10162
  157.0587  130.5816  149.5382 LP  0  0  0  0  0  0  0  0  0  0  0  0  # atno 17370 bound_to 10713
  156.0067  130.5155  150.7854 LP  0  0  0  0  0  0  0  0  0  0  0  0  # atno 17371 bound_to 10713
  139.8706  134.9558  156.4219 LP  0  0  0  0  0  0  0  0  0  0  0  0  # atno 17394 bound_to 11000
  140.9053  133.7750  155.9728 LP  0  0  0  0  0  0  0  0  0  0  0  0  # atno 17395 bound_to 11000

$$$$
