AV-unprocessed.smi:702|AV-procd|sdf|3417|dock3
  -GOLD-   22720 0403D 1   1.00000     0.00000
 Structure written by MMmdl.
 50 52  0  0  0  0  0  0  0  0  2 V2000
  145.2214  138.2058  153.9937 C   0  0  0  0  0  0  0  0  0  0  0  0
  146.5896  137.5289  154.2048 C   0  0  1  0  0  0  0  0  0  0  0  0
  146.7627  136.5031  153.1688 N   0  0  0  0  0  0  0  0  0  0  0  0
  145.8262  135.6574  152.7122 C   0  0  0  0  0  0  0  0  0  0  0  0
  144.6627  135.6500  153.1120 O   0  0  0  0  0  0  0  0  0  0  0  0
  146.3337  134.8430  151.7703 N   0  0  0  0  0  0  0  0  0  0  0  0
  145.6943  133.7970  151.0501 C   0  0  0  0  0  0  0  0  0  0  0  0
  144.2840  133.7775  151.0444 C   0  0  0  0  0  0  0  0  0  0  0  0
  143.6205  132.7615  150.3281 C   0  0  0  0  0  0  0  0  0  0  0  0
  144.2659  131.8009  149.6343 N   0  0  0  0  0  0  0  0  0  0  0  0
  145.6153  131.8280  149.6293 C   0  0  0  0  0  0  0  0  0  0  0  0
  146.3756  132.7992  150.3115 C   0  0  0  0  0  0  0  0  0  0  0  0
  147.7920  138.5429  154.2481 C   0  0  0  0  0  0  0  0  0  0  0  0
  149.1088  137.7999  154.3207 N   0  3  0  0  0  0  0  0  0  0  0  0
  150.3265  138.6584  154.4136 C   0  0  0  0  0  0  0  0  0  0  0  0
  151.6065  137.8109  154.3177 C   0  0  0  0  0  0  0  0  0  0  0  0
  151.6097  136.8215  155.3353 O   0  0  0  0  0  0  0  0  0  0  0  0
  150.5135  135.9309  155.1965 C   0  0  0  0  0  0  0  0  0  0  0  0
  149.1967  136.7105  155.3408 C   0  0  0  0  0  0  0  0  0  0  0  0
  147.7532  139.4909  153.0101 C   0  0  0  0  0  0  0  0  0  0  0  0
  147.2761  140.8566  153.5072 C   0  0  0  0  0  0  0  0  0  0  0  0
  147.7971  140.9302  154.9367 C   0  0  0  0  0  0  0  0  0  0  0  0
  147.6116  139.5072  155.4657 C   0  0  0  0  0  0  0  0  0  0  0  0
  144.9991  138.9226  154.7839 H   0  0  0  0  0  0  0  0  0  0  0  0
  144.4187  137.4673  153.9987 H   0  0  0  0  0  0  0  0  0  0  0  0
  145.1718  138.7351  153.0420 H   0  0  0  0  0  0  0  0  0  0  0  0
  146.5347  137.0046  155.1565 H   0  0  0  0  0  0  0  0  0  0  0  0
  147.6872  136.4273  152.7701 H   0  0  0  0  0  0  0  0  0  0  0  0
  147.2913  135.0198  151.5046 H   0  0  0  0  0  0  0  0  0  0  0  0
  143.7153  134.5228  151.5812 H   0  0  0  0  0  0  0  0  0  0  0  0
  142.5413  132.7213  150.3110 H   0  0  0  0  0  0  0  0  0  0  0  0
  146.1060  131.0538  149.0583 H   0  0  0  0  0  0  0  0  0  0  0  0
  147.4513  132.7615  150.2424 H   0  0  0  0  0  0  0  0  0  0  0  0
  150.3722  139.3888  153.6101 H   0  0  0  0  0  0  0  0  0  0  0  0
  150.3256  139.2154  155.3511 H   0  0  0  0  0  0  0  0  0  0  0  0
  151.6900  137.3417  153.3358 H   0  0  0  0  0  0  0  0  0  0  0  0
  152.4854  138.4439  154.4414 H   0  0  0  0  0  0  0  0  0  0  0  0
  150.5610  135.4158  154.2355 H   0  0  0  0  0  0  0  0  0  0  0  0
  150.5827  135.1665  155.9706 H   0  0  0  0  0  0  0  0  0  0  0  0
  149.1383  137.1197  156.3487 H   0  0  0  0  0  0  0  0  0  0  0  0
  148.3857  135.9921  155.2516 H   0  0  0  0  0  0  0  0  0  0  0  0
  148.7376  139.6257  152.5662 H   0  0  0  0  0  0  0  0  0  0  0  0
  147.1230  139.1145  152.2041 H   0  0  0  0  0  0  0  0  0  0  0  0
  147.6367  141.6776  152.8869 H   0  0  0  0  0  0  0  0  0  0  0  0
  146.1860  140.8944  153.5071 H   0  0  0  0  0  0  0  0  0  0  0  0
  148.8541  141.1980  154.9320 H   0  0  0  0  0  0  0  0  0  0  0  0
  147.2687  141.6721  155.5363 H   0  0  0  0  0  0  0  0  0  0  0  0
  146.6041  139.4542  155.8757 H   0  0  0  0  0  0  0  0  0  0  0  0
  148.2521  139.2808  156.3170 H   0  0  0  0  0  0  0  0  0  0  0  0
  149.1829  137.3292  153.4301 H   0  0  0  0  0  0  0  0  0  0  0  0
  1  2  1  0  0  0  0
  1 24  1  0  0  0  0
  1 25  1  0  0  0  0
  1 26  1  0  0  0  0
  2  3  1  0  0  0  0
  2 13  1  0  0  0  0
  2 27  1  0  0  0  0
  3  4  1  0  0  0  0
  3 28  1  0  0  0  0
  4  5  2  0  0  0  0
  4  6  1  0  0  0  0
  6  7  1  0  0  0  0
  6 29  1  0  0  0  0
  7 12  1  0  0  0  0
  7  8  2  0  0  0  0
  8  9  1  0  0  0  0
  8 30  1  0  0  0  0
  9 10  2  0  0  0  0
  9 31  1  0  0  0  0
 10 11  1  0  0  0  0
 11 12  2  0  0  0  0
 11 32  1  0  0  0  0
 12 33  1  0  0  0  0
 13 23  1  0  0  0  0
 13 14  1  0  0  0  0
 13 20  1  0  0  0  0
 14 19  1  0  0  0  0
 14 15  1  0  0  0  0
 14 50  1  0  0  0  0
 15 16  1  0  0  0  0
 15 34  1  0  0  0  0
 15 35  1  0  0  0  0
 16 17  1  0  0  0  0
 16 36  1  0  0  0  0
 16 37  1  0  0  0  0
 17 18  1  0  0  0  0
 18 19  1  0  0  0  0
 18 38  1  0  0  0  0
 18 39  1  0  0  0  0
 19 40  1  0  0  0  0
 19 41  1  0  0  0  0
 20 21  1  0  0  0  0
 20 42  1  0  0  0  0
 20 43  1  0  0  0  0
 21 22  1  0  0  0  0
 21 44  1  0  0  0  0
 21 45  1  0  0  0  0
 22 23  1  0  0  0  0
 22 46  1  0  0  0  0
 22 47  1  0  0  0  0
 23 48  1  0  0  0  0
 23 49  1  0  0  0  0
M  CHG  1  14   1
M  END
> <s_m_source_file>
AV-unprocessed.smi

> <i_m_source_file_index>
702

> <i_lp_mmshare_version>
43012

> <i_f3d_flags>
0

> <s_epik_input>
W0NIMl0xW0NIMl1PW0NIMl1bQ0gyXU4xQzIoW0NIMl1bQ0gyXVtDSDJdW0NIMl0yKVtDQEhdKFtDSDNdKVtOSF1DKD1PKVtOSF1jM1tjSF1bY0hdbltjSF1bY0hdMw==

> <s_epik_cmdline>
J2VwaWtfcHl0aG9uJywgJy1waCcsICc3LjAnLCAnLXRuJywgJzgnLCAnLW1hJywgJzIwMCcsICctbWV0YWxfYmluZGluZycsICctaW1hZScsICc8aW5maWxlLm1hZT4nLCAnLW9tYWUnLCAnPG91dGZpbGUubWFlPic=

> <r_epik_Ionization_Penalty>
0.42559

> <r_epik_Ionization_Penalty_Charging>
0.324387

> <r_epik_Ionization_Penalty_Neutral>
0.101203

> <r_epik_State_Penalty>
0.407162

> <r_epik_Charging_Adjusted_Penalty>
0.731549

> <i_epik_Tot_Q>
1

> <i_epik_Tot_abs_Q>
1

> <r_epik_Metal_State_Penalty>
0.398289

> <b_epik_Metal_Only>
0

> <s_lp_Force_Field>
OPLS_2005

> <r_lp_Energy>
55.6583

> <b_lp_Chiralities_Consistent>
1

> <s_lp_Variant>
AV-unprocessed.smi:702-2

> <Gold.Version>
5.8.1

> <Gold.Id.Protein>
6NUR|6NUR_protein|mol2

> <Gold.PLP.Fitness>
52.1232

> <Gold.PLP.PLP>
-34.2775

> <Gold.PLP.part.hbond>
-5.0000

> <Gold.PLP.part.metal>
0.0000

> <Gold.PLP.part.buried>
-1.9230

> <Gold.PLP.part.nonpolar>
-29.3313

> <Gold.PLP.part.repulsive>
0.3650

> <Gold.PLP.ligand.clash>
0.0000

> <Gold.PLP.ligand.torsion>
0.4683

> <Gold.PLP.Chemscore.Hbond>
5.2458

> <Gold.PLP.Chemscore.CHOScore>
0.9674

> <Gold.PLP.Chemscore.Metal>
0.0000

> <Gold.Chemscore.Hbonds>
donor molecule, donor type, donor heavy atom, donor atom, acceptor molecule, acceptor atom, score
      L1  H     3    28       P1  7948  1.00
      L1  H     6    29       P1  7948  0.92
      L1  H    14    50       P1  7948  2.00
      P1  H 10752 10765       L1    17  0.90
      P1  H 10785 10796       L1    10  0.43
      L1  C     9    31       P1 10186  0.97

> <Gold.PLP.Chemscore.Internal.Correction>
0.1428

> <Gold.Rescore>
     Score         DG    S(hbond)    S(metal)    S(lipo)     H(rot)  DE(clash)    DE(int)     intcor
     19.36     -23.92       3.16        0.00      99.10       1.45       1.32       3.24       ----

> <Gold.Chemscore.Fitness>
19.3612

> <Gold.Chemscore.DG>
-23.9227

> <Gold.Chemscore.ZeroCoef>
-5.4800

> <Gold.Chemscore.Hbond>
3.1620

> <Gold.Chemscore.Metal>
0.0000

> <Gold.Chemscore.Lipo>
99.0975

> <Gold.Chemscore.Internal_Hbond>
0.0000

> <Gold.Chemscore.DEClash>
1.3177

> <Gold.Chemscore.DEInternal>
3.2438

> <Gold.Chemscore.Rot>
1.4504

> <Gold.Chemscore.Internal.Correction>
   9.000000E+99

> <Gold.Chemscore.Hbonds>
donor molecule, donor type, donor heavy atom, donor atom, acceptor molecule, acceptor atom, score
      L1  H     3    28       P1  7948  0.97
      L1  H     6    29       P1  7948  0.62
      L1  H    14    50       P1  7948  0.99
      P1  H 10752 10765       L1    17  0.10
      P1  H 10785 10796       L1    10  0.41

> <Gold.Chemscore.Hbond.Weighted>
-10.5612

> <Gold.Chemscore.Metal.Weighted>
-0.0000

> <Gold.Chemscore.Lipo.Weighted>
-11.5944

> <Gold.Chemscore.Internal_Hbond.Weighted>
0.0000

> <Gold.Chemscore.DEClash.Weighted>
1.3177

> <Gold.Chemscore.DEInternal.Weighted>
3.2438

> <Gold.Chemscore.Rot.Weighted>
3.7129

> <Gold.Chemscore.Internal.Correction.Weighted>
   9.000000E+99

> <Gold.Protein.RotatedTorsions>
[ 6907 6896 6895 6894 ] final   33.92 input  -60.11 | X-H torsion
[ 7974 7965 7964 7962 ] final   42.28 input  175.53 | X-H torsion
[ 8008 7997 7996 7995 ] final   19.39 input   59.86 | X-H torsion
[ 10167 10162 10161 10158 ] final   64.02 input  -65.29 | X-H torsion
[ 10718 10713 10712 10709 ] final   71.77 input   66.30 | X-H torsion
[ 10763 10752 10751 10750 ] final -160.82 input  -60.55 | X-H torsion
[ 11005 11000 10999 10996 ] final -135.05 input  -57.11 | X-H torsion

> <Gold.Protein.ActiveResidues>
 VAL166  LYS551  ARG553  GLY616  TRP617  ASP618  TYR619  PRO620  LYS621  CYS622 
 ASP623  PHE694  ASN695  SER759  ASP760  ASP761  ALA762  ILE779  LEU786  VAL792 
 PHE793  MET794  SER795  GLU796  ALA797  LYS798  CYS799  TRP800  GLU811  SER814 

> <Gold.Protein.RotatedAtoms>
  152.0951  134.9380  160.0570 H   0  0  0  0  0  0  0  0  0  0  0  0  # atno 6907 bound_to 6896
  152.0616  133.4060  159.4428 H   0  0  0  0  0  0  0  0  0  0  0  0  # atno 6908 bound_to 6896
  150.6838  134.3114  159.4791 H   0  0  0  0  0  0  0  0  0  0  0  0  # atno 6909 bound_to 6896
  146.0753  139.5319  142.9571 H   0  0  0  0  0  0  0  0  0  0  0  0  # atno 7974 bound_to 7965
  154.9200  140.3026  155.5221 H   0  0  0  0  0  0  0  0  0  0  0  0  # atno 8008 bound_to 7997
  156.3010  140.2373  156.4185 H   0  0  0  0  0  0  0  0  0  0  0  0  # atno 8009 bound_to 7997
  154.8340  140.0417  157.1485 H   0  0  0  0  0  0  0  0  0  0  0  0  # atno 8010 bound_to 7997
  140.1268  144.4680  150.6888 H   0  0  0  0  0  0  0  0  0  0  0  0  # atno 10167 bound_to 10162
  157.6468  130.9545  150.0835 H   0  0  0  0  0  0  0  0  0  0  0  0  # atno 10718 bound_to 10713
  154.7357  135.3057  154.8815 H   0  0  0  0  0  0  0  0  0  0  0  0  # atno 10763 bound_to 10752
  153.9645  135.6749  153.4750 H   0  0  0  0  0  0  0  0  0  0  0  0  # atno 10764 bound_to 10752
  153.0960  135.4935  154.8702 H   0  0  0  0  0  0  0  0  0  0  0  0  # atno 10765 bound_to 10752
  140.8934  134.1782  157.4512 H   0  0  0  0  0  0  0  0  0  0  0  0  # atno 11005 bound_to 11000
  145.6316  141.0303  143.1860 LP  0  0  0  0  0  0  0  0  0  0  0  0  # atno 17320 bound_to 7965
  144.7258  139.7881  143.7365 LP  0  0  0  0  0  0  0  0  0  0  0  0  # atno 17321 bound_to 7965
  140.6840  143.2341  151.5308 LP  0  0  0  0  0  0  0  0  0  0  0  0  # atno 17342 bound_to 10162
  139.5540  144.2322  152.1580 LP  0  0  0  0  0  0  0  0  0  0  0  0  # atno 17343 bound_to 10162
  156.1804  130.3650  149.9043 LP  0  0  0  0  0  0  0  0  0  0  0  0  # atno 17370 bound_to 10713
  156.6996  130.8928  151.3598 LP  0  0  0  0  0  0  0  0  0  0  0  0  # atno 17371 bound_to 10713
  139.8732  134.9868  156.5340 LP  0  0  0  0  0  0  0  0  0  0  0  0  # atno 17394 bound_to 11000
  140.8319  133.8272  155.8992 LP  0  0  0  0  0  0  0  0  0  0  0  0  # atno 17395 bound_to 11000

$$$$
