AV-unprocessed.smi:2792|AV-procd|sdf|10772|dock3
  -GOLD-   2272015203D 1   1.00000     0.00000
 Structure written by MMmdl.
 44 46  0  0  0  0  0  0  0  0  1 V2000
  145.5565  141.4653  155.0974 C   0  0  0  0  0  0  0  0  0  0  0  0
  146.1662  140.1583  155.6324 C   0  0  0  0  0  0  0  0  0  0  0  0
  147.3175  139.5554  154.7904 C   0  0  1  0  0  0  0  0  0  0  0  0
  147.7594  138.1717  155.3129 C   0  0  0  0  0  0  0  0  0  0  0  0
  146.8429  139.3776  153.4692 O   0  0  0  0  0  0  0  0  0  0  0  0
  148.4949  140.5647  154.7421 C   0  0  0  0  0  0  0  0  0  0  0  0
  149.2746  140.6427  155.9689 N   0  0  0  0  0  0  0  0  0  0  0  0
  148.9034  141.2644  157.1409 C   0  0  0  0  0  0  0  0  0  0  0  0
  149.7774  141.2003  158.1084 N   0  0  0  0  0  0  0  0  0  0  0  0
  150.8362  140.4909  157.5566 C   0  0  0  0  0  0  0  0  0  0  0  0
  152.0972  140.0654  158.0479 C   0  0  0  0  0  0  0  0  0  0  0  0
  152.4850  140.3423  159.3126 N   0  0  0  0  0  0  0  0  0  0  0  0
  153.2655  141.5416  159.5997 C   0  0  0  0  0  0  0  0  0  0  0  0
  152.4434  142.7851  159.9003 C   0  0  0  0  0  0  0  0  0  0  0  0
  152.0223  143.6347  158.8545 C   0  0  0  0  0  0  0  0  0  0  0  0
  151.2570  144.7824  159.1389 C   0  0  0  0  0  0  0  0  0  0  0  0
  150.9117  145.0871  160.4698 C   0  0  0  0  0  0  0  0  0  0  0  0
  151.3342  144.2449  161.5164 C   0  0  0  0  0  0  0  0  0  0  0  0
  152.1001  143.0973  161.2325 C   0  0  0  0  0  0  0  0  0  0  0  0
  152.9068  139.3773  157.2003 N   0  0  0  0  0  0  0  0  0  0  0  0
  152.5028  139.1140  155.9537 C   0  0  0  0  0  0  0  0  0  0  0  0
  151.3521  139.4431  155.3621 N   0  0  0  0  0  0  0  0  0  0  0  0
  150.5402  140.1372  156.2103 C   0  0  0  0  0  0  0  0  0  0  0  0
  144.8060  141.8465  155.7902 H   0  0  0  0  0  0  0  0  0  0  0  0
  145.0617  141.3191  154.1378 H   0  0  0  0  0  0  0  0  0  0  0  0
  146.3116  142.2419  154.9749 H   0  0  0  0  0  0  0  0  0  0  0  0
  146.5240  140.3398  156.6470 H   0  0  0  0  0  0  0  0  0  0  0  0
  145.3681  139.4211  155.7292 H   0  0  0  0  0  0  0  0  0  0  0  0
  148.1435  138.2416  156.3309 H   0  0  0  0  0  0  0  0  0  0  0  0
  148.5421  137.7330  154.6937 H   0  0  0  0  0  0  0  0  0  0  0  0
  146.9377  137.4562  155.3172 H   0  0  0  0  0  0  0  0  0  0  0  0
  147.5382  139.0074  152.9468 H   0  0  0  0  0  0  0  0  0  0  0  0
  149.1729  140.3210  153.9226 H   0  0  0  0  0  0  0  0  0  0  0  0
  148.1137  141.5642  154.5283 H   0  0  0  0  0  0  0  0  0  0  0  0
  147.9523  141.7634  157.2584 H   0  0  0  0  0  0  0  0  0  0  0  0
  152.4316  139.6658  160.0604 H   0  0  0  0  0  0  0  0  0  0  0  0
  153.9494  141.3376  160.4246 H   0  0  0  0  0  0  0  0  0  0  0  0
  153.8907  141.7520  158.7318 H   0  0  0  0  0  0  0  0  0  0  0  0
  152.2827  143.4072  157.8311 H   0  0  0  0  0  0  0  0  0  0  0  0
  150.9347  145.4289  158.3358 H   0  0  0  0  0  0  0  0  0  0  0  0
  150.3240  145.9666  160.6881 H   0  0  0  0  0  0  0  0  0  0  0  0
  151.0701  144.4782  162.5374 H   0  0  0  0  0  0  0  0  0  0  0  0
  152.4179  142.4545  162.0404 H   0  0  0  0  0  0  0  0  0  0  0  0
  153.2011  138.5604  155.3436 H   0  0  0  0  0  0  0  0  0  0  0  0
  1  2  1  0  0  0  0
  1 24  1  0  0  0  0
  1 25  1  0  0  0  0
  1 26  1  0  0  0  0
  2  3  1  0  0  0  0
  2 27  1  0  0  0  0
  2 28  1  0  0  0  0
  3  4  1  0  0  0  0
  3  5  1  0  0  0  0
  3  6  1  0  0  0  0
  4 29  1  0  0  0  0
  4 30  1  0  0  0  0
  4 31  1  0  0  0  0
  5 32  1  0  0  0  0
  6  7  1  0  0  0  0
  6 33  1  0  0  0  0
  6 34  1  0  0  0  0
  7 23  1  0  0  0  0
  7  8  1  0  0  0  0
  8  9  2  0  0  0  0
  8 35  1  0  0  0  0
  9 10  1  0  0  0  0
 10 23  2  0  0  0  0
 10 11  1  0  0  0  0
 11 12  1  0  0  0  0
 11 20  2  0  0  0  0
 12 13  1  0  0  0  0
 12 36  1  0  0  0  0
 13 14  1  0  0  0  0
 13 37  1  0  0  0  0
 13 38  1  0  0  0  0
 14 19  1  0  0  0  0
 14 15  2  0  0  0  0
 15 16  1  0  0  0  0
 15 39  1  0  0  0  0
 16 17  2  0  0  0  0
 16 40  1  0  0  0  0
 17 18  1  0  0  0  0
 17 41  1  0  0  0  0
 18 19  2  0  0  0  0
 18 42  1  0  0  0  0
 19 43  1  0  0  0  0
 20 21  1  0  0  0  0
 21 22  2  0  0  0  0
 21 44  1  0  0  0  0
 22 23  1  0  0  0  0
M  END
> <s_m_source_file>
AV-unprocessed.smi

> <i_m_source_file_index>
2792

> <i_lp_mmshare_version>
43012

> <i_f3d_flags>
0

> <s_epik_input>
W0NIM11bQ0gyXVtDQEBdKFtDSDNdKShbT0hdKVtDSDJdbihbY0hdbjEpYyhjMTIpbltjSF1uYzJbTkhdW0NIMl1jM1tjSF1bY0hdW2NIXVtjSF1bY0hdMw==

> <s_epik_cmdline>
J2VwaWtfcHl0aG9uJywgJy1waCcsICc3LjAnLCAnLXRuJywgJzgnLCAnLW1hJywgJzIwMCcsICctbWV0YWxfYmluZGluZycsICctaW1hZScsICc8aW5maWxlLm1hZT4nLCAnLW9tYWUnLCAnPG91dGZpbGUubWFlPic=

> <r_lp_tautomer_probability>
1

> <r_epik_Ionization_Penalty>
0.00163025

> <r_epik_Ionization_Penalty_Charging>
0

> <r_epik_Ionization_Penalty_Neutral>
0.00163025

> <r_epik_State_Penalty>
-0

> <r_epik_Charging_Adjusted_Penalty>
0

> <i_epik_Tot_Q>
0

> <i_epik_Tot_abs_Q>
0

> <r_epik_Metal_State_Penalty>
-0

> <b_epik_Metal_Only>
0

> <s_lp_Force_Field>
OPLS_2005

> <r_lp_Energy>
13.0485

> <b_lp_Chiralities_Consistent>
1

> <s_lp_Variant>
AV-unprocessed.smi:2792-1

> <Gold.Version>
5.8.1

> <Gold.Id.Protein>
6NUR|6NUR_protein|mol2

> <Gold.PLP.Fitness>
61.7697

> <Gold.PLP.PLP>
-53.9392

> <Gold.PLP.part.hbond>
-3.0000

> <Gold.PLP.part.metal>
0.0000

> <Gold.PLP.part.buried>
-1.3220

> <Gold.PLP.part.nonpolar>
-49.0516

> <Gold.PLP.part.repulsive>
0.2552

> <Gold.PLP.ligand.clash>
0.0000

> <Gold.PLP.ligand.torsion>
1.6277

> <Gold.PLP.Chemscore.Hbond>
2.9500

> <Gold.PLP.Chemscore.CHOScore>
0.6671

> <Gold.PLP.Chemscore.Metal>
0.0000

> <Gold.Chemscore.Hbonds>
donor molecule, donor type, donor heavy atom, donor atom, acceptor molecule, acceptor atom, score
      P1  H  7989  7998       L1    22  0.18
      P1  H  7997  8010       L1    20  0.65

> <Gold.PLP.Chemscore.Internal.Correction>
0.2346

> <Gold.Rescore>
     Score         DG    S(hbond)    S(metal)    S(lipo)     H(rot)  DE(clash)    DE(int)     intcor
     10.95     -14.85       0.82        0.00     111.82       2.52       1.48       2.42       ----

> <Gold.Chemscore.Fitness>
10.9485

> <Gold.Chemscore.DG>
-14.8541

> <Gold.Chemscore.ZeroCoef>
-5.4800

> <Gold.Chemscore.Hbond>
0.8248

> <Gold.Chemscore.Metal>
0.0000

> <Gold.Chemscore.Lipo>
111.8225

> <Gold.Chemscore.Internal_Hbond>
0.0000

> <Gold.Chemscore.DEClash>
1.4810

> <Gold.Chemscore.DEInternal>
2.4246

> <Gold.Chemscore.Rot>
2.5250

> <Gold.Chemscore.Internal.Correction>
   9.000000E+99

> <Gold.Chemscore.Hbonds>
donor molecule, donor type, donor heavy atom, donor atom, acceptor molecule, acceptor atom, score
      P1  H  7989  7998       L1    22  0.08
      P1  H  7997  8010       L1    20  0.06

> <Gold.Chemscore.Hbond.Weighted>
-2.7548

> <Gold.Chemscore.Metal.Weighted>
-0.0000

> <Gold.Chemscore.Lipo.Weighted>
-13.0832

> <Gold.Chemscore.Internal_Hbond.Weighted>
0.0000

> <Gold.Chemscore.DEClash.Weighted>
1.4810

> <Gold.Chemscore.DEInternal.Weighted>
2.4246

> <Gold.Chemscore.Rot.Weighted>
6.4639

> <Gold.Chemscore.Internal.Correction.Weighted>
   9.000000E+99

> <Gold.Protein.RotatedTorsions>
[ 6907 6896 6895 6894 ] final -150.55 input  -60.11 | X-H torsion
[ 7974 7965 7964 7962 ] final -143.74 input  175.53 | X-H torsion
[ 8008 7997 7996 7995 ] final   57.89 input   59.86 | X-H torsion
[ 10167 10162 10161 10158 ] final -175.21 input  -65.29 | X-H torsion
[ 10718 10713 10712 10709 ] final  -18.20 input   66.30 | X-H torsion
[ 10763 10752 10751 10750 ] final -116.29 input  -60.55 | X-H torsion
[ 11005 11000 10999 10996 ] final  -45.65 input  -57.11 | X-H torsion

> <Gold.Protein.ActiveResidues>
 VAL166  LYS551  ARG553  GLY616  TRP617  ASP618  TYR619  PRO620  LYS621  CYS622 
 ASP623  PHE694  ASN695  SER759  ASP760  ASP761  ALA762  ILE779  LEU786  VAL792 
 PHE793  MET794  SER795  GLU796  ALA797  LYS798  CYS799  TRP800  GLU811  SER814 

> <Gold.Protein.RotatedAtoms>
  151.2002  133.4615  159.2595 H   0  0  0  0  0  0  0  0  0  0  0  0  # atno 6907 bound_to 6896
  151.1077  135.0009  159.8489 H   0  0  0  0  0  0  0  0  0  0  0  0  # atno 6908 bound_to 6896
  152.5448  134.1924  159.8732 H   0  0  0  0  0  0  0  0  0  0  0  0  # atno 6909 bound_to 6896
  144.8348  140.5797  143.5491 H   0  0  0  0  0  0  0  0  0  0  0  0  # atno 7974 bound_to 7965
  155.5412  140.3484  155.4447 H   0  0  0  0  0  0  0  0  0  0  0  0  # atno 8008 bound_to 7997
  156.0650  140.1349  156.9923 H   0  0  0  0  0  0  0  0  0  0  0  0  # atno 8009 bound_to 7997
  154.4498  140.0977  156.6558 H   0  0  0  0  0  0  0  0  0  0  0  0  # atno 8010 bound_to 7997
  139.5593  144.1911  152.1211 H   0  0  0  0  0  0  0  0  0  0  0  0  # atno 10167 bound_to 10162
  156.5629  130.4730  149.6398 H   0  0  0  0  0  0  0  0  0  0  0  0  # atno 10718 bound_to 10713
  154.8514  135.4351  154.1798 H   0  0  0  0  0  0  0  0  0  0  0  0  # atno 10763 bound_to 10752
  153.2892  135.6960  153.7316 H   0  0  0  0  0  0  0  0  0  0  0  0  # atno 10764 bound_to 10752
  153.6490  135.3454  155.3069 H   0  0  0  0  0  0  0  0  0  0  0  0  # atno 10765 bound_to 10752
  141.0529  133.6736  156.3043 H   0  0  0  0  0  0  0  0  0  0  0  0  # atno 11005 bound_to 11000
  145.4819  139.1495  143.3757 LP  0  0  0  0  0  0  0  0  0  0  0  0  # atno 17320 bound_to 7965
  146.2647  140.4955  142.8839 LP  0  0  0  0  0  0  0  0  0  0  0  0  # atno 17321 bound_to 7965
  140.1421  144.5192  150.6738 LP  0  0  0  0  0  0  0  0  0  0  0  0  # atno 17342 bound_to 10162
  140.6870  143.2355  151.5233 LP  0  0  0  0  0  0  0  0  0  0  0  0  # atno 17343 bound_to 10162
  156.2782  130.7056  151.1873 LP  0  0  0  0  0  0  0  0  0  0  0  0  # atno 17370 bound_to 10713
  157.7364  131.0562  150.5412 LP  0  0  0  0  0  0  0  0  0  0  0  0  # atno 17371 bound_to 10713
  140.6021  134.5544  157.5519 LP  0  0  0  0  0  0  0  0  0  0  0  0  # atno 17394 bound_to 11000
  139.9365  134.7865  156.0789 LP  0  0  0  0  0  0  0  0  0  0  0  0  # atno 17395 bound_to 11000

$$$$
