AV-unprocessed.smi:1046|AV-procd|sdf|4550|dock5
  -GOLD-   22720 2573D 1   1.00000     0.00000
 Structure written by MMmdl.
 53 55  0  0  0  0  0  0  0  0  2 V2000
  152.2192  144.3911  158.7345 C   0  0  0  0  0  0  0  0  0  0  0  0
  152.2936  142.8833  158.8990 C   0  0  0  0  0  0  0  0  0  0  0  0
  153.2881  142.3320  159.7380 C   0  0  0  0  0  0  0  0  0  0  0  0
  153.3922  140.9350  159.9164 C   0  0  0  0  0  0  0  0  0  0  0  0
  154.2752  140.1890  160.6782 N   0  0  0  0  0  0  0  0  0  0  0  0
  153.8621  138.9494  160.4300 C   0  0  0  0  0  0  0  0  0  0  0  0
  152.8148  138.8039  159.5952 N   0  0  0  0  0  0  0  0  0  0  0  0
  152.1909  137.5622  159.1764 C   0  0  0  0  0  0  0  0  0  0  0  0
  152.6126  137.1548  157.7516 C   0  0  2  0  0  0  0  0  0  0  0  0
  154.0104  137.2893  157.5895 O   0  0  0  0  0  0  0  0  0  0  0  0
  151.8918  137.8685  156.5858 C   0  0  0  0  0  0  0  0  0  0  0  0
  151.6400  137.0720  155.3747 N   0  0  0  0  0  0  0  0  0  0  0  0
  150.4756  136.1955  155.5109 C   0  0  0  0  0  0  0  0  0  0  0  0
  149.1364  136.9583  155.5185 C   0  0  0  0  0  0  0  0  0  0  0  0
  148.9889  137.7446  154.2680 N   0  3  0  0  0  0  0  0  0  0  0  0
  147.6743  138.4292  154.1799 C   0  0  0  0  0  0  0  0  0  0  0  0
  147.4856  139.1853  152.8535 C   0  0  0  0  0  0  0  0  0  0  0  0
  147.5060  138.2777  151.7718 O   0  0  0  0  0  0  0  0  0  0  0  0
  150.1524  138.6512  154.0832 C   0  0  0  0  0  0  0  0  0  0  0  0
  151.4729  137.8539  154.1432 C   0  0  0  0  0  0  0  0  0  0  0  0
  152.4668  140.0985  159.2267 C   0  0  0  0  0  0  0  0  0  0  0  0
  151.4720  140.6347  158.3903 C   0  0  0  0  0  0  0  0  0  0  0  0
  151.3811  142.0326  158.2243 C   0  0  0  0  0  0  0  0  0  0  0  0
  150.3026  142.6024  157.3202 C   0  0  0  0  0  0  0  0  0  0  0  0
  153.0257  144.8908  159.2717 H   0  0  0  0  0  0  0  0  0  0  0  0
  151.2731  144.7699  159.1220 H   0  0  0  0  0  0  0  0  0  0  0  0
  152.2989  144.6664  157.6826 H   0  0  0  0  0  0  0  0  0  0  0  0
  153.9818  142.9795  160.2538 H   0  0  0  0  0  0  0  0  0  0  0  0
  154.3476  138.0971  160.8824 H   0  0  0  0  0  0  0  0  0  0  0  0
  152.4674  136.7862  159.8912 H   0  0  0  0  0  0  0  0  0  0  0  0
  151.1106  137.6929  159.2389 H   0  0  0  0  0  0  0  0  0  0  0  0
  152.3970  136.0914  157.6378 H   0  0  0  0  0  0  0  0  0  0  0  0
  154.4370  136.6258  158.1101 H   0  0  0  0  0  0  0  0  0  0  0  0
  150.9350  138.2067  156.9869 H   0  0  0  0  0  0  0  0  0  0  0  0
  152.4263  138.7843  156.3366 H   0  0  0  0  0  0  0  0  0  0  0  0
  150.4697  135.4805  154.6870 H   0  0  0  0  0  0  0  0  0  0  0  0
  150.5656  135.5958  156.4175 H   0  0  0  0  0  0  0  0  0  0  0  0
  148.3168  136.2430  155.5994 H   0  0  0  0  0  0  0  0  0  0  0  0
  149.0684  137.6177  156.3852 H   0  0  0  0  0  0  0  0  0  0  0  0
  146.8729  137.6947  154.2735 H   0  0  0  0  0  0  0  0  0  0  0  0
  147.5625  139.1113  155.0239 H   0  0  0  0  0  0  0  0  0  0  0  0
  146.5203  139.6923  152.8540 H   0  0  0  0  0  0  0  0  0  0  0  0
  148.2428  139.9544  152.7054 H   0  0  0  0  0  0  0  0  0  0  0  0
  147.6442  137.4061  152.1114 H   0  0  0  0  0  0  0  0  0  0  0  0
  150.0901  139.1464  153.1150 H   0  0  0  0  0  0  0  0  0  0  0  0
  150.1355  139.4402  154.8356 H   0  0  0  0  0  0  0  0  0  0  0  0
  152.3054  138.5344  153.9931 H   0  0  0  0  0  0  0  0  0  0  0  0
  151.5033  137.1728  153.2917 H   0  0  0  0  0  0  0  0  0  0  0  0
  150.7844  139.9748  157.8825 H   0  0  0  0  0  0  0  0  0  0  0  0
  149.6514  141.8172  156.9347 H   0  0  0  0  0  0  0  0  0  0  0  0
  150.7510  143.1148  156.4689 H   0  0  0  0  0  0  0  0  0  0  0  0
  149.6808  143.3131  157.8649 H   0  0  0  0  0  0  0  0  0  0  0  0
  149.0120  137.0756  153.5113 H   0  0  0  0  0  0  0  0  0  0  0  0
  1  2  1  0  0  0  0
  1 25  1  0  0  0  0
  1 26  1  0  0  0  0
  1 27  1  0  0  0  0
  2 23  1  0  0  0  0
  2  3  2  0  0  0  0
  3  4  1  0  0  0  0
  3 28  1  0  0  0  0
  4 21  2  0  0  0  0
  4  5  1  0  0  0  0
  5  6  2  0  0  0  0
  6  7  1  0  0  0  0
  6 29  1  0  0  0  0
  7  8  1  0  0  0  0
  7 21  1  0  0  0  0
  8  9  1  0  0  0  0
  8 30  1  0  0  0  0
  8 31  1  0  0  0  0
  9 10  1  0  0  0  0
  9 11  1  0  0  0  0
  9 32  1  0  0  0  0
 10 33  1  0  0  0  0
 11 12  1  0  0  0  0
 11 34  1  0  0  0  0
 11 35  1  0  0  0  0
 12 20  1  0  0  0  0
 12 13  1  0  0  0  0
 13 14  1  0  0  0  0
 13 36  1  0  0  0  0
 13 37  1  0  0  0  0
 14 15  1  0  0  0  0
 14 38  1  0  0  0  0
 14 39  1  0  0  0  0
 15 16  1  0  0  0  0
 15 19  1  0  0  0  0
 15 53  1  0  0  0  0
 16 17  1  0  0  0  0
 16 40  1  0  0  0  0
 16 41  1  0  0  0  0
 17 18  1  0  0  0  0
 17 42  1  0  0  0  0
 17 43  1  0  0  0  0
 18 44  1  0  0  0  0
 19 20  1  0  0  0  0
 19 45  1  0  0  0  0
 19 46  1  0  0  0  0
 20 47  1  0  0  0  0
 20 48  1  0  0  0  0
 21 22  1  0  0  0  0
 22 23  2  0  0  0  0
 22 49  1  0  0  0  0
 23 24  1  0  0  0  0
 24 50  1  0  0  0  0
 24 51  1  0  0  0  0
 24 52  1  0  0  0  0
M  CHG  1  15   1
M  END
> <s_m_source_file>
AV-unprocessed.smi

> <i_m_source_file_index>
1046

> <i_lp_mmshare_version>
43012

> <i_f3d_flags>
0

> <s_epik_input>
W0NIM11jKFtjSF0xKWMoW0NIM10pW2NIXWMoYzEyKW4oW2NIXW4yKVtDSDJdW0NASF0oW09IXSlbQ0gyXU4zW0NIMl1bQ0gyXU4oW0NIMl1bQ0gyXTMpW0NIMl1bQ0gyXVtPSF0=

> <s_epik_cmdline>
J2VwaWtfcHl0aG9uJywgJy1waCcsICc3LjAnLCAnLXRuJywgJzgnLCAnLW1hJywgJzIwMCcsICctbWV0YWxfYmluZGluZycsICctaW1hZScsICc8aW5maWxlLm1hZT4nLCAnLW9tYWUnLCAnPG91dGZpbGUubWFlPic=

> <r_epik_Ionization_Penalty>
0.218081

> <r_epik_Ionization_Penalty_Charging>
0.0909554

> <r_epik_Ionization_Penalty_Neutral>
0.127126

> <r_epik_State_Penalty>
0.825642

> <r_epik_Charging_Adjusted_Penalty>
0.916597

> <i_epik_Tot_Q>
1

> <i_epik_Tot_abs_Q>
1

> <r_epik_Metal_State_Penalty>
0.740189

> <b_epik_Metal_Only>
0

> <s_lp_Force_Field>
OPLS_2005

> <r_lp_Energy>
40.3597

> <b_lp_Chiralities_Consistent>
1

> <s_lp_Variant>
AV-unprocessed.smi:1046-3

> <Gold.Version>
5.8.1

> <Gold.Id.Protein>
6NUR|6NUR_protein|mol2

> <Gold.PLP.Fitness>
54.6578

> <Gold.PLP.PLP>
-43.3085

> <Gold.PLP.part.hbond>
-4.7482

> <Gold.PLP.part.metal>
0.0000

> <Gold.PLP.part.buried>
-2.1556

> <Gold.PLP.part.nonpolar>
-36.1474

> <Gold.PLP.part.repulsive>
0.0649

> <Gold.PLP.ligand.clash>
0.0000

> <Gold.PLP.ligand.torsion>
1.0047

> <Gold.PLP.Chemscore.Hbond>
4.3740

> <Gold.PLP.Chemscore.CHOScore>
0.0000

> <Gold.PLP.Chemscore.Metal>
0.0000

> <Gold.Chemscore.Hbonds>
donor molecule, donor type, donor heavy atom, donor atom, acceptor molecule, acceptor atom, score
      L1  H    15    53       P1  7948  2.00
      L1  H    18    44       P1  7948  0.61
      P1  H  7954  7966       L1    18  0.80
      P1  H 10752 10765       L1    12  0.65

> <Gold.PLP.Chemscore.Internal.Correction>
0.2367

> <Gold.Rescore>
     Score         DG    S(hbond)    S(metal)    S(lipo)     H(rot)  DE(clash)    DE(int)     intcor
     17.05     -19.38       2.13        0.00     128.03       3.21       1.38       0.95       ----

> <Gold.Chemscore.Fitness>
17.0536

> <Gold.Chemscore.DG>
-19.3823

> <Gold.Chemscore.ZeroCoef>
-5.4800

> <Gold.Chemscore.Hbond>
2.1345

> <Gold.Chemscore.Metal>
0.0000

> <Gold.Chemscore.Lipo>
128.0336

> <Gold.Chemscore.Internal_Hbond>
0.0000

> <Gold.Chemscore.DEClash>
1.3775

> <Gold.Chemscore.DEInternal>
0.9511

> <Gold.Chemscore.Rot>
3.2058

> <Gold.Chemscore.Internal.Correction>
   9.000000E+99

> <Gold.Chemscore.Hbonds>
donor molecule, donor type, donor heavy atom, donor atom, acceptor molecule, acceptor atom, score
      L1  H    15    53       P1  7948  1.00
      L1  H    18    44       P1  7948  0.60
      P1  H  7954  7966       L1    18  0.11
      P1  H 10752 10765       L1    12  0.05

> <Gold.Chemscore.Hbond.Weighted>
-7.1291

> <Gold.Chemscore.Metal.Weighted>
-0.0000

> <Gold.Chemscore.Lipo.Weighted>
-14.9799

> <Gold.Chemscore.Internal_Hbond.Weighted>
0.0000

> <Gold.Chemscore.DEClash.Weighted>
1.3775

> <Gold.Chemscore.DEInternal.Weighted>
0.9511

> <Gold.Chemscore.Rot.Weighted>
8.2067

> <Gold.Chemscore.Internal.Correction.Weighted>
   9.000000E+99

> <Gold.Protein.RotatedTorsions>
[ 6907 6896 6895 6894 ] final  121.09 input  -60.11 | X-H torsion
[ 7974 7965 7964 7962 ] final -150.38 input  175.53 | X-H torsion
[ 8008 7997 7996 7995 ] final  -33.40 input   59.86 | X-H torsion
[ 10167 10162 10161 10158 ] final -156.42 input  -65.29 | X-H torsion
[ 10718 10713 10712 10709 ] final   68.93 input   66.30 | X-H torsion
[ 10763 10752 10751 10750 ] final -163.49 input  -60.55 | X-H torsion
[ 11005 11000 10999 10996 ] final  108.67 input  -57.11 | X-H torsion

> <Gold.Protein.ActiveResidues>
 VAL166  LYS551  ARG553  GLY616  TRP617  ASP618  TYR619  PRO620  LYS621  CYS622 
 ASP623  PHE694  ASN695  SER759  ASP760  ASP761  ALA762  ILE779  LEU786  VAL792 
 PHE793  MET794  SER795  GLU796  ALA797  LYS798  CYS799  TRP800  GLU811  SER814 

> <Gold.Protein.RotatedAtoms>
  152.4348  133.7341  159.6603 H   0  0  0  0  0  0  0  0  0  0  0  0  # atno 6907 bound_to 6896
  150.8231  133.8208  159.3136 H   0  0  0  0  0  0  0  0  0  0  0  0  # atno 6908 bound_to 6896
  151.5885  135.1057  160.0085 H   0  0  0  0  0  0  0  0  0  0  0  0  # atno 6909 bound_to 6896
  144.7911  140.4939  143.5772 H   0  0  0  0  0  0  0  0  0  0  0  0  # atno 7974 bound_to 7965
  154.4150  140.1712  156.1882 H   0  0  0  0  0  0  0  0  0  0  0  0  # atno 8008 bound_to 7997
  155.9626  140.3392  155.6480 H   0  0  0  0  0  0  0  0  0  0  0  0  # atno 8009 bound_to 7997
  155.6729  140.0714  157.2504 H   0  0  0  0  0  0  0  0  0  0  0  0  # atno 8010 bound_to 7997
  139.6852  143.9513  152.2357 H   0  0  0  0  0  0  0  0  0  0  0  0  # atno 10167 bound_to 10162
  157.6317  130.9399  150.0444 H   0  0  0  0  0  0  0  0  0  0  0  0  # atno 10718 bound_to 10713
  154.7118  135.3007  154.9186 H   0  0  0  0  0  0  0  0  0  0  0  0  # atno 10763 bound_to 10752
  154.0085  135.6698  153.4768 H   0  0  0  0  0  0  0  0  0  0  0  0  # atno 10764 bound_to 10752
  153.0761  135.5034  154.8320 H   0  0  0  0  0  0  0  0  0  0  0  0  # atno 10765 bound_to 10752
  139.8848  134.9437  156.6008 H   0  0  0  0  0  0  0  0  0  0  0  0  # atno 11005 bound_to 11000
  145.5793  139.1488  143.3244 LP  0  0  0  0  0  0  0  0  0  0  0  0  # atno 17320 bound_to 7965
  146.2163  140.5923  142.9037 LP  0  0  0  0  0  0  0  0  0  0  0  0  # atno 17321 bound_to 7965
  139.9314  144.6739  150.8359 LP  0  0  0  0  0  0  0  0  0  0  0  0  # atno 17342 bound_to 10162
  140.7665  143.3306  151.2419 LP  0  0  0  0  0  0  0  0  0  0  0  0  # atno 17343 bound_to 10162
  156.1526  130.3642  149.9416 LP  0  0  0  0  0  0  0  0  0  0  0  0  # atno 17370 bound_to 10713
  156.7432  130.9087  151.3633 LP  0  0  0  0  0  0  0  0  0  0  0  0  # atno 17371 bound_to 10713
  140.7885  133.8601  155.8626 LP  0  0  0  0  0  0  0  0  0  0  0  0  # atno 17394 bound_to 11000
  140.9698  134.1546  157.4586 LP  0  0  0  0  0  0  0  0  0  0  0  0  # atno 17395 bound_to 11000

$$$$
