AV-unprocessed.smi:1108|AV-procd|sdf|4787|dock4
  -GOLD-   22720 3333D 1   1.00000     0.00000
 Structure written by MMmdl.
 31 32  0  0  0  0  0  0  0  0  1 V2000
  151.2047  140.1574  155.8346 C   0  0  0  0  0  0  0  0  0  0  0  0
  149.8994  140.9558  155.9522 C   0  0  2  0  0  0  0  0  0  0  0  0
  149.1099  140.9379  154.6257 C   0  0  0  0  0  0  0  0  0  0  0  0
  147.8215  141.5999  154.7279 N   0  0  0  0  0  0  0  0  0  0  0  0
  146.7813  141.3237  155.5903 C   0  0  0  0  0  0  0  0  0  0  0  0
  145.7735  142.1994  155.3045 C   0  0  0  0  0  0  0  0  0  0  0  0
  146.3005  142.9852  154.2416 C   0  0  0  0  0  0  0  0  0  0  0  0
  147.5280  142.6269  153.9017 N   0  0  0  0  0  0  0  0  0  0  0  0
  150.2178  142.3266  156.3507 N   0  0  0  0  0  0  0  0  0  0  0  0
  151.0266  142.6807  157.3605 C   0  0  0  0  0  0  0  0  0  0  0  0
  151.6144  141.8813  158.0892 O   0  0  0  0  0  0  0  0  0  0  0  0
  151.1071  144.0120  157.4849 N   0  0  0  0  0  0  0  0  0  0  0  0
  151.8725  144.7047  158.4699 C   0  0  0  0  0  0  0  0  0  0  0  0
  151.8951  144.1343  159.8715 C   0  0  0  0  0  0  0  0  0  0  0  0
  151.1199  145.3917  159.5889 C   0  0  0  0  0  0  0  0  0  0  0  0
  151.0060  139.1185  155.5702 H   0  0  0  0  0  0  0  0  0  0  0  0
  151.7512  140.1563  156.7784 H   0  0  0  0  0  0  0  0  0  0  0  0
  151.8599  140.5755  155.0696 H   0  0  0  0  0  0  0  0  0  0  0  0
  149.2987  140.4748  156.7266 H   0  0  0  0  0  0  0  0  0  0  0  0
  149.6857  141.4125  153.8300 H   0  0  0  0  0  0  0  0  0  0  0  0
  148.9334  139.9090  154.3083 H   0  0  0  0  0  0  0  0  0  0  0  0
  146.8420  140.5314  156.3218 H   0  0  0  0  0  0  0  0  0  0  0  0
  144.8067  142.2674  155.7804 H   0  0  0  0  0  0  0  0  0  0  0  0
  145.8309  143.8002  153.7112 H   0  0  0  0  0  0  0  0  0  0  0  0
  149.7836  143.0636  155.8147 H   0  0  0  0  0  0  0  0  0  0  0  0
  150.5830  144.5812  156.8362 H   0  0  0  0  0  0  0  0  0  0  0  0
  152.7866  145.1959  158.1386 H   0  0  0  0  0  0  0  0  0  0  0  0
  151.3265  143.2261  160.0615 H   0  0  0  0  0  0  0  0  0  0  0  0
  152.8201  144.2303  160.4364 H   0  0  0  0  0  0  0  0  0  0  0  0
  151.5267  146.3278  159.9657 H   0  0  0  0  0  0  0  0  0  0  0  0
  150.0337  145.3227  159.5897 H   0  0  0  0  0  0  0  0  0  0  0  0
  1  2  1  0  0  0  0
  1 16  1  0  0  0  0
  1 17  1  0  0  0  0
  1 18  1  0  0  0  0
  2  3  1  0  0  0  0
  2  9  1  0  0  0  0
  2 19  1  0  0  0  0
  3  4  1  0  0  0  0
  3 20  1  0  0  0  0
  3 21  1  0  0  0  0
  4  8  1  0  0  0  0
  4  5  1  0  0  0  0
  5  6  2  0  0  0  0
  5 22  1  0  0  0  0
  6  7  1  0  0  0  0
  6 23  1  0  0  0  0
  7  8  2  0  0  0  0
  7 24  1  0  0  0  0
  9 10  1  0  0  0  0
  9 25  1  0  0  0  0
 10 11  2  0  0  0  0
 10 12  1  0  0  0  0
 12 13  1  0  0  0  0
 12 26  1  0  0  0  0
 13 15  1  0  0  0  0
 13 14  1  0  0  0  0
 13 27  1  0  0  0  0
 14 15  1  0  0  0  0
 14 28  1  0  0  0  0
 14 29  1  0  0  0  0
 15 30  1  0  0  0  0
 15 31  1  0  0  0  0
M  END
> <s_m_source_file>
AV-unprocessed.smi

> <i_m_source_file_index>
1108

> <i_lp_mmshare_version>
43012

> <i_f3d_flags>
0

> <s_epik_input>
W0NIMl0xW0NIMl1bQ0hdMVtOSF1DKD1PKVtOSF1bQ0BIXShbQ0gzXSlbQ0gyXW4yW2NIXVtjSF1bY0hdbjI=

> <s_epik_cmdline>
J2VwaWtfcHl0aG9uJywgJy1waCcsICc3LjAnLCAnLXRuJywgJzgnLCAnLW1hJywgJzIwMCcsICctbWV0YWxfYmluZGluZycsICctaW1hZScsICc8aW5maWxlLm1hZT4nLCAnLW9tYWUnLCAnPG91dGZpbGUubWFlPic=

> <r_lp_tautomer_probability>
1

> <r_epik_Ionization_Penalty>
7.55353e-05

> <r_epik_Ionization_Penalty_Charging>
0

> <r_epik_Ionization_Penalty_Neutral>
7.55353e-05

> <r_epik_State_Penalty>
-0

> <r_epik_Charging_Adjusted_Penalty>
0

> <i_epik_Tot_Q>
0

> <i_epik_Tot_abs_Q>
0

> <r_epik_Metal_State_Penalty>
-0

> <b_epik_Metal_Only>
0

> <s_lp_Force_Field>
OPLS_2005

> <r_lp_Energy>
13.7116

> <b_lp_Chiralities_Consistent>
1

> <s_lp_Variant>
AV-unprocessed.smi:1108-1

> <Gold.Version>
5.8.1

> <Gold.Id.Protein>
6NUR|6NUR_protein|mol2

> <Gold.PLP.Fitness>
40.3225

> <Gold.PLP.PLP>
-34.9347

> <Gold.PLP.part.hbond>
-2.1870

> <Gold.PLP.part.metal>
0.0000

> <Gold.PLP.part.buried>
-4.3130

> <Gold.PLP.part.nonpolar>
-29.5749

> <Gold.PLP.part.repulsive>
1.0935

> <Gold.PLP.ligand.clash>
0.0000

> <Gold.PLP.ligand.torsion>
0.3176

> <Gold.PLP.Chemscore.Hbond>
1.9920

> <Gold.PLP.Chemscore.CHOScore>
0.0000

> <Gold.PLP.Chemscore.Metal>
0.0000

> <Gold.Chemscore.Hbonds>
donor molecule, donor type, donor heavy atom, donor atom, acceptor molecule, acceptor atom, score
      L1  H     9    25       P1  8028  1.00
      L1  H    12    26       P1  8028  0.94
      P1  H  8022  8030       L1     8  0.07

> <Gold.PLP.Chemscore.Internal.Correction>
0.0470

> <Gold.Rescore>
     Score         DG    S(hbond)    S(metal)    S(lipo)     H(rot)  DE(clash)    DE(int)     intcor
     13.04     -15.66       1.88        0.00      70.64       1.71       0.25       2.36       ----

> <Gold.Chemscore.Fitness>
13.0445

> <Gold.Chemscore.DG>
-15.6568

> <Gold.Chemscore.ZeroCoef>
-5.4800

> <Gold.Chemscore.Hbond>
1.8810

> <Gold.Chemscore.Metal>
0.0000

> <Gold.Chemscore.Lipo>
70.6439

> <Gold.Chemscore.Internal_Hbond>
0.0000

> <Gold.Chemscore.DEClash>
0.2508

> <Gold.Chemscore.DEInternal>
2.3614

> <Gold.Chemscore.Rot>
1.7075

> <Gold.Chemscore.Internal.Correction>
   9.000000E+99

> <Gold.Chemscore.Hbonds>
donor molecule, donor type, donor heavy atom, donor atom, acceptor molecule, acceptor atom, score
      L1  H     9    25       P1  8028  0.97
      L1  H    12    26       P1  8028  0.76
      P1  H  8022  8030       L1     8  0.03

> <Gold.Chemscore.Hbond.Weighted>
-6.2827

> <Gold.Chemscore.Metal.Weighted>
-0.0000

> <Gold.Chemscore.Lipo.Weighted>
-8.2653

> <Gold.Chemscore.Internal_Hbond.Weighted>
0.0000

> <Gold.Chemscore.DEClash.Weighted>
0.2508

> <Gold.Chemscore.DEInternal.Weighted>
2.3614

> <Gold.Chemscore.Rot.Weighted>
4.3713

> <Gold.Chemscore.Internal.Correction.Weighted>
   9.000000E+99

> <Gold.Protein.RotatedTorsions>
[ 6907 6896 6895 6894 ] final  151.09 input  -60.11 | X-H torsion
[ 7974 7965 7964 7962 ] final  -25.95 input  175.53 | X-H torsion
[ 8008 7997 7996 7995 ] final  -23.57 input   59.86 | X-H torsion
[ 10167 10162 10161 10158 ] final   49.52 input  -65.29 | X-H torsion
[ 10718 10713 10712 10709 ] final  -26.11 input   66.30 | X-H torsion
[ 10763 10752 10751 10750 ] final -154.57 input  -60.55 | X-H torsion
[ 11005 11000 10999 10996 ] final  124.35 input  -57.11 | X-H torsion

> <Gold.Protein.ActiveResidues>
 VAL166  LYS551  ARG553  GLY616  TRP617  ASP618  TYR619  PRO620  LYS621  CYS622 
 ASP623  PHE694  ASN695  SER759  ASP760  ASP761  ALA762  ILE779  LEU786  VAL792 
 PHE793  MET794  SER795  GLU796  ALA797  LYS798  CYS799  TRP800  GLU811  SER814 

> <Gold.Protein.RotatedAtoms>
  152.1055  133.4272  159.4606 H   0  0  0  0  0  0  0  0  0  0  0  0  # atno 6907 bound_to 6896
  150.6865  134.2710  159.4597 H   0  0  0  0  0  0  0  0  0  0  0  0  # atno 6908 bound_to 6896
  152.0574  134.9615  160.0625 H   0  0  0  0  0  0  0  0  0  0  0  0  # atno 6909 bound_to 6896
  146.1457  140.4955  142.8633 H   0  0  0  0  0  0  0  0  0  0  0  0  # atno 7974 bound_to 7965
  154.4578  140.1977  156.0331 H   0  0  0  0  0  0  0  0  0  0  0  0  # atno 8008 bound_to 7997
  156.0780  140.3275  155.7630 H   0  0  0  0  0  0  0  0  0  0  0  0  # atno 8009 bound_to 7997
  155.5157  140.0565  157.2906 H   0  0  0  0  0  0  0  0  0  0  0  0  # atno 8010 bound_to 7997
  140.2821  144.3145  150.6262 H   0  0  0  0  0  0  0  0  0  0  0  0  # atno 10167 bound_to 10162
  156.4555  130.4493  149.6962 H   0  0  0  0  0  0  0  0  0  0  0  0  # atno 10718 bound_to 10713
  154.7849  135.3187  154.7909 H   0  0  0  0  0  0  0  0  0  0  0  0  # atno 10763 bound_to 10752
  153.8611  135.6853  153.4787 H   0  0  0  0  0  0  0  0  0  0  0  0  # atno 10764 bound_to 10752
  153.1497  135.4704  154.9557 H   0  0  0  0  0  0  0  0  0  0  0  0  # atno 10765 bound_to 10752
  139.9354  134.9640  156.8396 H   0  0  0  0  0  0  0  0  0  0  0  0  # atno 11005 bound_to 11000
  144.7844  140.5906  143.6584 LP  0  0  0  0  0  0  0  0  0  0  0  0  # atno 17320 bound_to 7965
  145.4942  139.1487  143.3693 LP  0  0  0  0  0  0  0  0  0  0  0  0  # atno 17321 bound_to 7965
  140.5803  143.2173  151.7440 LP  0  0  0  0  0  0  0  0  0  0  0  0  # atno 17342 bound_to 10162
  139.4960  144.4089  152.0101 LP  0  0  0  0  0  0  0  0  0  0  0  0  # atno 17343 bound_to 10162
  156.3771  130.7560  151.2549 LP  0  0  0  0  0  0  0  0  0  0  0  0  # atno 17370 bound_to 10713
  157.7500  131.0306  150.4146 LP  0  0  0  0  0  0  0  0  0  0  0  0  # atno 17371 bound_to 10713
  140.6089  134.0101  155.7568 LP  0  0  0  0  0  0  0  0  0  0  0  0  # atno 17394 bound_to 11000
  141.0965  133.9835  157.3150 LP  0  0  0  0  0  0  0  0  0  0  0  0  # atno 17395 bound_to 11000

$$$$
