AV-unprocessed.smi:443|AV-procd|sdf|2585|dock10
  -GOLD-   2262022573D 1   1.00000     0.00000
 Structure written by MMmdl.
 48 49  0  0  0  0  0  0  0  0  1 V2000
  151.3562  138.0993  154.2498 C   0  0  0  0  0  0  0  0  0  0  0  0
  150.4036  138.0079  155.4113 C   0  0  0  0  0  0  0  0  0  0  0  0
  149.6998  139.0605  155.6680 N   0  0  0  0  0  0  0  0  0  0  0  0
  148.8099  139.0938  156.7232 N   0  0  0  0  0  0  0  0  0  0  0  0
  148.1352  140.3869  156.8995 C   0  0  0  0  0  0  0  0  0  0  0  0
  149.0743  141.4645  157.4864 C   0  0  2  0  0  0  0  0  0  0  0  0
  148.3565  142.6548  157.7373 O   0  0  0  0  0  0  0  0  0  0  0  0
  150.3081  141.7871  156.6236 C   0  0  0  0  0  0  0  0  0  0  0  0
  151.1633  142.6859  157.3203 O   0  0  0  0  0  0  0  0  0  0  0  0
  151.8577  142.2299  158.4217 C   0  0  0  0  0  0  0  0  0  0  0  0
  152.0534  140.8503  158.6907 C   0  0  0  0  0  0  0  0  0  0  0  0
  152.7800  140.4315  159.8198 C   0  0  0  0  0  0  0  0  0  0  0  0
  153.3219  141.3830  160.6988 C   0  0  0  0  0  0  0  0  0  0  0  0
  153.1318  142.7530  160.4480 C   0  0  0  0  0  0  0  0  0  0  0  0
  152.4025  143.1883  159.3186 C   0  0  0  0  0  0  0  0  0  0  0  0
  152.2222  144.6940  159.1117 C   0  0  0  0  0  0  0  0  0  0  0  0
  150.7959  145.1751  159.4325 C   0  0  0  0  0  0  0  0  0  0  0  0
  152.6965  145.1572  157.7255 C   0  0  0  0  0  0  0  0  0  0  0  0
  148.5710  138.0518  157.5692 C   0  0  0  0  0  0  0  0  0  0  0  0
  147.7695  138.1259  158.5017 O   0  0  0  0  0  0  0  0  0  0  0  0
  149.3613  136.8565  157.2653 C   0  0  0  0  0  0  0  0  0  0  0  0
  149.1418  135.7410  158.1283 C   0  0  0  0  0  0  0  0  0  0  0  0
  148.9842  134.8353  158.8320 N   0  0  0  0  0  0  0  0  0  0  0  0
  150.2455  136.8154  156.2370 C   0  0  0  0  0  0  0  0  0  0  0  0
  151.0957  135.6024  155.8846 C   0  0  0  0  0  0  0  0  0  0  0  0
  151.0845  137.3887  153.4692 H   0  0  0  0  0  0  0  0  0  0  0  0
  152.3762  137.8817  154.5669 H   0  0  0  0  0  0  0  0  0  0  0  0
  151.3590  139.0947  153.8037 H   0  0  0  0  0  0  0  0  0  0  0  0
  147.7294  140.7296  155.9463 H   0  0  0  0  0  0  0  0  0  0  0  0
  147.2642  140.2625  157.5456 H   0  0  0  0  0  0  0  0  0  0  0  0
  149.4306  141.1262  158.4601 H   0  0  0  0  0  0  0  0  0  0  0  0
  148.4690  143.2344  156.9995 H   0  0  0  0  0  0  0  0  0  0  0  0
  150.8394  140.8724  156.3556 H   0  0  0  0  0  0  0  0  0  0  0  0
  149.9671  142.2538  155.6985 H   0  0  0  0  0  0  0  0  0  0  0  0
  151.6568  140.0840  158.0428 H   0  0  0  0  0  0  0  0  0  0  0  0
  152.9223  139.3779  160.0106 H   0  0  0  0  0  0  0  0  0  0  0  0
  153.8811  141.0634  161.5659 H   0  0  0  0  0  0  0  0  0  0  0  0
  153.5518  143.4720  161.1359 H   0  0  0  0  0  0  0  0  0  0  0  0
  152.8709  145.1945  159.8317 H   0  0  0  0  0  0  0  0  0  0  0  0
  150.5043  144.8827  160.4416 H   0  0  0  0  0  0  0  0  0  0  0  0
  150.0541  144.7751  158.7425 H   0  0  0  0  0  0  0  0  0  0  0  0
  150.7326  146.2620  159.3763 H   0  0  0  0  0  0  0  0  0  0  0  0
  153.7370  144.8801  157.5560 H   0  0  0  0  0  0  0  0  0  0  0  0
  152.6274  146.2413  157.6326 H   0  0  0  0  0  0  0  0  0  0  0  0
  152.1011  144.7246  156.9245 H   0  0  0  0  0  0  0  0  0  0  0  0
  150.8763  134.7454  156.5206 H   0  0  0  0  0  0  0  0  0  0  0  0
  152.1554  135.8332  155.9979 H   0  0  0  0  0  0  0  0  0  0  0  0
  150.9187  135.2958  154.8533 H   0  0  0  0  0  0  0  0  0  0  0  0
  1  2  1  0  0  0  0
  1 26  1  0  0  0  0
  1 27  1  0  0  0  0
  1 28  1  0  0  0  0
  2 24  1  0  0  0  0
  2  3  2  0  0  0  0
  3  4  1  0  0  0  0
  4  5  1  0  0  0  0
  4 19  1  0  0  0  0
  5  6  1  0  0  0  0
  5 29  1  0  0  0  0
  5 30  1  0  0  0  0
  6  7  1  0  0  0  0
  6  8  1  0  0  0  0
  6 31  1  0  0  0  0
  7 32  1  0  0  0  0
  8  9  1  0  0  0  0
  8 33  1  0  0  0  0
  8 34  1  0  0  0  0
  9 10  1  0  0  0  0
 10 15  1  0  0  0  0
 10 11  2  0  0  0  0
 11 12  1  0  0  0  0
 11 35  1  0  0  0  0
 12 13  2  0  0  0  0
 12 36  1  0  0  0  0
 13 14  1  0  0  0  0
 13 37  1  0  0  0  0
 14 15  2  0  0  0  0
 14 38  1  0  0  0  0
 15 16  1  0  0  0  0
 16 17  1  0  0  0  0
 16 18  1  0  0  0  0
 16 39  1  0  0  0  0
 17 40  1  0  0  0  0
 17 41  1  0  0  0  0
 17 42  1  0  0  0  0
 18 43  1  0  0  0  0
 18 44  1  0  0  0  0
 18 45  1  0  0  0  0
 19 20  2  0  0  0  0
 19 21  1  0  0  0  0
 21 22  1  0  0  0  0
 21 24  2  0  0  0  0
 22 23  3  0  0  0  0
 24 25  1  0  0  0  0
 25 46  1  0  0  0  0
 25 47  1  0  0  0  0
 25 48  1  0  0  0  0
M  END
> <s_m_source_file>
AV-unprocessed.smi

> <i_m_source_file_index>
443

> <i_lp_mmshare_version>
43012

> <i_f3d_flags>
0

> <s_epik_input>
TiNDYyhjMVtDSDNdKWMoPU8pbihuYzFbQ0gzXSlbQ0gyXVtDQEhdKFtPSF0pW0NIMl1PYzJbY0hdW2NIXVtjSF1bY0hdYzJbQ0hdKFtDSDNdKVtDSDNd

> <s_epik_cmdline>
J2VwaWtfcHl0aG9uJywgJy1waCcsICc3LjAnLCAnLXRuJywgJzgnLCAnLW1hJywgJzIwMCcsICctbWV0YWxfYmluZGluZycsICctaW1hZScsICc8aW5maWxlLm1hZT4nLCAnLW9tYWUnLCAnPG91dGZpbGUubWFlPic=

> <r_lp_tautomer_probability>
1

> <r_epik_Ionization_Penalty>
1.17331e-07

> <r_epik_Ionization_Penalty_Charging>
1.57223e-10

> <r_epik_Ionization_Penalty_Neutral>
1.17174e-07

> <r_epik_State_Penalty>
-0

> <r_epik_Charging_Adjusted_Penalty>
1.57223e-10

> <i_epik_Tot_Q>
0

> <i_epik_Tot_abs_Q>
0

> <r_epik_Metal_State_Penalty>
-0

> <b_epik_Metal_Only>
0

> <s_lp_Force_Field>
OPLS_2005

> <r_lp_Energy>
30.066

> <b_lp_Chiralities_Consistent>
1

> <s_lp_Variant>
AV-unprocessed.smi:443-1

> <Gold.Version>
5.8.1

> <Gold.Id.Protein>
6NUR|6NUR_protein|mol2

> <Gold.PLP.Fitness>
48.7559

> <Gold.PLP.PLP>
-43.8917

> <Gold.PLP.part.hbond>
-3.0875

> <Gold.PLP.part.metal>
0.0000

> <Gold.PLP.part.buried>
-7.1031

> <Gold.PLP.part.nonpolar>
-34.3632

> <Gold.PLP.part.repulsive>
0.1186

> <Gold.PLP.ligand.clash>
0.0000

> <Gold.PLP.ligand.torsion>
0.6343

> <Gold.PLP.Chemscore.Hbond>
2.0000

> <Gold.PLP.Chemscore.CHOScore>
0.0000

> <Gold.PLP.Chemscore.Metal>
0.0000

> <Gold.Chemscore.Hbonds>
donor molecule, donor type, donor heavy atom, donor atom, acceptor molecule, acceptor atom, score
      L1  H     7    32       P1  8028  1.00
      P1  H  6896  6909       L1    23  1.00

> <Gold.PLP.Chemscore.Internal.Correction>
0.1327

> <Gold.Rescore>
     Score         DG    S(hbond)    S(metal)    S(lipo)     H(rot)  DE(clash)    DE(int)     intcor
     15.94     -18.18       1.06        0.00     131.09       2.41       0.56       1.69       ----

> <Gold.Chemscore.Fitness>
15.9375

> <Gold.Chemscore.DG>
-18.1838

> <Gold.Chemscore.ZeroCoef>
-5.4800

> <Gold.Chemscore.Hbond>
1.0575

> <Gold.Chemscore.Metal>
0.0000

> <Gold.Chemscore.Lipo>
131.0880

> <Gold.Chemscore.Internal_Hbond>
0.0000

> <Gold.Chemscore.DEClash>
0.5608

> <Gold.Chemscore.DEInternal>
1.6855

> <Gold.Chemscore.Rot>
2.4084

> <Gold.Chemscore.Internal.Correction>
   9.000000E+99

> <Gold.Chemscore.Hbonds>
donor molecule, donor type, donor heavy atom, donor atom, acceptor molecule, acceptor atom, score
      L1  H     7    32       P1  8028  0.28
      P1  H  6896  6909       L1    23  0.60

> <Gold.Chemscore.Hbond.Weighted>
-3.5320

> <Gold.Chemscore.Metal.Weighted>
-0.0000

> <Gold.Chemscore.Lipo.Weighted>
-15.3373

> <Gold.Chemscore.Internal_Hbond.Weighted>
0.0000

> <Gold.Chemscore.DEClash.Weighted>
0.5608

> <Gold.Chemscore.DEInternal.Weighted>
1.6855

> <Gold.Chemscore.Rot.Weighted>
6.1655

> <Gold.Chemscore.Internal.Correction.Weighted>
   9.000000E+99

> <Gold.Protein.RotatedTorsions>
[ 6907 6896 6895 6894 ] final   34.57 input  -60.11 | X-H torsion
[ 7974 7965 7964 7962 ] final   68.83 input  175.53 | X-H torsion
[ 8008 7997 7996 7995 ] final  -89.23 input   59.86 | X-H torsion
[ 10167 10162 10161 10158 ] final -147.06 input  -65.29 | X-H torsion
[ 10718 10713 10712 10709 ] final   50.84 input   66.30 | X-H torsion
[ 10763 10752 10751 10750 ] final   61.79 input  -60.55 | X-H torsion
[ 11005 11000 10999 10996 ] final  -81.25 input  -57.11 | X-H torsion

> <Gold.Protein.ActiveResidues>
 VAL166  LYS551  ARG553  GLY616  TRP617  ASP618  TYR619  PRO620  LYS621  CYS622 
 ASP623  PHE694  ASN695  SER759  ASP760  ASP761  ALA762  ILE779  LEU786  VAL792 
 PHE793  MET794  SER795  GLU796  ALA797  LYS798  CYS799  TRP800  GLU811  SER814 

> <Gold.Protein.RotatedAtoms>
  152.1041  134.9320  160.0568 H   0  0  0  0  0  0  0  0  0  0  0  0  # atno 6907 bound_to 6896
  152.0523  133.4020  159.4390 H   0  0  0  0  0  0  0  0  0  0  0  0  # atno 6908 bound_to 6896
  150.6840  134.3214  159.4832 H   0  0  0  0  0  0  0  0  0  0  0  0  # atno 6909 bound_to 6896
  145.7978  139.2966  143.1172 H   0  0  0  0  0  0  0  0  0  0  0  0  # atno 7974 bound_to 7965
  154.6841  140.0544  157.0296 H   0  0  0  0  0  0  0  0  0  0  0  0  # atno 8008 bound_to 7997
  155.0910  140.3219  155.4555 H   0  0  0  0  0  0  0  0  0  0  0  0  # atno 8009 bound_to 7997
  156.2705  140.2048  156.6037 H   0  0  0  0  0  0  0  0  0  0  0  0  # atno 8010 bound_to 7997
  139.7656  143.8312  152.2615 H   0  0  0  0  0  0  0  0  0  0  0  0  # atno 10167 bound_to 10162
  157.4923  130.8384  149.8217 H   0  0  0  0  0  0  0  0  0  0  0  0  # atno 10718 bound_to 10713
  152.9961  135.5488  154.6089 H   0  0  0  0  0  0  0  0  0  0  0  0  # atno 10763 bound_to 10752
  154.5414  135.2820  155.1094 H   0  0  0  0  0  0  0  0  0  0  0  0  # atno 10764 bound_to 10752
  154.2370  135.6423  153.5247 H   0  0  0  0  0  0  0  0  0  0  0  0  # atno 10765 bound_to 10752
  141.1667  133.7188  156.8395 H   0  0  0  0  0  0  0  0  0  0  0  0  # atno 11005 bound_to 11000
  145.9910  140.8603  143.0066 LP  0  0  0  0  0  0  0  0  0  0  0  0  # atno 17320 bound_to 7965
  144.6773  140.2215  143.7366 LP  0  0  0  0  0  0  0  0  0  0  0  0  # atno 17321 bound_to 7965
  139.8331  144.7244  150.9425 LP  0  0  0  0  0  0  0  0  0  0  0  0  # atno 17342 bound_to 10162
  140.7810  143.4051  151.1084 LP  0  0  0  0  0  0  0  0  0  0  0  0  # atno 17343 bound_to 10162
  156.0181  130.3806  150.2048 LP  0  0  0  0  0  0  0  0  0  0  0  0  # atno 17370 bound_to 10713
  157.0237  130.9987  151.3332 LP  0  0  0  0  0  0  0  0  0  0  0  0  # atno 17371 bound_to 10713
  140.1994  134.8908  157.3151 LP  0  0  0  0  0  0  0  0  0  0  0  0  # atno 17394 bound_to 11000
  140.2204  134.4030  155.7568 LP  0  0  0  0  0  0  0  0  0  0  0  0  # atno 17395 bound_to 11000

$$$$
