AV-unprocessed.smi:1072|AV-procd|sdf|4685|dock6
  -GOLD-   22720 3203D 1   1.00000     0.00000
 Structure written by MMmdl.
 46 47  0  0  0  0  0  0  0  0  1 V2000
  151.4699  144.2257  158.0873 C   0  0  0  0  0  0  0  0  0  0  0  0
  151.4695  142.8141  157.5413 C   0  0  0  0  0  0  0  0  0  0  0  0
  150.5570  142.6131  156.5186 N   0  0  0  0  0  0  0  0  0  0  0  0
  150.4808  141.3504  155.9578 C   0  0  0  0  0  0  0  0  0  0  0  0
  149.4537  141.2134  154.8472 C   0  0  0  0  0  0  0  0  0  0  0  0
  151.2784  140.3405  156.3896 C   0  0  0  0  0  0  0  0  0  0  0  0
  151.2269  138.9347  155.7922 C   0  0  0  0  0  0  0  0  0  0  0  0
  150.7127  137.8337  156.7229 C   0  0  0  0  0  0  0  0  0  0  0  0
  151.3353  137.5490  157.7455 O   0  0  0  0  0  0  0  0  0  0  0  0
  149.5745  137.2270  156.3424 N   0  0  0  0  0  0  0  0  0  0  0  0
  148.8489  136.1364  157.0106 C   0  0  1  0  0  0  0  0  0  0  0  0
  148.4656  136.5638  158.4441 C   0  0  0  0  0  0  0  0  0  0  0  0
  147.5838  135.7180  156.2152 C   0  0  0  0  0  0  0  0  0  0  0  0
  147.9143  135.1380  154.8283 C   0  0  0  0  0  0  0  0  0  0  0  0
  148.8676  133.9342  154.9346 C   0  0  1  0  0  0  0  0  0  0  0  0
  149.2043  133.3598  153.5515 C   0  0  0  0  0  0  0  0  0  0  0  0
  150.1386  134.3244  155.7106 C   0  0  0  0  0  0  0  0  0  0  0  0
  149.8017  134.9190  157.0914 C   0  0  0  0  0  0  0  0  0  0  0  0
  152.2433  140.6194  157.4796 C   0  0  0  0  0  0  0  0  0  0  0  0
  153.0049  139.7512  157.9033 O   0  0  0  0  0  0  0  0  0  0  0  0
  152.2738  141.9149  158.0212 N   0  0  0  0  0  0  0  0  0  0  0  0
  149.9478  143.3368  156.1650 H   0  0  0  0  0  0  0  0  0  0  0  0
  152.0721  144.2922  158.9943 H   0  0  0  0  0  0  0  0  0  0  0  0
  150.4553  144.5436  158.3298 H   0  0  0  0  0  0  0  0  0  0  0  0
  151.8838  144.9152  157.3511 H   0  0  0  0  0  0  0  0  0  0  0  0
  148.6990  140.4739  155.1150 H   0  0  0  0  0  0  0  0  0  0  0  0
  149.9335  140.8983  153.9202 H   0  0  0  0  0  0  0  0  0  0  0  0
  148.9426  142.1574  154.6543 H   0  0  0  0  0  0  0  0  0  0  0  0
  152.2319  138.6695  155.4621 H   0  0  0  0  0  0  0  0  0  0  0  0
  150.6251  138.9217  154.8831 H   0  0  0  0  0  0  0  0  0  0  0  0
  149.1573  137.5574  155.4843 H   0  0  0  0  0  0  0  0  0  0  0  0
  148.0064  135.7400  158.9915 H   0  0  0  0  0  0  0  0  0  0  0  0
  147.7496  137.3857  158.4500 H   0  0  0  0  0  0  0  0  0  0  0  0
  149.3409  136.8845  159.0102 H   0  0  0  0  0  0  0  0  0  0  0  0
  147.0371  134.9642  156.7837 H   0  0  0  0  0  0  0  0  0  0  0  0
  146.8929  136.5537  156.1063 H   0  0  0  0  0  0  0  0  0  0  0  0
  146.9910  134.8357  154.3332 H   0  0  0  0  0  0  0  0  0  0  0  0
  148.3577  135.9112  154.1994 H   0  0  0  0  0  0  0  0  0  0  0  0
  148.3581  133.1516  155.4988 H   0  0  0  0  0  0  0  0  0  0  0  0
  149.7119  134.0968  152.9284 H   0  0  0  0  0  0  0  0  0  0  0  0
  148.3014  133.0457  153.0269 H   0  0  0  0  0  0  0  0  0  0  0  0
  149.8551  132.4892  153.6360 H   0  0  0  0  0  0  0  0  0  0  0  0
  150.7759  133.4490  155.8401 H   0  0  0  0  0  0  0  0  0  0  0  0
  150.7218  135.0408  155.1306 H   0  0  0  0  0  0  0  0  0  0  0  0
  150.7246  135.1962  157.6032 H   0  0  0  0  0  0  0  0  0  0  0  0
  149.3450  134.1388  157.7023 H   0  0  0  0  0  0  0  0  0  0  0  0
  1 23  1  0  0  0  0
  1 24  1  0  0  0  0
  1 25  1  0  0  0  0
  1  2  1  0  0  0  0
  2  3  1  0  0  0  0
  2 21  2  0  0  0  0
  3  4  1  0  0  0  0
  3 22  1  0  0  0  0
  4  6  2  0  0  0  0
  4  5  1  0  0  0  0
  5 26  1  0  0  0  0
  5 27  1  0  0  0  0
  5 28  1  0  0  0  0
  6 19  1  0  0  0  0
  6  7  1  0  0  0  0
  7  8  1  0  0  0  0
  7 29  1  0  0  0  0
  7 30  1  0  0  0  0
  8  9  2  0  0  0  0
  8 10  1  0  0  0  0
 10 11  1  0  0  0  0
 10 31  1  0  0  0  0
 11 18  1  0  0  0  0
 11 12  1  0  0  0  0
 11 13  1  0  0  0  0
 12 32  1  0  0  0  0
 12 33  1  0  0  0  0
 12 34  1  0  0  0  0
 13 14  1  0  0  0  0
 13 35  1  0  0  0  0
 13 36  1  0  0  0  0
 14 15  1  0  0  0  0
 14 37  1  0  0  0  0
 14 38  1  0  0  0  0
 15 16  1  0  0  0  0
 15 17  1  0  0  0  0
 15 39  1  0  0  0  0
 16 40  1  0  0  0  0
 16 41  1  0  0  0  0
 16 42  1  0  0  0  0
 17 18  1  0  0  0  0
 17 43  1  0  0  0  0
 17 44  1  0  0  0  0
 18 45  1  0  0  0  0
 18 46  1  0  0  0  0
 19 20  2  0  0  0  0
 19 21  1  0  0  0  0
M  END
> <s_m_source_file>
AV-unprocessed.smi

> <i_m_source_file_index>
1072

> <i_lp_mmshare_version>
43012

> <i_f3d_flags>
0

> <s_epik_input>
W0NIM11jMW5jKFtDSDNdKWMoYyg9TylbbkhdMSlbQ0gyXUMoPU8pW05IXVtDQEBdMihbQ0gzXSlbQ0gyXVtDSDJdW0NAQEhdKFtDSDNdKVtDSDJdW0NIMl0y

> <s_epik_cmdline>
J2VwaWtfcHl0aG9uJywgJy1waCcsICc3LjAnLCAnLXRuJywgJzgnLCAnLW1hJywgJzIwMCcsICctbWV0YWxfYmluZGluZycsICctaW1hZScsICc8aW5maWxlLm1hZT4nLCAnLW9tYWUnLCAnPG91dGZpbGUubWFlPic=

> <r_lp_tautomer_probability>
0.156392

> <r_epik_Ionization_Penalty>
0.0131066

> <r_epik_Ionization_Penalty_Charging>
0.0129643

> <r_epik_Ionization_Penalty_Neutral>
0.000142248

> <r_epik_State_Penalty>
1.15342

> <r_epik_Charging_Adjusted_Penalty>
1.16638

> <i_epik_Tot_Q>
0

> <i_epik_Tot_abs_Q>
0

> <r_epik_Metal_State_Penalty>
1.30766

> <b_epik_Metal_Only>
0

> <s_lp_Force_Field>
OPLS_2005

> <r_lp_Energy>
14.6826

> <b_lp_Chiralities_Consistent>
1

> <s_lp_Variant>
AV-unprocessed.smi:1072-3

> <Gold.Version>
5.8.1

> <Gold.Id.Protein>
6NUR|6NUR_protein|mol2

> <Gold.PLP.Fitness>
34.5642

> <Gold.PLP.PLP>
-28.6909

> <Gold.PLP.part.hbond>
-2.0000

> <Gold.PLP.part.metal>
0.0000

> <Gold.PLP.part.buried>
-1.7309

> <Gold.PLP.part.nonpolar>
-23.5592

> <Gold.PLP.part.repulsive>
0.0827

> <Gold.PLP.ligand.clash>
0.0000

> <Gold.PLP.ligand.torsion>
0.0661

> <Gold.PLP.Chemscore.Hbond>
2.0000

> <Gold.PLP.Chemscore.CHOScore>
0.0000

> <Gold.PLP.Chemscore.Metal>
0.0000

> <Gold.Chemscore.Hbonds>
donor molecule, donor type, donor heavy atom, donor atom, acceptor molecule, acceptor atom, score
      L1  H     3    22       P1  8028  1.00
      P1  H  7997  8008       L1    20  1.00

> <Gold.PLP.Chemscore.Internal.Correction>
0.0054

> <Gold.Rescore>
     Score         DG    S(hbond)    S(metal)    S(lipo)     H(rot)  DE(clash)    DE(int)     intcor
     14.90     -15.52       1.89        0.00      64.00       1.47       0.31       0.32       ----

> <Gold.Chemscore.Fitness>
14.8975

> <Gold.Chemscore.DG>
-15.5244

> <Gold.Chemscore.ZeroCoef>
-5.4800

> <Gold.Chemscore.Hbond>
1.8915

> <Gold.Chemscore.Metal>
0.0000

> <Gold.Chemscore.Lipo>
63.9956

> <Gold.Chemscore.Internal_Hbond>
0.0000

> <Gold.Chemscore.DEClash>
0.3104

> <Gold.Chemscore.DEInternal>
0.3165

> <Gold.Chemscore.Rot>
1.4690

> <Gold.Chemscore.Internal.Correction>
   9.000000E+99

> <Gold.Chemscore.Hbonds>
donor molecule, donor type, donor heavy atom, donor atom, acceptor molecule, acceptor atom, score
      L1  H     3    22       P1  8028  1.00
      P1  H  7997  8008       L1    20  0.50

> <Gold.Chemscore.Hbond.Weighted>
-6.3176

> <Gold.Chemscore.Metal.Weighted>
-0.0000

> <Gold.Chemscore.Lipo.Weighted>
-7.4875

> <Gold.Chemscore.Internal_Hbond.Weighted>
0.0000

> <Gold.Chemscore.DEClash.Weighted>
0.3104

> <Gold.Chemscore.DEInternal.Weighted>
0.3165

> <Gold.Chemscore.Rot.Weighted>
3.7607

> <Gold.Chemscore.Internal.Correction.Weighted>
   9.000000E+99

> <Gold.Protein.RotatedTorsions>
[ 6907 6896 6895 6894 ] final  127.68 input  -60.11 | X-H torsion
[ 7974 7965 7964 7962 ] final  136.77 input  175.53 | X-H torsion
[ 8008 7997 7996 7995 ] final  -85.93 input   59.86 | X-H torsion
[ 10167 10162 10161 10158 ] final   11.95 input  -65.29 | X-H torsion
[ 10718 10713 10712 10709 ] final -118.91 input   66.30 | X-H torsion
[ 10763 10752 10751 10750 ] final  104.15 input  -60.55 | X-H torsion
[ 11005 11000 10999 10996 ] final   78.31 input  -57.11 | X-H torsion

> <Gold.Protein.ActiveResidues>
 VAL166  LYS551  ARG553  GLY616  TRP617  ASP618  TYR619  PRO620  LYS621  CYS622 
 ASP623  PHE694  ASN695  SER759  ASP760  ASP761  ALA762  ILE779  LEU786  VAL792 
 PHE793  MET794  SER795  GLU796  ALA797  LYS798  CYS799  TRP800  GLU811  SER814 

> <Gold.Protein.RotatedAtoms>
  152.3790  133.6520  159.6145 H   0  0  0  0  0  0  0  0  0  0  0  0  # atno 6907 bound_to 6896
  150.7726  133.9146  159.3388 H   0  0  0  0  0  0  0  0  0  0  0  0  # atno 6908 bound_to 6896
  151.6955  135.0940  160.0292 H   0  0  0  0  0  0  0  0  0  0  0  0  # atno 6909 bound_to 6896
  144.9532  139.4794  143.5515 H   0  0  0  0  0  0  0  0  0  0  0  0  # atno 7974 bound_to 7965
  154.6462  140.0585  156.9903 H   0  0  0  0  0  0  0  0  0  0  0  0  # atno 8008 bound_to 7997
  155.1441  140.3268  155.4427 H   0  0  0  0  0  0  0  0  0  0  0  0  # atno 8009 bound_to 7997
  156.2554  140.1959  156.6556 H   0  0  0  0  0  0  0  0  0  0  0  0  # atno 8010 bound_to 7997
  140.6099  143.8430  150.7054 H   0  0  0  0  0  0  0  0  0  0  0  0  # atno 10167 bound_to 10162
  156.1141  130.6272  150.9350 H   0  0  0  0  0  0  0  0  0  0  0  0  # atno 10718 bound_to 10713
  153.3621  135.3953  155.1726 H   0  0  0  0  0  0  0  0  0  0  0  0  # atno 10763 bound_to 10752
  154.8681  135.3682  154.5086 H   0  0  0  0  0  0  0  0  0  0  0  0  # atno 10764 bound_to 10752
  153.5546  135.7082  153.5636 H   0  0  0  0  0  0  0  0  0  0  0  0  # atno 10765 bound_to 10752
  139.9218  134.7753  156.1633 H   0  0  0  0  0  0  0  0  0  0  0  0  # atno 11005 bound_to 11000
  146.3328  139.8632  142.8852 LP  0  0  0  0  0  0  0  0  0  0  0  0  # atno 17320 bound_to 7965
  145.2812  141.0139  143.3716 LP  0  0  0  0  0  0  0  0  0  0  0  0  # atno 17321 bound_to 7965
  140.1996  143.3970  152.1802 LP  0  0  0  0  0  0  0  0  0  0  0  0  # atno 17342 bound_to 10162
  139.5353  144.7203  151.4914 LP  0  0  0  0  0  0  0  0  0  0  0  0  # atno 17343 bound_to 10162
  157.6324  131.0919  150.8415 LP  0  0  0  0  0  0  0  0  0  0  0  0  # atno 17370 bound_to 10713
  156.8521  130.5084  149.5311 LP  0  0  0  0  0  0  0  0  0  0  0  0  # atno 17371 bound_to 10713
  141.0745  133.6782  156.2208 LP  0  0  0  0  0  0  0  0  0  0  0  0  # atno 17394 bound_to 11000
  140.6452  134.5125  157.5573 LP  0  0  0  0  0  0  0  0  0  0  0  0  # atno 17395 bound_to 11000

$$$$
