AV-unprocessed.smi:2712|AV-procd|sdf|10477|dock2
  -GOLD-   2272014513D 1   1.00000     0.00000
 Structure written by MMmdl.
 52 53  0  0  0  0  0  0  0  0  1 V2000
  151.8018  145.2891  158.4017 C   0  0  0  0  0  0  0  0  0  0  0  0
  152.0592  143.8314  158.6433 C   0  0  0  0  0  0  0  0  0  0  0  0
  152.9584  143.3510  159.6751 C   0  0  0  0  0  0  0  0  0  0  0  0
  153.1389  142.0217  159.8287 C   0  0  0  0  0  0  0  0  0  0  0  0
  152.4501  141.0498  158.9823 C   0  0  0  0  0  0  0  0  0  0  0  0
  152.5963  139.8327  159.0944 O   0  0  0  0  0  0  0  0  0  0  0  0
  151.6254  141.6178  158.0528 N   0  0  0  0  0  0  0  0  0  0  0  0
  150.8408  140.7896  157.1255 C   0  0  0  0  0  0  0  0  0  0  0  0
  149.6498  140.0896  157.7959 C   0  0  0  0  0  0  0  0  0  0  0  0
  148.6459  140.7258  158.1199 O   0  0  0  0  0  0  0  0  0  0  0  0
  149.7748  138.7664  157.9840 N   0  0  0  0  0  0  0  0  0  0  0  0
  148.7740  137.8986  158.6015 C   0  0  1  0  0  0  0  0  0  0  0  0
  147.9880  137.1934  157.4804 C   0  0  0  0  0  0  0  0  0  0  0  0
  147.1735  135.9580  157.8966 C   0  0  0  0  0  0  0  0  0  0  0  0
  146.4840  136.0476  159.2685 C   0  0  0  0  0  0  0  0  0  0  0  0
  147.3627  135.5379  160.4460 C   0  0  2  0  0  0  0  0  0  0  0  0
  146.5218  135.1296  161.7129 C   0  0  0  0  0  0  0  0  0  0  0  0
  145.6548  136.2986  162.2294 C   0  0  0  0  0  0  0  0  0  0  0  0
  147.4393  134.6610  162.8663 C   0  0  0  0  0  0  0  0  0  0  0  0
  145.5946  133.9332  161.3912 C   0  0  0  0  0  0  0  0  0  0  0  0
  148.5140  136.5299  160.7691 C   0  0  0  0  0  0  0  0  0  0  0  0
  149.4366  136.9274  159.6008 C   0  0  0  0  0  0  0  0  0  0  0  0
  151.4427  142.9812  157.8894 N   0  0  0  0  0  0  0  0  0  0  0  0
  152.4608  145.9117  159.0074 H   0  0  0  0  0  0  0  0  0  0  0  0
  150.7729  145.5472  158.6541 H   0  0  0  0  0  0  0  0  0  0  0  0
  151.9690  145.5472  157.3555 H   0  0  0  0  0  0  0  0  0  0  0  0
  153.4747  144.0563  160.3096 H   0  0  0  0  0  0  0  0  0  0  0  0
  153.8087  141.6653  160.5975 H   0  0  0  0  0  0  0  0  0  0  0  0
  150.4556  141.3999  156.3066 H   0  0  0  0  0  0  0  0  0  0  0  0
  151.4881  140.0458  156.6566 H   0  0  0  0  0  0  0  0  0  0  0  0
  150.6331  138.3267  157.6844 H   0  0  0  0  0  0  0  0  0  0  0  0
  148.0745  138.5339  159.1480 H   0  0  0  0  0  0  0  0  0  0  0  0
  147.3162  137.9235  157.0270 H   0  0  0  0  0  0  0  0  0  0  0  0
  148.6679  136.8881  156.6834 H   0  0  0  0  0  0  0  0  0  0  0  0
  146.4154  135.7896  157.1308 H   0  0  0  0  0  0  0  0  0  0  0  0
  147.8077  135.0716  157.8628 H   0  0  0  0  0  0  0  0  0  0  0  0
  146.1265  137.0612  159.4530 H   0  0  0  0  0  0  0  0  0  0  0  0
  145.5862  135.4405  159.1867 H   0  0  0  0  0  0  0  0  0  0  0  0
  147.8457  134.6202  160.1071 H   0  0  0  0  0  0  0  0  0  0  0  0
  145.0872  136.0046  163.1131 H   0  0  0  0  0  0  0  0  0  0  0  0
  144.9315  136.6306  161.4851 H   0  0  0  0  0  0  0  0  0  0  0  0
  146.2584  137.1608  162.5113 H   0  0  0  0  0  0  0  0  0  0  0  0
  148.0160  135.4805  163.2946 H   0  0  0  0  0  0  0  0  0  0  0  0
  148.1397  133.8945  162.5329 H   0  0  0  0  0  0  0  0  0  0  0  0
  146.8619  134.2370  163.6887 H   0  0  0  0  0  0  0  0  0  0  0  0
  145.1098  133.5551  162.2919 H   0  0  0  0  0  0  0  0  0  0  0  0
  146.1509  133.1037  160.9531 H   0  0  0  0  0  0  0  0  0  0  0  0
  144.7894  134.1923  160.7060 H   0  0  0  0  0  0  0  0  0  0  0  0
  148.1158  137.4348  161.2274 H   0  0  0  0  0  0  0  0  0  0  0  0
  149.1692  136.0856  161.5163 H   0  0  0  0  0  0  0  0  0  0  0  0
  149.8263  136.0452  159.0913 H   0  0  0  0  0  0  0  0  0  0  0  0
  150.3073  137.4130  160.0442 H   0  0  0  0  0  0  0  0  0  0  0  0
  1  2  1  0  0  0  0
  1 24  1  0  0  0  0
  1 25  1  0  0  0  0
  1 26  1  0  0  0  0
  2 23  2  0  0  0  0
  2  3  1  0  0  0  0
  3  4  2  0  0  0  0
  3 27  1  0  0  0  0
  4  5  1  0  0  0  0
  4 28  1  0  0  0  0
  5  6  2  0  0  0  0
  5  7  1  0  0  0  0
  7  8  1  0  0  0  0
  7 23  1  0  0  0  0
  8  9  1  0  0  0  0
  8 29  1  0  0  0  0
  8 30  1  0  0  0  0
  9 10  2  0  0  0  0
  9 11  1  0  0  0  0
 11 12  1  0  0  0  0
 11 31  1  0  0  0  0
 12 22  1  0  0  0  0
 12 13  1  0  0  0  0
 12 32  1  0  0  0  0
 13 14  1  0  0  0  0
 13 33  1  0  0  0  0
 13 34  1  0  0  0  0
 14 15  1  0  0  0  0
 14 35  1  0  0  0  0
 14 36  1  0  0  0  0
 15 16  1  0  0  0  0
 15 37  1  0  0  0  0
 15 38  1  0  0  0  0
 16 17  1  0  0  0  0
 16 21  1  0  0  0  0
 16 39  1  0  0  0  0
 17 18  1  0  0  0  0
 17 19  1  0  0  0  0
 17 20  1  0  0  0  0
 18 40  1  0  0  0  0
 18 41  1  0  0  0  0
 18 42  1  0  0  0  0
 19 43  1  0  0  0  0
 19 44  1  0  0  0  0
 19 45  1  0  0  0  0
 20 46  1  0  0  0  0
 20 47  1  0  0  0  0
 20 48  1  0  0  0  0
 21 22  1  0  0  0  0
 21 49  1  0  0  0  0
 21 50  1  0  0  0  0
 22 51  1  0  0  0  0
 22 52  1  0  0  0  0
M  END
> <s_m_source_file>
AV-unprocessed.smi

> <i_m_source_file_index>
2712

> <i_lp_mmshare_version>
43012

> <i_f3d_flags>
0

> <s_epik_input>
W0NIM11jMVtjSF1bY0hdYyg9TyluKG4xKVtDSDJdQyg9TylbTkhdW0NAQEhdMltDSDJdW0NIMl1bQ0gyXVtDQEBIXShDKFtDSDNdKShbQ0gzXSlbQ0gzXSlbQ0gyXVtDSDJdMg==

> <s_epik_cmdline>
J2VwaWtfcHl0aG9uJywgJy1waCcsICc3LjAnLCAnLXRuJywgJzgnLCAnLW1hJywgJzIwMCcsICctbWV0YWxfYmluZGluZycsICctaW1hZScsICc8aW5maWxlLm1hZT4nLCAnLW9tYWUnLCAnPG91dGZpbGUubWFlPic=

> <r_lp_tautomer_probability>
1

> <r_epik_Ionization_Penalty>
8.71758e-07

> <r_epik_Ionization_Penalty_Charging>
8.50442e-07

> <r_epik_Ionization_Penalty_Neutral>
2.13165e-08

> <r_epik_State_Penalty>
-0

> <r_epik_Charging_Adjusted_Penalty>
8.50442e-07

> <i_epik_Tot_Q>
0

> <i_epik_Tot_abs_Q>
0

> <r_epik_Metal_State_Penalty>
-0

> <b_epik_Metal_Only>
0

> <s_lp_Force_Field>
OPLS_2005

> <r_lp_Energy>
38.5576

> <b_lp_Chiralities_Consistent>
1

> <s_lp_Variant>
AV-unprocessed.smi:2712-4

> <Gold.Version>
5.8.1

> <Gold.Id.Protein>
6NUR|6NUR_protein|mol2

> <Gold.PLP.Fitness>
38.4991

> <Gold.PLP.PLP>
-39.7042

> <Gold.PLP.part.hbond>
-0.7978

> <Gold.PLP.part.metal>
0.0000

> <Gold.PLP.part.buried>
-5.1316

> <Gold.PLP.part.nonpolar>
-34.7093

> <Gold.PLP.part.repulsive>
0.1640

> <Gold.PLP.ligand.clash>
0.0000

> <Gold.PLP.ligand.torsion>
0.6534

> <Gold.PLP.Chemscore.Hbond>
0.0000

> <Gold.PLP.Chemscore.CHOScore>
0.0000

> <Gold.PLP.Chemscore.Metal>
0.0000

> <Gold.PLP.Chemscore.Internal.Correction>
0.1017

> <Gold.Rescore>
     Score         DG    S(hbond)    S(metal)    S(lipo)     H(rot)  DE(clash)    DE(int)     intcor
     13.78     -14.41       0.00        0.00     109.46       1.52       0.11       0.52       ----

> <Gold.Chemscore.Fitness>
13.7822

> <Gold.Chemscore.DG>
-14.4052

> <Gold.Chemscore.ZeroCoef>
-5.4800

> <Gold.Chemscore.Hbond>
0.0000

> <Gold.Chemscore.Metal>
0.0000

> <Gold.Chemscore.Lipo>
109.4581

> <Gold.Chemscore.Internal_Hbond>
0.0000

> <Gold.Chemscore.DEClash>
0.1050

> <Gold.Chemscore.DEInternal>
0.5179

> <Gold.Chemscore.Rot>
1.5162

> <Gold.Chemscore.Internal.Correction>
   9.000000E+99

> <Gold.Chemscore.Hbond.Weighted>
-0.0000

> <Gold.Chemscore.Metal.Weighted>
-0.0000

> <Gold.Chemscore.Lipo.Weighted>
-12.8066

> <Gold.Chemscore.Internal_Hbond.Weighted>
0.0000

> <Gold.Chemscore.DEClash.Weighted>
0.1050

> <Gold.Chemscore.DEInternal.Weighted>
0.5179

> <Gold.Chemscore.Rot.Weighted>
3.8814

> <Gold.Chemscore.Internal.Correction.Weighted>
   9.000000E+99

> <Gold.Protein.RotatedTorsions>
[ 6907 6896 6895 6894 ] final  173.42 input  -60.11 | X-H torsion
[ 7974 7965 7964 7962 ] final -169.15 input  175.53 | X-H torsion
[ 8008 7997 7996 7995 ] final   95.45 input   59.86 | X-H torsion
[ 10167 10162 10161 10158 ] final   68.86 input  -65.29 | X-H torsion
[ 10718 10713 10712 10709 ] final -149.41 input   66.30 | X-H torsion
[ 10763 10752 10751 10750 ] final  -64.82 input  -60.55 | X-H torsion
[ 11005 11000 10999 10996 ] final  124.85 input  -57.11 | X-H torsion

> <Gold.Protein.ActiveResidues>
 VAL166  LYS551  ARG553  GLY616  TRP617  ASP618  TYR619  PRO620  LYS621  CYS622 
 ASP623  PHE694  ASN695  SER759  ASP760  ASP761  ALA762  ILE779  LEU786  VAL792 
 PHE793  MET794  SER795  GLU796  ALA797  LYS798  CYS799  TRP800  GLU811  SER814 

> <Gold.Protein.RotatedAtoms>
  151.7686  133.3339  159.3437 H   0  0  0  0  0  0  0  0  0  0  0  0  # atno 6907 bound_to 6896
  150.7470  134.6040  159.6061 H   0  0  0  0  0  0  0  0  0  0  0  0  # atno 6908 bound_to 6896
  152.3357  134.7203  160.0329 H   0  0  0  0  0  0  0  0  0  0  0  0  # atno 6909 bound_to 6896
  144.7190  140.2264  143.6309 H   0  0  0  0  0  0  0  0  0  0  0  0  # atno 7974 bound_to 7965
  156.0690  140.3286  155.7553 H   0  0  0  0  0  0  0  0  0  0  0  0  # atno 8008 bound_to 7997
  155.5335  140.0595  157.2901 H   0  0  0  0  0  0  0  0  0  0  0  0  # atno 8009 bound_to 7997
  154.4520  140.1923  156.0508 H   0  0  0  0  0  0  0  0  0  0  0  0  # atno 8010 bound_to 7997
  140.0741  144.5127  150.7207 H   0  0  0  0  0  0  0  0  0  0  0  0  # atno 10167 bound_to 10162
  156.4328  130.8084  151.2311 H   0  0  0  0  0  0  0  0  0  0  0  0  # atno 10718 bound_to 10713
  154.3358  135.6167  153.5573 H   0  0  0  0  0  0  0  0  0  0  0  0  # atno 10763 bound_to 10752
  152.9808  135.5757  154.4909 H   0  0  0  0  0  0  0  0  0  0  0  0  # atno 10764 bound_to 10752
  154.4604  135.2855  155.1694 H   0  0  0  0  0  0  0  0  0  0  0  0  # atno 10765 bound_to 10752
  139.9378  134.9638  156.8470 H   0  0  0  0  0  0  0  0  0  0  0  0  # atno 11005 bound_to 11000
  145.8452  139.2149  143.1804 LP  0  0  0  0  0  0  0  0  0  0  0  0  # atno 17320 bound_to 7965
  146.0310  140.8257  142.9876 LP  0  0  0  0  0  0  0  0  0  0  0  0  # atno 17321 bound_to 7965
  140.7111  143.2505  151.4579 LP  0  0  0  0  0  0  0  0  0  0  0  0  # atno 17342 bound_to 10162
  139.5818  144.1692  152.1978 LP  0  0  0  0  0  0  0  0  0  0  0  0  # atno 17343 bound_to 10162
  157.7508  131.0193  150.3660 LP  0  0  0  0  0  0  0  0  0  0  0  0  # atno 17370 bound_to 10713
  156.4001  130.3914  149.6966 LP  0  0  0  0  0  0  0  0  0  0  0  0  # atno 17371 bound_to 10713
  140.6030  134.0154  155.7545 LP  0  0  0  0  0  0  0  0  0  0  0  0  # atno 17394 bound_to 11000
  141.1000  133.9784  157.3096 LP  0  0  0  0  0  0  0  0  0  0  0  0  # atno 17395 bound_to 11000

$$$$
