AV-unprocessed.smi:21|AV-procd|sdf|149|dock9
  -GOLD-   2262015363D 1   1.00000     0.00000
 Structure written by MMmdl.
 62 65  0  0  0  0  0  0  0  0  2 V2000
  144.5675  135.4728  150.4037 C   0  0  0  0  0  0  0  0  0  0  0  0
  144.5519  134.0798  150.1359 O   0  0  0  0  0  0  0  0  0  0  0  0
  145.7631  133.4220  150.4771 C   0  0  1  0  0  0  0  0  0  0  0  0
  146.1815  133.6406  151.9274 C   0  0  0  0  0  0  0  0  0  0  0  0
  147.1025  132.4473  152.2124 C   0  0  1  0  0  0  0  0  0  0  0  0
  147.2687  132.1172  153.7168 C   0  0  0  0  0  0  0  0  0  0  0  0
  148.3477  132.8856  154.3459 N   0  0  0  0  0  0  0  0  0  0  0  0
  149.7100  132.3896  154.1892 C   0  0  0  0  0  0  0  0  0  0  0  0
  148.1236  134.1268  154.8729 C   0  0  0  0  0  0  0  0  0  0  0  0
  146.8385  134.5073  155.1074 N   0  0  0  0  0  0  0  0  0  0  0  0
  146.5538  135.7078  155.6174 C   0  0  0  0  0  0  0  0  0  0  0  0
  147.3919  136.6814  155.9680 N   0  0  0  0  0  0  0  0  0  0  0  0
  148.6861  136.3181  155.7456 C   0  0  0  0  0  0  0  0  0  0  0  0
  149.1405  135.0777  155.2065 C   0  0  0  0  0  0  0  0  0  0  0  0
  150.5306  135.0987  155.1285 N   0  0  0  0  0  0  0  0  0  0  0  0
  150.8724  136.2690  155.5913 C   0  0  0  0  0  0  0  0  0  0  0  0
  149.8249  137.0636  155.9917 N   0  0  0  0  0  0  0  0  0  0  0  0
  149.9068  138.4061  156.5403 C   0  0  0  0  0  0  0  0  0  0  0  0
  150.4645  139.4391  155.5271 C   0  0  1  0  0  0  0  0  0  0  0  0
  149.4003  139.8237  154.4728 C   0  0  0  0  0  0  0  0  0  0  0  0
  149.9270  140.7147  153.5115 O   0  0  0  0  0  0  0  0  0  0  0  0
  151.0869  140.6922  156.2032 C   0  0  1  0  0  0  0  0  0  0  0  0
  150.1241  141.6724  156.8535 C   0  0  0  0  0  0  0  0  0  0  0  0
  151.0678  142.4646  157.7477 C   0  0  0  0  0  0  0  0  0  0  0  0
  151.9578  141.4844  158.2639 O   0  0  0  0  0  0  0  0  0  0  0  0
  152.0976  140.4176  157.3271 C   0  0  0  0  0  0  0  0  0  0  0  0
  146.5951  131.3380  151.3516 N   0  3  1  0  0  0  0  0  0  0  0  0
  146.1323  130.1018  152.0259 C   0  0  0  0  0  0  0  0  0  0  0  0
  145.5833  131.9058  150.4294 C   0  0  0  0  0  0  0  0  0  0  0  0
  146.5698  133.7113  149.8008 H   0  0  0  0  0  0  0  0  0  0  0  0
  148.0862  132.6881  151.8068 H   0  0  0  0  0  0  0  0  0  0  0  0
  143.6253  135.9162  150.0815 H   0  0  0  0  0  0  0  0  0  0  0  0
  145.3734  135.9701  149.8625 H   0  0  0  0  0  0  0  0  0  0  0  0
  144.6830  135.6752  151.4688 H   0  0  0  0  0  0  0  0  0  0  0  0
  146.6733  134.5999  152.0910 H   0  0  0  0  0  0  0  0  0  0  0  0
  145.3006  133.5980  152.5691 H   0  0  0  0  0  0  0  0  0  0  0  0
  146.3243  132.2330  154.2479 H   0  0  0  0  0  0  0  0  0  0  0  0
  147.5307  131.0649  153.8280 H   0  0  0  0  0  0  0  0  0  0  0  0
  150.2766  133.0252  153.5081 H   0  0  0  0  0  0  0  0  0  0  0  0
  149.7152  131.3794  153.7790 H   0  0  0  0  0  0  0  0  0  0  0  0
  150.2215  132.3532  155.1514 H   0  0  0  0  0  0  0  0  0  0  0  0
  145.5048  135.9173  155.7669 H   0  0  0  0  0  0  0  0  0  0  0  0
  151.9038  136.5838  155.6575 H   0  0  0  0  0  0  0  0  0  0  0  0
  148.9098  138.6956  156.8725 H   0  0  0  0  0  0  0  0  0  0  0  0
  150.5249  138.3527  157.4352 H   0  0  0  0  0  0  0  0  0  0  0  0
  151.2769  138.9489  154.9882 H   0  0  0  0  0  0  0  0  0  0  0  0
  149.0478  138.9459  153.9322 H   0  0  0  0  0  0  0  0  0  0  0  0
  148.5290  140.2760  154.9468 H   0  0  0  0  0  0  0  0  0  0  0  0
  149.6307  140.4442  152.6557 H   0  0  0  0  0  0  0  0  0  0  0  0
  151.6369  141.2515  155.4449 H   0  0  0  0  0  0  0  0  0  0  0  0
  149.5981  142.2991  156.1328 H   0  0  0  0  0  0  0  0  0  0  0  0
  149.3853  141.1652  157.4728 H   0  0  0  0  0  0  0  0  0  0  0  0
  151.6336  143.1915  157.1629 H   0  0  0  0  0  0  0  0  0  0  0  0
  150.5489  142.9959  158.5458 H   0  0  0  0  0  0  0  0  0  0  0  0
  151.9118  139.4785  157.8457 H   0  0  0  0  0  0  0  0  0  0  0  0
  153.1164  140.3795  156.9402 H   0  0  0  0  0  0  0  0  0  0  0  0
  145.3035  130.3043  152.7054 H   0  0  0  0  0  0  0  0  0  0  0  0
  146.9400  129.6294  152.5849 H   0  0  0  0  0  0  0  0  0  0  0  0
  145.7887  129.3790  151.2850 H   0  0  0  0  0  0  0  0  0  0  0  0
  144.5825  131.6523  150.7844 H   0  0  0  0  0  0  0  0  0  0  0  0
  145.6878  131.5043  149.4214 H   0  0  0  0  0  0  0  0  0  0  0  0
  147.3805  131.0649  150.7780 H   0  0  0  0  0  0  0  0  0  0  0  0
  1  2  1  0  0  0  0
  1 32  1  0  0  0  0
  1 33  1  0  0  0  0
  1 34  1  0  0  0  0
  2  3  1  0  0  0  0
  3 30  1  0  0  0  0
  3 29  1  0  0  0  0
  3  4  1  0  0  0  0
  4  5  1  0  0  0  0
  4 35  1  0  0  0  0
  4 36  1  0  0  0  0
  5 31  1  0  0  0  0
  5  6  1  0  0  0  0
  5 27  1  0  0  0  0
  6  7  1  0  0  0  0
  6 37  1  0  0  0  0
  6 38  1  0  0  0  0
  7  8  1  0  0  0  0
  7  9  1  0  0  0  0
  8 39  1  0  0  0  0
  8 40  1  0  0  0  0
  8 41  1  0  0  0  0
  9 14  1  0  0  0  0
  9 10  2  0  0  0  0
 10 11  1  0  0  0  0
 11 12  2  0  0  0  0
 11 42  1  0  0  0  0
 12 13  1  0  0  0  0
 13 17  1  0  0  0  0
 13 14  2  0  0  0  0
 14 15  1  0  0  0  0
 15 16  2  0  0  0  0
 16 17  1  0  0  0  0
 16 43  1  0  0  0  0
 17 18  1  0  0  0  0
 18 19  1  0  0  0  0
 18 44  1  0  0  0  0
 18 45  1  0  0  0  0
 19 20  1  0  0  0  0
 19 22  1  0  0  0  0
 19 46  1  0  0  0  0
 20 21  1  0  0  0  0
 20 47  1  0  0  0  0
 20 48  1  0  0  0  0
 21 49  1  0  0  0  0
 22 26  1  0  0  0  0
 22 23  1  0  0  0  0
 22 50  1  0  0  0  0
 23 24  1  0  0  0  0
 23 51  1  0  0  0  0
 23 52  1  0  0  0  0
 24 25  1  0  0  0  0
 24 53  1  0  0  0  0
 24 54  1  0  0  0  0
 25 26  1  0  0  0  0
 26 55  1  0  0  0  0
 26 56  1  0  0  0  0
 27 28  1  0  0  0  0
 27 29  1  0  0  0  0
 27 62  1  0  0  0  0
 28 57  1  0  0  0  0
 28 58  1  0  0  0  0
 28 59  1  0  0  0  0
 29 60  1  0  0  0  0
 29 61  1  0  0  0  0
M  CHG  1  27   1
M  END
> <s_m_source_file>
AV-unprocessed.smi

> <i_m_source_file_index>
21

> <i_lp_mmshare_version>
43012

> <i_f3d_flags>
0

> <s_epik_input>
W0NIM11PW0NASF0xW0NIMl1bQ0BIXShOKFtDSDNdKVtDSDJdMSlbQ0gyXU4oW0NIM10pYyhuW2NIXW4yKWMoYzIzKW5bY0hdbjNbQ0gyXVtDQEhdKFtDSDJdW09IXSlbQ0BASF00W0NIMl1bQ0gyXU9bQ0gyXTQ=

> <s_epik_cmdline>
J2VwaWtfcHl0aG9uJywgJy1waCcsICc3LjAnLCAnLXRuJywgJzgnLCAnLW1hJywgJzIwMCcsICctbWV0YWxfYmluZGluZycsICctaW1hZScsICc8aW5maWxlLm1hZT4nLCAnLW9tYWUnLCAnPG91dGZpbGUubWFlPic=

> <r_lp_tautomer_probability>
1

> <r_epik_Ionization_Penalty>
0.0157465

> <r_epik_Ionization_Penalty_Charging>
0.015354

> <r_epik_Ionization_Penalty_Neutral>
0.000392529

> <r_epik_State_Penalty>
0.0120612

> <r_epik_Charging_Adjusted_Penalty>
0.0274152

> <i_epik_Tot_Q>
1

> <i_epik_Tot_abs_Q>
1

> <r_epik_Metal_State_Penalty>
0.0121253

> <b_epik_Metal_Only>
0

> <s_lp_Force_Field>
OPLS_2005

> <r_lp_Energy>
61.5082

> <b_lp_Chiralities_Consistent>
1

> <s_lp_Variant>
AV-unprocessed.smi:21-29

> <Gold.Version>
5.8.1

> <Gold.Id.Protein>
6NUR|6NUR_protein|mol2

> <Gold.PLP.Fitness>
47.4976

> <Gold.PLP.PLP>
-42.2309

> <Gold.PLP.part.hbond>
-3.6302

> <Gold.PLP.part.metal>
0.0000

> <Gold.PLP.part.buried>
-6.7974

> <Gold.PLP.part.nonpolar>
-32.3183

> <Gold.PLP.part.repulsive>
0.4114

> <Gold.PLP.ligand.clash>
0.0000

> <Gold.PLP.ligand.torsion>
1.0786

> <Gold.PLP.Chemscore.Hbond>
2.3520

> <Gold.PLP.Chemscore.CHOScore>
0.0000

> <Gold.PLP.Chemscore.Metal>
0.0000

> <Gold.Chemscore.Hbonds>
donor molecule, donor type, donor heavy atom, donor atom, acceptor molecule, acceptor atom, score
      L1  H    21    49       P1  7957  1.00
      L1  H    27    62       P1 10747  1.00
      P1  H  7989  7998       L1    21  0.40

> <Gold.PLP.Chemscore.Internal.Correction>
0.3679

> <Gold.Rescore>
     Score         DG    S(hbond)    S(metal)    S(lipo)     H(rot)  DE(clash)    DE(int)     intcor
     14.88     -17.11       2.58        0.00      92.90       3.08       0.01       2.22       ----

> <Gold.Chemscore.Fitness>
14.8784

> <Gold.Chemscore.DG>
-17.1070

> <Gold.Chemscore.ZeroCoef>
-5.4800

> <Gold.Chemscore.Hbond>
2.5842

> <Gold.Chemscore.Metal>
0.0000

> <Gold.Chemscore.Lipo>
92.9040

> <Gold.Chemscore.Internal_Hbond>
0.0000

> <Gold.Chemscore.DEClash>
0.0102

> <Gold.Chemscore.DEInternal>
2.2184

> <Gold.Chemscore.Rot>
3.0758

> <Gold.Chemscore.Internal.Correction>
   9.000000E+99

> <Gold.Chemscore.Hbonds>
donor molecule, donor type, donor heavy atom, donor atom, acceptor molecule, acceptor atom, score
      L1  H    21    49       P1  7957  0.94
      L1  H    27    62       P1 10747  1.00
      P1  H  7989  7998       L1    21  0.25

> <Gold.Chemscore.Hbond.Weighted>
-8.6314

> <Gold.Chemscore.Metal.Weighted>
-0.0000

> <Gold.Chemscore.Lipo.Weighted>
-10.8698

> <Gold.Chemscore.Internal_Hbond.Weighted>
0.0000

> <Gold.Chemscore.DEClash.Weighted>
0.0102

> <Gold.Chemscore.DEInternal.Weighted>
2.2184

> <Gold.Chemscore.Rot.Weighted>
7.8741

> <Gold.Chemscore.Internal.Correction.Weighted>
   9.000000E+99

> <Gold.Protein.RotatedTorsions>
[ 6907 6896 6895 6894 ] final   58.83 input  -60.11 | X-H torsion
[ 7974 7965 7964 7962 ] final    4.12 input  175.53 | X-H torsion
[ 8008 7997 7996 7995 ] final  132.23 input   59.86 | X-H torsion
[ 10167 10162 10161 10158 ] final -164.62 input  -65.29 | X-H torsion
[ 10718 10713 10712 10709 ] final   92.42 input   66.30 | X-H torsion
[ 10763 10752 10751 10750 ] final   30.30 input  -60.55 | X-H torsion
[ 11005 11000 10999 10996 ] final  128.41 input  -57.11 | X-H torsion

> <Gold.Protein.ActiveResidues>
 VAL166  LYS551  ARG553  GLY616  TRP617  ASP618  TYR619  PRO620  LYS621  CYS622 
 ASP623  PHE694  ASN695  SER759  ASP760  ASP761  ALA762  ILE779  LEU786  VAL792 
 PHE793  MET794  SER795  GLU796  ALA797  LYS798  CYS799  TRP800  GLU811  SER814 

> <Gold.Protein.RotatedAtoms>
  152.3860  134.6517  160.0125 H   0  0  0  0  0  0  0  0  0  0  0  0  # atno 6907 bound_to 6896
  151.6765  133.3307  159.3217 H   0  0  0  0  0  0  0  0  0  0  0  0  # atno 6908 bound_to 6896
  150.7786  134.6754  159.6459 H   0  0  0  0  0  0  0  0  0  0  0  0  # atno 6909 bound_to 6896
  146.2444  140.0582  142.8370 H   0  0  0  0  0  0  0  0  0  0  0  0  # atno 7974 bound_to 7965
  156.2980  140.2551  156.3055 H   0  0  0  0  0  0  0  0  0  0  0  0  # atno 8008 bound_to 7997
  154.9377  140.0397  157.2099 H   0  0  0  0  0  0  0  0  0  0  0  0  # atno 8009 bound_to 7997
  154.8157  140.2852  155.5826 H   0  0  0  0  0  0  0  0  0  0  0  0  # atno 8010 bound_to 7997
  139.6238  144.0572  152.1956 H   0  0  0  0  0  0  0  0  0  0  0  0  # atno 10167 bound_to 10162
  157.6958  131.0442  150.3879 H   0  0  0  0  0  0  0  0  0  0  0  0  # atno 10718 bound_to 10713
  153.0380  135.6467  154.1023 H   0  0  0  0  0  0  0  0  0  0  0  0  # atno 10763 bound_to 10752
  154.0735  135.2879  155.3305 H   0  0  0  0  0  0  0  0  0  0  0  0  # atno 10764 bound_to 10752
  154.6578  135.5402  153.8045 H   0  0  0  0  0  0  0  0  0  0  0  0  # atno 10765 bound_to 10752
  139.9559  134.9613  156.8998 H   0  0  0  0  0  0  0  0  0  0  0  0  # atno 11005 bound_to 11000
  145.0923  140.9292  143.4761 LP  0  0  0  0  0  0  0  0  0  0  0  0  # atno 17320 bound_to 7965
  145.0758  139.2997  143.5809 LP  0  0  0  0  0  0  0  0  0  0  0  0  # atno 17321 bound_to 7965
  140.0221  144.6145  150.7558 LP  0  0  0  0  0  0  0  0  0  0  0  0  # atno 17342 bound_to 10162
  140.7398  143.2796  151.3637 LP  0  0  0  0  0  0  0  0  0  0  0  0  # atno 17343 bound_to 10162
  156.4286  130.3967  149.6776 LP  0  0  0  0  0  0  0  0  0  0  0  0  # atno 17370 bound_to 10713
  156.4001  130.7670  151.2678 LP  0  0  0  0  0  0  0  0  0  0  0  0  # atno 17371 bound_to 10713
  140.5610  134.0535  155.7399 LP  0  0  0  0  0  0  0  0  0  0  0  0  # atno 17394 bound_to 11000
  141.1231  133.9429  157.2691 LP  0  0  0  0  0  0  0  0  0  0  0  0  # atno 17395 bound_to 11000

$$$$
