AV-unprocessed.smi:199|AV-procd|sdf|1564|dock8
  -GOLD-   2262019443D 1   1.00000     0.00000
 Structure written by MMmdl.
 51 55  0  0  0  0  0  0  0  0  1 V2000
  156.8215  139.8758  159.0596 C   0  0  0  0  0  0  0  0  0  0  0  0
  157.6253  140.1126  160.3478 C   0  0  2  0  0  0  0  0  0  0  0  0
  158.8908  139.4756  160.1921 O   0  0  0  0  0  0  0  0  0  0  0  0
  159.3529  139.0594  161.4649 C   0  0  0  0  0  0  0  0  0  0  0  0
  158.0819  138.5392  162.1183 C   0  0  0  0  0  0  0  0  0  0  0  0
  157.0253  139.5434  161.6652 C   0  0  1  0  0  0  0  0  0  0  0  0
  156.9960  140.5986  162.6126 O   0  0  0  0  0  0  0  0  0  0  0  0
  155.5973  138.9430  161.5724 C   0  0  0  0  0  0  0  0  0  0  0  0
  154.5949  139.8999  161.1271 N   0  0  0  0  0  0  0  0  0  0  0  0
  153.8821  139.8569  159.9513 C   0  0  0  0  0  0  0  0  0  0  0  0
  153.0415  140.8384  159.7752 N   0  0  0  0  0  0  0  0  0  0  0  0
  153.1695  141.6145  160.9216 C   0  0  0  0  0  0  0  0  0  0  0  0
  152.5623  142.8177  161.3874 C   0  0  0  0  0  0  0  0  0  0  0  0
  151.6177  143.5144  160.6968 N   0  0  0  0  0  0  0  0  0  0  0  0
  151.9330  144.7984  160.0873 C   0  0  2  0  0  0  0  0  0  0  0  0
  150.5497  145.2911  159.6284 C   0  0  0  0  0  0  0  0  0  0  0  0
  149.8751  143.9689  159.2341 C   0  0  0  0  0  0  0  0  0  0  0  0
  151.0107  142.9607  159.4930 C   0  0  1  0  0  0  0  0  0  0  0  0
  152.1370  143.0881  158.4339 C   0  0  1  0  0  0  0  0  0  0  0  0
  151.7030  142.9837  156.9601 C   0  0  0  0  0  0  0  0  0  0  0  0
  150.7379  141.9641  156.8129 O   0  0  0  0  0  0  0  0  0  0  0  0
  152.7686  144.4322  158.8436 C   0  0  0  0  0  0  0  0  0  0  0  0
  152.9880  143.3033  162.5845 N   0  0  0  0  0  0  0  0  0  0  0  0
  153.9118  142.6502  163.2941 C   0  0  0  0  0  0  0  0  0  0  0  0
  154.5461  141.5170  162.9930 N   0  0  0  0  0  0  0  0  0  0  0  0
  154.1464  141.0342  161.7823 C   0  0  0  0  0  0  0  0  0  0  0  0
  155.8403  140.3478  159.1085 H   0  0  0  0  0  0  0  0  0  0  0  0
  156.6811  138.8126  158.8641 H   0  0  0  0  0  0  0  0  0  0  0  0
  157.3425  140.2980  158.2001 H   0  0  0  0  0  0  0  0  0  0  0  0
  157.8076  141.1846  160.4456 H   0  0  0  0  0  0  0  0  0  0  0  0
  160.1287  138.2981  161.3825 H   0  0  0  0  0  0  0  0  0  0  0  0
  159.7583  139.9127  162.0108 H   0  0  0  0  0  0  0  0  0  0  0  0
  157.8616  137.5527  161.7090 H   0  0  0  0  0  0  0  0  0  0  0  0
  158.1629  138.4393  163.2018 H   0  0  0  0  0  0  0  0  0  0  0  0
  157.0433  141.4201  162.1479 H   0  0  0  0  0  0  0  0  0  0  0  0
  155.5848  138.0959  160.8853 H   0  0  0  0  0  0  0  0  0  0  0  0
  155.2799  138.5588  162.5419 H   0  0  0  0  0  0  0  0  0  0  0  0
  154.0115  139.0734  159.2189 H   0  0  0  0  0  0  0  0  0  0  0  0
  152.4227  145.5247  160.7330 H   0  0  0  0  0  0  0  0  0  0  0  0
  150.0108  145.7659  160.4494 H   0  0  0  0  0  0  0  0  0  0  0  0
  150.6073  146.0023  158.8037 H   0  0  0  0  0  0  0  0  0  0  0  0
  149.0312  143.7663  159.8950 H   0  0  0  0  0  0  0  0  0  0  0  0
  149.4975  143.9625  158.2127 H   0  0  0  0  0  0  0  0  0  0  0  0
  150.6381  141.9416  159.6022 H   0  0  0  0  0  0  0  0  0  0  0  0
  152.8617  142.2936  158.6207 H   0  0  0  0  0  0  0  0  0  0  0  0
  151.2663  143.9254  156.6270 H   0  0  0  0  0  0  0  0  0  0  0  0
  152.5453  142.7613  156.3052 H   0  0  0  0  0  0  0  0  0  0  0  0
  150.6277  141.7846  155.8917 H   0  0  0  0  0  0  0  0  0  0  0  0
  152.7113  145.1943  158.0655 H   0  0  0  0  0  0  0  0  0  0  0  0
  153.8195  144.2969  159.1026 H   0  0  0  0  0  0  0  0  0  0  0  0
  154.1816  143.1015  164.2375 H   0  0  0  0  0  0  0  0  0  0  0  0
  1  2  1  0  0  0  0
  1 27  1  0  0  0  0
  1 28  1  0  0  0  0
  1 29  1  0  0  0  0
  2  6  1  0  0  0  0
  2  3  1  0  0  0  0
  2 30  1  0  0  0  0
  3  4  1  0  0  0  0
  4  5  1  0  0  0  0
  4 31  1  0  0  0  0
  4 32  1  0  0  0  0
  5  6  1  0  0  0  0
  5 33  1  0  0  0  0
  5 34  1  0  0  0  0
  6  7  1  0  0  0  0
  6  8  1  0  0  0  0
  7 35  1  0  0  0  0
  8  9  1  0  0  0  0
  8 36  1  0  0  0  0
  8 37  1  0  0  0  0
  9 26  1  0  0  0  0
  9 10  1  0  0  0  0
 10 11  2  0  0  0  0
 10 38  1  0  0  0  0
 11 12  1  0  0  0  0
 12 26  2  0  0  0  0
 12 13  1  0  0  0  0
 13 14  1  0  0  0  0
 13 23  2  0  0  0  0
 14 18  1  0  0  0  0
 14 15  1  0  0  0  0
 15 22  1  0  0  0  0
 15 16  1  0  0  0  0
 15 39  1  0  0  0  0
 16 17  1  0  0  0  0
 16 40  1  0  0  0  0
 16 41  1  0  0  0  0
 17 18  1  0  0  0  0
 17 42  1  0  0  0  0
 17 43  1  0  0  0  0
 18 19  1  0  0  0  0
 18 44  1  0  0  0  0
 19 20  1  0  0  0  0
 19 22  1  0  0  0  0
 19 45  1  0  0  0  0
 20 21  1  0  0  0  0
 20 46  1  0  0  0  0
 20 47  1  0  0  0  0
 21 48  1  0  0  0  0
 22 49  1  0  0  0  0
 22 50  1  0  0  0  0
 23 24  1  0  0  0  0
 24 25  2  0  0  0  0
 24 51  1  0  0  0  0
 25 26  1  0  0  0  0
M  END
> <s_m_source_file>
AV-unprocessed.smi

> <i_m_source_file_index>
199

> <i_lp_mmshare_version>
43012

> <i_f3d_flags>
0

> <s_epik_input>
W0NIMl0xW0NIMl1PW0NAQEhdKFtDSDNdKVtDQEBdMShbT0hdKVtDSDJdbihbY0hdbjIpYyhjMjMpbltjSF1uYzNOKFtDQEBIXTQ1KVtDQEhdKFtDSDJdW0NIMl00KVtDQEhdKFtDSDJdNSlbQ0gyXVtPSF0=

> <s_epik_cmdline>
J2VwaWtfcHl0aG9uJywgJy1waCcsICc3LjAnLCAnLXRuJywgJzgnLCAnLW1hJywgJzIwMCcsICctbWV0YWxfYmluZGluZycsICctaW1hZScsICc8aW5maWxlLm1hZT4nLCAnLW9tYWUnLCAnPG91dGZpbGUubWFlPic=

> <r_lp_tautomer_probability>
1

> <r_epik_Ionization_Penalty>
0.00583903

> <r_epik_Ionization_Penalty_Charging>
0

> <r_epik_Ionization_Penalty_Neutral>
0.00583903

> <r_epik_State_Penalty>
-0

> <r_epik_Charging_Adjusted_Penalty>
0

> <i_epik_Tot_Q>
0

> <i_epik_Tot_abs_Q>
0

> <r_epik_Metal_State_Penalty>
-0

> <b_epik_Metal_Only>
0

> <s_lp_Force_Field>
OPLS_2005

> <r_lp_Energy>
84.0593

> <b_lp_Chiralities_Consistent>
1

> <s_lp_Variant>
AV-unprocessed.smi:199-5

> <Gold.Version>
5.8.1

> <Gold.Id.Protein>
6NUR|6NUR_protein|mol2

> <Gold.PLP.Fitness>
41.3978

> <Gold.PLP.PLP>
-42.1702

> <Gold.PLP.part.hbond>
-1.5869

> <Gold.PLP.part.metal>
0.0000

> <Gold.PLP.part.buried>
-5.5421

> <Gold.PLP.part.nonpolar>
-35.3926

> <Gold.PLP.part.repulsive>
0.3714

> <Gold.PLP.ligand.clash>
0.0031

> <Gold.PLP.ligand.torsion>
0.3910

> <Gold.PLP.Chemscore.Hbond>
0.0000

> <Gold.PLP.Chemscore.CHOScore>
0.0000

> <Gold.PLP.Chemscore.Metal>
0.0000

> <Gold.PLP.Chemscore.Internal.Correction>
0.0126

> <Gold.Rescore>
     Score         DG    S(hbond)    S(metal)    S(lipo)     H(rot)  DE(clash)    DE(int)     intcor
     -0.41      -9.66       0.00        0.00     102.93       3.07       3.30       6.76       ----

> <Gold.Chemscore.Fitness>
-0.4073

> <Gold.Chemscore.DG>
-9.6559

> <Gold.Chemscore.ZeroCoef>
-5.4800

> <Gold.Chemscore.Hbond>
0.0000

> <Gold.Chemscore.Metal>
0.0000

> <Gold.Chemscore.Lipo>
102.9280

> <Gold.Chemscore.Internal_Hbond>
0.0000

> <Gold.Chemscore.DEClash>
3.3009

> <Gold.Chemscore.DEInternal>
6.7622

> <Gold.Chemscore.Rot>
3.0729

> <Gold.Chemscore.Internal.Correction>
   9.000000E+99

> <Gold.Chemscore.Hbond.Weighted>
-0.0000

> <Gold.Chemscore.Metal.Weighted>
-0.0000

> <Gold.Chemscore.Lipo.Weighted>
-12.0426

> <Gold.Chemscore.Internal_Hbond.Weighted>
0.0000

> <Gold.Chemscore.DEClash.Weighted>
3.3009

> <Gold.Chemscore.DEInternal.Weighted>
6.7622

> <Gold.Chemscore.Rot.Weighted>
7.8667

> <Gold.Chemscore.Internal.Correction.Weighted>
   9.000000E+99

> <Gold.Protein.RotatedTorsions>
[ 6907 6896 6895 6894 ] final  -50.40 input  -60.11 | X-H torsion
[ 7974 7965 7964 7962 ] final  -67.23 input  175.53 | X-H torsion
[ 8008 7997 7996 7995 ] final  -78.68 input   59.86 | X-H torsion
[ 10167 10162 10161 10158 ] final   34.67 input  -65.29 | X-H torsion
[ 10718 10713 10712 10709 ] final  102.52 input   66.30 | X-H torsion
[ 10763 10752 10751 10750 ] final -168.35 input  -60.55 | X-H torsion
[ 11005 11000 10999 10996 ] final  -35.82 input  -57.11 | X-H torsion

> <Gold.Protein.ActiveResidues>
 VAL166  LYS551  ARG553  GLY616  TRP617  ASP618  TYR619  PRO620  LYS621  CYS622 
 ASP623  PHE694  ASN695  SER759  ASP760  ASP761  ALA762  ILE779  LEU786  VAL792 
 PHE793  MET794  SER795  GLU796  ALA797  LYS798  CYS799  TRP800  GLU811  SER814 

> <Gold.Protein.RotatedAtoms>
  150.8711  134.8084  159.7154 H   0  0  0  0  0  0  0  0  0  0  0  0  # atno 6907 bound_to 6896
  152.4715  134.4946  159.9715 H   0  0  0  0  0  0  0  0  0  0  0  0  # atno 6908 bound_to 6896
  151.5034  133.3461  159.2908 H   0  0  0  0  0  0  0  0  0  0  0  0  # atno 6909 bound_to 6896
  145.7318  140.8993  143.0576 H   0  0  0  0  0  0  0  0  0  0  0  0  # atno 7974 bound_to 7965
  154.5712  140.0690  156.8967 H   0  0  0  0  0  0  0  0  0  0  0  0  # atno 8008 bound_to 7997
  155.2631  140.3360  155.4253 H   0  0  0  0  0  0  0  0  0  0  0  0  # atno 8009 bound_to 7997
  156.2119  140.1763  156.7660 H   0  0  0  0  0  0  0  0  0  0  0  0  # atno 8010 bound_to 7997
  140.4293  144.1347  150.6157 H   0  0  0  0  0  0  0  0  0  0  0  0  # atno 10167 bound_to 10162
  157.6800  131.0755  150.5416 H   0  0  0  0  0  0  0  0  0  0  0  0  # atno 10718 bound_to 10713
  154.6638  135.2929  154.9832 H   0  0  0  0  0  0  0  0  0  0  0  0  # atno 10763 bound_to 10752
  154.0883  135.6594  153.4852 H   0  0  0  0  0  0  0  0  0  0  0  0  # atno 10764 bound_to 10752
  153.0445  135.5214  154.7601 H   0  0  0  0  0  0  0  0  0  0  0  0  # atno 10765 bound_to 10752
  140.9826  133.7048  156.1711 H   0  0  0  0  0  0  0  0  0  0  0  0  # atno 11005 bound_to 11000
  144.6891  139.9341  143.7473 LP  0  0  0  0  0  0  0  0  0  0  0  0  # atno 17320 bound_to 7965
  146.0531  139.3530  143.0627 LP  0  0  0  0  0  0  0  0  0  0  0  0  # atno 17321 bound_to 7965
  140.4445  143.2512  151.9429 LP  0  0  0  0  0  0  0  0  0  0  0  0  # atno 17342 bound_to 10162
  139.4784  144.5622  151.8221 LP  0  0  0  0  0  0  0  0  0  0  0  0  # atno 17343 bound_to 10162
  156.5723  130.4283  149.6014 LP  0  0  0  0  0  0  0  0  0  0  0  0  # atno 17370 bound_to 10713
  156.2730  130.7028  151.1830 LP  0  0  0  0  0  0  0  0  0  0  0  0  # atno 17371 bound_to 10713
  140.7162  134.4407  157.5578 LP  0  0  0  0  0  0  0  0  0  0  0  0  # atno 17394 bound_to 11000
  139.8957  134.8677  156.2121 LP  0  0  0  0  0  0  0  0  0  0  0  0  # atno 17395 bound_to 11000

$$$$
