AV-unprocessed.smi:415|AV-procd|sdf|2518|dock5
  -GOLD-   2262022473D 1   1.00000     0.00000
 Structure written by MMmdl.
 53 54  0  0  0  0  0  0  0  0  1 V2000
  147.2091  136.5189  162.2721 C   0  0  0  0  0  0  0  0  0  0  0  0
  147.7823  137.0950  161.1120 O   0  0  0  0  0  0  0  0  0  0  0  0
  147.6739  136.2543  159.9755 C   0  0  0  0  0  0  0  0  0  0  0  0
  147.9260  137.0663  158.6947 C   0  0  0  0  0  0  0  0  0  0  0  0
  149.2387  136.8329  158.1221 N   0  0  0  0  0  0  0  0  0  0  0  0
  149.4403  136.0624  156.9804 C   0  0  0  0  0  0  0  0  0  0  0  0
  148.3534  135.5032  156.3326 N   0  0  0  0  0  0  0  0  0  0  0  0
  150.6781  135.8547  156.4794 C   0  0  0  0  0  0  0  0  0  0  0  0
  151.8650  136.4244  157.1014 C   0  0  0  0  0  0  0  0  0  0  0  0
  153.0036  136.2189  156.6804 O   0  0  0  0  0  0  0  0  0  0  0  0
  151.6349  137.2287  158.2411 N   0  0  0  0  0  0  0  0  0  0  0  0
  152.8001  137.8273  158.9347 C   0  0  0  0  0  0  0  0  0  0  0  0
  152.8710  139.3639  158.8676 C   0  0  0  0  0  0  0  0  0  0  0  0
  153.9071  139.8967  158.4726 O   0  0  0  0  0  0  0  0  0  0  0  0
  151.7819  140.0609  159.2359 N   0  0  0  0  0  0  0  0  0  0  0  0
  151.6223  141.5121  159.1996 C   0  0  2  0  0  0  0  0  0  0  0  0
  151.3717  141.9396  157.7408 C   0  0  0  0  0  0  0  0  0  0  0  0
  151.2907  143.4654  157.5959 C   0  0  0  0  0  0  0  0  0  0  0  0
  152.5474  144.1433  158.1642 C   0  0  0  0  0  0  0  0  0  0  0  0
  152.8069  143.7527  159.6336 C   0  0  1  0  0  0  0  0  0  0  0  0
  151.8007  144.4286  160.5872 C   0  0  0  0  0  0  0  0  0  0  0  0
  152.8820  142.2093  159.7789 C   0  0  1  0  0  0  0  0  0  0  0  0
  153.2095  141.7700  161.2202 C   0  0  0  0  0  0  0  0  0  0  0  0
  150.3409  137.4523  158.7659 C   0  0  0  0  0  0  0  0  0  0  0  0
  150.1919  138.1589  159.7666 O   0  0  0  0  0  0  0  0  0  0  0  0
  147.3257  137.2002  163.1149 H   0  0  0  0  0  0  0  0  0  0  0  0
  147.6984  135.5785  162.5293 H   0  0  0  0  0  0  0  0  0  0  0  0
  146.1430  136.3339  162.1340 H   0  0  0  0  0  0  0  0  0  0  0  0
  148.4128  135.4550  160.0473 H   0  0  0  0  0  0  0  0  0  0  0  0
  146.6903  135.7833  159.9401 H   0  0  0  0  0  0  0  0  0  0  0  0
  147.1653  136.8895  157.9329 H   0  0  0  0  0  0  0  0  0  0  0  0
  147.8711  138.1354  158.8985 H   0  0  0  0  0  0  0  0  0  0  0  0
  147.4086  135.6369  156.6642 H   0  0  0  0  0  0  0  0  0  0  0  0
  148.4618  134.9204  155.5150 H   0  0  0  0  0  0  0  0  0  0  0  0
  150.8016  135.2474  155.5941 H   0  0  0  0  0  0  0  0  0  0  0  0
  152.8279  137.5340  159.9852 H   0  0  0  0  0  0  0  0  0  0  0  0
  153.7322  137.4283  158.5315 H   0  0  0  0  0  0  0  0  0  0  0  0
  150.9801  139.5325  159.5477 H   0  0  0  0  0  0  0  0  0  0  0  0
  150.7545  141.8057  159.7919 H   0  0  0  0  0  0  0  0  0  0  0  0
  152.1743  141.5638  157.1040 H   0  0  0  0  0  0  0  0  0  0  0  0
  150.4501  141.4873  157.3724 H   0  0  0  0  0  0  0  0  0  0  0  0
  151.1724  143.7299  156.5448 H   0  0  0  0  0  0  0  0  0  0  0  0
  150.4013  143.8371  158.1054 H   0  0  0  0  0  0  0  0  0  0  0  0
  153.4086  143.8564  157.5594 H   0  0  0  0  0  0  0  0  0  0  0  0
  152.4620  145.2265  158.0700 H   0  0  0  0  0  0  0  0  0  0  0  0
  153.7878  144.1516  159.8955 H   0  0  0  0  0  0  0  0  0  0  0  0
  150.7846  144.0631  160.4415 H   0  0  0  0  0  0  0  0  0  0  0  0
  151.7858  145.5077  160.4327 H   0  0  0  0  0  0  0  0  0  0  0  0
  152.0646  144.2626  161.6313 H   0  0  0  0  0  0  0  0  0  0  0  0
  153.7288  141.8883  159.1696 H   0  0  0  0  0  0  0  0  0  0  0  0
  152.3612  141.9206  161.8880 H   0  0  0  0  0  0  0  0  0  0  0  0
  154.0556  142.3298  161.6197 H   0  0  0  0  0  0  0  0  0  0  0  0
  153.4757  140.7135  161.2645 H   0  0  0  0  0  0  0  0  0  0  0  0
  1  2  1  0  0  0  0
  1 26  1  0  0  0  0
  1 27  1  0  0  0  0
  1 28  1  0  0  0  0
  2  3  1  0  0  0  0
  3  4  1  0  0  0  0
  3 29  1  0  0  0  0
  3 30  1  0  0  0  0
  4  5  1  0  0  0  0
  4 31  1  0  0  0  0
  4 32  1  0  0  0  0
  5 24  1  0  0  0  0
  5  6  1  0  0  0  0
  6  7  1  0  0  0  0
  6  8  2  0  0  0  0
  7 33  1  0  0  0  0
  7 34  1  0  0  0  0
  8  9  1  0  0  0  0
  8 35  1  0  0  0  0
  9 10  2  0  0  0  0
  9 11  1  0  0  0  0
 11 12  1  0  0  0  0
 11 24  1  0  0  0  0
 12 13  1  0  0  0  0
 12 36  1  0  0  0  0
 12 37  1  0  0  0  0
 13 14  2  0  0  0  0
 13 15  1  0  0  0  0
 15 16  1  0  0  0  0
 15 38  1  0  0  0  0
 16 22  1  0  0  0  0
 16 17  1  0  0  0  0
 16 39  1  0  0  0  0
 17 18  1  0  0  0  0
 17 40  1  0  0  0  0
 17 41  1  0  0  0  0
 18 19  1  0  0  0  0
 18 42  1  0  0  0  0
 18 43  1  0  0  0  0
 19 20  1  0  0  0  0
 19 44  1  0  0  0  0
 19 45  1  0  0  0  0
 20 21  1  0  0  0  0
 20 22  1  0  0  0  0
 20 46  1  0  0  0  0
 21 47  1  0  0  0  0
 21 48  1  0  0  0  0
 21 49  1  0  0  0  0
 22 23  1  0  0  0  0
 22 50  1  0  0  0  0
 23 51  1  0  0  0  0
 23 52  1  0  0  0  0
 23 53  1  0  0  0  0
 24 25  2  0  0  0  0
M  END
> <s_m_source_file>
AV-unprocessed.smi

> <i_m_source_file_index>
415

> <i_lp_mmshare_version>
43012

> <i_f3d_flags>
0

> <s_epik_input>
W0NIM11PW0NIMl1bQ0gyXW4xYyhbTkgyXSlbY0hdYyg9TyluKGMxPU8pW0NIMl1DKD1PKVtOSF1bQ0BASF0yW0NIMl1bQ0gyXVtDSDJdW0NAQEhdKFtDSDNdKVtDQEhdMltDSDNd

> <s_epik_cmdline>
J2VwaWtfcHl0aG9uJywgJy1waCcsICc3LjAnLCAnLXRuJywgJzgnLCAnLW1hJywgJzIwMCcsICctbWV0YWxfYmluZGluZycsICctaW1hZScsICc8aW5maWxlLm1hZT4nLCAnLW9tYWUnLCAnPG91dGZpbGUubWFlPic=

> <r_lp_tautomer_probability>
1

> <r_epik_Ionization_Penalty>
8.6647e-06

> <r_epik_Ionization_Penalty_Charging>
1.81162e-08

> <r_epik_Ionization_Penalty_Neutral>
8.64658e-06

> <r_epik_State_Penalty>
-0

> <r_epik_Charging_Adjusted_Penalty>
1.81162e-08

> <i_epik_Tot_Q>
0

> <i_epik_Tot_abs_Q>
0

> <r_epik_Metal_State_Penalty>
-0

> <b_epik_Metal_Only>
0

> <s_lp_Force_Field>
OPLS_2005

> <r_lp_Energy>
23.489

> <b_lp_Chiralities_Consistent>
1

> <s_lp_Variant>
AV-unprocessed.smi:415-1

> <Gold.Version>
5.8.1

> <Gold.Id.Protein>
6NUR|6NUR_protein|mol2

> <Gold.PLP.Fitness>
52.3215

> <Gold.PLP.PLP>
-42.5043

> <Gold.PLP.part.hbond>
-4.9339

> <Gold.PLP.part.metal>
0.0000

> <Gold.PLP.part.buried>
-2.3058

> <Gold.PLP.part.nonpolar>
-35.9011

> <Gold.PLP.part.repulsive>
0.1703

> <Gold.PLP.ligand.clash>
0.0000

> <Gold.PLP.ligand.torsion>
0.8808

> <Gold.PLP.Chemscore.Hbond>
3.8400

> <Gold.PLP.Chemscore.CHOScore>
0.0000

> <Gold.PLP.Chemscore.Metal>
0.0000

> <Gold.Chemscore.Hbonds>
donor molecule, donor type, donor heavy atom, donor atom, acceptor molecule, acceptor atom, score
      P1  H  6931  6943       L1     2  0.99
      P1  H  6934  6947       L1     2  0.85
      P1  H  7997  8010       L1    14  1.00
      P1  H 10752 10765       L1    10  1.00

> <Gold.PLP.Chemscore.Internal.Correction>
0.0587

> <Gold.Rescore>
     Score         DG    S(hbond)    S(metal)    S(lipo)     H(rot)  DE(clash)    DE(int)     intcor
     19.15     -24.12       3.35        0.00     113.17       2.26       1.15       3.82       ----

> <Gold.Chemscore.Fitness>
19.1531

> <Gold.Chemscore.DG>
-24.1194

> <Gold.Chemscore.ZeroCoef>
-5.4800

> <Gold.Chemscore.Hbond>
3.3521

> <Gold.Chemscore.Metal>
0.0000

> <Gold.Chemscore.Lipo>
113.1657

> <Gold.Chemscore.Internal_Hbond>
0.0000

> <Gold.Chemscore.DEClash>
1.1498

> <Gold.Chemscore.DEInternal>
3.8166

> <Gold.Chemscore.Rot>
2.2645

> <Gold.Chemscore.Internal.Correction>
   9.000000E+99

> <Gold.Chemscore.Hbonds>
donor molecule, donor type, donor heavy atom, donor atom, acceptor molecule, acceptor atom, score
      P1  H  6931  6943       L1     2  0.24
      P1  H  6934  6947       L1     2  0.55
      P1  H  7997  8010       L1    14  0.94
      P1  H 10752 10765       L1    10  0.95

> <Gold.Chemscore.Hbond.Weighted>
-11.1961

> <Gold.Chemscore.Metal.Weighted>
-0.0000

> <Gold.Chemscore.Lipo.Weighted>
-13.2404

> <Gold.Chemscore.Internal_Hbond.Weighted>
0.0000

> <Gold.Chemscore.DEClash.Weighted>
1.1498

> <Gold.Chemscore.DEInternal.Weighted>
3.8166

> <Gold.Chemscore.Rot.Weighted>
5.7972

> <Gold.Chemscore.Internal.Correction.Weighted>
   9.000000E+99

> <Gold.Protein.RotatedTorsions>
[ 6907 6896 6895 6894 ] final  158.79 input  -60.11 | X-H torsion
[ 7974 7965 7964 7962 ] final   63.69 input  175.53 | X-H torsion
[ 8008 7997 7996 7995 ] final   20.30 input   59.86 | X-H torsion
[ 10167 10162 10161 10158 ] final -172.19 input  -65.29 | X-H torsion
[ 10718 10713 10712 10709 ] final  158.82 input   66.30 | X-H torsion
[ 10763 10752 10751 10750 ] final -109.22 input  -60.55 | X-H torsion
[ 11005 11000 10999 10996 ] final -130.01 input  -57.11 | X-H torsion

> <Gold.Protein.ActiveResidues>
 VAL166  LYS551  ARG553  GLY616  TRP617  ASP618  TYR619  PRO620  LYS621  CYS622 
 ASP623  PHE694  ASN695  SER759  ASP760  ASP761  ALA762  ILE779  LEU786  VAL792 
 PHE793  MET794  SER795  GLU796  ALA797  LYS798  CYS799  TRP800  GLU811  SER814 

> <Gold.Protein.RotatedAtoms>
  151.9952  133.3805  159.4159 H   0  0  0  0  0  0  0  0  0  0  0  0  # atno 6907 bound_to 6896
  150.6917  134.3893  159.5078 H   0  0  0  0  0  0  0  0  0  0  0  0  # atno 6908 bound_to 6896
  152.1633  134.8894  160.0590 H   0  0  0  0  0  0  0  0  0  0  0  0  # atno 6909 bound_to 6896
  145.8589  139.3302  143.0831 H   0  0  0  0  0  0  0  0  0  0  0  0  # atno 7974 bound_to 7965
  154.9336  140.3043  155.5155 H   0  0  0  0  0  0  0  0  0  0  0  0  # atno 8008 bound_to 7997
  156.3001  140.2349  156.4335 H   0  0  0  0  0  0  0  0  0  0  0  0  # atno 8009 bound_to 7997
  154.8214  140.0423  157.1402 H   0  0  0  0  0  0  0  0  0  0  0  0  # atno 8010 bound_to 7997
  139.5759  144.1534  152.1449 H   0  0  0  0  0  0  0  0  0  0  0  0  # atno 10167 bound_to 10162
  157.1726  131.0613  151.2174 H   0  0  0  0  0  0  0  0  0  0  0  0  # atno 10718 bound_to 10713
  154.8181  135.4609  154.0700 H   0  0  0  0  0  0  0  0  0  0  0  0  # atno 10763 bound_to 10752
  153.2076  135.6877  153.8160 H   0  0  0  0  0  0  0  0  0  0  0  0  # atno 10764 bound_to 10752
  153.7623  135.3282  155.3316 H   0  0  0  0  0  0  0  0  0  0  0  0  # atno 10765 bound_to 10752
  140.9382  134.1228  157.4174 H   0  0  0  0  0  0  0  0  0  0  0  0  # atno 11005 bound_to 11000
  145.9271  140.9074  143.0375 LP  0  0  0  0  0  0  0  0  0  0  0  0  # atno 17320 bound_to 7965
  144.6727  140.1368  143.7440 LP  0  0  0  0  0  0  0  0  0  0  0  0  # atno 17321 bound_to 7965
  140.1077  144.5484  150.6946 LP  0  0  0  0  0  0  0  0  0  0  0  0  # atno 17342 bound_to 10162
  140.7041  143.2455  151.4777 LP  0  0  0  0  0  0  0  0  0  0  0  0  # atno 17343 bound_to 10162
  157.4029  130.7343  149.6780 LP  0  0  0  0  0  0  0  0  0  0  0  0  # atno 17370 bound_to 10713
  155.9736  130.4116  150.3989 LP  0  0  0  0  0  0  0  0  0  0  0  0  # atno 17371 bound_to 10713
  139.8813  135.0028  156.6148 LP  0  0  0  0  0  0  0  0  0  0  0  0  # atno 17394 bound_to 11000
  140.7770  133.8691  155.8537 LP  0  0  0  0  0  0  0  0  0  0  0  0  # atno 17395 bound_to 11000

$$$$
