AV-unprocessed.smi:743|AV-procd|sdf|3563|dock4
  -GOLD-   22720 0563D 1   1.00000     0.00000
 Structure written by MMmdl.
 29 30  0  0  0  0  0  0  0  0  2 V2000
  146.5162  142.2542  154.7093 C   0  0  0  0  0  0  0  0  0  0  0  0
  147.7923  141.6776  155.0751 N   0  0  0  0  0  0  0  0  0  0  0  0
  148.6993  141.0175  154.2756 C   0  0  0  0  0  0  0  0  0  0  0  0
  149.7623  140.6600  155.0608 C   0  0  0  0  0  0  0  0  0  0  0  0
  151.0358  139.9265  154.6898 C   0  0  1  0  0  0  0  0  0  0  0  0
  151.9922  139.9499  155.7998 N   0  0  0  0  0  0  0  0  0  0  0  0
  152.1995  138.9715  156.7012 C   0  0  0  0  0  0  0  0  0  0  0  0
  152.9422  139.1374  157.6653 O   0  0  0  0  0  0  0  0  0  0  0  0
  151.5329  137.6013  156.4911 C   0  0  0  0  0  0  0  0  0  0  0  0
  150.4090  137.5946  155.4388 C   0  0  0  0  0  0  0  0  0  0  0  0
  150.7742  138.4706  154.2329 C   0  0  1  0  0  0  0  0  0  0  0  0
  149.7592  138.3846  153.1662 N   0  3  0  0  0  0  0  0  0  0  0  0
  149.3884  141.1455  156.3478 C   0  0  0  0  0  0  0  0  0  0  0  0
  148.2172  141.7586  156.3516 N   0  0  0  0  0  0  0  0  0  0  0  0
  151.6971  138.0769  153.8040 H   0  0  0  0  0  0  0  0  0  0  0  0
  146.3381  142.1225  153.6418 H   0  0  0  0  0  0  0  0  0  0  0  0
  146.5121  143.3200  154.9399 H   0  0  0  0  0  0  0  0  0  0  0  0
  145.7164  141.7635  155.2649 H   0  0  0  0  0  0  0  0  0  0  0  0
  148.5185  140.8634  153.2215 H   0  0  0  0  0  0  0  0  0  0  0  0
  151.5205  140.4504  153.8650 H   0  0  0  0  0  0  0  0  0  0  0  0
  152.4847  140.8196  155.9465 H   0  0  0  0  0  0  0  0  0  0  0  0
  152.3169  136.9102  156.1802 H   0  0  0  0  0  0  0  0  0  0  0  0
  151.1548  137.2292  157.4437 H   0  0  0  0  0  0  0  0  0  0  0  0
  150.2259  136.5695  155.1152 H   0  0  0  0  0  0  0  0  0  0  0  0
  149.4786  137.9405  155.8913 H   0  0  0  0  0  0  0  0  0  0  0  0
  149.9690  139.0641  152.4488 H   0  0  0  0  0  0  0  0  0  0  0  0
  148.8457  138.5750  153.5531 H   0  0  0  0  0  0  0  0  0  0  0  0
  149.9372  141.0759  157.2754 H   0  0  0  0  0  0  0  0  0  0  0  0
  149.7679  137.4579  152.7647 H   0  0  0  0  0  0  0  0  0  0  0  0
  1  2  1  0  0  0  0
  1 16  1  0  0  0  0
  1 17  1  0  0  0  0
  1 18  1  0  0  0  0
  2 14  1  0  0  0  0
  2  3  1  0  0  0  0
  3  4  2  0  0  0  0
  3 19  1  0  0  0  0
  4  5  1  0  0  0  0
  4 13  1  0  0  0  0
  5 11  1  0  0  0  0
  5  6  1  0  0  0  0
  5 20  1  0  0  0  0
  6  7  1  0  0  0  0
  6 21  1  0  0  0  0
  7  8  2  0  0  0  0
  7  9  1  0  0  0  0
  9 10  1  0  0  0  0
  9 22  1  0  0  0  0
  9 23  1  0  0  0  0
 10 11  1  0  0  0  0
 10 24  1  0  0  0  0
 10 25  1  0  0  0  0
 11 15  1  0  0  0  0
 11 12  1  0  0  0  0
 12 26  1  0  0  0  0
 12 27  1  0  0  0  0
 12 29  1  0  0  0  0
 13 14  2  0  0  0  0
 13 28  1  0  0  0  0
M  CHG  1  12   1
M  END
> <s_m_source_file>
AV-unprocessed.smi

> <i_m_source_file_index>
743

> <i_lp_mmshare_version>
43012

> <i_f3d_flags>
0

> <s_epik_input>
W0NIM11uMVtjSF1jKFtjSF1uMSlbQ0BASF0yW05IXUMoPU8pW0NIMl1bQ0gyXVtDQEBIXTJbTkgyXQ==

> <s_epik_cmdline>
J2VwaWtfcHl0aG9uJywgJy1waCcsICc3LjAnLCAnLXRuJywgJzgnLCAnLW1hJywgJzIwMCcsICctbWV0YWxfYmluZGluZycsICctaW1hZScsICc8aW5maWxlLm1hZT4nLCAnLW9tYWUnLCAnPG91dGZpbGUubWFlPic=

> <r_lp_tautomer_probability>
1

> <r_epik_Ionization_Penalty>
0.00878543

> <r_epik_Ionization_Penalty_Charging>
0.00874185

> <r_epik_Ionization_Penalty_Neutral>
4.35793e-05

> <r_epik_State_Penalty>
0.00660351

> <r_epik_Charging_Adjusted_Penalty>
0.0153454

> <i_epik_Tot_Q>
1

> <i_epik_Tot_abs_Q>
1

> <r_epik_Metal_State_Penalty>
0.00660727

> <b_epik_Metal_Only>
0

> <s_lp_Force_Field>
OPLS_2005

> <r_lp_Energy>
11.1602

> <b_lp_Chiralities_Consistent>
1

> <s_lp_Variant>
AV-unprocessed.smi:743-4

> <Gold.Version>
5.8.1

> <Gold.Id.Protein>
6NUR|6NUR_protein|mol2

> <Gold.PLP.Fitness>
36.6547

> <Gold.PLP.PLP>
-21.8476

> <Gold.PLP.part.hbond>
-3.2805

> <Gold.PLP.part.metal>
0.0000

> <Gold.PLP.part.buried>
0.1452

> <Gold.PLP.part.nonpolar>
-19.6416

> <Gold.PLP.part.repulsive>
0.8175

> <Gold.PLP.ligand.clash>
0.0000

> <Gold.PLP.ligand.torsion>
0.1058

> <Gold.PLP.Chemscore.Hbond>
4.0000

> <Gold.PLP.Chemscore.CHOScore>
1.0000

> <Gold.PLP.Chemscore.Metal>
0.0000

> <Gold.Chemscore.Hbonds>
donor molecule, donor type, donor heavy atom, donor atom, acceptor molecule, acceptor atom, score
      L1  H    12    26       P1  7957  1.00
      L1  H    12    29       P1  7948  2.00
      P1  H  7997  8008       L1     8  1.00
      L1  C     3    19       P1  7957  1.00

> <Gold.PLP.Chemscore.Internal.Correction>
0.0187

> <Gold.Rescore>
     Score         DG    S(hbond)    S(metal)    S(lipo)     H(rot)  DE(clash)    DE(int)     intcor
     16.46     -18.28       2.90        0.00      48.33       1.00       1.52       0.30       ----

> <Gold.Chemscore.Fitness>
16.4561

> <Gold.Chemscore.DG>
-18.2767

> <Gold.Chemscore.ZeroCoef>
-5.4800

> <Gold.Chemscore.Hbond>
2.9049

> <Gold.Chemscore.Metal>
0.0000

> <Gold.Chemscore.Lipo>
48.3275

> <Gold.Chemscore.Internal_Hbond>
0.0000

> <Gold.Chemscore.DEClash>
1.5179

> <Gold.Chemscore.DEInternal>
0.3027

> <Gold.Chemscore.Rot>
1.0000

> <Gold.Chemscore.Internal.Correction>
   9.000000E+99

> <Gold.Chemscore.Hbonds>
donor molecule, donor type, donor heavy atom, donor atom, acceptor molecule, acceptor atom, score
      L1  H    12    26       P1  7957  0.59
      L1  H    12    29       P1  7948  0.33
      P1  H  7997  8008       L1     8  0.59

> <Gold.Chemscore.Hbond.Weighted>
-9.7024

> <Gold.Chemscore.Metal.Weighted>
-0.0000

> <Gold.Chemscore.Lipo.Weighted>
-5.6543

> <Gold.Chemscore.Internal_Hbond.Weighted>
0.0000

> <Gold.Chemscore.DEClash.Weighted>
1.5179

> <Gold.Chemscore.DEInternal.Weighted>
0.3027

> <Gold.Chemscore.Rot.Weighted>
2.5600

> <Gold.Chemscore.Internal.Correction.Weighted>
   9.000000E+99

> <Gold.Protein.RotatedTorsions>
[ 6907 6896 6895 6894 ] final    5.98 input  -60.11 | X-H torsion
[ 7974 7965 7964 7962 ] final  175.58 input  175.53 | X-H torsion
[ 8008 7997 7996 7995 ] final  -84.08 input   59.86 | X-H torsion
[ 10167 10162 10161 10158 ] final  152.37 input  -65.29 | X-H torsion
[ 10718 10713 10712 10709 ] final  -86.37 input   66.30 | X-H torsion
[ 10763 10752 10751 10750 ] final  -78.99 input  -60.55 | X-H torsion
[ 11005 11000 10999 10996 ] final -114.82 input  -57.11 | X-H torsion

> <Gold.Protein.ActiveResidues>
 VAL166  LYS551  ARG553  GLY616  TRP617  ASP618  TYR619  PRO620  LYS621  CYS622 
 ASP623  PHE694  ASN695  SER759  ASP760  ASP761  ALA762  ILE779  LEU786  VAL792 
 PHE793  MET794  SER795  GLU796  ALA797  LYS798  CYS799  TRP800  GLU811  SER814 

> <Gold.Protein.RotatedAtoms>
  151.6663  135.0982  160.0188 H   0  0  0  0  0  0  0  0  0  0  0  0  # atno 6907 bound_to 6896
  152.3918  133.6685  159.6252 H   0  0  0  0  0  0  0  0  0  0  0  0  # atno 6908 bound_to 6896
  150.7832  133.8858  159.3340 H   0  0  0  0  0  0  0  0  0  0  0  0  # atno 6909 bound_to 6896
  144.7199  139.9968  143.6440 H   0  0  0  0  0  0  0  0  0  0  0  0  # atno 7974 bound_to 7965
  154.6260  140.0610  156.9674 H   0  0  0  0  0  0  0  0  0  0  0  0  # atno 8008 bound_to 7997
  155.1741  140.3293  155.4368 H   0  0  0  0  0  0  0  0  0  0  0  0  # atno 8009 bound_to 7997
  156.2457  140.1909  156.6842 H   0  0  0  0  0  0  0  0  0  0  0  0  # atno 8010 bound_to 7997
  139.4833  144.5363  151.7639 H   0  0  0  0  0  0  0  0  0  0  0  0  # atno 10167 bound_to 10162
  155.9990  130.4763  150.4704 H   0  0  0  0  0  0  0  0  0  0  0  0  # atno 10718 bound_to 10713
  154.5330  135.5711  153.6774 H   0  0  0  0  0  0  0  0  0  0  0  0  # atno 10763 bound_to 10752
  152.9944  135.6209  154.2604 H   0  0  0  0  0  0  0  0  0  0  0  0  # atno 10764 bound_to 10752
  154.2531  135.2858  155.2788 H   0  0  0  0  0  0  0  0  0  0  0  0  # atno 10765 bound_to 10752
  141.0528  133.9661  157.2807 H   0  0  0  0  0  0  0  0  0  0  0  0  # atno 11005 bound_to 11000
  146.0367  139.3384  143.0722 LP  0  0  0  0  0  0  0  0  0  0  0  0  # atno 17320 bound_to 7965
  145.8385  140.9593  143.0811 LP  0  0  0  0  0  0  0  0  0  0  0  0  # atno 17321 bound_to 7965
  140.4896  144.1330  150.5947 LP  0  0  0  0  0  0  0  0  0  0  0  0  # atno 17342 bound_to 10162
  140.4186  143.2622  151.9744 LP  0  0  0  0  0  0  0  0  0  0  0  0  # atno 17343 bound_to 10162
  157.2720  131.0589  151.2254 LP  0  0  0  0  0  0  0  0  0  0  0  0  # atno 17370 bound_to 10713
  157.3331  130.6995  149.6336 LP  0  0  0  0  0  0  0  0  0  0  0  0  # atno 17371 bound_to 10713
  139.9364  135.0196  156.8570 LP  0  0  0  0  0  0  0  0  0  0  0  0  # atno 17394 bound_to 11000
  140.6023  134.0160  155.7542 LP  0  0  0  0  0  0  0  0  0  0  0  0  # atno 17395 bound_to 11000

$$$$
