AV-unprocessed.smi:1244|AV-procd|sdf|5232|dock9
  -GOLD-   22720 4333D 1   1.00000     0.00000
 Structure written by MMmdl.
 56 58  0  0  0  0  0  0  0  0  3 V2000
  149.8267  137.3316  155.3604 C   0  0  0  0  0  0  0  0  0  0  0  0
  149.7251  138.7612  154.8170 C   0  0  1  0  0  0  0  0  0  0  0  0
  148.3545  139.0408  154.1728 C   0  0  0  0  0  0  0  0  0  0  0  0
  148.2648  140.4538  153.7285 N   0  3  1  0  0  0  0  0  0  0  0  0
  146.9812  140.7792  153.0581 C   0  0  0  0  0  0  0  0  0  0  0  0
  146.7186  139.8819  151.8333 C   0  0  0  0  0  0  0  0  0  0  0  0
  145.6860  138.8873  152.1019 N   0  0  0  0  0  0  0  0  0  0  0  0
  145.7845  137.5857  151.7956 C   0  0  0  0  0  0  0  0  0  0  0  0
  146.7868  137.0817  151.2889 O   0  0  0  0  0  0  0  0  0  0  0  0
  144.6537  136.9230  152.0909 N   0  0  0  0  0  0  0  0  0  0  0  0
  144.3597  135.5545  151.8315 C   0  0  0  0  0  0  0  0  0  0  0  0
  144.8765  134.9013  150.6833 C   0  0  0  0  0  0  0  0  0  0  0  0
  144.5536  133.5538  150.4357 C   0  0  0  0  0  0  0  0  0  0  0  0
  143.7210  132.8768  151.3431 C   0  0  0  0  0  0  0  0  0  0  0  0
  143.2617  133.5197  152.4366 N   0  3  0  0  0  0  0  0  0  0  0  0
  143.5487  134.8110  152.7378 C   0  0  0  0  0  0  0  0  0  0  0  0
  143.0017  135.3484  153.9250 N   0  0  0  0  0  0  0  0  0  0  0  0
  143.8725  135.8962  154.9585 C   0  0  0  0  0  0  0  0  0  0  0  0
  142.9428  136.6724  155.8875 C   0  0  0  0  0  0  0  0  0  0  0  0
  141.9019  137.2292  154.9204 C   0  0  0  0  0  0  0  0  0  0  0  0
  141.7770  136.1384  153.8513 C   0  0  0  0  0  0  0  0  0  0  0  0
  148.5625  141.3665  154.8576 C   0  0  0  0  0  0  0  0  0  0  0  0
  149.9278  141.0247  155.4849 C   0  0  1  0  0  0  0  0  0  0  0  0
  150.2369  141.8951  156.7079 C   0  0  0  0  0  0  0  0  0  0  0  0
  149.9215  139.6634  155.9002 O   0  0  0  0  0  0  0  0  0  0  0  0
  149.6830  136.5981  154.5666 H   0  0  0  0  0  0  0  0  0  0  0  0
  149.0745  137.1459  156.1277 H   0  0  0  0  0  0  0  0  0  0  0  0
  150.8061  137.1519  155.8044 H   0  0  0  0  0  0  0  0  0  0  0  0
  150.5154  138.9081  154.0784 H   0  0  0  0  0  0  0  0  0  0  0  0
  148.2105  138.3669  153.3289 H   0  0  0  0  0  0  0  0  0  0  0  0
  147.5556  138.8324  154.8868 H   0  0  0  0  0  0  0  0  0  0  0  0
  146.1662  140.7128  153.7803 H   0  0  0  0  0  0  0  0  0  0  0  0
  147.0063  141.8156  152.7181 H   0  0  0  0  0  0  0  0  0  0  0  0
  146.3905  140.4923  150.9916 H   0  0  0  0  0  0  0  0  0  0  0  0
  147.6257  139.3714  151.5085 H   0  0  0  0  0  0  0  0  0  0  0  0
  144.8279  139.2198  152.5176 H   0  0  0  0  0  0  0  0  0  0  0  0
  143.8783  137.4841  152.4116 H   0  0  0  0  0  0  0  0  0  0  0  0
  145.5216  135.4166  149.9874 H   0  0  0  0  0  0  0  0  0  0  0  0
  144.9371  133.0493  149.5609 H   0  0  0  0  0  0  0  0  0  0  0  0
  143.4159  131.8461  151.2334 H   0  0  0  0  0  0  0  0  0  0  0  0
  144.4079  135.1072  155.4879 H   0  0  0  0  0  0  0  0  0  0  0  0
  144.6041  136.5767  154.5206 H   0  0  0  0  0  0  0  0  0  0  0  0
  142.4673  135.9917  156.5950 H   0  0  0  0  0  0  0  0  0  0  0  0
  143.4585  137.4475  156.4550 H   0  0  0  0  0  0  0  0  0  0  0  0
  140.9518  137.4593  155.4033 H   0  0  0  0  0  0  0  0  0  0  0  0
  142.2790  138.1469  154.4667 H   0  0  0  0  0  0  0  0  0  0  0  0
  141.6240  136.5693  152.8609 H   0  0  0  0  0  0  0  0  0  0  0  0
  140.9287  135.4921  154.0774 H   0  0  0  0  0  0  0  0  0  0  0  0
  148.5701  142.3985  154.5041 H   0  0  0  0  0  0  0  0  0  0  0  0
  147.7718  141.2894  155.6063 H   0  0  0  0  0  0  0  0  0  0  0  0
  150.7189  141.1704  154.7471 H   0  0  0  0  0  0  0  0  0  0  0  0
  150.2718  142.9513  156.4398 H   0  0  0  0  0  0  0  0  0  0  0  0
  151.2023  141.6307  157.1402 H   0  0  0  0  0  0  0  0  0  0  0  0
  149.4803  141.7715  157.4832 H   0  0  0  0  0  0  0  0  0  0  0  0
  148.9956  140.5998  153.0467 H   0  0  0  0  0  0  0  0  0  0  0  0
  142.6666  132.9983  153.0807 H   0  0  0  0  0  0  0  0  0  0  0  0
  1  2  1  0  0  0  0
  1 26  1  0  0  0  0
  1 27  1  0  0  0  0
  1 28  1  0  0  0  0
  2 25  1  0  0  0  0
  2  3  1  0  0  0  0
  2 29  1  0  0  0  0
  3  4  1  0  0  0  0
  3 30  1  0  0  0  0
  3 31  1  0  0  0  0
  4  5  1  0  0  0  0
  4 22  1  0  0  0  0
  4 55  1  0  0  0  0
  5  6  1  0  0  0  0
  5 32  1  0  0  0  0
  5 33  1  0  0  0  0
  6  7  1  0  0  0  0
  6 34  1  0  0  0  0
  6 35  1  0  0  0  0
  7  8  1  0  0  0  0
  7 36  1  0  0  0  0
  8  9  2  0  0  0  0
  8 10  1  0  0  0  0
 10 11  1  0  0  0  0
 10 37  1  0  0  0  0
 11 16  1  0  0  0  0
 11 12  2  0  0  0  0
 12 13  1  0  0  0  0
 12 38  1  0  0  0  0
 13 14  2  0  0  0  0
 13 39  1  0  0  0  0
 14 15  1  0  0  0  0
 14 40  1  0  0  0  0
 15 16  2  0  0  0  0
 15 56  1  0  0  0  0
 16 17  1  0  0  0  0
 17 21  1  0  0  0  0
 17 18  1  0  0  0  0
 18 19  1  0  0  0  0
 18 41  1  0  0  0  0
 18 42  1  0  0  0  0
 19 20  1  0  0  0  0
 19 43  1  0  0  0  0
 19 44  1  0  0  0  0
 20 21  1  0  0  0  0
 20 45  1  0  0  0  0
 20 46  1  0  0  0  0
 21 47  1  0  0  0  0
 21 48  1  0  0  0  0
 22 23  1  0  0  0  0
 22 49  1  0  0  0  0
 22 50  1  0  0  0  0
 23 24  1  0  0  0  0
 23 25  1  0  0  0  0
 23 51  1  0  0  0  0
 24 52  1  0  0  0  0
 24 53  1  0  0  0  0
 24 54  1  0  0  0  0
M  CHG  1   4   1
M  CHG  1  15   1
M  END
> <s_m_source_file>
AV-unprocessed.smi

> <i_m_source_file_index>
1244

> <i_lp_mmshare_version>
43012

> <i_f3d_flags>
0

> <s_epik_input>
W0NIM11bQ0BASF0xW0NIMl1OKFtDSDJdW0NASF0oTzEpW0NIM10pW0NIMl1bQ0gyXVtOSF1DKD1PKVtOSF1jMltjSF1bY0hdW2NIXW5jMk4zW0NIMl1bQ0gyXVtDSDJdW0NIMl0z

> <s_epik_cmdline>
J2VwaWtfcHl0aG9uJywgJy1waCcsICc3LjAnLCAnLXRuJywgJzgnLCAnLW1hJywgJzIwMCcsICctbWV0YWxfYmluZGluZycsICctaW1hZScsICc8aW5maWxlLm1hZT4nLCAnLW9tYWUnLCAnPG91dGZpbGUubWFlPic=

> <r_lp_tautomer_probability>
0.999994

> <r_epik_Ionization_Penalty>
1.81601

> <r_epik_Ionization_Penalty_Charging>
1.81599

> <r_epik_Ionization_Penalty_Neutral>
2.01972e-05

> <r_epik_State_Penalty>
1.85672

> <r_epik_Charging_Adjusted_Penalty>
3.6727

> <i_epik_Tot_Q>
2

> <i_epik_Tot_abs_Q>
2

> <r_epik_Metal_State_Penalty>
1.93796

> <b_epik_Metal_Only>
0

> <s_lp_Force_Field>
OPLS_2005

> <r_lp_Energy>
51.4993

> <b_lp_Chiralities_Consistent>
1

> <s_lp_Variant>
AV-unprocessed.smi:1244-12

> <Gold.Version>
5.8.1

> <Gold.Id.Protein>
6NUR|6NUR_protein|mol2

> <Gold.PLP.Fitness>
49.1635

> <Gold.PLP.PLP>
-36.4720

> <Gold.PLP.part.hbond>
-6.0000

> <Gold.PLP.part.metal>
0.0000

> <Gold.PLP.part.buried>
0.5532

> <Gold.PLP.part.nonpolar>
-35.4362

> <Gold.PLP.part.repulsive>
5.1127

> <Gold.PLP.ligand.clash>
0.0000

> <Gold.PLP.ligand.torsion>
0.9527

> <Gold.PLP.Chemscore.Hbond>
4.7265

> <Gold.PLP.Chemscore.CHOScore>
0.0000

> <Gold.PLP.Chemscore.Metal>
0.0000

> <Gold.Chemscore.Hbonds>
donor molecule, donor type, donor heavy atom, donor atom, acceptor molecule, acceptor atom, score
      L1  H     4    55       P1  7957  0.79
      L1  H     7    36       P1 10175  0.86
      L1  H    15    56       P1 10957  1.54
      P1  H  7954  7966       L1     9  0.81

> <Gold.PLP.Chemscore.Internal.Correction>
0.4175

> <Gold.Rescore>
     Score         DG    S(hbond)    S(metal)    S(lipo)     H(rot)  DE(clash)    DE(int)     intcor
     16.55     -22.84       3.24        0.00      91.50       1.63       4.21       2.08       ----

> <Gold.Chemscore.Fitness>
16.5549

> <Gold.Chemscore.DG>
-22.8444

> <Gold.Chemscore.ZeroCoef>
-5.4800

> <Gold.Chemscore.Hbond>
3.2426

> <Gold.Chemscore.Metal>
0.0000

> <Gold.Chemscore.Lipo>
91.4961

> <Gold.Chemscore.Internal_Hbond>
0.0000

> <Gold.Chemscore.DEClash>
4.2062

> <Gold.Chemscore.DEInternal>
2.0833

> <Gold.Chemscore.Rot>
1.6293

> <Gold.Chemscore.Internal.Correction>
   9.000000E+99

> <Gold.Chemscore.Hbonds>
donor molecule, donor type, donor heavy atom, donor atom, acceptor molecule, acceptor atom, score
      L1  H     4    55       P1  7957  0.75
      L1  H     7    36       P1 10175  0.85
      L1  H    15    56       P1 10957  0.41
      P1  H  7954  7966       L1     9  0.80

> <Gold.Chemscore.Hbond.Weighted>
-10.8303

> <Gold.Chemscore.Metal.Weighted>
-0.0000

> <Gold.Chemscore.Lipo.Weighted>
-10.7050

> <Gold.Chemscore.Internal_Hbond.Weighted>
0.0000

> <Gold.Chemscore.DEClash.Weighted>
4.2062

> <Gold.Chemscore.DEInternal.Weighted>
2.0833

> <Gold.Chemscore.Rot.Weighted>
4.1709

> <Gold.Chemscore.Internal.Correction.Weighted>
   9.000000E+99

> <Gold.Protein.RotatedTorsions>
[ 6907 6896 6895 6894 ] final  143.42 input  -60.11 | X-H torsion
[ 7974 7965 7964 7962 ] final  167.07 input  175.53 | X-H torsion
[ 8008 7997 7996 7995 ] final -122.26 input   59.86 | X-H torsion
[ 10167 10162 10161 10158 ] final   77.31 input  -65.29 | X-H torsion
[ 10718 10713 10712 10709 ] final   96.07 input   66.30 | X-H torsion
[ 10763 10752 10751 10750 ] final  -92.04 input  -60.55 | X-H torsion
[ 11005 11000 10999 10996 ] final   17.58 input  -57.11 | X-H torsion

> <Gold.Protein.ActiveResidues>
 VAL166  LYS551  ARG553  GLY616  TRP617  ASP618  TYR619  PRO620  LYS621  CYS622 
 ASP623  PHE694  ASN695  SER759  ASP760  ASP761  ALA762  ILE779  LEU786  VAL792 
 PHE793  MET794  SER795  GLU796  ALA797  LYS798  CYS799  TRP800  GLU811  SER814 

> <Gold.Protein.RotatedAtoms>
  152.2064  133.4879  159.5086 H   0  0  0  0  0  0  0  0  0  0  0  0  # atno 6907 bound_to 6896
  150.6980  134.1523  159.4154 H   0  0  0  0  0  0  0  0  0  0  0  0  # atno 6908 bound_to 6896
  151.9442  135.0199  160.0588 H   0  0  0  0  0  0  0  0  0  0  0  0  # atno 6909 bound_to 6896
  144.7438  139.8707  143.6388 H   0  0  0  0  0  0  0  0  0  0  0  0  # atno 7974 bound_to 7965
  155.1614  140.0406  157.2843 H   0  0  0  0  0  0  0  0  0  0  0  0  # atno 8008 bound_to 7997
  154.6333  140.2529  155.7380 H   0  0  0  0  0  0  0  0  0  0  0  0  # atno 8009 bound_to 7997
  156.2496  140.2870  156.0695 H   0  0  0  0  0  0  0  0  0  0  0  0  # atno 8010 bound_to 7997
  139.9829  144.5813  150.7885 H   0  0  0  0  0  0  0  0  0  0  0  0  # atno 10167 bound_to 10162
  157.6931  131.0566  150.4435 H   0  0  0  0  0  0  0  0  0  0  0  0  # atno 10718 bound_to 10713
  154.6821  135.5246  153.8277 H   0  0  0  0  0  0  0  0  0  0  0  0  # atno 10763 bound_to 10752
  153.0572  135.6555  154.0559 H   0  0  0  0  0  0  0  0  0  0  0  0  # atno 10764 bound_to 10752
  154.0444  135.2974  155.3330 H   0  0  0  0  0  0  0  0  0  0  0  0  # atno 10765 bound_to 10752
  140.4343  134.1387  155.7683 H   0  0  0  0  0  0  0  0  0  0  0  0  # atno 11005 bound_to 11000
  146.1282  139.4312  143.0185 LP  0  0  0  0  0  0  0  0  0  0  0  0  # atno 17320 bound_to 7965
  145.7203  141.0077  143.1406 LP  0  0  0  0  0  0  0  0  0  0  0  0  # atno 17321 bound_to 7965
  140.7482  143.2919  151.3307 LP  0  0  0  0  0  0  0  0  0  0  0  0  # atno 17342 bound_to 10162
  139.6396  144.0564  152.2544 LP  0  0  0  0  0  0  0  0  0  0  0  0  # atno 17343 bound_to 10162
  156.4791  130.4070  149.6472 LP  0  0  0  0  0  0  0  0  0  0  0  0  # atno 17370 bound_to 10713
  156.3524  130.7439  151.2400 LP  0  0  0  0  0  0  0  0  0  0  0  0  # atno 17371 bound_to 10713
  141.1732  133.8566  157.1504 LP  0  0  0  0  0  0  0  0  0  0  0  0  # atno 17394 bound_to 11000
  140.0113  134.9987  157.0400 LP  0  0  0  0  0  0  0  0  0  0  0  0  # atno 17395 bound_to 11000

$$$$
