AV-unprocessed.smi:2505|AV-procd|sdf|9855|dock3
  -GOLD-   2272013483D 1   1.00000     0.00000
 Structure written by MMmdl.
 48 52  0  0  0  0  0  0  0  0  1 V2000
  145.8912  138.6335  153.8085 O   0  0  0  0  0  0  0  0  0  0  0  0
  146.7403  137.8505  153.3887 C   0  0  0  0  0  0  0  0  0  0  0  0
  148.0621  137.9488  153.6273 N   0  0  0  0  0  0  0  0  0  0  0  0
  148.7513  138.9088  154.4140 C   0  0  0  0  0  0  0  0  0  0  0  0
  148.2326  139.5390  155.5720 C   0  0  0  0  0  0  0  0  0  0  0  0
  148.9587  140.4331  156.2778 N   0  0  0  0  0  0  0  0  0  0  0  0
  150.1888  140.7024  155.8320 C   0  0  0  0  0  0  0  0  0  0  0  0
  151.0001  141.6673  156.6397 C   0  0  0  0  0  0  0  0  0  0  0  0
  151.4501  141.3185  158.0439 C   0  0  0  0  0  0  0  0  0  0  0  0
  150.3988  142.3731  157.8383 C   0  0  0  0  0  0  0  0  0  0  0  0
  150.7891  140.1540  154.7719 N   0  0  0  0  0  0  0  0  0  0  0  0
  150.0714  139.2581  154.0612 C   0  0  0  0  0  0  0  0  0  0  0  0
  146.4064  136.8246  152.5874 N   0  0  0  0  0  0  0  0  0  0  0  0
  145.0637  136.4399  152.1342 C   0  0  2  0  0  0  0  0  0  0  0  0
  144.0889  136.0963  153.2873 C   0  0  2  0  0  0  0  0  0  0  0  0
  144.3772  136.4052  154.7370 C   0  0  0  0  0  0  0  0  0  0  0  0
  144.9526  135.0860  155.2606 C   0  0  0  0  0  0  0  0  0  0  0  0
  145.3837  134.3854  154.0959 O   0  0  0  0  0  0  0  0  0  0  0  0
  144.4342  134.6328  153.0624 C   0  0  2  0  0  0  0  0  0  0  0  0
  145.0074  134.9653  151.6701 C   0  0  0  0  0  0  0  0  0  0  0  0
  146.2807  134.2395  151.2336 C   0  0  0  0  0  0  0  0  0  0  0  0
  145.8381  132.9561  150.5289 C   0  0  0  0  0  0  0  0  0  0  0  0
  144.4298  133.2445  150.0007 C   0  0  0  0  0  0  0  0  0  0  0  0
  144.0783  134.6505  150.4980 C   0  0  0  0  0  0  0  0  0  0  0  0
  148.6469  137.2805  153.1470 H   0  0  0  0  0  0  0  0  0  0  0  0
  147.2501  139.3269  155.9631 H   0  0  0  0  0  0  0  0  0  0  0  0
  151.6887  142.2281  156.0107 H   0  0  0  0  0  0  0  0  0  0  0  0
  151.1284  140.3652  158.4590 H   0  0  0  0  0  0  0  0  0  0  0  0
  152.4408  141.6487  158.3489 H   0  0  0  0  0  0  0  0  0  0  0  0
  150.6857  143.4091  158.0057 H   0  0  0  0  0  0  0  0  0  0  0  0
  149.3774  142.1216  158.1176 H   0  0  0  0  0  0  0  0  0  0  0  0
  150.5569  138.8180  153.2022 H   0  0  0  0  0  0  0  0  0  0  0  0
  147.1686  136.2817  152.2072 H   0  0  0  0  0  0  0  0  0  0  0  0
  144.6319  137.1181  151.3962 H   0  0  0  0  0  0  0  0  0  0  0  0
  143.0587  136.3030  152.9931 H   0  0  0  0  0  0  0  0  0  0  0  0
  145.0887  137.2212  154.8543 H   0  0  0  0  0  0  0  0  0  0  0  0
  143.4763  136.6825  155.2850 H   0  0  0  0  0  0  0  0  0  0  0  0
  145.7724  135.2349  155.9632 H   0  0  0  0  0  0  0  0  0  0  0  0
  144.1775  134.5011  155.7580 H   0  0  0  0  0  0  0  0  0  0  0  0
  143.5753  133.9606  153.0861 H   0  0  0  0  0  0  0  0  0  0  0  0
  146.8391  134.8605  150.5315 H   0  0  0  0  0  0  0  0  0  0  0  0
  146.9528  134.0232  152.0645 H   0  0  0  0  0  0  0  0  0  0  0  0
  146.5285  132.6712  149.7347 H   0  0  0  0  0  0  0  0  0  0  0  0
  145.8010  132.1332  151.2441 H   0  0  0  0  0  0  0  0  0  0  0  0
  144.3844  133.1885  148.9126 H   0  0  0  0  0  0  0  0  0  0  0  0
  143.7262  132.5115  150.3972 H   0  0  0  0  0  0  0  0  0  0  0  0
  143.0241  134.7236  150.7679 H   0  0  0  0  0  0  0  0  0  0  0  0
  144.2435  135.3668  149.6920 H   0  0  0  0  0  0  0  0  0  0  0  0
  1  2  2  0  0  0  0
  2  3  1  0  0  0  0
  2 13  1  0  0  0  0
  3  4  1  0  0  0  0
  3 25  1  0  0  0  0
  4 12  1  0  0  0  0
  4  5  2  0  0  0  0
  5  6  1  0  0  0  0
  5 26  1  0  0  0  0
  6  7  2  0  0  0  0
  7  8  1  0  0  0  0
  7 11  1  0  0  0  0
  8 10  1  0  0  0  0
  8  9  1  0  0  0  0
  8 27  1  0  0  0  0
  9 10  1  0  0  0  0
  9 28  1  0  0  0  0
  9 29  1  0  0  0  0
 10 30  1  0  0  0  0
 10 31  1  0  0  0  0
 11 12  2  0  0  0  0
 12 32  1  0  0  0  0
 13 14  1  0  0  0  0
 13 33  1  0  0  0  0
 14 20  1  0  0  0  0
 14 15  1  0  0  0  0
 14 34  1  0  0  0  0
 15 19  1  0  0  0  0
 15 16  1  0  0  0  0
 15 35  1  0  0  0  0
 16 17  1  0  0  0  0
 16 36  1  0  0  0  0
 16 37  1  0  0  0  0
 17 18  1  0  0  0  0
 17 38  1  0  0  0  0
 17 39  1  0  0  0  0
 18 19  1  0  0  0  0
 19 20  1  0  0  0  0
 19 40  1  0  0  0  0
 20 24  1  0  0  0  0
 20 21  1  0  0  0  0
 21 22  1  0  0  0  0
 21 41  1  0  0  0  0
 21 42  1  0  0  0  0
 22 23  1  0  0  0  0
 22 43  1  0  0  0  0
 22 44  1  0  0  0  0
 23 24  1  0  0  0  0
 23 45  1  0  0  0  0
 23 46  1  0  0  0  0
 24 47  1  0  0  0  0
 24 48  1  0  0  0  0
M  END
> <s_m_source_file>
AV-unprocessed.smi

> <i_m_source_file_index>
2505

> <i_lp_mmshare_version>
43012

> <i_f3d_flags>
0

> <s_epik_input>
W0NIMl0xW0NIMl1bQ0hdMWMobltjSF0yKW5bY0hdYzJbTkhdQyg9TylbTkhdW0NAQEhdM1tDQEBIXShbQ0gyXVtDSDJdTzQpW0NASF00QzM1W0NIMl1bQ0gyXVtDSDJdW0NIMl01

> <s_epik_cmdline>
J2VwaWtfcHl0aG9uJywgJy1waCcsICc3LjAnLCAnLXRuJywgJzgnLCAnLW1hJywgJzIwMCcsICctbWV0YWxfYmluZGluZycsICctaW1hZScsICc8aW5maWxlLm1hZT4nLCAnLW9tYWUnLCAnPG91dGZpbGUubWFlPic=

> <r_lp_tautomer_probability>
1

> <r_epik_Ionization_Penalty>
2.6075e-05

> <r_epik_Ionization_Penalty_Charging>
0

> <r_epik_Ionization_Penalty_Neutral>
2.6075e-05

> <r_epik_State_Penalty>
-0

> <r_epik_Charging_Adjusted_Penalty>
0

> <i_epik_Tot_Q>
0

> <i_epik_Tot_abs_Q>
0

> <r_epik_Metal_State_Penalty>
-0

> <b_epik_Metal_Only>
0

> <s_lp_Force_Field>
OPLS_2005

> <r_lp_Energy>
63.7277

> <b_lp_Chiralities_Consistent>
1

> <s_lp_Variant>
AV-unprocessed.smi:2505-3

> <Gold.Version>
5.8.1

> <Gold.Id.Protein>
6NUR|6NUR_protein|mol2

> <Gold.PLP.Fitness>
41.8387

> <Gold.PLP.PLP>
-32.0253

> <Gold.PLP.part.hbond>
-3.0000

> <Gold.PLP.part.metal>
0.0000

> <Gold.PLP.part.buried>
-3.8918

> <Gold.PLP.part.nonpolar>
-26.0033

> <Gold.PLP.part.repulsive>
0.4166

> <Gold.PLP.ligand.clash>
0.0000

> <Gold.PLP.ligand.torsion>
0.4135

> <Gold.PLP.Chemscore.Hbond>
2.9280

> <Gold.PLP.Chemscore.CHOScore>
0.5131

> <Gold.PLP.Chemscore.Metal>
0.0000

> <Gold.Chemscore.Hbonds>
donor molecule, donor type, donor heavy atom, donor atom, acceptor molecule, acceptor atom, score
      L1  H     3    25       P1  7948  1.00
      L1  H    13    33       P1  7948  0.93
      P1  H  7989  7998       L1    11  0.95
      L1  C    12    32       P1  7957  0.52

> <Gold.PLP.Chemscore.Internal.Correction>
0.3173

> <Gold.Rescore>
     Score         DG    S(hbond)    S(metal)    S(lipo)     H(rot)  DE(clash)    DE(int)     intcor
     17.64     -19.99       2.24        0.00      85.73       1.17       1.14       1.21       ----

> <Gold.Chemscore.Fitness>
17.6392

> <Gold.Chemscore.DG>
-19.9911

> <Gold.Chemscore.ZeroCoef>
-5.4800

> <Gold.Chemscore.Hbond>
2.2417

> <Gold.Chemscore.Metal>
0.0000

> <Gold.Chemscore.Lipo>
85.7282

> <Gold.Chemscore.Internal_Hbond>
0.0000

> <Gold.Chemscore.DEClash>
1.1369

> <Gold.Chemscore.DEInternal>
1.2150

> <Gold.Chemscore.Rot>
1.1744

> <Gold.Chemscore.Internal.Correction>
   9.000000E+99

> <Gold.Chemscore.Hbonds>
donor molecule, donor type, donor heavy atom, donor atom, acceptor molecule, acceptor atom, score
      L1  H     3    25       P1  7948  0.96
      L1  H    13    33       P1  7948  0.91
      P1  H  7989  7998       L1    11  0.22

> <Gold.Chemscore.Hbond.Weighted>
-7.4873

> <Gold.Chemscore.Metal.Weighted>
-0.0000

> <Gold.Chemscore.Lipo.Weighted>
-10.0302

> <Gold.Chemscore.Internal_Hbond.Weighted>
0.0000

> <Gold.Chemscore.DEClash.Weighted>
1.1369

> <Gold.Chemscore.DEInternal.Weighted>
1.2150

> <Gold.Chemscore.Rot.Weighted>
3.0064

> <Gold.Chemscore.Internal.Correction.Weighted>
   9.000000E+99

> <Gold.Protein.RotatedTorsions>
[ 6907 6896 6895 6894 ] final -154.17 input  -60.11 | X-H torsion
[ 7974 7965 7964 7962 ] final   60.74 input  175.53 | X-H torsion
[ 8008 7997 7996 7995 ] final   87.59 input   59.86 | X-H torsion
[ 10167 10162 10161 10158 ] final   65.73 input  -65.29 | X-H torsion
[ 10718 10713 10712 10709 ] final   72.13 input   66.30 | X-H torsion
[ 10763 10752 10751 10750 ] final -102.16 input  -60.55 | X-H torsion
[ 11005 11000 10999 10996 ] final    7.27 input  -57.11 | X-H torsion

> <Gold.Protein.ActiveResidues>
 VAL166  LYS551  ARG553  GLY616  TRP617  ASP618  TYR619  PRO620  LYS621  CYS622 
 ASP623  PHE694  ASN695  SER759  ASP760  ASP761  ALA762  ILE779  LEU786  VAL792 
 PHE793  MET794  SER795  GLU796  ALA797  LYS798  CYS799  TRP800  GLU811  SER814 

> <Gold.Protein.RotatedAtoms>
  151.2535  133.4338  159.2612 H   0  0  0  0  0  0  0  0  0  0  0  0  # atno 6907 bound_to 6896
  151.0596  134.9728  159.8263 H   0  0  0  0  0  0  0  0  0  0  0  0  # atno 6908 bound_to 6896
  152.5396  134.2486  159.8942 H   0  0  0  0  0  0  0  0  0  0  0  0  # atno 6909 bound_to 6896
  145.8926  139.3522  143.0640 H   0  0  0  0  0  0  0  0  0  0  0  0  # atno 7974 bound_to 7965
  155.9772  140.3380  155.6630 H   0  0  0  0  0  0  0  0  0  0  0  0  # atno 8008 bound_to 7997
  155.6596  140.0714  157.2576 H   0  0  0  0  0  0  0  0  0  0  0  0  # atno 8009 bound_to 7997
  154.4182  140.1711  156.1750 H   0  0  0  0  0  0  0  0  0  0  0  0  # atno 8010 bound_to 7997
  140.1081  144.4843  150.6995 H   0  0  0  0  0  0  0  0  0  0  0  0  # atno 10167 bound_to 10162
  157.6486  130.9563  150.0886 H   0  0  0  0  0  0  0  0  0  0  0  0  # atno 10718 bound_to 10713
  154.7713  135.4871  153.9654 H   0  0  0  0  0  0  0  0  0  0  0  0  # atno 10763 bound_to 10752
  153.1371  135.6765  153.9093 H   0  0  0  0  0  0  0  0  0  0  0  0  # atno 10764 bound_to 10752
  153.8779  135.3136  155.3423 H   0  0  0  0  0  0  0  0  0  0  0  0  # atno 10765 bound_to 10752
  140.5502  134.0291  155.7934 H   0  0  0  0  0  0  0  0  0  0  0  0  # atno 11005 bound_to 11000
  145.8889  140.9316  143.0562 LP  0  0  0  0  0  0  0  0  0  0  0  0  # atno 17320 bound_to 7965
  144.6731  140.0879  143.7466 LP  0  0  0  0  0  0  0  0  0  0  0  0  # atno 17321 bound_to 7965
  140.6941  143.2393  151.5050 LP  0  0  0  0  0  0  0  0  0  0  0  0  # atno 17342 bound_to 10162
  139.5634  144.2100  152.1727 LP  0  0  0  0  0  0  0  0  0  0  0  0  # atno 17343 bound_to 10162
  156.1841  130.3651  149.8995 LP  0  0  0  0  0  0  0  0  0  0  0  0  # atno 17370 bound_to 10713
  156.6940  130.8907  151.3591 LP  0  0  0  0  0  0  0  0  0  0  0  0  # atno 17371 bound_to 10713
  141.1176  133.9514  157.2792 LP  0  0  0  0  0  0  0  0  0  0  0  0  # atno 17394 bound_to 11000
  139.9459  135.0184  156.8851 LP  0  0  0  0  0  0  0  0  0  0  0  0  # atno 17395 bound_to 11000

$$$$
