AV-unprocessed.smi:2129|AV-procd|sdf|8683|dock3
  -GOLD-   2272011433D 1   1.00000     0.00000
 Structure written by MMmdl.
 34 34  0  0  0  0  0  0  0  0  1 V2000
  152.2015  143.7276  161.2292 C   0  0  0  0  0  0  0  0  0  0  0  0
  151.8100  143.0994  159.8798 C   0  0  0  0  0  0  0  0  0  0  0  0
  151.4003  144.0997  158.7645 C   0  0  0  0  0  0  0  0  0  0  0  0
  150.3250  145.0713  159.2889 C   0  0  0  0  0  0  0  0  0  0  0  0
  152.6261  144.9318  158.3285 C   0  0  0  0  0  0  0  0  0  0  0  0
  150.8187  143.4076  157.6088 N   0  0  0  0  0  0  0  0  0  0  0  0
  151.0173  142.1418  157.1919 C   0  0  0  0  0  0  0  0  0  0  0  0
  151.7792  141.3563  157.7531 O   0  0  0  0  0  0  0  0  0  0  0  0
  150.2361  141.6638  155.9556 C   0  0  0  0  0  0  0  0  0  0  0  0
  150.4452  140.2486  155.6062 N   0  0  0  0  0  0  0  0  0  0  0  0
  151.7310  139.7369  155.5035 C   0  0  0  0  0  0  0  0  0  0  0  0
  151.9973  138.4514  155.1717 C   0  0  0  0  0  0  0  0  0  0  0  0
  150.9095  137.5184  154.8982 C   0  0  0  0  0  0  0  0  0  0  0  0
  151.0493  136.3370  154.5899 O   0  0  0  0  0  0  0  0  0  0  0  0
  149.6308  138.0709  155.0109 N   0  0  0  0  0  0  0  0  0  0  0  0
  149.3492  139.3947  155.3516 C   0  0  0  0  0  0  0  0  0  0  0  0
  148.1833  139.7823  155.4131 O   0  0  0  0  0  0  0  0  0  0  0  0
  148.8457  137.4625  154.8291 H   0  0  0  0  0  0  0  0  0  0  0  0
  152.4555  142.9508  161.9504 H   0  0  0  0  0  0  0  0  0  0  0  0
  151.3863  144.3118  161.6561 H   0  0  0  0  0  0  0  0  0  0  0  0
  153.0703  144.3785  161.1362 H   0  0  0  0  0  0  0  0  0  0  0  0
  152.6422  142.4899  159.5258 H   0  0  0  0  0  0  0  0  0  0  0  0
  150.9964  142.3956  160.0578 H   0  0  0  0  0  0  0  0  0  0  0  0
  150.6670  145.6002  160.1792 H   0  0  0  0  0  0  0  0  0  0  0  0
  149.4001  144.5550  159.5477 H   0  0  0  0  0  0  0  0  0  0  0  0
  150.0720  145.8225  158.5394 H   0  0  0  0  0  0  0  0  0  0  0  0
  153.0036  145.5351  159.1548 H   0  0  0  0  0  0  0  0  0  0  0  0
  152.3766  145.6127  157.5138 H   0  0  0  0  0  0  0  0  0  0  0  0
  153.4512  144.3046  157.9912 H   0  0  0  0  0  0  0  0  0  0  0  0
  150.1650  143.9535  157.0665 H   0  0  0  0  0  0  0  0  0  0  0  0
  149.1765  141.8486  156.1373 H   0  0  0  0  0  0  0  0  0  0  0  0
  150.4931  142.3039  155.1094 H   0  0  0  0  0  0  0  0  0  0  0  0
  152.5679  140.3942  155.6925 H   0  0  0  0  0  0  0  0  0  0  0  0
  153.0211  138.1123  155.1065 H   0  0  0  0  0  0  0  0  0  0  0  0
  1  2  1  0  0  0  0
  1 19  1  0  0  0  0
  1 20  1  0  0  0  0
  1 21  1  0  0  0  0
  2  3  1  0  0  0  0
  2 22  1  0  0  0  0
  2 23  1  0  0  0  0
  3  4  1  0  0  0  0
  3  5  1  0  0  0  0
  3  6  1  0  0  0  0
  4 24  1  0  0  0  0
  4 25  1  0  0  0  0
  4 26  1  0  0  0  0
  5 27  1  0  0  0  0
  5 28  1  0  0  0  0
  5 29  1  0  0  0  0
  6  7  1  0  0  0  0
  6 30  1  0  0  0  0
  7  8  2  0  0  0  0
  7  9  1  0  0  0  0
  9 10  1  0  0  0  0
  9 31  1  0  0  0  0
  9 32  1  0  0  0  0
 10 16  1  0  0  0  0
 10 11  1  0  0  0  0
 11 12  2  0  0  0  0
 11 33  1  0  0  0  0
 12 13  1  0  0  0  0
 12 34  1  0  0  0  0
 13 14  2  0  0  0  0
 13 15  1  0  0  0  0
 15 18  1  0  0  0  0
 15 16  1  0  0  0  0
 16 17  2  0  0  0  0
M  END
> <s_m_source_file>
AV-unprocessed.smi

> <i_m_source_file_index>
2129

> <i_lp_mmshare_version>
43012

> <i_f3d_flags>
0

> <s_epik_input>
W0NIM11bQ0gyXUMoW0NIM10pKFtDSDNdKVtOSF1DKD1PKVtDSDJdbjFbY0hdW2NIXWMoPU8pW25IXWMxPU8=

> <s_epik_cmdline>
J2VwaWtfcHl0aG9uJywgJy1waCcsICc3LjAnLCAnLXRuJywgJzgnLCAnLW1hJywgJzIwMCcsICctbWV0YWxfYmluZGluZycsICctaW1hZScsICc8aW5maWxlLm1hZT4nLCAnLW9tYWUnLCAnPG91dGZpbGUubWFlPic=

> <r_lp_tautomer_probability>
0.999537

> <r_epik_Ionization_Penalty>
0.00293907

> <r_epik_Ionization_Penalty_Charging>
0.00293905

> <r_epik_Ionization_Penalty_Neutral>
1.95902e-08

> <r_epik_State_Penalty>
0.0020607

> <r_epik_Charging_Adjusted_Penalty>
0.00499975

> <i_epik_Tot_Q>
0

> <i_epik_Tot_abs_Q>
0

> <r_epik_Metal_State_Penalty>
0.360223

> <b_epik_Metal_Only>
0

> <s_lp_Force_Field>
OPLS_2005

> <r_lp_Energy>
5.65175

> <b_lp_Chiralities_Consistent>
1

> <s_lp_Variant>
AV-unprocessed.smi:2129-1

> <Gold.Version>
5.8.1

> <Gold.Id.Protein>
6NUR|6NUR_protein|mol2

> <Gold.PLP.Fitness>
41.6208

> <Gold.PLP.PLP>
-36.9987

> <Gold.PLP.part.hbond>
-1.9934

> <Gold.PLP.part.metal>
0.0000

> <Gold.PLP.part.buried>
-3.5278

> <Gold.PLP.part.nonpolar>
-32.2057

> <Gold.PLP.part.repulsive>
1.4019

> <Gold.PLP.ligand.clash>
0.0041

> <Gold.PLP.ligand.torsion>
0.6977

> <Gold.PLP.Chemscore.Hbond>
1.9913

> <Gold.PLP.Chemscore.CHOScore>
0.0000

> <Gold.PLP.Chemscore.Metal>
0.0000

> <Gold.Chemscore.Hbonds>
donor molecule, donor type, donor heavy atom, donor atom, acceptor molecule, acceptor atom, score
      L1  H     6    30       P1  8028  0.99
      P1  H 10752 10764       L1    14  1.00

> <Gold.PLP.Chemscore.Internal.Correction>
0.0479

> <Gold.Rescore>
     Score         DG    S(hbond)    S(metal)    S(lipo)     H(rot)  DE(clash)    DE(int)     intcor
     12.73     -16.43       1.96        0.00      80.27       1.95       0.14       3.57       ----

> <Gold.Chemscore.Fitness>
12.7274

> <Gold.Chemscore.DG>
-16.4322

> <Gold.Chemscore.ZeroCoef>
-5.4800

> <Gold.Chemscore.Hbond>
1.9605

> <Gold.Chemscore.Metal>
0.0000

> <Gold.Chemscore.Lipo>
80.2724

> <Gold.Chemscore.Internal_Hbond>
0.0000

> <Gold.Chemscore.DEClash>
0.1355

> <Gold.Chemscore.DEInternal>
3.5693

> <Gold.Chemscore.Rot>
1.9483

> <Gold.Chemscore.Internal.Correction>
   9.000000E+99

> <Gold.Chemscore.Hbonds>
donor molecule, donor type, donor heavy atom, donor atom, acceptor molecule, acceptor atom, score
      L1  H     6    30       P1  8028  0.90
      P1  H 10752 10764       L1    14  0.90

> <Gold.Chemscore.Hbond.Weighted>
-6.5480

> <Gold.Chemscore.Metal.Weighted>
-0.0000

> <Gold.Chemscore.Lipo.Weighted>
-9.3919

> <Gold.Chemscore.Internal_Hbond.Weighted>
0.0000

> <Gold.Chemscore.DEClash.Weighted>
0.1355

> <Gold.Chemscore.DEInternal.Weighted>
3.5693

> <Gold.Chemscore.Rot.Weighted>
4.9876

> <Gold.Chemscore.Internal.Correction.Weighted>
   9.000000E+99

> <Gold.Protein.RotatedTorsions>
[ 6907 6896 6895 6894 ] final -154.52 input  -60.11 | X-H torsion
[ 7974 7965 7964 7962 ] final   10.94 input  175.53 | X-H torsion
[ 8008 7997 7996 7995 ] final  151.14 input   59.86 | X-H torsion
[ 10167 10162 10161 10158 ] final  -90.94 input  -65.29 | X-H torsion
[ 10718 10713 10712 10709 ] final  -70.83 input   66.30 | X-H torsion
[ 10763 10752 10751 10750 ] final  -77.03 input  -60.55 | X-H torsion
[ 11005 11000 10999 10996 ] final  104.63 input  -57.11 | X-H torsion

> <Gold.Protein.ActiveResidues>
 VAL166  LYS551  ARG553  GLY616  TRP617  ASP618  TYR619  PRO620  LYS621  CYS622 
 ASP623  PHE694  ASN695  SER759  ASP760  ASP761  ALA762  ILE779  LEU786  VAL792 
 PHE793  MET794  SER795  GLU796  ALA797  LYS798  CYS799  TRP800  GLU811  SER814 

> <Gold.Protein.RotatedAtoms>
  151.2587  133.4313  159.2614 H   0  0  0  0  0  0  0  0  0  0  0  0  # atno 6907 bound_to 6896
  151.0550  134.9699  159.8241 H   0  0  0  0  0  0  0  0  0  0  0  0  # atno 6908 bound_to 6896
  152.5389  134.2540  159.8962 H   0  0  0  0  0  0  0  0  0  0  0  0  # atno 6909 bound_to 6896
  146.2380  139.9559  142.8464 H   0  0  0  0  0  0  0  0  0  0  0  0  # atno 7974 bound_to 7965
  156.2686  140.2056  156.6128 H   0  0  0  0  0  0  0  0  0  0  0  0  # atno 8008 bound_to 7997
  154.6818  140.0539  157.0297 H   0  0  0  0  0  0  0  0  0  0  0  0  # atno 8009 bound_to 7997
  155.0990  140.3204  155.4555 H   0  0  0  0  0  0  0  0  0  0  0  0  # atno 8010 bound_to 7997
  140.3499  143.2897  151.9738 H   0  0  0  0  0  0  0  0  0  0  0  0  # atno 10167 bound_to 10162
  156.0390  130.4339  150.2353 H   0  0  0  0  0  0  0  0  0  0  0  0  # atno 10718 bound_to 10713
  154.5076  135.5778  153.6579 H   0  0  0  0  0  0  0  0  0  0  0  0  # atno 10763 bound_to 10752
  152.9890  135.6151  154.2921 H   0  0  0  0  0  0  0  0  0  0  0  0  # atno 10764 bound_to 10752
  154.2834  135.2850  155.2666 H   0  0  0  0  0  0  0  0  0  0  0  0  # atno 10765 bound_to 10752
  139.8794  134.9307  156.5390 H   0  0  0  0  0  0  0  0  0  0  0  0  # atno 11005 bound_to 11000
  145.1817  140.9770  143.4262 LP  0  0  0  0  0  0  0  0  0  0  0  0  # atno 17320 bound_to 7965
  144.9936  139.3665  143.6202 LP  0  0  0  0  0  0  0  0  0  0  0  0  # atno 17321 bound_to 7965
  139.4828  144.6085  151.7477 LP  0  0  0  0  0  0  0  0  0  0  0  0  # atno 17342 bound_to 10162
  140.5229  144.0851  150.6028 LP  0  0  0  0  0  0  0  0  0  0  0  0  # atno 17343 bound_to 10162
  157.0450  131.0046  151.3272 LP  0  0  0  0  0  0  0  0  0  0  0  0  # atno 17370 bound_to 10713
  157.5182  130.7981  149.7780 LP  0  0  0  0  0  0  0  0  0  0  0  0  # atno 17371 bound_to 10713
  140.8324  133.8268  155.8997 LP  0  0  0  0  0  0  0  0  0  0  0  0  # atno 17394 bound_to 11000
  140.9316  134.2015  157.4860 LP  0  0  0  0  0  0  0  0  0  0  0  0  # atno 17395 bound_to 11000

$$$$
