AV-unprocessed.smi:110|AV-procd|sdf|1072|dock3
  -GOLD-   2262018153D 1   1.00000     0.00000
 Structure written by MMmdl.
 46 50  0  0  0  0  0  0  0  0  1 V2000
  144.4439  142.6076  154.5602 O   0  0  0  0  0  0  0  0  0  0  0  0
  145.7490  143.0333  154.2275 C   0  0  0  0  0  0  0  0  0  0  0  0
  146.8229  142.0344  154.6946 C   0  0  2  0  0  0  0  0  0  0  0  0
  148.0879  142.3504  154.1347 O   0  0  0  0  0  0  0  0  0  0  0  0
  148.9293  141.2472  154.2751 C   0  0  1  0  0  0  0  0  0  0  0  0
  149.7105  141.3969  155.5460 N   0  0  0  0  0  0  0  0  0  0  0  0
  149.5170  142.2618  156.6022 C   0  0  0  0  0  0  0  0  0  0  0  0
  150.3835  142.1573  157.5731 N   0  0  0  0  0  0  0  0  0  0  0  0
  151.2661  141.1733  157.1435 C   0  0  0  0  0  0  0  0  0  0  0  0
  152.4326  140.5645  157.6890 C   0  0  0  0  0  0  0  0  0  0  0  0
  152.9723  140.8711  158.8919 N   0  0  0  0  0  0  0  0  0  0  0  0
  153.6749  139.8277  159.6523 C   0  0  0  0  0  0  0  0  0  0  0  0
  153.7571  140.2958  161.1174 C   0  0  0  0  0  0  0  0  0  0  0  0
  153.1812  141.6708  161.0098 C   0  0  0  0  0  0  0  0  0  0  0  0
  153.0690  142.6291  162.0318 C   0  0  0  0  0  0  0  0  0  0  0  0
  152.5137  143.8852  161.7074 C   0  0  0  0  0  0  0  0  0  0  0  0
  152.0952  144.1616  160.3851 C   0  0  0  0  0  0  0  0  0  0  0  0
  152.2192  143.1836  159.3737 C   0  0  0  0  0  0  0  0  0  0  0  0
  152.7546  141.9228  159.7095 C   0  0  0  0  0  0  0  0  0  0  0  0
  153.0156  139.5698  156.9719 N   0  0  0  0  0  0  0  0  0  0  0  0
  152.5209  139.2195  155.7818 C   0  0  0  0  0  0  0  0  0  0  0  0
  151.4591  139.7127  155.1420 N   0  0  0  0  0  0  0  0  0  0  0  0
  150.8477  140.6900  155.8720 C   0  0  0  0  0  0  0  0  0  0  0  0
  148.0317  139.9918  154.3433 C   0  0  2  0  0  0  0  0  0  0  0  0
  148.2342  139.1540  153.2235 O   0  0  0  0  0  0  0  0  0  0  0  0
  146.6104  140.5576  154.3419 C   0  0  1  0  0  0  0  0  0  0  0  0
  145.8209  139.9326  155.3345 O   0  0  0  0  0  0  0  0  0  0  0  0
  146.9266  142.1322  155.7769 H   0  0  0  0  0  0  0  0  0  0  0  0
  149.6912  141.2241  153.4946 H   0  0  0  0  0  0  0  0  0  0  0  0
  148.2399  139.4284  155.2546 H   0  0  0  0  0  0  0  0  0  0  0  0
  146.1489  140.4400  153.3609 H   0  0  0  0  0  0  0  0  0  0  0  0
  143.8650  142.8236  153.8451 H   0  0  0  0  0  0  0  0  0  0  0  0
  145.8179  143.1929  153.1511 H   0  0  0  0  0  0  0  0  0  0  0  0
  145.9159  143.9996  154.7041 H   0  0  0  0  0  0  0  0  0  0  0  0
  148.7084  142.9768  156.6406 H   0  0  0  0  0  0  0  0  0  0  0  0
  153.1550  138.8717  159.5753 H   0  0  0  0  0  0  0  0  0  0  0  0
  154.6753  139.6981  159.2377 H   0  0  0  0  0  0  0  0  0  0  0  0
  153.1469  139.6793  161.7779 H   0  0  0  0  0  0  0  0  0  0  0  0
  154.7820  140.3216  161.4879 H   0  0  0  0  0  0  0  0  0  0  0  0
  153.4036  142.4126  163.0356 H   0  0  0  0  0  0  0  0  0  0  0  0
  152.4159  144.6424  162.4712 H   0  0  0  0  0  0  0  0  0  0  0  0
  151.6821  145.1302  160.1452 H   0  0  0  0  0  0  0  0  0  0  0  0
  151.9129  143.4085  158.3631 H   0  0  0  0  0  0  0  0  0  0  0  0
  153.0499  138.4288  155.2707 H   0  0  0  0  0  0  0  0  0  0  0  0
  148.7689  139.6183  152.5976 H   0  0  0  0  0  0  0  0  0  0  0  0
  146.1236  140.2202  156.1822 H   0  0  0  0  0  0  0  0  0  0  0  0
  1  2  1  0  0  0  0
  1 32  1  0  0  0  0
  2  3  1  0  0  0  0
  2 33  1  0  0  0  0
  2 34  1  0  0  0  0
  3 28  1  0  0  0  0
  3 26  1  0  0  0  0
  3  4  1  0  0  0  0
  4  5  1  0  0  0  0
  5 29  1  0  0  0  0
  5  6  1  0  0  0  0
  5 24  1  0  0  0  0
  6 23  1  0  0  0  0
  6  7  1  0  0  0  0
  7  8  2  0  0  0  0
  7 35  1  0  0  0  0
  8  9  1  0  0  0  0
  9 23  2  0  0  0  0
  9 10  1  0  0  0  0
 10 11  1  0  0  0  0
 10 20  2  0  0  0  0
 11 19  1  0  0  0  0
 11 12  1  0  0  0  0
 12 13  1  0  0  0  0
 12 36  1  0  0  0  0
 12 37  1  0  0  0  0
 13 14  1  0  0  0  0
 13 38  1  0  0  0  0
 13 39  1  0  0  0  0
 14 19  2  0  0  0  0
 14 15  1  0  0  0  0
 15 16  2  0  0  0  0
 15 40  1  0  0  0  0
 16 17  1  0  0  0  0
 16 41  1  0  0  0  0
 17 18  2  0  0  0  0
 17 42  1  0  0  0  0
 18 19  1  0  0  0  0
 18 43  1  0  0  0  0
 20 21  1  0  0  0  0
 21 22  2  0  0  0  0
 21 44  1  0  0  0  0
 22 23  1  0  0  0  0
 24 30  1  0  0  0  0
 24 25  1  0  0  0  0
 24 26  1  0  0  0  0
 25 45  1  0  0  0  0
 26 31  1  0  0  0  0
 26 27  1  0  0  0  0
 27 46  1  0  0  0  0
M  END
> <s_m_source_file>
AV-unprocessed.smi

> <i_m_source_file_index>
110

> <i_lp_mmshare_version>
43012

> <i_f3d_flags>
0

> <s_epik_input>
W09IXVtDSDJdW0NASF0xT1tDQEhdKFtDQEhdKFtPSF0pW0NAQEhdMVtPSF0pbihbY0hdbjIpYyhjMjMpbltjSF1uYzNOKFtDSDJdW0NIMl00KWMoYzQ1KVtjSF1bY0hdW2NIXVtjSF01

> <s_epik_cmdline>
J2VwaWtfcHl0aG9uJywgJy1waCcsICc3LjAnLCAnLXRuJywgJzgnLCAnLW1hJywgJzIwMCcsICctbWV0YWxfYmluZGluZycsICctaW1hZScsICc8aW5maWxlLm1hZT4nLCAnLW9tYWUnLCAnPG91dGZpbGUubWFlPic=

> <r_lp_tautomer_probability>
1

> <r_epik_Ionization_Penalty>
0.00068475

> <r_epik_Ionization_Penalty_Charging>
0

> <r_epik_Ionization_Penalty_Neutral>
0.00068475

> <r_epik_State_Penalty>
0.000417442

> <r_epik_Charging_Adjusted_Penalty>
0.000417442

> <i_epik_Tot_Q>
0

> <i_epik_Tot_abs_Q>
0

> <r_epik_Metal_State_Penalty>
-0

> <b_epik_Metal_Only>
0

> <s_epik_Chemistry_Notes>
This compound contains an acetal/aminal-like group ( X-CH(R)-Y where X, Y are N, S, or O) that may be acid/base labile, releasing an aldehyde.

> <s_lp_Force_Field>
OPLS_2005

> <r_lp_Energy>
55.1552

> <b_lp_Chiralities_Consistent>
1

> <s_lp_Variant>
AV-unprocessed.smi:110-10

> <Gold.Version>
5.8.1

> <Gold.Id.Protein>
6NUR|6NUR_protein|mol2

> <Gold.PLP.Fitness>
64.6597

> <Gold.PLP.PLP>
-53.6347

> <Gold.PLP.part.hbond>
-5.8986

> <Gold.PLP.part.metal>
0.0000

> <Gold.PLP.part.buried>
-2.2194

> <Gold.PLP.part.nonpolar>
-47.2674

> <Gold.PLP.part.repulsive>
1.8647

> <Gold.PLP.ligand.clash>
0.0000

> <Gold.PLP.ligand.torsion>
0.7041

> <Gold.PLP.Chemscore.Hbond>
3.3606

> <Gold.PLP.Chemscore.CHOScore>
0.7573

> <Gold.PLP.Chemscore.Metal>
0.0000

> <Gold.Chemscore.Hbonds>
donor molecule, donor type, donor heavy atom, donor atom, acceptor molecule, acceptor atom, score
      L1  H     1    32       P1 10174  0.52
      L1  H    25    45       P1  7957  1.00
      P1  H  7989  7998       L1    22  0.70
      P1  H  7997  8008       L1    20  1.00
      L1  C     7    35       P1  8028  0.75

> <Gold.PLP.Chemscore.Internal.Correction>
0.0794

> <Gold.Rescore>
     Score         DG    S(hbond)    S(metal)    S(lipo)     H(rot)  DE(clash)    DE(int)     intcor
     12.29     -18.44       2.60        0.00     110.69       3.38       3.76       2.40       ----

> <Gold.Chemscore.Fitness>
12.2894

> <Gold.Chemscore.DG>
-18.4408

> <Gold.Chemscore.ZeroCoef>
-5.4800

> <Gold.Chemscore.Hbond>
2.5966

> <Gold.Chemscore.Metal>
0.0000

> <Gold.Chemscore.Lipo>
110.6872

> <Gold.Chemscore.Internal_Hbond>
0.0000

> <Gold.Chemscore.DEClash>
3.7560

> <Gold.Chemscore.DEInternal>
2.3954

> <Gold.Chemscore.Rot>
3.3837

> <Gold.Chemscore.Internal.Correction>
   9.000000E+99

> <Gold.Chemscore.Hbonds>
donor molecule, donor type, donor heavy atom, donor atom, acceptor molecule, acceptor atom, score
      L1  H     1    32       P1 10174  0.04
      L1  H    25    45       P1  7957  1.00
      P1  H  7989  7998       L1    22  0.07
      P1  H  7997  8008       L1    20  0.29
      P1  H  8022  8030       L1     4  0.01

> <Gold.Chemscore.Hbond.Weighted>
-8.6726

> <Gold.Chemscore.Metal.Weighted>
-0.0000

> <Gold.Chemscore.Lipo.Weighted>
-12.9504

> <Gold.Chemscore.Internal_Hbond.Weighted>
0.0000

> <Gold.Chemscore.DEClash.Weighted>
3.7560

> <Gold.Chemscore.DEInternal.Weighted>
2.3954

> <Gold.Chemscore.Rot.Weighted>
8.6622

> <Gold.Chemscore.Internal.Correction.Weighted>
   9.000000E+99

> <Gold.Protein.RotatedTorsions>
[ 6907 6896 6895 6894 ] final    9.43 input  -60.11 | X-H torsion
[ 7974 7965 7964 7962 ] final  -12.67 input  175.53 | X-H torsion
[ 8008 7997 7996 7995 ] final  -74.21 input   59.86 | X-H torsion
[ 10167 10162 10161 10158 ] final  151.73 input  -65.29 | X-H torsion
[ 10718 10713 10712 10709 ] final  -93.91 input   66.30 | X-H torsion
[ 10763 10752 10751 10750 ] final   76.02 input  -60.55 | X-H torsion
[ 11005 11000 10999 10996 ] final   49.88 input  -57.11 | X-H torsion

> <Gold.Protein.ActiveResidues>
 VAL166  LYS551  ARG553  GLY616  TRP617  ASP618  TYR619  PRO620  LYS621  CYS622 
 ASP623  PHE694  ASN695  SER759  ASP760  ASP761  ALA762  ILE779  LEU786  VAL792 
 PHE793  MET794  SER795  GLU796  ALA797  LYS798  CYS799  TRP800  GLU811  SER814 

> <Gold.Protein.RotatedAtoms>
  151.7220  135.0892  160.0285 H   0  0  0  0  0  0  0  0  0  0  0  0  # atno 6907 bound_to 6896
  152.3596  133.6275  159.6013 H   0  0  0  0  0  0  0  0  0  0  0  0  # atno 6908 bound_to 6896
  150.7595  133.9362  159.3483 H   0  0  0  0  0  0  0  0  0  0  0  0  # atno 6909 bound_to 6896
  146.2143  140.3092  142.8381 H   0  0  0  0  0  0  0  0  0  0  0  0  # atno 7974 bound_to 7965
  154.5312  140.0765  156.8347 H   0  0  0  0  0  0  0  0  0  0  0  0  # atno 8008 bound_to 7997
  155.3372  140.3405  155.4221 H   0  0  0  0  0  0  0  0  0  0  0  0  # atno 8009 bound_to 7997
  156.1783  140.1643  156.8309 H   0  0  0  0  0  0  0  0  0  0  0  0  # atno 8010 bound_to 7997
  139.4838  144.5416  151.7554 H   0  0  0  0  0  0  0  0  0  0  0  0  # atno 10167 bound_to 10162
  156.0019  130.5046  150.5848 H   0  0  0  0  0  0  0  0  0  0  0  0  # atno 10718 bound_to 10713
  153.0695  135.4967  154.8274 H   0  0  0  0  0  0  0  0  0  0  0  0  # atno 10763 bound_to 10752
  154.7002  135.3000  154.9354 H   0  0  0  0  0  0  0  0  0  0  0  0  # atno 10764 bound_to 10752
  154.0080  135.6758  153.4816 H   0  0  0  0  0  0  0  0  0  0  0  0  # atno 10765 bound_to 10752
  140.1065  134.5011  155.8715 H   0  0  0  0  0  0  0  0  0  0  0  0  # atno 11005 bound_to 11000
  144.9001  140.7631  143.5872 LP  0  0  0  0  0  0  0  0  0  0  0  0  # atno 17320 bound_to 7965
  145.3018  139.1848  143.4686 LP  0  0  0  0  0  0  0  0  0  0  0  0  # atno 17321 bound_to 7965
  140.4957  144.1244  150.5959 LP  0  0  0  0  0  0  0  0  0  0  0  0  # atno 17342 bound_to 10162
  140.4120  143.2652  151.9821 LP  0  0  0  0  0  0  0  0  0  0  0  0  # atno 17343 bound_to 10162
  157.3722  131.0767  151.1548 LP  0  0  0  0  0  0  0  0  0  0  0  0  # atno 17370 bound_to 10713
  157.2298  130.6519  149.5845 LP  0  0  0  0  0  0  0  0  0  0  0  0  # atno 17371 bound_to 10713
  141.2119  133.6713  156.6621 LP  0  0  0  0  0  0  0  0  0  0  0  0  # atno 17394 bound_to 11000
  140.3149  134.8056  157.4206 LP  0  0  0  0  0  0  0  0  0  0  0  0  # atno 17395 bound_to 11000

$$$$
