AV-unprocessed.smi:1636|AV-procd|sdf|6543|dock1
  -GOLD-   22720 7223D 1   1.00000     0.00000
 Structure written by MMmdl.
 43 44  0  0  0  0  0  0  0  0  1 V2000
  152.8777  142.6096  161.8388 C   0  0  0  0  0  0  0  0  0  0  0  0
  152.9138  142.9315  160.3410 C   0  0  1  0  0  0  0  0  0  0  0  0
  152.1957  141.8578  159.5015 C   0  0  0  0  0  0  0  0  0  0  0  0
  152.1400  142.2502  158.0956 N   0  0  0  0  0  0  0  0  0  0  0  0
  151.7829  141.2769  157.1336 C   0  0  0  0  0  0  0  0  0  0  0  0
  150.6067  141.3860  156.3479 C   0  0  0  0  0  0  0  0  0  0  0  0
  150.3077  140.3772  155.4122 C   0  0  0  0  0  0  0  0  0  0  0  0
  151.1852  139.2848  155.2763 C   0  0  0  0  0  0  0  0  0  0  0  0
  150.8856  138.1763  154.2777 C   0  0  0  0  0  0  0  0  0  0  0  0
  149.8348  138.5037  153.3194 N   0  0  0  0  0  0  0  0  0  0  0  0
  148.5483  138.1494  153.4457 C   0  0  0  0  0  0  0  0  0  0  0  0
  148.1010  137.5025  154.3930 O   0  0  0  0  0  0  0  0  0  0  0  0
  147.8085  138.5834  152.4161 N   0  0  0  0  0  0  0  0  0  0  0  0
  146.3761  138.3572  152.2644 C   0  0  0  0  0  0  0  0  0  0  0  0
  146.0866  137.1860  151.3128 C   0  0  0  0  0  0  0  0  0  0  0  0
  144.7229  136.8326  151.3915 O   0  0  0  0  0  0  0  0  0  0  0  0
  152.3270  139.2541  156.1035 C   0  0  0  0  0  0  0  0  0  0  0  0
  152.6179  140.2173  157.0025 N   0  0  0  0  0  0  0  0  0  0  0  0
  151.6285  143.6032  157.8780 C   0  0  0  0  0  0  0  0  0  0  0  0
  152.3590  144.6107  158.7806 C   0  0  0  0  0  0  0  0  0  0  0  0
  152.2788  144.1895  160.1374 O   0  0  0  0  0  0  0  0  0  0  0  0
  153.3689  141.6587  162.0474 H   0  0  0  0  0  0  0  0  0  0  0  0
  151.8525  142.5445  162.2048 H   0  0  0  0  0  0  0  0  0  0  0  0
  153.3892  143.3808  162.4152 H   0  0  0  0  0  0  0  0  0  0  0  0
  153.9573  143.0036  160.0288 H   0  0  0  0  0  0  0  0  0  0  0  0
  152.7349  140.9163  159.6085 H   0  0  0  0  0  0  0  0  0  0  0  0
  151.1809  141.7030  159.8702 H   0  0  0  0  0  0  0  0  0  0  0  0
  149.9317  142.2237  156.4331 H   0  0  0  0  0  0  0  0  0  0  0  0
  149.4166  140.4471  154.8058 H   0  0  0  0  0  0  0  0  0  0  0  0
  151.7981  137.9643  153.7204 H   0  0  0  0  0  0  0  0  0  0  0  0
  150.6269  137.2572  154.8065 H   0  0  0  0  0  0  0  0  0  0  0  0
  150.1078  139.0338  152.5048 H   0  0  0  0  0  0  0  0  0  0  0  0
  148.2663  139.1097  151.6867 H   0  0  0  0  0  0  0  0  0  0  0  0
  145.9164  138.1848  153.2393 H   0  0  0  0  0  0  0  0  0  0  0  0
  145.9351  139.2733  151.8703 H   0  0  0  0  0  0  0  0  0  0  0  0
  146.3197  137.4587  150.2832 H   0  0  0  0  0  0  0  0  0  0  0  0
  146.6939  136.3170  151.5668 H   0  0  0  0  0  0  0  0  0  0  0  0
  144.2210  137.4576  150.8907 H   0  0  0  0  0  0  0  0  0  0  0  0
  153.0285  138.4347  156.0496 H   0  0  0  0  0  0  0  0  0  0  0  0
  151.7455  143.9182  156.8415 H   0  0  0  0  0  0  0  0  0  0  0  0
  150.5599  143.6130  158.0958 H   0  0  0  0  0  0  0  0  0  0  0  0
  153.4029  144.7159  158.4808 H   0  0  0  0  0  0  0  0  0  0  0  0
  151.9022  145.5957  158.6878 H   0  0  0  0  0  0  0  0  0  0  0  0
  1  2  1  0  0  0  0
  1 22  1  0  0  0  0
  1 23  1  0  0  0  0
  1 24  1  0  0  0  0
  2 21  1  0  0  0  0
  2  3  1  0  0  0  0
  2 25  1  0  0  0  0
  3  4  1  0  0  0  0
  3 26  1  0  0  0  0
  3 27  1  0  0  0  0
  4  5  1  0  0  0  0
  4 19  1  0  0  0  0
  5 18  1  0  0  0  0
  5  6  2  0  0  0  0
  6  7  1  0  0  0  0
  6 28  1  0  0  0  0
  7  8  2  0  0  0  0
  7 29  1  0  0  0  0
  8  9  1  0  0  0  0
  8 17  1  0  0  0  0
  9 10  1  0  0  0  0
  9 30  1  0  0  0  0
  9 31  1  0  0  0  0
 10 11  1  0  0  0  0
 10 32  1  0  0  0  0
 11 12  2  0  0  0  0
 11 13  1  0  0  0  0
 13 14  1  0  0  0  0
 13 33  1  0  0  0  0
 14 15  1  0  0  0  0
 14 34  1  0  0  0  0
 14 35  1  0  0  0  0
 15 16  1  0  0  0  0
 15 36  1  0  0  0  0
 15 37  1  0  0  0  0
 16 38  1  0  0  0  0
 17 18  2  0  0  0  0
 17 39  1  0  0  0  0
 19 20  1  0  0  0  0
 19 40  1  0  0  0  0
 19 41  1  0  0  0  0
 20 21  1  0  0  0  0
 20 42  1  0  0  0  0
 20 43  1  0  0  0  0
M  END
> <s_m_source_file>
AV-unprocessed.smi

> <i_m_source_file_index>
1636

> <i_lp_mmshare_version>
43012

> <i_f3d_flags>
0

> <s_epik_input>
W0NIM11bQ0BASF0xW0NIMl1OKFtDSDJdW0NIMl1PMSljMltjSF1bY0hdYyhbY0hdbjIpW0NIMl1bTkhdQyg9TylbTkhdW0NIMl1bQ0gyXVtPSF0=

> <s_epik_cmdline>
J2VwaWtfcHl0aG9uJywgJy1waCcsICc3LjAnLCAnLXRuJywgJzgnLCAnLW1hJywgJzIwMCcsICctbWV0YWxfYmluZGluZycsICctaW1hZScsICc8aW5maWxlLm1hZT4nLCAnLW9tYWUnLCAnPG91dGZpbGUubWFlPic=

> <r_lp_tautomer_probability>
1

> <r_epik_Ionization_Penalty>
0.00695222

> <r_epik_Ionization_Penalty_Charging>
0

> <r_epik_Ionization_Penalty_Neutral>
0.00695222

> <r_epik_State_Penalty>
0.00513345

> <r_epik_Charging_Adjusted_Penalty>
0.00513345

> <i_epik_Tot_Q>
0

> <i_epik_Tot_abs_Q>
0

> <r_epik_Metal_State_Penalty>
-0

> <b_epik_Metal_Only>
0

> <s_lp_Force_Field>
OPLS_2005

> <r_lp_Energy>
12.451

> <b_lp_Chiralities_Consistent>
1

> <s_lp_Variant>
AV-unprocessed.smi:1636-2

> <Gold.Version>
5.8.1

> <Gold.Id.Protein>
6NUR|6NUR_protein|mol2

> <Gold.PLP.Fitness>
52.7016

> <Gold.PLP.PLP>
-42.7645

> <Gold.PLP.part.hbond>
-5.7779

> <Gold.PLP.part.metal>
0.0000

> <Gold.PLP.part.buried>
1.8307

> <Gold.PLP.part.nonpolar>
-39.1480

> <Gold.PLP.part.repulsive>
0.4625

> <Gold.PLP.ligand.clash>
0.0000

> <Gold.PLP.ligand.torsion>
0.8515

> <Gold.PLP.Chemscore.Hbond>
3.7168

> <Gold.PLP.Chemscore.CHOScore>
0.0000

> <Gold.PLP.Chemscore.Metal>
0.0000

> <Gold.Chemscore.Hbonds>
donor molecule, donor type, donor heavy atom, donor atom, acceptor molecule, acceptor atom, score
      L1  H    10    32       P1  7957  0.98
      L1  H    13    33       P1  7957  1.00
      L1  H    16    38       P1 10171  1.00
      P1  H  7997  8008       L1    18  0.69

> <Gold.PLP.Chemscore.Internal.Correction>
0.4898

> <Gold.Rescore>
     Score         DG    S(hbond)    S(metal)    S(lipo)     H(rot)  DE(clash)    DE(int)     intcor
     18.05     -20.55       2.94        0.00     105.81       2.78       1.76       0.74       ----

> <Gold.Chemscore.Fitness>
18.0527

> <Gold.Chemscore.DG>
-20.5542

> <Gold.Chemscore.ZeroCoef>
-5.4800

> <Gold.Chemscore.Hbond>
2.9397

> <Gold.Chemscore.Metal>
0.0000

> <Gold.Chemscore.Lipo>
105.8095

> <Gold.Chemscore.Internal_Hbond>
0.0000

> <Gold.Chemscore.DEClash>
1.7568

> <Gold.Chemscore.DEInternal>
0.7447

> <Gold.Chemscore.Rot>
2.7828

> <Gold.Chemscore.Internal.Correction>
   9.000000E+99

> <Gold.Chemscore.Hbonds>
donor molecule, donor type, donor heavy atom, donor atom, acceptor molecule, acceptor atom, score
      L1  H    10    32       P1  7957  0.47
      L1  H    13    33       P1  7957  0.88
      L1  H    16    38       P1 10171  0.98
      P1  H  7997  8008       L1    18  0.10

> <Gold.Chemscore.Hbond.Weighted>
-9.8186

> <Gold.Chemscore.Metal.Weighted>
-0.0000

> <Gold.Chemscore.Lipo.Weighted>
-12.3797

> <Gold.Chemscore.Internal_Hbond.Weighted>
0.0000

> <Gold.Chemscore.DEClash.Weighted>
1.7568

> <Gold.Chemscore.DEInternal.Weighted>
0.7447

> <Gold.Chemscore.Rot.Weighted>
7.1241

> <Gold.Chemscore.Internal.Correction.Weighted>
   9.000000E+99

> <Gold.Protein.RotatedTorsions>
[ 6907 6896 6895 6894 ] final -138.01 input  -60.11 | X-H torsion
[ 7974 7965 7964 7962 ] final -100.15 input  175.53 | X-H torsion
[ 8008 7997 7996 7995 ] final  -73.69 input   59.86 | X-H torsion
[ 10167 10162 10161 10158 ] final   60.50 input  -65.29 | X-H torsion
[ 10718 10713 10712 10709 ] final -178.48 input   66.30 | X-H torsion
[ 10763 10752 10751 10750 ] final  -53.81 input  -60.55 | X-H torsion
[ 11005 11000 10999 10996 ] final  147.57 input  -57.11 | X-H torsion

> <Gold.Protein.ActiveResidues>
 VAL166  LYS551  ARG553  GLY616  TRP617  ASP618  TYR619  PRO620  LYS621  CYS622 
 ASP623  PHE694  ASN695  SER759  ASP760  ASP761  ALA762  ILE779  LEU786  VAL792 
 PHE793  MET794  SER795  GLU796  ALA797  LYS798  CYS799  TRP800  GLU811  SER814 

> <Gold.Protein.RotatedAtoms>
  151.0297  133.5801  159.2661 H   0  0  0  0  0  0  0  0  0  0  0  0  # atno 6907 bound_to 6896
  151.2888  135.0735  159.9206 H   0  0  0  0  0  0  0  0  0  0  0  0  # atno 6908 bound_to 6896
  152.5342  133.9999  159.7944 H   0  0  0  0  0  0  0  0  0  0  0  0  # atno 6909 bound_to 6896
  145.2982  140.9370  143.2838 H   0  0  0  0  0  0  0  0  0  0  0  0  # atno 7974 bound_to 7965
  154.5268  140.0774  156.8273 H   0  0  0  0  0  0  0  0  0  0  0  0  # atno 8008 bound_to 7997
  155.3458  140.3410  155.4221 H   0  0  0  0  0  0  0  0  0  0  0  0  # atno 8009 bound_to 7997
  156.1740  140.1629  156.8383 H   0  0  0  0  0  0  0  0  0  0  0  0  # atno 8010 bound_to 7997
  140.1649  144.4334  150.6690 H   0  0  0  0  0  0  0  0  0  0  0  0  # atno 10167 bound_to 10162
  156.8449  130.9699  151.3097 H   0  0  0  0  0  0  0  0  0  0  0  0  # atno 10718 bound_to 10713
  154.1649  135.6468  153.4995 H   0  0  0  0  0  0  0  0  0  0  0  0  # atno 10763 bound_to 10752
  153.0100  135.5369  154.6673 H   0  0  0  0  0  0  0  0  0  0  0  0  # atno 10764 bound_to 10752
  154.5996  135.2942  155.0521 H   0  0  0  0  0  0  0  0  0  0  0  0  # atno 10765 bound_to 10752
  140.0887  134.9054  157.1616 H   0  0  0  0  0  0  0  0  0  0  0  0  # atno 11005 bound_to 11000
  144.9115  139.4522  143.6584 LP  0  0  0  0  0  0  0  0  0  0  0  0  # atno 17320 bound_to 7965
  146.3161  139.7926  142.8982 LP  0  0  0  0  0  0  0  0  0  0  0  0  # atno 17321 bound_to 7965
  140.6619  143.2255  151.5834 LP  0  0  0  0  0  0  0  0  0  0  0  0  # atno 17342 bound_to 10162
  139.5364  144.2769  152.1260 LP  0  0  0  0  0  0  0  0  0  0  0  0  # atno 17343 bound_to 10162
  157.6335  130.8748  149.9317 LP  0  0  0  0  0  0  0  0  0  0  0  0  # atno 17370 bound_to 10713
  156.0860  130.3668  150.0487 LP  0  0  0  0  0  0  0  0  0  0  0  0  # atno 17371 bound_to 10713
  140.3384  134.2732  155.7216 LP  0  0  0  0  0  0  0  0  0  0  0  0  # atno 17394 bound_to 11000
  141.2071  133.7816  157.0140 LP  0  0  0  0  0  0  0  0  0  0  0  0  # atno 17395 bound_to 11000

$$$$
