AV-unprocessed.smi:3303|AV-procd|sdf|12679|dock7
  -GOLD-   2272019 13D 1   1.00000     0.00000
 Structure written by MMmdl.
 44 45  0  0  0  0  0  0  0  0  2 V2000
  147.7219  141.9787  153.7892 C   0  0  0  0  0  0  0  0  0  0  0  0
  148.6665  140.7987  154.0720 C   0  0  2  0  0  0  0  0  0  0  0  0
  147.9100  139.5679  154.6107 C   0  0  0  0  0  0  0  0  0  0  0  0
  148.8252  138.4333  154.7376 N   0  0  0  0  0  0  0  0  0  0  0  0
  148.0896  137.2105  155.0357 C   0  0  0  0  0  0  0  0  0  0  0  0
  149.9352  138.6764  155.6715 C   0  0  2  0  0  0  0  0  0  0  0  0
  149.5179  138.7258  157.1599 C   0  0  0  0  0  0  0  0  0  0  0  0
  150.7284  139.9231  155.2128 C   0  0  0  0  0  0  0  0  0  0  0  0
  149.8521  141.1757  154.9861 C   0  0  2  0  0  0  0  0  0  0  0  0
  149.3870  141.7832  156.2560 N   0  3  0  0  0  0  0  0  0  0  0  0
  150.2994  141.6285  157.4076 C   0  0  0  0  0  0  0  0  0  0  0  0
  151.4192  142.6765  157.3643 C   0  0  0  0  0  0  0  0  0  0  0  0
  151.8753  143.0813  158.7530 C   0  0  0  0  0  0  0  0  0  0  0  0
  152.3684  142.1195  159.6603 C   0  0  0  0  0  0  0  0  0  0  0  0
  152.7672  142.5486  160.9413 C   0  0  0  0  0  0  0  0  0  0  0  0
  152.6564  143.9150  161.2635 C   0  0  0  0  0  0  0  0  0  0  0  0
  152.1509  144.7956  160.2866 C   0  0  0  0  0  0  0  0  0  0  0  0
  151.7651  144.3943  159.0558 N   0  0  0  0  0  0  0  0  0  0  0  0
  147.1983  142.3040  154.6886 H   0  0  0  0  0  0  0  0  0  0  0  0
  146.9657  141.7029  153.0535 H   0  0  0  0  0  0  0  0  0  0  0  0
  148.2692  142.8337  153.3912 H   0  0  0  0  0  0  0  0  0  0  0  0
  149.0896  140.5122  153.1073 H   0  0  0  0  0  0  0  0  0  0  0  0
  147.4253  139.7870  155.5622 H   0  0  0  0  0  0  0  0  0  0  0  0
  147.1167  139.3035  153.9101 H   0  0  0  0  0  0  0  0  0  0  0  0
  148.7702  136.3630  155.1207 H   0  0  0  0  0  0  0  0  0  0  0  0
  147.3847  136.9888  154.2336 H   0  0  0  0  0  0  0  0  0  0  0  0
  147.5235  137.2952  155.9637 H   0  0  0  0  0  0  0  0  0  0  0  0
  150.6129  137.8272  155.5732 H   0  0  0  0  0  0  0  0  0  0  0  0
  150.3693  138.9887  157.7886 H   0  0  0  0  0  0  0  0  0  0  0  0
  149.1638  137.7553  157.5077 H   0  0  0  0  0  0  0  0  0  0  0  0
  148.7298  139.4499  157.3592 H   0  0  0  0  0  0  0  0  0  0  0  0
  151.5479  140.1264  155.9014 H   0  0  0  0  0  0  0  0  0  0  0  0
  151.2129  139.6793  154.2659 H   0  0  0  0  0  0  0  0  0  0  0  0
  150.4483  141.9284  154.4678 H   0  0  0  0  0  0  0  0  0  0  0  0
  149.2715  142.7733  156.0943 H   0  0  0  0  0  0  0  0  0  0  0  0
  149.7408  141.7303  158.3379 H   0  0  0  0  0  0  0  0  0  0  0  0
  150.7302  140.6265  157.3954 H   0  0  0  0  0  0  0  0  0  0  0  0
  152.2719  142.2907  156.8038 H   0  0  0  0  0  0  0  0  0  0  0  0
  151.0791  143.5663  156.8320 H   0  0  0  0  0  0  0  0  0  0  0  0
  152.4400  141.0774  159.3856 H   0  0  0  0  0  0  0  0  0  0  0  0
  153.1504  141.8427  161.6633 H   0  0  0  0  0  0  0  0  0  0  0  0
  152.9518  144.2798  162.2360 H   0  0  0  0  0  0  0  0  0  0  0  0
  152.0524  145.8496  160.5002 H   0  0  0  0  0  0  0  0  0  0  0  0
  148.4864  141.3906  156.4910 H   0  0  0  0  0  0  0  0  0  0  0  0
  1  2  1  0  0  0  0
  1 19  1  0  0  0  0
  1 20  1  0  0  0  0
  1 21  1  0  0  0  0
  2  9  1  0  0  0  0
  2  3  1  0  0  0  0
  2 22  1  0  0  0  0
  3  4  1  0  0  0  0
  3 23  1  0  0  0  0
  3 24  1  0  0  0  0
  4  5  1  0  0  0  0
  4  6  1  0  0  0  0
  5 25  1  0  0  0  0
  5 26  1  0  0  0  0
  5 27  1  0  0  0  0
  6  7  1  0  0  0  0
  6  8  1  0  0  0  0
  6 28  1  0  0  0  0
  7 29  1  0  0  0  0
  7 30  1  0  0  0  0
  7 31  1  0  0  0  0
  8  9  1  0  0  0  0
  8 32  1  0  0  0  0
  8 33  1  0  0  0  0
  9 10  1  0  0  0  0
  9 34  1  0  0  0  0
 10 11  1  0  0  0  0
 10 35  1  0  0  0  0
 10 44  1  0  0  0  0
 11 12  1  0  0  0  0
 11 36  1  0  0  0  0
 11 37  1  0  0  0  0
 12 13  1  0  0  0  0
 12 38  1  0  0  0  0
 12 39  1  0  0  0  0
 13 18  1  0  0  0  0
 13 14  2  0  0  0  0
 14 15  1  0  0  0  0
 14 40  1  0  0  0  0
 15 16  2  0  0  0  0
 15 41  1  0  0  0  0
 16 17  1  0  0  0  0
 16 42  1  0  0  0  0
 17 18  2  0  0  0  0
 17 43  1  0  0  0  0
M  CHG  1  10   1
M  END
> <s_m_source_file>
AV-unprocessed.smi

> <i_m_source_file_index>
3303

> <i_lp_mmshare_version>
43012

> <i_f3d_flags>
0

> <s_epik_input>
W0NIM11bQ0BASF0xW0NIMl1OKFtDSDNdKVtDQEBIXShbQ0gzXSlbQ0gyXVtDQEhdMVtOSF1bQ0gyXVtDSDJdYzJbY0hdW2NIXVtjSF1bY0hdbjI=

> <s_epik_cmdline>
J2VwaWtfcHl0aG9uJywgJy1waCcsICc3LjAnLCAnLXRuJywgJzgnLCAnLW1hJywgJzIwMCcsICctbWV0YWxfYmluZGluZycsICctaW1hZScsICc8aW5maWxlLm1hZT4nLCAnLW9tYWUnLCAnPG91dGZpbGUubWFlPic=

> <r_epik_Ionization_Penalty>
1.37325

> <r_epik_Ionization_Penalty_Charging>
0.000251572

> <r_epik_Ionization_Penalty_Neutral>
1.373

> <r_epik_State_Penalty>
1.46343

> <r_epik_Charging_Adjusted_Penalty>
1.46368

> <i_epik_Tot_Q>
1

> <i_epik_Tot_abs_Q>
1

> <r_epik_Metal_State_Penalty>
1.46331

> <b_epik_Metal_Only>
0

> <s_lp_Force_Field>
OPLS_2005

> <r_lp_Energy>
24.8082

> <b_lp_Chiralities_Consistent>
1

> <s_lp_Variant>
AV-unprocessed.smi:3303-23

> <Gold.Version>
5.8.1

> <Gold.Id.Protein>
6NUR|6NUR_protein|mol2

> <Gold.PLP.Fitness>
41.8592

> <Gold.PLP.PLP>
-37.1349

> <Gold.PLP.part.hbond>
-1.0000

> <Gold.PLP.part.metal>
0.0000

> <Gold.PLP.part.buried>
-4.7104

> <Gold.PLP.part.nonpolar>
-30.8878

> <Gold.PLP.part.repulsive>
0.2493

> <Gold.PLP.ligand.clash>
0.0000

> <Gold.PLP.ligand.torsion>
0.6428

> <Gold.PLP.Chemscore.Hbond>
2.0000

> <Gold.PLP.Chemscore.CHOScore>
0.0000

> <Gold.PLP.Chemscore.Metal>
0.0000

> <Gold.Chemscore.Hbonds>
donor molecule, donor type, donor heavy atom, donor atom, acceptor molecule, acceptor atom, score
      L1  H    10    35       P1  8028  1.98

> <Gold.PLP.Chemscore.Internal.Correction>
0.0100

> <Gold.Rescore>
     Score         DG    S(hbond)    S(metal)    S(lipo)     H(rot)  DE(clash)    DE(int)     intcor
     17.79     -18.54       0.98        0.00     112.63       1.33       0.21       0.54       ----

> <Gold.Chemscore.Fitness>
17.7913

> <Gold.Chemscore.DG>
-18.5427

> <Gold.Chemscore.ZeroCoef>
-5.4800

> <Gold.Chemscore.Hbond>
0.9848

> <Gold.Chemscore.Metal>
0.0000

> <Gold.Chemscore.Lipo>
112.6290

> <Gold.Chemscore.Internal_Hbond>
0.0000

> <Gold.Chemscore.DEClash>
0.2079

> <Gold.Chemscore.DEInternal>
0.5435

> <Gold.Chemscore.Rot>
1.3298

> <Gold.Chemscore.Internal.Correction>
   9.000000E+99

> <Gold.Chemscore.Hbonds>
donor molecule, donor type, donor heavy atom, donor atom, acceptor molecule, acceptor atom, score
      L1  H    10    35       P1  8028  0.92

> <Gold.Chemscore.Hbond.Weighted>
-3.2894

> <Gold.Chemscore.Metal.Weighted>
-0.0000

> <Gold.Chemscore.Lipo.Weighted>
-13.1776

> <Gold.Chemscore.Internal_Hbond.Weighted>
0.0000

> <Gold.Chemscore.DEClash.Weighted>
0.2079

> <Gold.Chemscore.DEInternal.Weighted>
0.5435

> <Gold.Chemscore.Rot.Weighted>
3.4043

> <Gold.Chemscore.Internal.Correction.Weighted>
   9.000000E+99

> <Gold.Protein.RotatedTorsions>
[ 6907 6896 6895 6894 ] final   76.30 input  -60.11 | X-H torsion
[ 7974 7965 7964 7962 ] final   21.32 input  175.53 | X-H torsion
[ 8008 7997 7996 7995 ] final  125.74 input   59.86 | X-H torsion
[ 10167 10162 10161 10158 ] final  159.01 input  -65.29 | X-H torsion
[ 10718 10713 10712 10709 ] final   39.13 input   66.30 | X-H torsion
[ 10763 10752 10751 10750 ] final  169.19 input  -60.55 | X-H torsion
[ 11005 11000 10999 10996 ] final   95.49 input  -57.11 | X-H torsion

> <Gold.Protein.ActiveResidues>
 VAL166  LYS551  ARG553  GLY616  TRP617  ASP618  TYR619  PRO620  LYS621  CYS622 
 ASP623  PHE694  ASN695  SER759  ASP760  ASP761  ALA762  ILE779  LEU786  VAL792 
 PHE793  MET794  SER795  GLU796  ALA797  LYS798  CYS799  TRP800  GLU811  SER814 

> <Gold.Protein.RotatedAtoms>
  152.5067  134.3990  159.9409 H   0  0  0  0  0  0  0  0  0  0  0  0  # atno 6907 bound_to 6896
  151.3953  133.3769  159.2733 H   0  0  0  0  0  0  0  0  0  0  0  0  # atno 6908 bound_to 6896
  150.9402  134.8833  159.7666 H   0  0  0  0  0  0  0  0  0  0  0  0  # atno 6909 bound_to 6896
  146.2076  139.8044  142.8714 H   0  0  0  0  0  0  0  0  0  0  0  0  # atno 7974 bound_to 7965
  156.2843  140.2709  156.1999 H   0  0  0  0  0  0  0  0  0  0  0  0  # atno 8008 bound_to 7997
  155.0372  140.0386  157.2514 H   0  0  0  0  0  0  0  0  0  0  0  0  # atno 8009 bound_to 7997
  154.7305  140.2705  155.6466 H   0  0  0  0  0  0  0  0  0  0  0  0  # atno 8010 bound_to 7997
  139.4830  144.4771  151.8496 H   0  0  0  0  0  0  0  0  0  0  0  0  # atno 10167 bound_to 10162
  157.3670  130.7680  149.7090 H   0  0  0  0  0  0  0  0  0  0  0  0  # atno 10718 bound_to 10713
  154.3795  135.2753  155.2219 H   0  0  0  0  0  0  0  0  0  0  0  0  # atno 10763 bound_to 10752
  154.4332  135.5972  153.6085 H   0  0  0  0  0  0  0  0  0  0  0  0  # atno 10764 bound_to 10752
  152.9835  135.6001  154.4036 H   0  0  0  0  0  0  0  0  0  0  0  0  # atno 10765 bound_to 10752
  139.8789  134.8901  156.4019 H   0  0  0  0  0  0  0  0  0  0  0  0  # atno 11005 bound_to 11000
  145.3262  141.0256  143.3472 LP  0  0  0  0  0  0  0  0  0  0  0  0  # atno 17320 bound_to 7965
  144.8831  139.4876  143.6713 LP  0  0  0  0  0  0  0  0  0  0  0  0  # atno 17321 bound_to 7965
  140.4244  144.2200  150.5887 LP  0  0  0  0  0  0  0  0  0  0  0  0  # atno 17342 bound_to 10162
  140.4842  143.2369  151.8912 LP  0  0  0  0  0  0  0  0  0  0  0  0  # atno 17343 bound_to 10162
  155.9748  130.4098  150.3896 LP  0  0  0  0  0  0  0  0  0  0  0  0  # atno 17370 bound_to 10713
  157.1982  131.0431  151.2664 LP  0  0  0  0  0  0  0  0  0  0  0  0  # atno 17371 bound_to 10713
  140.9261  133.7611  155.9966 LP  0  0  0  0  0  0  0  0  0  0  0  0  # atno 17394 bound_to 11000
  140.8384  134.3095  157.5323 LP  0  0  0  0  0  0  0  0  0  0  0  0  # atno 17395 bound_to 11000

$$$$
