AV-unprocessed.smi:2217|AV-procd|sdf|8974|dock6
  -GOLD-   2272012183D 1   1.00000     0.00000
 Structure written by MMmdl.
 45 48  0  0  0  0  0  0  0  0  1 V2000
  150.9030  141.9155  156.9249 C   0  0  0  0  0  0  0  0  0  0  0  0
  150.4099  140.6341  156.2862 C   0  0  0  0  0  0  0  0  0  0  0  0
  151.1589  139.9795  155.2901 C   0  0  0  0  0  0  0  0  0  0  0  0
  150.6505  138.7921  154.7290 C   0  0  0  0  0  0  0  0  0  0  0  0
  149.4093  138.2835  155.1743 C   0  0  0  0  0  0  0  0  0  0  0  0
  148.9952  137.0825  154.5251 N   0  0  0  0  0  0  0  0  0  0  0  0
  148.2553  136.0414  154.9640 C   0  0  0  0  0  0  0  0  0  0  0  0
  147.8038  136.0166  156.1076 O   0  0  0  0  0  0  0  0  0  0  0  0
  148.0465  135.0530  154.0821 N   0  0  0  0  0  0  0  0  0  0  0  0
  147.3018  133.8200  154.3520 C   0  0  2  0  0  0  0  0  0  0  0  0
  148.1682  132.6799  154.8957 C   0  0  2  0  0  0  0  0  0  0  0  0
  149.4854  132.5805  155.5771 C   0  0  0  0  0  0  0  0  0  0  0  0
  150.0210  131.3533  154.7931 C   0  0  0  0  0  0  0  0  0  0  0  0
  149.0847  131.1344  153.7074 O   0  0  0  0  0  0  0  0  0  0  0  0
  148.5452  132.4170  153.4524 C   0  0  1  0  0  0  0  0  0  0  0  0
  147.1158  132.8885  153.0925 C   0  0  0  0  0  0  0  0  0  0  0  0
  145.9986  131.8261  153.1367 C   0  0  0  0  0  0  0  0  0  0  0  0
  145.1282  131.9926  151.8905 C   0  0  0  0  0  0  0  0  0  0  0  0
  146.0475  132.6555  150.8756 C   0  0  0  0  0  0  0  0  0  0  0  0
  146.9288  133.5646  151.7275 C   0  0  0  0  0  0  0  0  0  0  0  0
  148.6947  138.9269  156.1329 N   0  0  0  0  0  0  0  0  0  0  0  0
  149.1813  140.0647  156.6709 C   0  0  0  0  0  0  0  0  0  0  0  0
  151.9432  142.1127  156.6636 H   0  0  0  0  0  0  0  0  0  0  0  0
  150.8322  141.8505  158.0111 H   0  0  0  0  0  0  0  0  0  0  0  0
  150.2996  142.7597  156.5907 H   0  0  0  0  0  0  0  0  0  0  0  0
  152.1068  140.3770  154.9578 H   0  0  0  0  0  0  0  0  0  0  0  0
  151.2136  138.2787  153.9630 H   0  0  0  0  0  0  0  0  0  0  0  0
  149.2720  137.0173  153.5564 H   0  0  0  0  0  0  0  0  0  0  0  0
  148.4509  135.1511  153.1613 H   0  0  0  0  0  0  0  0  0  0  0  0
  146.3791  133.9760  154.9134 H   0  0  0  0  0  0  0  0  0  0  0  0
  147.5020  131.9089  155.2959 H   0  0  0  0  0  0  0  0  0  0  0  0
  150.1015  133.4664  155.4179 H   0  0  0  0  0  0  0  0  0  0  0  0
  149.3971  132.3911  156.6471 H   0  0  0  0  0  0  0  0  0  0  0  0
  151.0192  131.5508  154.4003 H   0  0  0  0  0  0  0  0  0  0  0  0
  150.0730  130.4608  155.4173 H   0  0  0  0  0  0  0  0  0  0  0  0
  149.3198  133.0836  153.0587 H   0  0  0  0  0  0  0  0  0  0  0  0
  146.4327  130.8254  153.1349 H   0  0  0  0  0  0  0  0  0  0  0  0
  145.3913  131.8999  154.0394 H   0  0  0  0  0  0  0  0  0  0  0  0
  144.7155  131.0485  151.5338 H   0  0  0  0  0  0  0  0  0  0  0  0
  144.2936  132.6582  152.1149 H   0  0  0  0  0  0  0  0  0  0  0  0
  146.6628  131.8987  150.3872 H   0  0  0  0  0  0  0  0  0  0  0  0
  145.5035  133.1974  150.1015 H   0  0  0  0  0  0  0  0  0  0  0  0
  146.4274  134.5251  151.8533 H   0  0  0  0  0  0  0  0  0  0  0  0
  147.8773  133.7697  151.2298 H   0  0  0  0  0  0  0  0  0  0  0  0
  148.5706  140.5322  157.4292 H   0  0  0  0  0  0  0  0  0  0  0  0
  1  2  1  0  0  0  0
  1 23  1  0  0  0  0
  1 24  1  0  0  0  0
  1 25  1  0  0  0  0
  2 22  1  0  0  0  0
  2  3  2  0  0  0  0
  3  4  1  0  0  0  0
  3 26  1  0  0  0  0
  4  5  2  0  0  0  0
  4 27  1  0  0  0  0
  5  6  1  0  0  0  0
  5 21  1  0  0  0  0
  6  7  1  0  0  0  0
  6 28  1  0  0  0  0
  7  8  2  0  0  0  0
  7  9  1  0  0  0  0
  9 10  1  0  0  0  0
  9 29  1  0  0  0  0
 10 16  1  0  0  0  0
 10 11  1  0  0  0  0
 10 30  1  0  0  0  0
 11 15  1  0  0  0  0
 11 12  1  0  0  0  0
 11 31  1  0  0  0  0
 12 13  1  0  0  0  0
 12 32  1  0  0  0  0
 12 33  1  0  0  0  0
 13 14  1  0  0  0  0
 13 34  1  0  0  0  0
 13 35  1  0  0  0  0
 14 15  1  0  0  0  0
 15 16  1  0  0  0  0
 15 36  1  0  0  0  0
 16 20  1  0  0  0  0
 16 17  1  0  0  0  0
 17 18  1  0  0  0  0
 17 37  1  0  0  0  0
 17 38  1  0  0  0  0
 18 19  1  0  0  0  0
 18 39  1  0  0  0  0
 18 40  1  0  0  0  0
 19 20  1  0  0  0  0
 19 41  1  0  0  0  0
 19 42  1  0  0  0  0
 20 43  1  0  0  0  0
 20 44  1  0  0  0  0
 21 22  2  0  0  0  0
 22 45  1  0  0  0  0
M  END
> <s_m_source_file>
AV-unprocessed.smi

> <i_m_source_file_index>
2217

> <i_lp_mmshare_version>
43012

> <i_f3d_flags>
0

> <s_epik_input>
W0NIM11jMVtjSF1bY0hdYyhuW2NIXTEpW05IXUMoPU8pW05IXVtDQEBIXTJbQ0BASF0oW0NIMl1bQ0gyXU8zKVtDQEhdM0MyNFtDSDJdW0NIMl1bQ0gyXVtDSDJdNA==

> <s_epik_cmdline>
J2VwaWtfcHl0aG9uJywgJy1waCcsICc3LjAnLCAnLXRuJywgJzgnLCAnLW1hJywgJzIwMCcsICctbWV0YWxfYmluZGluZycsICctaW1hZScsICc8aW5maWxlLm1hZT4nLCAnLW9tYWUnLCAnPG91dGZpbGUubWFlPic=

> <r_lp_tautomer_probability>
1

> <r_epik_Ionization_Penalty>
6.14796e-05

> <r_epik_Ionization_Penalty_Charging>
0

> <r_epik_Ionization_Penalty_Neutral>
6.14796e-05

> <r_epik_State_Penalty>
-0

> <r_epik_Charging_Adjusted_Penalty>
0

> <i_epik_Tot_Q>
0

> <i_epik_Tot_abs_Q>
0

> <r_epik_Metal_State_Penalty>
-0

> <b_epik_Metal_Only>
0

> <s_lp_Force_Field>
OPLS_2005

> <r_lp_Energy>
82.2768

> <b_lp_Chiralities_Consistent>
1

> <s_lp_Variant>
AV-unprocessed.smi:2217-7

> <Gold.Version>
5.8.1

> <Gold.Id.Protein>
6NUR|6NUR_protein|mol2

> <Gold.PLP.Fitness>
37.0539

> <Gold.PLP.PLP>
-31.6491

> <Gold.PLP.part.hbond>
-2.0000

> <Gold.PLP.part.metal>
0.0000

> <Gold.PLP.part.buried>
-2.3492

> <Gold.PLP.part.nonpolar>
-26.9540

> <Gold.PLP.part.repulsive>
0.1285

> <Gold.PLP.ligand.clash>
0.0000

> <Gold.PLP.ligand.torsion>
0.3984

> <Gold.PLP.Chemscore.Hbond>
1.9760

> <Gold.PLP.Chemscore.CHOScore>
0.0000

> <Gold.PLP.Chemscore.Metal>
0.0000

> <Gold.Chemscore.Hbonds>
donor molecule, donor type, donor heavy atom, donor atom, acceptor molecule, acceptor atom, score
      L1  H     6    28       P1  7948  0.96
      L1  H     9    29       P1  7948  0.99

> <Gold.PLP.Chemscore.Internal.Correction>
0.2736

> <Gold.Rescore>
     Score         DG    S(hbond)    S(metal)    S(lipo)     H(rot)  DE(clash)    DE(int)     intcor
     17.89     -18.55       1.78        0.00      82.64       1.00       0.15       0.51       ----

> <Gold.Chemscore.Fitness>
17.8903

> <Gold.Chemscore.DG>
-18.5482

> <Gold.Chemscore.ZeroCoef>
-5.4800

> <Gold.Chemscore.Hbond>
1.7842

> <Gold.Chemscore.Metal>
0.0000

> <Gold.Chemscore.Lipo>
82.6408

> <Gold.Chemscore.Internal_Hbond>
0.0000

> <Gold.Chemscore.DEClash>
0.1528

> <Gold.Chemscore.DEInternal>
0.5051

> <Gold.Chemscore.Rot>
1.0000

> <Gold.Chemscore.Internal.Correction>
   9.000000E+99

> <Gold.Chemscore.Hbonds>
donor molecule, donor type, donor heavy atom, donor atom, acceptor molecule, acceptor atom, score
      L1  H     6    28       P1  7948  0.90
      L1  H     9    29       P1  7948  0.82

> <Gold.Chemscore.Hbond.Weighted>
-5.9592

> <Gold.Chemscore.Metal.Weighted>
-0.0000

> <Gold.Chemscore.Lipo.Weighted>
-9.6690

> <Gold.Chemscore.Internal_Hbond.Weighted>
0.0000

> <Gold.Chemscore.DEClash.Weighted>
0.1528

> <Gold.Chemscore.DEInternal.Weighted>
0.5051

> <Gold.Chemscore.Rot.Weighted>
2.5600

> <Gold.Chemscore.Internal.Correction.Weighted>
   9.000000E+99

> <Gold.Protein.RotatedTorsions>
[ 6907 6896 6895 6894 ] final    4.04 input  -60.11 | X-H torsion
[ 7974 7965 7964 7962 ] final   81.29 input  175.53 | X-H torsion
[ 8008 7997 7996 7995 ] final   84.14 input   59.86 | X-H torsion
[ 10167 10162 10161 10158 ] final   73.83 input  -65.29 | X-H torsion
[ 10718 10713 10712 10709 ] final    7.05 input   66.30 | X-H torsion
[ 10763 10752 10751 10750 ] final   -4.56 input  -60.55 | X-H torsion
[ 11005 11000 10999 10996 ] final  -54.38 input  -57.11 | X-H torsion

> <Gold.Protein.ActiveResidues>
 VAL166  LYS551  ARG553  GLY616  TRP617  ASP618  TYR619  PRO620  LYS621  CYS622 
 ASP623  PHE694  ASN695  SER759  ASP760  ASP761  ALA762  ILE779  LEU786  VAL792 
 PHE793  MET794  SER795  GLU796  ALA797  LYS798  CYS799  TRP800  GLU811  SER814 

> <Gold.Protein.RotatedAtoms>
  151.6348  135.1019  160.0128 H   0  0  0  0  0  0  0  0  0  0  0  0  # atno 6907 bound_to 6896
  152.4086  133.6924  159.6387 H   0  0  0  0  0  0  0  0  0  0  0  0  # atno 6908 bound_to 6896
  150.7979  133.8581  159.3265 H   0  0  0  0  0  0  0  0  0  0  0  0  # atno 6909 bound_to 6896
  145.6400  139.2423  143.2036 H   0  0  0  0  0  0  0  0  0  0  0  0  # atno 7974 bound_to 7965
  155.9332  140.3413  155.6266 H   0  0  0  0  0  0  0  0  0  0  0  0  # atno 8008 bound_to 7997
  155.7132  140.0774  157.2381 H   0  0  0  0  0  0  0  0  0  0  0  0  # atno 8009 bound_to 7997
  154.4089  140.1619  156.2306 H   0  0  0  0  0  0  0  0  0  0  0  0  # atno 8010 bound_to 7997
  140.0203  144.5546  150.7587 H   0  0  0  0  0  0  0  0  0  0  0  0  # atno 10167 bound_to 10162
  156.9312  130.5826  149.5649 H   0  0  0  0  0  0  0  0  0  0  0  0  # atno 10718 bound_to 10713
  153.3866  135.7000  153.6526 H   0  0  0  0  0  0  0  0  0  0  0  0  # atno 10763 bound_to 10752
  153.5116  135.3631  155.2589 H   0  0  0  0  0  0  0  0  0  0  0  0  # atno 10764 bound_to 10752
  154.8698  135.4136  154.3174 H   0  0  0  0  0  0  0  0  0  0  0  0  # atno 10765 bound_to 10752
  141.1023  133.6617  156.4311 H   0  0  0  0  0  0  0  0  0  0  0  0  # atno 11005 bound_to 11000
  146.1288  140.7213  142.9422 LP  0  0  0  0  0  0  0  0  0  0  0  0  # atno 17320 bound_to 7965
  144.7161  140.4213  143.7043 LP  0  0  0  0  0  0  0  0  0  0  0  0  # atno 17321 bound_to 7965
  140.7345  143.2730  151.3829 LP  0  0  0  0  0  0  0  0  0  0  0  0  # atno 17342 bound_to 10162
  139.6145  144.1032  152.2331 LP  0  0  0  0  0  0  0  0  0  0  0  0  # atno 17343 bound_to 10162
  156.0446  130.5524  150.8852 LP  0  0  0  0  0  0  0  0  0  0  0  0  # atno 17370 bound_to 10713
  157.5846  131.0946  150.9217 LP  0  0  0  0  0  0  0  0  0  0  0  0  # atno 17371 bound_to 10713
  140.4992  134.6502  157.5241 LP  0  0  0  0  0  0  0  0  0  0  0  0  # atno 17394 bound_to 11000
  139.9879  134.7033  155.9742 LP  0  0  0  0  0  0  0  0  0  0  0  0  # atno 17395 bound_to 11000

$$$$
