AV-unprocessed.smi:2462|AV-procd|sdf|9717|dock1
  -GOLD-   2272013353D 1   1.00000     0.00000
 Structure written by MMmdl.
 40 41  0  0  0  0  0  0  0  0  1 V2000
  148.6085  138.5860  153.8064 C   0  0  0  0  0  0  0  0  0  0  0  0
  149.4878  139.5391  154.5960 C   0  0  0  0  0  0  0  0  0  0  0  0
  148.9288  140.7894  154.8704 N   0  0  0  0  0  0  0  0  0  0  0  0
  149.6156  141.6743  155.5155 C   0  0  0  0  0  0  0  0  0  0  0  0
  150.9310  141.4269  155.9463 N   0  0  0  0  0  0  0  0  0  0  0  0
  151.5975  142.5403  156.6567 C   0  0  0  0  0  0  0  0  0  0  0  0
  151.1231  142.7793  158.1262 C   0  0  1  0  0  0  0  0  0  0  0  0
  149.7970  143.2696  158.0555 O   0  0  0  0  0  0  0  0  0  0  0  0
  151.0007  141.4437  158.8997 C   0  0  0  0  0  0  0  0  0  0  0  0
  152.3607  140.8816  159.3509 C   0  0  0  0  0  0  0  0  0  0  0  0
  153.1437  141.9050  160.1924 C   0  0  1  0  0  0  0  0  0  0  0  0
  154.5001  141.3431  160.6412 C   0  0  0  0  0  0  0  0  0  0  0  0
  153.3101  143.2208  159.4120 C   0  0  0  0  0  0  0  0  0  0  0  0
  151.9551  143.7897  158.9563 C   0  0  0  0  0  0  0  0  0  0  0  0
  151.5217  140.2056  155.7819 C   0  0  0  0  0  0  0  0  0  0  0  0
  152.6374  139.9522  156.2386 O   0  0  0  0  0  0  0  0  0  0  0  0
  150.7384  139.2164  155.0234 C   0  0  0  0  0  0  0  0  0  0  0  0
  151.3979  137.8685  154.7577 C   0  0  0  0  0  0  0  0  0  0  0  0
  148.4138  137.6806  154.3817 H   0  0  0  0  0  0  0  0  0  0  0  0
  149.0918  138.3081  152.8695 H   0  0  0  0  0  0  0  0  0  0  0  0
  147.6472  139.0409  153.5636 H   0  0  0  0  0  0  0  0  0  0  0  0
  149.2182  142.6592  155.7654 H   0  0  0  0  0  0  0  0  0  0  0  0
  152.6789  142.3887  156.6371 H   0  0  0  0  0  0  0  0  0  0  0  0
  151.4667  143.4615  156.0903 H   0  0  0  0  0  0  0  0  0  0  0  0
  149.7504  143.9099  157.3621 H   0  0  0  0  0  0  0  0  0  0  0  0
  150.3879  141.5903  159.7909 H   0  0  0  0  0  0  0  0  0  0  0  0
  150.4762  140.7021  158.2951 H   0  0  0  0  0  0  0  0  0  0  0  0
  152.1992  139.9730  159.9320 H   0  0  0  0  0  0  0  0  0  0  0  0
  152.9516  140.5831  158.4850 H   0  0  0  0  0  0  0  0  0  0  0  0
  152.5628  142.1177  161.0910 H   0  0  0  0  0  0  0  0  0  0  0  0
  155.1342  141.1069  159.7859 H   0  0  0  0  0  0  0  0  0  0  0  0
  154.3734  140.4305  161.2241 H   0  0  0  0  0  0  0  0  0  0  0  0
  155.0356  142.0603  161.2640 H   0  0  0  0  0  0  0  0  0  0  0  0
  153.8197  143.9580  160.0331 H   0  0  0  0  0  0  0  0  0  0  0  0
  153.9555  143.0529  158.5528 H   0  0  0  0  0  0  0  0  0  0  0  0
  152.1026  144.7233  158.4131 H   0  0  0  0  0  0  0  0  0  0  0  0
  151.3935  144.0628  159.8511 H   0  0  0  0  0  0  0  0  0  0  0  0
  152.3236  138.0070  154.1983 H   0  0  0  0  0  0  0  0  0  0  0  0
  150.7692  137.1873  154.1868 H   0  0  0  0  0  0  0  0  0  0  0  0
  151.6421  137.3768  155.6999 H   0  0  0  0  0  0  0  0  0  0  0  0
  1  2  1  0  0  0  0
  1 19  1  0  0  0  0
  1 20  1  0  0  0  0
  1 21  1  0  0  0  0
  2 17  2  0  0  0  0
  2  3  1  0  0  0  0
  3  4  2  0  0  0  0
  4  5  1  0  0  0  0
  4 22  1  0  0  0  0
  5  6  1  0  0  0  0
  5 15  1  0  0  0  0
  6  7  1  0  0  0  0
  6 23  1  0  0  0  0
  6 24  1  0  0  0  0
  7 14  1  0  0  0  0
  7  8  1  0  0  0  0
  7  9  1  0  0  0  0
  8 25  1  0  0  0  0
  9 10  1  0  0  0  0
  9 26  1  0  0  0  0
  9 27  1  0  0  0  0
 10 11  1  0  0  0  0
 10 28  1  0  0  0  0
 10 29  1  0  0  0  0
 11 12  1  0  0  0  0
 11 13  1  0  0  0  0
 11 30  1  0  0  0  0
 12 31  1  0  0  0  0
 12 32  1  0  0  0  0
 12 33  1  0  0  0  0
 13 14  1  0  0  0  0
 13 34  1  0  0  0  0
 13 35  1  0  0  0  0
 14 36  1  0  0  0  0
 14 37  1  0  0  0  0
 15 16  2  0  0  0  0
 15 17  1  0  0  0  0
 17 18  1  0  0  0  0
 18 38  1  0  0  0  0
 18 39  1  0  0  0  0
 18 40  1  0  0  0  0
M  END
> <s_m_source_file>
AV-unprocessed.smi

> <i_m_source_file_index>
2462

> <i_lp_mmshare_version>
43012

> <i_f3d_flags>
0

> <s_epik_input>
W0NIM11jMW5bY0hdbihjKD1PKWMxW0NIM10pW0NIMl1bQ0BAXTIoW09IXSlbQ0gyXVtDSDJdW0NAQEhdKFtDSDNdKVtDSDJdW0NIMl0y

> <s_epik_cmdline>
J2VwaWtfcHl0aG9uJywgJy1waCcsICc3LjAnLCAnLXRuJywgJzgnLCAnLW1hJywgJzIwMCcsICctbWV0YWxfYmluZGluZycsICctaW1hZScsICc8aW5maWxlLm1hZT4nLCAnLW9tYWUnLCAnPG91dGZpbGUubWFlPic=

> <r_lp_tautomer_probability>
1

> <r_epik_Ionization_Penalty>
0.000179745

> <r_epik_Ionization_Penalty_Charging>
2.35483e-07

> <r_epik_Ionization_Penalty_Neutral>
0.00017951

> <r_epik_State_Penalty>
-0

> <r_epik_Charging_Adjusted_Penalty>
2.35483e-07

> <i_epik_Tot_Q>
0

> <i_epik_Tot_abs_Q>
0

> <r_epik_Metal_State_Penalty>
-0

> <b_epik_Metal_Only>
0

> <s_lp_Force_Field>
OPLS_2005

> <r_lp_Energy>
24.5365

> <b_lp_Chiralities_Consistent>
1

> <s_lp_Variant>
AV-unprocessed.smi:2462-1

> <Gold.Version>
5.8.1

> <Gold.Id.Protein>
6NUR|6NUR_protein|mol2

> <Gold.PLP.Fitness>
46.4585

> <Gold.PLP.PLP>
-38.0233

> <Gold.PLP.part.hbond>
-2.1065

> <Gold.PLP.part.metal>
0.0000

> <Gold.PLP.part.buried>
-1.1490

> <Gold.PLP.part.nonpolar>
-34.2500

> <Gold.PLP.part.repulsive>
0.1139

> <Gold.PLP.ligand.clash>
0.0000

> <Gold.PLP.ligand.torsion>
0.3214

> <Gold.PLP.Chemscore.Hbond>
2.0000

> <Gold.PLP.Chemscore.CHOScore>
1.0000

> <Gold.PLP.Chemscore.Metal>
0.0000

> <Gold.Chemscore.Hbonds>
donor molecule, donor type, donor heavy atom, donor atom, acceptor molecule, acceptor atom, score
      L1  H     8    25       P1  8028  0.94
      P1  H  7997  8009       L1    16  1.00
      L1  C     4    22       P1  8028  1.00

> <Gold.PLP.Chemscore.Internal.Correction>
0.0780

> <Gold.Rescore>
     Score         DG    S(hbond)    S(metal)    S(lipo)     H(rot)  DE(clash)    DE(int)     intcor
     16.54     -17.71       1.39        0.00     101.55       1.68       0.70       0.47       ----

> <Gold.Chemscore.Fitness>
16.5360

> <Gold.Chemscore.DG>
-17.7077

> <Gold.Chemscore.ZeroCoef>
-5.4800

> <Gold.Chemscore.Hbond>
1.3882

> <Gold.Chemscore.Metal>
0.0000

> <Gold.Chemscore.Lipo>
101.5480

> <Gold.Chemscore.Internal_Hbond>
0.0000

> <Gold.Chemscore.DEClash>
0.6981

> <Gold.Chemscore.DEInternal>
0.4736

> <Gold.Chemscore.Rot>
1.6758

> <Gold.Chemscore.Internal.Correction>
   9.000000E+99

> <Gold.Chemscore.Hbonds>
donor molecule, donor type, donor heavy atom, donor atom, acceptor molecule, acceptor atom, score
      L1  H     8    25       P1  8028  0.57
      P1  H  7997  8009       L1    16  0.99

> <Gold.Chemscore.Hbond.Weighted>
-4.6365

> <Gold.Chemscore.Metal.Weighted>
-0.0000

> <Gold.Chemscore.Lipo.Weighted>
-11.8811

> <Gold.Chemscore.Internal_Hbond.Weighted>
0.0000

> <Gold.Chemscore.DEClash.Weighted>
0.6981

> <Gold.Chemscore.DEInternal.Weighted>
0.4736

> <Gold.Chemscore.Rot.Weighted>
4.2899

> <Gold.Chemscore.Internal.Correction.Weighted>
   9.000000E+99

> <Gold.Protein.RotatedTorsions>
[ 6907 6896 6895 6894 ] final  -35.74 input  -60.11 | X-H torsion
[ 7974 7965 7964 7962 ] final  -91.51 input  175.53 | X-H torsion
[ 8008 7997 7996 7995 ] final -150.87 input   59.86 | X-H torsion
[ 10167 10162 10161 10158 ] final   93.86 input  -65.29 | X-H torsion
[ 10718 10713 10712 10709 ] final  -50.28 input   66.30 | X-H torsion
[ 10763 10752 10751 10750 ] final   76.91 input  -60.55 | X-H torsion
[ 11005 11000 10999 10996 ] final  -39.67 input  -57.11 | X-H torsion

> <Gold.Protein.ActiveResidues>
 VAL166  LYS551  ARG553  GLY616  TRP617  ASP618  TYR619  PRO620  LYS621  CYS622 
 ASP623  PHE694  ASN695  SER759  ASP760  ASP761  ALA762  ILE779  LEU786  VAL792 
 PHE793  MET794  SER795  GLU796  ALA797  LYS798  CYS799  TRP800  GLU811  SER814 

> <Gold.Protein.RotatedAtoms>
  151.0360  134.9573  159.8136 H   0  0  0  0  0  0  0  0  0  0  0  0  # atno 6907 bound_to 6896
  152.5355  134.2719  159.8984 H   0  0  0  0  0  0  0  0  0  0  0  0  # atno 6908 bound_to 6896
  151.2730  133.4204  159.2656 H   0  0  0  0  0  0  0  0  0  0  0  0  # atno 6909 bound_to 6896
  145.4122  140.9546  143.2228 H   0  0  0  0  0  0  0  0  0  0  0  0  # atno 7974 bound_to 7965
  155.6304  140.0691  157.2651 H   0  0  0  0  0  0  0  0  0  0  0  0  # atno 8008 bound_to 7997
  154.4207  140.1768  156.1515 H   0  0  0  0  0  0  0  0  0  0  0  0  # atno 8009 bound_to 7997
  155.9938  140.3342  155.6782 H   0  0  0  0  0  0  0  0  0  0  0  0  # atno 8010 bound_to 7997
  139.8139  144.6761  150.9604 H   0  0  0  0  0  0  0  0  0  0  0  0  # atno 10167 bound_to 10162
  156.1815  130.4150  149.9500 H   0  0  0  0  0  0  0  0  0  0  0  0  # atno 10718 bound_to 10713
  153.0760  135.4933  154.8405 H   0  0  0  0  0  0  0  0  0  0  0  0  # atno 10763 bound_to 10752
  154.7088  135.3016  154.9232 H   0  0  0  0  0  0  0  0  0  0  0  0  # atno 10764 bound_to 10752
  153.9932  135.6775  153.4808 H   0  0  0  0  0  0  0  0  0  0  0  0  # atno 10765 bound_to 10752
  141.0119  133.6904  156.2218 H   0  0  0  0  0  0  0  0  0  0  0  0  # atno 11005 bound_to 11000
  144.8301  139.5642  143.6947 LP  0  0  0  0  0  0  0  0  0  0  0  0  # atno 17320 bound_to 7965
  146.2699  139.6610  142.9303 LP  0  0  0  0  0  0  0  0  0  0  0  0  # atno 17321 bound_to 7965
  140.7816  143.4157  151.0920 LP  0  0  0  0  0  0  0  0  0  0  0  0  # atno 17342 bound_to 10162
  139.7822  143.8339  152.3139 LP  0  0  0  0  0  0  0  0  0  0  0  0  # atno 17343 bound_to 10162
  156.7269  130.9028  151.3622 LP  0  0  0  0  0  0  0  0  0  0  0  0  # atno 17370 bound_to 10713
  157.6871  130.9196  150.0416 LP  0  0  0  0  0  0  0  0  0  0  0  0  # atno 17371 bound_to 10713
  140.6720  134.4858  157.5587 LP  0  0  0  0  0  0  0  0  0  0  0  0  # atno 17394 bound_to 11000
  139.9094  134.8377  156.1582 LP  0  0  0  0  0  0  0  0  0  0  0  0  # atno 17395 bound_to 11000

$$$$
