AV-unprocessed.smi:372|AV-procd|sdf|2444|dock7
  -GOLD-   2262022383D 1   1.00000     0.00000
 Structure written by MMmdl.
 23 24  0  0  0  0  0  0  0  0  1 V2000
  150.0916  139.7676  158.0871 C   0  0  0  0  0  0  0  0  0  0  0  0
  150.8909  140.6952  157.1518 C   0  0  2  0  0  0  0  0  0  0  0  0
  151.6465  141.7836  157.9344 C   0  0  0  0  0  0  0  0  0  0  0  0
  151.4651  143.1624  157.6622 C   0  0  0  0  0  0  0  0  0  0  0  0
  152.1818  144.1069  158.4219 C   0  0  0  0  0  0  0  0  0  0  0  0
  153.0525  143.6510  159.4284 C   0  0  0  0  0  0  0  0  0  0  0  0
  153.1652  142.2631  159.6337 C   0  0  0  0  0  0  0  0  0  0  0  0
  152.4808  141.3510  158.9119 N   0  0  0  0  0  0  0  0  0  0  0  0
  150.0090  141.2354  156.1238 N   0  0  0  0  0  0  0  0  0  0  0  0
  150.3890  140.9166  154.8800 C   0  0  0  0  0  0  0  0  0  0  0  0
  149.8381  141.2747  153.8419 O   0  0  0  0  0  0  0  0  0  0  0  0
  151.4637  140.1296  154.9701 N   0  0  0  0  0  0  0  0  0  0  0  0
  151.8267  139.9078  156.2322 C   0  0  0  0  0  0  0  0  0  0  0  0
  152.7450  139.1802  156.6080 O   0  0  0  0  0  0  0  0  0  0  0  0
  150.7375  139.2881  158.8237 H   0  0  0  0  0  0  0  0  0  0  0  0
  149.5848  138.9762  157.5331 H   0  0  0  0  0  0  0  0  0  0  0  0
  149.3301  140.3259  158.6325 H   0  0  0  0  0  0  0  0  0  0  0  0
  150.7932  143.5080  156.8911 H   0  0  0  0  0  0  0  0  0  0  0  0
  152.0640  145.1642  158.2359 H   0  0  0  0  0  0  0  0  0  0  0  0
  153.6178  144.3477  160.0296 H   0  0  0  0  0  0  0  0  0  0  0  0
  153.8208  141.8747  160.3988 H   0  0  0  0  0  0  0  0  0  0  0  0
  149.2185  141.8244  156.3414 H   0  0  0  0  0  0  0  0  0  0  0  0
  151.9355  139.7301  154.1719 H   0  0  0  0  0  0  0  0  0  0  0  0
  1  2  1  0  0  0  0
  1 15  1  0  0  0  0
  1 16  1  0  0  0  0
  1 17  1  0  0  0  0
  2 13  1  0  0  0  0
  2  3  1  0  0  0  0
  2  9  1  0  0  0  0
  3  8  1  0  0  0  0
  3  4  2  0  0  0  0
  4  5  1  0  0  0  0
  4 18  1  0  0  0  0
  5  6  2  0  0  0  0
  5 19  1  0  0  0  0
  6  7  1  0  0  0  0
  6 20  1  0  0  0  0
  7  8  2  0  0  0  0
  7 21  1  0  0  0  0
  9 10  1  0  0  0  0
  9 22  1  0  0  0  0
 10 11  2  0  0  0  0
 10 12  1  0  0  0  0
 12 13  1  0  0  0  0
 12 23  1  0  0  0  0
 13 14  2  0  0  0  0
M  END
> <s_m_source_file>
AV-unprocessed.smi

> <i_m_source_file_index>
372

> <i_lp_mmshare_version>
43012

> <i_f3d_flags>
0

> <s_epik_input>
Tz1DMVtOSF1DKD1PKVtOSF1bQ0BAXTEoW0NIM10pYzJbY0hdW2NIXVtjSF1bY0hdbjI=

> <s_epik_cmdline>
J2VwaWtfcHl0aG9uJywgJy1waCcsICc3LjAnLCAnLXRuJywgJzgnLCAnLW1hJywgJzIwMCcsICctbWV0YWxfYmluZGluZycsICctaW1hZScsICc8aW5maWxlLm1hZT4nLCAnLW9tYWUnLCAnPG91dGZpbGUubWFlPic=

> <r_lp_tautomer_probability>
1

> <r_epik_Ionization_Penalty>
0.0293563

> <r_epik_Ionization_Penalty_Charging>
0

> <r_epik_Ionization_Penalty_Neutral>
0.0293563

> <r_epik_State_Penalty>
0.034944

> <r_epik_Charging_Adjusted_Penalty>
0.034944

> <i_epik_Tot_Q>
0

> <i_epik_Tot_abs_Q>
0

> <r_epik_Metal_State_Penalty>
0.534399

> <b_epik_Metal_Only>
0

> <s_lp_Force_Field>
OPLS_2005

> <r_lp_Energy>
17.2904

> <b_lp_Chiralities_Consistent>
1

> <s_lp_Variant>
AV-unprocessed.smi:372-2

> <Gold.Version>
5.8.1

> <Gold.Id.Protein>
6NUR|6NUR_protein|mol2

> <Gold.PLP.Fitness>
31.2684

> <Gold.PLP.PLP>
-26.8417

> <Gold.PLP.part.hbond>
-3.0000

> <Gold.PLP.part.metal>
0.0000

> <Gold.PLP.part.buried>
-3.0972

> <Gold.PLP.part.nonpolar>
-22.4372

> <Gold.PLP.part.repulsive>
2.7862

> <Gold.PLP.ligand.clash>
0.0000

> <Gold.PLP.ligand.torsion>
0.1252

> <Gold.PLP.Chemscore.Hbond>
1.5200

> <Gold.PLP.Chemscore.CHOScore>
0.0000

> <Gold.PLP.Chemscore.Metal>
0.0000

> <Gold.Chemscore.Hbonds>
donor molecule, donor type, donor heavy atom, donor atom, acceptor molecule, acceptor atom, score
      P1  H  7997  8009       L1    14  1.00
      P1  H  8011  8017       L1    11  0.78

> <Gold.PLP.Chemscore.Internal.Correction>
0.1171

> <Gold.Rescore>
     Score         DG    S(hbond)    S(metal)    S(lipo)     H(rot)  DE(clash)    DE(int)     intcor
     13.85     -15.44       1.45        0.00      65.76       1.00       1.52       0.07       ----

> <Gold.Chemscore.Fitness>
13.8516

> <Gold.Chemscore.DG>
-15.4443

> <Gold.Chemscore.ZeroCoef>
-5.4800

> <Gold.Chemscore.Hbond>
1.4461

> <Gold.Chemscore.Metal>
0.0000

> <Gold.Chemscore.Lipo>
65.7644

> <Gold.Chemscore.Internal_Hbond>
0.0000

> <Gold.Chemscore.DEClash>
1.5246

> <Gold.Chemscore.DEInternal>
0.0681

> <Gold.Chemscore.Rot>
1.0000

> <Gold.Chemscore.Internal.Correction>
   9.000000E+99

> <Gold.Chemscore.Hbonds>
donor molecule, donor type, donor heavy atom, donor atom, acceptor molecule, acceptor atom, score
      P1  H  7997  8009       L1    14  0.65
      P1  H  8011  8017       L1    11  0.78

> <Gold.Chemscore.Hbond.Weighted>
-4.8299

> <Gold.Chemscore.Metal.Weighted>
-0.0000

> <Gold.Chemscore.Lipo.Weighted>
-7.6944

> <Gold.Chemscore.Internal_Hbond.Weighted>
0.0000

> <Gold.Chemscore.DEClash.Weighted>
1.5246

> <Gold.Chemscore.DEInternal.Weighted>
0.0681

> <Gold.Chemscore.Rot.Weighted>
2.5600

> <Gold.Chemscore.Internal.Correction.Weighted>
   9.000000E+99

> <Gold.Protein.RotatedTorsions>
[ 6907 6896 6895 6894 ] final  149.73 input  -60.11 | X-H torsion
[ 7974 7965 7964 7962 ] final  -44.13 input  175.53 | X-H torsion
[ 8008 7997 7996 7995 ] final -163.79 input   59.86 | X-H torsion
[ 10167 10162 10161 10158 ] final  175.73 input  -65.29 | X-H torsion
[ 10718 10713 10712 10709 ] final -175.80 input   66.30 | X-H torsion
[ 10763 10752 10751 10750 ] final   34.53 input  -60.55 | X-H torsion
[ 11005 11000 10999 10996 ] final  144.11 input  -57.11 | X-H torsion

> <Gold.Protein.ActiveResidues>
 VAL166  LYS551  ARG553  GLY616  TRP617  ASP618  TYR619  PRO620  LYS621  CYS622 
 ASP623  PHE694  ASN695  SER759  ASP760  ASP761  ALA762  ILE779  LEU786  VAL792 
 PHE793  MET794  SER795  GLU796  ALA797  LYS798  CYS799  TRP800  GLU811  SER814 

> <Gold.Protein.RotatedAtoms>
  152.1240  133.4370  159.4688 H   0  0  0  0  0  0  0  0  0  0  0  0  # atno 6907 bound_to 6896
  150.6873  134.2500  159.4516 H   0  0  0  0  0  0  0  0  0  0  0  0  # atno 6908 bound_to 6896
  152.0379  134.9728  160.0624 H   0  0  0  0  0  0  0  0  0  0  0  0  # atno 6909 bound_to 6896
  145.9951  140.7138  142.9298 H   0  0  0  0  0  0  0  0  0  0  0  0  # atno 7974 bound_to 7965
  155.8264  140.0927  157.1819 H   0  0  0  0  0  0  0  0  0  0  0  0  # atno 8008 bound_to 7997
  154.3979  140.1427  156.3621 H   0  0  0  0  0  0  0  0  0  0  0  0  # atno 8009 bound_to 7997
  155.8212  140.3446  155.5518 H   0  0  0  0  0  0  0  0  0  0  0  0  # atno 8010 bound_to 7997
  139.5188  144.2998  152.0389 H   0  0  0  0  0  0  0  0  0  0  0  0  # atno 10167 bound_to 10162
  156.8053  130.9567  151.3117 H   0  0  0  0  0  0  0  0  0  0  0  0  # atno 10718 bound_to 10713
  153.0160  135.6358  154.1684 H   0  0  0  0  0  0  0  0  0  0  0  0  # atno 10763 bound_to 10752
  154.1422  135.2834  155.3159 H   0  0  0  0  0  0  0  0  0  0  0  0  # atno 10764 bound_to 10752
  154.6116  135.5554  153.7540 H   0  0  0  0  0  0  0  0  0  0  0  0  # atno 10765 bound_to 10752
  140.0606  134.9206  157.1177 H   0  0  0  0  0  0  0  0  0  0  0  0  # atno 11005 bound_to 11000
  144.6901  140.3136  143.7244 LP  0  0  0  0  0  0  0  0  0  0  0  0  # atno 17320 bound_to 7965
  145.7573  139.1813  143.2287 LP  0  0  0  0  0  0  0  0  0  0  0  0  # atno 17321 bound_to 7965
  140.2446  144.4233  150.6246 LP  0  0  0  0  0  0  0  0  0  0  0  0  # atno 17342 bound_to 10162
  140.6267  143.2182  151.6581 LP  0  0  0  0  0  0  0  0  0  0  0  0  # atno 17343 bound_to 10162
  157.6533  130.8903  149.9678 LP  0  0  0  0  0  0  0  0  0  0  0  0  # atno 17370 bound_to 10713
  156.1077  130.3652  150.0104 LP  0  0  0  0  0  0  0  0  0  0  0  0  # atno 17371 bound_to 10713
  140.3776  134.2322  155.7173 LP  0  0  0  0  0  0  0  0  0  0  0  0  # atno 17394 bound_to 11000
  141.1971  133.8066  157.0641 LP  0  0  0  0  0  0  0  0  0  0  0  0  # atno 17395 bound_to 11000

$$$$
