AV-unprocessed.smi:741|AV-procd|sdf|3557|dock9
  -GOLD-   22720 0553D 1   1.00000     0.00000
 Structure written by MMmdl.
 43 44  0  0  0  0  0  0  0  0  3 V2000
  145.4953  134.8963  151.8923 C   0  0  0  0  0  0  0  0  0  0  0  0
  145.2626  134.7859  153.4064 C   0  0  0  0  0  0  0  0  0  0  0  0
  146.5566  134.8468  154.2409 C   0  0  1  0  0  0  0  0  0  0  0  0
  147.4252  133.5896  154.0160 C   0  0  0  0  0  0  0  0  0  0  0  0
  148.8687  133.9009  153.8731 N   0  3  0  0  0  0  0  0  0  0  0  0
  149.5377  134.3563  155.1097 C   0  0  0  0  0  0  0  0  0  0  0  0
  151.0192  134.0923  154.8672 C   0  0  0  0  0  0  0  0  0  0  0  0
  151.0071  132.7791  154.0908 C   0  0  0  0  0  0  0  0  0  0  0  0
  149.6844  132.7983  153.3118 C   0  0  0  0  0  0  0  0  0  0  0  0
  147.3054  136.0607  153.9051 N   0  0  0  0  0  0  0  0  0  0  0  0
  147.1995  137.2492  154.5175 C   0  0  0  0  0  0  0  0  0  0  0  0
  146.4777  137.4484  155.4937 O   0  0  0  0  0  0  0  0  0  0  0  0
  147.9977  138.1673  153.9456 N   0  0  0  0  0  0  0  0  0  0  0  0
  148.1511  139.5371  154.2926 C   0  0  0  0  0  0  0  0  0  0  0  0
  149.4469  140.0941  154.2132 C   0  0  0  0  0  0  0  0  0  0  0  0
  149.6400  141.4536  154.5328 C   0  0  0  0  0  0  0  0  0  0  0  0
  148.5867  142.2145  154.9000 N   0  3  0  0  0  0  0  0  0  0  0  0
  147.3279  141.7315  154.9745 C   0  0  0  0  0  0  0  0  0  0  0  0
  147.0733  140.3788  154.6683 C   0  0  0  0  0  0  0  0  0  0  0  0
  144.5466  134.8951  151.3553 H   0  0  0  0  0  0  0  0  0  0  0  0
  146.0873  134.0630  151.5133 H   0  0  0  0  0  0  0  0  0  0  0  0
  146.0166  135.8204  151.6408 H   0  0  0  0  0  0  0  0  0  0  0  0
  144.6004  135.5965  153.7128 H   0  0  0  0  0  0  0  0  0  0  0  0
  144.7257  133.8608  153.6212 H   0  0  0  0  0  0  0  0  0  0  0  0
  146.2573  134.8771  155.2901 H   0  0  0  0  0  0  0  0  0  0  0  0
  147.2867  132.8737  154.8278 H   0  0  0  0  0  0  0  0  0  0  0  0
  147.0840  133.0911  153.1071 H   0  0  0  0  0  0  0  0  0  0  0  0
  149.3335  135.4040  155.3286 H   0  0  0  0  0  0  0  0  0  0  0  0
  149.1955  133.7623  155.9587 H   0  0  0  0  0  0  0  0  0  0  0  0
  151.4414  134.8863  154.2496 H   0  0  0  0  0  0  0  0  0  0  0  0
  151.5986  134.0369  155.7892 H   0  0  0  0  0  0  0  0  0  0  0  0
  151.8761  132.6688  153.4415 H   0  0  0  0  0  0  0  0  0  0  0  0
  151.0078  131.9419  154.7902 H   0  0  0  0  0  0  0  0  0  0  0  0
  149.1813  131.8341  153.3996 H   0  0  0  0  0  0  0  0  0  0  0  0
  149.8518  132.9889  152.2514 H   0  0  0  0  0  0  0  0  0  0  0  0
  147.9299  135.9943  153.1141 H   0  0  0  0  0  0  0  0  0  0  0  0
  148.6039  137.8352  153.2096 H   0  0  0  0  0  0  0  0  0  0  0  0
  150.2901  139.4871  153.9164 H   0  0  0  0  0  0  0  0  0  0  0  0
  150.5980  141.9522  154.5031 H   0  0  0  0  0  0  0  0  0  0  0  0
  146.5654  142.4382  155.2686 H   0  0  0  0  0  0  0  0  0  0  0  0
  146.0570  140.0179  154.7138 H   0  0  0  0  0  0  0  0  0  0  0  0
  148.9460  134.6605  153.2123 H   0  0  0  0  0  0  0  0  0  0  0  0
  148.7477  143.1969  155.1249 H   0  0  0  0  0  0  0  0  0  0  0  0
  1  2  1  0  0  0  0
  1 20  1  0  0  0  0
  1 21  1  0  0  0  0
  1 22  1  0  0  0  0
  2  3  1  0  0  0  0
  2 23  1  0  0  0  0
  2 24  1  0  0  0  0
  3  4  1  0  0  0  0
  3 10  1  0  0  0  0
  3 25  1  0  0  0  0
  4  5  1  0  0  0  0
  4 26  1  0  0  0  0
  4 27  1  0  0  0  0
  5  9  1  0  0  0  0
  5  6  1  0  0  0  0
  5 42  1  0  0  0  0
  6  7  1  0  0  0  0
  6 28  1  0  0  0  0
  6 29  1  0  0  0  0
  7  8  1  0  0  0  0
  7 30  1  0  0  0  0
  7 31  1  0  0  0  0
  8  9  1  0  0  0  0
  8 32  1  0  0  0  0
  8 33  1  0  0  0  0
  9 34  1  0  0  0  0
  9 35  1  0  0  0  0
 10 11  1  0  0  0  0
 10 36  1  0  0  0  0
 11 12  2  0  0  0  0
 11 13  1  0  0  0  0
 13 14  1  0  0  0  0
 13 37  1  0  0  0  0
 14 19  1  0  0  0  0
 14 15  2  0  0  0  0
 15 16  1  0  0  0  0
 15 38  1  0  0  0  0
 16 17  2  0  0  0  0
 16 39  1  0  0  0  0
 17 18  1  0  0  0  0
 17 43  1  0  0  0  0
 18 19  2  0  0  0  0
 18 40  1  0  0  0  0
 19 41  1  0  0  0  0
M  CHG  1   5   1
M  CHG  1  17   1
M  END
> <s_m_source_file>
AV-unprocessed.smi

> <i_m_source_file_index>
741

> <i_lp_mmshare_version>
43012

> <i_f3d_flags>
0

> <s_epik_input>
W0NIMl0xW0NIMl1bQ0gyXVtDSDJdTjFbQ0gyXVtDQEBIXShbQ0gyXVtDSDNdKVtOSF1DKD1PKVtOSF1jMltjSF1bY0hdbltjSF1bY0hdMg==

> <s_epik_cmdline>
J2VwaWtfcHl0aG9uJywgJy1waCcsICc3LjAnLCAnLXRuJywgJzgnLCAnLW1hJywgJzIwMCcsICctbWV0YWxfYmluZGluZycsICctaW1hZScsICc8aW5maWxlLm1hZT4nLCAnLW9tYWUnLCAnPG91dGZpbGUubWFlPic=

> <r_epik_Ionization_Penalty>
1.10771

> <r_epik_Ionization_Penalty_Charging>
1.10769

> <r_epik_Ionization_Penalty_Neutral>
1.91663e-05

> <r_epik_State_Penalty>
1.16347

> <r_epik_Charging_Adjusted_Penalty>
2.27116

> <i_epik_Tot_Q>
2

> <i_epik_Tot_abs_Q>
2

> <r_epik_Metal_State_Penalty>
1.24871

> <b_epik_Metal_Only>
0

> <s_lp_Force_Field>
OPLS_2005

> <r_lp_Energy>
49.4137

> <b_lp_Chiralities_Consistent>
1

> <s_lp_Variant>
AV-unprocessed.smi:741-4

> <Gold.Version>
5.8.1

> <Gold.Id.Protein>
6NUR|6NUR_protein|mol2

> <Gold.PLP.Fitness>
47.4704

> <Gold.PLP.PLP>
-32.8492

> <Gold.PLP.part.hbond>
-4.0000

> <Gold.PLP.part.metal>
0.0000

> <Gold.PLP.part.buried>
-1.1953

> <Gold.PLP.part.nonpolar>
-27.9700

> <Gold.PLP.part.repulsive>
0.3505

> <Gold.PLP.ligand.clash>
0.0000

> <Gold.PLP.ligand.torsion>
1.3882

> <Gold.PLP.Chemscore.Hbond>
5.7862

> <Gold.PLP.Chemscore.CHOScore>
0.0000

> <Gold.PLP.Chemscore.Metal>
0.0000

> <Gold.Chemscore.Hbonds>
donor molecule, donor type, donor heavy atom, donor atom, acceptor molecule, acceptor atom, score
      L1  H     5    42       P1  7948  1.50
      L1  H    10    36       P1  7948  1.00
      L1  H    13    37       P1  7948  0.74
      L1  H    17    43       P1  8028  2.00

> <Gold.PLP.Chemscore.Internal.Correction>
0.0390

> <Gold.Rescore>
     Score         DG    S(hbond)    S(metal)    S(lipo)     H(rot)  DE(clash)    DE(int)     intcor
     16.69     -20.45       3.39        0.00      66.87       1.63       1.49       2.28       ----

> <Gold.Chemscore.Fitness>
16.6890

> <Gold.Chemscore.DG>
-20.4510

> <Gold.Chemscore.ZeroCoef>
-5.4800

> <Gold.Chemscore.Hbond>
3.3861

> <Gold.Chemscore.Metal>
0.0000

> <Gold.Chemscore.Lipo>
66.8710

> <Gold.Chemscore.Internal_Hbond>
0.0000

> <Gold.Chemscore.DEClash>
1.4858

> <Gold.Chemscore.DEInternal>
2.2761

> <Gold.Chemscore.Rot>
1.6260

> <Gold.Chemscore.Internal.Correction>
   9.000000E+99

> <Gold.Chemscore.Hbonds>
donor molecule, donor type, donor heavy atom, donor atom, acceptor molecule, acceptor atom, score
      L1  H     5    42       P1  7948  0.09
      L1  H    10    36       P1  7948  0.99
      L1  H    13    37       P1  7948  0.71
      L1  H    17    43       P1  8028  0.99

> <Gold.Chemscore.Hbond.Weighted>
-11.3097

> <Gold.Chemscore.Metal.Weighted>
-0.0000

> <Gold.Chemscore.Lipo.Weighted>
-7.8239

> <Gold.Chemscore.Internal_Hbond.Weighted>
0.0000

> <Gold.Chemscore.DEClash.Weighted>
1.4858

> <Gold.Chemscore.DEInternal.Weighted>
2.2761

> <Gold.Chemscore.Rot.Weighted>
4.1626

> <Gold.Chemscore.Internal.Correction.Weighted>
   9.000000E+99

> <Gold.Protein.RotatedTorsions>
[ 6907 6896 6895 6894 ] final   88.74 input  -60.11 | X-H torsion
[ 7974 7965 7964 7962 ] final  -71.90 input  175.53 | X-H torsion
[ 8008 7997 7996 7995 ] final  -20.77 input   59.86 | X-H torsion
[ 10167 10162 10161 10158 ] final  -90.99 input  -65.29 | X-H torsion
[ 10718 10713 10712 10709 ] final -137.07 input   66.30 | X-H torsion
[ 10763 10752 10751 10750 ] final  169.06 input  -60.55 | X-H torsion
[ 11005 11000 10999 10996 ] final   87.26 input  -57.11 | X-H torsion

> <Gold.Protein.ActiveResidues>
 VAL166  LYS551  ARG553  GLY616  TRP617  ASP618  TYR619  PRO620  LYS621  CYS622 
 ASP623  PHE694  ASN695  SER759  ASP760  ASP761  ALA762  ILE779  LEU786  VAL792 
 PHE793  MET794  SER795  GLU796  ALA797  LYS798  CYS799  TRP800  GLU811  SER814 

> <Gold.Protein.RotatedAtoms>
  152.5428  134.2074  159.8735 H   0  0  0  0  0  0  0  0  0  0  0  0  # atno 6907 bound_to 6896
  151.2059  133.4577  159.2604 H   0  0  0  0  0  0  0  0  0  0  0  0  # atno 6908 bound_to 6896
  151.0944  134.9948  159.8474 H   0  0  0  0  0  0  0  0  0  0  0  0  # atno 6909 bound_to 6896
  145.6721  140.9217  143.0877 H   0  0  0  0  0  0  0  0  0  0  0  0  # atno 7974 bound_to 7965
  154.4748  140.2053  155.9904 H   0  0  0  0  0  0  0  0  0  0  0  0  # atno 8008 bound_to 7997
  156.1071  140.3235  155.7992 H   0  0  0  0  0  0  0  0  0  0  0  0  # atno 8009 bound_to 7997
  155.4698  140.0530  157.2971 H   0  0  0  0  0  0  0  0  0  0  0  0  # atno 8010 bound_to 7997
  140.3494  143.2899  151.9744 H   0  0  0  0  0  0  0  0  0  0  0  0  # atno 10167 bound_to 10162
  156.2840  130.7337  151.1343 H   0  0  0  0  0  0  0  0  0  0  0  0  # atno 10718 bound_to 10713
  154.3777  135.2753  155.2230 H   0  0  0  0  0  0  0  0  0  0  0  0  # atno 10763 bound_to 10752
  154.4350  135.5968  153.6096 H   0  0  0  0  0  0  0  0  0  0  0  0  # atno 10764 bound_to 10752
  152.9835  135.6005  154.4015 H   0  0  0  0  0  0  0  0  0  0  0  0  # atno 10765 bound_to 10752
  139.8924  134.8411  156.2836 H   0  0  0  0  0  0  0  0  0  0  0  0  # atno 11005 bound_to 11000
  144.7053  139.8586  143.7432 LP  0  0  0  0  0  0  0  0  0  0  0  0  # atno 17320 bound_to 7965
  146.1036  139.4034  143.0331 LP  0  0  0  0  0  0  0  0  0  0  0  0  # atno 17321 bound_to 7965
  139.4828  144.6089  151.7470 LP  0  0  0  0  0  0  0  0  0  0  0  0  # atno 17342 bound_to 10162
  140.5233  144.0844  150.6029 LP  0  0  0  0  0  0  0  0  0  0  0  0  # atno 17343 bound_to 10162
  157.7323  131.0601  150.5635 LP  0  0  0  0  0  0  0  0  0  0  0  0  # atno 17370 bound_to 10713
  156.5744  130.4288  149.6005 LP  0  0  0  0  0  0  0  0  0  0  0  0  # atno 17371 bound_to 10713
  141.0023  133.7144  156.0979 LP  0  0  0  0  0  0  0  0  0  0  0  0  # atno 17394 bound_to 11000
  140.7481  134.4075  157.5545 LP  0  0  0  0  0  0  0  0  0  0  0  0  # atno 17395 bound_to 11000

$$$$
