AV-unprocessed.smi:1986|AV-procd|sdf|8049|dock1
  -GOLD-   2272010253D 1   1.00000     0.00000
 Structure written by MMmdl.
 47 48  0  0  0  0  0  0  0  0  3 V2000
  149.3731  131.8003  153.9701 C   0  0  0  0  0  0  0  0  0  0  0  0
  149.4636  133.3226  154.1780 C   0  0  0  0  0  0  0  0  0  0  0  0
  148.1070  134.0740  154.3389 C   0  0  2  0  0  0  0  0  0  0  0  0
  148.3689  135.4792  154.9426 C   0  0  0  0  0  0  0  0  0  0  0  0
  147.1917  133.3015  155.3379 C   0  0  0  0  0  0  0  0  0  0  0  0
  147.8274  133.1118  156.6390 N   0  0  0  0  0  0  0  0  0  0  0  0
  147.4125  133.6228  157.8094 C   0  0  0  0  0  0  0  0  0  0  0  0
  146.4745  134.4139  157.8988 O   0  0  0  0  0  0  0  0  0  0  0  0
  148.1265  133.1529  159.0877 C   0  0  0  0  0  0  0  0  0  0  0  0
  147.6247  133.7615  160.3314 N   0  0  0  0  0  0  0  0  0  0  0  0
  147.8222  135.2078  160.4017 N   0  5  0  0  0  0  0  0  0  0  0  0
  147.4942  135.8643  161.5459 C   0  0  0  0  0  0  0  0  0  0  0  0
  147.6772  137.0694  161.6977 O   0  0  0  0  0  0  0  0  0  0  0  0
  146.8761  135.1024  162.6182 C   0  0  0  0  0  0  0  0  0  0  0  0
  146.6406  133.7809  162.4969 C   0  0  0  0  0  0  0  0  0  0  0  0
  147.0075  133.0300  161.3022 C   0  0  0  0  0  0  0  0  0  0  0  0
  146.7838  131.8261  161.1792 O   0  0  0  0  0  0  0  0  0  0  0  0
  147.4013  134.2120  153.0096 N   0  3  0  0  0  0  0  0  0  0  0  0
  147.1832  132.9555  152.2388 C   0  0  0  0  0  0  0  0  0  0  0  0
  146.6364  133.2749  150.8372 C   0  0  0  0  0  0  0  0  0  0  0  0
  145.4295  134.0166  150.9461 O   0  0  0  0  0  0  0  0  0  0  0  0
  145.6334  135.2588  151.6042 C   0  0  0  0  0  0  0  0  0  0  0  0
  146.1409  135.0072  153.0322 C   0  0  0  0  0  0  0  0  0  0  0  0
  150.3696  131.3755  153.8489 H   0  0  0  0  0  0  0  0  0  0  0  0
  148.8043  131.5438  153.0769 H   0  0  0  0  0  0  0  0  0  0  0  0
  148.9138  131.2986  154.8214 H   0  0  0  0  0  0  0  0  0  0  0  0
  150.0908  133.4997  155.0514 H   0  0  0  0  0  0  0  0  0  0  0  0
  150.0146  133.7268  153.3293 H   0  0  0  0  0  0  0  0  0  0  0  0
  148.6442  135.4225  155.9961 H   0  0  0  0  0  0  0  0  0  0  0  0
  147.4842  136.1143  154.8837 H   0  0  0  0  0  0  0  0  0  0  0  0
  149.1844  135.9975  154.4378 H   0  0  0  0  0  0  0  0  0  0  0  0
  146.2619  133.8443  155.5069 H   0  0  0  0  0  0  0  0  0  0  0  0
  146.8818  132.3407  154.9247 H   0  0  0  0  0  0  0  0  0  0  0  0
  148.6150  132.4799  156.6722 H   0  0  0  0  0  0  0  0  0  0  0  0
  148.0661  132.0645  159.1375 H   0  0  0  0  0  0  0  0  0  0  0  0
  149.1899  133.3748  158.9815 H   0  0  0  0  0  0  0  0  0  0  0  0
  146.5915  135.6087  163.5290 H   0  0  0  0  0  0  0  0  0  0  0  0
  146.1743  133.2555  163.3172 H   0  0  0  0  0  0  0  0  0  0  0  0
  148.1081  132.3977  152.1044 H   0  0  0  0  0  0  0  0  0  0  0  0
  146.4867  132.3045  152.7673 H   0  0  0  0  0  0  0  0  0  0  0  0
  147.3702  133.8305  150.2525 H   0  0  0  0  0  0  0  0  0  0  0  0
  146.4339  132.3515  150.2945 H   0  0  0  0  0  0  0  0  0  0  0  0
  146.3347  135.8768  151.0449 H   0  0  0  0  0  0  0  0  0  0  0  0
  144.6881  135.8008  151.6323 H   0  0  0  0  0  0  0  0  0  0  0  0
  145.3692  134.4772  153.5906 H   0  0  0  0  0  0  0  0  0  0  0  0
  146.2871  135.9701  153.5183 H   0  0  0  0  0  0  0  0  0  0  0  0
  148.0437  134.7489  152.4425 H   0  0  0  0  0  0  0  0  0  0  0  0
  1  2  1  0  0  0  0
  1 24  1  0  0  0  0
  1 25  1  0  0  0  0
  1 26  1  0  0  0  0
  2  3  1  0  0  0  0
  2 27  1  0  0  0  0
  2 28  1  0  0  0  0
  3  4  1  0  0  0  0
  3  5  1  0  0  0  0
  3 18  1  0  0  0  0
  4 29  1  0  0  0  0
  4 30  1  0  0  0  0
  4 31  1  0  0  0  0
  5  6  1  0  0  0  0
  5 32  1  0  0  0  0
  5 33  1  0  0  0  0
  6  7  1  0  0  0  0
  6 34  1  0  0  0  0
  7  8  2  0  0  0  0
  7  9  1  0  0  0  0
  9 35  1  0  0  0  0
  9 36  1  0  0  0  0
  9 10  1  0  0  0  0
 10 11  1  0  0  0  0
 10 16  1  0  0  0  0
 11 12  1  0  0  0  0
 12 13  2  0  0  0  0
 12 14  1  0  0  0  0
 14 37  1  0  0  0  0
 14 15  2  0  0  0  0
 15 38  1  0  0  0  0
 15 16  1  0  0  0  0
 16 17  2  0  0  0  0
 18 23  1  0  0  0  0
 18 19  1  0  0  0  0
 18 47  1  0  0  0  0
 19 20  1  0  0  0  0
 19 39  1  0  0  0  0
 19 40  1  0  0  0  0
 20 21  1  0  0  0  0
 20 41  1  0  0  0  0
 20 42  1  0  0  0  0
 21 22  1  0  0  0  0
 22 23  1  0  0  0  0
 22 43  1  0  0  0  0
 22 44  1  0  0  0  0
 23 45  1  0  0  0  0
 23 46  1  0  0  0  0
M  CHG  1  11  -1
M  CHG  1  18   1
M  END
> <s_m_source_file>
AV-unprocessed.smi

> <i_m_source_file_index>
1986

> <i_lp_mmshare_version>
43012

> <i_f3d_flags>
0

> <s_epik_input>
W0NIMl0xW0NIMl1PW0NIMl1bQ0gyXU4xW0NAQF0oW0NIM10pKFtDSDJdW0NIM10pW0NIMl1bTkhdQyg9TylbQ0gyXW4yW25IXWMoPU8pW2NIXVtjSF1jMj1P

> <s_epik_cmdline>
J2VwaWtfcHl0aG9uJywgJy1waCcsICc3LjAnLCAnLXRuJywgJzgnLCAnLW1hJywgJzIwMCcsICctbWV0YWxfYmluZGluZycsICctaW1hZScsICc8aW5maWxlLm1hZT4nLCAnLW9tYWUnLCAnPG91dGZpbGUubWFlPic=

> <r_lp_tautomer_probability>
1

> <r_epik_Ionization_Penalty>
0.604767

> <r_epik_Ionization_Penalty_Charging>
0.604766

> <r_epik_Ionization_Penalty_Neutral>
8.70177e-08

> <r_epik_State_Penalty>
0.54579

> <r_epik_Charging_Adjusted_Penalty>
1.15056

> <i_epik_Tot_Q>
0

> <i_epik_Tot_abs_Q>
2

> <r_epik_Metal_State_Penalty>
0.54579

> <b_epik_Metal_Only>
0

> <s_lp_Force_Field>
OPLS_2005

> <r_lp_Energy>
38.6352

> <b_lp_Chiralities_Consistent>
1

> <s_lp_Variant>
AV-unprocessed.smi:1986-4

> <Gold.Version>
5.8.1

> <Gold.Id.Protein>
6NUR|6NUR_protein|mol2

> <Gold.PLP.Fitness>
46.9270

> <Gold.PLP.PLP>
-36.0216

> <Gold.PLP.part.hbond>
-3.0000

> <Gold.PLP.part.metal>
0.0000

> <Gold.PLP.part.buried>
-3.3841

> <Gold.PLP.part.nonpolar>
-28.7225

> <Gold.PLP.part.repulsive>
0.1433

> <Gold.PLP.ligand.clash>
0.0000

> <Gold.PLP.ligand.torsion>
0.2514

> <Gold.PLP.Chemscore.Hbond>
3.7360

> <Gold.PLP.Chemscore.CHOScore>
0.0000

> <Gold.PLP.Chemscore.Metal>
0.0000

> <Gold.Chemscore.Hbonds>
donor molecule, donor type, donor heavy atom, donor atom, acceptor molecule, acceptor atom, score
      L1  H    18    47       P1  7948  2.00
      P1  H  6931  6943       L1    13  1.00
      P1  H  6934  6947       L1    13  0.53

> <Gold.PLP.Chemscore.Internal.Correction>
0.2001

> <Gold.Rescore>
     Score         DG    S(hbond)    S(metal)    S(lipo)     H(rot)  DE(clash)    DE(int)     intcor
     13.04     -15.06       2.64        0.00      60.99       2.50       0.05       1.96       ----

> <Gold.Chemscore.Fitness>
13.0422

> <Gold.Chemscore.DG>
-15.0554

> <Gold.Chemscore.ZeroCoef>
-5.4800

> <Gold.Chemscore.Hbond>
2.6445

> <Gold.Chemscore.Metal>
0.0000

> <Gold.Chemscore.Lipo>
60.9896

> <Gold.Chemscore.Internal_Hbond>
0.0000

> <Gold.Chemscore.DEClash>
0.0524

> <Gold.Chemscore.DEInternal>
1.9608

> <Gold.Chemscore.Rot>
2.4973

> <Gold.Chemscore.Internal.Correction>
   9.000000E+99

> <Gold.Chemscore.Hbonds>
donor molecule, donor type, donor heavy atom, donor atom, acceptor molecule, acceptor atom, score
      L1  H    18    47       P1  7948  0.60
      P1  H  6931  6943       L1    13  0.98
      P1  H  6934  6947       L1    13  0.52

> <Gold.Chemscore.Hbond.Weighted>
-8.8327

> <Gold.Chemscore.Metal.Weighted>
-0.0000

> <Gold.Chemscore.Lipo.Weighted>
-7.1358

> <Gold.Chemscore.Internal_Hbond.Weighted>
0.0000

> <Gold.Chemscore.DEClash.Weighted>
0.0524

> <Gold.Chemscore.DEInternal.Weighted>
1.9608

> <Gold.Chemscore.Rot.Weighted>
6.3930

> <Gold.Chemscore.Internal.Correction.Weighted>
   9.000000E+99

> <Gold.Protein.RotatedTorsions>
[ 6907 6896 6895 6894 ] final   13.94 input  -60.11 | X-H torsion
[ 7974 7965 7964 7962 ] final   20.99 input  175.53 | X-H torsion
[ 8008 7997 7996 7995 ] final   17.79 input   59.86 | X-H torsion
[ 10167 10162 10161 10158 ] final  -85.71 input  -65.29 | X-H torsion
[ 10718 10713 10712 10709 ] final  103.90 input   66.30 | X-H torsion
[ 10763 10752 10751 10750 ] final -148.68 input  -60.55 | X-H torsion
[ 11005 11000 10999 10996 ] final    2.66 input  -57.11 | X-H torsion

> <Gold.Protein.ActiveResidues>
 VAL166  LYS551  ARG553  GLY616  TRP617  ASP618  TYR619  PRO620  LYS621  CYS622 
 ASP623  PHE694  ASN695  SER759  ASP760  ASP761  ALA762  ILE779  LEU786  VAL792 
 PHE793  MET794  SER795  GLU796  ALA797  LYS798  CYS799  TRP800  GLU811  SER814 

> <Gold.Protein.RotatedAtoms>
  151.7944  135.0727  160.0391 H   0  0  0  0  0  0  0  0  0  0  0  0  # atno 6907 bound_to 6896
  152.3134  133.5772  159.5704 H   0  0  0  0  0  0  0  0  0  0  0  0  # atno 6908 bound_to 6896
  150.7331  134.0035  159.3688 H   0  0  0  0  0  0  0  0  0  0  0  0  # atno 6909 bound_to 6896
  146.2089  139.8090  142.8704 H   0  0  0  0  0  0  0  0  0  0  0  0  # atno 7974 bound_to 7965
  154.8966  140.2994  155.5341 H   0  0  0  0  0  0  0  0  0  0  0  0  # atno 8008 bound_to 7997
  156.3020  140.2414  156.3923 H   0  0  0  0  0  0  0  0  0  0  0  0  # atno 8009 bound_to 7997
  154.8564  140.0407  157.1626 H   0  0  0  0  0  0  0  0  0  0  0  0  # atno 8010 bound_to 7997
  140.4012  143.2662  151.9140 H   0  0  0  0  0  0  0  0  0  0  0  0  # atno 10167 bound_to 10162
  157.6757  131.0790  150.5626 H   0  0  0  0  0  0  0  0  0  0  0  0  # atno 10718 bound_to 10713
  154.8220  135.3328  154.7011 H   0  0  0  0  0  0  0  0  0  0  0  0  # atno 10763 bound_to 10752
  153.7643  135.6930  153.4923 H   0  0  0  0  0  0  0  0  0  0  0  0  # atno 10764 bound_to 10752
  153.2089  135.4489  155.0305 H   0  0  0  0  0  0  0  0  0  0  0  0  # atno 10765 bound_to 10752
  140.6018  133.9829  155.8135 H   0  0  0  0  0  0  0  0  0  0  0  0  # atno 11005 bound_to 11000
  145.3216  141.0245  143.3497 LP  0  0  0  0  0  0  0  0  0  0  0  0  # atno 17320 bound_to 7965
  144.8863  139.4835  143.6699 LP  0  0  0  0  0  0  0  0  0  0  0  0  # atno 17321 bound_to 7965
  139.4785  144.5632  151.8206 LP  0  0  0  0  0  0  0  0  0  0  0  0  # atno 17342 bound_to 10162
  140.4738  144.1548  150.5922 LP  0  0  0  0  0  0  0  0  0  0  0  0  # atno 17343 bound_to 10162
  156.5928  130.4334  149.5929 LP  0  0  0  0  0  0  0  0  0  0  0  0  # atno 17370 bound_to 10713
  156.2569  130.6940  151.1696 LP  0  0  0  0  0  0  0  0  0  0  0  0  # atno 17371 bound_to 10713
  141.0867  133.9980  157.3302 LP  0  0  0  0  0  0  0  0  0  0  0  0  # atno 17394 bound_to 11000
  139.9229  135.0201  156.8130 LP  0  0  0  0  0  0  0  0  0  0  0  0  # atno 17395 bound_to 11000

$$$$
