AV-unprocessed.smi:2208|AV-procd|sdf|8945|dock8
  -GOLD-   2272012163D 1   1.00000     0.00000
 Structure written by MMmdl.
 35 36  0  0  0  0  0  0  0  0  1 V2000
  152.4319  138.0027  159.5608 C   0  0  0  0  0  0  0  0  0  0  0  0
  151.4438  137.5734  158.5143 C   0  0  0  0  0  0  0  0  0  0  0  0
  150.5088  136.6965  158.8375 N   0  0  0  0  0  0  0  0  0  0  0  0
  149.7481  136.5019  157.6811 O   0  0  0  0  0  0  0  0  0  0  0  0
  150.2591  137.2815  156.6952 C   0  0  0  0  0  0  0  0  0  0  0  0
  149.5692  137.2229  155.3747 C   0  0  0  0  0  0  0  0  0  0  0  0
  151.3365  137.9886  157.1544 C   0  0  0  0  0  0  0  0  0  0  0  0
  152.1889  138.9838  156.4070 C   0  0  0  0  0  0  0  0  0  0  0  0
  151.3661  140.2427  156.1370 C   0  0  0  0  0  0  0  0  0  0  0  0
  150.9112  140.4522  155.0129 O   0  0  0  0  0  0  0  0  0  0  0  0
  151.1556  141.0510  157.1869 N   0  0  0  0  0  0  0  0  0  0  0  0
  150.2588  142.2018  157.1990 C   0  0  0  0  0  0  0  0  0  0  0  0
  150.6588  143.2404  158.2667 C   0  0  2  0  0  0  0  0  0  0  0  0
  151.8998  144.0818  157.9416 C   0  0  0  0  0  0  0  0  0  0  0  0
  152.4356  144.3950  159.3200 C   0  0  0  0  0  0  0  0  0  0  0  0
  152.1542  143.0914  160.0574 C   0  0  0  0  0  0  0  0  0  0  0  0
  150.9231  142.6165  159.5229 O   0  0  0  0  0  0  0  0  0  0  0  0
  153.1618  138.7058  159.1611 H   0  0  0  0  0  0  0  0  0  0  0  0
  152.9808  137.1475  159.9555 H   0  0  0  0  0  0  0  0  0  0  0  0
  151.9298  138.4904  160.3965 H   0  0  0  0  0  0  0  0  0  0  0  0
  148.4895  137.1423  155.5034 H   0  0  0  0  0  0  0  0  0  0  0  0
  149.9083  136.3610  154.8004 H   0  0  0  0  0  0  0  0  0  0  0  0
  149.7697  138.1202  154.7890 H   0  0  0  0  0  0  0  0  0  0  0  0
  153.0868  139.2519  156.9642 H   0  0  0  0  0  0  0  0  0  0  0  0
  152.5354  138.5733  155.4576 H   0  0  0  0  0  0  0  0  0  0  0  0
  151.5799  140.7984  158.0674 H   0  0  0  0  0  0  0  0  0  0  0  0
  150.2973  142.6633  156.2121 H   0  0  0  0  0  0  0  0  0  0  0  0
  149.2256  141.8841  157.3472 H   0  0  0  0  0  0  0  0  0  0  0  0
  149.8186  143.9162  158.4315 H   0  0  0  0  0  0  0  0  0  0  0  0
  152.6441  143.5076  157.3902 H   0  0  0  0  0  0  0  0  0  0  0  0
  151.6662  144.9748  157.3614 H   0  0  0  0  0  0  0  0  0  0  0  0
  153.4920  144.6650  159.3191 H   0  0  0  0  0  0  0  0  0  0  0  0
  151.8700  145.2129  159.7680 H   0  0  0  0  0  0  0  0  0  0  0  0
  152.9328  142.3590  159.8428 H   0  0  0  0  0  0  0  0  0  0  0  0
  152.0993  143.2217  161.1382 H   0  0  0  0  0  0  0  0  0  0  0  0
  1  2  1  0  0  0  0
  1 18  1  0  0  0  0
  1 19  1  0  0  0  0
  1 20  1  0  0  0  0
  2  7  1  0  0  0  0
  2  3  2  0  0  0  0
  3  4  1  0  0  0  0
  4  5  1  0  0  0  0
  5  6  1  0  0  0  0
  5  7  2  0  0  0  0
  6 21  1  0  0  0  0
  6 22  1  0  0  0  0
  6 23  1  0  0  0  0
  7  8  1  0  0  0  0
  8  9  1  0  0  0  0
  8 24  1  0  0  0  0
  8 25  1  0  0  0  0
  9 10  2  0  0  0  0
  9 11  1  0  0  0  0
 11 12  1  0  0  0  0
 11 26  1  0  0  0  0
 12 13  1  0  0  0  0
 12 27  1  0  0  0  0
 12 28  1  0  0  0  0
 13 17  1  0  0  0  0
 13 14  1  0  0  0  0
 13 29  1  0  0  0  0
 14 15  1  0  0  0  0
 14 30  1  0  0  0  0
 14 31  1  0  0  0  0
 15 16  1  0  0  0  0
 15 32  1  0  0  0  0
 15 33  1  0  0  0  0
 16 17  1  0  0  0  0
 16 34  1  0  0  0  0
 16 35  1  0  0  0  0
M  END
> <s_m_source_file>
AV-unprocessed.smi

> <i_m_source_file_index>
2208

> <i_lp_mmshare_version>
43012

> <i_f3d_flags>
0

> <s_epik_input>
W0NIM11jMW5vYyhbQ0gzXSljMVtDSDJdQyg9TylbTkhdW0NIMl1bQ0BASF0yW0NIMl1bQ0gyXVtDSDJdTzI=

> <s_epik_cmdline>
J2VwaWtfcHl0aG9uJywgJy1waCcsICc3LjAnLCAnLXRuJywgJzgnLCAnLW1hJywgJzIwMCcsICctbWV0YWxfYmluZGluZycsICctaW1hZScsICc8aW5maWxlLm1hZT4nLCAnLW9tYWUnLCAnPG91dGZpbGUubWFlPic=

> <r_lp_tautomer_probability>
1

> <r_epik_Ionization_Penalty>
3.13901e-08

> <r_epik_Ionization_Penalty_Charging>
0

> <r_epik_Ionization_Penalty_Neutral>
3.13901e-08

> <r_epik_State_Penalty>
-0

> <r_epik_Charging_Adjusted_Penalty>
0

> <i_epik_Tot_Q>
0

> <i_epik_Tot_abs_Q>
0

> <r_epik_Metal_State_Penalty>
-0

> <b_epik_Metal_Only>
0

> <s_lp_Force_Field>
OPLS_2005

> <r_lp_Energy>
11.1183

> <b_lp_Chiralities_Consistent>
1

> <s_lp_Variant>
AV-unprocessed.smi:2208-1

> <Gold.Version>
5.8.1

> <Gold.Id.Protein>
6NUR|6NUR_protein|mol2

> <Gold.PLP.Fitness>
34.6296

> <Gold.PLP.PLP>
-29.7349

> <Gold.PLP.part.hbond>
-2.6312

> <Gold.PLP.part.metal>
0.0000

> <Gold.PLP.part.buried>
-4.5237

> <Gold.PLP.part.nonpolar>
-22.8932

> <Gold.PLP.part.repulsive>
0.1347

> <Gold.PLP.ligand.clash>
0.0000

> <Gold.PLP.ligand.torsion>
0.5551

> <Gold.PLP.Chemscore.Hbond>
2.0000

> <Gold.PLP.Chemscore.CHOScore>
0.0000

> <Gold.PLP.Chemscore.Metal>
0.0000

> <Gold.Chemscore.Hbonds>
donor molecule, donor type, donor heavy atom, donor atom, acceptor molecule, acceptor atom, score
      P1  H  6896  6909       L1     3  1.00
      P1  H  7989  7998       L1    10  1.00

> <Gold.PLP.Chemscore.Internal.Correction>
0.0049

> <Gold.Rescore>
     Score         DG    S(hbond)    S(metal)    S(lipo)     H(rot)  DE(clash)    DE(int)     intcor
     16.54     -17.11       1.88        0.00      79.85       1.56       0.00       0.57       ----

> <Gold.Chemscore.Fitness>
16.5396

> <Gold.Chemscore.DG>
-17.1148

> <Gold.Chemscore.ZeroCoef>
-5.4800

> <Gold.Chemscore.Hbond>
1.8781

> <Gold.Chemscore.Metal>
0.0000

> <Gold.Chemscore.Lipo>
79.8535

> <Gold.Chemscore.Internal_Hbond>
0.0000

> <Gold.Chemscore.DEClash>
0.0019

> <Gold.Chemscore.DEInternal>
0.5733

> <Gold.Chemscore.Rot>
1.5551

> <Gold.Chemscore.Internal.Correction>
   9.000000E+99

> <Gold.Chemscore.Hbonds>
donor molecule, donor type, donor heavy atom, donor atom, acceptor molecule, acceptor atom, score
      P1  H  6896  6909       L1     3  0.75
      P1  H  7989  7998       L1    10  0.97

> <Gold.Chemscore.Hbond.Weighted>
-6.2729

> <Gold.Chemscore.Metal.Weighted>
-0.0000

> <Gold.Chemscore.Lipo.Weighted>
-9.3429

> <Gold.Chemscore.Internal_Hbond.Weighted>
0.0000

> <Gold.Chemscore.DEClash.Weighted>
0.0019

> <Gold.Chemscore.DEInternal.Weighted>
0.5733

> <Gold.Chemscore.Rot.Weighted>
3.9809

> <Gold.Chemscore.Internal.Correction.Weighted>
   9.000000E+99

> <Gold.Protein.RotatedTorsions>
[ 6907 6896 6895 6894 ] final   77.20 input  -60.11 | X-H torsion
[ 7974 7965 7964 7962 ] final  125.06 input  175.53 | X-H torsion
[ 8008 7997 7996 7995 ] final -157.57 input   59.86 | X-H torsion
[ 10167 10162 10161 10158 ] final  102.77 input  -65.29 | X-H torsion
[ 10718 10713 10712 10709 ] final  133.28 input   66.30 | X-H torsion
[ 10763 10752 10751 10750 ] final -112.68 input  -60.55 | X-H torsion
[ 11005 11000 10999 10996 ] final   65.63 input  -57.11 | X-H torsion

> <Gold.Protein.ActiveResidues>
 VAL166  LYS551  ARG553  GLY616  TRP617  ASP618  TYR619  PRO620  LYS621  CYS622 
 ASP623  PHE694  ASN695  SER759  ASP760  ASP761  ALA762  ILE779  LEU786  VAL792 
 PHE793  MET794  SER795  GLU796  ALA797  LYS798  CYS799  TRP800  GLU811  SER814 

> <Gold.Protein.RotatedAtoms>
  152.5107  134.3852  159.9364 H   0  0  0  0  0  0  0  0  0  0  0  0  # atno 6907 bound_to 6896
  151.3811  133.3815  159.2718 H   0  0  0  0  0  0  0  0  0  0  0  0  # atno 6908 bound_to 6896
  150.9504  134.8925  159.7727 H   0  0  0  0  0  0  0  0  0  0  0  0  # atno 6909 bound_to 6896
  145.0773  139.3683  143.4927 H   0  0  0  0  0  0  0  0  0  0  0  0  # atno 7974 bound_to 7965
  155.7345  140.0806  157.2274 H   0  0  0  0  0  0  0  0  0  0  0  0  # atno 8008 bound_to 7997
  154.4029  140.1589  156.2601 H   0  0  0  0  0  0  0  0  0  0  0  0  # atno 8009 bound_to 7997
  155.9078  140.3406  155.6078 H   0  0  0  0  0  0  0  0  0  0  0  0  # atno 8010 bound_to 7997
  139.7321  144.7033  151.0706 H   0  0  0  0  0  0  0  0  0  0  0  0  # atno 10167 bound_to 10162
  157.4788  131.1084  150.9708 H   0  0  0  0  0  0  0  0  0  0  0  0  # atno 10718 bound_to 10713
  154.8361  135.4482  154.1231 H   0  0  0  0  0  0  0  0  0  0  0  0  # atno 10763 bound_to 10752
  153.2462  135.6921  153.7735 H   0  0  0  0  0  0  0  0  0  0  0  0  # atno 10764 bound_to 10752
  153.7064  135.3363  155.3212 H   0  0  0  0  0  0  0  0  0  0  0  0  # atno 10765 bound_to 10752
  139.9882  134.6633  156.0137 H   0  0  0  0  0  0  0  0  0  0  0  0  # atno 11005 bound_to 11000
  146.3530  140.0547  142.8633 LP  0  0  0  0  0  0  0  0  0  0  0  0  # atno 17320 bound_to 7965
  145.1220  140.9468  143.4595 LP  0  0  0  0  0  0  0  0  0  0  0  0  # atno 17321 bound_to 7965
  140.7773  143.5031  150.9747 LP  0  0  0  0  0  0  0  0  0  0  0  0  # atno 17342 bound_to 10162
  139.8719  143.7182  152.3165 LP  0  0  0  0  0  0  0  0  0  0  0  0  # atno 17343 bound_to 10162
  157.0448  130.5763  149.5361 LP  0  0  0  0  0  0  0  0  0  0  0  0  # atno 17370 bound_to 10713
  156.0111  130.5202  150.7990 LP  0  0  0  0  0  0  0  0  0  0  0  0  # atno 17371 bound_to 10713
  141.1543  133.6544  156.4112 LP  0  0  0  0  0  0  0  0  0  0  0  0  # atno 17394 bound_to 11000
  140.4960  134.6531  157.5230 LP  0  0  0  0  0  0  0  0  0  0  0  0  # atno 17395 bound_to 11000

$$$$
