AV-unprocessed.smi:824|AV-procd|sdf|3850|dock1
  -GOLD-   22720 1293D 1   1.00000     0.00000
 Structure written by MMmdl.
 51 52  0  0  0  0  0  0  0  0  2 V2000
  149.2850  132.9762  154.0410 C   0  0  0  0  0  0  0  0  0  0  0  0
  147.8254  133.3739  153.9107 C   0  0  0  0  0  0  0  0  0  0  0  0
  147.1907  132.9541  152.7328 N   0  0  0  0  0  0  0  0  0  0  0  0
  145.9458  133.2546  152.5186 C   0  0  0  0  0  0  0  0  0  0  0  0
  145.2883  132.8894  151.3427 N   0  0  0  0  0  0  0  0  0  0  0  0
  145.9193  131.9655  150.3981 C   0  0  0  0  0  0  0  0  0  0  0  0
  145.3138  132.1043  148.9918 C   0  0  0  0  0  0  0  0  0  0  0  0
  143.9061  131.9171  149.0540 O   0  0  0  0  0  0  0  0  0  0  0  0
  143.2902  132.8971  149.8788 C   0  0  0  0  0  0  0  0  0  0  0  0
  143.8302  132.7800  151.3136 C   0  0  0  0  0  0  0  0  0  0  0  0
  145.1812  133.9569  153.4355 N   0  5  0  0  0  0  0  0  0  0  0  0
  145.7287  134.3862  154.6069 C   0  0  0  0  0  0  0  0  0  0  0  0
  145.0689  134.9948  155.4484 O   0  0  0  0  0  0  0  0  0  0  0  0
  147.1541  134.1010  154.8500 C   0  0  0  0  0  0  0  0  0  0  0  0
  147.7926  134.6189  156.1436 C   0  0  0  0  0  0  0  0  0  0  0  0
  147.0570  134.1832  157.4328 C   0  0  0  0  0  0  0  0  0  0  0  0
  147.7486  134.6843  158.7147 C   0  0  0  0  0  0  0  0  0  0  0  0
  148.8972  134.2939  158.9283 O   0  0  0  0  0  0  0  0  0  0  0  0
  147.1121  135.5407  159.5530 N   0  0  0  0  0  0  0  0  0  0  0  0
  145.7025  135.9168  159.4090 C   0  0  0  0  0  0  0  0  0  0  0  0
  147.8171  136.1435  160.6962 C   0  0  0  0  0  0  0  0  0  0  0  0
  147.1856  135.7587  162.0553 C   0  0  0  0  0  0  0  0  0  0  0  0
  147.7969  136.5881  163.1937 C   0  0  0  0  0  0  0  0  0  0  0  0
  147.3075  134.2554  162.3585 C   0  0  0  0  0  0  0  0  0  0  0  0
  149.9223  133.8562  154.1072 H   0  0  0  0  0  0  0  0  0  0  0  0
  149.6133  132.3946  153.1787 H   0  0  0  0  0  0  0  0  0  0  0  0
  149.4376  132.3655  154.9307 H   0  0  0  0  0  0  0  0  0  0  0  0
  146.9954  132.1294  150.3377 H   0  0  0  0  0  0  0  0  0  0  0  0
  145.7798  130.9472  150.7632 H   0  0  0  0  0  0  0  0  0  0  0  0
  145.5457  133.0811  148.5641 H   0  0  0  0  0  0  0  0  0  0  0  0
  145.7411  131.3557  148.3246 H   0  0  0  0  0  0  0  0  0  0  0  0
  143.4704  133.8952  149.4761 H   0  0  0  0  0  0  0  0  0  0  0  0
  142.2116  132.7407  149.8706 H   0  0  0  0  0  0  0  0  0  0  0  0
  143.5383  131.8221  151.7459 H   0  0  0  0  0  0  0  0  0  0  0  0
  143.3799  133.5596  151.9298 H   0  0  0  0  0  0  0  0  0  0  0  0
  148.8259  134.2726  156.1833 H   0  0  0  0  0  0  0  0  0  0  0  0
  147.8643  135.7055  156.1264 H   0  0  0  0  0  0  0  0  0  0  0  0
  146.0096  134.4709  157.3759 H   0  0  0  0  0  0  0  0  0  0  0  0
  147.0440  133.0938  157.4746 H   0  0  0  0  0  0  0  0  0  0  0  0
  145.0613  135.0361  159.4602 H   0  0  0  0  0  0  0  0  0  0  0  0
  145.5296  136.4177  158.4573 H   0  0  0  0  0  0  0  0  0  0  0  0
  145.3673  136.6051  160.1847 H   0  0  0  0  0  0  0  0  0  0  0  0
  148.8725  135.8686  160.6923 H   0  0  0  0  0  0  0  0  0  0  0  0
  147.8188  137.2296  160.5865 H   0  0  0  0  0  0  0  0  0  0  0  0
  146.1224  135.9992  162.0205 H   0  0  0  0  0  0  0  0  0  0  0  0
  148.8628  136.3865  163.3031 H   0  0  0  0  0  0  0  0  0  0  0  0
  147.3159  136.3630  164.1459 H   0  0  0  0  0  0  0  0  0  0  0  0
  147.6768  137.6562  163.0102 H   0  0  0  0  0  0  0  0  0  0  0  0
  148.3511  133.9434  162.4079 H   0  0  0  0  0  0  0  0  0  0  0  0
  146.8179  133.6521  161.5952 H   0  0  0  0  0  0  0  0  0  0  0  0
  146.8390  134.0068  163.3112 H   0  0  0  0  0  0  0  0  0  0  0  0
  1  2  1  0  0  0  0
  1 25  1  0  0  0  0
  1 26  1  0  0  0  0
  1 27  1  0  0  0  0
  2 14  2  0  0  0  0
  2  3  1  0  0  0  0
  3  4  2  0  0  0  0
  4  5  1  0  0  0  0
  4 11  1  0  0  0  0
  5 10  1  0  0  0  0
  5  6  1  0  0  0  0
  6  7  1  0  0  0  0
  6 28  1  0  0  0  0
  6 29  1  0  0  0  0
  7  8  1  0  0  0  0
  7 30  1  0  0  0  0
  7 31  1  0  0  0  0
  8  9  1  0  0  0  0
  9 10  1  0  0  0  0
  9 32  1  0  0  0  0
  9 33  1  0  0  0  0
 10 34  1  0  0  0  0
 10 35  1  0  0  0  0
 11 12  1  0  0  0  0
 12 13  2  0  0  0  0
 12 14  1  0  0  0  0
 14 15  1  0  0  0  0
 15 16  1  0  0  0  0
 15 36  1  0  0  0  0
 15 37  1  0  0  0  0
 16 17  1  0  0  0  0
 16 38  1  0  0  0  0
 16 39  1  0  0  0  0
 17 18  2  0  0  0  0
 17 19  1  0  0  0  0
 19 20  1  0  0  0  0
 19 21  1  0  0  0  0
 20 40  1  0  0  0  0
 20 41  1  0  0  0  0
 20 42  1  0  0  0  0
 21 22  1  0  0  0  0
 21 43  1  0  0  0  0
 21 44  1  0  0  0  0
 22 23  1  0  0  0  0
 22 24  1  0  0  0  0
 22 45  1  0  0  0  0
 23 46  1  0  0  0  0
 23 47  1  0  0  0  0
 23 48  1  0  0  0  0
 24 49  1  0  0  0  0
 24 50  1  0  0  0  0
 24 51  1  0  0  0  0
M  CHG  1  11  -1
M  END
> <s_m_source_file>
AV-unprocessed.smi

> <i_m_source_file_index>
824

> <i_lp_mmshare_version>
43012

> <i_f3d_flags>
0

> <s_epik_input>
W0NIMl0xW0NIMl1PW0NIMl1bQ0gyXU4xYyhuYzJbQ0gzXSlbbkhdYyg9TyljMltDSDJdW0NIMl1DKD1PKU4oW0NIM10pW0NIMl1bQ0hdKFtDSDNdKVtDSDNd

> <s_epik_cmdline>
J2VwaWtfcHl0aG9uJywgJy1waCcsICc3LjAnLCAnLXRuJywgJzgnLCAnLW1hJywgJzIwMCcsICctbWV0YWxfYmluZGluZycsICctaW1hZScsICc8aW5maWxlLm1hZT4nLCAnLW9tYWUnLCAnPG91dGZpbGUubWFlPic=

> <r_lp_tautomer_probability>
1

> <r_epik_Ionization_Penalty>
5.09891

> <r_epik_Ionization_Penalty_Charging>
4.43024e-08

> <r_epik_Ionization_Penalty_Neutral>
5.09891

> <r_epik_State_Penalty>
2.55975

> <r_epik_Charging_Adjusted_Penalty>
2.55975

> <i_epik_Tot_Q>
-1

> <i_epik_Tot_abs_Q>
1

> <r_epik_Metal_State_Penalty>
0.115808

> <b_epik_Metal_Only>
0

> <s_lp_Force_Field>
OPLS_2005

> <r_lp_Energy>
31.6324

> <b_lp_Chiralities_Consistent>
1

> <s_lp_Variant>
AV-unprocessed.smi:824-3

> <Gold.Version>
5.8.1

> <Gold.Id.Protein>
6NUR|6NUR_protein|mol2

> <Gold.PLP.Fitness>
41.7264

> <Gold.PLP.PLP>
-36.6157

> <Gold.PLP.part.hbond>
-2.0000

> <Gold.PLP.part.metal>
0.0000

> <Gold.PLP.part.buried>
-1.8225

> <Gold.PLP.part.nonpolar>
-33.0786

> <Gold.PLP.part.repulsive>
0.5023

> <Gold.PLP.ligand.clash>
0.0000

> <Gold.PLP.ligand.torsion>
0.2198

> <Gold.PLP.Chemscore.Hbond>
1.7200

> <Gold.PLP.Chemscore.CHOScore>
0.0000

> <Gold.PLP.Chemscore.Metal>
0.0000

> <Gold.Chemscore.Hbonds>
donor molecule, donor type, donor heavy atom, donor atom, acceptor molecule, acceptor atom, score
      P1  H  6896  6907       L1    18  1.00
      P1  H 10785 10796       L1     8  0.70

> <Gold.PLP.Chemscore.Internal.Correction>
0.3903

> <Gold.Rescore>
     Score         DG    S(hbond)    S(metal)    S(lipo)     H(rot)  DE(clash)    DE(int)     intcor
     16.41     -17.99       1.74        0.00      93.71       1.66       0.51       1.07       ----

> <Gold.Chemscore.Fitness>
16.4082

> <Gold.Chemscore.DG>
-17.9937

> <Gold.Chemscore.ZeroCoef>
-5.4800

> <Gold.Chemscore.Hbond>
1.7390

> <Gold.Chemscore.Metal>
0.0000

> <Gold.Chemscore.Lipo>
93.7093

> <Gold.Chemscore.Internal_Hbond>
0.0000

> <Gold.Chemscore.DEClash>
0.5128

> <Gold.Chemscore.DEInternal>
1.0726

> <Gold.Chemscore.Rot>
1.6635

> <Gold.Chemscore.Internal.Correction>
   9.000000E+99

> <Gold.Chemscore.Hbonds>
donor molecule, donor type, donor heavy atom, donor atom, acceptor molecule, acceptor atom, score
      P1  H  6896  6907       L1    18  0.94
      P1  H 10785 10796       L1     8  0.66

> <Gold.Chemscore.Hbond.Weighted>
-5.8082

> <Gold.Chemscore.Metal.Weighted>
-0.0000

> <Gold.Chemscore.Lipo.Weighted>
-10.9640

> <Gold.Chemscore.Internal_Hbond.Weighted>
0.0000

> <Gold.Chemscore.DEClash.Weighted>
0.5128

> <Gold.Chemscore.DEInternal.Weighted>
1.0726

> <Gold.Chemscore.Rot.Weighted>
4.2585

> <Gold.Chemscore.Internal.Correction.Weighted>
   9.000000E+99

> <Gold.Protein.RotatedTorsions>
[ 6907 6896 6895 6894 ] final -108.29 input  -60.11 | X-H torsion
[ 7974 7965 7964 7962 ] final  -73.08 input  175.53 | X-H torsion
[ 8008 7997 7996 7995 ] final -177.78 input   59.86 | X-H torsion
[ 10167 10162 10161 10158 ] final -151.30 input  -65.29 | X-H torsion
[ 10718 10713 10712 10709 ] final  -60.64 input   66.30 | X-H torsion
[ 10763 10752 10751 10750 ] final   87.80 input  -60.55 | X-H torsion
[ 11005 11000 10999 10996 ] final  140.52 input  -57.11 | X-H torsion

> <Gold.Protein.ActiveResidues>
 VAL166  LYS551  ARG553  GLY616  TRP617  ASP618  TYR619  PRO620  LYS621  CYS622 
 ASP623  PHE694  ASN695  SER759  ASP760  ASP761  ALA762  ILE779  LEU786  VAL792 
 PHE793  MET794  SER795  GLU796  ALA797  LYS798  CYS799  TRP800  GLU811  SER814 

> <Gold.Protein.RotatedAtoms>
  150.7493  133.9700  159.3542 H   0  0  0  0  0  0  0  0  0  0  0  0  # atno 6907 bound_to 6896
  151.7633  135.0803  160.0358 H   0  0  0  0  0  0  0  0  0  0  0  0  # atno 6908 bound_to 6896
  152.3389  133.6006  159.5898 H   0  0  0  0  0  0  0  0  0  0  0  0  # atno 6909 bound_to 6896
  145.6568  140.9265  143.0955 H   0  0  0  0  0  0  0  0  0  0  0  0  # atno 7974 bound_to 7965
  156.0110  140.1240  157.0454 H   0  0  0  0  0  0  0  0  0  0  0  0  # atno 8008 bound_to 7997
  154.4276  140.1088  156.5899 H   0  0  0  0  0  0  0  0  0  0  0  0  # atno 8009 bound_to 7997
  155.6080  140.3471  155.4616 H   0  0  0  0  0  0  0  0  0  0  0  0  # atno 8010 bound_to 7997
  139.7280  143.8853  152.2525 H   0  0  0  0  0  0  0  0  0  0  0  0  # atno 10167 bound_to 10162
  156.0976  130.4190  150.0882 H   0  0  0  0  0  0  0  0  0  0  0  0  # atno 10718 bound_to 10713
  153.1704  135.4530  154.9895 H   0  0  0  0  0  0  0  0  0  0  0  0  # atno 10763 bound_to 10752
  154.7962  135.3238  154.7664 H   0  0  0  0  0  0  0  0  0  0  0  0  # atno 10764 bound_to 10752
  153.8141  135.6952  153.4891 H   0  0  0  0  0  0  0  0  0  0  0  0  # atno 10765 bound_to 10752
  140.0333  134.9341  157.0705 H   0  0  0  0  0  0  0  0  0  0  0  0  # atno 11005 bound_to 11000
  144.7103  139.8397  143.7417 LP  0  0  0  0  0  0  0  0  0  0  0  0  # atno 17320 bound_to 7965
  146.1158  139.4169  143.0259 LP  0  0  0  0  0  0  0  0  0  0  0  0  # atno 17321 bound_to 7965
  139.8768  144.7039  150.8923 LP  0  0  0  0  0  0  0  0  0  0  0  0  # atno 17342 bound_to 10162
  140.7766  143.3693  151.1679 LP  0  0  0  0  0  0  0  0  0  0  0  0  # atno 17343 bound_to 10162
  156.8878  130.9578  151.3592 LP  0  0  0  0  0  0  0  0  0  0  0  0  # atno 17370 bound_to 10713
  157.6140  130.8605  149.8999 LP  0  0  0  0  0  0  0  0  0  0  0  0  # atno 17371 bound_to 10713
  140.4189  134.1902  155.7164 LP  0  0  0  0  0  0  0  0  0  0  0  0  # atno 17394 bound_to 11000
  141.1843  133.8346  157.1143 LP  0  0  0  0  0  0  0  0  0  0  0  0  # atno 17395 bound_to 11000

$$$$
