AV-unprocessed.smi:1005|AV-procd|sdf|4368|dock8
  -GOLD-   22720 2273D 1   1.00000     0.00000
 Structure written by MMmdl.
 57 59  0  0  0  0  0  0  0  0  3 V2000
  153.0583  142.7370  161.4514 C   0  0  0  0  0  0  0  0  0  0  0  0
  152.3753  142.4762  160.1204 C   0  0  0  0  0  0  0  0  0  0  0  0
  152.4717  141.1921  159.5384 C   0  0  0  0  0  0  0  0  0  0  0  0
  151.8519  140.9092  158.3018 C   0  0  0  0  0  0  0  0  0  0  0  0
  151.8191  139.7416  157.5585 N   0  0  0  0  0  0  0  0  0  0  0  0
  151.0872  140.1101  156.5117 C   0  0  0  0  0  0  0  0  0  0  0  0
  150.6440  141.3816  156.4858 N   0  0  0  0  0  0  0  0  0  0  0  0
  149.8382  142.0047  155.4507 C   0  0  0  0  0  0  0  0  0  0  0  0
  149.0375  140.9762  154.6290 C   0  0  2  0  0  0  0  0  0  0  0  0
  149.6220  140.8420  153.3477 O   0  0  0  0  0  0  0  0  0  0  0  0
  147.5682  141.4077  154.4537 C   0  0  0  0  0  0  0  0  0  0  0  0
  147.0810  142.2375  155.5889 N   0  3  2  0  0  0  0  0  0  0  0  0
  147.0718  141.5241  156.8889 C   0  0  0  0  0  0  0  0  0  0  0  0
  145.8548  140.5906  157.0008 C   0  0  0  0  0  0  0  0  0  0  0  0
  144.6641  141.3485  156.8225 O   0  0  0  0  0  0  0  0  0  0  0  0
  144.5838  141.9488  155.5335 C   0  0  1  0  0  0  0  0  0  0  0  0
  143.2380  142.6933  155.4402 C   0  0  0  0  0  0  0  0  0  0  0  0
  142.1157  141.8124  155.0256 N   0  3  0  0  0  0  0  0  0  0  0  0
  140.7883  142.4642  155.1168 C   0  0  0  0  0  0  0  0  0  0  0  0
  142.1322  140.5178  155.7427 C   0  0  0  0  0  0  0  0  0  0  0  0
  145.7787  142.9146  155.3563 C   0  0  0  0  0  0  0  0  0  0  0  0
  151.1261  141.9539  157.6584 C   0  0  0  0  0  0  0  0  0  0  0  0
  151.0232  143.2357  158.2270 C   0  0  0  0  0  0  0  0  0  0  0  0
  151.6488  143.5016  159.4631 C   0  0  0  0  0  0  0  0  0  0  0  0
  151.5321  144.8891  160.0690 C   0  0  0  0  0  0  0  0  0  0  0  0
  153.5690  141.8462  161.8185 H   0  0  0  0  0  0  0  0  0  0  0  0
  152.3281  143.0371  162.2032 H   0  0  0  0  0  0  0  0  0  0  0  0
  153.7996  143.5299  161.3517 H   0  0  0  0  0  0  0  0  0  0  0  0
  153.0252  140.4110  160.0389 H   0  0  0  0  0  0  0  0  0  0  0  0
  150.8622  139.4162  155.7149 H   0  0  0  0  0  0  0  0  0  0  0  0
  149.1610  142.7137  155.9288 H   0  0  0  0  0  0  0  0  0  0  0  0
  150.4925  142.5894  154.8025 H   0  0  0  0  0  0  0  0  0  0  0  0
  149.0953  140.0112  155.1317 H   0  0  0  0  0  0  0  0  0  0  0  0
  149.0228  140.3665  152.7913 H   0  0  0  0  0  0  0  0  0  0  0  0
  147.4400  141.9454  153.5146 H   0  0  0  0  0  0  0  0  0  0  0  0
  146.9572  140.5077  154.3676 H   0  0  0  0  0  0  0  0  0  0  0  0
  148.0014  140.9728  157.0354 H   0  0  0  0  0  0  0  0  0  0  0  0
  147.0295  142.2664  157.6872 H   0  0  0  0  0  0  0  0  0  0  0  0
  145.9049  139.7824  156.2696 H   0  0  0  0  0  0  0  0  0  0  0  0
  145.8305  140.1252  157.9863 H   0  0  0  0  0  0  0  0  0  0  0  0
  144.6280  141.1742  154.7687 H   0  0  0  0  0  0  0  0  0  0  0  0
  143.0181  143.1226  156.4190 H   0  0  0  0  0  0  0  0  0  0  0  0
  143.3112  143.5333  154.7477 H   0  0  0  0  0  0  0  0  0  0  0  0
  140.5662  142.7574  156.1437 H   0  0  0  0  0  0  0  0  0  0  0  0
  140.0042  141.7835  154.7834 H   0  0  0  0  0  0  0  0  0  0  0  0
  140.7304  143.3516  154.4878 H   0  0  0  0  0  0  0  0  0  0  0  0
  141.9946  140.6627  156.8153 H   0  0  0  0  0  0  0  0  0  0  0  0
  143.0782  139.9982  155.5857 H   0  0  0  0  0  0  0  0  0  0  0  0
  141.3366  139.8653  155.3814 H   0  0  0  0  0  0  0  0  0  0  0  0
  145.6950  143.7285  156.0779 H   0  0  0  0  0  0  0  0  0  0  0  0
  145.7526  143.3808  154.3719 H   0  0  0  0  0  0  0  0  0  0  0  0
  150.4687  144.0085  157.7157 H   0  0  0  0  0  0  0  0  0  0  0  0
  150.9356  145.5495  159.4388 H   0  0  0  0  0  0  0  0  0  0  0  0
  152.5184  145.3385  160.1857 H   0  0  0  0  0  0  0  0  0  0  0  0
  151.0547  144.8401  161.0479 H   0  0  0  0  0  0  0  0  0  0  0  0
  142.2687  141.5898  154.0517 H   0  0  0  0  0  0  0  0  0  0  0  0
  147.7747  142.9666  155.6841 H   0  0  0  0  0  0  0  0  0  0  0  0
  1  2  1  0  0  0  0
  1 26  1  0  0  0  0
  1 27  1  0  0  0  0
  1 28  1  0  0  0  0
  2 24  1  0  0  0  0
  2  3  2  0  0  0  0
  3  4  1  0  0  0  0
  3 29  1  0  0  0  0
  4 22  2  0  0  0  0
  4  5  1  0  0  0  0
  5  6  2  0  0  0  0
  6  7  1  0  0  0  0
  6 30  1  0  0  0  0
  7  8  1  0  0  0  0
  7 22  1  0  0  0  0
  8  9  1  0  0  0  0
  8 31  1  0  0  0  0
  8 32  1  0  0  0  0
  9 10  1  0  0  0  0
  9 11  1  0  0  0  0
  9 33  1  0  0  0  0
 10 34  1  0  0  0  0
 11 12  1  0  0  0  0
 11 35  1  0  0  0  0
 11 36  1  0  0  0  0
 12 21  1  0  0  0  0
 12 13  1  0  0  0  0
 12 57  1  0  0  0  0
 13 14  1  0  0  0  0
 13 37  1  0  0  0  0
 13 38  1  0  0  0  0
 14 15  1  0  0  0  0
 14 39  1  0  0  0  0
 14 40  1  0  0  0  0
 15 16  1  0  0  0  0
 16 17  1  0  0  0  0
 16 21  1  0  0  0  0
 16 41  1  0  0  0  0
 17 18  1  0  0  0  0
 17 42  1  0  0  0  0
 17 43  1  0  0  0  0
 18 19  1  0  0  0  0
 18 20  1  0  0  0  0
 18 56  1  0  0  0  0
 19 44  1  0  0  0  0
 19 45  1  0  0  0  0
 19 46  1  0  0  0  0
 20 47  1  0  0  0  0
 20 48  1  0  0  0  0
 20 49  1  0  0  0  0
 21 50  1  0  0  0  0
 21 51  1  0  0  0  0
 22 23  1  0  0  0  0
 23 24  2  0  0  0  0
 23 52  1  0  0  0  0
 24 25  1  0  0  0  0
 25 53  1  0  0  0  0
 25 54  1  0  0  0  0
 25 55  1  0  0  0  0
M  CHG  1  12   1
M  CHG  1  18   1
M  END
> <s_m_source_file>
AV-unprocessed.smi

> <i_m_source_file_index>
1005

> <i_lp_mmshare_version>
43012

> <i_f3d_flags>
0

> <s_epik_input>
W0NIM11jKFtjSF0xKWMoW0NIM10pW2NIXWMoYzEyKW4oW2NIXW4yKVtDSDJdW0NASF0oW09IXSlbQ0gyXU4zW0NIMl1bQ0gyXU9bQ0BIXShbQ0gyXTMpW0NIMl1OKFtDSDNdKVtDSDNd

> <s_epik_cmdline>
J2VwaWtfcHl0aG9uJywgJy1waCcsICc3LjAnLCAnLXRuJywgJzgnLCAnLW1hJywgJzIwMCcsICctbWV0YWxfYmluZGluZycsICctaW1hZScsICc8aW5maWxlLm1hZT4nLCAnLW9tYWUnLCAnPG91dGZpbGUubWFlPic=

> <r_epik_Ionization_Penalty>
1.0968

> <r_epik_Ionization_Penalty_Charging>
1.0096

> <r_epik_Ionization_Penalty_Neutral>
0.0871956

> <r_epik_State_Penalty>
1.31185

> <r_epik_Charging_Adjusted_Penalty>
2.32145

> <i_epik_Tot_Q>
2

> <i_epik_Tot_abs_Q>
2

> <r_epik_Metal_State_Penalty>
1.22442

> <b_epik_Metal_Only>
0

> <s_lp_Force_Field>
OPLS_2005

> <r_lp_Energy>
35.7023

> <b_lp_Chiralities_Consistent>
1

> <s_lp_Variant>
AV-unprocessed.smi:1005-7

> <Gold.Version>
5.8.1

> <Gold.Id.Protein>
6NUR|6NUR_protein|mol2

> <Gold.PLP.Fitness>
59.7665

> <Gold.PLP.PLP>
-46.4533

> <Gold.PLP.part.hbond>
-4.2917

> <Gold.PLP.part.metal>
0.0000

> <Gold.PLP.part.buried>
-5.0751

> <Gold.PLP.part.nonpolar>
-37.3743

> <Gold.PLP.part.repulsive>
0.0870

> <Gold.PLP.ligand.clash>
0.0000

> <Gold.PLP.ligand.torsion>
1.7657

> <Gold.PLP.Chemscore.Hbond>
5.5280

> <Gold.PLP.Chemscore.CHOScore>
0.0000

> <Gold.PLP.Chemscore.Metal>
0.0000

> <Gold.Chemscore.Hbonds>
donor molecule, donor type, donor heavy atom, donor atom, acceptor molecule, acceptor atom, score
      L1  H    10    34       P1  7957  0.30
      L1  H    12    57       P1  8028  1.92
      L1  H    18    56       P1 10174  0.81
      P1  H  7989  7998       L1    10  0.27
      P1  H  8011  8017       L1    10  0.95

> <Gold.PLP.Chemscore.Internal.Correction>
0.2606

> <Gold.Rescore>
     Score         DG    S(hbond)    S(metal)    S(lipo)     H(rot)  DE(clash)    DE(int)     intcor
     18.37     -21.71       2.56        0.00     120.01       2.48       0.39       2.95       ----

> <Gold.Chemscore.Fitness>
18.3741

> <Gold.Chemscore.DG>
-21.7104

> <Gold.Chemscore.ZeroCoef>
-5.4800

> <Gold.Chemscore.Hbond>
2.5572

> <Gold.Chemscore.Metal>
0.0000

> <Gold.Chemscore.Lipo>
120.0141

> <Gold.Chemscore.Internal_Hbond>
0.0000

> <Gold.Chemscore.DEClash>
0.3864

> <Gold.Chemscore.DEInternal>
2.9499

> <Gold.Chemscore.Rot>
2.4814

> <Gold.Chemscore.Internal.Correction>
   9.000000E+99

> <Gold.Chemscore.Hbonds>
donor molecule, donor type, donor heavy atom, donor atom, acceptor molecule, acceptor atom, score
      L1  H    10    34       P1  7957  0.30
      L1  H    12    57       P1  8028  0.45
      L1  H    18    56       P1 10174  0.03
      P1  H  7989  7998       L1    10  0.20
      P1  H  8011  8017       L1    10  0.20

> <Gold.Chemscore.Hbond.Weighted>
-8.5411

> <Gold.Chemscore.Metal.Weighted>
-0.0000

> <Gold.Chemscore.Lipo.Weighted>
-14.0416

> <Gold.Chemscore.Internal_Hbond.Weighted>
0.0000

> <Gold.Chemscore.DEClash.Weighted>
0.3864

> <Gold.Chemscore.DEInternal.Weighted>
2.9499

> <Gold.Chemscore.Rot.Weighted>
6.3524

> <Gold.Chemscore.Internal.Correction.Weighted>
   9.000000E+99

> <Gold.Protein.RotatedTorsions>
[ 6907 6896 6895 6894 ] final  120.93 input  -60.11 | X-H torsion
[ 7974 7965 7964 7962 ] final  -57.29 input  175.53 | X-H torsion
[ 8008 7997 7996 7995 ] final   31.23 input   59.86 | X-H torsion
[ 10167 10162 10161 10158 ] final  143.36 input  -65.29 | X-H torsion
[ 10718 10713 10712 10709 ] final   65.53 input   66.30 | X-H torsion
[ 10763 10752 10751 10750 ] final -102.53 input  -60.55 | X-H torsion
[ 11005 11000 10999 10996 ] final   85.15 input  -57.11 | X-H torsion

> <Gold.Protein.ActiveResidues>
 VAL166  LYS551  ARG553  GLY616  TRP617  ASP618  TYR619  PRO620  LYS621  CYS622 
 ASP623  PHE694  ASN695  SER759  ASP760  ASP761  ALA762  ILE779  LEU786  VAL792 
 PHE793  MET794  SER795  GLU796  ALA797  LYS798  CYS799  TRP800  GLU811  SER814 

> <Gold.Protein.RotatedAtoms>
  152.4360  133.7362  159.6615 H   0  0  0  0  0  0  0  0  0  0  0  0  # atno 6907 bound_to 6896
  150.8244  133.8186  159.3131 H   0  0  0  0  0  0  0  0  0  0  0  0  # atno 6908 bound_to 6896
  151.5859  135.1058  160.0079 H   0  0  0  0  0  0  0  0  0  0  0  0  # atno 6909 bound_to 6896
  145.8528  140.8340  142.9977 H   0  0  0  0  0  0  0  0  0  0  0  0  # atno 7974 bound_to 7965
  155.1031  140.3231  155.4541 H   0  0  0  0  0  0  0  0  0  0  0  0  # atno 8008 bound_to 7997
  156.2711  140.2057  156.6104 H   0  0  0  0  0  0  0  0  0  0  0  0  # atno 8009 bound_to 7997
  154.6813  140.0526  157.0256 H   0  0  0  0  0  0  0  0  0  0  0  0  # atno 8010 bound_to 7997
  139.4971  144.6046  151.6408 H   0  0  0  0  0  0  0  0  0  0  0  0  # atno 10167 bound_to 10162
  157.6111  130.9219  149.9988 H   0  0  0  0  0  0  0  0  0  0  0  0  # atno 10718 bound_to 10713
  154.7741  135.4857  153.9707 H   0  0  0  0  0  0  0  0  0  0  0  0  # atno 10763 bound_to 10752
  153.1405  135.6771  153.9042 H   0  0  0  0  0  0  0  0  0  0  0  0  # atno 10764 bound_to 10752
  153.8718  135.3143  155.3421 H   0  0  0  0  0  0  0  0  0  0  0  0  # atno 10765 bound_to 10752
  139.8980  134.8266  156.2542 H   0  0  0  0  0  0  0  0  0  0  0  0  # atno 11005 bound_to 11000
  144.6728  140.0978  143.7462 LP  0  0  0  0  0  0  0  0  0  0  0  0  # atno 17320 bound_to 7965
  145.9338  139.2624  143.1309 LP  0  0  0  0  0  0  0  0  0  0  0  0  # atno 17321 bound_to 7965
  140.5704  144.0119  150.6214 LP  0  0  0  0  0  0  0  0  0  0  0  0  # atno 17342 bound_to 10162
  140.3234  143.3122  152.0761 LP  0  0  0  0  0  0  0  0  0  0  0  0  # atno 17343 bound_to 10162
  156.1214  130.3646  149.9880 LP  0  0  0  0  0  0  0  0  0  0  0  0  # atno 17370 bound_to 10713
  156.7960  130.9273  151.3646 LP  0  0  0  0  0  0  0  0  0  0  0  0  # atno 17371 bound_to 10713
  141.0204  133.7044  156.1259 LP  0  0  0  0  0  0  0  0  0  0  0  0  # atno 17394 bound_to 11000
  140.7242  134.4326  157.5572 LP  0  0  0  0  0  0  0  0  0  0  0  0  # atno 17395 bound_to 11000

$$$$
