AV-unprocessed.smi:1622|AV-procd|sdf|6500|dock1
  -GOLD-   22720 7163D 1   1.00000     0.00000
 Structure written by MMmdl.
 40 41  0  0  0  0  0  0  0  0  3 V2000
  152.1644  138.2130  154.9029 C   0  0  0  0  0  0  0  0  0  0  0  0
  150.7069  137.9667  155.3232 C   0  0  0  0  0  0  0  0  0  0  0  0
  150.3142  138.5789  156.6957 C   0  0  1  0  0  0  0  0  0  0  0  0
  150.5583  137.5993  157.8704 C   0  0  0  0  0  0  0  0  0  0  0  0
  149.5742  137.7689  158.9327 N   0  0  0  0  0  0  0  0  0  0  0  0
  148.9225  136.7767  159.5524 C   0  0  0  0  0  0  0  0  0  0  0  0
  149.1473  135.6051  159.2404 O   0  0  0  0  0  0  0  0  0  0  0  0
  148.0504  137.2057  160.4918 N   0  5  0  0  0  0  0  0  0  0  0  0
  147.2743  136.3225  161.1415 C   0  0  0  0  0  0  0  0  0  0  0  0
  147.6618  135.0605  161.3754 N   0  0  0  0  0  0  0  0  0  0  0  0
  146.7130  134.3191  162.0645 N   0  0  0  0  0  0  0  0  0  0  0  0
  145.6236  135.0364  162.3497 C   0  0  0  0  0  0  0  0  0  0  0  0
  144.4581  134.4711  163.0863 C   0  0  0  0  0  0  0  0  0  0  0  0
  145.6782  136.6995  161.7899 S   0  0  0  0  0  0  0  0  0  0  0  0
  150.9894  139.8900  156.9303 N   0  3  0  0  0  0  0  0  0  0  0  0
  150.6555  140.9583  155.9614 C   0  0  0  0  0  0  0  0  0  0  0  0
  150.9848  142.2895  156.6456 C   0  0  0  0  0  0  0  0  0  0  0  0
  151.1639  141.9583  158.1289 C   0  0  0  0  0  0  0  0  0  0  0  0
  150.7652  140.4888  158.2633 C   0  0  0  0  0  0  0  0  0  0  0  0
  152.3558  137.7870  153.9180 H   0  0  0  0  0  0  0  0  0  0  0  0
  152.8653  137.7504  155.5977 H   0  0  0  0  0  0  0  0  0  0  0  0
  152.3932  139.2773  154.8505 H   0  0  0  0  0  0  0  0  0  0  0  0
  150.0447  138.3376  154.5411 H   0  0  0  0  0  0  0  0  0  0  0  0
  150.5292  136.8911  155.3377 H   0  0  0  0  0  0  0  0  0  0  0  0
  149.2415  138.7769  156.6595 H   0  0  0  0  0  0  0  0  0  0  0  0
  150.5461  136.5700  157.5082 H   0  0  0  0  0  0  0  0  0  0  0  0
  151.5387  137.7630  158.3175 H   0  0  0  0  0  0  0  0  0  0  0  0
  149.3633  138.7130  159.2212 H   0  0  0  0  0  0  0  0  0  0  0  0
  144.7504  134.2093  164.1033 H   0  0  0  0  0  0  0  0  0  0  0  0
  144.0947  133.5753  162.5823 H   0  0  0  0  0  0  0  0  0  0  0  0
  143.6480  135.1989  163.1314 H   0  0  0  0  0  0  0  0  0  0  0  0
  151.2037  140.8396  155.0263 H   0  0  0  0  0  0  0  0  0  0  0  0
  149.5889  140.9242  155.7333 H   0  0  0  0  0  0  0  0  0  0  0  0
  151.9033  142.7173  156.2419 H   0  0  0  0  0  0  0  0  0  0  0  0
  150.1879  143.0171  156.4877 H   0  0  0  0  0  0  0  0  0  0  0  0
  152.2103  142.0862  158.4091 H   0  0  0  0  0  0  0  0  0  0  0  0
  150.5683  142.6035  158.7756 H   0  0  0  0  0  0  0  0  0  0  0  0
  149.7074  140.4174  158.5220 H   0  0  0  0  0  0  0  0  0  0  0  0
  151.3404  139.9876  159.0423 H   0  0  0  0  0  0  0  0  0  0  0  0
  151.9844  139.7338  156.8530 H   0  0  0  0  0  0  0  0  0  0  0  0
  1  2  1  0  0  0  0
  1 20  1  0  0  0  0
  1 21  1  0  0  0  0
  1 22  1  0  0  0  0
  2  3  1  0  0  0  0
  2 23  1  0  0  0  0
  2 24  1  0  0  0  0
  3  4  1  0  0  0  0
  3 15  1  0  0  0  0
  3 25  1  0  0  0  0
  4  5  1  0  0  0  0
  4 26  1  0  0  0  0
  4 27  1  0  0  0  0
  5  6  1  0  0  0  0
  5 28  1  0  0  0  0
  6  7  2  0  0  0  0
  6  8  1  0  0  0  0
  8  9  1  0  0  0  0
  9 14  1  0  0  0  0
  9 10  2  0  0  0  0
 10 11  1  0  0  0  0
 11 12  2  0  0  0  0
 12 13  1  0  0  0  0
 12 14  1  0  0  0  0
 13 29  1  0  0  0  0
 13 30  1  0  0  0  0
 13 31  1  0  0  0  0
 15 19  1  0  0  0  0
 15 16  1  0  0  0  0
 15 40  1  0  0  0  0
 16 17  1  0  0  0  0
 16 32  1  0  0  0  0
 16 33  1  0  0  0  0
 17 18  1  0  0  0  0
 17 34  1  0  0  0  0
 17 35  1  0  0  0  0
 18 19  1  0  0  0  0
 18 36  1  0  0  0  0
 18 37  1  0  0  0  0
 19 38  1  0  0  0  0
 19 39  1  0  0  0  0
M  CHG  1   8  -1
M  CHG  1  15   1
M  END
> <s_m_source_file>
AV-unprocessed.smi

> <i_m_source_file_index>
1622

> <i_lp_mmshare_version>
43012

> <i_f3d_flags>
0

> <s_epik_input>
W0NIMl0xW0NIMl1bQ0gyXVtDSDJdTjFbQ0BIXShbQ0gyXVtDSDNdKVtDSDJdW05IXUMoPU8pW05IXWMybm5jKHMyKVtDSDNd

> <s_epik_cmdline>
J2VwaWtfcHl0aG9uJywgJy1waCcsICc3LjAnLCAnLXRuJywgJzgnLCAnLW1hJywgJzIwMCcsICctbWV0YWxfYmluZGluZycsICctaW1hZScsICc8aW5maWxlLm1hZT4nLCAnLW9tYWUnLCAnPG91dGZpbGUubWFlPic=

> <r_lp_tautomer_probability>
1

> <r_epik_Ionization_Penalty>
4.34497

> <r_epik_Ionization_Penalty_Charging>
4.23453

> <r_epik_Ionization_Penalty_Neutral>
0.110433

> <r_epik_State_Penalty>
4.23293

> <r_epik_Charging_Adjusted_Penalty>
8.46746

> <i_epik_Tot_Q>
0

> <i_epik_Tot_abs_Q>
2

> <r_epik_Metal_State_Penalty>
0.701092

> <b_epik_Metal_Only>
1

> <s_lp_Force_Field>
OPLS_2005

> <r_lp_Energy>
26.9801

> <b_lp_Chiralities_Consistent>
1

> <s_lp_Variant>
AV-unprocessed.smi:1622-4

> <Gold.Version>
5.8.1

> <Gold.Id.Protein>
6NUR|6NUR_protein|mol2

> <Gold.PLP.Fitness>
40.3201

> <Gold.PLP.PLP>
-30.3124

> <Gold.PLP.part.hbond>
-3.0000

> <Gold.PLP.part.metal>
0.0000

> <Gold.PLP.part.buried>
-6.4534

> <Gold.PLP.part.nonpolar>
-21.5803

> <Gold.PLP.part.repulsive>
0.2661

> <Gold.PLP.ligand.clash>
0.0000

> <Gold.PLP.ligand.torsion>
1.0188

> <Gold.PLP.Chemscore.Hbond>
3.9631

> <Gold.PLP.Chemscore.CHOScore>
0.0000

> <Gold.PLP.Chemscore.Metal>
0.0000

> <Gold.Chemscore.Hbonds>
donor molecule, donor type, donor heavy atom, donor atom, acceptor molecule, acceptor atom, score
      P1  H  6896  6908       L1     7  1.00
      P1  H  6931  6943       L1     8  1.50
      P1  H  6934  6947       L1     8  1.39

> <Gold.PLP.Chemscore.Internal.Correction>
0.1559

> <Gold.Rescore>
     Score         DG    S(hbond)    S(metal)    S(lipo)     H(rot)  DE(clash)    DE(int)     intcor
     12.20     -15.08       1.75        0.00      70.07       1.73       0.02       2.85       ----

> <Gold.Chemscore.Fitness>
12.2035

> <Gold.Chemscore.DG>
-15.0786

> <Gold.Chemscore.ZeroCoef>
-5.4800

> <Gold.Chemscore.Hbond>
1.7491

> <Gold.Chemscore.Metal>
0.0000

> <Gold.Chemscore.Lipo>
70.0664

> <Gold.Chemscore.Internal_Hbond>
0.0000

> <Gold.Chemscore.DEClash>
0.0203

> <Gold.Chemscore.DEInternal>
2.8548

> <Gold.Chemscore.Rot>
1.7348

> <Gold.Chemscore.Internal.Correction>
   9.000000E+99

> <Gold.Chemscore.Hbonds>
donor molecule, donor type, donor heavy atom, donor atom, acceptor molecule, acceptor atom, score
      P1  H  6896  6908       L1     7  0.97
      P1  H  6931  6943       L1     8  0.30
      P1  H  6934  6947       L1     8  0.30

> <Gold.Chemscore.Hbond.Weighted>
-5.8419

> <Gold.Chemscore.Metal.Weighted>
-0.0000

> <Gold.Chemscore.Lipo.Weighted>
-8.1978

> <Gold.Chemscore.Internal_Hbond.Weighted>
0.0000

> <Gold.Chemscore.DEClash.Weighted>
0.0203

> <Gold.Chemscore.DEInternal.Weighted>
2.8548

> <Gold.Chemscore.Rot.Weighted>
4.4411

> <Gold.Chemscore.Internal.Correction.Weighted>
   9.000000E+99

> <Gold.Protein.RotatedTorsions>
[ 6907 6896 6895 6894 ] final -172.95 input  -60.11 | X-H torsion
[ 7974 7965 7964 7962 ] final   95.99 input  175.53 | X-H torsion
[ 8008 7997 7996 7995 ] final   19.58 input   59.86 | X-H torsion
[ 10167 10162 10161 10158 ] final   49.49 input  -65.29 | X-H torsion
[ 10718 10713 10712 10709 ] final  -49.25 input   66.30 | X-H torsion
[ 10763 10752 10751 10750 ] final  -46.40 input  -60.55 | X-H torsion
[ 11005 11000 10999 10996 ] final  138.99 input  -57.11 | X-H torsion

> <Gold.Protein.ActiveResidues>
 VAL166  LYS551  ARG553  GLY616  TRP617  ASP618  TYR619  PRO620  LYS621  CYS622 
 ASP623  PHE694  ASN695  SER759  ASP760  ASP761  ALA762  ILE779  LEU786  VAL792 
 PHE793  MET794  SER795  GLU796  ALA797  LYS798  CYS799  TRP800  GLU811  SER814 

> <Gold.Protein.RotatedAtoms>
  151.5482  133.3421  159.2947 H   0  0  0  0  0  0  0  0  0  0  0  0  # atno 6907 bound_to 6896
  150.8494  134.7817  159.7008 H   0  0  0  0  0  0  0  0  0  0  0  0  # atno 6908 bound_to 6896
  152.4544  134.5332  159.9869 H   0  0  0  0  0  0  0  0  0  0  0  0  # atno 6909 bound_to 6896
  145.4448  139.2298  143.3072 H   0  0  0  0  0  0  0  0  0  0  0  0  # atno 7974 bound_to 7965
  154.9228  140.3029  155.5207 H   0  0  0  0  0  0  0  0  0  0  0  0  # atno 8008 bound_to 7997
  156.3009  140.2368  156.4216 H   0  0  0  0  0  0  0  0  0  0  0  0  # atno 8009 bound_to 7997
  154.8314  140.0418  157.1468 H   0  0  0  0  0  0  0  0  0  0  0  0  # atno 8010 bound_to 7997
  140.2824  144.3141  150.6261 H   0  0  0  0  0  0  0  0  0  0  0  0  # atno 10167 bound_to 10162
  156.1911  130.4153  149.9370 H   0  0  0  0  0  0  0  0  0  0  0  0  # atno 10718 bound_to 10713
  154.0444  135.6639  153.4793 H   0  0  0  0  0  0  0  0  0  0  0  0  # atno 10763 bound_to 10752
  153.0489  135.5097  154.7811 H   0  0  0  0  0  0  0  0  0  0  0  0  # atno 10764 bound_to 10752
  154.6798  135.3043  154.9595 H   0  0  0  0  0  0  0  0  0  0  0  0  # atno 10765 bound_to 10752
  140.0222  134.9391  157.0498 H   0  0  0  0  0  0  0  0  0  0  0  0  # atno 11005 bound_to 11000
  146.2536  140.5201  142.8883 LP  0  0  0  0  0  0  0  0  0  0  0  0  # atno 17320 bound_to 7965
  144.8098  140.6366  143.6422 LP  0  0  0  0  0  0  0  0  0  0  0  0  # atno 17321 bound_to 7965
  140.5801  143.2173  151.7444 LP  0  0  0  0  0  0  0  0  0  0  0  0  # atno 17342 bound_to 10162
  139.4959  144.4093  152.0098 LP  0  0  0  0  0  0  0  0  0  0  0  0  # atno 17343 bound_to 10162
  156.7110  130.8970  151.3609 LP  0  0  0  0  0  0  0  0  0  0  0  0  # atno 17370 bound_to 10713
  157.6929  130.9252  150.0564 LP  0  0  0  0  0  0  0  0  0  0  0  0  # atno 17371 bound_to 10713
  140.4367  134.1724  155.7171 LP  0  0  0  0  0  0  0  0  0  0  0  0  # atno 17394 bound_to 11000
  141.1781  133.8472  157.1353 LP  0  0  0  0  0  0  0  0  0  0  0  0  # atno 17395 bound_to 11000

$$$$
