AV-unprocessed.smi:1578|AV-procd|sdf|6350|dock10
  -GOLD-   22720 6573D 1   1.00000     0.00000
 Structure written by MMmdl.
 44 45  0  0  0  0  0  0  0  0  1 V2000
  149.2989  133.2961  154.8705 C   0  0  0  0  0  0  0  0  0  0  0  0
  147.8789  133.4393  155.4425 C   0  0  2  0  0  0  0  0  0  0  0  0
  146.8727  133.8507  154.3451 C   0  0  0  0  0  0  0  0  0  0  0  0
  146.7521  132.9288  153.2132 N   0  0  0  0  0  0  0  0  0  0  0  0
  146.0552  131.6907  153.5579 C   0  0  0  0  0  0  0  0  0  0  0  0
  145.8942  130.7566  152.3466 C   0  0  0  0  0  0  0  0  0  0  0  0
  145.2246  131.4440  151.2953 O   0  0  0  0  0  0  0  0  0  0  0  0
  145.9103  132.6244  150.8922 C   0  0  0  0  0  0  0  0  0  0  0  0
  146.0589  133.5671  152.0987 C   0  0  0  0  0  0  0  0  0  0  0  0
  147.8840  134.4446  156.5008 N   0  0  0  0  0  0  0  0  0  0  0  0
  148.6178  134.4036  157.6260 C   0  0  0  0  0  0  0  0  0  0  0  0
  149.4332  133.5125  157.8588 O   0  0  0  0  0  0  0  0  0  0  0  0
  148.4047  135.5160  158.6672 C   0  0  0  0  0  0  0  0  0  0  0  0
  147.8398  135.0569  159.9497 N   0  0  0  0  0  0  0  0  0  0  0  0
  147.6447  133.6703  160.1052 C   0  0  0  0  0  0  0  0  0  0  0  0
  147.1683  133.1198  161.2383 C   0  0  0  0  0  0  0  0  0  0  0  0
  146.9248  131.6236  161.3587 C   0  0  0  0  0  0  0  0  0  0  0  0
  148.0743  130.9484  161.3670 F   0  0  0  0  0  0  0  0  0  0  0  0
  146.2598  131.3329  162.4776 F   0  0  0  0  0  0  0  0  0  0  0  0
  146.2009  131.1988  160.3241 F   0  0  0  0  0  0  0  0  0  0  0  0
  146.8223  134.0377  162.3057 C   0  0  0  0  0  0  0  0  0  0  0  0
  146.9952  135.3671  162.1707 C   0  0  0  0  0  0  0  0  0  0  0  0
  147.5389  135.9485  160.9416 C   0  0  0  0  0  0  0  0  0  0  0  0
  147.7206  137.1594  160.8148 O   0  0  0  0  0  0  0  0  0  0  0  0
  149.3315  132.5388  154.0868 H   0  0  0  0  0  0  0  0  0  0  0  0
  150.0093  132.9953  155.6412 H   0  0  0  0  0  0  0  0  0  0  0  0
  149.6509  134.2349  154.4413 H   0  0  0  0  0  0  0  0  0  0  0  0
  147.5797  132.4717  155.8504 H   0  0  0  0  0  0  0  0  0  0  0  0
  145.8919  134.0413  154.7844 H   0  0  0  0  0  0  0  0  0  0  0  0
  147.2007  134.8128  153.9489 H   0  0  0  0  0  0  0  0  0  0  0  0
  146.6033  131.1521  154.3294 H   0  0  0  0  0  0  0  0  0  0  0  0
  145.0717  131.9213  153.9703 H   0  0  0  0  0  0  0  0  0  0  0  0
  146.8667  130.4046  151.9989 H   0  0  0  0  0  0  0  0  0  0  0  0
  145.3147  129.8757  152.6235 H   0  0  0  0  0  0  0  0  0  0  0  0
  146.8868  132.3652  150.4797 H   0  0  0  0  0  0  0  0  0  0  0  0
  145.3450  133.1113  150.0975 H   0  0  0  0  0  0  0  0  0  0  0  0
  145.0693  133.8966  152.4192 H   0  0  0  0  0  0  0  0  0  0  0  0
  146.6000  134.4621  151.7895 H   0  0  0  0  0  0  0  0  0  0  0  0
  147.2425  135.2161  156.3890 H   0  0  0  0  0  0  0  0  0  0  0  0
  149.3568  136.0232  158.8339 H   0  0  0  0  0  0  0  0  0  0  0  0
  147.7594  136.2736  158.2209 H   0  0  0  0  0  0  0  0  0  0  0  0
  147.9150  133.0794  159.2419 H   0  0  0  0  0  0  0  0  0  0  0  0
  146.4215  133.6534  163.2321 H   0  0  0  0  0  0  0  0  0  0  0  0
  146.7290  136.0214  162.9880 H   0  0  0  0  0  0  0  0  0  0  0  0
  1  2  1  0  0  0  0
  1 25  1  0  0  0  0
  1 26  1  0  0  0  0
  1 27  1  0  0  0  0
  2  3  1  0  0  0  0
  2 10  1  0  0  0  0
  2 28  1  0  0  0  0
  3  4  1  0  0  0  0
  3 29  1  0  0  0  0
  3 30  1  0  0  0  0
  4  9  1  0  0  0  0
  4  5  1  0  0  0  0
  5  6  1  0  0  0  0
  5 31  1  0  0  0  0
  5 32  1  0  0  0  0
  6  7  1  0  0  0  0
  6 33  1  0  0  0  0
  6 34  1  0  0  0  0
  7  8  1  0  0  0  0
  8  9  1  0  0  0  0
  8 35  1  0  0  0  0
  8 36  1  0  0  0  0
  9 37  1  0  0  0  0
  9 38  1  0  0  0  0
 10 11  1  0  0  0  0
 10 39  1  0  0  0  0
 11 12  2  0  0  0  0
 11 13  1  0  0  0  0
 13 14  1  0  0  0  0
 13 40  1  0  0  0  0
 13 41  1  0  0  0  0
 14 23  1  0  0  0  0
 14 15  1  0  0  0  0
 15 16  2  0  0  0  0
 15 42  1  0  0  0  0
 16 17  1  0  0  0  0
 16 21  1  0  0  0  0
 17 18  1  0  0  0  0
 17 19  1  0  0  0  0
 17 20  1  0  0  0  0
 21 22  2  0  0  0  0
 21 43  1  0  0  0  0
 22 23  1  0  0  0  0
 22 44  1  0  0  0  0
 23 24  2  0  0  0  0
M  END
> <s_m_source_file>
AV-unprocessed.smi

> <i_m_source_file_index>
1578

> <i_lp_mmshare_version>
43012

> <i_f3d_flags>
0

> <s_epik_input>
W0NIMl0xW0NIMl1PW0NIMl1bQ0gyXU4xW0NIMl1bQ0BASF0oW0NIM10pW05IXUMoPU8pW0NIMl1uMltjSF1jKEMoRikoRilGKVtjSF1bY0hdYzI9Tw==

> <s_epik_cmdline>
J2VwaWtfcHl0aG9uJywgJy1waCcsICc3LjAnLCAnLXRuJywgJzgnLCAnLW1hJywgJzIwMCcsICctbWV0YWxfYmluZGluZycsICctaW1hZScsICc8aW5maWxlLm1hZT4nLCAnLW9tYWUnLCAnPG91dGZpbGUubWFlPic=

> <r_lp_tautomer_probability>
1

> <r_epik_Ionization_Penalty>
0.237382

> <r_epik_Ionization_Penalty_Charging>
1.80451e-08

> <r_epik_Ionization_Penalty_Neutral>
0.237382

> <r_epik_State_Penalty>
0.228245

> <r_epik_Charging_Adjusted_Penalty>
0.228245

> <i_epik_Tot_Q>
0

> <i_epik_Tot_abs_Q>
0

> <r_epik_Metal_State_Penalty>
0.228219

> <b_epik_Metal_Only>
0

> <s_lp_Force_Field>
OPLS_2005

> <r_lp_Energy>
37.3685

> <b_lp_Chiralities_Consistent>
1

> <s_lp_Variant>
AV-unprocessed.smi:1578-1

> <Gold.Version>
5.8.1

> <Gold.Id.Protein>
6NUR|6NUR_protein|mol2

> <Gold.PLP.Fitness>
40.4399

> <Gold.PLP.PLP>
-32.6797

> <Gold.PLP.part.hbond>
-3.0000

> <Gold.PLP.part.metal>
0.0000

> <Gold.PLP.part.buried>
-5.1776

> <Gold.PLP.part.nonpolar>
-24.9770

> <Gold.PLP.part.repulsive>
0.2262

> <Gold.PLP.ligand.clash>
0.0000

> <Gold.PLP.ligand.torsion>
0.3035

> <Gold.PLP.Chemscore.Hbond>
2.7600

> <Gold.PLP.Chemscore.CHOScore>
0.0000

> <Gold.PLP.Chemscore.Metal>
0.0000

> <Gold.Chemscore.Hbonds>
donor molecule, donor type, donor heavy atom, donor atom, acceptor molecule, acceptor atom, score
      P1  H  6896  6909       L1    12  1.00
      P1  H  6931  6943       L1    24  0.86
      P1  H  6934  6947       L1    24  0.91

> <Gold.PLP.Chemscore.Internal.Correction>
0.0872

> <Gold.Rescore>
     Score         DG    S(hbond)    S(metal)    S(lipo)     H(rot)  DE(clash)    DE(int)     intcor
     16.01     -17.46       2.74        0.00      69.91       2.09       0.08       1.38       ----

> <Gold.Chemscore.Fitness>
16.0090

> <Gold.Chemscore.DG>
-17.4635

> <Gold.Chemscore.ZeroCoef>
-5.4800

> <Gold.Chemscore.Hbond>
2.7428

> <Gold.Chemscore.Metal>
0.0000

> <Gold.Chemscore.Lipo>
69.9071

> <Gold.Chemscore.Internal_Hbond>
0.0000

> <Gold.Chemscore.DEClash>
0.0767

> <Gold.Chemscore.DEInternal>
1.3778

> <Gold.Chemscore.Rot>
2.0924

> <Gold.Chemscore.Internal.Correction>
   9.000000E+99

> <Gold.Chemscore.Hbonds>
donor molecule, donor type, donor heavy atom, donor atom, acceptor molecule, acceptor atom, score
      P1  H  6896  6909       L1    12  0.83
      P1  H  6931  6943       L1    24  0.80
      P1  H  6934  6947       L1    24  0.87

> <Gold.Chemscore.Hbond.Weighted>
-9.1610

> <Gold.Chemscore.Metal.Weighted>
-0.0000

> <Gold.Chemscore.Lipo.Weighted>
-8.1791

> <Gold.Chemscore.Internal_Hbond.Weighted>
0.0000

> <Gold.Chemscore.DEClash.Weighted>
0.0767

> <Gold.Chemscore.DEInternal.Weighted>
1.3778

> <Gold.Chemscore.Rot.Weighted>
5.3566

> <Gold.Chemscore.Internal.Correction.Weighted>
   9.000000E+99

> <Gold.Protein.RotatedTorsions>
[ 6907 6896 6895 6894 ] final   13.73 input  -60.11 | X-H torsion
[ 7974 7965 7964 7962 ] final  -73.38 input  175.53 | X-H torsion
[ 8008 7997 7996 7995 ] final   11.07 input   59.86 | X-H torsion
[ 10167 10162 10161 10158 ] final   91.65 input  -65.29 | X-H torsion
[ 10718 10713 10712 10709 ] final  127.34 input   66.30 | X-H torsion
[ 10763 10752 10751 10750 ] final  109.06 input  -60.55 | X-H torsion
[ 11005 11000 10999 10996 ] final   85.87 input  -57.11 | X-H torsion

> <Gold.Protein.ActiveResidues>
 VAL166  LYS551  ARG553  GLY616  TRP617  ASP618  TYR619  PRO620  LYS621  CYS622 
 ASP623  PHE694  ASN695  SER759  ASP760  ASP761  ALA762  ILE779  LEU786  VAL792 
 PHE793  MET794  SER795  GLU796  ALA797  LYS798  CYS799  TRP800  GLU811  SER814 

> <Gold.Protein.RotatedAtoms>
  151.7910  135.0736  160.0386 H   0  0  0  0  0  0  0  0  0  0  0  0  # atno 6907 bound_to 6896
  152.3157  133.5795  159.5718 H   0  0  0  0  0  0  0  0  0  0  0  0  # atno 6908 bound_to 6896
  150.7343  134.0003  159.3678 H   0  0  0  0  0  0  0  0  0  0  0  0  # atno 6909 bound_to 6896
  145.6529  140.9277  143.0975 H   0  0  0  0  0  0  0  0  0  0  0  0  # atno 7974 bound_to 7965
  154.8020  140.2853  155.5915 H   0  0  0  0  0  0  0  0  0  0  0  0  # atno 8008 bound_to 7997
  156.2978  140.2584  156.2819 H   0  0  0  0  0  0  0  0  0  0  0  0  # atno 8009 bound_to 7997
  154.9547  140.0378  157.2150 H   0  0  0  0  0  0  0  0  0  0  0  0  # atno 8010 bound_to 7997
  139.8353  144.6667  150.9349 H   0  0  0  0  0  0  0  0  0  0  0  0  # atno 10167 bound_to 10162
  157.5341  131.1098  150.8963 H   0  0  0  0  0  0  0  0  0  0  0  0  # atno 10718 bound_to 10713
  153.4295  135.3792  155.2161 H   0  0  0  0  0  0  0  0  0  0  0  0  # atno 10763 bound_to 10752
  154.8749  135.3836  154.4286 H   0  0  0  0  0  0  0  0  0  0  0  0  # atno 10764 bound_to 10752
  153.4816  135.7088  153.5997 H   0  0  0  0  0  0  0  0  0  0  0  0  # atno 10765 bound_to 10752
  139.8959  134.8317  156.2642 H   0  0  0  0  0  0  0  0  0  0  0  0  # atno 11005 bound_to 11000
  144.7116  139.8350  143.7412 LP  0  0  0  0  0  0  0  0  0  0  0  0  # atno 17320 bound_to 7965
  146.1188  139.4203  143.0241 LP  0  0  0  0  0  0  0  0  0  0  0  0  # atno 17321 bound_to 7965
  140.7803  143.3962  151.1225 LP  0  0  0  0  0  0  0  0  0  0  0  0  # atno 17342 bound_to 10162
  139.7613  143.8632  152.3101 LP  0  0  0  0  0  0  0  0  0  0  0  0  # atno 17343 bound_to 10162
  156.9535  130.5428  149.5283 LP  0  0  0  0  0  0  0  0  0  0  0  0  # atno 17370 bound_to 10713
  156.0445  130.5523  150.8849 LP  0  0  0  0  0  0  0  0  0  0  0  0  # atno 17371 bound_to 10713
  141.0142  133.7078  156.1162 LP  0  0  0  0  0  0  0  0  0  0  0  0  # atno 17394 bound_to 11000
  140.7324  134.4240  157.5564 LP  0  0  0  0  0  0  0  0  0  0  0  0  # atno 17395 bound_to 11000

$$$$
