AV-unprocessed.smi:109|AV-procd|sdf|1054|dock5
  -GOLD-   2262018113D 1   1.00000     0.00000
 Structure written by MMmdl.
 58 61  0  0  0  0  0  0  0  0  1 V2000
  151.0694  139.8237  154.4550 O   0  0  0  0  0  0  0  0  0  0  0  0
  151.0297  140.5115  155.6865 C   0  0  0  0  0  0  0  0  0  0  0  0
  151.5175  139.5896  156.8151 C   0  0  0  0  0  0  0  0  0  0  0  0
  150.7951  139.8198  158.1607 C   0  0  1  0  0  0  0  0  0  0  0  0
  150.8541  138.6233  159.0024 N   0  0  0  0  0  0  0  0  0  0  0  0
  150.2765  137.4550  158.6441 C   0  0  0  0  0  0  0  0  0  0  0  0
  150.6385  136.7993  157.5108 N   0  0  0  0  0  0  0  0  0  0  0  0
  150.0462  135.6466  157.1860 C   0  0  0  0  0  0  0  0  0  0  0  0
  149.0878  134.9883  157.8411 N   0  0  0  0  0  0  0  0  0  0  0  0
  148.7193  135.6422  158.9806 C   0  0  0  0  0  0  0  0  0  0  0  0
  149.2633  136.8711  159.4473 C   0  0  0  0  0  0  0  0  0  0  0  0
  148.6475  137.2368  160.6372 N   0  0  0  0  0  0  0  0  0  0  0  0
  147.7869  136.2788  160.8546 C   0  0  0  0  0  0  0  0  0  0  0  0
  147.7654  135.2778  159.9089 N   0  0  0  0  0  0  0  0  0  0  0  0
  146.8925  134.0663  159.8844 C   0  0  1  0  0  0  0  0  0  0  0  0
  146.2163  134.0464  158.6686 O   0  0  0  0  0  0  0  0  0  0  0  0
  146.0215  132.6953  158.2777 C   0  0  1  0  0  0  0  0  0  0  0  0
  145.6836  132.5943  156.7796 C   0  0  0  0  0  0  0  0  0  0  0  0
  144.4050  133.1391  156.5327 O   0  0  0  0  0  0  0  0  0  0  0  0
  147.3310  132.0189  158.7121 C   0  0  1  0  0  0  0  0  0  0  0  0
  148.3343  132.1531  157.7226 O   0  0  0  0  0  0  0  0  0  0  0  0
  147.7252  132.7753  159.9799 C   0  0  2  0  0  0  0  0  0  0  0  0
  147.3551  132.0161  161.1136 O   0  0  0  0  0  0  0  0  0  0  0  0
  151.3409  141.0534  158.9233 C   0  0  0  0  0  0  0  0  0  0  0  0
  151.4619  142.3290  158.0555 C   0  0  0  0  0  0  0  0  0  0  0  0
  151.9790  143.5245  158.8729 C   0  0  0  0  0  0  0  0  0  0  0  0
  153.3157  143.1991  159.5565 C   0  0  0  0  0  0  0  0  0  0  0  0
  153.1959  141.9431  160.4322 C   0  0  0  0  0  0  0  0  0  0  0  0
  152.6866  140.7439  159.6170 C   0  0  0  0  0  0  0  0  0  0  0  0
  146.1910  134.2011  160.7094 H   0  0  0  0  0  0  0  0  0  0  0  0
  145.2087  132.2769  158.8754 H   0  0  0  0  0  0  0  0  0  0  0  0
  147.1864  130.9517  158.8869 H   0  0  0  0  0  0  0  0  0  0  0  0
  148.7946  132.9906  160.0235 H   0  0  0  0  0  0  0  0  0  0  0  0
  150.8312  138.9220  154.6076 H   0  0  0  0  0  0  0  0  0  0  0  0
  151.6568  141.4007  155.6170 H   0  0  0  0  0  0  0  0  0  0  0  0
  150.0073  140.8434  155.8674 H   0  0  0  0  0  0  0  0  0  0  0  0
  151.4117  138.5496  156.5045 H   0  0  0  0  0  0  0  0  0  0  0  0
  152.5862  139.7584  156.9541 H   0  0  0  0  0  0  0  0  0  0  0  0
  149.7592  140.0618  157.9245 H   0  0  0  0  0  0  0  0  0  0  0  0
  151.3369  138.7402  159.8817 H   0  0  0  0  0  0  0  0  0  0  0  0
  150.3882  135.1872  156.2704 H   0  0  0  0  0  0  0  0  0  0  0  0
  147.1392  136.2763  161.7192 H   0  0  0  0  0  0  0  0  0  0  0  0
  146.4333  133.0973  156.1677 H   0  0  0  0  0  0  0  0  0  0  0  0
  145.6571  131.5491  156.4703 H   0  0  0  0  0  0  0  0  0  0  0  0
  144.0195  132.6808  155.8015 H   0  0  0  0  0  0  0  0  0  0  0  0
  148.4211  133.0705  157.5085 H   0  0  0  0  0  0  0  0  0  0  0  0
  146.6549  132.4667  161.5610 H   0  0  0  0  0  0  0  0  0  0  0  0
  150.6276  141.2734  159.7191 H   0  0  0  0  0  0  0  0  0  0  0  0
  152.1378  142.1526  157.2180 H   0  0  0  0  0  0  0  0  0  0  0  0
  150.4958  142.5888  157.6230 H   0  0  0  0  0  0  0  0  0  0  0  0
  152.0959  144.3940  158.2255 H   0  0  0  0  0  0  0  0  0  0  0  0
  151.2401  143.7985  159.6269 H   0  0  0  0  0  0  0  0  0  0  0  0
  154.0864  143.0454  158.7999 H   0  0  0  0  0  0  0  0  0  0  0  0
  153.6402  144.0457  160.1619 H   0  0  0  0  0  0  0  0  0  0  0  0
  154.1632  141.7062  160.8762 H   0  0  0  0  0  0  0  0  0  0  0  0
  152.5143  142.1382  161.2612 H   0  0  0  0  0  0  0  0  0  0  0  0
  152.5780  139.8796  160.2731 H   0  0  0  0  0  0  0  0  0  0  0  0
  153.4378  140.4719  158.8741 H   0  0  0  0  0  0  0  0  0  0  0  0
  1  2  1  0  0  0  0
  1 34  1  0  0  0  0
  2  3  1  0  0  0  0
  2 35  1  0  0  0  0
  2 36  1  0  0  0  0
  3  4  1  0  0  0  0
  3 37  1  0  0  0  0
  3 38  1  0  0  0  0
  4  5  1  0  0  0  0
  4 24  1  0  0  0  0
  4 39  1  0  0  0  0
  5  6  1  0  0  0  0
  5 40  1  0  0  0  0
  6 11  1  0  0  0  0
  6  7  2  0  0  0  0
  7  8  1  0  0  0  0
  8  9  2  0  0  0  0
  8 41  1  0  0  0  0
  9 10  1  0  0  0  0
 10 14  1  0  0  0  0
 10 11  2  0  0  0  0
 11 12  1  0  0  0  0
 12 13  2  0  0  0  0
 13 14  1  0  0  0  0
 13 42  1  0  0  0  0
 14 15  1  0  0  0  0
 15 30  1  0  0  0  0
 15 22  1  0  0  0  0
 15 16  1  0  0  0  0
 16 17  1  0  0  0  0
 17 31  1  0  0  0  0
 17 18  1  0  0  0  0
 17 20  1  0  0  0  0
 18 19  1  0  0  0  0
 18 43  1  0  0  0  0
 18 44  1  0  0  0  0
 19 45  1  0  0  0  0
 20 32  1  0  0  0  0
 20 21  1  0  0  0  0
 20 22  1  0  0  0  0
 21 46  1  0  0  0  0
 22 33  1  0  0  0  0
 22 23  1  0  0  0  0
 23 47  1  0  0  0  0
 24 29  1  0  0  0  0
 24 25  1  0  0  0  0
 24 48  1  0  0  0  0
 25 26  1  0  0  0  0
 25 49  1  0  0  0  0
 25 50  1  0  0  0  0
 26 27  1  0  0  0  0
 26 51  1  0  0  0  0
 26 52  1  0  0  0  0
 27 28  1  0  0  0  0
 27 53  1  0  0  0  0
 27 54  1  0  0  0  0
 28 29  1  0  0  0  0
 28 55  1  0  0  0  0
 28 56  1  0  0  0  0
 29 57  1  0  0  0  0
 29 58  1  0  0  0  0
M  END
> <s_m_source_file>
AV-unprocessed.smi

> <i_m_source_file_index>
109

> <i_lp_mmshare_version>
43012

> <i_f3d_flags>
0

> <s_epik_input>
W0NIMl0xW0NIMl1bQ0gyXVtDSDJdW0NIMl1bQ0hdMVtDQEhdKFtDSDJdW0NIMl1bT0hdKVtOSF1jKG5bY0hdbjIpYyhjMjMpbltjSF1uM1tDQEBIXTRPW0NASF0oW0NIMl1bT0hdKVtDQEBIXShbT0hdKVtDQEhdNFtPSF0=

> <s_epik_cmdline>
J2VwaWtfcHl0aG9uJywgJy1waCcsICc3LjAnLCAnLXRuJywgJzgnLCAnLW1hJywgJzIwMCcsICctbWV0YWxfYmluZGluZycsICctaW1hZScsICc8aW5maWxlLm1hZT4nLCAnLW9tYWUnLCAnPG91dGZpbGUubWFlPic=

> <r_lp_tautomer_probability>
1

> <r_epik_Ionization_Penalty>
0.000793976

> <r_epik_Ionization_Penalty_Charging>
0

> <r_epik_Ionization_Penalty_Neutral>
0.000793976

> <r_epik_State_Penalty>
-0

> <r_epik_Charging_Adjusted_Penalty>
0

> <i_epik_Tot_Q>
0

> <i_epik_Tot_abs_Q>
0

> <r_epik_Metal_State_Penalty>
-0

> <b_epik_Metal_Only>
0

> <s_epik_Chemistry_Notes>
This compound contains an acetal/aminal-like group ( X-CH(R)-Y where X, Y are N, S, or O) that may be acid/base labile, releasing an aldehyde.

> <s_lp_Force_Field>
OPLS_2005

> <r_lp_Energy>
50.1139

> <b_lp_Chiralities_Consistent>
1

> <s_lp_Variant>
AV-unprocessed.smi:109-24

> <Gold.Version>
5.8.1

> <Gold.Id.Protein>
6NUR|6NUR_protein|mol2

> <Gold.PLP.Fitness>
46.0838

> <Gold.PLP.PLP>
-40.0034

> <Gold.PLP.part.hbond>
-3.9200

> <Gold.PLP.part.metal>
0.0000

> <Gold.PLP.part.buried>
-3.8661

> <Gold.PLP.part.nonpolar>
-32.1241

> <Gold.PLP.part.repulsive>
0.1776

> <Gold.PLP.ligand.clash>
0.0000

> <Gold.PLP.ligand.torsion>
1.2768

> <Gold.PLP.Chemscore.Hbond>
2.7692

> <Gold.PLP.Chemscore.CHOScore>
0.0000

> <Gold.PLP.Chemscore.Metal>
0.0000

> <Gold.Chemscore.Hbonds>
donor molecule, donor type, donor heavy atom, donor atom, acceptor molecule, acceptor atom, score
      L1  H    19    45       P1 10957  1.00
      P1  H  6931  6943       L1    12  0.74
      P1  H  6934  6947       L1    12  0.12
      P1  H  7989  7998       L1     1  0.98

> <Gold.PLP.Chemscore.Internal.Correction>
0.3263

> <Gold.Rescore>
     Score         DG    S(hbond)    S(metal)    S(lipo)     H(rot)  DE(clash)    DE(int)     intcor
      8.95     -10.30       2.76        0.00      81.99       5.47       0.03       1.32       ----

> <Gold.Chemscore.Fitness>
8.9491

> <Gold.Chemscore.DG>
-10.2979

> <Gold.Chemscore.ZeroCoef>
-5.4800

> <Gold.Chemscore.Hbond>
2.7599

> <Gold.Chemscore.Metal>
0.0000

> <Gold.Chemscore.Lipo>
81.9950

> <Gold.Chemscore.Internal_Hbond>
0.0000

> <Gold.Chemscore.DEClash>
0.0280

> <Gold.Chemscore.DEInternal>
1.3209

> <Gold.Chemscore.Rot>
5.4662

> <Gold.Chemscore.Internal.Correction>
   9.000000E+99

> <Gold.Chemscore.Hbonds>
donor molecule, donor type, donor heavy atom, donor atom, acceptor molecule, acceptor atom, score
      L1  H    19    45       P1 10957  0.99
      P1  H  6931  6943       L1    12  0.71
      P1  H  6934  6947       L1    12  0.02
      P1  H  7989  7998       L1     1  0.37

> <Gold.Chemscore.Hbond.Weighted>
-9.2180

> <Gold.Chemscore.Metal.Weighted>
-0.0000

> <Gold.Chemscore.Lipo.Weighted>
-9.5934

> <Gold.Chemscore.Internal_Hbond.Weighted>
0.0000

> <Gold.Chemscore.DEClash.Weighted>
0.0280

> <Gold.Chemscore.DEInternal.Weighted>
1.3209

> <Gold.Chemscore.Rot.Weighted>
13.9935

> <Gold.Chemscore.Internal.Correction.Weighted>
   9.000000E+99

> <Gold.Protein.RotatedTorsions>
[ 6907 6896 6895 6894 ] final   73.08 input  -60.11 | X-H torsion
[ 7974 7965 7964 7962 ] final  178.98 input  175.53 | X-H torsion
[ 8008 7997 7996 7995 ] final -168.02 input   59.86 | X-H torsion
[ 10167 10162 10161 10158 ] final  103.21 input  -65.29 | X-H torsion
[ 10718 10713 10712 10709 ] final -159.32 input   66.30 | X-H torsion
[ 10763 10752 10751 10750 ] final  -67.53 input  -60.55 | X-H torsion
[ 11005 11000 10999 10996 ] final  144.28 input  -57.11 | X-H torsion

> <Gold.Protein.ActiveResidues>
 VAL166  LYS551  ARG553  GLY616  TRP617  ASP618  TYR619  PRO620  LYS621  CYS622 
 ASP623  PHE694  ASN695  SER759  ASP760  ASP761  ALA762  ILE779  LEU786  VAL792 
 PHE793  MET794  SER795  GLU796  ALA797  LYS798  CYS799  TRP800  GLU811  SER814 

> <Gold.Protein.RotatedAtoms>
  152.4903  134.4476  159.9563 H   0  0  0  0  0  0  0  0  0  0  0  0  # atno 6907 bound_to 6896
  151.4464  133.3623  159.2797 H   0  0  0  0  0  0  0  0  0  0  0  0  # atno 6908 bound_to 6896
  150.9052  134.8490  159.7447 H   0  0  0  0  0  0  0  0  0  0  0  0  # atno 6909 bound_to 6896
  144.7150  140.0479  143.6436 H   0  0  0  0  0  0  0  0  0  0  0  0  # atno 7974 bound_to 7965
  155.8857  140.1016  157.1454 H   0  0  0  0  0  0  0  0  0  0  0  0  # atno 8008 bound_to 7997
  154.4009  140.1320  156.4316 H   0  0  0  0  0  0  0  0  0  0  0  0  # atno 8009 bound_to 7997
  155.7592  140.3463  155.5191 H   0  0  0  0  0  0  0  0  0  0  0  0  # atno 8010 bound_to 7997
  139.7282  144.7042  151.0764 H   0  0  0  0  0  0  0  0  0  0  0  0  # atno 10167 bound_to 10162
  156.5665  130.8670  151.2825 H   0  0  0  0  0  0  0  0  0  0  0  0  # atno 10718 bound_to 10713
  154.3759  135.6085  153.5765 H   0  0  0  0  0  0  0  0  0  0  0  0  # atno 10763 bound_to 10752
  152.9789  135.5849  154.4467 H   0  0  0  0  0  0  0  0  0  0  0  0  # atno 10764 bound_to 10752
  154.4229  135.2846  155.1941 H   0  0  0  0  0  0  0  0  0  0  0  0  # atno 10765 bound_to 10752
  140.0619  134.9199  157.1199 H   0  0  0  0  0  0  0  0  0  0  0  0  # atno 11005 bound_to 11000
  145.9969  139.3059  143.0951 LP  0  0  0  0  0  0  0  0  0  0  0  0  # atno 17320 bound_to 7965
  145.8839  140.9346  143.0587 LP  0  0  0  0  0  0  0  0  0  0  0  0  # atno 17321 bound_to 7965
  140.7766  143.5077  150.9691 LP  0  0  0  0  0  0  0  0  0  0  0  0  # atno 17342 bound_to 10162
  139.8765  143.7126  152.3161 LP  0  0  0  0  0  0  0  0  0  0  0  0  # atno 17343 bound_to 10162
  157.7357  130.9767  150.2098 LP  0  0  0  0  0  0  0  0  0  0  0  0  # atno 17370 bound_to 10713
  156.2752  130.3726  149.7991 LP  0  0  0  0  0  0  0  0  0  0  0  0  # atno 17371 bound_to 10713
  140.3756  134.2342  155.7174 LP  0  0  0  0  0  0  0  0  0  0  0  0  # atno 17394 bound_to 11000
  141.1977  133.8053  157.0617 LP  0  0  0  0  0  0  0  0  0  0  0  0  # atno 17395 bound_to 11000

$$$$
