AV-unprocessed.smi:1224|AV-procd|sdf|5130|dock4
  -GOLD-   22720 4193D 1   1.00000     0.00000
 Structure written by MMmdl.
 45 47  0  0  0  0  0  0  0  0  3 V2000
  146.2244  130.3029  151.7140 C   0  0  0  0  0  0  0  0  0  0  0  0
  145.9763  131.7935  151.8721 C   0  0  0  0  0  0  0  0  0  0  0  0
  144.8583  132.3631  151.2218 C   0  0  0  0  0  0  0  0  0  0  0  0
  144.6576  133.7286  151.3847 C   0  0  0  0  0  0  0  0  0  0  0  0
  143.6677  134.5749  150.8805 N   0  3  0  0  0  0  0  0  0  0  0  0
  143.8907  135.8456  151.3161 C   0  0  0  0  0  0  0  0  0  0  0  0
  145.0059  135.8216  152.0965 N   0  0  0  0  0  0  0  0  0  0  0  0
  145.6826  136.9140  152.8090 C   0  0  0  0  0  0  0  0  0  0  0  0
  146.1198  138.0646  151.8801 C   0  0  2  0  0  0  0  0  0  0  0  0
  147.0615  137.5763  150.9439 O   0  0  0  0  0  0  0  0  0  0  0  0
  146.7622  139.2185  152.6673 C   0  0  0  0  0  0  0  0  0  0  0  0
  148.1841  138.9423  152.9660 N   0  3  0  0  0  0  0  0  0  0  0  0
  148.5420  138.9936  154.3987 C   0  0  0  0  0  0  0  0  0  0  0  0
  150.0184  138.9301  154.6211 C   0  0  0  0  0  0  0  0  0  0  0  0
  150.9027  137.9998  154.1355 C   0  0  0  0  0  0  0  0  0  0  0  0
  152.2499  138.2462  154.5320 C   0  0  0  0  0  0  0  0  0  0  0  0
  152.3765  139.3616  155.3162 C   0  0  0  0  0  0  0  0  0  0  0  0
  150.8379  140.1339  155.5843 S   0  0  0  0  0  0  0  0  0  0  0  0
  145.5217  134.5231  152.1629 C   0  0  0  0  0  0  0  0  0  0  0  0
  146.6286  133.9788  152.8095 C   0  0  0  0  0  0  0  0  0  0  0  0
  146.8509  132.5915  152.6547 C   0  0  0  0  0  0  0  0  0  0  0  0
  148.0519  131.9683  153.3458 C   0  0  0  0  0  0  0  0  0  0  0  0
  145.4445  129.8299  151.1164 H   0  0  0  0  0  0  0  0  0  0  0  0
  146.2414  129.8109  152.6866 H   0  0  0  0  0  0  0  0  0  0  0  0
  147.1788  130.1247  151.2182 H   0  0  0  0  0  0  0  0  0  0  0  0
  144.1895  131.7622  150.6225 H   0  0  0  0  0  0  0  0  0  0  0  0
  143.2903  136.7142  151.0858 H   0  0  0  0  0  0  0  0  0  0  0  0
  145.0197  137.2760  153.5961 H   0  0  0  0  0  0  0  0  0  0  0  0
  146.5507  136.4833  153.3106 H   0  0  0  0  0  0  0  0  0  0  0  0
  145.2529  138.4345  151.3310 H   0  0  0  0  0  0  0  0  0  0  0  0
  147.3326  136.7116  151.2135 H   0  0  0  0  0  0  0  0  0  0  0  0
  146.7060  140.1391  152.0848 H   0  0  0  0  0  0  0  0  0  0  0  0
  146.2082  139.3920  153.5907 H   0  0  0  0  0  0  0  0  0  0  0  0
  148.4118  138.0235  152.6125 H   0  0  0  0  0  0  0  0  0  0  0  0
  148.1529  139.9241  154.8129 H   0  0  0  0  0  0  0  0  0  0  0  0
  148.0397  138.1845  154.9303 H   0  0  0  0  0  0  0  0  0  0  0  0
  150.6332  137.1597  153.5123 H   0  0  0  0  0  0  0  0  0  0  0  0
  153.0669  137.6062  154.2325 H   0  0  0  0  0  0  0  0  0  0  0  0
  153.2751  139.7745  155.7511 H   0  0  0  0  0  0  0  0  0  0  0  0
  147.2948  134.5862  153.4039 H   0  0  0  0  0  0  0  0  0  0  0  0
  148.6358  132.7158  153.8837 H   0  0  0  0  0  0  0  0  0  0  0  0
  148.7097  131.4939  152.6173 H   0  0  0  0  0  0  0  0  0  0  0  0
  147.7309  131.2151  154.0657 H   0  0  0  0  0  0  0  0  0  0  0  0
  148.7462  139.6228  152.4754 H   0  0  0  0  0  0  0  0  0  0  0  0
  142.8975  134.3081  150.2802 H   0  0  0  0  0  0  0  0  0  0  0  0
  1  2  1  0  0  0  0
  1 23  1  0  0  0  0
  1 24  1  0  0  0  0
  1 25  1  0  0  0  0
  2 21  1  0  0  0  0
  2  3  2  0  0  0  0
  3  4  1  0  0  0  0
  3 26  1  0  0  0  0
  4 19  2  0  0  0  0
  4  5  1  0  0  0  0
  5  6  2  0  0  0  0
  5 45  1  0  0  0  0
  6  7  1  0  0  0  0
  6 27  1  0  0  0  0
  7  8  1  0  0  0  0
  7 19  1  0  0  0  0
  8  9  1  0  0  0  0
  8 28  1  0  0  0  0
  8 29  1  0  0  0  0
  9 10  1  0  0  0  0
  9 11  1  0  0  0  0
  9 30  1  0  0  0  0
 10 31  1  0  0  0  0
 11 12  1  0  0  0  0
 11 32  1  0  0  0  0
 11 33  1  0  0  0  0
 12 13  1  0  0  0  0
 12 34  1  0  0  0  0
 12 44  1  0  0  0  0
 13 14  1  0  0  0  0
 13 35  1  0  0  0  0
 13 36  1  0  0  0  0
 14 18  1  0  0  0  0
 14 15  2  0  0  0  0
 15 16  1  0  0  0  0
 15 37  1  0  0  0  0
 16 17  2  0  0  0  0
 16 38  1  0  0  0  0
 17 18  1  0  0  0  0
 17 39  1  0  0  0  0
 19 20  1  0  0  0  0
 20 21  2  0  0  0  0
 20 40  1  0  0  0  0
 21 22  1  0  0  0  0
 22 41  1  0  0  0  0
 22 42  1  0  0  0  0
 22 43  1  0  0  0  0
M  CHG  1   5   1
M  CHG  1  12   1
M  END
> <s_m_source_file>
AV-unprocessed.smi

> <i_m_source_file_index>
1224

> <i_lp_mmshare_version>
43012

> <i_f3d_flags>
0

> <s_epik_input>
W0NIM11jKFtjSF0xKWMoW0NIM10pW2NIXWMoYzEyKW4oW2NIXW4yKVtDSDJdW0NASF0oW09IXSlbQ0gyXVtOSF1bQ0gyXWMzW2NIXVtjSF1bY0hdczM=

> <s_epik_cmdline>
J2VwaWtfcHl0aG9uJywgJy1waCcsICc3LjAnLCAnLXRuJywgJzgnLCAnLW1hJywgJzIwMCcsICctbWV0YWxfYmluZGluZycsICctaW1hZScsICc8aW5maWxlLm1hZT4nLCAnLW9tYWUnLCAnPG91dGZpbGUubWFlPic=

> <r_epik_Ionization_Penalty>
1.2222

> <r_epik_Ionization_Penalty_Charging>
1.2222

> <r_epik_Ionization_Penalty_Neutral>
3.40394e-06

> <r_epik_State_Penalty>
1.23781

> <r_epik_Charging_Adjusted_Penalty>
2.46001

> <i_epik_Tot_Q>
2

> <i_epik_Tot_abs_Q>
2

> <r_epik_Metal_State_Penalty>
5.24642

> <b_epik_Metal_Only>
0

> <s_lp_Force_Field>
OPLS_2005

> <r_lp_Energy>
16.8702

> <b_lp_Chiralities_Consistent>
1

> <s_lp_Variant>
AV-unprocessed.smi:1224-3

> <Gold.Version>
5.8.1

> <Gold.Id.Protein>
6NUR|6NUR_protein|mol2

> <Gold.PLP.Fitness>
67.2142

> <Gold.PLP.PLP>
-45.8884

> <Gold.PLP.part.hbond>
-4.6070

> <Gold.PLP.part.metal>
0.0000

> <Gold.PLP.part.buried>
-2.3712

> <Gold.PLP.part.nonpolar>
-40.1388

> <Gold.PLP.part.repulsive>
0.0763

> <Gold.PLP.ligand.clash>
0.0000

> <Gold.PLP.ligand.torsion>
0.6653

> <Gold.PLP.Chemscore.Hbond>
6.5200

> <Gold.PLP.Chemscore.CHOScore>
0.9931

> <Gold.PLP.Chemscore.Metal>
0.0000

> <Gold.Chemscore.Hbonds>
donor molecule, donor type, donor heavy atom, donor atom, acceptor molecule, acceptor atom, score
      L1  H     5    45       P1 10186  2.00
      L1  H    10    31       P1  7948  0.54
      L1  H    12    34       P1  7948  2.00
      L1  H    12    44       P1  7957  0.98
      P1  H  7954  7966       L1    10  0.95
      L1  C     6    27       P1 10171  0.99

> <Gold.PLP.Chemscore.Internal.Correction>
0.1170

> <Gold.Rescore>
     Score         DG    S(hbond)    S(metal)    S(lipo)     H(rot)  DE(clash)    DE(int)     intcor
     21.71     -24.42       3.37        0.00     120.58       2.50       2.06       0.65       ----

> <Gold.Chemscore.Fitness>
21.7145

> <Gold.Chemscore.DG>
-24.4178

> <Gold.Chemscore.ZeroCoef>
-5.4800

> <Gold.Chemscore.Hbond>
3.3656

> <Gold.Chemscore.Metal>
0.0000

> <Gold.Chemscore.Lipo>
120.5773

> <Gold.Chemscore.Internal_Hbond>
0.0000

> <Gold.Chemscore.DEClash>
2.0565

> <Gold.Chemscore.DEInternal>
0.6467

> <Gold.Chemscore.Rot>
2.5042

> <Gold.Chemscore.Internal.Correction>
   9.000000E+99

> <Gold.Chemscore.Hbonds>
donor molecule, donor type, donor heavy atom, donor atom, acceptor molecule, acceptor atom, score
      L1  H     5    45       P1 10186  0.78
      L1  H    10    31       P1  7948  0.54
      L1  H    12    34       P1  7948  0.97
      L1  H    12    44       P1  7957  0.93
      P1  H  7954  7966       L1    10  0.21

> <Gold.Chemscore.Hbond.Weighted>
-11.2410

> <Gold.Chemscore.Metal.Weighted>
-0.0000

> <Gold.Chemscore.Lipo.Weighted>
-14.1075

> <Gold.Chemscore.Internal_Hbond.Weighted>
0.0000

> <Gold.Chemscore.DEClash.Weighted>
2.0565

> <Gold.Chemscore.DEInternal.Weighted>
0.6467

> <Gold.Chemscore.Rot.Weighted>
6.4108

> <Gold.Chemscore.Internal.Correction.Weighted>
   9.000000E+99

> <Gold.Protein.RotatedTorsions>
[ 6907 6896 6895 6894 ] final  161.62 input  -60.11 | X-H torsion
[ 7974 7965 7964 7962 ] final  -20.07 input  175.53 | X-H torsion
[ 8008 7997 7996 7995 ] final   30.16 input   59.86 | X-H torsion
[ 10167 10162 10161 10158 ] final   77.14 input  -65.29 | X-H torsion
[ 10718 10713 10712 10709 ] final  154.93 input   66.30 | X-H torsion
[ 10763 10752 10751 10750 ] final -149.73 input  -60.55 | X-H torsion
[ 11005 11000 10999 10996 ] final  -18.05 input  -57.11 | X-H torsion

> <Gold.Protein.ActiveResidues>
 VAL166  LYS551  ARG553  GLY616  TRP617  ASP618  TYR619  PRO620  LYS621  CYS622 
 ASP623  PHE694  ASN695  SER759  ASP760  ASP761  ALA762  ILE779  LEU786  VAL792 
 PHE793  MET794  SER795  GLU796  ALA797  LYS798  CYS799  TRP800  GLU811  SER814 

> <Gold.Protein.RotatedAtoms>
  151.9528  133.3671  159.4006 H   0  0  0  0  0  0  0  0  0  0  0  0  # atno 6907 bound_to 6896
  150.6978  134.4322  159.5263 H   0  0  0  0  0  0  0  0  0  0  0  0  # atno 6908 bound_to 6896
  152.1998  134.8598  160.0560 H   0  0  0  0  0  0  0  0  0  0  0  0  # atno 6909 bound_to 6896
  146.1808  140.4150  142.8495 H   0  0  0  0  0  0  0  0  0  0  0  0  # atno 7974 bound_to 7965
  155.0860  140.3215  155.4587 H   0  0  0  0  0  0  0  0  0  0  0  0  # atno 8008 bound_to 7997
  156.2755  140.2086  156.5934 H   0  0  0  0  0  0  0  0  0  0  0  0  # atno 8009 bound_to 7997
  154.6941  140.0513  157.0380 H   0  0  0  0  0  0  0  0  0  0  0  0  # atno 8010 bound_to 7997
  139.9848  144.5800  150.7869 H   0  0  0  0  0  0  0  0  0  0  0  0  # atno 10167 bound_to 10162
  157.2251  131.0727  151.1888 H   0  0  0  0  0  0  0  0  0  0  0  0  # atno 10718 bound_to 10713
  154.8160  135.3302  154.7174 H   0  0  0  0  0  0  0  0  0  0  0  0  # atno 10763 bound_to 10752
  153.7815  135.6918  153.4892 H   0  0  0  0  0  0  0  0  0  0  0  0  # atno 10764 bound_to 10752
  153.1977  135.4527  155.0176 H   0  0  0  0  0  0  0  0  0  0  0  0  # atno 10765 bound_to 10752
  140.8229  133.8054  155.9678 H   0  0  0  0  0  0  0  0  0  0  0  0  # atno 11005 bound_to 11000
  144.8312  140.6709  143.6290 LP  0  0  0  0  0  0  0  0  0  0  0  0  # atno 17320 bound_to 7965
  145.4082  139.1585  143.4140 LP  0  0  0  0  0  0  0  0  0  0  0  0  # atno 17321 bound_to 7965
  140.7476  143.2909  151.3333 LP  0  0  0  0  0  0  0  0  0  0  0  0  # atno 17342 bound_to 10162
  139.6383  144.0588  152.2534 LP  0  0  0  0  0  0  0  0  0  0  0  0  # atno 17343 bound_to 10162
  157.3536  130.7095  149.6456 LP  0  0  0  0  0  0  0  0  0  0  0  0  # atno 17370 bound_to 10713
  155.9679  130.4245  150.4613 LP  0  0  0  0  0  0  0  0  0  0  0  0  # atno 17371 bound_to 10713
  140.9080  134.2296  157.5003 LP  0  0  0  0  0  0  0  0  0  0  0  0  # atno 17394 bound_to 11000
  139.8707  134.9737  156.4818 LP  0  0  0  0  0  0  0  0  0  0  0  0  # atno 17395 bound_to 11000

$$$$
