AV-unprocessed.smi:3265|AV-procd|sdf|12499|dock3
  -GOLD-   2272018403D 1   1.00000     0.00000
 Structure written by MMmdl.
 41 42  0  0  0  0  0  0  0  0  2 V2000
  145.8134  132.2312  150.1756 C   0  0  0  0  0  0  0  0  0  0  0  0
  146.2559  133.4335  151.0220 C   0  0  1  0  0  0  0  0  0  0  0  0
  145.0578  134.3104  151.4229 C   0  0  0  0  0  0  0  0  0  0  0  0
  145.5264  135.4869  152.2878 C   0  0  0  0  0  0  0  0  0  0  0  0
  146.3194  134.9908  153.5071 C   0  0  0  0  0  0  0  0  0  0  0  0
  147.4724  134.1501  153.0920 N   0  3  1  0  0  0  0  0  0  0  0  0
  148.3296  133.7697  154.2431 C   0  0  0  0  0  0  0  0  0  0  0  0
  148.5894  134.9501  155.1989 C   0  0  0  0  0  0  0  0  0  0  0  0
  149.3554  136.0065  154.5492 N   0  0  0  0  0  0  0  0  0  0  0  0
  149.8487  137.0919  155.1658 C   0  0  0  0  0  0  0  0  0  0  0  0
  149.7203  137.3017  156.3717 O   0  0  0  0  0  0  0  0  0  0  0  0
  150.6074  138.0908  154.2906 C   0  0  0  0  0  0  0  0  0  0  0  0
  149.9174  139.3671  154.2309 N   0  0  0  0  0  0  0  0  0  0  0  0
  148.6214  139.6227  153.8330 C   0  0  0  0  0  0  0  0  0  0  0  0
  148.4222  140.9694  153.9382 C   0  0  0  0  0  0  0  0  0  0  0  0
  149.6696  141.4597  154.4161 C   0  0  0  0  0  0  0  0  0  0  0  0
  150.5630  140.4989  154.5893 N   0  0  0  0  0  0  0  0  0  0  0  0
  147.0333  132.9854  152.2762 C   0  0  0  0  0  0  0  0  0  0  0  0
  145.1409  131.5781  150.7330 H   0  0  0  0  0  0  0  0  0  0  0  0
  146.6703  131.6349  149.8606 H   0  0  0  0  0  0  0  0  0  0  0  0
  145.2908  132.5562  149.2755 H   0  0  0  0  0  0  0  0  0  0  0  0
  146.9261  134.0373  150.4082 H   0  0  0  0  0  0  0  0  0  0  0  0
  144.5467  134.6836  150.5348 H   0  0  0  0  0  0  0  0  0  0  0  0
  144.3286  133.7163  151.9760 H   0  0  0  0  0  0  0  0  0  0  0  0
  146.1485  136.1563  151.6921 H   0  0  0  0  0  0  0  0  0  0  0  0
  144.6673  136.0731  152.6154 H   0  0  0  0  0  0  0  0  0  0  0  0
  146.6741  135.8523  154.0742 H   0  0  0  0  0  0  0  0  0  0  0  0
  145.6705  134.4181  154.1719 H   0  0  0  0  0  0  0  0  0  0  0  0
  147.8334  132.9778  154.8056 H   0  0  0  0  0  0  0  0  0  0  0  0
  149.2686  133.3468  153.8827 H   0  0  0  0  0  0  0  0  0  0  0  0
  147.6529  135.3935  155.5349 H   0  0  0  0  0  0  0  0  0  0  0  0
  149.1110  134.6095  156.0950 H   0  0  0  0  0  0  0  0  0  0  0  0
  149.5060  135.9195  153.5539 H   0  0  0  0  0  0  0  0  0  0  0  0
  151.6090  138.2530  154.6910 H   0  0  0  0  0  0  0  0  0  0  0  0
  150.7259  137.6907  153.2823 H   0  0  0  0  0  0  0  0  0  0  0  0
  147.9578  138.8339  153.5104 H   0  0  0  0  0  0  0  0  0  0  0  0
  147.5224  141.5208  153.7088 H   0  0  0  0  0  0  0  0  0  0  0  0
  149.9503  142.4782  154.6400 H   0  0  0  0  0  0  0  0  0  0  0  0
  146.4146  132.3270  152.8884 H   0  0  0  0  0  0  0  0  0  0  0  0
  147.8978  132.4016  151.9630 H   0  0  0  0  0  0  0  0  0  0  0  0
  148.0410  134.7325  152.4936 H   0  0  0  0  0  0  0  0  0  0  0  0
  1  2  1  0  0  0  0
  1 19  1  0  0  0  0
  1 20  1  0  0  0  0
  1 21  1  0  0  0  0
  2 18  1  0  0  0  0
  2  3  1  0  0  0  0
  2 22  1  0  0  0  0
  3  4  1  0  0  0  0
  3 23  1  0  0  0  0
  3 24  1  0  0  0  0
  4  5  1  0  0  0  0
  4 25  1  0  0  0  0
  4 26  1  0  0  0  0
  5  6  1  0  0  0  0
  5 27  1  0  0  0  0
  5 28  1  0  0  0  0
  6  7  1  0  0  0  0
  6 18  1  0  0  0  0
  6 41  1  0  0  0  0
  7  8  1  0  0  0  0
  7 29  1  0  0  0  0
  7 30  1  0  0  0  0
  8  9  1  0  0  0  0
  8 31  1  0  0  0  0
  8 32  1  0  0  0  0
  9 10  1  0  0  0  0
  9 33  1  0  0  0  0
 10 11  2  0  0  0  0
 10 12  1  0  0  0  0
 12 13  1  0  0  0  0
 12 34  1  0  0  0  0
 12 35  1  0  0  0  0
 13 17  1  0  0  0  0
 13 14  1  0  0  0  0
 14 15  2  0  0  0  0
 14 36  1  0  0  0  0
 15 16  1  0  0  0  0
 15 37  1  0  0  0  0
 16 17  2  0  0  0  0
 16 38  1  0  0  0  0
 18 39  1  0  0  0  0
 18 40  1  0  0  0  0
M  CHG  1   6   1
M  END
> <s_m_source_file>
AV-unprocessed.smi

> <i_m_source_file_index>
3265

> <i_lp_mmshare_version>
43012

> <i_f3d_flags>
0

> <s_epik_input>
W0NIM11bQ0BASF0xW0NIMl1bQ0gyXVtDSDJdTihbQ0gyXTEpW0NIMl1bQ0gyXVtOSF1DKD1PKVtDSDJdbjJbY0hdW2NIXVtjSF1uMg==

> <s_epik_cmdline>
J2VwaWtfcHl0aG9uJywgJy1waCcsICc3LjAnLCAnLXRuJywgJzgnLCAnLW1hJywgJzIwMCcsICctbWV0YWxfYmluZGluZycsICctaW1hZScsICc8aW5maWxlLm1hZT4nLCAnLW9tYWUnLCAnPG91dGZpbGUubWFlPic=

> <r_lp_tautomer_probability>
1

> <r_epik_Ionization_Penalty>
0.00231455

> <r_epik_Ionization_Penalty_Charging>
0.00230623

> <r_epik_Ionization_Penalty_Neutral>
8.31727e-06

> <r_epik_State_Penalty>
0.00159065

> <r_epik_Charging_Adjusted_Penalty>
0.00389688

> <i_epik_Tot_Q>
1

> <i_epik_Tot_abs_Q>
1

> <r_epik_Metal_State_Penalty>
-0

> <b_epik_Metal_Only>
0

> <s_lp_Force_Field>
OPLS_2005

> <r_lp_Energy>
15.6905

> <b_lp_Chiralities_Consistent>
1

> <s_lp_Variant>
AV-unprocessed.smi:3265-4

> <Gold.Version>
5.8.1

> <Gold.Id.Protein>
6NUR|6NUR_protein|mol2

> <Gold.PLP.Fitness>
48.1158

> <Gold.PLP.PLP>
-33.4049

> <Gold.PLP.part.hbond>
-3.0000

> <Gold.PLP.part.metal>
0.0000

> <Gold.PLP.part.buried>
-3.5056

> <Gold.PLP.part.nonpolar>
-27.7742

> <Gold.PLP.part.repulsive>
0.1295

> <Gold.PLP.ligand.clash>
0.0000

> <Gold.PLP.ligand.torsion>
0.1560

> <Gold.PLP.Chemscore.Hbond>
4.0000

> <Gold.PLP.Chemscore.CHOScore>
1.0000

> <Gold.PLP.Chemscore.Metal>
0.0000

> <Gold.Chemscore.Hbonds>
donor molecule, donor type, donor heavy atom, donor atom, acceptor molecule, acceptor atom, score
      L1  H     6    41       P1  7948  2.00
      L1  H     9    33       P1  7948  1.00
      P1  H  7989  7998       L1    17  1.00
      L1  C    16    38       P1  8028  0.65

> <Gold.PLP.Chemscore.Internal.Correction>
0.0229

> <Gold.Rescore>
     Score         DG    S(hbond)    S(metal)    S(lipo)     H(rot)  DE(clash)    DE(int)     intcor
     16.66     -16.85       2.71        0.00      60.00       1.84       0.01       0.18       ----

> <Gold.Chemscore.Fitness>
16.6636

> <Gold.Chemscore.DG>
-16.8532

> <Gold.Chemscore.ZeroCoef>
-5.4800

> <Gold.Chemscore.Hbond>
2.7125

> <Gold.Chemscore.Metal>
0.0000

> <Gold.Chemscore.Lipo>
60.0026

> <Gold.Chemscore.Internal_Hbond>
0.0000

> <Gold.Chemscore.DEClash>
0.0052

> <Gold.Chemscore.DEInternal>
0.1844

> <Gold.Chemscore.Rot>
1.8386

> <Gold.Chemscore.Internal.Correction>
   9.000000E+99

> <Gold.Chemscore.Hbonds>
donor molecule, donor type, donor heavy atom, donor atom, acceptor molecule, acceptor atom, score
      L1  H     6    41       P1  7948  0.60
      L1  H     9    33       P1  7948  0.38
      P1  H  7989  7998       L1    17  0.21

> <Gold.Chemscore.Hbond.Weighted>
-9.0598

> <Gold.Chemscore.Metal.Weighted>
-0.0000

> <Gold.Chemscore.Lipo.Weighted>
-7.0203

> <Gold.Chemscore.Internal_Hbond.Weighted>
0.0000

> <Gold.Chemscore.DEClash.Weighted>
0.0052

> <Gold.Chemscore.DEInternal.Weighted>
0.1844

> <Gold.Chemscore.Rot.Weighted>
4.7069

> <Gold.Chemscore.Internal.Correction.Weighted>
   9.000000E+99

> <Gold.Protein.RotatedTorsions>
[ 6907 6896 6895 6894 ] final  156.30 input  -60.11 | X-H torsion
[ 7974 7965 7964 7962 ] final -161.33 input  175.53 | X-H torsion
[ 8008 7997 7996 7995 ] final -148.69 input   59.86 | X-H torsion
[ 10167 10162 10161 10158 ] final  -55.98 input  -65.29 | X-H torsion
[ 10718 10713 10712 10709 ] final  108.53 input   66.30 | X-H torsion
[ 10763 10752 10751 10750 ] final   -7.93 input  -60.55 | X-H torsion
[ 11005 11000 10999 10996 ] final  122.99 input  -57.11 | X-H torsion

> <Gold.Protein.ActiveResidues>
 VAL166  LYS551  ARG553  GLY616  TRP617  ASP618  TYR619  PRO620  LYS621  CYS622 
 ASP623  PHE694  ASN695  SER759  ASP760  ASP761  ALA762  ILE779  LEU786  VAL792 
 PHE793  MET794  SER795  GLU796  ALA797  LYS798  CYS799  TRP800  GLU811  SER814 

> <Gold.Protein.RotatedAtoms>
  152.0316  133.3940  159.4299 H   0  0  0  0  0  0  0  0  0  0  0  0  # atno 6907 bound_to 6896
  150.6882  134.3514  159.4920 H   0  0  0  0  0  0  0  0  0  0  0  0  # atno 6908 bound_to 6896
  152.1301  134.9141  160.0610 H   0  0  0  0  0  0  0  0  0  0  0  0  # atno 6909 bound_to 6896
  144.7395  140.3412  143.6134 H   0  0  0  0  0  0  0  0  0  0  0  0  # atno 7974 bound_to 7965
  155.5956  140.0657  157.2747 H   0  0  0  0  0  0  0  0  0  0  0  0  # atno 8008 bound_to 7997
  154.4293  140.1827  156.1167 H   0  0  0  0  0  0  0  0  0  0  0  0  # atno 8009 bound_to 7997
  156.0199  140.3318  155.7031 H   0  0  0  0  0  0  0  0  0  0  0  0  # atno 8010 bound_to 7997
  140.6344  143.2475  151.5158 H   0  0  0  0  0  0  0  0  0  0  0  0  # atno 10167 bound_to 10162
  157.6582  131.0895  150.6319 H   0  0  0  0  0  0  0  0  0  0  0  0  # atno 10718 bound_to 10713
  153.4333  135.7012  153.6216 H   0  0  0  0  0  0  0  0  0  0  0  0  # atno 10763 bound_to 10752
  153.4622  135.3734  155.2344 H   0  0  0  0  0  0  0  0  0  0  0  0  # atno 10764 bound_to 10752
  154.8726  135.4022  154.3720 H   0  0  0  0  0  0  0  0  0  0  0  0  # atno 10765 bound_to 10752
  139.9292  134.9641  156.8192 H   0  0  0  0  0  0  0  0  0  0  0  0  # atno 11005 bound_to 11000
  145.7372  139.1753  143.2397 LP  0  0  0  0  0  0  0  0  0  0  0  0  # atno 17320 bound_to 7965
  146.1162  140.7367  142.9480 LP  0  0  0  0  0  0  0  0  0  0  0  0  # atno 17321 bound_to 7965
  139.5555  144.2287  152.1605 LP  0  0  0  0  0  0  0  0  0  0  0  0  # atno 17342 bound_to 10162
  140.1539  144.5089  150.6671 LP  0  0  0  0  0  0  0  0  0  0  0  0  # atno 17343 bound_to 10162
  156.6624  130.4516  149.5683 LP  0  0  0  0  0  0  0  0  0  0  0  0  # atno 17370 bound_to 10713
  156.2057  130.6648  151.1216 LP  0  0  0  0  0  0  0  0  0  0  0  0  # atno 17371 bound_to 10713
  140.6248  133.9960  155.7635 LP  0  0  0  0  0  0  0  0  0  0  0  0  # atno 17394 bound_to 11000
  141.0871  133.9974  157.3297 LP  0  0  0  0  0  0  0  0  0  0  0  0  # atno 17395 bound_to 11000

$$$$
