AV-unprocessed.smi:1221|AV-procd|sdf|5119|dock7
  -GOLD-   22720 4173D 1   1.00000     0.00000
 Structure written by MMmdl.
 39 40  0  0  0  0  0  0  0  0  2 V2000
  146.1886  132.3713  151.1236 C   0  0  0  0  0  0  0  0  0  0  0  0
  147.0138  132.9870  152.2012 C   0  0  0  0  0  0  0  0  0  0  0  0
  148.2400  132.6818  152.7203 C   0  0  0  0  0  0  0  0  0  0  0  0
  148.4267  133.6760  153.7196 C   0  0  0  0  0  0  0  0  0  0  0  0
  149.4875  133.7906  154.5332 N   0  5  0  0  0  0  0  0  0  0  0  0
  149.5824  134.8328  155.3914 C   0  0  0  0  0  0  0  0  0  0  0  0
  149.7328  134.7638  156.6134 O   0  0  0  0  0  0  0  0  0  0  0  0
  149.4944  136.0299  154.7946 N   0  0  0  0  0  0  0  0  0  0  0  0
  149.5555  137.3256  155.4607 C   0  0  0  0  0  0  0  0  0  0  0  0
  150.6958  138.1949  154.8997 C   0  0  0  0  0  0  0  0  0  0  0  0
  150.5119  139.6080  155.2497 N   0  0  0  0  0  0  0  0  0  0  0  0
  149.4303  140.3122  154.5425 C   0  0  0  0  0  0  0  0  0  0  0  0
  148.2286  140.6812  155.4429 C   0  0  0  0  0  0  0  0  0  0  0  0
  148.5435  140.9386  156.9300 C   0  0  0  0  0  0  0  0  0  0  0  0
  149.6678  141.9621  157.1933 C   0  0  0  0  0  0  0  0  0  0  0  0
  151.0186  141.7018  156.4849 C   0  0  0  0  0  0  0  0  0  0  0  0
  151.2951  140.2225  156.1698 C   0  0  0  0  0  0  0  0  0  0  0  0
  152.2124  139.6524  156.7611 O   0  0  0  0  0  0  0  0  0  0  0  0
  147.3975  134.5014  153.8094 N   0  0  0  0  0  0  0  0  0  0  0  0
  146.4894  134.0700  152.8352 O   0  0  0  0  0  0  0  0  0  0  0  0
  145.7460  131.4359  151.4655 H   0  0  0  0  0  0  0  0  0  0  0  0
  146.7975  132.1568  150.2454 H   0  0  0  0  0  0  0  0  0  0  0  0
  145.3803  133.0365  150.8189 H   0  0  0  0  0  0  0  0  0  0  0  0
  148.9001  131.8779  152.4315 H   0  0  0  0  0  0  0  0  0  0  0  0
  149.3736  136.0379  153.7925 H   0  0  0  0  0  0  0  0  0  0  0  0
  148.5960  137.8393  155.3812 H   0  0  0  0  0  0  0  0  0  0  0  0
  149.7197  137.1398  156.5222 H   0  0  0  0  0  0  0  0  0  0  0  0
  151.6552  137.8395  155.2785 H   0  0  0  0  0  0  0  0  0  0  0  0
  150.7585  138.0801  153.8160 H   0  0  0  0  0  0  0  0  0  0  0  0
  149.8346  141.2135  154.0814 H   0  0  0  0  0  0  0  0  0  0  0  0
  149.0736  139.7258  153.6947 H   0  0  0  0  0  0  0  0  0  0  0  0
  147.7267  141.5517  155.0192 H   0  0  0  0  0  0  0  0  0  0  0  0
  147.5001  139.8711  155.3949 H   0  0  0  0  0  0  0  0  0  0  0  0
  147.6348  141.2784  157.4275 H   0  0  0  0  0  0  0  0  0  0  0  0
  148.7922  139.9931  157.4144 H   0  0  0  0  0  0  0  0  0  0  0  0
  149.3150  142.9549  156.9120 H   0  0  0  0  0  0  0  0  0  0  0  0
  149.8408  142.0089  158.2691 H   0  0  0  0  0  0  0  0  0  0  0  0
  151.0734  142.2756  155.5602 H   0  0  0  0  0  0  0  0  0  0  0  0
  151.8279  142.0938  157.1023 H   0  0  0  0  0  0  0  0  0  0  0  0
  1  2  1  0  0  0  0
  1 21  1  0  0  0  0
  1 22  1  0  0  0  0
  1 23  1  0  0  0  0
  2 20  1  0  0  0  0
  2  3  2  0  0  0  0
  3  4  1  0  0  0  0
  3 24  1  0  0  0  0
  4  5  1  0  0  0  0
  4 19  2  0  0  0  0
  5  6  1  0  0  0  0
  6  7  2  0  0  0  0
  6  8  1  0  0  0  0
  8  9  1  0  0  0  0
  8 25  1  0  0  0  0
  9 10  1  0  0  0  0
  9 26  1  0  0  0  0
  9 27  1  0  0  0  0
 10 11  1  0  0  0  0
 10 28  1  0  0  0  0
 10 29  1  0  0  0  0
 11 17  1  0  0  0  0
 11 12  1  0  0  0  0
 12 13  1  0  0  0  0
 12 30  1  0  0  0  0
 12 31  1  0  0  0  0
 13 14  1  0  0  0  0
 13 32  1  0  0  0  0
 13 33  1  0  0  0  0
 14 15  1  0  0  0  0
 14 34  1  0  0  0  0
 14 35  1  0  0  0  0
 15 16  1  0  0  0  0
 15 36  1  0  0  0  0
 15 37  1  0  0  0  0
 16 17  1  0  0  0  0
 16 38  1  0  0  0  0
 16 39  1  0  0  0  0
 17 18  2  0  0  0  0
 19 20  1  0  0  0  0
M  CHG  1   5  -1
M  END
> <s_m_source_file>
AV-unprocessed.smi

> <i_m_source_file_index>
1221

> <i_lp_mmshare_version>
43012

> <i_f3d_flags>
0

> <s_epik_input>
W0NIM11jMVtjSF1jKG5vMSlbTkhdQyg9TylbTkhdW0NIMl1bQ0gyXU4yW0NIMl1bQ0gyXVtDSDJdW0NIMl1bQ0gyXUMyPU8=

> <s_epik_cmdline>
J2VwaWtfcHl0aG9uJywgJy1waCcsICc3LjAnLCAnLXRuJywgJzgnLCAnLW1hJywgJzIwMCcsICctbWV0YWxfYmluZGluZycsICctaW1hZScsICc8aW5maWxlLm1hZT4nLCAnLW9tYWUnLCAnPG91dGZpbGUubWFlPic=

> <r_lp_tautomer_probability>
1

> <r_epik_Ionization_Penalty>
6.46803

> <r_epik_Ionization_Penalty_Charging>
6.46791

> <r_epik_Ionization_Penalty_Neutral>
0.00012322

> <r_epik_State_Penalty>
6.4679

> <r_epik_Charging_Adjusted_Penalty>
12.9358

> <i_epik_Tot_Q>
-1

> <i_epik_Tot_abs_Q>
1

> <r_epik_Metal_State_Penalty>
2.39627

> <b_epik_Metal_Only>
1

> <s_lp_Force_Field>
OPLS_2005

> <r_lp_Energy>
15.4009

> <b_lp_Chiralities_Consistent>
1

> <s_lp_Variant>
AV-unprocessed.smi:1221-2

> <Gold.Version>
5.8.1

> <Gold.Id.Protein>
6NUR|6NUR_protein|mol2

> <Gold.PLP.Fitness>
36.1353

> <Gold.PLP.PLP>
-31.5618

> <Gold.PLP.part.hbond>
-2.0000

> <Gold.PLP.part.metal>
0.0000

> <Gold.PLP.part.buried>
-3.0985

> <Gold.PLP.part.nonpolar>
-25.7166

> <Gold.PLP.part.repulsive>
0.3732

> <Gold.PLP.ligand.clash>
0.0000

> <Gold.PLP.ligand.torsion>
0.7227

> <Gold.PLP.Chemscore.Hbond>
2.0000

> <Gold.PLP.Chemscore.CHOScore>
0.0000

> <Gold.PLP.Chemscore.Metal>
0.0000

> <Gold.Chemscore.Hbonds>
donor molecule, donor type, donor heavy atom, donor atom, acceptor molecule, acceptor atom, score
      L1  H     8    25       P1  7948  1.00
      P1  H  7997  8010       L1    18  0.47

> <Gold.PLP.Chemscore.Internal.Correction>
0.0189

> <Gold.Rescore>
     Score         DG    S(hbond)    S(metal)    S(lipo)     H(rot)  DE(clash)    DE(int)     intcor
     11.96     -13.96       1.90        0.00      53.17       1.60       0.00       2.00       ----

> <Gold.Chemscore.Fitness>
11.9601

> <Gold.Chemscore.DG>
-13.9630

> <Gold.Chemscore.ZeroCoef>
-5.4800

> <Gold.Chemscore.Hbond>
1.9020

> <Gold.Chemscore.Metal>
0.0000

> <Gold.Chemscore.Lipo>
53.1679

> <Gold.Chemscore.Internal_Hbond>
0.0000

> <Gold.Chemscore.DEClash>
0.0021

> <Gold.Chemscore.DEInternal>
2.0007

> <Gold.Chemscore.Rot>
1.5978

> <Gold.Chemscore.Internal.Correction>
   9.000000E+99

> <Gold.Chemscore.Hbonds>
donor molecule, donor type, donor heavy atom, donor atom, acceptor molecule, acceptor atom, score
      L1  H     8    25       P1  7948  0.69
      P1  H  7997  8010       L1    18  0.46

> <Gold.Chemscore.Hbond.Weighted>
-6.3526

> <Gold.Chemscore.Metal.Weighted>
-0.0000

> <Gold.Chemscore.Lipo.Weighted>
-6.2206

> <Gold.Chemscore.Internal_Hbond.Weighted>
0.0000

> <Gold.Chemscore.DEClash.Weighted>
0.0021

> <Gold.Chemscore.DEInternal.Weighted>
2.0007

> <Gold.Chemscore.Rot.Weighted>
4.0902

> <Gold.Chemscore.Internal.Correction.Weighted>
   9.000000E+99

> <Gold.Protein.RotatedTorsions>
[ 6907 6896 6895 6894 ] final  157.88 input  -60.11 | X-H torsion
[ 7974 7965 7964 7962 ] final   -1.93 input  175.53 | X-H torsion
[ 8008 7997 7996 7995 ] final   82.99 input   59.86 | X-H torsion
[ 10167 10162 10161 10158 ] final  173.39 input  -65.29 | X-H torsion
[ 10718 10713 10712 10709 ] final   42.80 input   66.30 | X-H torsion
[ 10763 10752 10751 10750 ] final   39.41 input  -60.55 | X-H torsion
[ 11005 11000 10999 10996 ] final   67.98 input  -57.11 | X-H torsion

> <Gold.Protein.ActiveResidues>
 VAL166  LYS551  ARG553  GLY616  TRP617  ASP618  TYR619  PRO620  LYS621  CYS622 
 ASP623  PHE694  ASN695  SER759  ASP760  ASP761  ALA762  ILE779  LEU786  VAL792 
 PHE793  MET794  SER795  GLU796  ALA797  LYS798  CYS799  TRP800  GLU811  SER814 

> <Gold.Protein.RotatedAtoms>
  152.0086  133.3852  159.4210 H   0  0  0  0  0  0  0  0  0  0  0  0  # atno 6907 bound_to 6896
  150.6902  134.3755  159.5020 H   0  0  0  0  0  0  0  0  0  0  0  0  # atno 6908 bound_to 6896
  152.1513  134.8986  160.0598 H   0  0  0  0  0  0  0  0  0  0  0  0  # atno 6909 bound_to 6896
  146.2411  140.1494  142.8334 H   0  0  0  0  0  0  0  0  0  0  0  0  # atno 7974 bound_to 7965
  155.9179  140.3423  155.6150 H   0  0  0  0  0  0  0  0  0  0  0  0  # atno 8008 bound_to 7997
  155.7309  140.0795  157.2308 H   0  0  0  0  0  0  0  0  0  0  0  0  # atno 8009 bound_to 7997
  154.4065  140.1588  156.2495 H   0  0  0  0  0  0  0  0  0  0  0  0  # atno 8010 bound_to 7997
  139.5107  144.3266  152.0151 H   0  0  0  0  0  0  0  0  0  0  0  0  # atno 10167 bound_to 10162
  157.4088  130.7902  149.7412 H   0  0  0  0  0  0  0  0  0  0  0  0  # atno 10718 bound_to 10713
  152.9968  135.6221  154.2460 H   0  0  0  0  0  0  0  0  0  0  0  0  # atno 10763 bound_to 10752
  154.2200  135.2796  155.2930 H   0  0  0  0  0  0  0  0  0  0  0  0  # atno 10764 bound_to 10752
  154.5537  135.5726  153.7003 H   0  0  0  0  0  0  0  0  0  0  0  0  # atno 10765 bound_to 10752
  139.9738  134.6856  156.0394 H   0  0  0  0  0  0  0  0  0  0  0  0  # atno 11005 bound_to 11000
  145.0180  140.8770  143.5184 LP  0  0  0  0  0  0  0  0  0  0  0  0  # atno 17320 bound_to 7965
  145.1538  139.2498  143.5427 LP  0  0  0  0  0  0  0  0  0  0  0  0  # atno 17321 bound_to 7965
  140.2707  144.3967  150.6152 LP  0  0  0  0  0  0  0  0  0  0  0  0  # atno 17342 bound_to 10162
  140.6090  143.2169  151.6923 LP  0  0  0  0  0  0  0  0  0  0  0  0  # atno 17343 bound_to 10162
  155.9844  130.3991  150.3311 LP  0  0  0  0  0  0  0  0  0  0  0  0  # atno 17370 bound_to 10713
  157.1447  131.0305  151.2912 LP  0  0  0  0  0  0  0  0  0  0  0  0  # atno 17371 bound_to 10713
  141.1416  133.6563  156.3747 LP  0  0  0  0  0  0  0  0  0  0  0  0  # atno 17394 bound_to 11000
  140.5237  134.6279  157.5327 LP  0  0  0  0  0  0  0  0  0  0  0  0  # atno 17395 bound_to 11000

$$$$
