AV-unprocessed.smi:160|AV-procd|sdf|1367|dock2
  -GOLD-   2262019 83D 1   1.00000     0.00000
 Structure written by MMmdl.
 28 29  0  0  0  0  0  0  0  0  2 V2000
  151.9790  137.3506  154.0737 N   0  5  0  0  0  0  0  0  0  0  0  0
  152.5442  138.4737  154.5688 C   0  0  0  0  0  0  0  0  0  0  0  0
  153.7346  138.7792  154.5043 O   0  0  0  0  0  0  0  0  0  0  0  0
  151.5787  139.4086  155.2576 C   0  0  0  0  0  0  0  0  0  0  0  0
  152.0190  140.3030  156.1940 N   0  0  0  0  0  0  0  0  0  0  0  0
  150.8616  140.8718  156.5039 C   0  0  0  0  0  0  0  0  0  0  0  0
  149.8141  140.3921  155.8266 N   0  0  0  0  0  0  0  0  0  0  0  0
  148.3621  140.7622  155.9202 C   0  0  2  0  0  0  0  0  0  0  0  0
  147.6337  139.5784  156.0275 O   0  0  0  0  0  0  0  0  0  0  0  0
  146.9464  139.2759  154.8113 C   0  0  2  0  0  0  0  0  0  0  0  0
  147.2571  137.8335  154.3773 C   0  0  0  0  0  0  0  0  0  0  0  0
  146.9037  137.6443  153.0235 O   0  0  0  0  0  0  0  0  0  0  0  0
  147.4011  140.3325  153.7901 C   0  0  1  0  0  0  0  0  0  0  0  0
  146.3217  140.7286  152.9674 O   0  0  0  0  0  0  0  0  0  0  0  0
  147.8492  141.4909  154.6678 C   0  0  2  0  0  0  0  0  0  0  0  0
  148.8249  142.2892  154.0223 O   0  0  0  0  0  0  0  0  0  0  0  0
  150.2672  139.4152  155.0027 N   0  0  0  0  0  0  0  0  0  0  0  0
  148.2947  141.3578  156.8312 H   0  0  0  0  0  0  0  0  0  0  0  0
  145.8784  139.3964  155.0039 H   0  0  0  0  0  0  0  0  0  0  0  0
  148.2241  139.9584  153.1793 H   0  0  0  0  0  0  0  0  0  0  0  0
  146.9968  142.1031  154.9669 H   0  0  0  0  0  0  0  0  0  0  0  0
  151.6145  137.3699  153.1138 H   0  0  0  0  0  0  0  0  0  0  0  0
  150.7759  141.6561  157.2414 H   0  0  0  0  0  0  0  0  0  0  0  0
  148.3265  137.6384  154.4638 H   0  0  0  0  0  0  0  0  0  0  0  0
  146.7447  137.1060  155.0067 H   0  0  0  0  0  0  0  0  0  0  0  0
  147.4942  137.0099  152.6471 H   0  0  0  0  0  0  0  0  0  0  0  0
  145.5368  140.3125  153.2899 H   0  0  0  0  0  0  0  0  0  0  0  0
  148.9525  143.0774  154.5272 H   0  0  0  0  0  0  0  0  0  0  0  0
  1  2  1  0  0  0  0
  1 22  1  0  0  0  0
  2  3  2  0  0  0  0
  2  4  1  0  0  0  0
  4 17  2  0  0  0  0
  4  5  1  0  0  0  0
  5  6  2  0  0  0  0
  6  7  1  0  0  0  0
  6 23  1  0  0  0  0
  7  8  1  0  0  0  0
  7 17  1  0  0  0  0
  8 18  1  0  0  0  0
  8 15  1  0  0  0  0
  8  9  1  0  0  0  0
  9 10  1  0  0  0  0
 10 19  1  0  0  0  0
 10 11  1  0  0  0  0
 10 13  1  0  0  0  0
 11 12  1  0  0  0  0
 11 24  1  0  0  0  0
 11 25  1  0  0  0  0
 12 26  1  0  0  0  0
 13 20  1  0  0  0  0
 13 14  1  0  0  0  0
 13 15  1  0  0  0  0
 14 27  1  0  0  0  0
 15 21  1  0  0  0  0
 15 16  1  0  0  0  0
 16 28  1  0  0  0  0
M  CHG  1   1  -1
M  END
> <s_m_source_file>
AV-unprocessed.smi

> <i_m_source_file_index>
160

> <i_lp_mmshare_version>
43012

> <i_f3d_flags>
0

> <s_epik_input>
W05IMl1DKD1PKWMxbltjSF1uKG4xKVtDQEBIXTJPW0NASF0oW0NIMl1bT0hdKVtDQEBIXShbT0hdKVtDQEhdMltPSF0=

> <s_epik_cmdline>
J2VwaWtfcHl0aG9uJywgJy1waCcsICc3LjAnLCAnLXRuJywgJzgnLCAnLW1hJywgJzIwMCcsICctbWV0YWxfYmluZGluZycsICctaW1hZScsICc8aW5maWxlLm1hZT4nLCAnLW9tYWUnLCAnPG91dGZpbGUubWFlPic=

> <r_lp_tautomer_probability>
1

> <r_epik_Ionization_Penalty>
6.6993

> <r_epik_Ionization_Penalty_Charging>
6.6993

> <r_epik_Ionization_Penalty_Neutral>
6.01698e-06

> <r_epik_State_Penalty>
6.69929

> <r_epik_Charging_Adjusted_Penalty>
13.3986

> <i_epik_Tot_Q>
-1

> <i_epik_Tot_abs_Q>
1

> <r_epik_Metal_State_Penalty>
2.62798

> <b_epik_Metal_Only>
1

> <s_epik_Chemistry_Notes>
This compound contains an acetal/aminal-like group ( X-CH(R)-Y where X, Y are N, S, or O) that may be acid/base labile, releasing an aldehyde.

> <s_lp_Force_Field>
OPLS_2005

> <r_lp_Energy>
43.4077

> <b_lp_Chiralities_Consistent>
1

> <s_lp_Variant>
AV-unprocessed.smi:160-25

> <Gold.Version>
5.8.1

> <Gold.Id.Protein>
6NUR|6NUR_protein|mol2

> <Gold.PLP.Fitness>
43.6865

> <Gold.PLP.PLP>
-25.8313

> <Gold.PLP.part.hbond>
-6.9043

> <Gold.PLP.part.metal>
0.0000

> <Gold.PLP.part.buried>
-5.6510

> <Gold.PLP.part.nonpolar>
-14.5005

> <Gold.PLP.part.repulsive>
0.0750

> <Gold.PLP.ligand.clash>
0.0000

> <Gold.PLP.ligand.torsion>
0.5780

> <Gold.PLP.Chemscore.Hbond>
6.3329

> <Gold.PLP.Chemscore.CHOScore>
0.0000

> <Gold.PLP.Chemscore.Metal>
0.0000

> <Gold.Chemscore.Hbonds>
donor molecule, donor type, donor heavy atom, donor atom, acceptor molecule, acceptor atom, score
      L1  H     1    22       P1  7949  0.50
      L1  H    12    26       P1  7948  1.00
      L1  H    14    27       P1 10175  0.51
      L1  H    16    28       P1  8028  1.00
      P1  H  7997  8008       L1     3  0.92
      P1  H  8011  8017       L1    16  0.26
      P1  H 10752 10764       L1     1  1.95

> <Gold.PLP.Chemscore.Internal.Correction>
0.0124

> <Gold.Rescore>
     Score         DG    S(hbond)    S(metal)    S(lipo)     H(rot)  DE(clash)    DE(int)     intcor
     12.26     -12.97       4.73        0.00      17.48       4.04       0.01       0.70       ----

> <Gold.Chemscore.Fitness>
12.2648

> <Gold.Chemscore.DG>
-12.9710

> <Gold.Chemscore.ZeroCoef>
-5.4800

> <Gold.Chemscore.Hbond>
4.7272

> <Gold.Chemscore.Metal>
0.0000

> <Gold.Chemscore.Lipo>
17.4804

> <Gold.Chemscore.Internal_Hbond>
0.0000

> <Gold.Chemscore.DEClash>
0.0073

> <Gold.Chemscore.DEInternal>
0.6989

> <Gold.Chemscore.Rot>
4.0403

> <Gold.Chemscore.Internal.Correction>
   9.000000E+99

> <Gold.Chemscore.Hbonds>
donor molecule, donor type, donor heavy atom, donor atom, acceptor molecule, acceptor atom, score
      L1  H     1    22       P1  7949  0.47
      L1  H    12    26       P1  7948  1.00
      L1  H    14    27       P1 10175  0.46
      L1  H    16    28       P1  8028  0.98
      P1  H  7997  8008       L1     3  0.82
      P1  H  8011  8017       L1    16  0.18
      P1  H 10752 10764       L1     1  0.36

> <Gold.Chemscore.Hbond.Weighted>
-15.7889

> <Gold.Chemscore.Metal.Weighted>
-0.0000

> <Gold.Chemscore.Lipo.Weighted>
-2.0452

> <Gold.Chemscore.Internal_Hbond.Weighted>
0.0000

> <Gold.Chemscore.DEClash.Weighted>
0.0073

> <Gold.Chemscore.DEInternal.Weighted>
0.6989

> <Gold.Chemscore.Rot.Weighted>
10.3431

> <Gold.Chemscore.Internal.Correction.Weighted>
   9.000000E+99

> <Gold.Protein.RotatedTorsions>
[ 6907 6896 6895 6894 ] final  -92.65 input  -60.11 | X-H torsion
[ 7974 7965 7964 7962 ] final  160.34 input  175.53 | X-H torsion
[ 8008 7997 7996 7995 ] final   -6.93 input   59.86 | X-H torsion
[ 10167 10162 10161 10158 ] final  150.41 input  -65.29 | X-H torsion
[ 10718 10713 10712 10709 ] final  172.96 input   66.30 | X-H torsion
[ 10763 10752 10751 10750 ] final  -86.65 input  -60.55 | X-H torsion
[ 11005 11000 10999 10996 ] final -141.70 input  -57.11 | X-H torsion

> <Gold.Protein.ActiveResidues>
 VAL166  LYS551  ARG553  GLY616  TRP617  ASP618  TYR619  PRO620  LYS621  CYS622 
 ASP623  PHE694  ASN695  SER759  ASP760  ASP761  ALA762  ILE779  LEU786  VAL792 
 PHE793  MET794  SER795  GLU796  ALA797  LYS798  CYS799  TRP800  GLU811  SER814 

> <Gold.Protein.RotatedAtoms>
  150.6909  134.2089  159.4351 H   0  0  0  0  0  0  0  0  0  0  0  0  # atno 6907 bound_to 6896
  152.0052  134.9904  160.0575 H   0  0  0  0  0  0  0  0  0  0  0  0  # atno 6908 bound_to 6896
  152.1541  133.4505  159.4865 H   0  0  0  0  0  0  0  0  0  0  0  0  # atno 6909 bound_to 6896
  144.7742  139.7743  143.6285 H   0  0  0  0  0  0  0  0  0  0  0  0  # atno 7974 bound_to 7965
  154.5889  140.2420  155.7949 H   0  0  0  0  0  0  0  0  0  0  0  0  # atno 8008 bound_to 7997
  156.2233  140.2991  155.9959 H   0  0  0  0  0  0  0  0  0  0  0  0  # atno 8009 bound_to 7997
  155.2409  140.0407  157.2965 H   0  0  0  0  0  0  0  0  0  0  0  0  # atno 8010 bound_to 7997
  139.4850  144.5524  151.7377 H   0  0  0  0  0  0  0  0  0  0  0  0  # atno 10167 bound_to 10162
  156.9713  131.0091  151.2904 H   0  0  0  0  0  0  0  0  0  0  0  0  # atno 10718 bound_to 10713
  154.6248  135.5442  153.7615 H   0  0  0  0  0  0  0  0  0  0  0  0  # atno 10763 bound_to 10752
  153.0255  135.6421  154.1388 H   0  0  0  0  0  0  0  0  0  0  0  0  # atno 10764 bound_to 10752
  154.1321  135.2913  155.3162 H   0  0  0  0  0  0  0  0  0  0  0  0  # atno 10765 bound_to 10752
  140.8298  134.2531  157.4862 H   0  0  0  0  0  0  0  0  0  0  0  0  # atno 11005 bound_to 11000
  146.1910  139.5151  142.9805 LP  0  0  0  0  0  0  0  0  0  0  0  0  # atno 17320 bound_to 7965
  145.6234  141.0318  143.1902 LP  0  0  0  0  0  0  0  0  0  0  0  0  # atno 17321 bound_to 7965
  140.5080  144.1068  150.5987 LP  0  0  0  0  0  0  0  0  0  0  0  0  # atno 17342 bound_to 10162
  140.3984  143.2716  151.9977 LP  0  0  0  0  0  0  0  0  0  0  0  0  # atno 17343 bound_to 10162
  157.5590  130.8233  149.8242 LP  0  0  0  0  0  0  0  0  0  0  0  0  # atno 17370 bound_to 10713
  156.0281  130.3773  150.1764 LP  0  0  0  0  0  0  0  0  0  0  0  0  # atno 17371 bound_to 10713
  139.8705  134.9580  156.4286 LP  0  0  0  0  0  0  0  0  0  0  0  0  # atno 17394 bound_to 11000
  140.9010  133.7779  155.9680 LP  0  0  0  0  0  0  0  0  0  0  0  0  # atno 17395 bound_to 11000

$$$$
