AV-unprocessed.smi:2046|AV-procd|sdf|8314|dock1
  -GOLD-   2272010583D 1   1.00000     0.00000
 Structure written by MMmdl.
 29 30  0  0  0  0  0  0  0  0  2 V2000
  150.6088  140.6467  157.4962 O   0  0  0  0  0  0  0  0  0  0  0  0
  150.5080  141.8188  157.1259 C   0  0  0  0  0  0  0  0  0  0  0  0
  151.1588  142.8829  157.6487 N   0  5  0  0  0  0  0  0  0  0  0  0
  151.5390  142.8697  158.9369 C   0  0  0  0  0  0  0  0  0  0  0  0
  150.6553  142.8805  159.9478 N   0  0  0  0  0  0  0  0  0  0  0  0
  151.2572  142.8675  161.1991 N   0  0  0  0  0  0  0  0  0  0  0  0
  152.5861  142.8554  161.0988 C   0  0  0  0  0  0  0  0  0  0  0  0
  153.2232  142.8636  159.4678 S   0  0  0  0  0  0  0  0  0  0  0  0
  149.6929  142.1310  156.1064 N   0  0  0  0  0  0  0  0  0  0  0  0
  148.8734  141.1933  155.3332 C   0  0  1  0  0  0  0  0  0  0  0  0
  148.1583  142.0006  154.2252 C   0  0  0  0  0  0  0  0  0  0  0  0
  146.8861  141.3241  153.6847 C   0  0  0  0  0  0  0  0  0  0  0  0
  147.1172  139.9912  152.9561 C   0  0  0  0  0  0  0  0  0  0  0  0
  147.7171  138.8930  153.8508 C   0  0  0  0  0  0  0  0  0  0  0  0
  149.1480  139.0746  154.0542 N   0  0  0  0  0  0  0  0  0  0  0  0
  149.7492  140.0977  154.6802 C   0  0  0  0  0  0  0  0  0  0  0  0
  150.9777  140.1609  154.7247 O   0  0  0  0  0  0  0  0  0  0  0  0
  153.1950  142.8457  161.9903 H   0  0  0  0  0  0  0  0  0  0  0  0
  149.6471  143.1021  155.8350 H   0  0  0  0  0  0  0  0  0  0  0  0
  148.1375  140.7385  155.9987 H   0  0  0  0  0  0  0  0  0  0  0  0
  147.8570  142.9684  154.6295 H   0  0  0  0  0  0  0  0  0  0  0  0
  148.8421  142.2289  153.4054 H   0  0  0  0  0  0  0  0  0  0  0  0
  146.1825  141.1714  154.5040 H   0  0  0  0  0  0  0  0  0  0  0  0
  146.3942  142.0129  152.9970 H   0  0  0  0  0  0  0  0  0  0  0  0
  146.1560  139.6412  152.5786 H   0  0  0  0  0  0  0  0  0  0  0  0
  147.7448  140.1454  152.0775 H   0  0  0  0  0  0  0  0  0  0  0  0
  147.1974  138.8333  154.8082 H   0  0  0  0  0  0  0  0  0  0  0  0
  147.5830  137.9247  153.3683 H   0  0  0  0  0  0  0  0  0  0  0  0
  149.7487  138.3701  153.6515 H   0  0  0  0  0  0  0  0  0  0  0  0
  1  2  2  0  0  0  0
  2  3  1  0  0  0  0
  2  9  1  0  0  0  0
  3  4  1  0  0  0  0
  4  8  1  0  0  0  0
  4  5  2  0  0  0  0
  5  6  1  0  0  0  0
  6  7  2  0  0  0  0
  7  8  1  0  0  0  0
  7 18  1  0  0  0  0
  9 10  1  0  0  0  0
  9 19  1  0  0  0  0
 10 16  1  0  0  0  0
 10 11  1  0  0  0  0
 10 20  1  0  0  0  0
 11 12  1  0  0  0  0
 11 21  1  0  0  0  0
 11 22  1  0  0  0  0
 12 13  1  0  0  0  0
 12 23  1  0  0  0  0
 12 24  1  0  0  0  0
 13 14  1  0  0  0  0
 13 25  1  0  0  0  0
 13 26  1  0  0  0  0
 14 15  1  0  0  0  0
 14 27  1  0  0  0  0
 14 28  1  0  0  0  0
 15 16  1  0  0  0  0
 15 29  1  0  0  0  0
 16 17  2  0  0  0  0
M  CHG  1   3  -1
M  END
> <s_m_source_file>
AV-unprocessed.smi

> <i_m_source_file_index>
2046

> <i_lp_mmshare_version>
43012

> <i_f3d_flags>
0

> <s_epik_input>
czFbY0hdbm5jMVtOSF1DKD1PKVtOSF1bQ0BASF0yW0NIMl1bQ0gyXVtDSDJdW0NIMl1bTkhdQzI9Tw==

> <s_epik_cmdline>
J2VwaWtfcHl0aG9uJywgJy1waCcsICc3LjAnLCAnLXRuJywgJzgnLCAnLW1hJywgJzIwMCcsICctbWV0YWxfYmluZGluZycsICctaW1hZScsICc8aW5maWxlLm1hZT4nLCAnLW9tYWUnLCAnPG91dGZpbGUubWFlPic=

> <r_lp_tautomer_probability>
1

> <r_epik_Ionization_Penalty>
4.05949

> <r_epik_Ionization_Penalty_Charging>
4.01916

> <r_epik_Ionization_Penalty_Neutral>
0.0403285

> <r_epik_State_Penalty>
4.01849

> <r_epik_Charging_Adjusted_Penalty>
8.03765

> <i_epik_Tot_Q>
-1

> <i_epik_Tot_abs_Q>
1

> <r_epik_Metal_State_Penalty>
0.626741

> <b_epik_Metal_Only>
1

> <s_lp_Force_Field>
OPLS_2005

> <r_lp_Energy>
8.7811

> <b_lp_Chiralities_Consistent>
1

> <s_lp_Variant>
AV-unprocessed.smi:2046-4

> <Gold.Version>
5.8.1

> <Gold.Id.Protein>
6NUR|6NUR_protein|mol2

> <Gold.PLP.Fitness>
37.3076

> <Gold.PLP.PLP>
-31.9525

> <Gold.PLP.part.hbond>
-4.8079

> <Gold.PLP.part.metal>
0.0000

> <Gold.PLP.part.buried>
-3.1888

> <Gold.PLP.part.nonpolar>
-24.6865

> <Gold.PLP.part.repulsive>
0.4915

> <Gold.PLP.ligand.clash>
0.0000

> <Gold.PLP.ligand.torsion>
0.8012

> <Gold.PLP.Chemscore.Hbond>
2.3172

> <Gold.PLP.Chemscore.CHOScore>
0.0000

> <Gold.PLP.Chemscore.Metal>
0.0000

> <Gold.Chemscore.Hbonds>
donor molecule, donor type, donor heavy atom, donor atom, acceptor molecule, acceptor atom, score
      L1  H     9    19       P1  8028  1.00
      P1  H  6933  6945       L1     6  0.30
      P1  H  7989  7998       L1    17  1.00

> <Gold.PLP.Chemscore.Internal.Correction>
0.0059

> <Gold.Rescore>
     Score         DG    S(hbond)    S(metal)    S(lipo)     H(rot)  DE(clash)    DE(int)     intcor
     14.96     -15.82       1.96        0.00      54.20       1.00       0.00       0.86       ----

> <Gold.Chemscore.Fitness>
14.9586

> <Gold.Chemscore.DG>
-15.8165

> <Gold.Chemscore.ZeroCoef>
-5.4800

> <Gold.Chemscore.Hbond>
1.9627

> <Gold.Chemscore.Metal>
0.0000

> <Gold.Chemscore.Lipo>
54.1970

> <Gold.Chemscore.Internal_Hbond>
0.0000

> <Gold.Chemscore.DEClash>
0.0000

> <Gold.Chemscore.DEInternal>
0.8579

> <Gold.Chemscore.Rot>
1.0000

> <Gold.Chemscore.Internal.Correction>
   9.000000E+99

> <Gold.Chemscore.Hbonds>
donor molecule, donor type, donor heavy atom, donor atom, acceptor molecule, acceptor atom, score
      L1  H     9    19       P1  8028  0.99
      P1  H  6933  6945       L1     6  0.10
      P1  H  7989  7998       L1    17  0.87

> <Gold.Chemscore.Hbond.Weighted>
-6.5554

> <Gold.Chemscore.Metal.Weighted>
-0.0000

> <Gold.Chemscore.Lipo.Weighted>
-6.3411

> <Gold.Chemscore.Internal_Hbond.Weighted>
0.0000

> <Gold.Chemscore.DEClash.Weighted>
0.0000

> <Gold.Chemscore.DEInternal.Weighted>
0.8579

> <Gold.Chemscore.Rot.Weighted>
2.5600

> <Gold.Chemscore.Internal.Correction.Weighted>
   9.000000E+99

> <Gold.Protein.RotatedTorsions>
[ 6907 6896 6895 6894 ] final -177.92 input  -60.11 | X-H torsion
[ 7974 7965 7964 7962 ] final  -40.88 input  175.53 | X-H torsion
[ 8008 7997 7996 7995 ] final   98.10 input   59.86 | X-H torsion
[ 10167 10162 10161 10158 ] final  -80.20 input  -65.29 | X-H torsion
[ 10718 10713 10712 10709 ] final  -89.65 input   66.30 | X-H torsion
[ 10763 10752 10751 10750 ] final  -34.07 input  -60.55 | X-H torsion
[ 11005 11000 10999 10996 ] final   11.52 input  -57.11 | X-H torsion

> <Gold.Protein.ActiveResidues>
 VAL166  LYS551  ARG553  GLY616  TRP617  ASP618  TYR619  PRO620  LYS621  CYS622 
 ASP623  PHE694  ASN695  SER759  ASP760  ASP761  ALA762  ILE779  LEU786  VAL792 
 PHE793  MET794  SER795  GLU796  ALA797  LYS798  CYS799  TRP800  GLU811  SER814 

> <Gold.Protein.RotatedAtoms>
  151.6288  133.3333  159.3104 H   0  0  0  0  0  0  0  0  0  0  0  0  # atno 6907 bound_to 6896
  150.8067  134.7200  159.6662 H   0  0  0  0  0  0  0  0  0  0  0  0  # atno 6908 bound_to 6896
  152.4163  134.6041  160.0059 H   0  0  0  0  0  0  0  0  0  0  0  0  # atno 6909 bound_to 6896
  146.0263  140.6787  142.9154 H   0  0  0  0  0  0  0  0  0  0  0  0  # atno 7974 bound_to 7965
  156.0970  140.3248  155.7891 H   0  0  0  0  0  0  0  0  0  0  0  0  # atno 8008 bound_to 7997
  155.4901  140.0561  157.2972 H   0  0  0  0  0  0  0  0  0  0  0  0  # atno 8009 bound_to 7997
  154.4673  140.1995  156.0101 H   0  0  0  0  0  0  0  0  0  0  0  0  # atno 8010 bound_to 7997
  140.4524  143.2479  151.8469 H   0  0  0  0  0  0  0  0  0  0  0  0  # atno 10167 bound_to 10162
  155.9985  130.4880  150.5204 H   0  0  0  0  0  0  0  0  0  0  0  0  # atno 10718 bound_to 10713
  153.8406  135.6858  153.4803 H   0  0  0  0  0  0  0  0  0  0  0  0  # atno 10763 bound_to 10752
  153.1456  135.4639  154.9558 H   0  0  0  0  0  0  0  0  0  0  0  0  # atno 10764 bound_to 10752
  154.7846  135.3280  154.7860 H   0  0  0  0  0  0  0  0  0  0  0  0  # atno 10765 bound_to 10752
  140.5023  134.0733  155.7797 H   0  0  0  0  0  0  0  0  0  0  0  0  # atno 11005 bound_to 11000
  144.7011  140.3656  143.7155 LP  0  0  0  0  0  0  0  0  0  0  0  0  # atno 17320 bound_to 7965
  145.7112  139.1685  143.2537 LP  0  0  0  0  0  0  0  0  0  0  0  0  # atno 17321 bound_to 7965
  139.4798  144.5104  151.8940 LP  0  0  0  0  0  0  0  0  0  0  0  0  # atno 17342 bound_to 10162
  140.4191  144.2267  150.5887 LP  0  0  0  0  0  0  0  0  0  0  0  0  # atno 17343 bound_to 10162
  157.3166  131.0674  151.1962 LP  0  0  0  0  0  0  0  0  0  0  0  0  # atno 17370 bound_to 10713
  157.2890  130.6787  149.6104 LP  0  0  0  0  0  0  0  0  0  0  0  0  # atno 17371 bound_to 10713
  141.1429  133.9107  157.2284 LP  0  0  0  0  0  0  0  0  0  0  0  0  # atno 17394 bound_to 11000
  139.9706  135.0129  156.9502 LP  0  0  0  0  0  0  0  0  0  0  0  0  # atno 17395 bound_to 11000

$$$$
