AV-unprocessed.smi:227|AV-procd|sdf|1739|dock7
  -GOLD-   2262020243D 1   1.00000     0.00000
 Structure written by MMmdl.
 54 58  0  0  0  0  0  0  0  0  1 V2000
  142.1776  134.4210  154.2937 O   0  0  0  0  0  0  0  0  0  0  0  0
  142.9109  134.6627  153.1103 C   0  0  0  0  0  0  0  0  0  0  0  0
  144.2921  135.2978  153.4140 C   0  0  2  0  0  0  0  0  0  0  0  0
  144.1643  136.8304  153.6602 C   0  0  0  0  0  0  0  0  0  0  0  0
  145.3836  137.4606  154.1458 N   0  0  0  0  0  0  0  0  0  0  0  0
  146.6461  137.3258  153.6149 C   0  0  0  0  0  0  0  0  0  0  0  0
  147.5844  137.9848  154.2364 N   0  0  0  0  0  0  0  0  0  0  0  0
  146.9205  138.6389  155.2678 C   0  0  0  0  0  0  0  0  0  0  0  0
  147.3258  139.5087  156.3220 C   0  0  0  0  0  0  0  0  0  0  0  0
  148.6162  139.8793  156.5414 N   0  0  0  0  0  0  0  0  0  0  0  0
  149.7183  139.2208  155.8571 C   0  0  2  0  0  0  0  0  0  0  0  0
  150.9437  139.8020  156.5833 C   0  0  0  0  0  0  0  0  0  0  0  0
  150.4677  141.2347  156.8768 C   0  0  0  0  0  0  0  0  0  0  0  0
  149.0697  141.2280  156.2317 C   0  0  1  0  0  0  0  0  0  0  0  0
  149.2420  141.2545  154.6916 C   0  0  2  0  0  0  0  0  0  0  0  0
  147.9837  141.7037  153.9226 C   0  0  0  0  0  0  0  0  0  0  0  0
  147.7896  143.0932  154.0771 O   0  0  0  0  0  0  0  0  0  0  0  0
  149.6587  139.7934  154.4254 C   0  0  0  0  0  0  0  0  0  0  0  0
  146.3515  139.9945  157.1363 N   0  0  0  0  0  0  0  0  0  0  0  0
  145.0779  139.6345  156.9599 C   0  0  0  0  0  0  0  0  0  0  0  0
  144.5637  138.8161  156.0419 N   0  0  0  0  0  0  0  0  0  0  0  0
  145.5297  138.3366  155.2082 C   0  0  0  0  0  0  0  0  0  0  0  0
  145.3434  134.9519  152.3119 C   0  0  1  0  0  0  0  0  0  0  0  0
  145.6006  133.4566  152.1470 C   0  0  0  0  0  0  0  0  0  0  0  0
  144.5041  132.9998  151.1843 C   0  0  0  0  0  0  0  0  0  0  0  0
  144.0793  134.1688  150.4928 O   0  0  0  0  0  0  0  0  0  0  0  0
  144.9074  135.2582  150.8715 C   0  0  0  0  0  0  0  0  0  0  0  0
  142.0616  133.4878  154.3901 H   0  0  0  0  0  0  0  0  0  0  0  0
  143.0151  133.6954  152.6245 H   0  0  0  0  0  0  0  0  0  0  0  0
  142.3242  135.2906  152.4399 H   0  0  0  0  0  0  0  0  0  0  0  0
  144.6403  134.8578  154.3496 H   0  0  0  0  0  0  0  0  0  0  0  0
  143.8693  137.3384  152.7419 H   0  0  0  0  0  0  0  0  0  0  0  0
  143.3612  137.0518  154.3610 H   0  0  0  0  0  0  0  0  0  0  0  0
  146.8522  136.7107  152.7511 H   0  0  0  0  0  0  0  0  0  0  0  0
  149.6934  138.1310  155.8899 H   0  0  0  0  0  0  0  0  0  0  0  0
  151.1388  139.2657  157.5129 H   0  0  0  0  0  0  0  0  0  0  0  0
  151.8478  139.7698  155.9744 H   0  0  0  0  0  0  0  0  0  0  0  0
  150.3960  141.3995  157.9527 H   0  0  0  0  0  0  0  0  0  0  0  0
  151.1283  141.9973  156.4628 H   0  0  0  0  0  0  0  0  0  0  0  0
  148.4487  142.0376  156.6115 H   0  0  0  0  0  0  0  0  0  0  0  0
  150.0542  141.9344  154.4295 H   0  0  0  0  0  0  0  0  0  0  0  0
  148.0534  141.4770  152.8592 H   0  0  0  0  0  0  0  0  0  0  0  0
  147.1027  141.1874  154.3045 H   0  0  0  0  0  0  0  0  0  0  0  0
  147.8600  143.3067  154.9951 H   0  0  0  0  0  0  0  0  0  0  0  0
  150.6121  139.7162  153.9019 H   0  0  0  0  0  0  0  0  0  0  0  0
  148.9109  139.2681  153.8297 H   0  0  0  0  0  0  0  0  0  0  0  0
  144.3706  140.0602  157.6563 H   0  0  0  0  0  0  0  0  0  0  0  0
  146.2725  135.4800  152.5294 H   0  0  0  0  0  0  0  0  0  0  0  0
  146.5748  133.3122  151.6772 H   0  0  0  0  0  0  0  0  0  0  0  0
  145.6089  132.8787  153.0684 H   0  0  0  0  0  0  0  0  0  0  0  0
  144.8654  132.2407  150.4902 H   0  0  0  0  0  0  0  0  0  0  0  0
  143.6538  132.5865  151.7275 H   0  0  0  0  0  0  0  0  0  0  0  0
  144.4088  136.2132  150.7234 H   0  0  0  0  0  0  0  0  0  0  0  0
  145.7808  135.2608  150.2171 H   0  0  0  0  0  0  0  0  0  0  0  0
  1  2  1  0  0  0  0
  1 28  1  0  0  0  0
  2  3  1  0  0  0  0
  2 29  1  0  0  0  0
  2 30  1  0  0  0  0
  3  4  1  0  0  0  0
  3 23  1  0  0  0  0
  3 31  1  0  0  0  0
  4  5  1  0  0  0  0
  4 32  1  0  0  0  0
  4 33  1  0  0  0  0
  5 22  1  0  0  0  0
  5  6  1  0  0  0  0
  6  7  2  0  0  0  0
  6 34  1  0  0  0  0
  7  8  1  0  0  0  0
  8 22  2  0  0  0  0
  8  9  1  0  0  0  0
  9 10  1  0  0  0  0
  9 19  2  0  0  0  0
 10 14  1  0  0  0  0
 10 11  1  0  0  0  0
 11 18  1  0  0  0  0
 11 12  1  0  0  0  0
 11 35  1  0  0  0  0
 12 13  1  0  0  0  0
 12 36  1  0  0  0  0
 12 37  1  0  0  0  0
 13 14  1  0  0  0  0
 13 38  1  0  0  0  0
 13 39  1  0  0  0  0
 14 15  1  0  0  0  0
 14 40  1  0  0  0  0
 15 16  1  0  0  0  0
 15 18  1  0  0  0  0
 15 41  1  0  0  0  0
 16 17  1  0  0  0  0
 16 42  1  0  0  0  0
 16 43  1  0  0  0  0
 17 44  1  0  0  0  0
 18 45  1  0  0  0  0
 18 46  1  0  0  0  0
 19 20  1  0  0  0  0
 20 21  2  0  0  0  0
 20 47  1  0  0  0  0
 21 22  1  0  0  0  0
 23 27  1  0  0  0  0
 23 24  1  0  0  0  0
 23 48  1  0  0  0  0
 24 25  1  0  0  0  0
 24 49  1  0  0  0  0
 24 50  1  0  0  0  0
 25 26  1  0  0  0  0
 25 51  1  0  0  0  0
 25 52  1  0  0  0  0
 26 27  1  0  0  0  0
 27 53  1  0  0  0  0
 27 54  1  0  0  0  0
M  END
> <s_m_source_file>
AV-unprocessed.smi

> <i_m_source_file_index>
227

> <i_lp_mmshare_version>
43012

> <i_f3d_flags>
0

> <s_epik_input>
W0NIMl0xT1tDSDJdW0NIMl1bQ0BIXTFbQ0BIXShbQ0gyXVtPSF0pW0NIMl1uKFtjSF1uMiljKGMyMyluW2NIXW5jM04oW0NASF00NSlbQ0BASF0oW0NIMl1bQ0gyXTQpW0NASF0oW0NIMl01KVtDSDJdW09IXQ==

> <s_epik_cmdline>
J2VwaWtfcHl0aG9uJywgJy1waCcsICc3LjAnLCAnLXRuJywgJzgnLCAnLW1hJywgJzIwMCcsICctbWV0YWxfYmluZGluZycsICctaW1hZScsICc8aW5maWxlLm1hZT4nLCAnLW9tYWUnLCAnPG91dGZpbGUubWFlPic=

> <r_lp_tautomer_probability>
1

> <r_epik_Ionization_Penalty>
0.0055791

> <r_epik_Ionization_Penalty_Charging>
0

> <r_epik_Ionization_Penalty_Neutral>
0.0055791

> <r_epik_State_Penalty>
0.00401299

> <r_epik_Charging_Adjusted_Penalty>
0.00401299

> <i_epik_Tot_Q>
0

> <i_epik_Tot_abs_Q>
0

> <r_epik_Metal_State_Penalty>
-0

> <b_epik_Metal_Only>
0

> <s_lp_Force_Field>
OPLS_2005

> <r_lp_Energy>
89.9209

> <b_lp_Chiralities_Consistent>
1

> <s_lp_Variant>
AV-unprocessed.smi:227-13

> <Gold.Version>
5.8.1

> <Gold.Id.Protein>
6NUR|6NUR_protein|mol2

> <Gold.PLP.Fitness>
38.0812

> <Gold.PLP.PLP>
-30.6882

> <Gold.PLP.part.hbond>
-4.1365

> <Gold.PLP.part.metal>
0.0000

> <Gold.PLP.part.buried>
-2.2391

> <Gold.PLP.part.nonpolar>
-23.9837

> <Gold.PLP.part.repulsive>
0.4241

> <Gold.PLP.ligand.clash>
0.0000

> <Gold.PLP.ligand.torsion>
0.7815

> <Gold.PLP.Chemscore.Hbond>
1.9872

> <Gold.PLP.Chemscore.CHOScore>
0.9285

> <Gold.PLP.Chemscore.Metal>
0.0000

> <Gold.Chemscore.Hbonds>
donor molecule, donor type, donor heavy atom, donor atom, acceptor molecule, acceptor atom, score
      L1  H     1    28       P1 10957  1.00
      L1  H    17    44       P1  8028  0.46
      P1  H  8022  8030       L1    17  0.44
      L1  C     6    34       P1  7948  0.94

> <Gold.PLP.Chemscore.Internal.Correction>
0.2090

> <Gold.Rescore>
     Score         DG    S(hbond)    S(metal)    S(lipo)     H(rot)  DE(clash)    DE(int)     intcor
      2.88     -10.73       1.73        0.00      74.52       3.61       2.02       5.82       ----

> <Gold.Chemscore.Fitness>
2.8822

> <Gold.Chemscore.DG>
-10.7261

> <Gold.Chemscore.ZeroCoef>
-5.4800

> <Gold.Chemscore.Hbond>
1.7252

> <Gold.Chemscore.Metal>
0.0000

> <Gold.Chemscore.Lipo>
74.5152

> <Gold.Chemscore.Internal_Hbond>
0.0000

> <Gold.Chemscore.DEClash>
2.0238

> <Gold.Chemscore.DEInternal>
5.8201

> <Gold.Chemscore.Rot>
3.6071

> <Gold.Chemscore.Internal.Correction>
   9.000000E+99

> <Gold.Chemscore.Hbonds>
donor molecule, donor type, donor heavy atom, donor atom, acceptor molecule, acceptor atom, score
      L1  H     1    28       P1 10957  0.98
      L1  H    17    44       P1  8028  0.30
      P1  H  8022  8030       L1    17  0.02

> <Gold.Chemscore.Hbond.Weighted>
-5.7620

> <Gold.Chemscore.Metal.Weighted>
-0.0000

> <Gold.Chemscore.Lipo.Weighted>
-8.7183

> <Gold.Chemscore.Internal_Hbond.Weighted>
0.0000

> <Gold.Chemscore.DEClash.Weighted>
2.0238

> <Gold.Chemscore.DEInternal.Weighted>
5.8201

> <Gold.Chemscore.Rot.Weighted>
9.2342

> <Gold.Chemscore.Internal.Correction.Weighted>
   9.000000E+99

> <Gold.Protein.RotatedTorsions>
[ 6907 6896 6895 6894 ] final   75.76 input  -60.11 | X-H torsion
[ 7974 7965 7964 7962 ] final -173.16 input  175.53 | X-H torsion
[ 8008 7997 7996 7995 ] final   25.79 input   59.86 | X-H torsion
[ 10167 10162 10161 10158 ] final   78.75 input  -65.29 | X-H torsion
[ 10718 10713 10712 10709 ] final   11.45 input   66.30 | X-H torsion
[ 10763 10752 10751 10750 ] final  154.79 input  -60.55 | X-H torsion
[ 11005 11000 10999 10996 ] final -145.84 input  -57.11 | X-H torsion

> <Gold.Protein.ActiveResidues>
 VAL166  LYS551  ARG553  GLY616  TRP617  ASP618  TYR619  PRO620  LYS621  CYS622 
 ASP623  PHE694  ASN695  SER759  ASP760  ASP761  ALA762  ILE779  LEU786  VAL792 
 PHE793  MET794  SER795  GLU796  ALA797  LYS798  CYS799  TRP800  GLU811  SER814 

> <Gold.Protein.RotatedAtoms>
  152.5041  134.4071  159.9435 H   0  0  0  0  0  0  0  0  0  0  0  0  # atno 6907 bound_to 6896
  151.4037  133.3743  159.2743 H   0  0  0  0  0  0  0  0  0  0  0  0  # atno 6908 bound_to 6896
  150.9342  134.8777  159.7630 H   0  0  0  0  0  0  0  0  0  0  0  0  # atno 6909 bound_to 6896
  144.7140  140.1663  143.6371 H   0  0  0  0  0  0  0  0  0  0  0  0  # atno 7974 bound_to 7965
  155.0172  140.3143  155.4807 H   0  0  0  0  0  0  0  0  0  0  0  0  # atno 8008 bound_to 7997
  156.2898  140.2204  156.5230 H   0  0  0  0  0  0  0  0  0  0  0  0  # atno 8009 bound_to 7997
  154.7483  140.0468  157.0859 H   0  0  0  0  0  0  0  0  0  0  0  0  # atno 8010 bound_to 7997
  139.9676  144.5917  150.8014 H   0  0  0  0  0  0  0  0  0  0  0  0  # atno 10167 bound_to 10162
  156.9957  130.6060  149.5691 H   0  0  0  0  0  0  0  0  0  0  0  0  # atno 10718 bound_to 10713
  154.1579  135.2811  155.3117 H   0  0  0  0  0  0  0  0  0  0  0  0  # atno 10763 bound_to 10752
  154.6168  135.5480  153.7536 H   0  0  0  0  0  0  0  0  0  0  0  0  # atno 10764 bound_to 10752
  153.0201  135.6429  154.1722 H   0  0  0  0  0  0  0  0  0  0  0  0  # atno 10765 bound_to 10752
  140.7881  134.3000  157.5023 H   0  0  0  0  0  0  0  0  0  0  0  0  # atno 11005 bound_to 11000
  145.8984  139.2416  143.1508 LP  0  0  0  0  0  0  0  0  0  0  0  0  # atno 17320 bound_to 7965
  145.9835  140.8663  143.0102 LP  0  0  0  0  0  0  0  0  0  0  0  0  # atno 17321 bound_to 7965
  140.7532  143.3005  151.3093 LP  0  0  0  0  0  0  0  0  0  0  0  0  # atno 17342 bound_to 10162
  139.6505  144.0370  152.2623 LP  0  0  0  0  0  0  0  0  0  0  0  0  # atno 17343 bound_to 10162
  156.0190  130.5284  150.8220 LP  0  0  0  0  0  0  0  0  0  0  0  0  # atno 17370 bound_to 10713
  157.5426  131.0941  150.9806 LP  0  0  0  0  0  0  0  0  0  0  0  0  # atno 17371 bound_to 10713
  139.8734  134.9358  156.3644 LP  0  0  0  0  0  0  0  0  0  0  0  0  # atno 17394 bound_to 11000
  140.9416  133.7510  156.0154 LP  0  0  0  0  0  0  0  0  0  0  0  0  # atno 17395 bound_to 11000

$$$$
