AV-unprocessed.smi:1984|AV-procd|sdf|8041|dock9
  -GOLD-   2272010233D 1   1.00000     0.00000
 Structure written by MMmdl.
 38 39  0  0  0  0  0  0  0  0  1 V2000
  145.7812  128.7682  151.7864 C   0  0  0  0  0  0  0  0  0  0  0  0
  145.6912  130.2554  151.6125 C   0  0  0  0  0  0  0  0  0  0  0  0
  144.6475  131.0117  151.0095 C   0  0  0  0  0  0  0  0  0  0  0  0
  145.0669  132.3082  151.1119 C   0  0  0  0  0  0  0  0  0  0  0  0
  144.4088  133.5713  150.6622 C   0  0  0  0  0  0  0  0  0  0  0  0
  146.2977  132.2830  151.7447 N   0  0  0  0  0  0  0  0  0  0  0  0
  147.1737  133.3911  152.0954 C   0  0  0  0  0  0  0  0  0  0  0  0
  147.8968  133.1425  153.4222 C   0  0  0  0  0  0  0  0  0  0  0  0
  147.6794  132.1162  154.0663 O   0  0  0  0  0  0  0  0  0  0  0  0
  148.7590  134.0895  153.8191 N   0  0  0  0  0  0  0  0  0  0  0  0
  149.5467  134.0244  155.0434 C   0  0  0  0  0  0  0  0  0  0  0  0
  149.4819  135.3490  155.8237 C   0  0  1  0  0  0  0  0  0  0  0  0
  148.0813  135.6587  156.3937 C   0  0  0  0  0  0  0  0  0  0  0  0
  148.1996  136.8233  157.3820 C   0  0  0  0  0  0  0  0  0  0  0  0
  149.8397  136.6347  158.1744 S   0  0  0  0  0  0  0  0  0  0  0  0
  150.5915  137.8894  158.0226 O   0  0  0  0  0  0  0  0  0  0  0  0
  149.6781  136.0030  159.4925 O   0  0  0  0  0  0  0  0  0  0  0  0
  150.4801  135.3884  156.9917 C   0  0  0  0  0  0  0  0  0  0  0  0
  146.6743  131.0226  152.0534 N   0  0  0  0  0  0  0  0  0  0  0  0
  144.9142  128.2676  151.3551 H   0  0  0  0  0  0  0  0  0  0  0  0
  145.8293  128.4982  152.8416 H   0  0  0  0  0  0  0  0  0  0  0  0
  146.6709  128.3692  151.2983 H   0  0  0  0  0  0  0  0  0  0  0  0
  143.7290  130.6553  150.5675 H   0  0  0  0  0  0  0  0  0  0  0  0
  143.4185  133.3700  150.2533 H   0  0  0  0  0  0  0  0  0  0  0  0
  144.9973  134.0616  149.8866 H   0  0  0  0  0  0  0  0  0  0  0  0
  144.2918  134.2676  151.4925 H   0  0  0  0  0  0  0  0  0  0  0  0
  147.8882  133.5419  151.2852 H   0  0  0  0  0  0  0  0  0  0  0  0
  146.5872  134.3080  152.1744 H   0  0  0  0  0  0  0  0  0  0  0  0
  148.8818  134.9025  153.2330 H   0  0  0  0  0  0  0  0  0  0  0  0
  149.1873  133.2048  155.6682 H   0  0  0  0  0  0  0  0  0  0  0  0
  150.5815  133.7970  154.7827 H   0  0  0  0  0  0  0  0  0  0  0  0
  149.7451  136.1629  155.1462 H   0  0  0  0  0  0  0  0  0  0  0  0
  147.3598  135.8827  155.6074 H   0  0  0  0  0  0  0  0  0  0  0  0
  147.7096  134.7819  156.9255 H   0  0  0  0  0  0  0  0  0  0  0  0
  148.1858  137.7790  156.8575 H   0  0  0  0  0  0  0  0  0  0  0  0
  147.4128  136.8265  158.1365 H   0  0  0  0  0  0  0  0  0  0  0  0
  150.5177  134.4296  157.5098 H   0  0  0  0  0  0  0  0  0  0  0  0
  151.4906  135.6512  156.6782 H   0  0  0  0  0  0  0  0  0  0  0  0
  1  2  1  0  0  0  0
  1 20  1  0  0  0  0
  1 21  1  0  0  0  0
  1 22  1  0  0  0  0
  2 19  2  0  0  0  0
  2  3  1  0  0  0  0
  3  4  2  0  0  0  0
  3 23  1  0  0  0  0
  4  5  1  0  0  0  0
  4  6  1  0  0  0  0
  5 24  1  0  0  0  0
  5 25  1  0  0  0  0
  5 26  1  0  0  0  0
  6  7  1  0  0  0  0
  6 19  1  0  0  0  0
  7  8  1  0  0  0  0
  7 27  1  0  0  0  0
  7 28  1  0  0  0  0
  8  9  2  0  0  0  0
  8 10  1  0  0  0  0
 10 11  1  0  0  0  0
 10 29  1  0  0  0  0
 11 12  1  0  0  0  0
 11 30  1  0  0  0  0
 11 31  1  0  0  0  0
 12 18  1  0  0  0  0
 12 13  1  0  0  0  0
 12 32  1  0  0  0  0
 13 14  1  0  0  0  0
 13 33  1  0  0  0  0
 13 34  1  0  0  0  0
 14 15  1  0  0  0  0
 14 35  1  0  0  0  0
 14 36  1  0  0  0  0
 15 16  2  0  0  0  0
 15 17  2  0  0  0  0
 15 18  1  0  0  0  0
 18 37  1  0  0  0  0
 18 38  1  0  0  0  0
M  END
> <s_m_source_file>
AV-unprocessed.smi

> <i_m_source_file_index>
1984

> <i_lp_mmshare_version>
43012

> <i_f3d_flags>
0

> <s_epik_input>
W0NIM11jMVtjSF1jKFtDSDNdKW4objEpW0NIMl1DKD1PKVtOSF1bQ0gyXVtDQEBIXShbQ0gyXTIpW0NIMl1bQ0gyXVMyKD1PKT1P

> <s_epik_cmdline>
J2VwaWtfcHl0aG9uJywgJy1waCcsICc3LjAnLCAnLXRuJywgJzgnLCAnLW1hJywgJzIwMCcsICctbWV0YWxfYmluZGluZycsICctaW1hZScsICc8aW5maWxlLm1hZT4nLCAnLW9tYWUnLCAnPG91dGZpbGUubWFlPic=

> <r_lp_tautomer_probability>
1

> <r_epik_Ionization_Penalty>
0.000335865

> <r_epik_Ionization_Penalty_Charging>
0

> <r_epik_Ionization_Penalty_Neutral>
0.000335865

> <r_epik_State_Penalty>
-0

> <r_epik_Charging_Adjusted_Penalty>
0

> <i_epik_Tot_Q>
0

> <i_epik_Tot_abs_Q>
0

> <r_epik_Metal_State_Penalty>
-0

> <b_epik_Metal_Only>
0

> <s_lp_Force_Field>
OPLS_2005

> <r_lp_Energy>
4.96267

> <b_lp_Chiralities_Consistent>
1

> <s_lp_Variant>
AV-unprocessed.smi:1984-2

> <Gold.Version>
5.8.1

> <Gold.Id.Protein>
6NUR|6NUR_protein|mol2

> <Gold.PLP.Fitness>
34.3877

> <Gold.PLP.PLP>
-29.2952

> <Gold.PLP.part.hbond>
-2.0000

> <Gold.PLP.part.metal>
0.0000

> <Gold.PLP.part.buried>
-5.0148

> <Gold.PLP.part.nonpolar>
-22.8945

> <Gold.PLP.part.repulsive>
1.3346

> <Gold.PLP.ligand.clash>
0.0000

> <Gold.PLP.ligand.torsion>
0.4570

> <Gold.PLP.Chemscore.Hbond>
2.0000

> <Gold.PLP.Chemscore.CHOScore>
0.0000

> <Gold.PLP.Chemscore.Metal>
0.0000

> <Gold.Chemscore.Hbonds>
donor molecule, donor type, donor heavy atom, donor atom, acceptor molecule, acceptor atom, score
      L1  H    10    29       P1  7948  1.00
      P1  H  6896  6907       L1    17  1.00

> <Gold.PLP.Chemscore.Internal.Correction>
0.0065

> <Gold.Rescore>
     Score         DG    S(hbond)    S(metal)    S(lipo)     H(rot)  DE(clash)    DE(int)     intcor
     12.66     -14.69       1.94        0.00      60.18       1.68       0.00       2.03       ----

> <Gold.Chemscore.Fitness>
12.6590

> <Gold.Chemscore.DG>
-14.6921

> <Gold.Chemscore.ZeroCoef>
-5.4800

> <Gold.Chemscore.Hbond>
1.9371

> <Gold.Chemscore.Metal>
0.0000

> <Gold.Chemscore.Lipo>
60.1838

> <Gold.Chemscore.Internal_Hbond>
0.0000

> <Gold.Chemscore.DEClash>
0.0038

> <Gold.Chemscore.DEInternal>
2.0292

> <Gold.Chemscore.Rot>
1.6795

> <Gold.Chemscore.Internal.Correction>
   9.000000E+99

> <Gold.Chemscore.Hbonds>
donor molecule, donor type, donor heavy atom, donor atom, acceptor molecule, acceptor atom, score
      L1  H    10    29       P1  7948  0.26
      P1  H  6896  6907       L1    17  0.74

> <Gold.Chemscore.Hbond.Weighted>
-6.4701

> <Gold.Chemscore.Metal.Weighted>
-0.0000

> <Gold.Chemscore.Lipo.Weighted>
-7.0415

> <Gold.Chemscore.Internal_Hbond.Weighted>
0.0000

> <Gold.Chemscore.DEClash.Weighted>
0.0038

> <Gold.Chemscore.DEInternal.Weighted>
2.0292

> <Gold.Chemscore.Rot.Weighted>
4.2995

> <Gold.Chemscore.Internal.Correction.Weighted>
   9.000000E+99

> <Gold.Protein.RotatedTorsions>
[ 6907 6896 6895 6894 ] final  -58.36 input  -60.11 | X-H torsion
[ 7974 7965 7964 7962 ] final  117.53 input  175.53 | X-H torsion
[ 8008 7997 7996 7995 ] final  108.55 input   59.86 | X-H torsion
[ 10167 10162 10161 10158 ] final  155.03 input  -65.29 | X-H torsion
[ 10718 10713 10712 10709 ] final  -28.17 input   66.30 | X-H torsion
[ 10763 10752 10751 10750 ] final  -84.53 input  -60.55 | X-H torsion
[ 11005 11000 10999 10996 ] final  117.28 input  -57.11 | X-H torsion

> <Gold.Protein.ActiveResidues>
 VAL166  LYS551  ARG553  GLY616  TRP617  ASP618  TYR619  PRO620  LYS621  CYS622 
 ASP623  PHE694  ASN695  SER759  ASP760  ASP761  ALA762  ILE779  LEU786  VAL792 
 PHE793  MET794  SER795  GLU796  ALA797  LYS798  CYS799  TRP800  GLU811  SER814 

> <Gold.Protein.RotatedAtoms>
  150.8013  134.7109  159.6602 H   0  0  0  0  0  0  0  0  0  0  0  0  # atno 6907 bound_to 6896
  152.4130  134.6087  160.0029 H   0  0  0  0  0  0  0  0  0  0  0  0  # atno 6908 bound_to 6896
  151.6325  133.3294  159.3148 H   0  0  0  0  0  0  0  0  0  0  0  0  # atno 6909 bound_to 6896
  145.1662  139.3127  143.4491 H   0  0  0  0  0  0  0  0  0  0  0  0  # atno 7974 bound_to 7965
  156.1911  140.3074  155.9335 H   0  0  0  0  0  0  0  0  0  0  0  0  # atno 8008 bound_to 7997
  155.3171  140.0454  157.3054 H   0  0  0  0  0  0  0  0  0  0  0  0  # atno 8009 bound_to 7997
  154.5453  140.2274  155.8582 H   0  0  0  0  0  0  0  0  0  0  0  0  # atno 8010 bound_to 7997
  139.4822  144.5134  151.7989 H   0  0  0  0  0  0  0  0  0  0  0  0  # atno 10167 bound_to 10162
  156.4287  130.4441  149.7132 H   0  0  0  0  0  0  0  0  0  0  0  0  # atno 10718 bound_to 10713
  154.6006  135.5517  153.7370 H   0  0  0  0  0  0  0  0  0  0  0  0  # atno 10763 bound_to 10752
  153.0153  135.6365  154.1720 H   0  0  0  0  0  0  0  0  0  0  0  0  # atno 10764 bound_to 10752
  154.1660  135.2894  155.3075 H   0  0  0  0  0  0  0  0  0  0  0  0  # atno 10765 bound_to 10752
  139.9069  134.9608  156.7327 H   0  0  0  0  0  0  0  0  0  0  0  0  # atno 11005 bound_to 11000
  146.3475  140.1791  142.8589 LP  0  0  0  0  0  0  0  0  0  0  0  0  # atno 17320 bound_to 7965
  145.0279  140.8847  143.5127 LP  0  0  0  0  0  0  0  0  0  0  0  0  # atno 17321 bound_to 7965
  140.4640  144.1681  150.5909 LP  0  0  0  0  0  0  0  0  0  0  0  0  # atno 17342 bound_to 10162
  140.4454  143.2509  151.9418 LP  0  0  0  0  0  0  0  0  0  0  0  0  # atno 17343 bound_to 10162
  156.4044  130.7691  151.2700 LP  0  0  0  0  0  0  0  0  0  0  0  0  # atno 17370 bound_to 10713
  157.7508  131.0230  150.3816 LP  0  0  0  0  0  0  0  0  0  0  0  0  # atno 17371 bound_to 10713
  140.6912  133.9388  155.7967 LP  0  0  0  0  0  0  0  0  0  0  0  0  # atno 17394 bound_to 11000
  141.0440  134.0580  157.3867 LP  0  0  0  0  0  0  0  0  0  0  0  0  # atno 17395 bound_to 11000

$$$$
