AV-unprocessed.smi:2668|AV-procd|sdf|10342|dock4
  -GOLD-   2272014363D 1   1.00000     0.00000
 Structure written by MMmdl.
 53 54  0  0  0  0  0  0  0  0  2 V2000
  144.1372  132.3060  149.8353 C   0  0  0  0  0  0  0  0  0  0  0  0
  144.8315  132.2088  151.1176 N   0  0  0  0  0  0  0  0  0  0  0  0
  144.8855  130.7874  151.4539 C   0  0  0  0  0  0  0  0  0  0  0  0
  146.1764  132.8169  151.0728 C   0  0  2  0  0  0  0  0  0  0  0  0
  146.7295  133.1672  152.4728 C   0  0  0  0  0  0  0  0  0  0  0  0
  145.9788  134.3468  153.1154 C   0  0  0  0  0  0  0  0  0  0  0  0
  146.0362  135.5688  152.2582 N   0  3  2  0  0  0  0  0  0  0  0  0
  145.5286  136.8367  152.9010 C   0  0  0  0  0  0  0  0  0  0  0  0
  144.0179  137.0136  152.6017 C   0  0  0  0  0  0  0  0  0  0  0  0
  145.6443  136.7224  154.4427 C   0  0  0  0  0  0  0  0  0  0  0  0
  146.3123  138.0818  152.3861 C   0  0  0  0  0  0  0  0  0  0  0  0
  147.6544  138.2036  152.9546 N   0  0  0  0  0  0  0  0  0  0  0  0
  148.0361  139.1081  153.8679 C   0  0  0  0  0  0  0  0  0  0  0  0
  147.2841  139.9675  154.3268 O   0  0  0  0  0  0  0  0  0  0  0  0
  149.3240  138.9356  154.2114 N   0  0  0  0  0  0  0  0  0  0  0  0
  150.1013  139.6829  155.1374 C   0  0  0  0  0  0  0  0  0  0  0  0
  149.7151  140.9334  155.6783 C   0  0  0  0  0  0  0  0  0  0  0  0
  150.5849  141.5839  156.5745 C   0  0  0  0  0  0  0  0  0  0  0  0
  151.8097  140.9657  156.8923 C   0  0  0  0  0  0  0  0  0  0  0  0
  152.1966  139.7812  156.3743 N   0  0  0  0  0  0  0  0  0  0  0  0
  151.3581  139.1638  155.5150 C   0  0  0  0  0  0  0  0  0  0  0  0
  145.4971  135.2798  150.8951 C   0  0  0  0  0  0  0  0  0  0  0  0
  146.2421  134.1099  150.2281 C   0  0  0  0  0  0  0  0  0  0  0  0
  143.8849  133.3371  149.5928 H   0  0  0  0  0  0  0  0  0  0  0  0
  143.1912  131.7637  149.8642 H   0  0  0  0  0  0  0  0  0  0  0  0
  144.7386  131.8930  149.0241 H   0  0  0  0  0  0  0  0  0  0  0  0
  145.2286  130.6250  152.4740 H   0  0  0  0  0  0  0  0  0  0  0  0
  145.5421  130.2420  150.7745 H   0  0  0  0  0  0  0  0  0  0  0  0
  143.8931  130.3381  151.3957 H   0  0  0  0  0  0  0  0  0  0  0  0
  146.8443  132.0841  150.6168 H   0  0  0  0  0  0  0  0  0  0  0  0
  146.7396  132.3104  153.1443 H   0  0  0  0  0  0  0  0  0  0  0  0
  147.7794  133.4453  152.3706 H   0  0  0  0  0  0  0  0  0  0  0  0
  144.9427  134.0614  153.2982 H   0  0  0  0  0  0  0  0  0  0  0  0
  146.4340  134.5212  154.0876 H   0  0  0  0  0  0  0  0  0  0  0  0
  143.5747  137.8001  153.2140 H   0  0  0  0  0  0  0  0  0  0  0  0
  143.4611  136.0983  152.8067 H   0  0  0  0  0  0  0  0  0  0  0  0
  143.8285  137.3000  151.5675 H   0  0  0  0  0  0  0  0  0  0  0  0
  145.0913  137.5130  154.9509 H   0  0  0  0  0  0  0  0  0  0  0  0
  146.6737  136.8077  154.7899 H   0  0  0  0  0  0  0  0  0  0  0  0
  145.2440  135.7740  154.8034 H   0  0  0  0  0  0  0  0  0  0  0  0
  146.3742  138.0840  151.2975 H   0  0  0  0  0  0  0  0  0  0  0  0
  145.7877  138.9985  152.6538 H   0  0  0  0  0  0  0  0  0  0  0  0
  148.3420  137.5355  152.6378 H   0  0  0  0  0  0  0  0  0  0  0  0
  149.7881  138.1357  153.8062 H   0  0  0  0  0  0  0  0  0  0  0  0
  148.7841  141.4113  155.4158 H   0  0  0  0  0  0  0  0  0  0  0  0
  150.3206  142.5384  157.0049 H   0  0  0  0  0  0  0  0  0  0  0  0
  152.4995  141.4385  157.5756 H   0  0  0  0  0  0  0  0  0  0  0  0
  151.7017  138.2195  155.1182 H   0  0  0  0  0  0  0  0  0  0  0  0
  144.4333  135.0483  150.9501 H   0  0  0  0  0  0  0  0  0  0  0  0
  145.5985  136.1388  150.2354 H   0  0  0  0  0  0  0  0  0  0  0  0
  147.2892  134.3935  150.1119 H   0  0  0  0  0  0  0  0  0  0  0  0
  145.8880  133.9605  149.2094 H   0  0  0  0  0  0  0  0  0  0  0  0
  147.0215  135.7390  152.1157 H   0  0  0  0  0  0  0  0  0  0  0  0
  1  2  1  0  0  0  0
  1 24  1  0  0  0  0
  1 25  1  0  0  0  0
  1 26  1  0  0  0  0
  2  3  1  0  0  0  0
  2  4  1  0  0  0  0
  3 27  1  0  0  0  0
  3 28  1  0  0  0  0
  3 29  1  0  0  0  0
  4 23  1  0  0  0  0
  4  5  1  0  0  0  0
  4 30  1  0  0  0  0
  5  6  1  0  0  0  0
  5 31  1  0  0  0  0
  5 32  1  0  0  0  0
  6  7  1  0  0  0  0
  6 33  1  0  0  0  0
  6 34  1  0  0  0  0
  7  8  1  0  0  0  0
  7 22  1  0  0  0  0
  7 53  1  0  0  0  0
  8  9  1  0  0  0  0
  8 10  1  0  0  0  0
  8 11  1  0  0  0  0
  9 35  1  0  0  0  0
  9 36  1  0  0  0  0
  9 37  1  0  0  0  0
 10 38  1  0  0  0  0
 10 39  1  0  0  0  0
 10 40  1  0  0  0  0
 11 12  1  0  0  0  0
 11 41  1  0  0  0  0
 11 42  1  0  0  0  0
 12 13  1  0  0  0  0
 12 43  1  0  0  0  0
 13 14  2  0  0  0  0
 13 15  1  0  0  0  0
 15 16  1  0  0  0  0
 15 44  1  0  0  0  0
 16 21  1  0  0  0  0
 16 17  2  0  0  0  0
 17 18  1  0  0  0  0
 17 45  1  0  0  0  0
 18 19  2  0  0  0  0
 18 46  1  0  0  0  0
 19 20  1  0  0  0  0
 19 47  1  0  0  0  0
 20 21  2  0  0  0  0
 21 48  1  0  0  0  0
 22 23  1  0  0  0  0
 22 49  1  0  0  0  0
 22 50  1  0  0  0  0
 23 51  1  0  0  0  0
 23 52  1  0  0  0  0
M  CHG  1   7   1
M  END
> <s_m_source_file>
AV-unprocessed.smi

> <i_m_source_file_index>
2668

> <i_lp_mmshare_version>
43012

> <i_f3d_flags>
0

> <s_epik_input>
W0NIM11OKFtDSDNdKVtDSF0xW0NIMl1bQ0gyXU4oW0NIMl1bQ0gyXTEpQyhbQ0gzXSkoW0NIM10pW0NIMl1bTkhdQyg9TylbTkhdYzJbY0hdW2NIXVtjSF1uW2NIXTI=

> <s_epik_cmdline>
J2VwaWtfcHl0aG9uJywgJy1waCcsICc3LjAnLCAnLXRuJywgJzgnLCAnLW1hJywgJzIwMCcsICctbWV0YWxfYmluZGluZycsICctaW1hZScsICc8aW5maWxlLm1hZT4nLCAnLW9tYWUnLCAnPG91dGZpbGUubWFlPic=

> <r_epik_Ionization_Penalty>
1.32573

> <r_epik_Ionization_Penalty_Charging>
0.00219175

> <r_epik_Ionization_Penalty_Neutral>
1.32353

> <r_epik_State_Penalty>
1.51166

> <r_epik_Charging_Adjusted_Penalty>
1.51385

> <i_epik_Tot_Q>
1

> <i_epik_Tot_abs_Q>
1

> <r_epik_Metal_State_Penalty>
1.51178

> <b_epik_Metal_Only>
0

> <s_lp_Force_Field>
OPLS_2005

> <r_lp_Energy>
39.6139

> <b_lp_Chiralities_Consistent>
1

> <s_lp_Variant>
AV-unprocessed.smi:2668-5

> <Gold.Version>
5.8.1

> <Gold.Id.Protein>
6NUR|6NUR_protein|mol2

> <Gold.PLP.Fitness>
42.9079

> <Gold.PLP.PLP>
-34.6939

> <Gold.PLP.part.hbond>
-4.4743

> <Gold.PLP.part.metal>
0.0000

> <Gold.PLP.part.buried>
-2.4703

> <Gold.PLP.part.nonpolar>
-28.1179

> <Gold.PLP.part.repulsive>
0.3700

> <Gold.PLP.ligand.clash>
0.3017

> <Gold.PLP.ligand.torsion>
1.6673

> <Gold.PLP.Chemscore.Hbond>
3.9100

> <Gold.PLP.Chemscore.CHOScore>
0.0000

> <Gold.PLP.Chemscore.Metal>
0.0000

> <Gold.Chemscore.Hbonds>
donor molecule, donor type, donor heavy atom, donor atom, acceptor molecule, acceptor atom, score
      L1  H     7    53       P1  7948  2.00
      L1  H    12    43       P1  7948  1.00
      P1  H  7997  8010       L1    20  0.63

> <Gold.PLP.Chemscore.Internal.Correction>
0.1203

> <Gold.Rescore>
     Score         DG    S(hbond)    S(metal)    S(lipo)     H(rot)  DE(clash)    DE(int)     intcor
     16.07     -20.78       2.56        0.00      93.25       1.62       1.98       2.73       ----

> <Gold.Chemscore.Fitness>
16.0745

> <Gold.Chemscore.DG>
-20.7813

> <Gold.Chemscore.ZeroCoef>
-5.4800

> <Gold.Chemscore.Hbond>
2.5584

> <Gold.Chemscore.Metal>
0.0000

> <Gold.Chemscore.Lipo>
93.2530

> <Gold.Chemscore.Internal_Hbond>
0.0000

> <Gold.Chemscore.DEClash>
1.9771

> <Gold.Chemscore.DEInternal>
2.7297

> <Gold.Chemscore.Rot>
1.6228

> <Gold.Chemscore.Internal.Correction>
   9.000000E+99

> <Gold.Chemscore.Hbonds>
donor molecule, donor type, donor heavy atom, donor atom, acceptor molecule, acceptor atom, score
      L1  H     7    53       P1  7948  0.97
      L1  H    12    43       P1  7948  0.99
      P1  H  7997  8010       L1    20  0.14

> <Gold.Chemscore.Hbond.Weighted>
-8.5452

> <Gold.Chemscore.Metal.Weighted>
-0.0000

> <Gold.Chemscore.Lipo.Weighted>
-10.9106

> <Gold.Chemscore.Internal_Hbond.Weighted>
0.0000

> <Gold.Chemscore.DEClash.Weighted>
1.9771

> <Gold.Chemscore.DEInternal.Weighted>
2.7297

> <Gold.Chemscore.Rot.Weighted>
4.1545

> <Gold.Chemscore.Internal.Correction.Weighted>
   9.000000E+99

> <Gold.Protein.RotatedTorsions>
[ 6907 6896 6895 6894 ] final  176.75 input  -60.11 | X-H torsion
[ 7974 7965 7964 7962 ] final  109.74 input  175.53 | X-H torsion
[ 8008 7997 7996 7995 ] final   78.45 input   59.86 | X-H torsion
[ 10167 10162 10161 10158 ] final  -72.36 input  -65.29 | X-H torsion
[ 10718 10713 10712 10709 ] final  -48.36 input   66.30 | X-H torsion
[ 10763 10752 10751 10750 ] final   97.99 input  -60.55 | X-H torsion
[ 11005 11000 10999 10996 ] final  111.34 input  -57.11 | X-H torsion

> <Gold.Protein.ActiveResidues>
 VAL166  LYS551  ARG553  GLY616  TRP617  ASP618  TYR619  PRO620  LYS621  CYS622 
 ASP623  PHE694  ASN695  SER759  ASP760  ASP761  ALA762  ILE779  LEU786  VAL792 
 PHE793  MET794  SER795  GLU796  ALA797  LYS798  CYS799  TRP800  GLU811  SER814 

> <Gold.Protein.RotatedAtoms>
  151.7150  133.3313  159.3300 H   0  0  0  0  0  0  0  0  0  0  0  0  # atno 6907 bound_to 6896
  150.7677  134.6498  159.6291 H   0  0  0  0  0  0  0  0  0  0  0  0  # atno 6908 bound_to 6896
  152.3687  134.6768  160.0235 H   0  0  0  0  0  0  0  0  0  0  0  0  # atno 6909 bound_to 6896
  145.2640  139.2691  143.4002 H   0  0  0  0  0  0  0  0  0  0  0  0  # atno 7974 bound_to 7965
  155.8559  140.3456  155.5724 H   0  0  0  0  0  0  0  0  0  0  0  0  # atno 8008 bound_to 7997
  155.7987  140.0882  157.1989 H   0  0  0  0  0  0  0  0  0  0  0  0  # atno 8009 bound_to 7997
  154.4009  140.1469  156.3235 H   0  0  0  0  0  0  0  0  0  0  0  0  # atno 8010 bound_to 7997
  140.5198  143.2333  151.7449 H   0  0  0  0  0  0  0  0  0  0  0  0  # atno 10167 bound_to 10162
  156.1995  130.4155  149.9260 H   0  0  0  0  0  0  0  0  0  0  0  0  # atno 10718 bound_to 10713
  153.2836  135.4164  155.1101 H   0  0  0  0  0  0  0  0  0  0  0  0  # atno 10763 bound_to 10752
  154.8497  135.3501  154.6078 H   0  0  0  0  0  0  0  0  0  0  0  0  # atno 10764 bound_to 10752
  153.6499  135.7053  153.5270 H   0  0  0  0  0  0  0  0  0  0  0  0  # atno 10765 bound_to 10752
  139.8901  134.9505  156.6417 H   0  0  0  0  0  0  0  0  0  0  0  0  # atno 11005 bound_to 11000
  146.3267  140.3064  142.8624 LP  0  0  0  0  0  0  0  0  0  0  0  0  # atno 17320 bound_to 7965
  144.9393  140.8061  143.5640 LP  0  0  0  0  0  0  0  0  0  0  0  0  # atno 17321 bound_to 7965
  139.4920  144.4271  151.9914 LP  0  0  0  0  0  0  0  0  0  0  0  0  # atno 17342 bound_to 10162
  140.3367  144.3252  150.5976 LP  0  0  0  0  0  0  0  0  0  0  0  0  # atno 17343 bound_to 10162
  156.6974  130.8920  151.3595 LP  0  0  0  0  0  0  0  0  0  0  0  0  # atno 17370 bound_to 10713
  157.6977  130.9300  150.0693 LP  0  0  0  0  0  0  0  0  0  0  0  0  # atno 17371 bound_to 10713
  140.7588  133.8835  155.8402 LP  0  0  0  0  0  0  0  0  0  0  0  0  # atno 17394 bound_to 11000
  140.9939  134.1241  157.4382 LP  0  0  0  0  0  0  0  0  0  0  0  0  # atno 17395 bound_to 11000

$$$$
