AV-unprocessed.smi:1034|AV-procd|sdf|4514|dock1
  -GOLD-   22720 2523D 1   1.00000     0.00000
 Structure written by MMmdl.
 39 40  0  0  0  0  0  0  0  0  1 V2000
  144.8473  137.2556  152.5949 O   0  0  0  0  0  0  0  0  0  0  0  0
  146.0213  136.9283  152.4193 C   0  0  0  0  0  0  0  0  0  0  0  0
  147.0608  137.7220  152.7141 N   0  0  0  0  0  0  0  0  0  0  0  0
  146.9586  139.0573  153.2904 C   0  0  0  0  0  0  0  0  0  0  0  0
  147.6266  139.1303  154.6733 C   0  0  0  0  0  0  0  0  0  0  0  0
  149.0935  140.2547  154.6676 S   0  0  0  0  0  0  0  0  0  0  0  0
  150.2515  139.4958  154.1707 O   0  0  0  0  0  0  0  0  0  0  0  0
  148.7180  141.5214  154.0199 O   0  0  0  0  0  0  0  0  0  0  0  0
  149.3765  140.5944  156.3537 N   0  0  0  0  0  0  0  0  0  0  0  0
  150.4267  141.5499  156.7663 C   0  0  0  0  0  0  0  0  0  0  0  0
  151.7219  140.8571  157.2201 C   0  0  0  0  0  0  0  0  0  0  0  0
  151.4288  139.7534  158.6250 S   0  0  0  0  0  0  0  0  0  0  0  0
  150.1236  138.7505  157.8733 C   0  0  0  0  0  0  0  0  0  0  0  0
  148.9557  139.6222  157.3814 C   0  0  0  0  0  0  0  0  0  0  0  0
  146.4361  135.7520  151.9166 N   0  0  0  0  0  0  0  0  0  0  0  0
  145.6464  134.6470  151.5011 C   0  0  0  0  0  0  0  0  0  0  0  0
  146.3730  133.5659  150.9530 C   0  0  0  0  0  0  0  0  0  0  0  0
  145.6832  132.4193  150.5141 C   0  0  0  0  0  0  0  0  0  0  0  0
  144.2825  132.3837  150.6329 C   0  0  0  0  0  0  0  0  0  0  0  0
  143.6356  133.5033  151.1880 C   0  0  0  0  0  0  0  0  0  0  0  0
  144.2949  134.6028  151.6105 N   0  0  0  0  0  0  0  0  0  0  0  0
  147.9914  137.3727  152.5375 H   0  0  0  0  0  0  0  0  0  0  0  0
  147.3967  139.7938  152.6144 H   0  0  0  0  0  0  0  0  0  0  0  0
  145.9005  139.3042  153.3697 H   0  0  0  0  0  0  0  0  0  0  0  0
  146.9310  139.4516  155.4439 H   0  0  0  0  0  0  0  0  0  0  0  0
  147.9799  138.1389  154.9580 H   0  0  0  0  0  0  0  0  0  0  0  0
  150.6430  142.2450  155.9562 H   0  0  0  0  0  0  0  0  0  0  0  0
  150.0366  142.1574  157.5838 H   0  0  0  0  0  0  0  0  0  0  0  0
  152.1735  140.2948  156.4051 H   0  0  0  0  0  0  0  0  0  0  0  0
  152.4548  141.6055  157.5214 H   0  0  0  0  0  0  0  0  0  0  0  0
  150.5520  138.1704  157.0577 H   0  0  0  0  0  0  0  0  0  0  0  0
  149.7681  138.0348  158.6145 H   0  0  0  0  0  0  0  0  0  0  0  0
  148.5247  140.1671  158.2220 H   0  0  0  0  0  0  0  0  0  0  0  0
  148.1595  138.9901  156.9888 H   0  0  0  0  0  0  0  0  0  0  0  0
  147.4340  135.6285  151.8301 H   0  0  0  0  0  0  0  0  0  0  0  0
  147.4494  133.6087  150.8695 H   0  0  0  0  0  0  0  0  0  0  0  0
  146.2203  131.5816  150.0946 H   0  0  0  0  0  0  0  0  0  0  0  0
  143.7184  131.5220  150.3079 H   0  0  0  0  0  0  0  0  0  0  0  0
  142.5612  133.5164  151.2967 H   0  0  0  0  0  0  0  0  0  0  0  0
  1  2  2  0  0  0  0
  2  3  1  0  0  0  0
  2 15  1  0  0  0  0
  3  4  1  0  0  0  0
  3 22  1  0  0  0  0
  4  5  1  0  0  0  0
  4 23  1  0  0  0  0
  4 24  1  0  0  0  0
  5  6  1  0  0  0  0
  5 25  1  0  0  0  0
  5 26  1  0  0  0  0
  6  7  2  0  0  0  0
  6  8  2  0  0  0  0
  6  9  1  0  0  0  0
  9 14  1  0  0  0  0
  9 10  1  0  0  0  0
 10 11  1  0  0  0  0
 10 27  1  0  0  0  0
 10 28  1  0  0  0  0
 11 12  1  0  0  0  0
 11 29  1  0  0  0  0
 11 30  1  0  0  0  0
 12 13  1  0  0  0  0
 13 14  1  0  0  0  0
 13 31  1  0  0  0  0
 13 32  1  0  0  0  0
 14 33  1  0  0  0  0
 14 34  1  0  0  0  0
 15 16  1  0  0  0  0
 15 35  1  0  0  0  0
 16 21  1  0  0  0  0
 16 17  2  0  0  0  0
 17 18  1  0  0  0  0
 17 36  1  0  0  0  0
 18 19  2  0  0  0  0
 18 37  1  0  0  0  0
 19 20  1  0  0  0  0
 19 38  1  0  0  0  0
 20 21  2  0  0  0  0
 20 39  1  0  0  0  0
M  END
> <s_m_source_file>
AV-unprocessed.smi

> <i_m_source_file_index>
1034

> <i_lp_mmshare_version>
43012

> <i_f3d_flags>
0

> <s_epik_input>
bjFbY0hdW2NIXVtjSF1bY0hdYzFbTkhdQyg9TylbTkhdW0NIMl1bQ0gyXVMoPU8pKD1PKU4yW0NIMl1bQ0gyXVNbQ0gyXVtDSDJdMg==

> <s_epik_cmdline>
J2VwaWtfcHl0aG9uJywgJy1waCcsICc3LjAnLCAnLXRuJywgJzgnLCAnLW1hJywgJzIwMCcsICctbWV0YWxfYmluZGluZycsICctaW1hZScsICc8aW5maWxlLm1hZT4nLCAnLW9tYWUnLCAnPG91dGZpbGUubWFlPic=

> <r_lp_tautomer_probability>
1

> <r_epik_Ionization_Penalty>
3.90463e-05

> <r_epik_Ionization_Penalty_Charging>
0

> <r_epik_Ionization_Penalty_Neutral>
3.90463e-05

> <r_epik_State_Penalty>
-0

> <r_epik_Charging_Adjusted_Penalty>
0

> <i_epik_Tot_Q>
0

> <i_epik_Tot_abs_Q>
0

> <r_epik_Metal_State_Penalty>
-0

> <b_epik_Metal_Only>
0

> <s_lp_Force_Field>
OPLS_2005

> <r_lp_Energy>
-0.604615

> <b_lp_Chiralities_Consistent>
1

> <s_lp_Variant>
AV-unprocessed.smi:1034-1

> <Gold.Version>
5.8.1

> <Gold.Id.Protein>
6NUR|6NUR_protein|mol2

> <Gold.PLP.Fitness>
44.3533

> <Gold.PLP.PLP>
-32.2078

> <Gold.PLP.part.hbond>
-3.9822

> <Gold.PLP.part.metal>
0.0000

> <Gold.PLP.part.buried>
-6.8697

> <Gold.PLP.part.nonpolar>
-24.0643

> <Gold.PLP.part.repulsive>
2.0649

> <Gold.PLP.ligand.clash>
0.0000

> <Gold.PLP.ligand.torsion>
1.9288

> <Gold.PLP.Chemscore.Hbond>
3.6320

> <Gold.PLP.Chemscore.CHOScore>
0.9700

> <Gold.PLP.Chemscore.Metal>
0.0000

> <Gold.Chemscore.Hbonds>
donor molecule, donor type, donor heavy atom, donor atom, acceptor molecule, acceptor atom, score
      L1  H     3    22       P1  7948  0.98
      L1  H    15    35       P1  7948  1.00
      P1  H  7989  7998       L1     7  0.94
      P1  H  8011  8017       L1     8  0.39
      L1  C    20    39       P1 10186  0.88

> <Gold.PLP.Chemscore.Internal.Correction>
2.1971

> <Gold.Rescore>
     Score         DG    S(hbond)    S(metal)    S(lipo)     H(rot)  DE(clash)    DE(int)     intcor
     16.12     -19.74       3.26        0.00      64.45       1.63       0.34       3.28       ----

> <Gold.Chemscore.Fitness>
16.1230

> <Gold.Chemscore.DG>
-19.7442

> <Gold.Chemscore.ZeroCoef>
-5.4800

> <Gold.Chemscore.Hbond>
3.2634

> <Gold.Chemscore.Metal>
0.0000

> <Gold.Chemscore.Lipo>
64.4494

> <Gold.Chemscore.Internal_Hbond>
0.0000

> <Gold.Chemscore.DEClash>
0.3399

> <Gold.Chemscore.DEInternal>
3.2814

> <Gold.Chemscore.Rot>
1.6313

> <Gold.Chemscore.Internal.Correction>
   9.000000E+99

> <Gold.Chemscore.Hbonds>
donor molecule, donor type, donor heavy atom, donor atom, acceptor molecule, acceptor atom, score
      L1  H     3    22       P1  7948  0.93
      L1  H    15    35       P1  7948  0.95
      P1  H  7989  7998       L1     7  0.54
      P1  H  8011  8017       L1     8  0.40

> <Gold.Chemscore.Hbond.Weighted>
-10.8998

> <Gold.Chemscore.Metal.Weighted>
-0.0000

> <Gold.Chemscore.Lipo.Weighted>
-7.5406

> <Gold.Chemscore.Internal_Hbond.Weighted>
0.0000

> <Gold.Chemscore.DEClash.Weighted>
0.3399

> <Gold.Chemscore.DEInternal.Weighted>
3.2814

> <Gold.Chemscore.Rot.Weighted>
4.1761

> <Gold.Chemscore.Internal.Correction.Weighted>
   9.000000E+99

> <Gold.Protein.RotatedTorsions>
[ 6907 6896 6895 6894 ] final -134.21 input  -60.11 | X-H torsion
[ 7974 7965 7964 7962 ] final  -29.59 input  175.53 | X-H torsion
[ 8008 7997 7996 7995 ] final -151.23 input   59.86 | X-H torsion
[ 10167 10162 10161 10158 ] final -176.56 input  -65.29 | X-H torsion
[ 10718 10713 10712 10709 ] final -100.46 input   66.30 | X-H torsion
[ 10763 10752 10751 10750 ] final  158.74 input  -60.55 | X-H torsion
[ 11005 11000 10999 10996 ] final -161.30 input  -57.11 | X-H torsion

> <Gold.Protein.ActiveResidues>
 VAL166  LYS551  ARG553  GLY616  TRP617  ASP618  TYR619  PRO620  LYS621  CYS622 
 ASP623  PHE694  ASN695  SER759  ASP760  ASP761  ALA762  ILE779  LEU786  VAL792 
 PHE793  MET794  SER795  GLU796  ALA797  LYS798  CYS799  TRP800  GLU811  SER814 

> <Gold.Protein.RotatedAtoms>
  150.9832  133.6224  159.2719 H   0  0  0  0  0  0  0  0  0  0  0  0  # atno 6907 bound_to 6896
  151.3472  135.0875  159.9400 H   0  0  0  0  0  0  0  0  0  0  0  0  # atno 6908 bound_to 6896
  152.5222  133.9431  159.7690 H   0  0  0  0  0  0  0  0  0  0  0  0  # atno 6909 bound_to 6896
  146.1205  140.5431  142.8737 H   0  0  0  0  0  0  0  0  0  0  0  0  # atno 7974 bound_to 7965
  155.6361  140.0696  157.2633 H   0  0  0  0  0  0  0  0  0  0  0  0  # atno 8008 bound_to 7997
  154.4194  140.1759  156.1573 H   0  0  0  0  0  0  0  0  0  0  0  0  # atno 8009 bound_to 7997
  155.9893  140.3346  155.6741 H   0  0  0  0  0  0  0  0  0  0  0  0  # atno 8010 bound_to 7997
  139.5524  144.2076  152.1100 H   0  0  0  0  0  0  0  0  0  0  0  0  # atno 10167 bound_to 10162
  156.0164  130.5329  150.6820 H   0  0  0  0  0  0  0  0  0  0  0  0  # atno 10718 bound_to 10713
  154.2207  135.2782  155.2925 H   0  0  0  0  0  0  0  0  0  0  0  0  # atno 10763 bound_to 10752
  154.5704  135.5620  153.7093 H   0  0  0  0  0  0  0  0  0  0  0  0  # atno 10764 bound_to 10752
  153.0042  135.6320  154.2347 H   0  0  0  0  0  0  0  0  0  0  0  0  # atno 10765 bound_to 10752
  140.6220  134.4741  157.5224 H   0  0  0  0  0  0  0  0  0  0  0  0  # atno 11005 bound_to 11000
  144.7593  140.5384  143.6747 LP  0  0  0  0  0  0  0  0  0  0  0  0  # atno 17320 bound_to 7965
  145.5475  139.1476  143.3413 LP  0  0  0  0  0  0  0  0  0  0  0  0  # atno 17321 bound_to 7965
  140.1574  144.5058  150.6652 LP  0  0  0  0  0  0  0  0  0  0  0  0  # atno 17342 bound_to 10162
  140.6789  143.2317  151.5435 LP  0  0  0  0  0  0  0  0  0  0  0  0  # atno 17343 bound_to 10162
  157.4520  131.0873  151.0836 LP  0  0  0  0  0  0  0  0  0  0  0  0  # atno 17370 bound_to 10713
  157.1348  130.6118  149.5539 LP  0  0  0  0  0  0  0  0  0  0  0  0  # atno 17371 bound_to 10713
  139.9150  134.8266  156.1398 LP  0  0  0  0  0  0  0  0  0  0  0  0  # atno 17394 bound_to 11000
  141.0736  133.6785  156.2190 LP  0  0  0  0  0  0  0  0  0  0  0  0  # atno 17395 bound_to 11000

$$$$
