AV-unprocessed.smi:2862|AV-procd|sdf|11009|dock7
  -GOLD-   2272015473D 1   1.00000     0.00000
 Structure written by MMmdl.
 52 54  0  0  0  0  0  0  0  0  1 V2000
  152.4743  143.2282  161.9210 C   0  0  0  0  0  0  0  0  0  0  0  0
  152.9185  143.0879  160.4548 C   0  0  1  0  0  0  0  0  0  0  0  0
  153.2142  141.6947  160.1241 N   0  0  0  0  0  0  0  0  0  0  0  0
  152.4389  140.8340  159.4386 C   0  0  0  0  0  0  0  0  0  0  0  0
  151.3364  141.1378  158.9856 O   0  0  0  0  0  0  0  0  0  0  0  0
  152.9614  139.4032  159.2170 C   0  0  0  0  0  0  0  0  0  0  0  0
  152.1294  138.5646  158.3335 N   0  0  0  0  0  0  0  0  0  0  0  0
  151.9269  139.0352  157.0208 C   0  0  0  0  0  0  0  0  0  0  0  0
  151.1943  138.3574  156.1244 C   0  0  0  0  0  0  0  0  0  0  0  0
  150.6000  137.1081  156.5311 C   0  0  0  0  0  0  0  0  0  0  0  0
  150.8128  136.6287  157.7780 C   0  0  0  0  0  0  0  0  0  0  0  0
  150.1848  135.3909  158.2593 C   0  0  0  0  0  0  0  0  0  0  0  0
  150.5815  134.2738  157.9211 O   0  0  0  0  0  0  0  0  0  0  0  0
  149.1523  135.5481  159.1379 N   0  0  0  0  0  0  0  0  0  0  0  0
  148.3638  136.7872  159.2504 C   0  0  0  0  0  0  0  0  0  0  0  0
  148.6082  134.4325  159.9434 C   0  0  2  0  0  0  0  0  0  0  0  0
  147.1662  134.0757  159.5296 C   0  0  0  0  0  0  0  0  0  0  0  0
  148.7180  134.6222  161.4509 C   0  0  0  0  0  0  0  0  0  0  0  0
  147.9762  133.7217  162.4091 C   0  0  0  0  0  0  0  0  0  0  0  0
  147.5589  135.1666  162.2508 C   0  0  0  0  0  0  0  0  0  0  0  0
  151.6035  137.3805  158.7795 C   0  0  0  0  0  0  0  0  0  0  0  0
  151.8149  136.9894  159.9309 O   0  0  0  0  0  0  0  0  0  0  0  0
  151.9524  143.7787  159.5043 C   0  0  0  0  0  0  0  0  0  0  0  0
  152.4569  144.6423  158.3736 C   0  0  0  0  0  0  0  0  0  0  0  0
  151.7509  145.2742  159.5529 C   0  0  0  0  0  0  0  0  0  0  0  0
  152.3910  144.2781  162.2030 H   0  0  0  0  0  0  0  0  0  0  0  0
  153.1934  142.7638  162.5966 H   0  0  0  0  0  0  0  0  0  0  0  0
  151.5033  142.7645  162.0963 H   0  0  0  0  0  0  0  0  0  0  0  0
  153.8753  143.6036  160.3659 H   0  0  0  0  0  0  0  0  0  0  0  0
  154.1026  141.3452  160.4527 H   0  0  0  0  0  0  0  0  0  0  0  0
  153.9809  139.4632  158.8318 H   0  0  0  0  0  0  0  0  0  0  0  0
  153.0635  138.9308  160.1949 H   0  0  0  0  0  0  0  0  0  0  0  0
  152.4090  139.9741  156.7897 H   0  0  0  0  0  0  0  0  0  0  0  0
  151.0558  138.7357  155.1223 H   0  0  0  0  0  0  0  0  0  0  0  0
  149.9754  136.5710  155.8317 H   0  0  0  0  0  0  0  0  0  0  0  0
  148.3901  137.3914  158.3427 H   0  0  0  0  0  0  0  0  0  0  0  0
  148.7264  137.3942  160.0803 H   0  0  0  0  0  0  0  0  0  0  0  0
  147.3087  136.5781  159.4299 H   0  0  0  0  0  0  0  0  0  0  0  0
  149.1857  133.5374  159.7057 H   0  0  0  0  0  0  0  0  0  0  0  0
  146.8467  133.1485  160.0060 H   0  0  0  0  0  0  0  0  0  0  0  0
  147.0918  133.9298  158.4515 H   0  0  0  0  0  0  0  0  0  0  0  0
  146.4483  134.8445  159.8140 H   0  0  0  0  0  0  0  0  0  0  0  0
  149.6976  134.9581  161.7845 H   0  0  0  0  0  0  0  0  0  0  0  0
  147.3196  132.9623  161.9898 H   0  0  0  0  0  0  0  0  0  0  0  0
  148.4857  133.4413  163.3287 H   0  0  0  0  0  0  0  0  0  0  0  0
  147.7893  135.8501  163.0655 H   0  0  0  0  0  0  0  0  0  0  0  0
  146.6265  135.3643  161.7259 H   0  0  0  0  0  0  0  0  0  0  0  0
  151.0547  143.2008  159.2930 H   0  0  0  0  0  0  0  0  0  0  0  0
  153.5314  144.7935  158.2915 H   0  0  0  0  0  0  0  0  0  0  0  0
  151.9186  144.5954  157.4291 H   0  0  0  0  0  0  0  0  0  0  0  0
  150.7427  145.6509  159.3923 H   0  0  0  0  0  0  0  0  0  0  0  0
  152.3567  145.8461  160.2530 H   0  0  0  0  0  0  0  0  0  0  0  0
  1  2  1  0  0  0  0
  1 26  1  0  0  0  0
  1 27  1  0  0  0  0
  1 28  1  0  0  0  0
  2  3  1  0  0  0  0
  2 23  1  0  0  0  0
  2 29  1  0  0  0  0
  3  4  1  0  0  0  0
  3 30  1  0  0  0  0
  4  5  2  0  0  0  0
  4  6  1  0  0  0  0
  6  7  1  0  0  0  0
  6 31  1  0  0  0  0
  6 32  1  0  0  0  0
  7 21  1  0  0  0  0
  7  8  1  0  0  0  0
  8  9  2  0  0  0  0
  8 33  1  0  0  0  0
  9 10  1  0  0  0  0
  9 34  1  0  0  0  0
 10 11  2  0  0  0  0
 10 35  1  0  0  0  0
 11 12  1  0  0  0  0
 11 21  1  0  0  0  0
 12 13  2  0  0  0  0
 12 14  1  0  0  0  0
 14 15  1  0  0  0  0
 14 16  1  0  0  0  0
 15 36  1  0  0  0  0
 15 37  1  0  0  0  0
 15 38  1  0  0  0  0
 16 17  1  0  0  0  0
 16 18  1  0  0  0  0
 16 39  1  0  0  0  0
 17 40  1  0  0  0  0
 17 41  1  0  0  0  0
 17 42  1  0  0  0  0
 18 20  1  0  0  0  0
 18 19  1  0  0  0  0
 18 43  1  0  0  0  0
 19 20  1  0  0  0  0
 19 44  1  0  0  0  0
 19 45  1  0  0  0  0
 20 46  1  0  0  0  0
 20 47  1  0  0  0  0
 21 22  2  0  0  0  0
 23 25  1  0  0  0  0
 23 24  1  0  0  0  0
 23 48  1  0  0  0  0
 24 25  1  0  0  0  0
 24 49  1  0  0  0  0
 24 50  1  0  0  0  0
 25 51  1  0  0  0  0
 25 52  1  0  0  0  0
M  END
> <s_m_source_file>
AV-unprocessed.smi

> <i_m_source_file_index>
2862

> <i_lp_mmshare_version>
43012

> <i_f3d_flags>
0

> <s_epik_input>
W0NIMl0xW0NIMl1bQ0hdMVtDQEhdKFtDSDNdKVtOSF1DKD1PKVtDSDJdbjJbY0hdW2NIXVtjSF1jKGMyPU8pQyg9TylOKFtDSDNdKVtDQEhdKFtDSDNdKVtDSF0zW0NIMl1bQ0gyXTM=

> <s_epik_cmdline>
J2VwaWtfcHl0aG9uJywgJy1waCcsICc3LjAnLCAnLXRuJywgJzgnLCAnLW1hJywgJzIwMCcsICctbWV0YWxfYmluZGluZycsICctaW1hZScsICc8aW5maWxlLm1hZT4nLCAnLW9tYWUnLCAnPG91dGZpbGUubWFlPic=

> <r_lp_tautomer_probability>
1

> <r_epik_Ionization_Penalty>
4.00841e-08

> <r_epik_Ionization_Penalty_Charging>
2.07773e-08

> <r_epik_Ionization_Penalty_Neutral>
1.93069e-08

> <r_epik_State_Penalty>
-0

> <r_epik_Charging_Adjusted_Penalty>
2.07773e-08

> <i_epik_Tot_Q>
0

> <i_epik_Tot_abs_Q>
0

> <r_epik_Metal_State_Penalty>
-0

> <b_epik_Metal_Only>
0

> <s_lp_Force_Field>
OPLS_2005

> <r_lp_Energy>
60.0482

> <b_lp_Chiralities_Consistent>
1

> <s_lp_Variant>
AV-unprocessed.smi:2862-2

> <Gold.Version>
5.8.1

> <Gold.Id.Protein>
6NUR|6NUR_protein|mol2

> <Gold.PLP.Fitness>
51.7568

> <Gold.PLP.PLP>
-47.5344

> <Gold.PLP.part.hbond>
-2.0000

> <Gold.PLP.part.metal>
0.0000

> <Gold.PLP.part.buried>
-6.6048

> <Gold.PLP.part.nonpolar>
-39.4855

> <Gold.PLP.part.repulsive>
0.0882

> <Gold.PLP.ligand.clash>
0.0000

> <Gold.PLP.ligand.torsion>
3.0637

> <Gold.PLP.Chemscore.Hbond>
2.0000

> <Gold.PLP.Chemscore.CHOScore>
0.0000

> <Gold.PLP.Chemscore.Metal>
0.0000

> <Gold.Chemscore.Hbonds>
donor molecule, donor type, donor heavy atom, donor atom, acceptor molecule, acceptor atom, score
      P1  H  6896  6908       L1    13  0.21
      P1  H  6896  6909       L1    22  1.00

> <Gold.PLP.Chemscore.Internal.Correction>
4.3499

> <Gold.Rescore>
     Score         DG    S(hbond)    S(metal)    S(lipo)     H(rot)  DE(clash)    DE(int)     intcor
     16.11     -20.70       1.66        0.00     120.52       1.73       0.09       4.49       ----

> <Gold.Chemscore.Fitness>
16.1089

> <Gold.Chemscore.DG>
-20.6964

> <Gold.Chemscore.ZeroCoef>
-5.4800

> <Gold.Chemscore.Hbond>
1.6636

> <Gold.Chemscore.Metal>
0.0000

> <Gold.Chemscore.Lipo>
120.5234

> <Gold.Chemscore.Internal_Hbond>
0.0000

> <Gold.Chemscore.DEClash>
0.0948

> <Gold.Chemscore.DEInternal>
4.4927

> <Gold.Chemscore.Rot>
1.7348

> <Gold.Chemscore.Internal.Correction>
   9.000000E+99

> <Gold.Chemscore.Hbonds>
donor molecule, donor type, donor heavy atom, donor atom, acceptor molecule, acceptor atom, score
      P1  H  6896  6908       L1    13  0.01
      P1  H  6896  6909       L1    22  0.78

> <Gold.Chemscore.Hbond.Weighted>
-5.5563

> <Gold.Chemscore.Metal.Weighted>
-0.0000

> <Gold.Chemscore.Lipo.Weighted>
-14.1012

> <Gold.Chemscore.Internal_Hbond.Weighted>
0.0000

> <Gold.Chemscore.DEClash.Weighted>
0.0948

> <Gold.Chemscore.DEInternal.Weighted>
4.4927

> <Gold.Chemscore.Rot.Weighted>
4.4412

> <Gold.Chemscore.Internal.Correction.Weighted>
   9.000000E+99

> <Gold.Protein.RotatedTorsions>
[ 6907 6896 6895 6894 ] final  127.41 input  -60.11 | X-H torsion
[ 7974 7965 7964 7962 ] final  118.60 input  175.53 | X-H torsion
[ 8008 7997 7996 7995 ] final   50.11 input   59.86 | X-H torsion
[ 10167 10162 10161 10158 ] final  -33.73 input  -65.29 | X-H torsion
[ 10718 10713 10712 10709 ] final   49.23 input   66.30 | X-H torsion
[ 10763 10752 10751 10750 ] final   20.33 input  -60.55 | X-H torsion
[ 11005 11000 10999 10996 ] final  -13.78 input  -57.11 | X-H torsion

> <Gold.Protein.ActiveResidues>
 VAL166  LYS551  ARG553  GLY616  TRP617  ASP618  TYR619  PRO620  LYS621  CYS622 
 ASP623  PHE694  ASN695  SER759  ASP760  ASP761  ALA762  ILE779  LEU786  VAL792 
 PHE793  MET794  SER795  GLU796  ALA797  LYS798  CYS799  TRP800  GLU811  SER814 

> <Gold.Protein.RotatedAtoms>
  152.3815  133.6552  159.6164 H   0  0  0  0  0  0  0  0  0  0  0  0  # atno 6907 bound_to 6896
  150.7744  133.9106  159.3377 H   0  0  0  0  0  0  0  0  0  0  0  0  # atno 6908 bound_to 6896
  151.6911  135.0947  160.0285 H   0  0  0  0  0  0  0  0  0  0  0  0  # atno 6909 bound_to 6896
  145.1532  139.3198  143.4556 H   0  0  0  0  0  0  0  0  0  0  0  0  # atno 7974 bound_to 7965
  155.4134  140.3443  155.4265 H   0  0  0  0  0  0  0  0  0  0  0  0  # atno 8008 bound_to 7997
  156.1436  140.1549  156.8914 H   0  0  0  0  0  0  0  0  0  0  0  0  # atno 8009 bound_to 7997
  154.4991  140.0819  156.7741 H   0  0  0  0  0  0  0  0  0  0  0  0  # atno 8010 bound_to 7997
  140.7199  143.3599  151.1984 H   0  0  0  0  0  0  0  0  0  0  0  0  # atno 10167 bound_to 10162
  157.4766  130.8289  149.8046 H   0  0  0  0  0  0  0  0  0  0  0  0  # atno 10718 bound_to 10713
  153.1086  135.6691  153.9541 H   0  0  0  0  0  0  0  0  0  0  0  0  # atno 10763 bound_to 10752
  153.9091  135.3027  155.3450 H   0  0  0  0  0  0  0  0  0  0  0  0  # atno 10764 bound_to 10752
  154.7507  135.5036  153.9360 H   0  0  0  0  0  0  0  0  0  0  0  0  # atno 10765 bound_to 10752
  140.7796  133.8373  155.9280 H   0  0  0  0  0  0  0  0  0  0  0  0  # atno 11005 bound_to 11000
  146.3492  140.1614  142.8591 LP  0  0  0  0  0  0  0  0  0  0  0  0  # atno 17320 bound_to 7965
  145.0409  140.8944  143.5053 LP  0  0  0  0  0  0  0  0  0  0  0  0  # atno 17321 bound_to 7965
  139.7148  143.9318  152.2962 LP  0  0  0  0  0  0  0  0  0  0  0  0  # atno 17342 bound_to 10162
  139.9055  144.6887  150.8619 LP  0  0  0  0  0  0  0  0  0  0  0  0  # atno 17343 bound_to 10162
  156.0100  130.3837  150.2298 LP  0  0  0  0  0  0  0  0  0  0  0  0  # atno 17370 bound_to 10713
  157.0482  131.0055  151.3262 LP  0  0  0  0  0  0  0  0  0  0  0  0  # atno 17371 bound_to 10713
  140.9495  134.1797  157.4738 LP  0  0  0  0  0  0  0  0  0  0  0  0  # atno 17394 bound_to 11000
  139.8744  134.9903  156.5498 LP  0  0  0  0  0  0  0  0  0  0  0  0  # atno 17395 bound_to 11000

$$$$
