AV-unprocessed.smi:1208|AV-procd|sdf|5061|dock10
  -GOLD-   22720 4103D 1   1.00000     0.00000
 Structure written by MMmdl.
 35 36  0  0  0  0  0  0  0  0  2 V2000
  152.9291  139.2758  158.6251 C   0  0  0  0  0  0  0  0  0  0  0  0
  151.6899  140.0051  159.1671 C   0  0  2  0  0  0  0  0  0  0  0  0
  150.5051  139.2140  158.8413 N   0  0  0  0  0  0  0  0  0  0  0  0
  150.3004  137.9264  159.1610 C   0  0  0  0  0  0  0  0  0  0  0  0
  151.1180  137.2458  159.7830 O   0  0  0  0  0  0  0  0  0  0  0  0
  148.9584  137.3385  158.6953 C   0  0  0  0  0  0  0  0  0  0  0  0
  148.2752  136.5119  159.7016 N   0  0  0  0  0  0  0  0  0  0  0  0
  147.8186  137.2619  160.8689 N   0  5  0  0  0  0  0  0  0  0  0  0
  147.1623  136.6059  161.8624 C   0  0  0  0  0  0  0  0  0  0  0  0
  146.7383  137.1712  162.8679 O   0  0  0  0  0  0  0  0  0  0  0  0
  146.9624  135.1731  161.7208 C   0  0  0  0  0  0  0  0  0  0  0  0
  147.4135  134.5029  160.6422 C   0  0  0  0  0  0  0  0  0  0  0  0
  148.1212  135.1651  159.5531 C   0  0  0  0  0  0  0  0  0  0  0  0
  148.5466  134.5572  158.5705 O   0  0  0  0  0  0  0  0  0  0  0  0
  151.5409  141.4251  158.5840 C   0  0  2  0  0  0  0  0  0  0  0  0
  152.7171  142.3601  158.8761 C   0  0  0  0  0  0  0  0  0  0  0  0
  152.0627  143.7187  158.7849 C   0  0  0  0  0  0  0  0  0  0  0  0
  150.7095  143.4479  159.4325 C   0  0  0  0  0  0  0  0  0  0  0  0
  150.4077  142.0848  159.1480 O   0  0  0  0  0  0  0  0  0  0  0  0
  153.8471  139.8039  158.8827 H   0  0  0  0  0  0  0  0  0  0  0  0
  152.8920  139.1825  157.5392 H   0  0  0  0  0  0  0  0  0  0  0  0
  153.0056  138.2715  159.0432 H   0  0  0  0  0  0  0  0  0  0  0  0
  151.8011  140.0875  160.2496 H   0  0  0  0  0  0  0  0  0  0  0  0
  149.7731  139.6873  158.3322 H   0  0  0  0  0  0  0  0  0  0  0  0
  148.3054  138.1570  158.3877 H   0  0  0  0  0  0  0  0  0  0  0  0
  149.1382  136.7545  157.7905 H   0  0  0  0  0  0  0  0  0  0  0  0
  146.4425  134.6340  162.4989 H   0  0  0  0  0  0  0  0  0  0  0  0
  147.2437  133.4383  160.5794 H   0  0  0  0  0  0  0  0  0  0  0  0
  151.3868  141.3755  157.5047 H   0  0  0  0  0  0  0  0  0  0  0  0
  153.0976  142.1986  159.8859 H   0  0  0  0  0  0  0  0  0  0  0  0
  153.5432  142.2381  158.1752 H   0  0  0  0  0  0  0  0  0  0  0  0
  152.6277  144.5043  159.2870 H   0  0  0  0  0  0  0  0  0  0  0  0
  151.9315  144.0024  157.7397 H   0  0  0  0  0  0  0  0  0  0  0  0
  150.7749  143.5677  160.5145 H   0  0  0  0  0  0  0  0  0  0  0  0
  149.9300  144.1149  159.0639 H   0  0  0  0  0  0  0  0  0  0  0  0
  1  2  1  0  0  0  0
  1 20  1  0  0  0  0
  1 21  1  0  0  0  0
  1 22  1  0  0  0  0
  2  3  1  0  0  0  0
  2 15  1  0  0  0  0
  2 23  1  0  0  0  0
  3  4  1  0  0  0  0
  3 24  1  0  0  0  0
  4  5  2  0  0  0  0
  4  6  1  0  0  0  0
  6 25  1  0  0  0  0
  6 26  1  0  0  0  0
  6  7  1  0  0  0  0
  7  8  1  0  0  0  0
  7 13  1  0  0  0  0
  8  9  1  0  0  0  0
  9 10  2  0  0  0  0
  9 11  1  0  0  0  0
 11 27  1  0  0  0  0
 11 12  2  0  0  0  0
 12 28  1  0  0  0  0
 12 13  1  0  0  0  0
 13 14  2  0  0  0  0
 15 19  1  0  0  0  0
 15 16  1  0  0  0  0
 15 29  1  0  0  0  0
 16 17  1  0  0  0  0
 16 30  1  0  0  0  0
 16 31  1  0  0  0  0
 17 18  1  0  0  0  0
 17 32  1  0  0  0  0
 17 33  1  0  0  0  0
 18 19  1  0  0  0  0
 18 34  1  0  0  0  0
 18 35  1  0  0  0  0
M  CHG  1   8  -1
M  END
> <s_m_source_file>
AV-unprocessed.smi

> <i_m_source_file_index>
1208

> <i_lp_mmshare_version>
43012

> <i_f3d_flags>
0

> <s_epik_input>
TzFbQ0gyXVtDSDJdW0NIMl1bQ0BIXTFbQ0BIXShbQ0gzXSlbTkhdQyg9TylbQ0gyXW4yW25IXWMoPU8pW2NIXVtjSF1jMj1P

> <s_epik_cmdline>
J2VwaWtfcHl0aG9uJywgJy1waCcsICc3LjAnLCAnLXRuJywgJzgnLCAnLW1hJywgJzIwMCcsICctbWV0YWxfYmluZGluZycsICctaW1hZScsICc8aW5maWxlLm1hZT4nLCAnLW9tYWUnLCAnPG91dGZpbGUubWFlPic=

> <r_lp_tautomer_probability>
1

> <r_epik_Ionization_Penalty>
0.0975494

> <r_epik_Ionization_Penalty_Charging>
0.0975494

> <r_epik_Ionization_Penalty_Neutral>
2.30132e-08

> <r_epik_State_Penalty>
0.034345

> <r_epik_Charging_Adjusted_Penalty>
0.131894

> <i_epik_Tot_Q>
-1

> <i_epik_Tot_abs_Q>
1

> <r_epik_Metal_State_Penalty>
0.034345

> <b_epik_Metal_Only>
0

> <s_lp_Force_Field>
OPLS_2005

> <r_lp_Energy>
34.668

> <b_lp_Chiralities_Consistent>
1

> <s_lp_Variant>
AV-unprocessed.smi:1208-1

> <Gold.Version>
5.8.1

> <Gold.Id.Protein>
6NUR|6NUR_protein|mol2

> <Gold.PLP.Fitness>
45.3879

> <Gold.PLP.PLP>
-30.2253

> <Gold.PLP.part.hbond>
-4.7866

> <Gold.PLP.part.metal>
0.0000

> <Gold.PLP.part.buried>
-4.5352

> <Gold.PLP.part.nonpolar>
-22.7330

> <Gold.PLP.part.repulsive>
0.2069

> <Gold.PLP.ligand.clash>
0.0000

> <Gold.PLP.ligand.torsion>
0.2804

> <Gold.PLP.Chemscore.Hbond>
5.2374

> <Gold.PLP.Chemscore.CHOScore>
0.0000

> <Gold.PLP.Chemscore.Metal>
0.0000

> <Gold.Chemscore.Hbonds>
donor molecule, donor type, donor heavy atom, donor atom, acceptor molecule, acceptor atom, score
      P1  H  6896  6907       L1     5  0.65
      P1  H  6896  6909       L1    14  0.14
      P1  H  6931  6943       L1     8  1.66
      P1  H  6934  6947       L1     8  1.66

> <Gold.PLP.Chemscore.Internal.Correction>
0.0112

> <Gold.Rescore>
     Score         DG    S(hbond)    S(metal)    S(lipo)     H(rot)  DE(clash)    DE(int)     intcor
     14.94     -16.21       2.46        0.00      65.15       1.99       0.14       1.13       ----

> <Gold.Chemscore.Fitness>
14.9366

> <Gold.Chemscore.DG>
-16.2096

> <Gold.Chemscore.ZeroCoef>
-5.4800

> <Gold.Chemscore.Hbond>
2.4585

> <Gold.Chemscore.Metal>
0.0000

> <Gold.Chemscore.Lipo>
65.1524

> <Gold.Chemscore.Internal_Hbond>
0.0000

> <Gold.Chemscore.DEClash>
0.1414

> <Gold.Chemscore.DEInternal>
1.1316

> <Gold.Chemscore.Rot>
1.9940

> <Gold.Chemscore.Internal.Correction>
   9.000000E+99

> <Gold.Chemscore.Hbonds>
donor molecule, donor type, donor heavy atom, donor atom, acceptor molecule, acceptor atom, score
      P1  H  6896  6907       L1     5  0.63
      P1  H  6896  6909       L1    14  0.04
      P1  H  6931  6943       L1     8  0.21
      P1  H  6934  6947       L1     8  0.45

> <Gold.Chemscore.Hbond.Weighted>
-8.2114

> <Gold.Chemscore.Metal.Weighted>
-0.0000

> <Gold.Chemscore.Lipo.Weighted>
-7.6228

> <Gold.Chemscore.Internal_Hbond.Weighted>
0.0000

> <Gold.Chemscore.DEClash.Weighted>
0.1414

> <Gold.Chemscore.DEInternal.Weighted>
1.1316

> <Gold.Chemscore.Rot.Weighted>
5.1047

> <Gold.Chemscore.Internal.Correction.Weighted>
   9.000000E+99

> <Gold.Protein.RotatedTorsions>
[ 6907 6896 6895 6894 ] final    7.72 input  -60.11 | X-H torsion
[ 7974 7965 7964 7962 ] final -170.87 input  175.53 | X-H torsion
[ 8008 7997 7996 7995 ] final  -79.80 input   59.86 | X-H torsion
[ 10167 10162 10161 10158 ] final  -95.96 input  -65.29 | X-H torsion
[ 10718 10713 10712 10709 ] final  -50.74 input   66.30 | X-H torsion
[ 10763 10752 10751 10750 ] final    4.50 input  -60.55 | X-H torsion
[ 11005 11000 10999 10996 ] final -155.56 input  -57.11 | X-H torsion

> <Gold.Protein.ActiveResidues>
 VAL166  LYS551  ARG553  GLY616  TRP617  ASP618  TYR619  PRO620  LYS621  CYS622 
 ASP623  PHE694  ASN695  SER759  ASP760  ASP761  ALA762  ILE779  LEU786  VAL792 
 PHE793  MET794  SER795  GLU796  ALA797  LYS798  CYS799  TRP800  GLU811  SER814 

> <Gold.Protein.RotatedAtoms>
  151.6945  135.0941  160.0239 H   0  0  0  0  0  0  0  0  0  0  0  0  # atno 6907 bound_to 6896
  152.3758  133.6475  159.6131 H   0  0  0  0  0  0  0  0  0  0  0  0  # atno 6908 bound_to 6896
  150.7708  133.9112  159.3411 H   0  0  0  0  0  0  0  0  0  0  0  0  # atno 6909 bound_to 6896
  144.7164  140.2007  143.6338 H   0  0  0  0  0  0  0  0  0  0  0  0  # atno 7974 bound_to 7965
  154.5821  140.0673  156.9118 H   0  0  0  0  0  0  0  0  0  0  0  0  # atno 8008 bound_to 7997
  155.2445  140.3347  155.4270 H   0  0  0  0  0  0  0  0  0  0  0  0  # atno 8009 bound_to 7997
  156.2196  140.1793  156.7492 H   0  0  0  0  0  0  0  0  0  0  0  0  # atno 8010 bound_to 7997
  140.2987  143.3176  152.0271 H   0  0  0  0  0  0  0  0  0  0  0  0  # atno 10167 bound_to 10162
  156.1773  130.4150  149.9559 H   0  0  0  0  0  0  0  0  0  0  0  0  # atno 10718 bound_to 10713
  153.2705  135.6931  153.7486 H   0  0  0  0  0  0  0  0  0  0  0  0  # atno 10763 bound_to 10752
  153.6511  135.3376  155.3101 H   0  0  0  0  0  0  0  0  0  0  0  0  # atno 10764 bound_to 10752
  154.8462  135.4454  154.1726 H   0  0  0  0  0  0  0  0  0  0  0  0  # atno 10765 bound_to 10752
  140.6851  134.4102  157.5224 H   0  0  0  0  0  0  0  0  0  0  0  0  # atno 11005 bound_to 11000
  145.8682  139.2258  143.1676 LP  0  0  0  0  0  0  0  0  0  0  0  0  # atno 17320 bound_to 7965
  146.0110  140.8436  142.9971 LP  0  0  0  0  0  0  0  0  0  0  0  0  # atno 17321 bound_to 7965
  139.4920  144.6472  151.6754 LP  0  0  0  0  0  0  0  0  0  0  0  0  # atno 17342 bound_to 10162
  140.5670  144.0174  150.6197 LP  0  0  0  0  0  0  0  0  0  0  0  0  # atno 17343 bound_to 10162
  156.7340  130.9054  151.3628 LP  0  0  0  0  0  0  0  0  0  0  0  0  # atno 17370 bound_to 10713
  157.6844  130.9171  150.0349 LP  0  0  0  0  0  0  0  0  0  0  0  0  # atno 17371 bound_to 10713
  139.8940  134.8717  156.2198 LP  0  0  0  0  0  0  0  0  0  0  0  0  # atno 17394 bound_to 11000
  141.0286  133.7001  156.1391 LP  0  0  0  0  0  0  0  0  0  0  0  0  # atno 17395 bound_to 11000

$$$$
