AV-unprocessed.smi:2438|AV-procd|sdf|9598|dock1
  -GOLD-   2272013233D 1   1.00000     0.00000
 Structure written by MMmdl.
 43 44  0  0  0  0  0  0  0  0  1 V2000
  147.7638  139.6314  154.6265 C   0  0  0  0  0  0  0  0  0  0  0  0
  148.1536  138.9400  155.8477 N   0  0  0  0  0  0  0  0  0  0  0  0
  148.4208  139.7843  157.0056 C   0  0  0  0  0  0  0  0  0  0  0  0
  149.0573  137.8817  155.6244 C   0  0  0  0  0  0  0  0  0  0  0  0
  149.7412  137.8662  154.4544 N   0  0  0  0  0  0  0  0  0  0  0  0
  150.5795  136.8506  154.2423 C   0  0  0  0  0  0  0  0  0  0  0  0
  150.8279  135.8363  155.0704 N   0  0  0  0  0  0  0  0  0  0  0  0
  150.1598  135.8318  156.2425 C   0  0  0  0  0  0  0  0  0  0  0  0
  149.2316  136.8473  156.5811 C   0  0  0  0  0  0  0  0  0  0  0  0
  148.5452  136.8961  157.8258 N   0  0  0  0  0  0  0  0  0  0  0  0
  148.5037  135.9540  158.7814 C   0  0  0  0  0  0  0  0  0  0  0  0
  149.1254  134.8920  158.7597 O   0  0  0  0  0  0  0  0  0  0  0  0
  147.6663  136.3044  159.7671 N   0  0  0  0  0  0  0  0  0  0  0  0
  147.3312  135.4827  160.9290 C   0  0  1  0  0  0  0  0  0  0  0  0
  147.6305  136.2523  162.2297 C   0  0  0  0  0  0  0  0  0  0  0  0
  146.6462  137.4129  162.4558 C   0  0  0  0  0  0  0  0  0  0  0  0
  145.1879  136.9287  162.4160 C   0  0  0  0  0  0  0  0  0  0  0  0
  144.8664  136.1933  161.0977 C   0  0  2  0  0  0  0  0  0  0  0  0
  143.3988  135.7239  161.0376 C   0  0  0  0  0  0  0  0  0  0  0  0
  143.1127  134.9267  162.0672 F   0  0  0  0  0  0  0  0  0  0  0  0
  142.5820  136.7771  161.0676 F   0  0  0  0  0  0  0  0  0  0  0  0
  143.1776  135.0596  159.9031 F   0  0  0  0  0  0  0  0  0  0  0  0
  145.8562  135.0248  160.8909 C   0  0  0  0  0  0  0  0  0  0  0  0
  147.3561  138.9449  153.8847 H   0  0  0  0  0  0  0  0  0  0  0  0
  148.6229  140.1385  154.1857 H   0  0  0  0  0  0  0  0  0  0  0  0
  147.0010  140.3804  154.8410 H   0  0  0  0  0  0  0  0  0  0  0  0
  148.6645  139.1804  157.8806 H   0  0  0  0  0  0  0  0  0  0  0  0
  147.5415  140.3818  157.2468 H   0  0  0  0  0  0  0  0  0  0  0  0
  149.2509  140.4639  156.8095 H   0  0  0  0  0  0  0  0  0  0  0  0
  151.1157  136.8531  153.3049 H   0  0  0  0  0  0  0  0  0  0  0  0
  150.4000  135.0204  156.9120 H   0  0  0  0  0  0  0  0  0  0  0  0
  147.9210  137.6810  157.9443 H   0  0  0  0  0  0  0  0  0  0  0  0
  147.2024  137.1982  159.6975 H   0  0  0  0  0  0  0  0  0  0  0  0
  147.9714  134.5988  160.9092 H   0  0  0  0  0  0  0  0  0  0  0  0
  147.5665  135.5640  163.0734 H   0  0  0  0  0  0  0  0  0  0  0  0
  148.6550  136.6263  162.2217 H   0  0  0  0  0  0  0  0  0  0  0  0
  146.8512  137.8890  163.4151 H   0  0  0  0  0  0  0  0  0  0  0  0
  146.7976  138.1799  161.6952 H   0  0  0  0  0  0  0  0  0  0  0  0
  145.0031  136.2668  163.2630 H   0  0  0  0  0  0  0  0  0  0  0  0
  144.5214  137.7822  162.5425 H   0  0  0  0  0  0  0  0  0  0  0  0
  145.0078  136.9019  160.2801 H   0  0  0  0  0  0  0  0  0  0  0  0
  145.6468  134.5157  159.9497 H   0  0  0  0  0  0  0  0  0  0  0  0
  145.6993  134.2795  161.6717 H   0  0  0  0  0  0  0  0  0  0  0  0
  1  2  1  0  0  0  0
  1 24  1  0  0  0  0
  1 25  1  0  0  0  0
  1 26  1  0  0  0  0
  2  3  1  0  0  0  0
  2  4  1  0  0  0  0
  3 27  1  0  0  0  0
  3 28  1  0  0  0  0
  3 29  1  0  0  0  0
  4  9  1  0  0  0  0
  4  5  2  0  0  0  0
  5  6  1  0  0  0  0
  6  7  2  0  0  0  0
  6 30  1  0  0  0  0
  7  8  1  0  0  0  0
  8  9  2  0  0  0  0
  8 31  1  0  0  0  0
  9 10  1  0  0  0  0
 10 11  1  0  0  0  0
 10 32  1  0  0  0  0
 11 12  2  0  0  0  0
 11 13  1  0  0  0  0
 13 14  1  0  0  0  0
 13 33  1  0  0  0  0
 14 23  1  0  0  0  0
 14 15  1  0  0  0  0
 14 34  1  0  0  0  0
 15 16  1  0  0  0  0
 15 35  1  0  0  0  0
 15 36  1  0  0  0  0
 16 17  1  0  0  0  0
 16 37  1  0  0  0  0
 16 38  1  0  0  0  0
 17 18  1  0  0  0  0
 17 39  1  0  0  0  0
 17 40  1  0  0  0  0
 18 19  1  0  0  0  0
 18 23  1  0  0  0  0
 18 41  1  0  0  0  0
 19 20  1  0  0  0  0
 19 21  1  0  0  0  0
 19 22  1  0  0  0  0
 23 42  1  0  0  0  0
 23 43  1  0  0  0  0
M  END
> <s_m_source_file>
AV-unprocessed.smi

> <i_m_source_file_index>
2438

> <i_lp_mmshare_version>
43012

> <i_f3d_flags>
0

> <s_epik_input>
W0NIM11OKFtDSDNdKWMxbltjSF1uW2NIXWMxW05IXUMoPU8pW05IXVtDQEBIXTJbQ0gyXVtDSDJdW0NIMl1bQ0BASF0oQyhGKShGKUYpW0NIMl0y

> <s_epik_cmdline>
J2VwaWtfcHl0aG9uJywgJy1waCcsICc3LjAnLCAnLXRuJywgJzgnLCAnLW1hJywgJzIwMCcsICctbWV0YWxfYmluZGluZycsICctaW1hZScsICc8aW5maWxlLm1hZT4nLCAnLW9tYWUnLCAnPG91dGZpbGUubWFlPic=

> <r_lp_tautomer_probability>
1

> <r_epik_Ionization_Penalty>
0.01759

> <r_epik_Ionization_Penalty_Charging>
0

> <r_epik_Ionization_Penalty_Neutral>
0.01759

> <r_epik_State_Penalty>
0.0133536

> <r_epik_Charging_Adjusted_Penalty>
0.0133536

> <i_epik_Tot_Q>
0

> <i_epik_Tot_abs_Q>
0

> <r_epik_Metal_State_Penalty>
0.0129828

> <b_epik_Metal_Only>
0

> <s_lp_Force_Field>
OPLS_2005

> <r_lp_Energy>
8.79066

> <b_lp_Chiralities_Consistent>
1

> <s_lp_Variant>
AV-unprocessed.smi:2438-4

> <Gold.Version>
5.8.1

> <Gold.Id.Protein>
6NUR|6NUR_protein|mol2

> <Gold.PLP.Fitness>
31.5763

> <Gold.PLP.PLP>
-23.0731

> <Gold.PLP.part.hbond>
-2.0000

> <Gold.PLP.part.metal>
0.0000

> <Gold.PLP.part.buried>
-3.8130

> <Gold.PLP.part.nonpolar>
-18.1350

> <Gold.PLP.part.repulsive>
0.5158

> <Gold.PLP.ligand.clash>
0.0000

> <Gold.PLP.ligand.torsion>
0.3585

> <Gold.PLP.Chemscore.Hbond>
2.0000

> <Gold.PLP.Chemscore.CHOScore>
0.9401

> <Gold.PLP.Chemscore.Metal>
0.0000

> <Gold.Chemscore.Hbonds>
donor molecule, donor type, donor heavy atom, donor atom, acceptor molecule, acceptor atom, score
      P1  H  6896  6907       L1    12  1.00
      P1  H 10752 10763       L1     7  0.59
      L1  C     6    30       P1  7949  0.95

> <Gold.PLP.Chemscore.Internal.Correction>
0.4000

> <Gold.Rescore>
     Score         DG    S(hbond)    S(metal)    S(lipo)     H(rot)  DE(clash)    DE(int)     intcor
     12.91     -14.73       1.93        0.00      52.32       1.30       0.00       1.82       ----

> <Gold.Chemscore.Fitness>
12.9056

> <Gold.Chemscore.DG>
-14.7310

> <Gold.Chemscore.ZeroCoef>
-5.4800

> <Gold.Chemscore.Hbond>
1.9323

> <Gold.Chemscore.Metal>
0.0000

> <Gold.Chemscore.Lipo>
52.3207

> <Gold.Chemscore.Internal_Hbond>
0.0000

> <Gold.Chemscore.DEClash>
0.0029

> <Gold.Chemscore.DEInternal>
1.8225

> <Gold.Chemscore.Rot>
1.2987

> <Gold.Chemscore.Internal.Correction>
   9.000000E+99

> <Gold.Chemscore.Hbonds>
donor molecule, donor type, donor heavy atom, donor atom, acceptor molecule, acceptor atom, score
      P1  H  6896  6907       L1    12  1.00
      P1  H 10752 10763       L1     7  0.20

> <Gold.Chemscore.Hbond.Weighted>
-6.4540

> <Gold.Chemscore.Metal.Weighted>
-0.0000

> <Gold.Chemscore.Lipo.Weighted>
-6.1215

> <Gold.Chemscore.Internal_Hbond.Weighted>
0.0000

> <Gold.Chemscore.DEClash.Weighted>
0.0029

> <Gold.Chemscore.DEInternal.Weighted>
1.8225

> <Gold.Chemscore.Rot.Weighted>
3.3246

> <Gold.Chemscore.Internal.Correction.Weighted>
   9.000000E+99

> <Gold.Protein.RotatedTorsions>
[ 6907 6896 6895 6894 ] final  -83.37 input  -60.11 | X-H torsion
[ 7974 7965 7964 7962 ] final  143.71 input  175.53 | X-H torsion
[ 8008 7997 7996 7995 ] final  -40.96 input   59.86 | X-H torsion
[ 10167 10162 10161 10158 ] final  -21.50 input  -65.29 | X-H torsion
[ 10718 10713 10712 10709 ] final  139.14 input   66.30 | X-H torsion
[ 10763 10752 10751 10750 ] final   72.92 input  -60.55 | X-H torsion
[ 11005 11000 10999 10996 ] final   26.08 input  -57.11 | X-H torsion

> <Gold.Protein.ActiveResidues>
 VAL166  LYS551  ARG553  GLY616  TRP617  ASP618  TYR619  PRO620  LYS621  CYS622 
 ASP623  PHE694  ASN695  SER759  ASP760  ASP761  ALA762  ILE779  LEU786  VAL792 
 PHE793  MET794  SER795  GLU796  ALA797  LYS798  CYS799  TRP800  GLU811  SER814 

> <Gold.Protein.RotatedAtoms>
  150.6886  134.3522  159.4913 H   0  0  0  0  0  0  0  0  0  0  0  0  # atno 6907 bound_to 6896
  152.1362  134.9095  160.0565 H   0  0  0  0  0  0  0  0  0  0  0  0  # atno 6908 bound_to 6896
  152.0246  133.3878  159.4309 H   0  0  0  0  0  0  0  0  0  0  0  0  # atno 6909 bound_to 6896
  144.8897  139.5576  143.5804 H   0  0  0  0  0  0  0  0  0  0  0  0  # atno 7974 bound_to 7965
  154.4008  140.1512  156.3112 H   0  0  0  0  0  0  0  0  0  0  0  0  # atno 8008 bound_to 7997
  155.8614  140.3453  155.5737 H   0  0  0  0  0  0  0  0  0  0  0  0  # atno 8009 bound_to 7997
  155.7876  140.0852  157.2016 H   0  0  0  0  0  0  0  0  0  0  0  0  # atno 8010 bound_to 7997
  140.7282  143.4622  151.0363 H   0  0  0  0  0  0  0  0  0  0  0  0  # atno 10167 bound_to 10162
  157.4177  131.1035  151.0387 H   0  0  0  0  0  0  0  0  0  0  0  0  # atno 10718 bound_to 10713
  153.0489  135.5082  154.7817 H   0  0  0  0  0  0  0  0  0  0  0  0  # atno 10763 bound_to 10752
  154.6695  135.2951  154.9763 H   0  0  0  0  0  0  0  0  0  0  0  0  # atno 10764 bound_to 10752
  154.0587  135.6694  153.4861 H   0  0  0  0  0  0  0  0  0  0  0  0  # atno 10765 bound_to 10752
  140.3409  134.2334  155.7690 H   0  0  0  0  0  0  0  0  0  0  0  0  # atno 11005 bound_to 11000
  146.3046  139.7538  142.9066 LP  0  0  0  0  0  0  0  0  0  0  0  0  # atno 17320 bound_to 7965
  145.3805  141.0357  143.3180 LP  0  0  0  0  0  0  0  0  0  0  0  0  # atno 17321 bound_to 7965
  139.8308  143.7694  152.3179 LP  0  0  0  0  0  0  0  0  0  0  0  0  # atno 17342 bound_to 10162
  139.7809  144.7445  151.0090 LP  0  0  0  0  0  0  0  0  0  0  0  0  # atno 17343 bound_to 10162
  157.1329  130.6110  149.5534 LP  0  0  0  0  0  0  0  0  0  0  0  0  # atno 17370 bound_to 10713
  155.9870  130.4908  150.7106 LP  0  0  0  0  0  0  0  0  0  0  0  0  # atno 17371 bound_to 10713
  141.2038  133.7901  157.0317 LP  0  0  0  0  0  0  0  0  0  0  0  0  # atno 17394 bound_to 11000
  140.0782  134.9663  157.1580 LP  0  0  0  0  0  0  0  0  0  0  0  0  # atno 17395 bound_to 11000

$$$$
