AV-unprocessed.smi:709|AV-procd|sdf|3460|dock9
  -GOLD-   22720 0453D 1   1.00000     0.00000
 Structure written by MMmdl.
 48 50  0  0  0  0  0  0  0  0  1 V2000
  150.8609  141.6062  157.1369 C   0  0  0  0  0  0  0  0  0  0  0  0
  150.5375  141.3109  155.6709 C   0  0  0  0  0  0  0  0  0  0  0  0
  151.1420  140.0816  155.3077 O   0  0  0  0  0  0  0  0  0  0  0  0
  150.5862  138.9716  155.9947 C   0  0  2  0  0  0  0  0  0  0  0  0
  151.1195  137.6060  155.5484 C   0  0  0  0  0  0  0  0  0  0  0  0
  149.6901  137.1048  155.7657 C   0  0  2  0  0  0  0  0  0  0  0  0
  149.2887  136.0970  154.7901 N   0  0  0  0  0  0  0  0  0  0  0  0
  148.8280  134.8800  155.1098 C   0  0  0  0  0  0  0  0  0  0  0  0
  148.6988  134.4956  156.2717 O   0  0  0  0  0  0  0  0  0  0  0  0
  148.5264  134.1735  154.0044 N   0  0  0  0  0  0  0  0  0  0  0  0
  148.0458  132.8567  153.8834 C   0  0  0  0  0  0  0  0  0  0  0  0
  148.5524  131.7818  154.5395 C   0  0  0  0  0  0  0  0  0  0  0  0
  147.9998  130.4632  154.3425 C   0  0  0  0  0  0  0  0  0  0  0  0
  146.9781  130.3213  153.4873 C   0  0  0  0  0  0  0  0  0  0  0  0
  146.4428  131.4178  152.7908 N   0  0  0  0  0  0  0  0  0  0  0  0
  145.3285  131.1600  151.8751 C   0  0  0  0  0  0  0  0  0  0  0  0
  146.9217  132.6887  152.9410 C   0  0  0  0  0  0  0  0  0  0  0  0
  146.4312  133.6323  152.3161 O   0  0  0  0  0  0  0  0  0  0  0  0
  149.1954  138.5431  155.4631 C   0  0  0  0  0  0  0  0  0  0  0  0
  148.8439  138.9320  154.0207 C   0  0  0  0  0  0  0  0  0  0  0  0
  148.1106  140.2725  154.0954 C   0  0  0  0  0  0  0  0  0  0  0  0
  147.4964  140.3266  155.4980 C   0  0  0  0  0  0  0  0  0  0  0  0
  147.9778  139.0630  156.2197 C   0  0  0  0  0  0  0  0  0  0  0  0
  150.4091  142.5463  157.4539 H   0  0  0  0  0  0  0  0  0  0  0  0
  151.9373  141.6826  157.2920 H   0  0  0  0  0  0  0  0  0  0  0  0
  150.4829  140.8168  157.7870 H   0  0  0  0  0  0  0  0  0  0  0  0
  149.4569  141.2585  155.5308 H   0  0  0  0  0  0  0  0  0  0  0  0
  150.9141  142.1165  155.0390 H   0  0  0  0  0  0  0  0  0  0  0  0
  150.5939  139.0928  157.0808 H   0  0  0  0  0  0  0  0  0  0  0  0
  151.4421  137.5903  154.5055 H   0  0  0  0  0  0  0  0  0  0  0  0
  151.8653  137.1680  156.2120 H   0  0  0  0  0  0  0  0  0  0  0  0
  149.5197  136.8129  156.8052 H   0  0  0  0  0  0  0  0  0  0  0  0
  149.3619  136.3450  153.8141 H   0  0  0  0  0  0  0  0  0  0  0  0
  148.6407  134.6555  153.1245 H   0  0  0  0  0  0  0  0  0  0  0  0
  149.3873  131.8635  155.2155 H   0  0  0  0  0  0  0  0  0  0  0  0
  148.4012  129.6112  154.8711 H   0  0  0  0  0  0  0  0  0  0  0  0
  146.5118  129.3682  153.2847 H   0  0  0  0  0  0  0  0  0  0  0  0
  144.4452  131.7234  152.1788 H   0  0  0  0  0  0  0  0  0  0  0  0
  145.0468  130.1071  151.8397 H   0  0  0  0  0  0  0  0  0  0  0  0
  145.5903  131.4596  150.8592 H   0  0  0  0  0  0  0  0  0  0  0  0
  149.7163  138.9898  153.3691 H   0  0  0  0  0  0  0  0  0  0  0  0
  148.1718  138.1954  153.5797 H   0  0  0  0  0  0  0  0  0  0  0  0
  148.8194  141.0924  153.9727 H   0  0  0  0  0  0  0  0  0  0  0  0
  147.3593  140.3670  153.3107 H   0  0  0  0  0  0  0  0  0  0  0  0
  147.8404  141.2199  156.0205 H   0  0  0  0  0  0  0  0  0  0  0  0
  146.4073  140.3669  155.4619 H   0  0  0  0  0  0  0  0  0  0  0  0
  147.1849  138.3146  156.2028 H   0  0  0  0  0  0  0  0  0  0  0  0
  148.1946  139.2645  157.2691 H   0  0  0  0  0  0  0  0  0  0  0  0
  1  2  1  0  0  0  0
  1 24  1  0  0  0  0
  1 25  1  0  0  0  0
  1 26  1  0  0  0  0
  2  3  1  0  0  0  0
  2 27  1  0  0  0  0
  2 28  1  0  0  0  0
  3  4  1  0  0  0  0
  4 19  1  0  0  0  0
  4  5  1  0  0  0  0
  4 29  1  0  0  0  0
  5  6  1  0  0  0  0
  5 30  1  0  0  0  0
  5 31  1  0  0  0  0
  6  7  1  0  0  0  0
  6 19  1  0  0  0  0
  6 32  1  0  0  0  0
  7  8  1  0  0  0  0
  7 33  1  0  0  0  0
  8  9  2  0  0  0  0
  8 10  1  0  0  0  0
 10 11  1  0  0  0  0
 10 34  1  0  0  0  0
 11 17  1  0  0  0  0
 11 12  2  0  0  0  0
 12 13  1  0  0  0  0
 12 35  1  0  0  0  0
 13 14  2  0  0  0  0
 13 36  1  0  0  0  0
 14 15  1  0  0  0  0
 14 37  1  0  0  0  0
 15 16  1  0  0  0  0
 15 17  1  0  0  0  0
 16 38  1  0  0  0  0
 16 39  1  0  0  0  0
 16 40  1  0  0  0  0
 17 18  2  0  0  0  0
 19 23  1  0  0  0  0
 19 20  1  0  0  0  0
 20 21  1  0  0  0  0
 20 41  1  0  0  0  0
 20 42  1  0  0  0  0
 21 22  1  0  0  0  0
 21 43  1  0  0  0  0
 21 44  1  0  0  0  0
 22 23  1  0  0  0  0
 22 45  1  0  0  0  0
 22 46  1  0  0  0  0
 23 47  1  0  0  0  0
 23 48  1  0  0  0  0
M  END
> <s_m_source_file>
AV-unprocessed.smi

> <i_m_source_file_index>
709

> <i_lp_mmshare_version>
43012

> <i_f3d_flags>
0

> <s_epik_input>
W0NIMl0xW0NIMl1bQ0gyXVtDSDJdQzEyW0NASF0oT1tDSDJdW0NIM10pW0NIMl1bQ0BIXTJbTkhdQyg9TylbTkhdYzNbY0hdW2NIXVtjSF1uKFtDSDNdKWMzPU8=

> <s_epik_cmdline>
J2VwaWtfcHl0aG9uJywgJy1waCcsICc3LjAnLCAnLXRuJywgJzgnLCAnLW1hJywgJzIwMCcsICctbWV0YWxfYmluZGluZycsICctaW1hZScsICc8aW5maWxlLm1hZT4nLCAnLW9tYWUnLCAnPG91dGZpbGUubWFlPic=

> <r_lp_tautomer_probability>
1

> <r_epik_Ionization_Penalty>
2.50859e-05

> <r_epik_Ionization_Penalty_Charging>
5.10493e-06

> <r_epik_Ionization_Penalty_Neutral>
1.9981e-05

> <r_epik_State_Penalty>
-0

> <r_epik_Charging_Adjusted_Penalty>
5.10493e-06

> <i_epik_Tot_Q>
0

> <i_epik_Tot_abs_Q>
0

> <r_epik_Metal_State_Penalty>
-0

> <b_epik_Metal_Only>
0

> <s_lp_Force_Field>
OPLS_2005

> <r_lp_Energy>
49.811

> <b_lp_Chiralities_Consistent>
1

> <s_lp_Variant>
AV-unprocessed.smi:709-3

> <Gold.Version>
5.8.1

> <Gold.Id.Protein>
6NUR|6NUR_protein|mol2

> <Gold.PLP.Fitness>
41.6611

> <Gold.PLP.PLP>
-34.2724

> <Gold.PLP.part.hbond>
-3.0000

> <Gold.PLP.part.metal>
0.0000

> <Gold.PLP.part.buried>
-4.0715

> <Gold.PLP.part.nonpolar>
-26.8717

> <Gold.PLP.part.repulsive>
0.2276

> <Gold.PLP.ligand.clash>
0.0000

> <Gold.PLP.ligand.torsion>
0.5880

> <Gold.PLP.Chemscore.Hbond>
2.7500

> <Gold.PLP.Chemscore.CHOScore>
0.0000

> <Gold.PLP.Chemscore.Metal>
0.0000

> <Gold.Chemscore.Hbonds>
donor molecule, donor type, donor heavy atom, donor atom, acceptor molecule, acceptor atom, score
      L1  H     7    33       P1  7948  1.00
      L1  H    10    34       P1  7948  1.00
      P1  H  7989  7998       L1     3  0.50

> <Gold.PLP.Chemscore.Internal.Correction>
0.3146

> <Gold.Rescore>
     Score         DG    S(hbond)    S(metal)    S(lipo)     H(rot)  DE(clash)    DE(int)     intcor
     17.70     -18.35       2.53        0.00      67.42       1.36       0.01       0.64       ----

> <Gold.Chemscore.Fitness>
17.7038

> <Gold.Chemscore.DG>
-18.3503

> <Gold.Chemscore.ZeroCoef>
-5.4800

> <Gold.Chemscore.Hbond>
2.5340

> <Gold.Chemscore.Metal>
0.0000

> <Gold.Chemscore.Lipo>
67.4190

> <Gold.Chemscore.Internal_Hbond>
0.0000

> <Gold.Chemscore.DEClash>
0.0060

> <Gold.Chemscore.DEInternal>
0.6405

> <Gold.Chemscore.Rot>
1.3599

> <Gold.Chemscore.Internal.Correction>
   9.000000E+99

> <Gold.Chemscore.Hbonds>
donor molecule, donor type, donor heavy atom, donor atom, acceptor molecule, acceptor atom, score
      L1  H     7    33       P1  7948  0.83
      L1  H    10    34       P1  7948  0.29
      P1  H  7989  7998       L1     3  0.02

> <Gold.Chemscore.Hbond.Weighted>
-8.4635

> <Gold.Chemscore.Metal.Weighted>
-0.0000

> <Gold.Chemscore.Lipo.Weighted>
-7.8880

> <Gold.Chemscore.Internal_Hbond.Weighted>
0.0000

> <Gold.Chemscore.DEClash.Weighted>
0.0060

> <Gold.Chemscore.DEInternal.Weighted>
0.6405

> <Gold.Chemscore.Rot.Weighted>
3.4813

> <Gold.Chemscore.Internal.Correction.Weighted>
   9.000000E+99

> <Gold.Protein.RotatedTorsions>
[ 6907 6896 6895 6894 ] final -132.10 input  -60.11 | X-H torsion
[ 7974 7965 7964 7962 ] final -168.67 input  175.53 | X-H torsion
[ 8008 7997 7996 7995 ] final   -5.30 input   59.86 | X-H torsion
[ 10167 10162 10161 10158 ] final   27.16 input  -65.29 | X-H torsion
[ 10718 10713 10712 10709 ] final   99.84 input   66.30 | X-H torsion
[ 10763 10752 10751 10750 ] final -175.79 input  -60.55 | X-H torsion
[ 11005 11000 10999 10996 ] final   20.22 input  -57.11 | X-H torsion

> <Gold.Protein.ActiveResidues>
 VAL166  LYS551  ARG553  GLY616  TRP617  ASP618  TYR619  PRO620  LYS621  CYS622 
 ASP623  PHE694  ASN695  SER759  ASP760  ASP761  ALA762  ILE779  LEU786  VAL792 
 PHE793  MET794  SER795  GLU796  ALA797  LYS798  CYS799  TRP800  GLU811  SER814 

> <Gold.Protein.RotatedAtoms>
  150.9585  133.6471  159.2758 H   0  0  0  0  0  0  0  0  0  0  0  0  # atno 6907 bound_to 6896
  151.3801  135.0937  159.9503 H   0  0  0  0  0  0  0  0  0  0  0  0  # atno 6908 bound_to 6896
  152.5138  133.9121  159.7548 H   0  0  0  0  0  0  0  0  0  0  0  0  # atno 6909 bound_to 6896
  144.7199  140.2336  143.6301 H   0  0  0  0  0  0  0  0  0  0  0  0  # atno 7974 bound_to 7965
  154.6053  140.2462  155.7739 H   0  0  0  0  0  0  0  0  0  0  0  0  # atno 8008 bound_to 7997
  156.2337  140.2958  156.0206 H   0  0  0  0  0  0  0  0  0  0  0  0  # atno 8009 bound_to 7997
  155.2142  140.0398  157.2929 H   0  0  0  0  0  0  0  0  0  0  0  0  # atno 8010 bound_to 7997
  140.4962  144.0388  150.6315 H   0  0  0  0  0  0  0  0  0  0  0  0  # atno 10167 bound_to 10162
  157.6867  131.0681  150.5010 H   0  0  0  0  0  0  0  0  0  0  0  0  # atno 10718 bound_to 10713
  154.5801  135.2835  155.0741 H   0  0  0  0  0  0  0  0  0  0  0  0  # atno 10763 bound_to 10752
  154.2080  135.6413  153.5110 H   0  0  0  0  0  0  0  0  0  0  0  0  # atno 10764 bound_to 10752
  153.0085  135.5485  154.6453 H   0  0  0  0  0  0  0  0  0  0  0  0  # atno 10765 bound_to 10752
  140.4051  134.1677  155.7665 H   0  0  0  0  0  0  0  0  0  0  0  0  # atno 11005 bound_to 11000
  145.8387  139.2119  143.1840 LP  0  0  0  0  0  0  0  0  0  0  0  0  # atno 17320 bound_to 7965
  146.0366  140.8206  142.9849 LP  0  0  0  0  0  0  0  0  0  0  0  0  # atno 17321 bound_to 7965
  140.3671  143.2875  152.0319 LP  0  0  0  0  0  0  0  0  0  0  0  0  # atno 17342 bound_to 10162
  139.4862  144.6258  151.7167 LP  0  0  0  0  0  0  0  0  0  0  0  0  # atno 17343 bound_to 10162
  156.5331  130.4190  149.6191 LP  0  0  0  0  0  0  0  0  0  0  0  0  # atno 17370 bound_to 10713
  156.3051  130.7198  151.2079 LP  0  0  0  0  0  0  0  0  0  0  0  0  # atno 17371 bound_to 10713
  141.1842  133.8348  157.1147 LP  0  0  0  0  0  0  0  0  0  0  0  0  # atno 17394 bound_to 11000
  140.0308  134.9902  157.0776 LP  0  0  0  0  0  0  0  0  0  0  0  0  # atno 17395 bound_to 11000

$$$$
