AV-unprocessed.smi:690|AV-procd|sdf|3363|dock9
  -GOLD-   22720 0343D 1   1.00000     0.00000
 Structure written by MMmdl.
 46 48  0  0  0  0  0  0  0  0  1 V2000
  152.2207  138.1129  154.4781 C   0  0  0  0  0  0  0  0  0  0  0  0
  152.4308  139.5745  154.8783 C   0  0  0  0  0  0  0  0  0  0  0  0
  152.4274  139.6683  156.2926 O   0  0  0  0  0  0  0  0  0  0  0  0
  151.2714  139.0907  156.8788 C   0  0  1  0  0  0  0  0  0  0  0  0
  151.2076  139.1946  158.4060 C   0  0  0  0  0  0  0  0  0  0  0  0
  149.7156  139.5111  158.2517 C   0  0  2  0  0  0  0  0  0  0  0  0
  148.9159  138.2879  158.2912 N   0  0  0  0  0  0  0  0  0  0  0  0
  149.1067  137.2620  159.1363 C   0  0  0  0  0  0  0  0  0  0  0  0
  150.0174  137.2414  159.9632 O   0  0  0  0  0  0  0  0  0  0  0  0
  148.1253  136.0788  159.0739 C   0  0  0  0  0  0  0  0  0  0  0  0
  147.2747  135.9195  160.2675 N   0  0  0  0  0  0  0  0  0  0  0  0
  147.4402  134.7344  161.0118 C   0  0  0  0  0  0  0  0  0  0  0  0
  146.7316  134.4898  162.1252 C   0  0  0  0  0  0  0  0  0  0  0  0
  145.7746  135.4812  162.5559 C   0  0  0  0  0  0  0  0  0  0  0  0
  145.6114  136.6204  161.8541 C   0  0  0  0  0  0  0  0  0  0  0  0
  146.3894  136.8949  160.6404 C   0  0  0  0  0  0  0  0  0  0  0  0
  146.2596  137.9405  160.0039 O   0  0  0  0  0  0  0  0  0  0  0  0
  150.0166  139.9952  156.8087 C   0  0  0  0  0  0  0  0  0  0  0  0
  149.0178  139.7162  155.6874 C   0  0  0  0  0  0  0  0  0  0  0  0
  149.4105  140.6125  154.5116 C   0  0  0  0  0  0  0  0  0  0  0  0
  150.1629  141.7956  155.1286 C   0  0  0  0  0  0  0  0  0  0  0  0
  150.2518  141.4972  156.6289 C   0  0  0  0  0  0  0  0  0  0  0  0
  152.2240  138.0014  153.3937 H   0  0  0  0  0  0  0  0  0  0  0  0
  151.2665  137.7391  154.8504 H   0  0  0  0  0  0  0  0  0  0  0  0
  153.0103  137.4794  154.8826 H   0  0  0  0  0  0  0  0  0  0  0  0
  153.3804  139.9367  154.4812 H   0  0  0  0  0  0  0  0  0  0  0  0
  151.6378  140.1924  154.4545 H   0  0  0  0  0  0  0  0  0  0  0  0
  151.0698  138.0794  156.5177 H   0  0  0  0  0  0  0  0  0  0  0  0
  151.4388  138.2705  158.9371 H   0  0  0  0  0  0  0  0  0  0  0  0
  151.7790  140.0369  158.7996 H   0  0  0  0  0  0  0  0  0  0  0  0
  149.3739  140.2976  158.9267 H   0  0  0  0  0  0  0  0  0  0  0  0
  148.1455  138.2278  157.6417 H   0  0  0  0  0  0  0  0  0  0  0  0
  147.5151  136.1830  158.1752 H   0  0  0  0  0  0  0  0  0  0  0  0
  148.7051  135.1688  158.9129 H   0  0  0  0  0  0  0  0  0  0  0  0
  148.1807  134.0491  160.6250 H   0  0  0  0  0  0  0  0  0  0  0  0
  146.8759  133.5777  162.6855 H   0  0  0  0  0  0  0  0  0  0  0  0
  145.1868  135.3087  163.4454 H   0  0  0  0  0  0  0  0  0  0  0  0
  144.8909  137.3507  162.1923 H   0  0  0  0  0  0  0  0  0  0  0  0
  148.9958  138.6657  155.3952 H   0  0  0  0  0  0  0  0  0  0  0  0
  148.0098  139.9746  156.0147 H   0  0  0  0  0  0  0  0  0  0  0  0
  150.0719  140.0699  153.8351 H   0  0  0  0  0  0  0  0  0  0  0  0
  148.5394  140.9295  153.9375 H   0  0  0  0  0  0  0  0  0  0  0  0
  151.1605  141.8694  154.6943 H   0  0  0  0  0  0  0  0  0  0  0  0
  149.6543  142.7424  154.9443 H   0  0  0  0  0  0  0  0  0  0  0  0
  149.4738  142.0565  157.1501 H   0  0  0  0  0  0  0  0  0  0  0  0
  151.2028  141.8317  157.0447 H   0  0  0  0  0  0  0  0  0  0  0  0
  1  2  1  0  0  0  0
  1 23  1  0  0  0  0
  1 24  1  0  0  0  0
  1 25  1  0  0  0  0
  2  3  1  0  0  0  0
  2 26  1  0  0  0  0
  2 27  1  0  0  0  0
  3  4  1  0  0  0  0
  4 18  1  0  0  0  0
  4  5  1  0  0  0  0
  4 28  1  0  0  0  0
  5  6  1  0  0  0  0
  5 29  1  0  0  0  0
  5 30  1  0  0  0  0
  6  7  1  0  0  0  0
  6 18  1  0  0  0  0
  6 31  1  0  0  0  0
  7  8  1  0  0  0  0
  7 32  1  0  0  0  0
  8  9  2  0  0  0  0
  8 10  1  0  0  0  0
 10 11  1  0  0  0  0
 10 33  1  0  0  0  0
 10 34  1  0  0  0  0
 11 16  1  0  0  0  0
 11 12  1  0  0  0  0
 12 13  2  0  0  0  0
 12 35  1  0  0  0  0
 13 14  1  0  0  0  0
 13 36  1  0  0  0  0
 14 15  2  0  0  0  0
 14 37  1  0  0  0  0
 15 16  1  0  0  0  0
 15 38  1  0  0  0  0
 16 17  2  0  0  0  0
 18 22  1  0  0  0  0
 18 19  1  0  0  0  0
 19 20  1  0  0  0  0
 19 39  1  0  0  0  0
 19 40  1  0  0  0  0
 20 21  1  0  0  0  0
 20 41  1  0  0  0  0
 20 42  1  0  0  0  0
 21 22  1  0  0  0  0
 21 43  1  0  0  0  0
 21 44  1  0  0  0  0
 22 45  1  0  0  0  0
 22 46  1  0  0  0  0
M  END
> <s_m_source_file>
AV-unprocessed.smi

> <i_m_source_file_index>
690

> <i_lp_mmshare_version>
43012

> <i_f3d_flags>
0

> <s_epik_input>
W0NIMl0xW0NIMl1bQ0gyXVtDSDJdQzEyW0NASF0oT1tDSDJdW0NIM10pW0NIMl1bQ0BIXTJbTkhdQyg9TylbQ0gyXW4zW2NIXVtjSF1bY0hdW2NIXWMzPU8=

> <s_epik_cmdline>
J2VwaWtfcHl0aG9uJywgJy1waCcsICc3LjAnLCAnLXRuJywgJzgnLCAnLW1hJywgJzIwMCcsICctbWV0YWxfYmluZGluZycsICctaW1hZScsICc8aW5maWxlLm1hZT4nLCAnLW9tYWUnLCAnPG91dGZpbGUubWFlPic=

> <r_lp_tautomer_probability>
1

> <r_epik_Ionization_Penalty>
4.11691e-07

> <r_epik_Ionization_Penalty_Charging>
3.92797e-07

> <r_epik_Ionization_Penalty_Neutral>
1.88943e-08

> <r_epik_State_Penalty>
-0

> <r_epik_Charging_Adjusted_Penalty>
3.92797e-07

> <i_epik_Tot_Q>
0

> <i_epik_Tot_abs_Q>
0

> <r_epik_Metal_State_Penalty>
-0

> <b_epik_Metal_Only>
0

> <s_lp_Force_Field>
OPLS_2005

> <r_lp_Energy>
47.2811

> <b_lp_Chiralities_Consistent>
1

> <s_lp_Variant>
AV-unprocessed.smi:690-4

> <Gold.Version>
5.8.1

> <Gold.Id.Protein>
6NUR|6NUR_protein|mol2

> <Gold.PLP.Fitness>
43.5881

> <Gold.PLP.PLP>
-35.0716

> <Gold.PLP.part.hbond>
-3.5448

> <Gold.PLP.part.metal>
0.0000

> <Gold.PLP.part.buried>
-2.1074

> <Gold.PLP.part.nonpolar>
-30.3205

> <Gold.PLP.part.repulsive>
0.1683

> <Gold.PLP.ligand.clash>
0.0000

> <Gold.PLP.ligand.torsion>
0.4027

> <Gold.PLP.Chemscore.Hbond>
2.9913

> <Gold.PLP.Chemscore.CHOScore>
0.0000

> <Gold.PLP.Chemscore.Metal>
0.0000

> <Gold.Chemscore.Hbonds>
donor molecule, donor type, donor heavy atom, donor atom, acceptor molecule, acceptor atom, score
      P1  H  6931  6943       L1     9  0.04
      P1  H  6934  6947       L1    17  0.99
      P1  H  7997  8010       L1     3  0.90

> <Gold.PLP.Chemscore.Internal.Correction>
0.3481

> <Gold.Rescore>
     Score         DG    S(hbond)    S(metal)    S(lipo)     H(rot)  DE(clash)    DE(int)     intcor
     17.91     -20.40       2.47        0.00      93.83       1.69       0.62       1.87       ----

> <Gold.Chemscore.Fitness>
17.9135

> <Gold.Chemscore.DG>
-20.3975

> <Gold.Chemscore.ZeroCoef>
-5.4800

> <Gold.Chemscore.Hbond>
2.4747

> <Gold.Chemscore.Metal>
0.0000

> <Gold.Chemscore.Lipo>
93.8332

> <Gold.Chemscore.Internal_Hbond>
0.0000

> <Gold.Chemscore.DEClash>
0.6190

> <Gold.Chemscore.DEInternal>
1.8650

> <Gold.Chemscore.Rot>
1.6900

> <Gold.Chemscore.Internal.Correction>
   9.000000E+99

> <Gold.Chemscore.Hbonds>
donor molecule, donor type, donor heavy atom, donor atom, acceptor molecule, acceptor atom, score
      P1  H  6896  6908       L1     9  0.02
      P1  H  6931  6943       L1     9  0.02
      P1  H  6934  6947       L1    17  0.37
      P1  H  7997  8010       L1     3  0.17

> <Gold.Chemscore.Hbond.Weighted>
-8.2655

> <Gold.Chemscore.Metal.Weighted>
-0.0000

> <Gold.Chemscore.Lipo.Weighted>
-10.9785

> <Gold.Chemscore.Internal_Hbond.Weighted>
0.0000

> <Gold.Chemscore.DEClash.Weighted>
0.6190

> <Gold.Chemscore.DEInternal.Weighted>
1.8650

> <Gold.Chemscore.Rot.Weighted>
4.3265

> <Gold.Chemscore.Internal.Correction.Weighted>
   9.000000E+99

> <Gold.Protein.RotatedTorsions>
[ 6907 6896 6895 6894 ] final -160.81 input  -60.11 | X-H torsion
[ 7974 7965 7964 7962 ] final   32.59 input  175.53 | X-H torsion
[ 8008 7997 7996 7995 ] final   63.51 input   59.86 | X-H torsion
[ 10167 10162 10161 10158 ] final  -89.99 input  -65.29 | X-H torsion
[ 10718 10713 10712 10709 ] final -150.38 input   66.30 | X-H torsion
[ 10763 10752 10751 10750 ] final  -81.55 input  -60.55 | X-H torsion
[ 11005 11000 10999 10996 ] final  -77.19 input  -57.11 | X-H torsion

> <Gold.Protein.ActiveResidues>
 VAL166  LYS551  ARG553  GLY616  TRP617  ASP618  TYR619  PRO620  LYS621  CYS622 
 ASP623  PHE694  ASN695  SER759  ASP760  ASP761  ALA762  ILE779  LEU786  VAL792 
 PHE793  MET794  SER795  GLU796  ALA797  LYS798  CYS799  TRP800  GLU811  SER814 

> <Gold.Protein.RotatedAtoms>
  151.3549  133.3911  159.2683 H   0  0  0  0  0  0  0  0  0  0  0  0  # atno 6907 bound_to 6896
  150.9771  134.9134  159.7833 H   0  0  0  0  0  0  0  0  0  0  0  0  # atno 6908 bound_to 6896
  152.5204  134.3513  159.9304 H   0  0  0  0  0  0  0  0  0  0  0  0  # atno 6909 bound_to 6896
  146.1476  139.6506  142.9120 H   0  0  0  0  0  0  0  0  0  0  0  0  # atno 7974 bound_to 7965
  155.6314  140.3496  155.4684 H   0  0  0  0  0  0  0  0  0  0  0  0  # atno 8008 bound_to 7997
  156.0000  140.1211  157.0580 H   0  0  0  0  0  0  0  0  0  0  0  0  # atno 8009 bound_to 7997
  154.4246  140.1102  156.5670 H   0  0  0  0  0  0  0  0  0  0  0  0  # atno 8010 bound_to 7997
  140.3594  143.2850  151.9633 H   0  0  0  0  0  0  0  0  0  0  0  0  # atno 10167 bound_to 10162
  156.4453  130.8142  151.2372 H   0  0  0  0  0  0  0  0  0  0  0  0  # atno 10718 bound_to 10713
  154.5650  135.5622  153.7042 H   0  0  0  0  0  0  0  0  0  0  0  0  # atno 10763 bound_to 10752
  153.0030  135.6283  154.2193 H   0  0  0  0  0  0  0  0  0  0  0  0  # atno 10764 bound_to 10752
  154.2131  135.2873  155.2931 H   0  0  0  0  0  0  0  0  0  0  0  0  # atno 10765 bound_to 10752
  141.1659  133.7013  156.7784 H   0  0  0  0  0  0  0  0  0  0  0  0  # atno 11005 bound_to 11000
  145.4900  141.0438  143.2598 LP  0  0  0  0  0  0  0  0  0  0  0  0  # atno 17320 bound_to 7965
  144.7865  139.6416  143.7132 LP  0  0  0  0  0  0  0  0  0  0  0  0  # atno 17321 bound_to 7965
  139.4816  144.6006  151.7612 LP  0  0  0  0  0  0  0  0  0  0  0  0  # atno 17342 bound_to 10162
  140.5142  144.0978  150.6003 LP  0  0  0  0  0  0  0  0  0  0  0  0  # atno 17343 bound_to 10162
  157.7505  131.0155  150.3507 LP  0  0  0  0  0  0  0  0  0  0  0  0  # atno 17370 bound_to 10713
  156.3873  130.3891  149.7056 LP  0  0  0  0  0  0  0  0  0  0  0  0  # atno 17371 bound_to 10713
  140.2413  134.8611  157.3576 LP  0  0  0  0  0  0  0  0  0  0  0  0  # atno 17394 bound_to 11000
  140.1793  134.4509  155.7782 LP  0  0  0  0  0  0  0  0  0  0  0  0  # atno 17395 bound_to 11000

$$$$
