AV-unprocessed.smi:48|AV-procd|sdf|462|dock2
  -GOLD-   2262016333D 1   1.00000     0.00000
 Structure written by MMmdl.
 30 32  0  0  0  0  0  0  0  0  1 V2000
  148.2204  135.9748  154.4557 O   0  0  0  0  0  0  0  0  0  0  0  0
  147.6854  137.2101  154.8804 C   0  0  0  0  0  0  0  0  0  0  0  0
  148.4835  138.3702  154.2663 C   0  0  2  0  0  0  0  0  0  0  0  0
  149.8243  138.3352  154.7392 O   0  0  0  0  0  0  0  0  0  0  0  0
  150.3929  139.6019  154.6186 C   0  0  2  0  0  0  0  0  0  0  0  0
  151.2313  139.8442  155.8312 N   0  0  0  0  0  0  0  0  0  0  0  0
  152.1727  139.0312  156.3526 C   0  0  0  0  0  0  0  0  0  0  0  0
  152.8003  139.4449  157.4527 N   0  0  0  0  0  0  0  0  0  0  0  0
  152.1881  140.6669  157.6770 C   0  0  0  0  0  0  0  0  0  0  0  0
  152.3564  141.6556  158.6766 C   0  0  0  0  0  0  0  0  0  0  0  0
  153.5166  141.4546  159.9380 Cl  0  0  0  0  0  0  0  0  0  0  0  0
  151.5846  142.7671  158.6212 N   0  0  0  0  0  0  0  0  0  0  0  0
  150.6925  142.8972  157.6317 C   0  0  0  0  0  0  0  0  0  0  0  0
  150.4254  142.0569  156.6255 N   0  0  0  0  0  0  0  0  0  0  0  0
  151.2048  140.9367  156.6829 C   0  0  0  0  0  0  0  0  0  0  0  0
  149.2487  140.6256  154.5196 C   0  0  1  0  0  0  0  0  0  0  0  0
  149.2481  141.2572  153.2521 O   0  0  0  0  0  0  0  0  0  0  0  0
  148.0141  139.7496  154.7316 C   0  0  1  0  0  0  0  0  0  0  0  0
  146.8687  140.2059  154.0359 O   0  0  0  0  0  0  0  0  0  0  0  0
  148.4801  138.3258  153.1752 H   0  0  0  0  0  0  0  0  0  0  0  0
  151.0896  139.6361  153.7792 H   0  0  0  0  0  0  0  0  0  0  0  0
  149.3326  141.3917  155.2919 H   0  0  0  0  0  0  0  0  0  0  0  0
  147.7783  139.7150  155.7954 H   0  0  0  0  0  0  0  0  0  0  0  0
  148.3239  135.9991  153.5169 H   0  0  0  0  0  0  0  0  0  0  0  0
  146.6486  137.2492  154.5451 H   0  0  0  0  0  0  0  0  0  0  0  0
  147.6759  137.2674  155.9694 H   0  0  0  0  0  0  0  0  0  0  0  0
  152.4137  138.0815  155.8978 H   0  0  0  0  0  0  0  0  0  0  0  0
  150.1095  143.8061  157.6461 H   0  0  0  0  0  0  0  0  0  0  0  0
  149.1486  140.5955  152.5852 H   0  0  0  0  0  0  0  0  0  0  0  0
  146.8333  141.1476  154.1030 H   0  0  0  0  0  0  0  0  0  0  0  0
  1  2  1  0  0  0  0
  1 24  1  0  0  0  0
  2  3  1  0  0  0  0
  2 25  1  0  0  0  0
  2 26  1  0  0  0  0
  3 20  1  0  0  0  0
  3 18  1  0  0  0  0
  3  4  1  0  0  0  0
  4  5  1  0  0  0  0
  5 21  1  0  0  0  0
  5  6  1  0  0  0  0
  5 16  1  0  0  0  0
  6 15  1  0  0  0  0
  6  7  1  0  0  0  0
  7  8  2  0  0  0  0
  7 27  1  0  0  0  0
  8  9  1  0  0  0  0
  9 15  2  0  0  0  0
  9 10  1  0  0  0  0
 10 11  1  0  0  0  0
 10 12  2  0  0  0  0
 12 13  1  0  0  0  0
 13 14  2  0  0  0  0
 13 28  1  0  0  0  0
 14 15  1  0  0  0  0
 16 22  1  0  0  0  0
 16 17  1  0  0  0  0
 16 18  1  0  0  0  0
 17 29  1  0  0  0  0
 18 23  1  0  0  0  0
 18 19  1  0  0  0  0
 19 30  1  0  0  0  0
M  END
> <s_m_source_file>
AV-unprocessed.smi

> <i_m_source_file_index>
48

> <i_lp_mmshare_version>
43012

> <i_f3d_flags>
0

> <s_epik_input>
W09IXVtDSDJdW0NASF0xT1tDQEhdKFtDQEhdKFtPSF0pW0NAQEhdMVtPSF0pbihbY0hdbjIpYyhjMjMpbltjSF1uYzNDbA==

> <s_epik_cmdline>
J2VwaWtfcHl0aG9uJywgJy1waCcsICc3LjAnLCAnLXRuJywgJzgnLCAnLW1hJywgJzIwMCcsICctbWV0YWxfYmluZGluZycsICctaW1hZScsICc8aW5maWxlLm1hZT4nLCAnLW9tYWUnLCAnPG91dGZpbGUubWFlPic=

> <r_lp_tautomer_probability>
1

> <r_epik_Ionization_Penalty>
3.45505e-06

> <r_epik_Ionization_Penalty_Charging>
0

> <r_epik_Ionization_Penalty_Neutral>
3.45505e-06

> <r_epik_State_Penalty>
-0

> <r_epik_Charging_Adjusted_Penalty>
0

> <i_epik_Tot_Q>
0

> <i_epik_Tot_abs_Q>
0

> <r_epik_Metal_State_Penalty>
-0

> <b_epik_Metal_Only>
0

> <s_epik_Chemistry_Notes>
This compound contains an acetal/aminal-like group ( X-CH(R)-Y where X, Y are N, S, or O) that may be acid/base labile, releasing an aldehyde.

> <s_lp_Force_Field>
OPLS_2005

> <r_lp_Energy>
36.5243

> <b_lp_Chiralities_Consistent>
1

> <s_lp_Variant>
AV-unprocessed.smi:48-16

> <Gold.Version>
5.8.1

> <Gold.Id.Protein>
6NUR|6NUR_protein|mol2

> <Gold.PLP.Fitness>
43.0783

> <Gold.PLP.PLP>
-28.9692

> <Gold.PLP.part.hbond>
-4.5640

> <Gold.PLP.part.metal>
0.0000

> <Gold.PLP.part.buried>
-2.3088

> <Gold.PLP.part.nonpolar>
-21.9482

> <Gold.PLP.part.repulsive>
0.3085

> <Gold.PLP.ligand.clash>
0.0000

> <Gold.PLP.ligand.torsion>
0.1971

> <Gold.PLP.Chemscore.Hbond>
3.9123

> <Gold.PLP.Chemscore.CHOScore>
0.9168

> <Gold.PLP.Chemscore.Metal>
0.0000

> <Gold.Chemscore.Hbonds>
donor molecule, donor type, donor heavy atom, donor atom, acceptor molecule, acceptor atom, score
      L1  H     1    24       P1  7948  1.00
      L1  H    17    29       P1  7957  0.94
      P1  H  7997  8010       L1     8  0.90
      P1  H  8011  8017       L1    17  0.90
      L1  C    13    28       P1  8028  0.90

> <Gold.PLP.Chemscore.Internal.Correction>
0.0161

> <Gold.Rescore>
     Score         DG    S(hbond)    S(metal)    S(lipo)     H(rot)  DE(clash)    DE(int)     intcor
      8.42     -10.00       2.80        0.00      41.79       3.80       0.14       1.44       ----

> <Gold.Chemscore.Fitness>
8.4235

> <Gold.Chemscore.DG>
-10.0033

> <Gold.Chemscore.ZeroCoef>
-5.4800

> <Gold.Chemscore.Hbond>
2.8044

> <Gold.Chemscore.Metal>
0.0000

> <Gold.Chemscore.Lipo>
41.7856

> <Gold.Chemscore.Internal_Hbond>
0.0000

> <Gold.Chemscore.DEClash>
0.1432

> <Gold.Chemscore.DEInternal>
1.4367

> <Gold.Chemscore.Rot>
3.8017

> <Gold.Chemscore.Internal.Correction>
   9.000000E+99

> <Gold.Chemscore.Hbonds>
donor molecule, donor type, donor heavy atom, donor atom, acceptor molecule, acceptor atom, score
      L1  H     1    24       P1  7948  1.00
      L1  H    17    29       P1  7957  0.89
      P1  H  7997  8010       L1     8  0.05
      P1  H  8011  8017       L1    17  0.17

> <Gold.Chemscore.Hbond.Weighted>
-9.3668

> <Gold.Chemscore.Metal.Weighted>
-0.0000

> <Gold.Chemscore.Lipo.Weighted>
-4.8889

> <Gold.Chemscore.Internal_Hbond.Weighted>
0.0000

> <Gold.Chemscore.DEClash.Weighted>
0.1432

> <Gold.Chemscore.DEInternal.Weighted>
1.4367

> <Gold.Chemscore.Rot.Weighted>
9.7324

> <Gold.Chemscore.Internal.Correction.Weighted>
   9.000000E+99

> <Gold.Protein.RotatedTorsions>
[ 6907 6896 6895 6894 ] final  102.04 input  -60.11 | X-H torsion
[ 7974 7965 7964 7962 ] final  152.02 input  175.53 | X-H torsion
[ 8008 7997 7996 7995 ] final   57.38 input   59.86 | X-H torsion
[ 10167 10162 10161 10158 ] final   20.59 input  -65.29 | X-H torsion
[ 10718 10713 10712 10709 ] final  -63.51 input   66.30 | X-H torsion
[ 10763 10752 10751 10750 ] final  -82.35 input  -60.55 | X-H torsion
[ 11005 11000 10999 10996 ] final  107.84 input  -57.11 | X-H torsion

> <Gold.Protein.ActiveResidues>
 VAL166  LYS551  ARG553  GLY616  TRP617  ASP618  TYR619  PRO620  LYS621  CYS622 
 ASP623  PHE694  ASN695  SER759  ASP760  ASP761  ALA762  ILE779  LEU786  VAL792 
 PHE793  MET794  SER795  GLU796  ALA797  LYS798  CYS799  TRP800  GLU811  SER814 

> <Gold.Protein.RotatedAtoms>
  152.5334  134.0036  159.7905 H   0  0  0  0  0  0  0  0  0  0  0  0  # atno 6907 bound_to 6896
  151.0250  133.5834  159.2674 H   0  0  0  0  0  0  0  0  0  0  0  0  # atno 6908 bound_to 6896
  151.2859  135.0735  159.9240 H   0  0  0  0  0  0  0  0  0  0  0  0  # atno 6909 bound_to 6896
  144.8251  139.6614  143.6083 H   0  0  0  0  0  0  0  0  0  0  0  0  # atno 7974 bound_to 7965
  155.5329  140.3482  155.4430 H   0  0  0  0  0  0  0  0  0  0  0  0  # atno 8008 bound_to 7997
  156.0706  140.1362  156.9860 H   0  0  0  0  0  0  0  0  0  0  0  0  # atno 8009 bound_to 7997
  154.4526  140.0966  156.6637 H   0  0  0  0  0  0  0  0  0  0  0  0  # atno 8010 bound_to 7997
  140.5492  143.9539  150.6567 H   0  0  0  0  0  0  0  0  0  0  0  0  # atno 10167 bound_to 10162
  156.0786  130.4221  150.1288 H   0  0  0  0  0  0  0  0  0  0  0  0  # atno 10718 bound_to 10713
  154.5747  135.5594  153.7128 H   0  0  0  0  0  0  0  0  0  0  0  0  # atno 10763 bound_to 10752
  153.0060  135.6305  154.2066 H   0  0  0  0  0  0  0  0  0  0  0  0  # atno 10764 bound_to 10752
  154.2006  135.2878  155.2972 H   0  0  0  0  0  0  0  0  0  0  0  0  # atno 10765 bound_to 10752
  139.8834  134.9413  156.5881 H   0  0  0  0  0  0  0  0  0  0  0  0  # atno 11005 bound_to 11000
  146.2556  139.6296  142.9397 LP  0  0  0  0  0  0  0  0  0  0  0  0  # atno 17320 bound_to 7965
  145.5018  141.0437  143.2536 LP  0  0  0  0  0  0  0  0  0  0  0  0  # atno 17321 bound_to 7965
  140.2961  143.3292  152.1017 LP  0  0  0  0  0  0  0  0  0  0  0  0  # atno 17342 bound_to 10162
  139.5020  144.6726  151.6207 LP  0  0  0  0  0  0  0  0  0  0  0  0  # atno 17343 bound_to 10162
  156.9324  130.9718  151.3530 LP  0  0  0  0  0  0  0  0  0  0  0  0  # atno 17370 bound_to 10713
  157.5893  130.8432  149.8636 LP  0  0  0  0  0  0  0  0  0  0  0  0  # atno 17371 bound_to 10713
  140.7976  133.8531  155.8699 LP  0  0  0  0  0  0  0  0  0  0  0  0  # atno 17394 bound_to 11000
  140.9621  134.1642  157.4645 LP  0  0  0  0  0  0  0  0  0  0  0  0  # atno 17395 bound_to 11000

$$$$
