AV-unprocessed.smi:2293|AV-procd|sdf|9215|dock6
  -GOLD-   2272012433D 1   1.00000     0.00000
 Structure written by MMmdl.
 34 35  0  0  0  0  0  0  0  0  1 V2000
  153.4961  142.9811  163.2679 C   0  0  0  0  0  0  0  0  0  0  0  0
  153.1167  142.7177  161.8215 C   0  0  0  0  0  0  0  0  0  0  0  0
  152.1344  143.5594  161.2924 N   0  0  0  0  0  0  0  0  0  0  0  0
  151.7490  143.4095  160.0675 C   0  0  0  0  0  0  0  0  0  0  0  0
  152.2907  142.4123  159.2389 N   0  0  0  0  0  0  0  0  0  0  0  0
  151.7690  142.3525  157.8623 C   0  0  0  0  0  0  0  0  0  0  0  0
  150.3485  141.7464  157.7972 C   0  0  1  0  0  0  0  0  0  0  0  0
  149.3993  142.7938  157.8172 O   0  0  0  0  0  0  0  0  0  0  0  0
  150.1813  140.8815  156.5571 C   0  0  0  0  0  0  0  0  0  0  0  0
  149.0639  141.0491  155.7091 C   0  0  0  0  0  0  0  0  0  0  0  0
  148.9181  140.2485  154.5595 C   0  0  0  0  0  0  0  0  0  0  0  0
  149.8893  139.2775  154.2494 C   0  0  0  0  0  0  0  0  0  0  0  0
  151.0078  139.1091  155.0881 C   0  0  0  0  0  0  0  0  0  0  0  0
  151.9439  138.1777  154.7888 F   0  0  0  0  0  0  0  0  0  0  0  0
  151.1539  139.9093  156.2380 C   0  0  0  0  0  0  0  0  0  0  0  0
  153.2531  141.5494  159.6755 C   0  0  0  0  0  0  0  0  0  0  0  0
  153.7241  140.6778  158.9427 O   0  0  0  0  0  0  0  0  0  0  0  0
  153.6837  141.7338  161.0711 C   0  0  0  0  0  0  0  0  0  0  0  0
  154.7583  140.7884  161.5938 C   0  0  0  0  0  0  0  0  0  0  0  0
  154.5528  143.2376  163.3448 H   0  0  0  0  0  0  0  0  0  0  0  0
  153.3049  142.0993  163.8798 H   0  0  0  0  0  0  0  0  0  0  0  0
  152.9206  143.8082  163.6854 H   0  0  0  0  0  0  0  0  0  0  0  0
  150.9908  144.0433  159.6043 H   0  0  0  0  0  0  0  0  0  0  0  0
  151.7958  143.3263  157.3693 H   0  0  0  0  0  0  0  0  0  0  0  0
  152.4454  141.7354  157.2669 H   0  0  0  0  0  0  0  0  0  0  0  0
  150.1684  141.1239  158.6747 H   0  0  0  0  0  0  0  0  0  0  0  0
  149.2478  143.0790  156.9290 H   0  0  0  0  0  0  0  0  0  0  0  0
  148.3159  141.7944  155.9376 H   0  0  0  0  0  0  0  0  0  0  0  0
  148.0614  140.3803  153.9151 H   0  0  0  0  0  0  0  0  0  0  0  0
  149.7773  138.6632  153.3681 H   0  0  0  0  0  0  0  0  0  0  0  0
  152.0167  139.7730  156.8736 H   0  0  0  0  0  0  0  0  0  0  0  0
  154.4074  139.7571  161.5445 H   0  0  0  0  0  0  0  0  0  0  0  0
  155.0426  140.9889  162.6252 H   0  0  0  0  0  0  0  0  0  0  0  0
  155.6593  140.8694  160.9849 H   0  0  0  0  0  0  0  0  0  0  0  0
  1  2  1  0  0  0  0
  1 20  1  0  0  0  0
  1 21  1  0  0  0  0
  1 22  1  0  0  0  0
  2 18  2  0  0  0  0
  2  3  1  0  0  0  0
  3  4  2  0  0  0  0
  4  5  1  0  0  0  0
  4 23  1  0  0  0  0
  5  6  1  0  0  0  0
  5 16  1  0  0  0  0
  6  7  1  0  0  0  0
  6 24  1  0  0  0  0
  6 25  1  0  0  0  0
  7  8  1  0  0  0  0
  7  9  1  0  0  0  0
  7 26  1  0  0  0  0
  8 27  1  0  0  0  0
  9 15  1  0  0  0  0
  9 10  2  0  0  0  0
 10 11  1  0  0  0  0
 10 28  1  0  0  0  0
 11 12  2  0  0  0  0
 11 29  1  0  0  0  0
 12 13  1  0  0  0  0
 12 30  1  0  0  0  0
 13 14  1  0  0  0  0
 13 15  2  0  0  0  0
 15 31  1  0  0  0  0
 16 17  2  0  0  0  0
 16 18  1  0  0  0  0
 18 19  1  0  0  0  0
 19 32  1  0  0  0  0
 19 33  1  0  0  0  0
 19 34  1  0  0  0  0
M  END
> <s_m_source_file>
AV-unprocessed.smi

> <i_m_source_file_index>
2293

> <i_lp_mmshare_version>
43012

> <i_f3d_flags>
0

> <s_epik_input>
W0NIM11jMW5bY0hdbihjKD1PKWMxW0NIM10pW0NIMl1bQ0BIXShbT0hdKWMyW2NIXVtjSF1bY0hdYyhGKVtjSF0y

> <s_epik_cmdline>
J2VwaWtfcHl0aG9uJywgJy1waCcsICc3LjAnLCAnLXRuJywgJzgnLCAnLW1hJywgJzIwMCcsICctbWV0YWxfYmluZGluZycsICctaW1hZScsICc8aW5maWxlLm1hZT4nLCAnLW9tYWUnLCAnPG91dGZpbGUubWFlPic=

> <r_lp_tautomer_probability>
1

> <r_epik_Ionization_Penalty>
5.08222e-05

> <r_epik_Ionization_Penalty_Charging>
7.56727e-08

> <r_epik_Ionization_Penalty_Neutral>
5.07465e-05

> <r_epik_State_Penalty>
-0

> <r_epik_Charging_Adjusted_Penalty>
7.56727e-08

> <i_epik_Tot_Q>
0

> <i_epik_Tot_abs_Q>
0

> <r_epik_Metal_State_Penalty>
-0

> <b_epik_Metal_Only>
0

> <s_lp_Force_Field>
OPLS_2005

> <r_lp_Energy>
19.6901

> <b_lp_Chiralities_Consistent>
1

> <s_lp_Variant>
AV-unprocessed.smi:2293-2

> <Gold.Version>
5.8.1

> <Gold.Id.Protein>
6NUR|6NUR_protein|mol2

> <Gold.PLP.Fitness>
49.1153

> <Gold.PLP.PLP>
-46.3839

> <Gold.PLP.part.hbond>
-2.1140

> <Gold.PLP.part.metal>
0.0000

> <Gold.PLP.part.buried>
-1.3773

> <Gold.PLP.part.nonpolar>
-41.5407

> <Gold.PLP.part.repulsive>
0.1243

> <Gold.PLP.ligand.clash>
0.0000

> <Gold.PLP.ligand.torsion>
0.8588

> <Gold.PLP.Chemscore.Hbond>
1.4791

> <Gold.PLP.Chemscore.CHOScore>
0.0000

> <Gold.PLP.Chemscore.Metal>
0.0000

> <Gold.Chemscore.Hbonds>
donor molecule, donor type, donor heavy atom, donor atom, acceptor molecule, acceptor atom, score
      L1  H     8    27       P1  8028  0.76
      P1  H  7997  8009       L1    17  0.51

> <Gold.PLP.Chemscore.Internal.Correction>
0.0117

> <Gold.Rescore>
     Score         DG    S(hbond)    S(metal)    S(lipo)     H(rot)  DE(clash)    DE(int)     intcor
     15.22     -16.64       1.57        0.00      94.82       2.02       0.73       0.70       ----

> <Gold.Chemscore.Fitness>
15.2201

> <Gold.Chemscore.DG>
-16.6448

> <Gold.Chemscore.ZeroCoef>
-5.4800

> <Gold.Chemscore.Hbond>
1.5682

> <Gold.Chemscore.Metal>
0.0000

> <Gold.Chemscore.Lipo>
94.8156

> <Gold.Chemscore.Internal_Hbond>
0.0000

> <Gold.Chemscore.DEClash>
0.7260

> <Gold.Chemscore.DEInternal>
0.6987

> <Gold.Chemscore.Rot>
2.0181

> <Gold.Chemscore.Internal.Correction>
   9.000000E+99

> <Gold.Chemscore.Hbonds>
donor molecule, donor type, donor heavy atom, donor atom, acceptor molecule, acceptor atom, score
      L1  H     8    27       P1  8028  0.69
      P1  H  7997  8009       L1    17  0.52

> <Gold.Chemscore.Hbond.Weighted>
-5.2377

> <Gold.Chemscore.Metal.Weighted>
-0.0000

> <Gold.Chemscore.Lipo.Weighted>
-11.0934

> <Gold.Chemscore.Internal_Hbond.Weighted>
0.0000

> <Gold.Chemscore.DEClash.Weighted>
0.7260

> <Gold.Chemscore.DEInternal.Weighted>
0.6987

> <Gold.Chemscore.Rot.Weighted>
5.1663

> <Gold.Chemscore.Internal.Correction.Weighted>
   9.000000E+99

> <Gold.Protein.RotatedTorsions>
[ 6907 6896 6895 6894 ] final    7.01 input  -60.11 | X-H torsion
[ 7974 7965 7964 7962 ] final -144.35 input  175.53 | X-H torsion
[ 8008 7997 7996 7995 ] final  141.33 input   59.86 | X-H torsion
[ 10167 10162 10161 10158 ] final   12.17 input  -65.29 | X-H torsion
[ 10718 10713 10712 10709 ] final  119.95 input   66.30 | X-H torsion
[ 10763 10752 10751 10750 ] final  -62.00 input  -60.55 | X-H torsion
[ 11005 11000 10999 10996 ] final  -53.27 input  -57.11 | X-H torsion

> <Gold.Protein.ActiveResidues>
 VAL166  LYS551  ARG553  GLY616  TRP617  ASP618  TYR619  PRO620  LYS621  CYS622 
 ASP623  PHE694  ASN695  SER759  ASP760  ASP761  ALA762  ILE779  LEU786  VAL792 
 PHE793  MET794  SER795  GLU796  ALA797  LYS798  CYS799  TRP800  GLU811  SER814 

> <Gold.Protein.RotatedAtoms>
  151.6830  135.0959  160.0219 H   0  0  0  0  0  0  0  0  0  0  0  0  # atno 6907 bound_to 6896
  152.3824  133.6560  159.6180 H   0  0  0  0  0  0  0  0  0  0  0  0  # atno 6908 bound_to 6896
  150.7758  133.9008  159.3382 H   0  0  0  0  0  0  0  0  0  0  0  0  # atno 6909 bound_to 6896
  144.8303  140.5720  143.5519 H   0  0  0  0  0  0  0  0  0  0  0  0  # atno 7974 bound_to 7965
  156.2967  140.2318  156.4547 H   0  0  0  0  0  0  0  0  0  0  0  0  # atno 8008 bound_to 7997
  154.8070  140.0445  157.1336 H   0  0  0  0  0  0  0  0  0  0  0  0  # atno 8009 bound_to 7997
  154.9467  140.3036  155.5098 H   0  0  0  0  0  0  0  0  0  0  0  0  # atno 8010 bound_to 7997
  140.6085  143.8458  150.7039 H   0  0  0  0  0  0  0  0  0  0  0  0  # atno 10167 bound_to 10162
  157.5926  131.1062  150.7967 H   0  0  0  0  0  0  0  0  0  0  0  0  # atno 10718 bound_to 10713
  154.2932  135.6249  153.5394 H   0  0  0  0  0  0  0  0  0  0  0  0  # atno 10763 bound_to 10752
  152.9850  135.5660  154.5367 H   0  0  0  0  0  0  0  0  0  0  0  0  # atno 10764 bound_to 10752
  154.4982  135.2870  155.1418 H   0  0  0  0  0  0  0  0  0  0  0  0  # atno 10765 bound_to 10752
  141.0967  133.6623  156.4148 H   0  0  0  0  0  0  0  0  0  0  0  0  # atno 11005 bound_to 11000
  145.4909  139.1489  143.3710 LP  0  0  0  0  0  0  0  0  0  0  0  0  # atno 17320 bound_to 7965
  146.2607  140.5047  142.8855 LP  0  0  0  0  0  0  0  0  0  0  0  0  # atno 17321 bound_to 7965
  140.2020  143.3951  152.1784 LP  0  0  0  0  0  0  0  0  0  0  0  0  # atno 17342 bound_to 10162
  139.5343  144.7193  151.4947 LP  0  0  0  0  0  0  0  0  0  0  0  0  # atno 17343 bound_to 10162
  156.8386  130.5040  149.5323 LP  0  0  0  0  0  0  0  0  0  0  0  0  # atno 17370 bound_to 10713
  156.0983  130.5949  150.9850 LP  0  0  0  0  0  0  0  0  0  0  0  0  # atno 17371 bound_to 10713
  140.5122  134.6384  157.5288 LP  0  0  0  0  0  0  0  0  0  0  0  0  # atno 17394 bound_to 11000
  139.9806  134.7143  155.9866 LP  0  0  0  0  0  0  0  0  0  0  0  0  # atno 17395 bound_to 11000

$$$$
