AV-unprocessed.smi:1013|AV-procd|sdf|4429|dock10
  -GOLD-   22720 2383D 1   1.00000     0.00000
 Structure written by MMmdl.
 29 30  0  0  0  0  0  0  0  0  2 V2000
  152.1360  137.1027  159.4167 O   0  0  0  0  0  0  0  0  0  0  0  0
  153.0000  137.9010  158.9884 C   0  0  0  0  0  0  0  0  0  0  0  0
  154.1256  137.5770  158.5510 O   0  5  0  0  0  0  0  0  0  0  0  0
  152.6629  139.3985  158.9822 C   0  0  1  0  0  0  0  0  0  0  0  0
  153.6190  140.1378  159.9491 C   0  0  0  0  0  0  0  0  0  0  0  0
  153.2611  141.5264  160.1720 N   0  0  0  0  0  0  0  0  0  0  0  0
  153.2990  142.2413  161.3492 C   0  0  0  0  0  0  0  0  0  0  0  0
  152.8641  143.5049  161.0699 C   0  0  0  0  0  0  0  0  0  0  0  0
  152.5691  143.4698  159.6758 C   0  0  0  0  0  0  0  0  0  0  0  0
  152.0493  144.5806  158.8023 C   0  0  0  0  0  0  0  0  0  0  0  0
  152.0199  145.7237  159.4873 F   0  0  0  0  0  0  0  0  0  0  0  0
  152.8368  144.7392  157.7384 F   0  0  0  0  0  0  0  0  0  0  0  0
  150.8170  144.2926  158.3833 F   0  0  0  0  0  0  0  0  0  0  0  0
  152.8047  142.2769  159.1467 N   0  0  0  0  0  0  0  0  0  0  0  0
  152.7346  139.9377  157.6128 N   0  0  0  0  0  0  0  0  0  0  0  0
  151.8488  139.2236  156.7103 C   0  0  0  0  0  0  0  0  0  0  0  0
  152.3837  137.9774  156.0462 C   0  0  0  0  0  0  0  0  0  0  0  0
  152.2024  139.2447  155.2432 C   0  0  0  0  0  0  0  0  0  0  0  0
  151.6369  139.4786  159.3460 H   0  0  0  0  0  0  0  0  0  0  0  0
  153.6312  139.6459  160.9235 H   0  0  0  0  0  0  0  0  0  0  0  0
  154.6431  140.0979  159.5747 H   0  0  0  0  0  0  0  0  0  0  0  0
  153.6339  141.7974  162.2751 H   0  0  0  0  0  0  0  0  0  0  0  0
  152.7699  144.3313  161.7584 H   0  0  0  0  0  0  0  0  0  0  0  0
  153.6810  139.8804  157.2639 H   0  0  0  0  0  0  0  0  0  0  0  0
  150.7813  139.2177  156.9159 H   0  0  0  0  0  0  0  0  0  0  0  0
  153.4015  137.6719  156.2820 H   0  0  0  0  0  0  0  0  0  0  0  0
  151.6822  137.1642  155.8715 H   0  0  0  0  0  0  0  0  0  0  0  0
  151.3814  139.2740  154.5298 H   0  0  0  0  0  0  0  0  0  0  0  0
  153.1007  139.7802  154.9417 H   0  0  0  0  0  0  0  0  0  0  0  0
  1  2  2  0  0  0  0
  2  3  1  0  0  0  0
  2  4  1  0  0  0  0
  4  5  1  0  0  0  0
  4 15  1  0  0  0  0
  4 19  1  0  0  0  0
  5  6  1  0  0  0  0
  5 20  1  0  0  0  0
  5 21  1  0  0  0  0
  6 14  1  0  0  0  0
  6  7  1  0  0  0  0
  7  8  2  0  0  0  0
  7 22  1  0  0  0  0
  8  9  1  0  0  0  0
  8 23  1  0  0  0  0
  9 10  1  0  0  0  0
  9 14  2  0  0  0  0
 10 11  1  0  0  0  0
 10 12  1  0  0  0  0
 10 13  1  0  0  0  0
 15 16  1  0  0  0  0
 15 24  1  0  0  0  0
 16 18  1  0  0  0  0
 16 17  1  0  0  0  0
 16 25  1  0  0  0  0
 17 18  1  0  0  0  0
 17 26  1  0  0  0  0
 17 27  1  0  0  0  0
 18 28  1  0  0  0  0
 18 29  1  0  0  0  0
M  CHG  1   3  -1
M  END
> <s_m_source_file>
AV-unprocessed.smi

> <i_m_source_file_index>
1013

> <i_lp_mmshare_version>
43012

> <i_f3d_flags>
0

> <s_epik_input>
W0NIMl0xW0NIMl1bQ0hdMVtOSF1bQ0BIXShDKD1PKVtPSF0pW0NIMl1uMltjSF1bY0hdYyhuMilDKEYpKEYpRg==

> <s_epik_cmdline>
J2VwaWtfcHl0aG9uJywgJy1waCcsICc3LjAnLCAnLXRuJywgJzgnLCAnLW1hJywgJzIwMCcsICctbWV0YWxfYmluZGluZycsICctaW1hZScsICc8aW5maWxlLm1hZT4nLCAnLW9tYWUnLCAnPG91dGZpbGUubWFlPic=

> <r_lp_tautomer_probability>
1

> <r_epik_Ionization_Penalty>
0.786284

> <r_epik_Ionization_Penalty_Charging>
0.00153368

> <r_epik_Ionization_Penalty_Neutral>
0.78475

> <r_epik_State_Penalty>
0.814638

> <r_epik_Charging_Adjusted_Penalty>
0.816172

> <i_epik_Tot_Q>
-1

> <i_epik_Tot_abs_Q>
1

> <r_epik_Metal_State_Penalty>
0.814638

> <b_epik_Metal_Only>
0

> <s_lp_Force_Field>
OPLS_2005

> <r_lp_Energy>
17.111

> <b_lp_Chiralities_Consistent>
1

> <s_lp_Variant>
AV-unprocessed.smi:1013-4

> <Gold.Version>
5.8.1

> <Gold.Id.Protein>
6NUR|6NUR_protein|mol2

> <Gold.PLP.Fitness>
51.5273

> <Gold.PLP.PLP>
-46.3812

> <Gold.PLP.part.hbond>
-2.0000

> <Gold.PLP.part.metal>
0.0000

> <Gold.PLP.part.buried>
-5.5276

> <Gold.PLP.part.nonpolar>
-38.9269

> <Gold.PLP.part.repulsive>
0.0000

> <Gold.PLP.ligand.clash>
0.0000

> <Gold.PLP.ligand.torsion>
0.7608

> <Gold.PLP.Chemscore.Hbond>
2.0000

> <Gold.PLP.Chemscore.CHOScore>
0.0000

> <Gold.PLP.Chemscore.Metal>
0.0000

> <Gold.Chemscore.Hbonds>
donor molecule, donor type, donor heavy atom, donor atom, acceptor molecule, acceptor atom, score
      P1  H  6896  6909       L1     1  1.66

> <Gold.PLP.Chemscore.Internal.Correction>
0.6677

> <Gold.Rescore>
     Score         DG    S(hbond)    S(metal)    S(lipo)     H(rot)  DE(clash)    DE(int)     intcor
     11.04     -11.66       0.99        0.00      79.61       2.52       0.00       0.62       ----

> <Gold.Chemscore.Fitness>
11.0361

> <Gold.Chemscore.DG>
-11.6580

> <Gold.Chemscore.ZeroCoef>
-5.4800

> <Gold.Chemscore.Hbond>
0.9893

> <Gold.Chemscore.Metal>
0.0000

> <Gold.Chemscore.Lipo>
79.6072

> <Gold.Chemscore.Internal_Hbond>
0.0000

> <Gold.Chemscore.DEClash>
0.0000

> <Gold.Chemscore.DEInternal>
0.6219

> <Gold.Chemscore.Rot>
2.5157

> <Gold.Chemscore.Internal.Correction>
   9.000000E+99

> <Gold.Chemscore.Hbonds>
donor molecule, donor type, donor heavy atom, donor atom, acceptor molecule, acceptor atom, score
      P1  H  6896  6909       L1     1  0.78

> <Gold.Chemscore.Hbond.Weighted>
-3.3041

> <Gold.Chemscore.Metal.Weighted>
-0.0000

> <Gold.Chemscore.Lipo.Weighted>
-9.3140

> <Gold.Chemscore.Internal_Hbond.Weighted>
0.0000

> <Gold.Chemscore.DEClash.Weighted>
0.0000

> <Gold.Chemscore.DEInternal.Weighted>
0.6219

> <Gold.Chemscore.Rot.Weighted>
6.4402

> <Gold.Chemscore.Internal.Correction.Weighted>
   9.000000E+99

> <Gold.Protein.RotatedTorsions>
[ 6907 6896 6895 6894 ] final  115.74 input  -60.11 | X-H torsion
[ 7974 7965 7964 7962 ] final  -91.85 input  175.53 | X-H torsion
[ 8008 7997 7996 7995 ] final  120.00 input   59.86 | X-H torsion
[ 10167 10162 10161 10158 ] final   62.31 input  -65.29 | X-H torsion
[ 10718 10713 10712 10709 ] final   -4.10 input   66.30 | X-H torsion
[ 10763 10752 10751 10750 ] final  165.05 input  -60.55 | X-H torsion
[ 11005 11000 10999 10996 ] final   94.52 input  -57.11 | X-H torsion

> <Gold.Protein.ActiveResidues>
 VAL166  LYS551  ARG553  GLY616  TRP617  ASP618  TYR619  PRO620  LYS621  CYS622 
 ASP623  PHE694  ASN695  SER759  ASP760  ASP761  ALA762  ILE779  LEU786  VAL792 
 PHE793  MET794  SER795  GLU796  ALA797  LYS798  CYS799  TRP800  GLU811  SER814 

> <Gold.Protein.RotatedAtoms>
  152.4722  133.8056  159.6975 H   0  0  0  0  0  0  0  0  0  0  0  0  # atno 6907 bound_to 6896
  150.8718  133.7485  159.2965 H   0  0  0  0  0  0  0  0  0  0  0  0  # atno 6908 bound_to 6896
  151.5017  135.1065  159.9883 H   0  0  0  0  0  0  0  0  0  0  0  0  # atno 6909 bound_to 6896
  145.4076  140.9542  143.2252 H   0  0  0  0  0  0  0  0  0  0  0  0  # atno 7974 bound_to 7965
  156.2622  140.2840  156.1080 H   0  0  0  0  0  0  0  0  0  0  0  0  # atno 8008 bound_to 7997
  155.1288  140.0393  157.2787 H   0  0  0  0  0  0  0  0  0  0  0  0  # atno 8009 bound_to 7997
  154.6615  140.2567  155.7110 H   0  0  0  0  0  0  0  0  0  0  0  0  # atno 8010 bound_to 7997
  140.1453  144.4515  150.6789 H   0  0  0  0  0  0  0  0  0  0  0  0  # atno 10167 bound_to 10162
  156.7662  130.5285  149.5776 H   0  0  0  0  0  0  0  0  0  0  0  0  # atno 10718 bound_to 10713
  154.3182  135.2756  155.2533 H   0  0  0  0  0  0  0  0  0  0  0  0  # atno 10763 bound_to 10752
  154.4898  135.5836  153.6454 H   0  0  0  0  0  0  0  0  0  0  0  0  # atno 10764 bound_to 10752
  152.9880  135.6132  154.3364 H   0  0  0  0  0  0  0  0  0  0  0  0  # atno 10765 bound_to 10752
  139.8798  134.8850  156.3876 H   0  0  0  0  0  0  0  0  0  0  0  0  # atno 11005 bound_to 11000
  144.8331  139.5596  143.6935 LP  0  0  0  0  0  0  0  0  0  0  0  0  # atno 17320 bound_to 7965
  146.2721  139.6660  142.9289 LP  0  0  0  0  0  0  0  0  0  0  0  0  # atno 17321 bound_to 7965
  140.6736  143.2295  151.5564 LP  0  0  0  0  0  0  0  0  0  0  0  0  # atno 17342 bound_to 10162
  139.5452  144.2540  152.1428 LP  0  0  0  0  0  0  0  0  0  0  0  0  # atno 17343 bound_to 10162
  156.1307  130.6176  151.0329 LP  0  0  0  0  0  0  0  0  0  0  0  0  # atno 17370 bound_to 10713
  157.6712  131.0861  150.7608 LP  0  0  0  0  0  0  0  0  0  0  0  0  # atno 17371 bound_to 10713
  140.9355  133.7550  156.0079 LP  0  0  0  0  0  0  0  0  0  0  0  0  # atno 17394 bound_to 11000
  140.8281  134.3211  157.5358 LP  0  0  0  0  0  0  0  0  0  0  0  0  # atno 17395 bound_to 11000

$$$$
