AV-unprocessed.smi:111|AV-procd|sdf|1079|dock1
  -GOLD-   2262018163D 1   1.00000     0.00000
 Structure written by MMmdl.
 46 48  0  0  0  0  0  0  0  0  1 V2000
  151.7970  138.2111  155.9702 O   0  0  0  0  0  0  0  0  0  0  0  0
  151.5979  139.2953  156.5212 C   0  0  0  0  0  0  0  0  0  0  0  0
  152.0573  139.6031  157.8707 C   0  0  0  0  0  0  0  0  0  0  0  0
  152.7495  138.6830  158.5633 F   0  0  0  0  0  0  0  0  0  0  0  0
  151.7932  140.7977  158.4408 C   0  0  0  0  0  0  0  0  0  0  0  0
  151.0815  141.7984  157.8016 N   0  0  0  0  0  0  0  0  0  0  0  0
  150.7918  143.1133  158.4895 C   0  0  2  0  0  0  0  0  0  0  0  0
  151.4530  144.2673  157.7283 C   0  0  0  0  0  0  0  0  0  0  0  0
  152.7548  144.4336  158.4820 C   0  0  0  0  0  0  0  0  0  0  0  0
  152.3286  144.1017  159.9075 C   0  0  0  0  0  0  0  0  0  0  0  0
  151.3395  143.0843  159.7764 O   0  0  0  0  0  0  0  0  0  0  0  0
  150.6234  141.6004  156.4806 C   0  0  0  0  0  0  0  0  0  0  0  0
  150.0163  142.4942  155.8868 O   0  0  0  0  0  0  0  0  0  0  0  0
  150.8905  140.3447  155.8831 N   0  0  0  0  0  0  0  0  0  0  0  0
  150.3932  140.0905  154.5380 C   0  0  0  0  0  0  0  0  0  0  0  0
  149.1709  139.1430  154.4859 C   0  0  2  0  0  0  0  0  0  0  0  0
  149.1690  138.5057  153.2248 O   0  0  0  0  0  0  0  0  0  0  0  0
  147.8057  139.8393  154.7030 C   0  0  0  0  0  0  0  0  0  0  0  0
  147.5492  141.0237  153.7550 C   0  0  0  0  0  0  0  0  0  0  0  0
  146.4690  141.9678  154.2550 C   0  0  0  0  0  0  0  0  0  0  0  0
  146.0156  143.0299  153.4440 C   0  0  0  0  0  0  0  0  0  0  0  0
  145.0130  143.9007  153.9130 C   0  0  0  0  0  0  0  0  0  0  0  0
  144.4625  143.7164  155.1960 C   0  0  0  0  0  0  0  0  0  0  0  0
  144.9146  142.6601  156.0098 C   0  0  0  0  0  0  0  0  0  0  0  0
  145.9155  141.7877  155.5404 C   0  0  0  0  0  0  0  0  0  0  0  0
  152.1585  140.9657  159.4428 H   0  0  0  0  0  0  0  0  0  0  0  0
  149.7058  143.1926  158.5603 H   0  0  0  0  0  0  0  0  0  0  0  0
  151.5758  144.0500  156.6665 H   0  0  0  0  0  0  0  0  0  0  0  0
  150.8317  145.1568  157.8384 H   0  0  0  0  0  0  0  0  0  0  0  0
  153.4917  143.7117  158.1279 H   0  0  0  0  0  0  0  0  0  0  0  0
  153.1814  145.4322  158.3859 H   0  0  0  0  0  0  0  0  0  0  0  0
  153.1609  143.7726  160.5300 H   0  0  0  0  0  0  0  0  0  0  0  0
  151.8733  144.9733  160.3799 H   0  0  0  0  0  0  0  0  0  0  0  0
  150.1893  141.0403  154.0427 H   0  0  0  0  0  0  0  0  0  0  0  0
  151.2374  139.6717  153.9860 H   0  0  0  0  0  0  0  0  0  0  0  0
  149.3025  138.3437  155.2143 H   0  0  0  0  0  0  0  0  0  0  0  0
  149.6040  139.0690  152.6031 H   0  0  0  0  0  0  0  0  0  0  0  0
  146.9864  139.1290  154.6098 H   0  0  0  0  0  0  0  0  0  0  0  0
  147.7373  140.2009  155.7301 H   0  0  0  0  0  0  0  0  0  0  0  0
  148.4695  141.5967  153.6370 H   0  0  0  0  0  0  0  0  0  0  0  0
  147.2925  140.6589  152.7595 H   0  0  0  0  0  0  0  0  0  0  0  0
  146.4307  143.1768  152.4577 H   0  0  0  0  0  0  0  0  0  0  0  0
  144.6639  144.7083  153.2867 H   0  0  0  0  0  0  0  0  0  0  0  0
  143.6910  144.3820  155.5540 H   0  0  0  0  0  0  0  0  0  0  0  0
  144.4893  142.5147  156.9919 H   0  0  0  0  0  0  0  0  0  0  0  0
  146.2536  140.9758  156.1673 H   0  0  0  0  0  0  0  0  0  0  0  0
  1  2  2  0  0  0  0
  2 14  1  0  0  0  0
  2  3  1  0  0  0  0
  3  4  1  0  0  0  0
  3  5  2  0  0  0  0
  5  6  1  0  0  0  0
  5 26  1  0  0  0  0
  6  7  1  0  0  0  0
  6 12  1  0  0  0  0
  7 11  1  0  0  0  0
  7  8  1  0  0  0  0
  7 27  1  0  0  0  0
  8  9  1  0  0  0  0
  8 28  1  0  0  0  0
  8 29  1  0  0  0  0
  9 10  1  0  0  0  0
  9 30  1  0  0  0  0
  9 31  1  0  0  0  0
 10 11  1  0  0  0  0
 10 32  1  0  0  0  0
 10 33  1  0  0  0  0
 12 13  2  0  0  0  0
 12 14  1  0  0  0  0
 14 15  1  0  0  0  0
 15 16  1  0  0  0  0
 15 34  1  0  0  0  0
 15 35  1  0  0  0  0
 16 17  1  0  0  0  0
 16 18  1  0  0  0  0
 16 36  1  0  0  0  0
 17 37  1  0  0  0  0
 18 19  1  0  0  0  0
 18 38  1  0  0  0  0
 18 39  1  0  0  0  0
 19 20  1  0  0  0  0
 19 40  1  0  0  0  0
 19 41  1  0  0  0  0
 20 25  1  0  0  0  0
 20 21  2  0  0  0  0
 21 22  1  0  0  0  0
 21 42  1  0  0  0  0
 22 23  2  0  0  0  0
 22 43  1  0  0  0  0
 23 24  1  0  0  0  0
 23 44  1  0  0  0  0
 24 25  2  0  0  0  0
 24 45  1  0  0  0  0
 25 46  1  0  0  0  0
M  END
> <s_m_source_file>
AV-unprocessed.smi

> <i_m_source_file_index>
111

> <i_lp_mmshare_version>
43012

> <i_f3d_flags>
0

> <s_epik_input>
TzFbQ0gyXVtDSDJdW0NIMl1bQ0BIXTFuKFtjSF1jKEYpYzI9TyljKD1PKW4yW0NIMl1bQ0BIXShbT0hdKVtDSDJdW0NIMl1jM1tjSF1bY0hdW2NIXVtjSF1bY0hdMw==

> <s_epik_cmdline>
J2VwaWtfcHl0aG9uJywgJy1waCcsICc3LjAnLCAnLXRuJywgJzgnLCAnLW1hJywgJzIwMCcsICctbWV0YWxfYmluZGluZycsICctaW1hZScsICc8aW5maWxlLm1hZT4nLCAnLW9tYWUnLCAnPG91dGZpbGUubWFlPic=

> <r_lp_tautomer_probability>
1

> <r_epik_Ionization_Penalty>
1.88248e-07

> <r_epik_Ionization_Penalty_Charging>
4.03974e-08

> <r_epik_Ionization_Penalty_Neutral>
1.47851e-07

> <r_epik_State_Penalty>
-0

> <r_epik_Charging_Adjusted_Penalty>
4.03974e-08

> <i_epik_Tot_Q>
0

> <i_epik_Tot_abs_Q>
0

> <r_epik_Metal_State_Penalty>
-0

> <b_epik_Metal_Only>
0

> <s_epik_Chemistry_Notes>
This compound contains an acetal/aminal-like group ( X-CH(R)-Y where X, Y are N, S, or O) that may be acid/base labile, releasing an aldehyde.

> <s_lp_Force_Field>
OPLS_2005

> <r_lp_Energy>
34.4162

> <b_lp_Chiralities_Consistent>
1

> <s_lp_Variant>
AV-unprocessed.smi:111-1

> <Gold.Version>
5.8.1

> <Gold.Id.Protein>
6NUR|6NUR_protein|mol2

> <Gold.PLP.Fitness>
50.6457

> <Gold.PLP.PLP>
-48.6957

> <Gold.PLP.part.hbond>
-2.0852

> <Gold.PLP.part.metal>
0.0000

> <Gold.PLP.part.buried>
-6.5584

> <Gold.PLP.part.nonpolar>
-45.0743

> <Gold.PLP.part.repulsive>
4.3726

> <Gold.PLP.ligand.clash>
0.0000

> <Gold.PLP.ligand.torsion>
0.6107

> <Gold.PLP.Chemscore.Hbond>
1.0000

> <Gold.PLP.Chemscore.CHOScore>
0.0000

> <Gold.PLP.Chemscore.Metal>
0.0000

> <Gold.Chemscore.Hbonds>
donor molecule, donor type, donor heavy atom, donor atom, acceptor molecule, acceptor atom, score
      L1  H    17    37       P1  7957  1.00

> <Gold.PLP.Chemscore.Internal.Correction>
0.1715

> <Gold.Rescore>
     Score         DG    S(hbond)    S(metal)    S(lipo)     H(rot)  DE(clash)    DE(int)     intcor
     10.58     -14.43       0.99        0.00     106.69       2.67       2.05       1.80       ----

> <Gold.Chemscore.Fitness>
10.5808

> <Gold.Chemscore.DG>
-14.4349

> <Gold.Chemscore.ZeroCoef>
-5.4800

> <Gold.Chemscore.Hbond>
0.9934

> <Gold.Chemscore.Metal>
0.0000

> <Gold.Chemscore.Lipo>
106.6936

> <Gold.Chemscore.Internal_Hbond>
0.0000

> <Gold.Chemscore.DEClash>
2.0498

> <Gold.Chemscore.DEInternal>
1.8043

> <Gold.Chemscore.Rot>
2.6743

> <Gold.Chemscore.Internal.Correction>
   9.000000E+99

> <Gold.Chemscore.Hbonds>
donor molecule, donor type, donor heavy atom, donor atom, acceptor molecule, acceptor atom, score
      L1  H    17    37       P1  7957  0.89

> <Gold.Chemscore.Hbond.Weighted>
-3.3180

> <Gold.Chemscore.Metal.Weighted>
-0.0000

> <Gold.Chemscore.Lipo.Weighted>
-12.4831

> <Gold.Chemscore.Internal_Hbond.Weighted>
0.0000

> <Gold.Chemscore.DEClash.Weighted>
2.0498

> <Gold.Chemscore.DEInternal.Weighted>
1.8043

> <Gold.Chemscore.Rot.Weighted>
6.8463

> <Gold.Chemscore.Internal.Correction.Weighted>
   9.000000E+99

> <Gold.Protein.RotatedTorsions>
[ 6907 6896 6895 6894 ] final   -2.24 input  -60.11 | X-H torsion
[ 7974 7965 7964 7962 ] final -134.35 input  175.53 | X-H torsion
[ 8008 7997 7996 7995 ] final  -71.75 input   59.86 | X-H torsion
[ 10167 10162 10161 10158 ] final  -75.29 input  -65.29 | X-H torsion
[ 10718 10713 10712 10709 ] final -167.37 input   66.30 | X-H torsion
[ 10763 10752 10751 10750 ] final -162.13 input  -60.55 | X-H torsion
[ 11005 11000 10999 10996 ] final   88.90 input  -57.11 | X-H torsion

> <Gold.Protein.ActiveResidues>
 VAL166  LYS551  ARG553  GLY616  TRP617  ASP618  TYR619  PRO620  LYS621  CYS622 
 ASP623  PHE694  ASN695  SER759  ASP760  ASP761  ALA762  ILE779  LEU786  VAL792 
 PHE793  MET794  SER795  GLU796  ALA797  LYS798  CYS799  TRP800  GLU811  SER814 

> <Gold.Protein.RotatedAtoms>
  151.5331  135.1068  159.9907 H   0  0  0  0  0  0  0  0  0  0  0  0  # atno 6907 bound_to 6896
  152.4569  133.7738  159.6824 H   0  0  0  0  0  0  0  0  0  0  0  0  # atno 6908 bound_to 6896
  150.8516  133.7712  159.3048 H   0  0  0  0  0  0  0  0  0  0  0  0  # atno 6909 bound_to 6896
  144.9111  140.6895  143.5025 H   0  0  0  0  0  0  0  0  0  0  0  0  # atno 7974 bound_to 7965
  154.5112  140.0810  156.7993 H   0  0  0  0  0  0  0  0  0  0  0  0  # atno 8008 bound_to 7997
  155.3781  140.3426  155.4227 H   0  0  0  0  0  0  0  0  0  0  0  0  # atno 8009 bound_to 7997
  156.1575  140.1578  156.8655 H   0  0  0  0  0  0  0  0  0  0  0  0  # atno 8010 bound_to 7997
  140.4955  143.2371  151.7837 H   0  0  0  0  0  0  0  0  0  0  0  0  # atno 10167 bound_to 10162
  156.6814  130.9123  151.3057 H   0  0  0  0  0  0  0  0  0  0  0  0  # atno 10718 bound_to 10713
  154.7242  135.3032  154.8998 H   0  0  0  0  0  0  0  0  0  0  0  0  # atno 10763 bound_to 10752
  153.9861  135.6724  153.4756 H   0  0  0  0  0  0  0  0  0  0  0  0  # atno 10764 bound_to 10752
  153.0860  135.4984  154.8516 H   0  0  0  0  0  0  0  0  0  0  0  0  # atno 10765 bound_to 10752
  139.8886  134.8517  156.3066 H   0  0  0  0  0  0  0  0  0  0  0  0  # atno 11005 bound_to 11000
  145.3453  139.1721  143.4463 LP  0  0  0  0  0  0  0  0  0  0  0  0  # atno 17320 bound_to 7965
  146.3159  140.3499  142.8655 LP  0  0  0  0  0  0  0  0  0  0  0  0  # atno 17321 bound_to 7965
  139.4860  144.4592  151.9562 LP  0  0  0  0  0  0  0  0  0  0  0  0  # atno 17342 bound_to 10162
  140.3679  144.2891  150.5924 LP  0  0  0  0  0  0  0  0  0  0  0  0  # atno 17343 bound_to 10162
  157.7042  130.9367  150.0879 LP  0  0  0  0  0  0  0  0  0  0  0  0  # atno 17370 bound_to 10713
  156.1865  130.3652  149.8966 LP  0  0  0  0  0  0  0  0  0  0  0  0  # atno 17371 bound_to 10713
  140.9878  133.7227  156.0768 LP  0  0  0  0  0  0  0  0  0  0  0  0  # atno 17394 bound_to 11000
  140.7665  134.3880  157.5516 LP  0  0  0  0  0  0  0  0  0  0  0  0  # atno 17395 bound_to 11000

$$$$
