AV-unprocessed.smi:3020|AV-procd|sdf|11497|dock9
  -GOLD-   2272016433D 1   1.00000     0.00000
 Structure written by MMmdl.
 28 29  0  0  0  0  0  0  0  0  1 V2000
  154.1404  139.6418  159.0067 O   0  0  0  0  0  0  0  0  0  0  0  0
  153.3558  140.5894  158.9657 C   0  0  0  0  0  0  0  0  0  0  0  0
  153.3853  141.6340  160.0816 C   0  0  0  0  0  0  0  0  0  0  0  0
  152.0557  141.9955  160.4233 O   0  0  0  0  0  0  0  0  0  0  0  0
  151.9447  143.3506  160.8214 C   0  0  0  0  0  0  0  0  0  0  0  0
  152.5120  144.2312  159.7290 C   0  0  0  0  0  0  0  0  0  0  0  0
  151.8796  145.5668  159.4092 C   0  0  0  0  0  0  0  0  0  0  0  0
  151.7579  144.4244  158.4330 C   0  0  0  0  0  0  0  0  0  0  0  0
  152.4598  140.7994  157.9829 N   0  0  0  0  0  0  0  0  0  0  0  0
  152.2152  140.0035  156.8336 C   0  0  0  0  0  0  0  0  0  0  0  0
  151.2625  140.5173  155.9222 C   0  0  0  0  0  0  0  0  0  0  0  0
  150.9232  139.8755  154.7822 N   0  0  0  0  0  0  0  0  0  0  0  0
  151.5434  138.7002  154.5437 C   0  0  0  0  0  0  0  0  0  0  0  0
  152.4951  138.1733  155.4395 C   0  0  0  0  0  0  0  0  0  0  0  0
  152.8294  138.8201  156.5773 N   0  0  0  0  0  0  0  0  0  0  0  0
  153.9025  141.2278  160.9526 H   0  0  0  0  0  0  0  0  0  0  0  0
  153.9428  142.5061  159.7366 H   0  0  0  0  0  0  0  0  0  0  0  0
  150.8990  143.6156  160.9838 H   0  0  0  0  0  0  0  0  0  0  0  0
  152.4850  143.5220  161.7542 H   0  0  0  0  0  0  0  0  0  0  0  0
  153.5959  144.1798  159.6421 H   0  0  0  0  0  0  0  0  0  0  0  0
  150.9874  145.8515  159.9635 H   0  0  0  0  0  0  0  0  0  0  0  0
  152.5454  146.3862  159.1452 H   0  0  0  0  0  0  0  0  0  0  0  0
  152.3412  144.4826  157.5163 H   0  0  0  0  0  0  0  0  0  0  0  0
  150.7834  143.9496  158.3361 H   0  0  0  0  0  0  0  0  0  0  0  0
  151.8801  141.6207  158.0778 H   0  0  0  0  0  0  0  0  0  0  0  0
  150.7636  141.4575  156.1082 H   0  0  0  0  0  0  0  0  0  0  0  0
  151.2803  138.1783  153.6355 H   0  0  0  0  0  0  0  0  0  0  0  0
  152.9885  137.2329  155.2438 H   0  0  0  0  0  0  0  0  0  0  0  0
  1  2  2  0  0  0  0
  2  3  1  0  0  0  0
  2  9  1  0  0  0  0
  3  4  1  0  0  0  0
  3 16  1  0  0  0  0
  3 17  1  0  0  0  0
  4  5  1  0  0  0  0
  5  6  1  0  0  0  0
  5 18  1  0  0  0  0
  5 19  1  0  0  0  0
  6  8  1  0  0  0  0
  6  7  1  0  0  0  0
  6 20  1  0  0  0  0
  7  8  1  0  0  0  0
  7 21  1  0  0  0  0
  7 22  1  0  0  0  0
  8 23  1  0  0  0  0
  8 24  1  0  0  0  0
  9 10  1  0  0  0  0
  9 25  1  0  0  0  0
 10 15  1  0  0  0  0
 10 11  2  0  0  0  0
 11 12  1  0  0  0  0
 11 26  1  0  0  0  0
 12 13  2  0  0  0  0
 13 14  1  0  0  0  0
 13 27  1  0  0  0  0
 14 15  2  0  0  0  0
 14 28  1  0  0  0  0
M  END
> <s_m_source_file>
AV-unprocessed.smi

> <i_m_source_file_index>
3020

> <i_lp_mmshare_version>
43012

> <i_f3d_flags>
0

> <s_epik_input>
W0NIMl0xW0NIMl1bQ0hdMVtDSDJdT1tDSDJdQyg9TylbTkhdYzJbY0hdbltjSF1bY0hdbjI=

> <s_epik_cmdline>
J2VwaWtfcHl0aG9uJywgJy1waCcsICc3LjAnLCAnLXRuJywgJzgnLCAnLW1hJywgJzIwMCcsICctbWV0YWxfYmluZGluZycsICctaW1hZScsICc8aW5maWxlLm1hZT4nLCAnLW9tYWUnLCAnPG91dGZpbGUubWFlPic=

> <r_lp_tautomer_probability>
1

> <r_epik_Ionization_Penalty>
2.93955e-06

> <r_epik_Ionization_Penalty_Charging>
0

> <r_epik_Ionization_Penalty_Neutral>
2.93955e-06

> <r_epik_State_Penalty>
-0

> <r_epik_Charging_Adjusted_Penalty>
0

> <i_epik_Tot_Q>
0

> <i_epik_Tot_abs_Q>
0

> <r_epik_Metal_State_Penalty>
-0

> <b_epik_Metal_Only>
0

> <s_lp_Force_Field>
OPLS_2005

> <r_lp_Energy>
21.027

> <b_lp_Chiralities_Consistent>
1

> <s_lp_Variant>
AV-unprocessed.smi:3020-1

> <Gold.Version>
5.8.1

> <Gold.Id.Protein>
6NUR|6NUR_protein|mol2

> <Gold.PLP.Fitness>
40.2531

> <Gold.PLP.PLP>
-35.3514

> <Gold.PLP.part.hbond>
-3.3806

> <Gold.PLP.part.metal>
0.0000

> <Gold.PLP.part.buried>
-1.6237

> <Gold.PLP.part.nonpolar>
-28.9750

> <Gold.PLP.part.repulsive>
0.1771

> <Gold.PLP.ligand.clash>
0.0000

> <Gold.PLP.ligand.torsion>
0.7777

> <Gold.PLP.Chemscore.Hbond>
1.9680

> <Gold.PLP.Chemscore.CHOScore>
0.0000

> <Gold.PLP.Chemscore.Metal>
0.0000

> <Gold.Chemscore.Hbonds>
donor molecule, donor type, donor heavy atom, donor atom, acceptor molecule, acceptor atom, score
      P1  H  7989  7998       L1    12  1.00
      P1  H  7997  8009       L1     1  0.94
      P1  H  7997  8010       L1    15  0.02

> <Gold.PLP.Chemscore.Internal.Correction>
0.5531

> <Gold.Rescore>
     Score         DG    S(hbond)    S(metal)    S(lipo)     H(rot)  DE(clash)    DE(int)     intcor
     11.06     -13.36       0.73        0.00      84.91       1.75       0.21       2.09       ----

> <Gold.Chemscore.Fitness>
11.0607

> <Gold.Chemscore.DG>
-13.3615

> <Gold.Chemscore.ZeroCoef>
-5.4800

> <Gold.Chemscore.Hbond>
0.7256

> <Gold.Chemscore.Metal>
0.0000

> <Gold.Chemscore.Lipo>
84.9117

> <Gold.Chemscore.Internal_Hbond>
0.0000

> <Gold.Chemscore.DEClash>
0.2123

> <Gold.Chemscore.DEInternal>
2.0884

> <Gold.Chemscore.Rot>
1.7487

> <Gold.Chemscore.Internal.Correction>
   9.000000E+99

> <Gold.Chemscore.Hbonds>
donor molecule, donor type, donor heavy atom, donor atom, acceptor molecule, acceptor atom, score
      P1  H  7989  7998       L1    12  0.11
      P1  H  7997  8009       L1     1  0.22

> <Gold.Chemscore.Hbond.Weighted>
-2.4235

> <Gold.Chemscore.Metal.Weighted>
-0.0000

> <Gold.Chemscore.Lipo.Weighted>
-9.9347

> <Gold.Chemscore.Internal_Hbond.Weighted>
0.0000

> <Gold.Chemscore.DEClash.Weighted>
0.2123

> <Gold.Chemscore.DEInternal.Weighted>
2.0884

> <Gold.Chemscore.Rot.Weighted>
4.4767

> <Gold.Chemscore.Internal.Correction.Weighted>
   9.000000E+99

> <Gold.Protein.RotatedTorsions>
[ 6907 6896 6895 6894 ] final  103.45 input  -60.11 | X-H torsion
[ 7974 7965 7964 7962 ] final   56.82 input  175.53 | X-H torsion
[ 8008 7997 7996 7995 ] final  111.07 input   59.86 | X-H torsion
[ 10167 10162 10161 10158 ] final   47.63 input  -65.29 | X-H torsion
[ 10718 10713 10712 10709 ] final   13.18 input   66.30 | X-H torsion
[ 10763 10752 10751 10750 ] final -133.00 input  -60.55 | X-H torsion
[ 11005 11000 10999 10996 ] final   42.23 input  -57.11 | X-H torsion

> <Gold.Protein.ActiveResidues>
 VAL166  LYS551  ARG553  GLY616  TRP617  ASP618  TYR619  PRO620  LYS621  CYS622 
 ASP623  PHE694  ASN695  SER759  ASP760  ASP761  ALA762  ILE779  LEU786  VAL792 
 PHE793  MET794  SER795  GLU796  ALA797  LYS798  CYS799  TRP800  GLU811  SER814 

> <Gold.Protein.RotatedAtoms>
  152.5295  133.9823  159.7812 H   0  0  0  0  0  0  0  0  0  0  0  0  # atno 6907 bound_to 6896
  151.0074  133.5989  159.2694 H   0  0  0  0  0  0  0  0  0  0  0  0  # atno 6908 bound_to 6896
  151.3076  135.0792  159.9314 H   0  0  0  0  0  0  0  0  0  0  0  0  # atno 6909 bound_to 6896
  145.9357  139.3845  143.0394 H   0  0  0  0  0  0  0  0  0  0  0  0  # atno 7974 bound_to 7965
  156.2098  140.3026  155.9707 H   0  0  0  0  0  0  0  0  0  0  0  0  # atno 8008 bound_to 7997
  155.2752  140.0435  157.3028 H   0  0  0  0  0  0  0  0  0  0  0  0  # atno 8009 bound_to 7997
  154.5683  140.2341  155.8238 H   0  0  0  0  0  0  0  0  0  0  0  0  # atno 8010 bound_to 7997
  140.3017  144.2926  150.6218 H   0  0  0  0  0  0  0  0  0  0  0  0  # atno 10167 bound_to 10162
  157.0210  130.6154  149.5721 H   0  0  0  0  0  0  0  0  0  0  0  0  # atno 10718 bound_to 10713
  154.8737  135.3780  154.4501 H   0  0  0  0  0  0  0  0  0  0  0  0  # atno 10763 bound_to 10752
  153.5178  135.7029  153.5752 H   0  0  0  0  0  0  0  0  0  0  0  0  # atno 10764 bound_to 10752
  153.4013  135.3947  155.1955 H   0  0  0  0  0  0  0  0  0  0  0  0  # atno 10765 bound_to 10752
  140.1758  134.4165  155.8229 H   0  0  0  0  0  0  0  0  0  0  0  0  # atno 11005 bound_to 11000
  145.8366  140.9602  143.0821 LP  0  0  0  0  0  0  0  0  0  0  0  0  # atno 17320 bound_to 7965
  144.6771  140.0231  143.7483 LP  0  0  0  0  0  0  0  0  0  0  0  0  # atno 17321 bound_to 7965
  140.5645  143.2188  151.7707 LP  0  0  0  0  0  0  0  0  0  0  0  0  # atno 17342 bound_to 10162
  139.4913  144.4302  151.9880 LP  0  0  0  0  0  0  0  0  0  0  0  0  # atno 17343 bound_to 10162
  156.0102  130.5193  150.7964 LP  0  0  0  0  0  0  0  0  0  0  0  0  # atno 17370 bound_to 10713
  157.5250  131.0933  151.0030 LP  0  0  0  0  0  0  0  0  0  0  0  0  # atno 17371 bound_to 10713
  141.2220  133.6977  156.7844 LP  0  0  0  0  0  0  0  0  0  0  0  0  # atno 17394 bound_to 11000
  140.2324  134.8676  157.3490 LP  0  0  0  0  0  0  0  0  0  0  0  0  # atno 17395 bound_to 11000

$$$$
