AV-unprocessed.smi:1018|AV-procd|sdf|4440|dock2
  -GOLD-   22720 2403D 1   1.00000     0.00000
 Structure written by MMmdl.
 52 53  0  0  0  0  0  0  0  0  1 V2000
  152.4698  145.1737  158.9742 C   0  0  0  0  0  0  0  0  0  0  0  0
  152.6754  143.6612  158.8400 C   0  0  2  0  0  0  0  0  0  0  0  0
  151.6277  143.0199  157.9124 C   0  0  0  0  0  0  0  0  0  0  0  0
  151.7767  141.5685  157.9097 N   0  0  0  0  0  0  0  0  0  0  0  0
  151.1452  140.8772  156.8534 C   0  0  0  0  0  0  0  0  0  0  0  0
  151.9022  140.0512  155.9893 C   0  0  0  0  0  0  0  0  0  0  0  0
  151.2510  139.3578  154.9513 C   0  0  0  0  0  0  0  0  0  0  0  0
  149.8512  139.4979  154.8071 C   0  0  0  0  0  0  0  0  0  0  0  0
  149.0782  138.8545  153.8031 N   0  0  0  0  0  0  0  0  0  0  0  0
  147.7825  139.0411  153.4977 C   0  0  0  0  0  0  0  0  0  0  0  0
  147.0092  139.7904  154.0937 O   0  0  0  0  0  0  0  0  0  0  0  0
  147.4291  138.3127  152.4307 N   0  0  0  0  0  0  0  0  0  0  0  0
  146.1059  138.3239  151.8083 C   0  0  0  0  0  0  0  0  0  0  0  0
  145.2835  137.0420  152.1103 C   0  0  0  0  0  0  0  0  0  0  0  0
  145.6646  136.4993  153.5094 C   0  0  0  0  0  0  0  0  0  0  0  0
  143.7798  137.3929  152.1335 C   0  0  0  0  0  0  0  0  0  0  0  0
  145.5413  135.9636  151.0266 C   0  0  0  0  0  0  0  0  0  0  0  0
  145.2769  136.2880  149.7566 N   0  0  0  0  0  0  0  0  0  0  0  0
  145.9814  134.8530  151.3207 O   0  0  0  0  0  0  0  0  0  0  0  0
  149.1856  140.3550  155.7054 C   0  0  0  0  0  0  0  0  0  0  0  0
  149.8058  141.0206  156.7019 N   0  0  0  0  0  0  0  0  0  0  0  0
  151.7319  140.9818  159.2472 C   0  0  0  0  0  0  0  0  0  0  0  0
  152.7480  141.6654  160.1830 C   0  0  1  0  0  0  0  0  0  0  0  0
  154.2044  141.2441  159.9168 C   0  0  0  0  0  0  0  0  0  0  0  0
  152.5804  143.0846  160.1423 O   0  0  0  0  0  0  0  0  0  0  0  0
  152.5438  145.6668  158.0046 H   0  0  0  0  0  0  0  0  0  0  0  0
  153.2233  145.6130  159.6284 H   0  0  0  0  0  0  0  0  0  0  0  0
  151.4897  145.4034  159.3934 H   0  0  0  0  0  0  0  0  0  0  0  0
  153.6734  143.4926  158.4353 H   0  0  0  0  0  0  0  0  0  0  0  0
  150.6216  143.2651  158.2558 H   0  0  0  0  0  0  0  0  0  0  0  0
  151.7301  143.4411  156.9136 H   0  0  0  0  0  0  0  0  0  0  0  0
  152.9671  139.9280  156.1185 H   0  0  0  0  0  0  0  0  0  0  0  0
  151.8390  138.7410  154.2898 H   0  0  0  0  0  0  0  0  0  0  0  0
  149.5957  138.2495  153.1822 H   0  0  0  0  0  0  0  0  0  0  0  0
  148.1290  137.7262  151.9997 H   0  0  0  0  0  0  0  0  0  0  0  0
  145.5713  139.2038  152.1686 H   0  0  0  0  0  0  0  0  0  0  0  0
  146.2038  138.4528  150.7286 H   0  0  0  0  0  0  0  0  0  0  0  0
  145.4900  137.2484  154.2825 H   0  0  0  0  0  0  0  0  0  0  0  0
  146.7158  136.2144  153.5700 H   0  0  0  0  0  0  0  0  0  0  0  0
  145.0729  135.6213  153.7726 H   0  0  0  0  0  0  0  0  0  0  0  0
  143.5529  138.0959  152.9359 H   0  0  0  0  0  0  0  0  0  0  0  0
  143.1634  136.5072  152.2945 H   0  0  0  0  0  0  0  0  0  0  0  0
  143.4534  137.8573  151.2020 H   0  0  0  0  0  0  0  0  0  0  0  0
  145.4287  135.6127  149.0216 H   0  0  0  0  0  0  0  0  0  0  0  0
  144.9231  137.2080  149.5377 H   0  0  0  0  0  0  0  0  0  0  0  0
  148.1188  140.5065  155.6302 H   0  0  0  0  0  0  0  0  0  0  0  0
  150.7244  141.1029  159.6475 H   0  0  0  0  0  0  0  0  0  0  0  0
  151.9355  139.9109  159.2069 H   0  0  0  0  0  0  0  0  0  0  0  0
  152.5147  141.3617  161.2039 H   0  0  0  0  0  0  0  0  0  0  0  0
  154.3341  140.1755  160.0892 H   0  0  0  0  0  0  0  0  0  0  0  0
  154.8893  141.7712  160.5813 H   0  0  0  0  0  0  0  0  0  0  0  0
  154.5127  141.4438  158.8909 H   0  0  0  0  0  0  0  0  0  0  0  0
  1  2  1  0  0  0  0
  1 26  1  0  0  0  0
  1 27  1  0  0  0  0
  1 28  1  0  0  0  0
  2 25  1  0  0  0  0
  2  3  1  0  0  0  0
  2 29  1  0  0  0  0
  3  4  1  0  0  0  0
  3 30  1  0  0  0  0
  3 31  1  0  0  0  0
  4  5  1  0  0  0  0
  4 22  1  0  0  0  0
  5 21  1  0  0  0  0
  5  6  2  0  0  0  0
  6  7  1  0  0  0  0
  6 32  1  0  0  0  0
  7  8  2  0  0  0  0
  7 33  1  0  0  0  0
  8  9  1  0  0  0  0
  8 20  1  0  0  0  0
  9 10  1  0  0  0  0
  9 34  1  0  0  0  0
 10 11  2  0  0  0  0
 10 12  1  0  0  0  0
 12 13  1  0  0  0  0
 12 35  1  0  0  0  0
 13 14  1  0  0  0  0
 13 36  1  0  0  0  0
 13 37  1  0  0  0  0
 14 15  1  0  0  0  0
 14 16  1  0  0  0  0
 14 17  1  0  0  0  0
 15 38  1  0  0  0  0
 15 39  1  0  0  0  0
 15 40  1  0  0  0  0
 16 41  1  0  0  0  0
 16 42  1  0  0  0  0
 16 43  1  0  0  0  0
 17 18  1  0  0  0  0
 17 19  2  0  0  0  0
 18 44  1  0  0  0  0
 18 45  1  0  0  0  0
 20 21  2  0  0  0  0
 20 46  1  0  0  0  0
 22 23  1  0  0  0  0
 22 47  1  0  0  0  0
 22 48  1  0  0  0  0
 23 24  1  0  0  0  0
 23 25  1  0  0  0  0
 23 49  1  0  0  0  0
 24 50  1  0  0  0  0
 24 51  1  0  0  0  0
 24 52  1  0  0  0  0
M  END
> <s_m_source_file>
AV-unprocessed.smi

> <i_m_source_file_index>
1018

> <i_lp_mmshare_version>
43012

> <i_f3d_flags>
0

> <s_epik_input>
W0NIM11bQ0BASF0xW0NIMl1OKFtDSDJdW0NASF0oTzEpW0NIM10pYzJbY0hdW2NIXWMoW2NIXW4yKVtOSF1DKD1PKVtOSF1bQ0gyXUMoW0NIM10pKFtDSDNdKUMoPU8pW05IMl0=

> <s_epik_cmdline>
J2VwaWtfcHl0aG9uJywgJy1waCcsICc3LjAnLCAnLXRuJywgJzgnLCAnLW1hJywgJzIwMCcsICctbWV0YWxfYmluZGluZycsICctaW1hZScsICc8aW5maWxlLm1hZT4nLCAnLW9tYWUnLCAnPG91dGZpbGUubWFlPic=

> <r_lp_tautomer_probability>
1

> <r_epik_Ionization_Penalty>
0.002562

> <r_epik_Ionization_Penalty_Charging>
0

> <r_epik_Ionization_Penalty_Neutral>
0.002562

> <r_epik_State_Penalty>
0.00175377

> <r_epik_Charging_Adjusted_Penalty>
0.00175377

> <i_epik_Tot_Q>
0

> <i_epik_Tot_abs_Q>
0

> <r_epik_Metal_State_Penalty>
-0

> <b_epik_Metal_Only>
0

> <s_lp_Force_Field>
OPLS_2005

> <r_lp_Energy>
25.7986

> <b_lp_Chiralities_Consistent>
1

> <s_lp_Variant>
AV-unprocessed.smi:1018-1

> <Gold.Version>
5.8.1

> <Gold.Id.Protein>
6NUR|6NUR_protein|mol2

> <Gold.PLP.Fitness>
55.4310

> <Gold.PLP.PLP>
-48.0131

> <Gold.PLP.part.hbond>
-4.8555

> <Gold.PLP.part.metal>
0.0000

> <Gold.PLP.part.buried>
-4.6671

> <Gold.PLP.part.nonpolar>
-40.0226

> <Gold.PLP.part.repulsive>
0.6164

> <Gold.PLP.ligand.clash>
0.0000

> <Gold.PLP.ligand.torsion>
0.9824

> <Gold.PLP.Chemscore.Hbond>
2.9920

> <Gold.PLP.Chemscore.CHOScore>
0.0000

> <Gold.PLP.Chemscore.Metal>
0.0000

> <Gold.Chemscore.Hbonds>
donor molecule, donor type, donor heavy atom, donor atom, acceptor molecule, acceptor atom, score
      L1  H    12    35       P1  7948  1.00
      L1  H    18    44       P1  7921  1.00
      L1  H    18    45       P1 10171  1.00

> <Gold.PLP.Chemscore.Internal.Correction>
0.4067

> <Gold.Rescore>
     Score         DG    S(hbond)    S(metal)    S(lipo)     H(rot)  DE(clash)    DE(int)     intcor
     20.58     -23.14       3.00        0.00     111.17       2.09       0.20       2.36       ----

> <Gold.Chemscore.Fitness>
20.5815

> <Gold.Chemscore.DG>
-23.1382

> <Gold.Chemscore.ZeroCoef>
-5.4800

> <Gold.Chemscore.Hbond>
2.9983

> <Gold.Chemscore.Metal>
0.0000

> <Gold.Chemscore.Lipo>
111.1651

> <Gold.Chemscore.Internal_Hbond>
0.0000

> <Gold.Chemscore.DEClash>
0.1966

> <Gold.Chemscore.DEInternal>
2.3601

> <Gold.Chemscore.Rot>
2.0947

> <Gold.Chemscore.Internal.Correction>
   9.000000E+99

> <Gold.Chemscore.Hbonds>
donor molecule, donor type, donor heavy atom, donor atom, acceptor molecule, acceptor atom, score
      L1  H     9    34       P1  7948  0.02
      L1  H    12    35       P1  7948  0.97
      L1  H    18    44       P1  7921  1.00
      L1  H    18    45       P1 10171  0.98

> <Gold.Chemscore.Hbond.Weighted>
-10.0142

> <Gold.Chemscore.Metal.Weighted>
-0.0000

> <Gold.Chemscore.Lipo.Weighted>
-13.0063

> <Gold.Chemscore.Internal_Hbond.Weighted>
0.0000

> <Gold.Chemscore.DEClash.Weighted>
0.1966

> <Gold.Chemscore.DEInternal.Weighted>
2.3601

> <Gold.Chemscore.Rot.Weighted>
5.3624

> <Gold.Chemscore.Internal.Correction.Weighted>
   9.000000E+99

> <Gold.Protein.RotatedTorsions>
[ 6907 6896 6895 6894 ] final  142.51 input  -60.11 | X-H torsion
[ 7974 7965 7964 7962 ] final  158.61 input  175.53 | X-H torsion
[ 8008 7997 7996 7995 ] final -167.36 input   59.86 | X-H torsion
[ 10167 10162 10161 10158 ] final   77.10 input  -65.29 | X-H torsion
[ 10718 10713 10712 10709 ] final -104.95 input   66.30 | X-H torsion
[ 10763 10752 10751 10750 ] final  123.38 input  -60.55 | X-H torsion
[ 11005 11000 10999 10996 ] final  169.75 input  -57.11 | X-H torsion

> <Gold.Protein.ActiveResidues>
 VAL166  LYS551  ARG553  GLY616  TRP617  ASP618  TYR619  PRO620  LYS621  CYS622 
 ASP623  PHE694  ASN695  SER759  ASP760  ASP761  ALA762  ILE779  LEU786  VAL792 
 PHE793  MET794  SER795  GLU796  ALA797  LYS798  CYS799  TRP800  GLU811  SER814 

> <Gold.Protein.RotatedAtoms>
  152.2179  133.4960  159.5145 H   0  0  0  0  0  0  0  0  0  0  0  0  # atno 6907 bound_to 6896
  150.7005  134.1382  159.4104 H   0  0  0  0  0  0  0  0  0  0  0  0  # atno 6908 bound_to 6896
  151.9302  135.0260  160.0579 H   0  0  0  0  0  0  0  0  0  0  0  0  # atno 6909 bound_to 6896
  144.7836  139.7502  143.6250 H   0  0  0  0  0  0  0  0  0  0  0  0  # atno 7974 bound_to 7965
  155.8766  140.1002  157.1514 H   0  0  0  0  0  0  0  0  0  0  0  0  # atno 8008 bound_to 7997
  154.4001  140.1337  156.4208 H   0  0  0  0  0  0  0  0  0  0  0  0  # atno 8009 bound_to 7997
  155.7690  140.3461  155.5239 H   0  0  0  0  0  0  0  0  0  0  0  0  # atno 8010 bound_to 7997
  139.9852  144.5797  150.7866 H   0  0  0  0  0  0  0  0  0  0  0  0  # atno 10167 bound_to 10162
  156.0325  130.5540  150.7469 H   0  0  0  0  0  0  0  0  0  0  0  0  # atno 10718 bound_to 10713
  153.6446  135.3373  155.3082 H   0  0  0  0  0  0  0  0  0  0  0  0  # atno 10763 bound_to 10752
  154.8552  135.4326  154.1968 H   0  0  0  0  0  0  0  0  0  0  0  0  # atno 10764 bound_to 10752
  153.2896  135.7016  153.7380 H   0  0  0  0  0  0  0  0  0  0  0  0  # atno 10765 bound_to 10752
  140.3010  134.7595  157.3916 H   0  0  0  0  0  0  0  0  0  0  0  0  # atno 11005 bound_to 11000
  146.2057  139.5379  142.9714 LP  0  0  0  0  0  0  0  0  0  0  0  0  # atno 17320 bound_to 7965
  145.5982  141.0359  143.2032 LP  0  0  0  0  0  0  0  0  0  0  0  0  # atno 17321 bound_to 7965
  140.7475  143.2907  151.3339 LP  0  0  0  0  0  0  0  0  0  0  0  0  # atno 17342 bound_to 10162
  139.6380  144.0593  152.2532 LP  0  0  0  0  0  0  0  0  0  0  0  0  # atno 17343 bound_to 10162
  157.5024  131.0919  151.0298 LP  0  0  0  0  0  0  0  0  0  0  0  0  # atno 17370 bound_to 10713
  157.0676  130.5851  149.5396 LP  0  0  0  0  0  0  0  0  0  0  0  0  # atno 17371 bound_to 10713
  140.1109  134.5347  155.8267 LP  0  0  0  0  0  0  0  0  0  0  0  0  # atno 17394 bound_to 11000
  141.2128  133.6724  156.6687 LP  0  0  0  0  0  0  0  0  0  0  0  0  # atno 17395 bound_to 11000

$$$$
