AV-unprocessed.smi:1952|AV-procd|sdf|7884|dock2
  -GOLD-   2272010 33D 1   1.00000     0.00000
 Structure written by MMmdl.
 39 40  0  0  0  0  0  0  0  0  1 V2000
  138.2837  136.8505  153.9770 C   0  0  0  0  0  0  0  0  0  0  0  0
  139.7696  136.9540  153.9306 C   0  0  0  0  0  0  0  0  0  0  0  0
  140.6211  137.9505  153.5441 C   0  0  0  0  0  0  0  0  0  0  0  0
  141.9027  137.3766  153.7572 C   0  0  0  0  0  0  0  0  0  0  0  0
  143.0834  138.1071  153.4687 N   0  0  0  0  0  0  0  0  0  0  0  0
  144.3523  137.6681  153.5232 C   0  0  0  0  0  0  0  0  0  0  0  0
  144.6938  136.5294  153.8441 O   0  0  0  0  0  0  0  0  0  0  0  0
  145.2153  138.6385  153.1858 N   0  0  0  0  0  0  0  0  0  0  0  0
  146.6727  138.5203  153.1702 C   0  0  1  0  0  0  0  0  0  0  0  0
  147.1196  138.0314  151.7861 C   0  0  0  0  0  0  0  0  0  0  0  0
  147.3225  139.8775  153.5169 C   0  0  0  0  0  0  0  0  0  0  0  0
  148.4568  139.8199  154.4401 N   0  0  0  0  0  0  0  0  0  0  0  0
  149.4840  138.8716  154.0137 C   0  0  0  0  0  0  0  0  0  0  0  0
  150.6714  138.8372  154.9912 C   0  0  0  0  0  0  0  0  0  0  0  0
  151.2142  140.1463  155.1313 O   0  0  0  0  0  0  0  0  0  0  0  0
  150.2534  141.0930  155.5872 C   0  0  0  0  0  0  0  0  0  0  0  0
  149.0672  141.1337  154.6084 C   0  0  0  0  0  0  0  0  0  0  0  0
  141.8392  136.1418  154.2313 N   0  0  0  0  0  0  0  0  0  0  0  0
  140.4718  135.8645  154.3444 O   0  0  0  0  0  0  0  0  0  0  0  0
  137.8182  137.8001  153.7122 H   0  0  0  0  0  0  0  0  0  0  0  0
  137.9459  136.5759  154.9764 H   0  0  0  0  0  0  0  0  0  0  0  0
  137.9275  136.0932  153.2784 H   0  0  0  0  0  0  0  0  0  0  0  0
  140.3652  138.9305  153.1697 H   0  0  0  0  0  0  0  0  0  0  0  0
  142.9474  139.0687  153.1949 H   0  0  0  0  0  0  0  0  0  0  0  0
  144.8360  139.5407  152.9390 H   0  0  0  0  0  0  0  0  0  0  0  0
  146.9971  137.7645  153.8861 H   0  0  0  0  0  0  0  0  0  0  0  0
  148.2020  137.9063  151.7466 H   0  0  0  0  0  0  0  0  0  0  0  0
  146.8378  138.7368  151.0034 H   0  0  0  0  0  0  0  0  0  0  0  0
  146.6691  137.0679  151.5450 H   0  0  0  0  0  0  0  0  0  0  0  0
  147.6324  140.3753  152.5967 H   0  0  0  0  0  0  0  0  0  0  0  0
  146.5487  140.5139  153.9493 H   0  0  0  0  0  0  0  0  0  0  0  0
  149.0698  137.8673  153.9372 H   0  0  0  0  0  0  0  0  0  0  0  0
  149.8436  139.1373  153.0185 H   0  0  0  0  0  0  0  0  0  0  0  0
  150.3574  138.4589  155.9655 H   0  0  0  0  0  0  0  0  0  0  0  0
  151.4474  138.1664  154.6219 H   0  0  0  0  0  0  0  0  0  0  0  0
  149.9173  140.8264  156.5906 H   0  0  0  0  0  0  0  0  0  0  0  0
  150.7229  142.0743  155.6560 H   0  0  0  0  0  0  0  0  0  0  0  0
  149.4089  141.5098  153.6428 H   0  0  0  0  0  0  0  0  0  0  0  0
  148.3245  141.8433  154.9748 H   0  0  0  0  0  0  0  0  0  0  0  0
  1  2  1  0  0  0  0
  1 20  1  0  0  0  0
  1 21  1  0  0  0  0
  1 22  1  0  0  0  0
  2 19  1  0  0  0  0
  2  3  2  0  0  0  0
  3  4  1  0  0  0  0
  3 23  1  0  0  0  0
  4  5  1  0  0  0  0
  4 18  2  0  0  0  0
  5  6  1  0  0  0  0
  5 24  1  0  0  0  0
  6  7  2  0  0  0  0
  6  8  1  0  0  0  0
  8  9  1  0  0  0  0
  8 25  1  0  0  0  0
  9 10  1  0  0  0  0
  9 11  1  0  0  0  0
  9 26  1  0  0  0  0
 10 27  1  0  0  0  0
 10 28  1  0  0  0  0
 10 29  1  0  0  0  0
 11 12  1  0  0  0  0
 11 30  1  0  0  0  0
 11 31  1  0  0  0  0
 12 17  1  0  0  0  0
 12 13  1  0  0  0  0
 13 14  1  0  0  0  0
 13 32  1  0  0  0  0
 13 33  1  0  0  0  0
 14 15  1  0  0  0  0
 14 34  1  0  0  0  0
 14 35  1  0  0  0  0
 15 16  1  0  0  0  0
 16 17  1  0  0  0  0
 16 36  1  0  0  0  0
 16 37  1  0  0  0  0
 17 38  1  0  0  0  0
 17 39  1  0  0  0  0
 18 19  1  0  0  0  0
M  END
> <s_m_source_file>
AV-unprocessed.smi

> <i_m_source_file_index>
1952

> <i_lp_mmshare_version>
43012

> <i_f3d_flags>
0

> <s_epik_input>
W0NIM11jMVtjSF1jKG5vMSlbTkhdQyg9TylbTkhdW0NASF0oW0NIM10pW0NIMl1OMltDSDJdW0NIMl1PW0NIMl1bQ0gyXTI=

> <s_epik_cmdline>
J2VwaWtfcHl0aG9uJywgJy1waCcsICc3LjAnLCAnLXRuJywgJzgnLCAnLW1hJywgJzIwMCcsICctbWV0YWxfYmluZGluZycsICctaW1hZScsICc8aW5maWxlLm1hZT4nLCAnLW9tYWUnLCAnPG91dGZpbGUubWFlPic=

> <r_epik_Ionization_Penalty>
0.214075

> <r_epik_Ionization_Penalty_Charging>
0

> <r_epik_Ionization_Penalty_Neutral>
0.214075

> <r_epik_State_Penalty>
0.204211

> <r_epik_Charging_Adjusted_Penalty>
0.204211

> <i_epik_Tot_Q>
0

> <i_epik_Tot_abs_Q>
0

> <r_epik_Metal_State_Penalty>
0.218782

> <b_epik_Metal_Only>
0

> <s_lp_Force_Field>
OPLS_2005

> <r_lp_Energy>
23.1471

> <b_lp_Chiralities_Consistent>
1

> <s_lp_Variant>
AV-unprocessed.smi:1952-2

> <Gold.Version>
5.8.1

> <Gold.Id.Protein>
6NUR|6NUR_protein|mol2

> <Gold.PLP.Fitness>
38.1230

> <Gold.PLP.PLP>
-28.2681

> <Gold.PLP.part.hbond>
-3.7924

> <Gold.PLP.part.metal>
0.0000

> <Gold.PLP.part.buried>
1.3786

> <Gold.PLP.part.nonpolar>
-26.3823

> <Gold.PLP.part.repulsive>
0.3341

> <Gold.PLP.ligand.clash>
0.0000

> <Gold.PLP.ligand.torsion>
1.0055

> <Gold.PLP.Chemscore.Hbond>
3.9440

> <Gold.PLP.Chemscore.CHOScore>
0.0000

> <Gold.PLP.Chemscore.Metal>
0.0000

> <Gold.Chemscore.Hbonds>
donor molecule, donor type, donor heavy atom, donor atom, acceptor molecule, acceptor atom, score
      L1  H     5    24       P1 10175  0.94
      L1  H     8    25       P1 10175  1.00
      P1  H  7989  7998       L1    15  1.00
      P1  H 11000 11005       L1    19  1.00

> <Gold.PLP.Chemscore.Internal.Correction>
0.0340

> <Gold.Rescore>
     Score         DG    S(hbond)    S(metal)    S(lipo)     H(rot)  DE(clash)    DE(int)     intcor
     16.12     -20.58       3.11        0.00      74.43       1.56       2.23       2.23       ----

> <Gold.Chemscore.Fitness>
16.1225

> <Gold.Chemscore.DG>
-20.5810

> <Gold.Chemscore.ZeroCoef>
-5.4800

> <Gold.Chemscore.Hbond>
3.1095

> <Gold.Chemscore.Metal>
0.0000

> <Gold.Chemscore.Lipo>
74.4283

> <Gold.Chemscore.Internal_Hbond>
0.0000

> <Gold.Chemscore.DEClash>
2.2289

> <Gold.Chemscore.DEInternal>
2.2296

> <Gold.Chemscore.Rot>
1.5597

> <Gold.Chemscore.Internal.Correction>
   9.000000E+99

> <Gold.Chemscore.Hbonds>
donor molecule, donor type, donor heavy atom, donor atom, acceptor molecule, acceptor atom, score
      L1  H     5    24       P1 10175  0.91
      L1  H     8    25       P1 10175  0.92
      P1  H  7989  7998       L1    15  0.21
      P1  H 11000 11005       L1    19  0.76

> <Gold.Chemscore.Hbond.Weighted>
-10.3857

> <Gold.Chemscore.Metal.Weighted>
-0.0000

> <Gold.Chemscore.Lipo.Weighted>
-8.7081

> <Gold.Chemscore.Internal_Hbond.Weighted>
0.0000

> <Gold.Chemscore.DEClash.Weighted>
2.2289

> <Gold.Chemscore.DEInternal.Weighted>
2.2296

> <Gold.Chemscore.Rot.Weighted>
3.9928

> <Gold.Chemscore.Internal.Correction.Weighted>
   9.000000E+99

> <Gold.Protein.RotatedTorsions>
[ 6907 6896 6895 6894 ] final  -18.38 input  -60.11 | X-H torsion
[ 7974 7965 7964 7962 ] final  -69.90 input  175.53 | X-H torsion
[ 8008 7997 7996 7995 ] final  -44.24 input   59.86 | X-H torsion
[ 10167 10162 10161 10158 ] final -125.48 input  -65.29 | X-H torsion
[ 10718 10713 10712 10709 ] final -147.87 input   66.30 | X-H torsion
[ 10763 10752 10751 10750 ] final   62.04 input  -60.55 | X-H torsion
[ 11005 11000 10999 10996 ] final   58.81 input  -57.11 | X-H torsion

> <Gold.Protein.ActiveResidues>
 VAL166  LYS551  ARG553  GLY616  TRP617  ASP618  TYR619  PRO620  LYS621  CYS622 
 ASP623  PHE694  ASN695  SER759  ASP760  ASP761  ALA762  ILE779  LEU786  VAL792 
 PHE793  MET794  SER795  GLU796  ALA797  LYS798  CYS799  TRP800  GLU811  SER814 

> <Gold.Protein.RotatedAtoms>
  151.2790  135.0708  159.9162 H   0  0  0  0  0  0  0  0  0  0  0  0  # atno 6907 bound_to 6896
  152.5337  134.0050  159.7922 H   0  0  0  0  0  0  0  0  0  0  0  0  # atno 6908 bound_to 6896
  151.0301  133.5747  159.2692 H   0  0  0  0  0  0  0  0  0  0  0  0  # atno 6909 bound_to 6896
  145.6979  140.9128  143.0747 H   0  0  0  0  0  0  0  0  0  0  0  0  # atno 7974 bound_to 7965
  154.3997  140.1427  156.3651 H   0  0  0  0  0  0  0  0  0  0  0  0  # atno 8008 bound_to 7997
  155.8144  140.3471  155.5456 H   0  0  0  0  0  0  0  0  0  0  0  0  # atno 8009 bound_to 7997
  155.8352  140.0918  157.1758 H   0  0  0  0  0  0  0  0  0  0  0  0  # atno 8010 bound_to 7997
  139.9817  143.5735  152.2376 H   0  0  0  0  0  0  0  0  0  0  0  0  # atno 10167 bound_to 10162
  156.4130  130.7991  151.2210 H   0  0  0  0  0  0  0  0  0  0  0  0  # atno 10718 bound_to 10713
  152.9970  135.5479  154.6130 H   0  0  0  0  0  0  0  0  0  0  0  0  # atno 10763 bound_to 10752
  154.5447  135.2822  155.1066 H   0  0  0  0  0  0  0  0  0  0  0  0  # atno 10764 bound_to 10752
  154.2330  135.6430  153.5234 H   0  0  0  0  0  0  0  0  0  0  0  0  # atno 10765 bound_to 10752
  140.0350  134.5957  155.9456 H   0  0  0  0  0  0  0  0  0  0  0  0  # atno 11005 bound_to 11000
  144.6977  139.8908  143.7453 LP  0  0  0  0  0  0  0  0  0  0  0  0  # atno 17320 bound_to 7965
  146.0824  139.3812  143.0456 LP  0  0  0  0  0  0  0  0  0  0  0  0  # atno 17321 bound_to 7965
  139.6405  144.7654  151.2349 LP  0  0  0  0  0  0  0  0  0  0  0  0  # atno 17342 bound_to 10162
  140.7487  143.6325  150.8409 LP  0  0  0  0  0  0  0  0  0  0  0  0  # atno 17343 bound_to 10162
  157.7507  131.0251  150.3907 LP  0  0  0  0  0  0  0  0  0  0  0  0  # atno 17370 bound_to 10713
  156.4209  130.3953  149.6825 LP  0  0  0  0  0  0  0  0  0  0  0  0  # atno 17371 bound_to 10713
  141.1852  133.6554  156.5188 LP  0  0  0  0  0  0  0  0  0  0  0  0  # atno 17394 bound_to 11000
  140.4163  134.7227  157.4864 LP  0  0  0  0  0  0  0  0  0  0  0  0  # atno 17395 bound_to 11000

$$$$
