AV-unprocessed.smi:196|AV-procd|sdf|1543|dock4
  -GOLD-   2262019403D 1   1.00000     0.00000
 Structure written by MMmdl.
 47 50  0  0  0  0  0  0  0  0  1 V2000
  149.4776  141.3725  157.0718 C   0  0  0  0  0  0  0  0  0  0  0  0
  150.1123  141.0302  155.7148 C   0  0  1  0  0  0  0  0  0  0  0  0
  151.1247  140.0544  155.9505 O   0  0  0  0  0  0  0  0  0  0  0  0
  151.2238  139.2108  154.8171 C   0  0  0  0  0  0  0  0  0  0  0  0
  149.7678  139.0259  154.4190 C   0  0  0  0  0  0  0  0  0  0  0  0
  149.1738  140.4144  154.6382 C   0  0  2  0  0  0  0  0  0  0  0  0
  149.3494  141.1512  153.4394 O   0  0  0  0  0  0  0  0  0  0  0  0
  147.6580  140.4013  154.9680 C   0  0  0  0  0  0  0  0  0  0  0  0
  146.9050  139.4333  154.1847 N   0  0  0  0  0  0  0  0  0  0  0  0
  146.7660  139.4088  152.8143 C   0  0  0  0  0  0  0  0  0  0  0  0
  146.0415  138.4300  152.3445 N   0  0  0  0  0  0  0  0  0  0  0  0
  145.6400  137.7370  153.4787 C   0  0  0  0  0  0  0  0  0  0  0  0
  144.8379  136.5881  153.6988 C   0  0  0  0  0  0  0  0  0  0  0  0
  144.2782  135.9041  152.6765 N   0  0  0  0  0  0  0  0  0  0  0  0
  145.1729  135.5988  151.5646 C   0  0  0  0  0  0  0  0  0  0  0  0
  144.8663  134.1566  151.1515 C   0  0  1  0  0  0  0  0  0  0  0  0
  145.7324  133.3332  151.7445 F   0  0  0  0  0  0  0  0  0  0  0  0
  143.4689  133.9148  151.7138 C   0  0  0  0  0  0  0  0  0  0  0  0
  143.4762  134.7270  153.0149 C   0  0  2  0  0  0  0  0  0  0  0  0
  142.0580  135.1026  153.4687 C   0  0  0  0  0  0  0  0  0  0  0  0
  141.7386  136.3981  153.4290 N   0  0  0  0  0  0  0  0  0  0  0  0
  141.2666  134.2457  153.8596 O   0  0  0  0  0  0  0  0  0  0  0  0
  144.6489  136.1766  154.9800 N   0  0  0  0  0  0  0  0  0  0  0  0
  145.2068  136.8568  155.9862 C   0  0  0  0  0  0  0  0  0  0  0  0
  145.9746  137.9478  155.9322 N   0  0  0  0  0  0  0  0  0  0  0  0
  146.1687  138.3557  154.6449 C   0  0  0  0  0  0  0  0  0  0  0  0
  144.9371  133.9896  150.0764 H   0  0  0  0  0  0  0  0  0  0  0  0
  143.9685  134.1437  153.7956 H   0  0  0  0  0  0  0  0  0  0  0  0
  148.6953  142.1245  156.9676 H   0  0  0  0  0  0  0  0  0  0  0  0
  150.2266  141.7735  157.7549 H   0  0  0  0  0  0  0  0  0  0  0  0
  149.0448  140.4908  157.5453 H   0  0  0  0  0  0  0  0  0  0  0  0
  150.6001  141.9267  155.3271 H   0  0  0  0  0  0  0  0  0  0  0  0
  151.7880  139.7127  154.0296 H   0  0  0  0  0  0  0  0  0  0  0  0
  151.7204  138.2702  155.0558 H   0  0  0  0  0  0  0  0  0  0  0  0
  149.6432  138.6457  153.4040 H   0  0  0  0  0  0  0  0  0  0  0  0
  149.3097  138.3092  155.1011 H   0  0  0  0  0  0  0  0  0  0  0  0
  149.3678  140.5433  152.7162 H   0  0  0  0  0  0  0  0  0  0  0  0
  147.4966  140.1698  156.0208 H   0  0  0  0  0  0  0  0  0  0  0  0
  147.2225  141.3870  154.7988 H   0  0  0  0  0  0  0  0  0  0  0  0
  147.2281  140.1416  152.1687 H   0  0  0  0  0  0  0  0  0  0  0  0
  144.9310  136.2816  150.7495 H   0  0  0  0  0  0  0  0  0  0  0  0
  146.2298  135.7360  151.8023 H   0  0  0  0  0  0  0  0  0  0  0  0
  142.7233  134.3019  151.0168 H   0  0  0  0  0  0  0  0  0  0  0  0
  143.2586  132.8570  151.8760 H   0  0  0  0  0  0  0  0  0  0  0  0
  140.8197  136.7002  153.7182 H   0  0  0  0  0  0  0  0  0  0  0  0
  142.4200  137.0719  153.1109 H   0  0  0  0  0  0  0  0  0  0  0  0
  145.0104  136.4719  156.9760 H   0  0  0  0  0  0  0  0  0  0  0  0
  1  2  1  0  0  0  0
  1 29  1  0  0  0  0
  1 30  1  0  0  0  0
  1 31  1  0  0  0  0
  2  6  1  0  0  0  0
  2  3  1  0  0  0  0
  2 32  1  0  0  0  0
  3  4  1  0  0  0  0
  4  5  1  0  0  0  0
  4 33  1  0  0  0  0
  4 34  1  0  0  0  0
  5  6  1  0  0  0  0
  5 35  1  0  0  0  0
  5 36  1  0  0  0  0
  6  7  1  0  0  0  0
  6  8  1  0  0  0  0
  7 37  1  0  0  0  0
  8  9  1  0  0  0  0
  8 38  1  0  0  0  0
  8 39  1  0  0  0  0
  9 26  1  0  0  0  0
  9 10  1  0  0  0  0
 10 11  2  0  0  0  0
 10 40  1  0  0  0  0
 11 12  1  0  0  0  0
 12 26  2  0  0  0  0
 12 13  1  0  0  0  0
 13 14  1  0  0  0  0
 13 23  2  0  0  0  0
 14 19  1  0  0  0  0
 14 15  1  0  0  0  0
 15 16  1  0  0  0  0
 15 41  1  0  0  0  0
 15 42  1  0  0  0  0
 16 27  1  0  0  0  0
 16 17  1  0  0  0  0
 16 18  1  0  0  0  0
 18 19  1  0  0  0  0
 18 43  1  0  0  0  0
 18 44  1  0  0  0  0
 19 28  1  0  0  0  0
 19 20  1  0  0  0  0
 20 21  1  0  0  0  0
 20 22  2  0  0  0  0
 21 45  1  0  0  0  0
 21 46  1  0  0  0  0
 23 24  1  0  0  0  0
 24 25  2  0  0  0  0
 24 47  1  0  0  0  0
 25 26  1  0  0  0  0
M  END
> <s_m_source_file>
AV-unprocessed.smi

> <i_m_source_file_index>
196

> <i_lp_mmshare_version>
43012

> <i_f3d_flags>
0

> <s_epik_input>
W0NIMl0xW0NIMl1PW0NAQEhdKFtDSDNdKVtDQEBdMShbT0hdKVtDSDJdbihbY0hdbjIpYyhjMjMpbltjSF1uYzNONFtDSDJdW0NASF0oRilbQ0gyXVtDQEhdNEMoPU8pW05IMl0=

> <s_epik_cmdline>
J2VwaWtfcHl0aG9uJywgJy1waCcsICc3LjAnLCAnLXRuJywgJzgnLCAnLW1hJywgJzIwMCcsICctbWV0YWxfYmluZGluZycsICctaW1hZScsICc8aW5maWxlLm1hZT4nLCAnLW9tYWUnLCAnPG91dGZpbGUubWFlPic=

> <r_lp_tautomer_probability>
1

> <r_epik_Ionization_Penalty>
0.000857933

> <r_epik_Ionization_Penalty_Charging>
0

> <r_epik_Ionization_Penalty_Neutral>
0.000857933

> <r_epik_State_Penalty>
0.000462053

> <r_epik_Charging_Adjusted_Penalty>
0.000462053

> <i_epik_Tot_Q>
0

> <i_epik_Tot_abs_Q>
0

> <r_epik_Metal_State_Penalty>
-0

> <b_epik_Metal_Only>
0

> <s_lp_Force_Field>
OPLS_2005

> <r_lp_Energy>
44.4191

> <b_lp_Chiralities_Consistent>
1

> <s_lp_Variant>
AV-unprocessed.smi:196-16

> <Gold.Version>
5.8.1

> <Gold.Id.Protein>
6NUR|6NUR_protein|mol2

> <Gold.PLP.Fitness>
48.8348

> <Gold.PLP.PLP>
-38.0808

> <Gold.PLP.part.hbond>
-4.0489

> <Gold.PLP.part.metal>
0.0000

> <Gold.PLP.part.buried>
-7.5457

> <Gold.PLP.part.nonpolar>
-28.2228

> <Gold.PLP.part.repulsive>
0.6406

> <Gold.PLP.ligand.clash>
0.0000

> <Gold.PLP.ligand.torsion>
0.4838

> <Gold.PLP.Chemscore.Hbond>
2.8437

> <Gold.PLP.Chemscore.CHOScore>
1.0000

> <Gold.PLP.Chemscore.Metal>
0.0000

> <Gold.Chemscore.Hbonds>
donor molecule, donor type, donor heavy atom, donor atom, acceptor molecule, acceptor atom, score
      L1  H     7    37       P1  7957  1.00
      P1  H  7989  7998       L1     7  0.01
      P1  H  8011  8017       L1     7  0.40
      P1  H 11000 11005       L1    22  1.00
      L1  C    10    40       P1  7957  0.88

> <Gold.PLP.Chemscore.Internal.Correction>
0.1906

> <Gold.Rescore>
     Score         DG    S(hbond)    S(metal)    S(lipo)     H(rot)  DE(clash)    DE(int)     intcor
     11.98     -12.52       2.28        0.00      61.73       3.04       0.02       0.52       ----

> <Gold.Chemscore.Fitness>
11.9819

> <Gold.Chemscore.DG>
-12.5211

> <Gold.Chemscore.ZeroCoef>
-5.4800

> <Gold.Chemscore.Hbond>
2.2767

> <Gold.Chemscore.Metal>
0.0000

> <Gold.Chemscore.Lipo>
61.7311

> <Gold.Chemscore.Internal_Hbond>
0.0000

> <Gold.Chemscore.DEClash>
0.0163

> <Gold.Chemscore.DEInternal>
0.5229

> <Gold.Chemscore.Rot>
3.0413

> <Gold.Chemscore.Internal.Correction>
   9.000000E+99

> <Gold.Chemscore.Hbonds>
donor molecule, donor type, donor heavy atom, donor atom, acceptor molecule, acceptor atom, score
      L1  H     7    37       P1  7957  0.98
      P1  H  8011  8017       L1     7  0.01
      P1  H 11000 11005       L1    22  0.95

> <Gold.Chemscore.Hbond.Weighted>
-7.6042

> <Gold.Chemscore.Metal.Weighted>
-0.0000

> <Gold.Chemscore.Lipo.Weighted>
-7.2225

> <Gold.Chemscore.Internal_Hbond.Weighted>
0.0000

> <Gold.Chemscore.DEClash.Weighted>
0.0163

> <Gold.Chemscore.DEInternal.Weighted>
0.5229

> <Gold.Chemscore.Rot.Weighted>
7.7856

> <Gold.Chemscore.Internal.Correction.Weighted>
   9.000000E+99

> <Gold.Protein.RotatedTorsions>
[ 6907 6896 6895 6894 ] final   13.41 input  -60.11 | X-H torsion
[ 7974 7965 7964 7962 ] final  -73.70 input  175.53 | X-H torsion
[ 8008 7997 7996 7995 ] final   32.04 input   59.86 | X-H torsion
[ 10167 10162 10161 10158 ] final  -71.62 input  -65.29 | X-H torsion
[ 10718 10713 10712 10709 ] final -126.26 input   66.30 | X-H torsion
[ 10763 10752 10751 10750 ] final -121.08 input  -60.55 | X-H torsion
[ 11005 11000 10999 10996 ] final   14.99 input  -57.11 | X-H torsion

> <Gold.Protein.ActiveResidues>
 VAL166  LYS551  ARG553  GLY616  TRP617  ASP618  TYR619  PRO620  LYS621  CYS622 
 ASP623  PHE694  ASN695  SER759  ASP760  ASP761  ALA762  ILE779  LEU786  VAL792 
 PHE793  MET794  SER795  GLU796  ALA797  LYS798  CYS799  TRP800  GLU811  SER814 

> <Gold.Protein.RotatedAtoms>
  151.7858  135.0749  160.0380 H   0  0  0  0  0  0  0  0  0  0  0  0  # atno 6907 bound_to 6896
  152.3191  133.5830  159.5740 H   0  0  0  0  0  0  0  0  0  0  0  0  # atno 6908 bound_to 6896
  150.7360  133.9954  159.3662 H   0  0  0  0  0  0  0  0  0  0  0  0  # atno 6909 bound_to 6896
  145.6487  140.9289  143.0996 H   0  0  0  0  0  0  0  0  0  0  0  0  # atno 7974 bound_to 7965
  155.1160  140.3243  155.4509 H   0  0  0  0  0  0  0  0  0  0  0  0  # atno 8008 bound_to 7997
  156.2677  140.2035  156.6232 H   0  0  0  0  0  0  0  0  0  0  0  0  # atno 8009 bound_to 7997
  154.6719  140.0535  157.0162 H   0  0  0  0  0  0  0  0  0  0  0  0  # atno 8010 bound_to 7997
  140.5258  143.2326  151.7350 H   0  0  0  0  0  0  0  0  0  0  0  0  # atno 10167 bound_to 10162
  156.1749  130.6692  151.0229 H   0  0  0  0  0  0  0  0  0  0  0  0  # atno 10718 bound_to 10713
  154.8660  135.4180  154.2562 H   0  0  0  0  0  0  0  0  0  0  0  0  # atno 10763 bound_to 10752
  153.3499  135.6998  153.6803 H   0  0  0  0  0  0  0  0  0  0  0  0  # atno 10764 bound_to 10752
  153.5747  135.3584  155.2824 H   0  0  0  0  0  0  0  0  0  0  0  0  # atno 10765 bound_to 10752
  140.4633  134.1105  155.7720 H   0  0  0  0  0  0  0  0  0  0  0  0  # atno 11005 bound_to 11000
  144.7130  139.8298  143.7408 LP  0  0  0  0  0  0  0  0  0  0  0  0  # atno 17320 bound_to 7965
  146.1221  139.4241  143.0221 LP  0  0  0  0  0  0  0  0  0  0  0  0  # atno 17321 bound_to 7965
  139.4938  144.4188  152.0001 LP  0  0  0  0  0  0  0  0  0  0  0  0  # atno 17342 bound_to 10162
  140.3287  144.3342  150.5992 LP  0  0  0  0  0  0  0  0  0  0  0  0  # atno 17343 bound_to 10162
  157.6828  131.0833  150.7323 LP  0  0  0  0  0  0  0  0  0  0  0  0  # atno 17370 bound_to 10713
  156.7381  130.4730  149.5484 LP  0  0  0  0  0  0  0  0  0  0  0  0  # atno 17371 bound_to 10713
  141.1611  133.8791  157.1845 LP  0  0  0  0  0  0  0  0  0  0  0  0  # atno 17394 bound_to 11000
  139.9931  135.0057  157.0021 LP  0  0  0  0  0  0  0  0  0  0  0  0  # atno 17395 bound_to 11000

$$$$
