AV-unprocessed.smi:861|AV-procd|sdf|3966|dock1
  -GOLD-   22720 1433D 1   1.00000     0.00000
 Structure written by MMmdl.
 44 45  0  0  0  0  0  0  0  0  2 V2000
  152.7588  143.2623  160.0983 C   0  0  0  0  0  0  0  0  0  0  0  0
  151.9551  144.2977  159.2936 C   0  0  0  0  0  0  0  0  0  0  0  0
  151.6116  145.5095  160.1735 C   0  0  0  0  0  0  0  0  0  0  0  0
  150.6782  143.6982  158.6702 C   0  0  0  0  0  0  0  0  0  0  0  0
  150.9500  142.6892  157.5374 C   0  0  0  0  0  0  0  0  0  0  0  0
  149.7488  142.4297  156.7043 N   0  3  1  0  0  0  0  0  0  0  0  0
  150.0071  141.4286  155.6426 C   0  0  0  0  0  0  0  0  0  0  0  0
  148.7551  141.2292  154.7735 C   0  0  0  0  0  0  0  0  0  0  0  0
  147.6616  140.8476  155.5979 O   0  0  0  0  0  0  0  0  0  0  0  0
  147.3345  141.8448  156.5589 C   0  0  1  0  0  0  0  0  0  0  0  0
  146.0788  141.3659  157.3104 C   0  0  0  0  0  0  0  0  0  0  0  0
  145.3520  142.4513  157.9601 N   0  0  0  0  0  0  0  0  0  0  0  0
  145.9314  143.2205  158.9800 C   0  0  0  0  0  0  0  0  0  0  0  0
  145.5162  144.5574  159.1439 C   0  0  0  0  0  0  0  0  0  0  0  0
  146.1108  145.3043  160.1758 C   0  0  0  0  0  0  0  0  0  0  0  0
  147.0762  144.6562  160.9678 C   0  0  0  0  0  0  0  0  0  0  0  0
  147.4367  143.3686  160.7670 N   0  0  0  0  0  0  0  0  0  0  0  0
  146.8712  142.6607  159.7829 N   0  0  0  0  0  0  0  0  0  0  0  0
  148.5481  142.0500  157.4897 C   0  0  0  0  0  0  0  0  0  0  0  0
  152.1593  142.8298  160.8999 H   0  0  0  0  0  0  0  0  0  0  0  0
  153.6385  143.7185  160.5532 H   0  0  0  0  0  0  0  0  0  0  0  0
  153.1128  142.4475  159.4671 H   0  0  0  0  0  0  0  0  0  0  0  0
  152.5911  144.6584  158.4840 H   0  0  0  0  0  0  0  0  0  0  0  0
  150.9767  145.2232  161.0126 H   0  0  0  0  0  0  0  0  0  0  0  0
  151.0846  146.2749  159.6033 H   0  0  0  0  0  0  0  0  0  0  0  0
  152.5130  145.9685  160.5809 H   0  0  0  0  0  0  0  0  0  0  0  0
  150.0831  143.2362  159.4580 H   0  0  0  0  0  0  0  0  0  0  0  0
  150.0709  144.5105  158.2682 H   0  0  0  0  0  0  0  0  0  0  0  0
  151.7352  143.0971  156.8992 H   0  0  0  0  0  0  0  0  0  0  0  0
  151.3291  141.7457  157.9318 H   0  0  0  0  0  0  0  0  0  0  0  0
  150.8386  141.7548  155.0168 H   0  0  0  0  0  0  0  0  0  0  0  0
  150.2998  140.4809  156.0976 H   0  0  0  0  0  0  0  0  0  0  0  0
  148.5131  142.1384  154.2206 H   0  0  0  0  0  0  0  0  0  0  0  0
  148.9306  140.4459  154.0360 H   0  0  0  0  0  0  0  0  0  0  0  0
  147.1119  142.7750  156.0334 H   0  0  0  0  0  0  0  0  0  0  0  0
  145.4097  140.8422  156.6263 H   0  0  0  0  0  0  0  0  0  0  0  0
  146.3603  140.6379  158.0717 H   0  0  0  0  0  0  0  0  0  0  0  0
  144.4363  142.6969  157.6118 H   0  0  0  0  0  0  0  0  0  0  0  0
  144.7679  144.9989  158.5021 H   0  0  0  0  0  0  0  0  0  0  0  0
  145.8383  146.3338  160.3546 H   0  0  0  0  0  0  0  0  0  0  0  0
  147.5674  145.1769  161.7763 H   0  0  0  0  0  0  0  0  0  0  0  0
  148.7521  141.1368  158.0512 H   0  0  0  0  0  0  0  0  0  0  0  0
  148.3166  142.8278  158.2163 H   0  0  0  0  0  0  0  0  0  0  0  0
  149.5312  143.2955  156.2314 H   0  0  0  0  0  0  0  0  0  0  0  0
  1  2  1  0  0  0  0
  1 20  1  0  0  0  0
  1 21  1  0  0  0  0
  1 22  1  0  0  0  0
  2  3  1  0  0  0  0
  2  4  1  0  0  0  0
  2 23  1  0  0  0  0
  3 24  1  0  0  0  0
  3 25  1  0  0  0  0
  3 26  1  0  0  0  0
  4  5  1  0  0  0  0
  4 27  1  0  0  0  0
  4 28  1  0  0  0  0
  5  6  1  0  0  0  0
  5 29  1  0  0  0  0
  5 30  1  0  0  0  0
  6 19  1  0  0  0  0
  6  7  1  0  0  0  0
  6 44  1  0  0  0  0
  7  8  1  0  0  0  0
  7 31  1  0  0  0  0
  7 32  1  0  0  0  0
  8  9  1  0  0  0  0
  8 33  1  0  0  0  0
  8 34  1  0  0  0  0
  9 10  1  0  0  0  0
 10 11  1  0  0  0  0
 10 19  1  0  0  0  0
 10 35  1  0  0  0  0
 11 12  1  0  0  0  0
 11 36  1  0  0  0  0
 11 37  1  0  0  0  0
 12 13  1  0  0  0  0
 12 38  1  0  0  0  0
 13 18  1  0  0  0  0
 13 14  2  0  0  0  0
 14 15  1  0  0  0  0
 14 39  1  0  0  0  0
 15 16  2  0  0  0  0
 15 40  1  0  0  0  0
 16 17  1  0  0  0  0
 16 41  1  0  0  0  0
 17 18  2  0  0  0  0
 19 42  1  0  0  0  0
 19 43  1  0  0  0  0
M  CHG  1   6   1
M  END
> <s_m_source_file>
AV-unprocessed.smi

> <i_m_source_file_index>
861

> <i_lp_mmshare_version>
43012

> <i_f3d_flags>
0

> <s_epik_input>
W0NIM11bQ0hdKFtDSDNdKVtDSDJdW0NIMl1OMVtDSDJdW0NIMl1PW0NASF0oW0NIMl0xKVtDSDJdW05IXWMyW2NIXVtjSF1bY0hdbm4y

> <s_epik_cmdline>
J2VwaWtfcHl0aG9uJywgJy1waCcsICc3LjAnLCAnLXRuJywgJzgnLCAnLW1hJywgJzIwMCcsICctbWV0YWxfYmluZGluZycsICctaW1hZScsICc8aW5maWxlLm1hZT4nLCAnLW9tYWUnLCAnPG91dGZpbGUubWFlPic=

> <r_lp_tautomer_probability>
0.999978

> <r_epik_Ionization_Penalty>
0.114704

> <r_epik_Ionization_Penalty_Charging>
0.0953451

> <r_epik_Ionization_Penalty_Neutral>
0.0193593

> <r_epik_State_Penalty>
0.104983

> <r_epik_Charging_Adjusted_Penalty>
0.200328

> <i_epik_Tot_Q>
1

> <i_epik_Tot_abs_Q>
1

> <r_epik_Metal_State_Penalty>
0.100113

> <b_epik_Metal_Only>
0

> <s_lp_Force_Field>
OPLS_2005

> <r_lp_Energy>
24.1259

> <b_lp_Chiralities_Consistent>
1

> <s_lp_Variant>
AV-unprocessed.smi:861-1

> <Gold.Version>
5.8.1

> <Gold.Id.Protein>
6NUR|6NUR_protein|mol2

> <Gold.PLP.Fitness>
47.8620

> <Gold.PLP.PLP>
-37.2759

> <Gold.PLP.part.hbond>
-3.9956

> <Gold.PLP.part.metal>
0.0000

> <Gold.PLP.part.buried>
-5.7534

> <Gold.PLP.part.nonpolar>
-29.0674

> <Gold.PLP.part.repulsive>
0.2295

> <Gold.PLP.ligand.clash>
0.0000

> <Gold.PLP.ligand.torsion>
0.5349

> <Gold.PLP.Chemscore.Hbond>
3.8580

> <Gold.PLP.Chemscore.CHOScore>
0.0000

> <Gold.PLP.Chemscore.Metal>
0.0000

> <Gold.Chemscore.Hbonds>
donor molecule, donor type, donor heavy atom, donor atom, acceptor molecule, acceptor atom, score
      L1  H     6    44       P1  8028  2.00
      P1  H  6933  6944       L1    17  1.00
      P1  H  6934  6946       L1    18  0.80

> <Gold.PLP.Chemscore.Internal.Correction>
0.0819

> <Gold.Rescore>
     Score         DG    S(hbond)    S(metal)    S(lipo)     H(rot)  DE(clash)    DE(int)     intcor
     15.23     -17.09       1.69        0.00      88.39       1.71       0.00       1.86       ----

> <Gold.Chemscore.Fitness>
15.2296

> <Gold.Chemscore.DG>
-17.0924

> <Gold.Chemscore.ZeroCoef>
-5.4800

> <Gold.Chemscore.Hbond>
1.6933

> <Gold.Chemscore.Metal>
0.0000

> <Gold.Chemscore.Lipo>
88.3862

> <Gold.Chemscore.Internal_Hbond>
0.0000

> <Gold.Chemscore.DEClash>
0.0021

> <Gold.Chemscore.DEInternal>
1.8607

> <Gold.Chemscore.Rot>
1.7127

> <Gold.Chemscore.Internal.Correction>
   9.000000E+99

> <Gold.Chemscore.Hbonds>
donor molecule, donor type, donor heavy atom, donor atom, acceptor molecule, acceptor atom, score
      L1  H     6    44       P1  8028  1.00
      P1  H  6933  6944       L1    17  0.49
      P1  H  6934  6946       L1    18  0.13

> <Gold.Chemscore.Hbond.Weighted>
-5.6557

> <Gold.Chemscore.Metal.Weighted>
-0.0000

> <Gold.Chemscore.Lipo.Weighted>
-10.3412

> <Gold.Chemscore.Internal_Hbond.Weighted>
0.0000

> <Gold.Chemscore.DEClash.Weighted>
0.0021

> <Gold.Chemscore.DEInternal.Weighted>
1.8607

> <Gold.Chemscore.Rot.Weighted>
4.3844

> <Gold.Chemscore.Internal.Correction.Weighted>
   9.000000E+99

> <Gold.Protein.RotatedTorsions>
[ 6907 6896 6895 6894 ] final -158.07 input  -60.11 | X-H torsion
[ 7974 7965 7964 7962 ] final -143.49 input  175.53 | X-H torsion
[ 8008 7997 7996 7995 ] final  -53.41 input   59.86 | X-H torsion
[ 10167 10162 10161 10158 ] final   85.17 input  -65.29 | X-H torsion
[ 10718 10713 10712 10709 ] final  133.45 input   66.30 | X-H torsion
[ 10763 10752 10751 10750 ] final  164.19 input  -60.55 | X-H torsion
[ 11005 11000 10999 10996 ] final -153.40 input  -57.11 | X-H torsion

> <Gold.Protein.ActiveResidues>
 VAL166  LYS551  ARG553  GLY616  TRP617  ASP618  TYR619  PRO620  LYS621  CYS622 
 ASP623  PHE694  ASN695  SER759  ASP760  ASP761  ALA762  ILE779  LEU786  VAL792 
 PHE793  MET794  SER795  GLU796  ALA797  LYS798  CYS799  TRP800  GLU811  SER814 

> <Gold.Protein.RotatedAtoms>
  151.3125  133.4074  159.2647 H   0  0  0  0  0  0  0  0  0  0  0  0  # atno 6907 bound_to 6896
  151.0103  134.9392  159.8013 H   0  0  0  0  0  0  0  0  0  0  0  0  # atno 6908 bound_to 6896
  152.5299  134.3089  159.9158 H   0  0  0  0  0  0  0  0  0  0  0  0  # atno 6909 bound_to 6896
  144.8366  140.5828  143.5480 H   0  0  0  0  0  0  0  0  0  0  0  0  # atno 7974 bound_to 7965
  154.4132  140.1200  156.5150 H   0  0  0  0  0  0  0  0  0  0  0  0  # atno 8008 bound_to 7997
  155.6761  140.3496  155.4817 H   0  0  0  0  0  0  0  0  0  0  0  0  # atno 8009 bound_to 7997
  155.9592  140.1119  157.0901 H   0  0  0  0  0  0  0  0  0  0  0  0  # atno 8010 bound_to 7997
  139.9004  144.6332  150.8643 H   0  0  0  0  0  0  0  0  0  0  0  0  # atno 10167 bound_to 10162
  157.4772  131.1083  150.9728 H   0  0  0  0  0  0  0  0  0  0  0  0  # atno 10718 bound_to 10713
  154.3051  135.2758  155.2593 H   0  0  0  0  0  0  0  0  0  0  0  0  # atno 10763 bound_to 10752
  154.5012  135.5807  153.6536 H   0  0  0  0  0  0  0  0  0  0  0  0  # atno 10764 bound_to 10752
  152.9895  135.6158  154.3224 H   0  0  0  0  0  0  0  0  0  0  0  0  # atno 10765 bound_to 10752
  140.7086  134.3858  157.5201 H   0  0  0  0  0  0  0  0  0  0  0  0  # atno 11005 bound_to 11000
  145.4782  139.1497  143.3776 LP  0  0  0  0  0  0  0  0  0  0  0  0  # atno 17320 bound_to 7965
  146.2664  140.4918  142.8832 LP  0  0  0  0  0  0  0  0  0  0  0  0  # atno 17321 bound_to 7965
  140.7708  143.3441  151.2148 LP  0  0  0  0  0  0  0  0  0  0  0  0  # atno 17342 bound_to 10162
  139.7030  143.9502  152.2914 LP  0  0  0  0  0  0  0  0  0  0  0  0  # atno 17343 bound_to 10162
  157.0473  130.5773  149.5365 LP  0  0  0  0  0  0  0  0  0  0  0  0  # atno 17370 bound_to 10713
  156.0103  130.5194  150.7965 LP  0  0  0  0  0  0  0  0  0  0  0  0  # atno 17371 bound_to 10713
  139.8877  134.8874  156.2511 LP  0  0  0  0  0  0  0  0  0  0  0  0  # atno 17394 bound_to 11000
  141.0104  133.7099  156.1102 LP  0  0  0  0  0  0  0  0  0  0  0  0  # atno 17395 bound_to 11000

$$$$
