AV-unprocessed.smi:311|AV-procd|sdf|2304|dock5
  -GOLD-   2262022203D 1   1.00000     0.00000
 Structure written by MMmdl.
 44 46  0  0  0  0  0  0  0  0  2 V2000
  150.6152  135.3122  155.8827 C   0  0  0  0  0  0  0  0  0  0  0  0
  150.0368  133.9703  156.2301 C   0  0  0  0  0  0  0  0  0  0  0  0
  149.9237  133.6166  157.4990 N   0  0  0  0  0  0  0  0  0  0  0  0
  149.3505  132.3415  157.4918 O   0  0  0  0  0  0  0  0  0  0  0  0
  149.1331  131.9750  156.2033 C   0  0  0  0  0  0  0  0  0  0  0  0
  148.5115  130.6368  155.9873 C   0  0  0  0  0  0  0  0  0  0  0  0
  149.5450  132.9626  155.3508 C   0  0  0  0  0  0  0  0  0  0  0  0
  149.4844  132.9978  153.8446 C   0  0  0  0  0  0  0  0  0  0  0  0
  148.0233  132.9690  153.3991 C   0  0  0  0  0  0  0  0  0  0  0  0
  147.3544  131.9462  153.5433 O   0  0  0  0  0  0  0  0  0  0  0  0
  147.5525  134.0895  152.8300 N   0  0  0  0  0  0  0  0  0  0  0  0
  146.2330  134.2363  152.2251 C   0  0  1  0  0  0  0  0  0  0  0  0
  145.7936  135.7003  152.0870 C   0  0  0  0  0  0  0  0  0  0  0  0
  145.0439  135.7765  150.7415 C   0  0  0  0  0  0  0  0  0  0  0  0
  145.0187  134.4028  150.1870 N   0  3  2  0  0  0  0  0  0  0  0  0
  143.7246  133.7154  150.4531 C   0  0  0  0  0  0  0  0  0  0  0  0
  143.7761  132.2235  150.0980 C   0  0  0  0  0  0  0  0  0  0  0  0
  144.8980  131.5320  150.8769 C   0  0  0  0  0  0  0  0  0  0  0  0
  146.2327  132.2082  150.5499 C   0  0  0  0  0  0  0  0  0  0  0  0
  146.2065  133.7375  150.7744 C   0  0  2  0  0  0  0  0  0  0  0  0
  151.2476  135.2492  154.9970 H   0  0  0  0  0  0  0  0  0  0  0  0
  151.2247  135.7109  156.6944 H   0  0  0  0  0  0  0  0  0  0  0  0
  149.8245  136.0330  155.6738 H   0  0  0  0  0  0  0  0  0  0  0  0
  147.9390  130.6168  155.0597 H   0  0  0  0  0  0  0  0  0  0  0  0
  147.8347  130.3852  156.8043 H   0  0  0  0  0  0  0  0  0  0  0  0
  149.2761  129.8621  155.9308 H   0  0  0  0  0  0  0  0  0  0  0  0
  149.9628  133.8953  153.4508 H   0  0  0  0  0  0  0  0  0  0  0  0
  150.0100  132.1530  153.3981 H   0  0  0  0  0  0  0  0  0  0  0  0
  148.1780  134.8794  152.7607 H   0  0  0  0  0  0  0  0  0  0  0  0
  145.4807  133.7085  152.8139 H   0  0  0  0  0  0  0  0  0  0  0  0
  145.1593  135.9996  152.9221 H   0  0  0  0  0  0  0  0  0  0  0  0
  146.6513  136.3745  152.0694 H   0  0  0  0  0  0  0  0  0  0  0  0
  144.0449  136.2026  150.8465 H   0  0  0  0  0  0  0  0  0  0  0  0
  145.5952  136.4157  150.0508 H   0  0  0  0  0  0  0  0  0  0  0  0
  143.4536  133.8259  151.5044 H   0  0  0  0  0  0  0  0  0  0  0  0
  142.9390  134.2052  149.8767 H   0  0  0  0  0  0  0  0  0  0  0  0
  142.8195  131.7533  150.3277 H   0  0  0  0  0  0  0  0  0  0  0  0
  143.9341  132.1003  149.0257 H   0  0  0  0  0  0  0  0  0  0  0  0
  144.7011  131.5827  151.9484 H   0  0  0  0  0  0  0  0  0  0  0  0
  144.9406  130.4737  150.6172 H   0  0  0  0  0  0  0  0  0  0  0  0
  147.0389  131.7494  151.1221 H   0  0  0  0  0  0  0  0  0  0  0  0
  146.4691  132.0152  149.5026 H   0  0  0  0  0  0  0  0  0  0  0  0
  147.0786  134.1538  150.2655 H   0  0  0  0  0  0  0  0  0  0  0  0
  145.1345  134.4441  149.1844 H   0  0  0  0  0  0  0  0  0  0  0  0
  1  2  1  0  0  0  0
  1 21  1  0  0  0  0
  1 22  1  0  0  0  0
  1 23  1  0  0  0  0
  2  7  1  0  0  0  0
  2  3  2  0  0  0  0
  3  4  1  0  0  0  0
  4  5  1  0  0  0  0
  5  6  1  0  0  0  0
  5  7  2  0  0  0  0
  6 24  1  0  0  0  0
  6 25  1  0  0  0  0
  6 26  1  0  0  0  0
  7  8  1  0  0  0  0
  8  9  1  0  0  0  0
  8 27  1  0  0  0  0
  8 28  1  0  0  0  0
  9 10  2  0  0  0  0
  9 11  1  0  0  0  0
 11 12  1  0  0  0  0
 11 29  1  0  0  0  0
 12 20  1  0  0  0  0
 12 13  1  0  0  0  0
 12 30  1  0  0  0  0
 13 14  1  0  0  0  0
 13 31  1  0  0  0  0
 13 32  1  0  0  0  0
 14 15  1  0  0  0  0
 14 33  1  0  0  0  0
 14 34  1  0  0  0  0
 15 20  1  0  0  0  0
 15 16  1  0  0  0  0
 15 44  1  0  0  0  0
 16 17  1  0  0  0  0
 16 35  1  0  0  0  0
 16 36  1  0  0  0  0
 17 18  1  0  0  0  0
 17 37  1  0  0  0  0
 17 38  1  0  0  0  0
 18 19  1  0  0  0  0
 18 39  1  0  0  0  0
 18 40  1  0  0  0  0
 19 20  1  0  0  0  0
 19 41  1  0  0  0  0
 19 42  1  0  0  0  0
 20 43  1  0  0  0  0
M  CHG  1  15   1
M  END
> <s_m_source_file>
AV-unprocessed.smi

> <i_m_source_file_index>
311

> <i_lp_mmshare_version>
43012

> <i_f3d_flags>
0

> <s_epik_input>
W0NIM11jMW5vYyhbQ0gzXSljMVtDSDJdQyg9TylbTkhdW0NASF0oW0NIMl1bQ0gyXTIpW0NAQEhdKE4yMylbQ0gyXVtDSDJdW0NIMl1bQ0gyXTM=

> <s_epik_cmdline>
J2VwaWtfcHl0aG9uJywgJy1waCcsICc3LjAnLCAnLXRuJywgJzgnLCAnLW1hJywgJzIwMCcsICctbWV0YWxfYmluZGluZycsICctaW1hZScsICc8aW5maWxlLm1hZT4nLCAnLW9tYWUnLCAnPG91dGZpbGUubWFlPic=

> <r_epik_Ionization_Penalty>
0.00173669

> <r_epik_Ionization_Penalty_Charging>
0.0017366

> <r_epik_Ionization_Penalty_Neutral>
9.2145e-08

> <r_epik_State_Penalty>
0.00117499

> <r_epik_Charging_Adjusted_Penalty>
0.00291159

> <i_epik_Tot_Q>
1

> <i_epik_Tot_abs_Q>
1

> <r_epik_Metal_State_Penalty>
-0

> <b_epik_Metal_Only>
0

> <s_lp_Force_Field>
OPLS_2005

> <r_lp_Energy>
30.3664

> <b_lp_Chiralities_Consistent>
1

> <s_lp_Variant>
AV-unprocessed.smi:311-8

> <Gold.Version>
5.8.1

> <Gold.Id.Protein>
6NUR|6NUR_protein|mol2

> <Gold.PLP.Fitness>
40.7235

> <Gold.PLP.PLP>
-32.5158

> <Gold.PLP.part.hbond>
-3.0000

> <Gold.PLP.part.metal>
0.0000

> <Gold.PLP.part.buried>
-1.8179

> <Gold.PLP.part.nonpolar>
-28.1369

> <Gold.PLP.part.repulsive>
0.1353

> <Gold.PLP.ligand.clash>
0.0000

> <Gold.PLP.ligand.torsion>
0.4027

> <Gold.PLP.Chemscore.Hbond>
3.0000

> <Gold.PLP.Chemscore.CHOScore>
0.0000

> <Gold.PLP.Chemscore.Metal>
0.0000

> <Gold.Chemscore.Hbonds>
donor molecule, donor type, donor heavy atom, donor atom, acceptor molecule, acceptor atom, score
      L1  H    11    29       P1  7948  1.00
      L1  H    15    44       P1  7921  1.00
      P1  H  6896  6908       L1     3  1.00

> <Gold.PLP.Chemscore.Internal.Correction>
0.0131

> <Gold.Rescore>
     Score         DG    S(hbond)    S(metal)    S(lipo)     H(rot)  DE(clash)    DE(int)     intcor
     18.48     -20.48       2.59        0.00      83.80       1.36       0.42       1.58       ----

> <Gold.Chemscore.Fitness>
18.4754

> <Gold.Chemscore.DG>
-20.4768

> <Gold.Chemscore.ZeroCoef>
-5.4800

> <Gold.Chemscore.Hbond>
2.5944

> <Gold.Chemscore.Metal>
0.0000

> <Gold.Chemscore.Lipo>
83.7994

> <Gold.Chemscore.Internal_Hbond>
0.0000

> <Gold.Chemscore.DEClash>
0.4197

> <Gold.Chemscore.DEInternal>
1.5817

> <Gold.Chemscore.Rot>
1.3567

> <Gold.Chemscore.Internal.Correction>
   9.000000E+99

> <Gold.Chemscore.Hbonds>
donor molecule, donor type, donor heavy atom, donor atom, acceptor molecule, acceptor atom, score
      L1  H    11    29       P1  7948  0.72
      L1  H    15    44       P1  7921  0.97
      P1  H  6896  6908       L1     3  0.38

> <Gold.Chemscore.Hbond.Weighted>
-8.6654

> <Gold.Chemscore.Metal.Weighted>
-0.0000

> <Gold.Chemscore.Lipo.Weighted>
-9.8045

> <Gold.Chemscore.Internal_Hbond.Weighted>
0.0000

> <Gold.Chemscore.DEClash.Weighted>
0.4197

> <Gold.Chemscore.DEInternal.Weighted>
1.5817

> <Gold.Chemscore.Rot.Weighted>
3.4731

> <Gold.Chemscore.Internal.Correction.Weighted>
   9.000000E+99

> <Gold.Protein.RotatedTorsions>
[ 6907 6896 6895 6894 ] final  109.39 input  -60.11 | X-H torsion
[ 7974 7965 7964 7962 ] final  128.02 input  175.53 | X-H torsion
[ 8008 7997 7996 7995 ] final   22.30 input   59.86 | X-H torsion
[ 10167 10162 10161 10158 ] final  137.30 input  -65.29 | X-H torsion
[ 10718 10713 10712 10709 ] final  -56.94 input   66.30 | X-H torsion
[ 10763 10752 10751 10750 ] final  129.36 input  -60.55 | X-H torsion
[ 11005 11000 10999 10996 ] final   58.62 input  -57.11 | X-H torsion

> <Gold.Protein.ActiveResidues>
 VAL166  LYS551  ARG553  GLY616  TRP617  ASP618  TYR619  PRO620  LYS621  CYS622 
 ASP623  PHE694  ASN695  SER759  ASP760  ASP761  ALA762  ILE779  LEU786  VAL792 
 PHE793  MET794  SER795  GLU796  ALA797  LYS798  CYS799  TRP800  GLU811  SER814 

> <Gold.Protein.RotatedAtoms>
  152.5069  133.8950  159.7412 H   0  0  0  0  0  0  0  0  0  0  0  0  # atno 6907 bound_to 6896
  150.9380  133.6681  159.2803 H   0  0  0  0  0  0  0  0  0  0  0  0  # atno 6908 bound_to 6896
  151.4002  135.0974  159.9606 H   0  0  0  0  0  0  0  0  0  0  0  0  # atno 6909 bound_to 6896
  145.0441  139.3938  143.5087 H   0  0  0  0  0  0  0  0  0  0  0  0  # atno 7974 bound_to 7965
  154.9637  140.3081  155.5019 H   0  0  0  0  0  0  0  0  0  0  0  0  # atno 8008 bound_to 7997
  156.2974  140.2296  156.4663 H   0  0  0  0  0  0  0  0  0  0  0  0  # atno 8009 bound_to 7997
  154.7941  140.0438  157.1212 H   0  0  0  0  0  0  0  0  0  0  0  0  # atno 8010 bound_to 7997
  139.5149  144.6417  151.5549 H   0  0  0  0  0  0  0  0  0  0  0  0  # atno 10167 bound_to 10162
  156.1249  130.4163  150.0373 H   0  0  0  0  0  0  0  0  0  0  0  0  # atno 10718 bound_to 10713
  153.7405  135.3225  155.3303 H   0  0  0  0  0  0  0  0  0  0  0  0  # atno 10763 bound_to 10752
  154.8296  135.4543  154.1031 H   0  0  0  0  0  0  0  0  0  0  0  0  # atno 10764 bound_to 10752
  153.2205  135.6947  153.8088 H   0  0  0  0  0  0  0  0  0  0  0  0  # atno 10765 bound_to 10752
  140.0364  134.5937  155.9439 H   0  0  0  0  0  0  0  0  0  0  0  0  # atno 11005 bound_to 11000
  146.3512  140.0058  142.8672 LP  0  0  0  0  0  0  0  0  0  0  0  0  # atno 17320 bound_to 7965
  145.1610  140.9672  143.4377 LP  0  0  0  0  0  0  0  0  0  0  0  0  # atno 17321 bound_to 7965
  140.6187  143.9300  150.6509 LP  0  0  0  0  0  0  0  0  0  0  0  0  # atno 17342 bound_to 10162
  140.2566  143.3554  152.1359 LP  0  0  0  0  0  0  0  0  0  0  0  0  # atno 17343 bound_to 10162
  156.8302  130.9389  151.3637 LP  0  0  0  0  0  0  0  0  0  0  0  0  # atno 17370 bound_to 10713
  157.6431  130.8822  149.9486 LP  0  0  0  0  0  0  0  0  0  0  0  0  # atno 17371 bound_to 10713
  141.1859  133.6556  156.5219 LP  0  0  0  0  0  0  0  0  0  0  0  0  # atno 17394 bound_to 11000
  140.4141  134.7246  157.4852 LP  0  0  0  0  0  0  0  0  0  0  0  0  # atno 17395 bound_to 11000

$$$$
