AV-unprocessed.smi:86|AV-procd|sdf|816|dock8
  -GOLD-   2262017213D 1   1.00000     0.00000
 Structure written by MMmdl.
 51 55  0  0  0  0  0  0  0  0  1 V2000
  144.0218  135.0203  149.5135 O   0  0  0  0  0  0  0  0  0  0  0  0
  144.6411  134.5761  150.7038 C   0  0  0  0  0  0  0  0  0  0  0  0
  144.7389  133.0407  150.7489 C   0  0  0  0  0  0  0  0  0  0  0  0
  144.9848  132.5440  152.1894 C   0  0  0  0  0  0  0  0  0  0  0  0
  145.8530  133.4034  152.9806 N   0  0  0  0  0  0  0  0  0  0  0  0
  145.5031  134.5920  153.5782 C   0  0  0  0  0  0  0  0  0  0  0  0
  146.4602  135.1851  154.2361 N   0  0  0  0  0  0  0  0  0  0  0  0
  147.5548  134.3376  154.0980 C   0  0  0  0  0  0  0  0  0  0  0  0
  148.9066  134.3608  154.5572 C   0  0  0  0  0  0  0  0  0  0  0  0
  149.4534  135.3518  155.3091 N   0  0  0  0  0  0  0  0  0  0  0  0
  148.6561  136.4505  155.8494 C   0  0  0  0  0  0  0  0  0  0  0  0
  149.6297  137.6272  156.0170 C   0  0  2  0  0  0  0  0  0  0  0  0
  149.5926  138.5606  154.7865 C   0  0  0  0  0  0  0  0  0  0  0  0
  150.7994  139.5066  154.7385 C   0  0  0  0  0  0  0  0  0  0  0  0
  152.1082  138.7026  154.7251 C   0  0  1  0  0  0  0  0  0  0  0  0
  153.2055  139.5898  154.6802 O   0  0  0  0  0  0  0  0  0  0  0  0
  152.2180  137.8163  155.9768 C   0  0  0  0  0  0  0  0  0  0  0  0
  150.9836  136.9165  156.1827 C   0  0  2  0  0  0  0  0  0  0  0  0
  150.8613  135.7119  155.2477 C   0  0  0  0  0  0  0  0  0  0  0  0
  149.7000  133.3169  154.1992 N   0  0  0  0  0  0  0  0  0  0  0  0
  149.2165  132.3164  153.4588 C   0  0  0  0  0  0  0  0  0  0  0  0
  147.9865  132.1621  152.9691 N   0  0  0  0  0  0  0  0  0  0  0  0
  147.1825  133.2075  153.3123 C   0  0  0  0  0  0  0  0  0  0  0  0
  143.6398  132.3038  149.9708 C   0  0  0  0  0  0  0  0  0  0  0  0
  144.5103  132.0812  148.8418 O   0  0  0  0  0  0  0  0  0  0  0  0
  145.6417  132.4344  149.6647 C   0  0  0  0  0  0  0  0  0  0  0  0
  144.6098  134.8583  148.7913 H   0  0  0  0  0  0  0  0  0  0  0  0
  145.6347  135.0235  150.7479 H   0  0  0  0  0  0  0  0  0  0  0  0
  144.0971  134.9718  151.5616 H   0  0  0  0  0  0  0  0  0  0  0  0
  144.0375  132.4390  152.7196 H   0  0  0  0  0  0  0  0  0  0  0  0
  145.4233  131.5454  152.1814 H   0  0  0  0  0  0  0  0  0  0  0  0
  144.5108  135.0125  153.5036 H   0  0  0  0  0  0  0  0  0  0  0  0
  147.8161  136.7172  155.2065 H   0  0  0  0  0  0  0  0  0  0  0  0
  148.2549  136.1437  156.8159 H   0  0  0  0  0  0  0  0  0  0  0  0
  149.3911  138.2084  156.9086 H   0  0  0  0  0  0  0  0  0  0  0  0
  149.5764  137.9689  153.8701 H   0  0  0  0  0  0  0  0  0  0  0  0
  148.6676  139.1381  154.7892 H   0  0  0  0  0  0  0  0  0  0  0  0
  150.7369  140.1352  153.8494 H   0  0  0  0  0  0  0  0  0  0  0  0
  150.7762  140.1775  155.5985 H   0  0  0  0  0  0  0  0  0  0  0  0
  152.1464  138.0820  153.8294 H   0  0  0  0  0  0  0  0  0  0  0  0
  153.1165  140.1393  153.9166 H   0  0  0  0  0  0  0  0  0  0  0  0
  153.1210  137.2062  155.9332 H   0  0  0  0  0  0  0  0  0  0  0  0
  152.3258  138.4558  156.8542 H   0  0  0  0  0  0  0  0  0  0  0  0
  151.0288  136.5228  157.1996 H   0  0  0  0  0  0  0  0  0  0  0  0
  151.5016  134.8924  155.5751 H   0  0  0  0  0  0  0  0  0  0  0  0
  151.1260  135.9739  154.2230 H   0  0  0  0  0  0  0  0  0  0  0  0
  149.9158  131.5273  153.2246 H   0  0  0  0  0  0  0  0  0  0  0  0
  143.3248  131.3655  150.4305 H   0  0  0  0  0  0  0  0  0  0  0  0
  142.7774  132.9229  149.7213 H   0  0  0  0  0  0  0  0  0  0  0  0
  146.3053  133.1542  149.1842 H   0  0  0  0  0  0  0  0  0  0  0  0
  146.1930  131.5488  149.9830 H   0  0  0  0  0  0  0  0  0  0  0  0
  1  2  1  0  0  0  0
  1 27  1  0  0  0  0
  2  3  1  0  0  0  0
  2 28  1  0  0  0  0
  2 29  1  0  0  0  0
  3 26  1  0  0  0  0
  3  4  1  0  0  0  0
  3 24  1  0  0  0  0
  4  5  1  0  0  0  0
  4 30  1  0  0  0  0
  4 31  1  0  0  0  0
  5 23  1  0  0  0  0
  5  6  1  0  0  0  0
  6  7  2  0  0  0  0
  6 32  1  0  0  0  0
  7  8  1  0  0  0  0
  8 23  2  0  0  0  0
  8  9  1  0  0  0  0
  9 10  1  0  0  0  0
  9 20  2  0  0  0  0
 10 19  1  0  0  0  0
 10 11  1  0  0  0  0
 11 12  1  0  0  0  0
 11 33  1  0  0  0  0
 11 34  1  0  0  0  0
 12 18  1  0  0  0  0
 12 13  1  0  0  0  0
 12 35  1  0  0  0  0
 13 14  1  0  0  0  0
 13 36  1  0  0  0  0
 13 37  1  0  0  0  0
 14 15  1  0  0  0  0
 14 38  1  0  0  0  0
 14 39  1  0  0  0  0
 15 16  1  0  0  0  0
 15 17  1  0  0  0  0
 15 40  1  0  0  0  0
 16 41  1  0  0  0  0
 17 18  1  0  0  0  0
 17 42  1  0  0  0  0
 17 43  1  0  0  0  0
 18 19  1  0  0  0  0
 18 44  1  0  0  0  0
 19 45  1  0  0  0  0
 19 46  1  0  0  0  0
 20 21  1  0  0  0  0
 21 22  2  0  0  0  0
 21 47  1  0  0  0  0
 22 23  1  0  0  0  0
 24 25  1  0  0  0  0
 24 48  1  0  0  0  0
 24 49  1  0  0  0  0
 25 26  1  0  0  0  0
 26 50  1  0  0  0  0
 26 51  1  0  0  0  0
M  END
> <s_m_source_file>
AV-unprocessed.smi

> <i_m_source_file_index>
86

> <i_lp_mmshare_version>
43012

> <i_f3d_flags>
0

> <s_epik_input>
W0NIMl0xT1tDSDJdQzEoW0NIMl1bT0hdKVtDSDJdbihbY0hdbjIpYyhjMjMpbltjSF1uYzNOKFtDSDJdNClbQ0gyXVtDQEBIXShbQ0BIXTQ1KVtDSDJdW0NASF0oW09IXSlbQ0gyXVtDSDJdNQ==

> <s_epik_cmdline>
J2VwaWtfcHl0aG9uJywgJy1waCcsICc3LjAnLCAnLXRuJywgJzgnLCAnLW1hJywgJzIwMCcsICctbWV0YWxfYmluZGluZycsICctaW1hZScsICc8aW5maWxlLm1hZT4nLCAnLW9tYWUnLCAnPG91dGZpbGUubWFlPic=

> <r_lp_tautomer_probability>
1

> <r_epik_Ionization_Penalty>
0.00425795

> <r_epik_Ionization_Penalty_Charging>
0

> <r_epik_Ionization_Penalty_Neutral>
0.00425795

> <r_epik_State_Penalty>
0.00299946

> <r_epik_Charging_Adjusted_Penalty>
0.00299946

> <i_epik_Tot_Q>
0

> <i_epik_Tot_abs_Q>
0

> <r_epik_Metal_State_Penalty>
-0

> <b_epik_Metal_Only>
0

> <s_lp_Force_Field>
OPLS_2005

> <r_lp_Energy>
53.5956

> <b_lp_Chiralities_Consistent>
1

> <s_lp_Variant>
AV-unprocessed.smi:86-5

> <Gold.Version>
5.8.1

> <Gold.Id.Protein>
6NUR|6NUR_protein|mol2

> <Gold.PLP.Fitness>
45.3916

> <Gold.PLP.PLP>
-41.1234

> <Gold.PLP.part.hbond>
-4.5978

> <Gold.PLP.part.metal>
0.0000

> <Gold.PLP.part.buried>
-4.3847

> <Gold.PLP.part.nonpolar>
-31.4392

> <Gold.PLP.part.repulsive>
0.5457

> <Gold.PLP.ligand.clash>
0.0000

> <Gold.PLP.ligand.torsion>
1.1051

> <Gold.PLP.Chemscore.Hbond>
2.0037

> <Gold.PLP.Chemscore.CHOScore>
0.0000

> <Gold.PLP.Chemscore.Metal>
0.0000

> <Gold.Chemscore.Hbonds>
donor molecule, donor type, donor heavy atom, donor atom, acceptor molecule, acceptor atom, score
      L1  H     1    27       P1  7921  1.00
      P1  H  7997  8009       L1    16  1.00
      P1  H 10785 10796       L1    25  0.01

> <Gold.PLP.Chemscore.Internal.Correction>
0.4673

> <Gold.Rescore>
     Score         DG    S(hbond)    S(metal)    S(lipo)     H(rot)  DE(clash)    DE(int)     intcor
     11.85     -14.85       1.97        0.00      84.23       2.76       0.21       2.79       ----

> <Gold.Chemscore.Fitness>
11.8506

> <Gold.Chemscore.DG>
-14.8483

> <Gold.Chemscore.ZeroCoef>
-5.4800

> <Gold.Chemscore.Hbond>
1.9719

> <Gold.Chemscore.Metal>
0.0000

> <Gold.Chemscore.Lipo>
84.2347

> <Gold.Chemscore.Internal_Hbond>
0.0000

> <Gold.Chemscore.DEClash>
0.2101

> <Gold.Chemscore.DEInternal>
2.7877

> <Gold.Chemscore.Rot>
2.7630

> <Gold.Chemscore.Internal.Correction>
   9.000000E+99

> <Gold.Chemscore.Hbonds>
donor molecule, donor type, donor heavy atom, donor atom, acceptor molecule, acceptor atom, score
      L1  H     1    27       P1  7921  1.00
      P1  H  7997  8009       L1    16  0.74

> <Gold.Chemscore.Hbond.Weighted>
-6.5862

> <Gold.Chemscore.Metal.Weighted>
-0.0000

> <Gold.Chemscore.Lipo.Weighted>
-9.8555

> <Gold.Chemscore.Internal_Hbond.Weighted>
0.0000

> <Gold.Chemscore.DEClash.Weighted>
0.2101

> <Gold.Chemscore.DEInternal.Weighted>
2.7877

> <Gold.Chemscore.Rot.Weighted>
7.0734

> <Gold.Chemscore.Internal.Correction.Weighted>
   9.000000E+99

> <Gold.Protein.RotatedTorsions>
[ 6907 6896 6895 6894 ] final   28.14 input  -60.11 | X-H torsion
[ 7974 7965 7964 7962 ] final -141.85 input  175.53 | X-H torsion
[ 8008 7997 7996 7995 ] final -124.96 input   59.86 | X-H torsion
[ 10167 10162 10161 10158 ] final -116.87 input  -65.29 | X-H torsion
[ 10718 10713 10712 10709 ] final  100.27 input   66.30 | X-H torsion
[ 10763 10752 10751 10750 ] final   51.79 input  -60.55 | X-H torsion
[ 11005 11000 10999 10996 ] final -146.39 input  -57.11 | X-H torsion

> <Gold.Protein.ActiveResidues>
 VAL166  LYS551  ARG553  GLY616  TRP617  ASP618  TYR619  PRO620  LYS621  CYS622 
 ASP623  PHE694  ASN695  SER759  ASP760  ASP761  ALA762  ILE779  LEU786  VAL792 
 PHE793  MET794  SER795  GLU796  ALA797  LYS798  CYS799  TRP800  GLU811  SER814 

> <Gold.Protein.RotatedAtoms>
  152.0126  134.9868  160.0568 H   0  0  0  0  0  0  0  0  0  0  0  0  # atno 6907 bound_to 6896
  152.1414  133.4461  159.4777 H   0  0  0  0  0  0  0  0  0  0  0  0  # atno 6908 bound_to 6896
  150.6865  134.2219  159.4443 H   0  0  0  0  0  0  0  0  0  0  0  0  # atno 6909 bound_to 6896
  144.8488  140.6029  143.5404 H   0  0  0  0  0  0  0  0  0  0  0  0  # atno 7974 bound_to 7965
  155.2054  140.0417  157.2924 H   0  0  0  0  0  0  0  0  0  0  0  0  # atno 8008 bound_to 7997
  154.6046  140.2461  155.7718 H   0  0  0  0  0  0  0  0  0  0  0  0  # atno 8009 bound_to 7997
  156.2342  140.2927  156.0278 H   0  0  0  0  0  0  0  0  0  0  0  0  # atno 8010 bound_to 7997
  140.0745  143.4846  152.1961 H   0  0  0  0  0  0  0  0  0  0  0  0  # atno 10167 bound_to 10162
  157.6858  131.0693  150.5075 H   0  0  0  0  0  0  0  0  0  0  0  0  # atno 10718 bound_to 10713
  152.9786  135.5834  154.4472 H   0  0  0  0  0  0  0  0  0  0  0  0  # atno 10763 bound_to 10752
  154.4066  135.2769  155.2065 H   0  0  0  0  0  0  0  0  0  0  0  0  # atno 10764 bound_to 10752
  154.3873  135.6133  153.5878 H   0  0  0  0  0  0  0  0  0  0  0  0  # atno 10765 bound_to 10752
  140.7825  134.3062  157.5041 H   0  0  0  0  0  0  0  0  0  0  0  0  # atno 11005 bound_to 11000
  145.4543  139.1520  143.3901 LP  0  0  0  0  0  0  0  0  0  0  0  0  # atno 17320 bound_to 7965
  146.2767  140.4670  142.8793 LP  0  0  0  0  0  0  0  0  0  0  0  0  # atno 17321 bound_to 7965
  139.5816  144.7513  151.3625 LP  0  0  0  0  0  0  0  0  0  0  0  0  # atno 17342 bound_to 10162
  140.7109  143.7393  150.7565 LP  0  0  0  0  0  0  0  0  0  0  0  0  # atno 17343 bound_to 10162
  156.5393  130.4204  149.6162 LP  0  0  0  0  0  0  0  0  0  0  0  0  # atno 17370 bound_to 10713
  156.2999  130.7171  151.2040 LP  0  0  0  0  0  0  0  0  0  0  0  0  # atno 17371 bound_to 10713
  139.8741  134.9327  156.3560 LP  0  0  0  0  0  0  0  0  0  0  0  0  # atno 17394 bound_to 11000
  140.9468  133.7477  156.0219 LP  0  0  0  0  0  0  0  0  0  0  0  0  # atno 17395 bound_to 11000

$$$$
