AV-unprocessed.smi:193|AV-procd|sdf|1513|dock7
  -GOLD-   2262019343D 1   1.00000     0.00000
 Structure written by MMmdl.
 61 65  0  0  0  0  0  0  0  0  1 V2000
  149.4351  141.2812  156.8462 C   0  0  0  0  0  0  0  0  0  0  0  0
  150.1933  141.2042  158.1793 C   0  0  1  0  0  0  0  0  0  0  0  0
  150.6965  139.7718  158.4632 C   0  0  0  0  0  0  0  0  0  0  0  0
  152.0361  139.4811  157.9540 N   0  0  0  0  0  0  0  0  0  0  0  0
  152.1291  138.2295  157.4363 C   0  0  0  0  0  0  0  0  0  0  0  0
  153.2976  137.5375  157.5217 N   0  0  0  0  0  0  0  0  0  0  0  0
  153.3808  136.2928  157.0427 C   0  0  0  0  0  0  0  0  0  0  0  0
  152.4340  135.5606  156.4534 N   0  0  0  0  0  0  0  0  0  0  0  0
  151.2606  136.2496  156.3622 C   0  0  0  0  0  0  0  0  0  0  0  0
  151.0232  137.5740  156.8273 C   0  0  0  0  0  0  0  0  0  0  0  0
  149.7086  137.9386  156.5666 N   0  0  0  0  0  0  0  0  0  0  0  0
  149.1967  136.8898  155.9833 C   0  0  0  0  0  0  0  0  0  0  0  0
  150.0611  135.8319  155.8121 N   0  0  0  0  0  0  0  0  0  0  0  0
  149.7549  134.5507  155.1940 C   0  0  0  0  0  0  0  0  0  0  0  0
  149.8101  133.3480  156.1693 C   0  0  0  0  0  0  0  0  0  0  0  0
  148.9542  133.6366  157.2609 O   0  0  0  0  0  0  0  0  0  0  0  0
  149.2966  132.0705  155.4748 C   0  0  0  0  0  0  0  0  0  0  0  0
  149.4878  130.8175  156.3478 C   0  0  0  0  0  0  0  0  0  0  0  0
  150.8538  130.6898  156.7235 O   0  0  0  0  0  0  0  0  0  0  0  0
  151.3087  131.7766  157.5204 C   0  0  0  0  0  0  0  0  0  0  0  0
  151.2294  133.0894  156.7209 C   0  0  0  0  0  0  0  0  0  0  0  0
  153.1285  139.9040  158.8324 C   0  0  0  0  0  0  0  0  0  0  0  0
  153.3648  141.4210  158.8333 C   0  0  0  0  0  0  0  0  0  0  0  0
  152.2163  142.1770  159.3358 N   0  0  0  0  0  0  0  0  0  0  0  0
  152.6892  143.5010  159.7111 C   0  0  2  0  0  0  0  0  0  0  0  0
  152.8662  143.7867  161.1855 C   0  0  0  0  0  0  0  0  0  0  0  0
  151.7148  144.4089  160.4310 C   0  0  1  0  0  0  0  0  0  0  0  0
  151.6917  145.8946  160.1463 C   0  0  0  0  0  0  0  0  0  0  0  0
  151.2388  142.3377  158.2580 C   0  0  0  0  0  0  0  0  0  0  0  0
  150.1056  141.1260  156.0014 H   0  0  0  0  0  0  0  0  0  0  0  0
  148.9663  142.2575  156.7193 H   0  0  0  0  0  0  0  0  0  0  0  0
  148.6469  140.5294  156.7921 H   0  0  0  0  0  0  0  0  0  0  0  0
  149.4549  141.4075  158.9559 H   0  0  0  0  0  0  0  0  0  0  0  0
  150.7179  139.6243  159.5438 H   0  0  0  0  0  0  0  0  0  0  0  0
  149.9640  139.0492  158.0994 H   0  0  0  0  0  0  0  0  0  0  0  0
  154.3427  135.8139  157.1504 H   0  0  0  0  0  0  0  0  0  0  0  0
  148.1685  136.8611  155.6531 H   0  0  0  0  0  0  0  0  0  0  0  0
  148.7703  134.6197  154.7287 H   0  0  0  0  0  0  0  0  0  0  0  0
  150.4633  134.3989  154.3787 H   0  0  0  0  0  0  0  0  0  0  0  0
  149.1926  133.0795  157.9859 H   0  0  0  0  0  0  0  0  0  0  0  0
  148.2466  132.1796  155.2004 H   0  0  0  0  0  0  0  0  0  0  0  0
  149.8416  131.9235  154.5415 H   0  0  0  0  0  0  0  0  0  0  0  0
  148.8556  130.8553  157.2362 H   0  0  0  0  0  0  0  0  0  0  0  0
  149.1941  129.9279  155.7904 H   0  0  0  0  0  0  0  0  0  0  0  0
  150.7234  131.8391  158.4391 H   0  0  0  0  0  0  0  0  0  0  0  0
  152.3396  131.5848  157.8180 H   0  0  0  0  0  0  0  0  0  0  0  0
  151.9329  133.0329  155.8893 H   0  0  0  0  0  0  0  0  0  0  0  0
  151.5610  133.9175  157.3485 H   0  0  0  0  0  0  0  0  0  0  0  0
  152.9379  139.5567  159.8489 H   0  0  0  0  0  0  0  0  0  0  0  0
  154.0590  139.4307  158.5154 H   0  0  0  0  0  0  0  0  0  0  0  0
  154.2148  141.6033  159.4924 H   0  0  0  0  0  0  0  0  0  0  0  0
  153.6751  141.7705  157.8474 H   0  0  0  0  0  0  0  0  0  0  0  0
  153.3980  144.0036  159.0547 H   0  0  0  0  0  0  0  0  0  0  0  0
  152.6316  142.9913  161.8905 H   0  0  0  0  0  0  0  0  0  0  0  0
  153.6944  144.4315  161.4724 H   0  0  0  0  0  0  0  0  0  0  0  0
  150.7309  143.9919  160.6389 H   0  0  0  0  0  0  0  0  0  0  0  0
  152.6978  146.2694  159.9559 H   0  0  0  0  0  0  0  0  0  0  0  0
  151.2753  146.4317  160.9984 H   0  0  0  0  0  0  0  0  0  0  0  0
  151.0741  146.0969  159.2714 H   0  0  0  0  0  0  0  0  0  0  0  0
  151.7454  142.4622  157.2996 H   0  0  0  0  0  0  0  0  0  0  0  0
  150.6829  143.2649  158.4085 H   0  0  0  0  0  0  0  0  0  0  0  0
  1  2  1  0  0  0  0
  1 30  1  0  0  0  0
  1 31  1  0  0  0  0
  1 32  1  0  0  0  0
  2 29  1  0  0  0  0
  2  3  1  0  0  0  0
  2 33  1  0  0  0  0
  3  4  1  0  0  0  0
  3 34  1  0  0  0  0
  3 35  1  0  0  0  0
  4  5  1  0  0  0  0
  4 22  1  0  0  0  0
  5 10  1  0  0  0  0
  5  6  2  0  0  0  0
  6  7  1  0  0  0  0
  7  8  2  0  0  0  0
  7 36  1  0  0  0  0
  8  9  1  0  0  0  0
  9 13  1  0  0  0  0
  9 10  2  0  0  0  0
 10 11  1  0  0  0  0
 11 12  2  0  0  0  0
 12 13  1  0  0  0  0
 12 37  1  0  0  0  0
 13 14  1  0  0  0  0
 14 15  1  0  0  0  0
 14 38  1  0  0  0  0
 14 39  1  0  0  0  0
 15 21  1  0  0  0  0
 15 16  1  0  0  0  0
 15 17  1  0  0  0  0
 16 40  1  0  0  0  0
 17 18  1  0  0  0  0
 17 41  1  0  0  0  0
 17 42  1  0  0  0  0
 18 19  1  0  0  0  0
 18 43  1  0  0  0  0
 18 44  1  0  0  0  0
 19 20  1  0  0  0  0
 20 21  1  0  0  0  0
 20 45  1  0  0  0  0
 20 46  1  0  0  0  0
 21 47  1  0  0  0  0
 21 48  1  0  0  0  0
 22 23  1  0  0  0  0
 22 49  1  0  0  0  0
 22 50  1  0  0  0  0
 23 24  1  0  0  0  0
 23 51  1  0  0  0  0
 23 52  1  0  0  0  0
 24 25  1  0  0  0  0
 24 29  1  0  0  0  0
 25 27  1  0  0  0  0
 25 26  1  0  0  0  0
 25 53  1  0  0  0  0
 26 27  1  0  0  0  0
 26 54  1  0  0  0  0
 26 55  1  0  0  0  0
 27 28  1  0  0  0  0
 27 56  1  0  0  0  0
 28 57  1  0  0  0  0
 28 58  1  0  0  0  0
 28 59  1  0  0  0  0
 29 60  1  0  0  0  0
 29 61  1  0  0  0  0
M  END
> <s_m_source_file>
AV-unprocessed.smi

> <i_m_source_file_index>
193

> <i_lp_mmshare_version>
43012

> <i_f3d_flags>
0

> <s_epik_input>
W0NIM11bQ0BASF0xW0NIMl1bQ0BIXTFOKFtDSDJdMilbQ0gyXVtDSDJdTihbQ0gyXVtDQEhdMltDSDNdKWMobltjSF1uMyljKGMzNCluW2NIXW40W0NIMl1DNShbT0hdKVtDSDJdW0NIMl1PW0NIMl1bQ0gyXTU=

> <s_epik_cmdline>
J2VwaWtfcHl0aG9uJywgJy1waCcsICc3LjAnLCAnLXRuJywgJzgnLCAnLW1hJywgJzIwMCcsICctbWV0YWxfYmluZGluZycsICctaW1hZScsICc8aW5maWxlLm1hZT4nLCAnLW9tYWUnLCAnPG91dGZpbGUubWFlPic=

> <r_lp_tautomer_probability>
1

> <r_epik_Ionization_Penalty>
1.45227

> <r_epik_Ionization_Penalty_Charging>
0

> <r_epik_Ionization_Penalty_Neutral>
1.45227

> <r_epik_State_Penalty>
2.02377

> <r_epik_Charging_Adjusted_Penalty>
2.02377

> <i_epik_Tot_Q>
0

> <i_epik_Tot_abs_Q>
0

> <r_epik_Metal_State_Penalty>
2.01937

> <b_epik_Metal_Only>
0

> <s_lp_Force_Field>
OPLS_2005

> <r_lp_Energy>
55.7491

> <b_lp_Chiralities_Consistent>
1

> <s_lp_Variant>
AV-unprocessed.smi:193-18

> <Gold.Version>
5.8.1

> <Gold.Id.Protein>
6NUR|6NUR_protein|mol2

> <Gold.PLP.Fitness>
47.1523

> <Gold.PLP.PLP>
-43.7058

> <Gold.PLP.part.hbond>
-1.0000

> <Gold.PLP.part.metal>
0.0000

> <Gold.PLP.part.buried>
-3.9190

> <Gold.PLP.part.nonpolar>
-37.9031

> <Gold.PLP.part.repulsive>
0.0209

> <Gold.PLP.ligand.clash>
0.0000

> <Gold.PLP.ligand.torsion>
1.2393

> <Gold.PLP.Chemscore.Hbond>
1.0000

> <Gold.PLP.Chemscore.CHOScore>
0.5055

> <Gold.PLP.Chemscore.Metal>
0.0000

> <Gold.Chemscore.Hbonds>
donor molecule, donor type, donor heavy atom, donor atom, acceptor molecule, acceptor atom, score
      P1  H 10752 10763       L1     8  0.35

> <Gold.PLP.Chemscore.Internal.Correction>
1.4085

> <Gold.Rescore>
     Score         DG    S(hbond)    S(metal)    S(lipo)     H(rot)  DE(clash)    DE(int)     intcor
     12.50     -13.69       0.06        0.00     115.96       2.17       0.15       1.04       ----

> <Gold.Chemscore.Fitness>
12.5019

> <Gold.Chemscore.DG>
-13.6949

> <Gold.Chemscore.ZeroCoef>
-5.4800

> <Gold.Chemscore.Hbond>
0.0580

> <Gold.Chemscore.Metal>
0.0000

> <Gold.Chemscore.Lipo>
115.9579

> <Gold.Chemscore.Internal_Hbond>
0.0000

> <Gold.Chemscore.DEClash>
0.1545

> <Gold.Chemscore.DEInternal>
1.0386

> <Gold.Chemscore.Rot>
2.1664

> <Gold.Chemscore.Internal.Correction>
   9.000000E+99

> <Gold.Chemscore.Hbonds>
donor molecule, donor type, donor heavy atom, donor atom, acceptor molecule, acceptor atom, score
      P1  H 10752 10763       L1     8  0.01

> <Gold.Chemscore.Hbond.Weighted>
-0.1938

> <Gold.Chemscore.Metal.Weighted>
-0.0000

> <Gold.Chemscore.Lipo.Weighted>
-13.5671

> <Gold.Chemscore.Internal_Hbond.Weighted>
0.0000

> <Gold.Chemscore.DEClash.Weighted>
0.1545

> <Gold.Chemscore.DEInternal.Weighted>
1.0386

> <Gold.Chemscore.Rot.Weighted>
5.5459

> <Gold.Chemscore.Internal.Correction.Weighted>
   9.000000E+99

> <Gold.Protein.RotatedTorsions>
[ 6907 6896 6895 6894 ] final    8.74 input  -60.11 | X-H torsion
[ 7974 7965 7964 7962 ] final -113.35 input  175.53 | X-H torsion
[ 8008 7997 7996 7995 ] final -140.87 input   59.86 | X-H torsion
[ 10167 10162 10161 10158 ] final   92.20 input  -65.29 | X-H torsion
[ 10718 10713 10712 10709 ] final  -55.75 input   66.30 | X-H torsion
[ 10763 10752 10751 10750 ] final  111.32 input  -60.55 | X-H torsion
[ 11005 11000 10999 10996 ] final -102.02 input  -57.11 | X-H torsion

> <Gold.Protein.ActiveResidues>
 VAL166  LYS551  ARG553  GLY616  TRP617  ASP618  TYR619  PRO620  LYS621  CYS622 
 ASP623  PHE694  ASN695  SER759  ASP760  ASP761  ALA762  ILE779  LEU786  VAL792 
 PHE793  MET794  SER795  GLU796  ALA797  LYS798  CYS799  TRP800  GLU811  SER814 

> <Gold.Protein.RotatedAtoms>
  151.7109  135.0913  160.0267 H   0  0  0  0  0  0  0  0  0  0  0  0  # atno 6907 bound_to 6896
  152.3662  133.6355  159.6060 H   0  0  0  0  0  0  0  0  0  0  0  0  # atno 6908 bound_to 6896
  150.7639  133.9261  159.3454 H   0  0  0  0  0  0  0  0  0  0  0  0  # atno 6909 bound_to 6896
  145.1331  140.8735  143.3746 H   0  0  0  0  0  0  0  0  0  0  0  0  # atno 7974 bound_to 7965
  155.4685  140.0551  157.2982 H   0  0  0  0  0  0  0  0  0  0  0  0  # atno 8008 bound_to 7997
  154.4708  140.2039  155.9954 H   0  0  0  0  0  0  0  0  0  0  0  0  # atno 8009 bound_to 7997
  156.1052  140.3213  155.8001 H   0  0  0  0  0  0  0  0  0  0  0  0  # atno 8010 bound_to 7997
  139.8300  144.6691  150.9411 H   0  0  0  0  0  0  0  0  0  0  0  0  # atno 10167 bound_to 10162
  156.1344  130.4157  150.0212 H   0  0  0  0  0  0  0  0  0  0  0  0  # atno 10718 bound_to 10713
  153.4616  135.3721  155.2341 H   0  0  0  0  0  0  0  0  0  0  0  0  # atno 10763 bound_to 10752
  154.8757  135.3910  154.3918 H   0  0  0  0  0  0  0  0  0  0  0  0  # atno 10764 bound_to 10752
  153.4492  135.7085  153.6184 H   0  0  0  0  0  0  0  0  0  0  0  0  # atno 10765 bound_to 10752
  141.1206  133.8525  157.1307 H   0  0  0  0  0  0  0  0  0  0  0  0  # atno 11005 bound_to 11000
  145.0614  139.3102  143.5878 LP  0  0  0  0  0  0  0  0  0  0  0  0  # atno 17320 bound_to 7965
  146.3512  140.0057  142.8672 LP  0  0  0  0  0  0  0  0  0  0  0  0  # atno 17321 bound_to 7965
  140.7807  143.4010  151.1149 LP  0  0  0  0  0  0  0  0  0  0  0  0  # atno 17342 bound_to 10162
  139.7664  143.8559  152.3111 LP  0  0  0  0  0  0  0  0  0  0  0  0  # atno 17343 bound_to 10162
  156.8116  130.9326  151.3644 LP  0  0  0  0  0  0  0  0  0  0  0  0  # atno 17370 bound_to 10713
  157.6518  130.8891  149.9648 LP  0  0  0  0  0  0  0  0  0  0  0  0  # atno 17371 bound_to 10713
  140.0161  134.9967  157.0497 LP  0  0  0  0  0  0  0  0  0  0  0  0  # atno 17394 bound_to 11000
  140.4517  134.1575  155.7182 LP  0  0  0  0  0  0  0  0  0  0  0  0  # atno 17395 bound_to 11000

$$$$
