AV-unprocessed.smi:1559|AV-procd|sdf|6274|dock8
  -GOLD-   22720 6463D 1   1.00000     0.00000
 Structure written by MMmdl.
 51 52  0  0  0  0  0  0  0  0  2 V2000
  146.3724  133.9618  153.2147 C   0  0  0  0  0  0  0  0  0  0  0  0
  146.4347  134.6466  151.8973 N   0  3  0  0  0  0  0  0  0  0  0  0
  146.4262  133.6516  150.7937 C   0  0  0  0  0  0  0  0  0  0  0  0
  145.4903  135.8076  151.7199 C   0  0  0  0  0  0  0  0  0  0  0  0
  145.7498  136.5561  150.3916 C   0  0  0  0  0  0  0  0  0  0  0  0
  144.0213  135.3167  151.7020 C   0  0  0  0  0  0  0  0  0  0  0  0
  145.6430  136.8225  152.8917 C   0  0  0  0  0  0  0  0  0  0  0  0
  147.0242  137.2405  153.1359 N   0  0  0  0  0  0  0  0  0  0  0  0
  147.4195  138.1192  154.0680 C   0  0  0  0  0  0  0  0  0  0  0  0
  146.6471  138.6718  154.8502 O   0  0  0  0  0  0  0  0  0  0  0  0
  148.7476  138.3169  154.0169 N   0  0  0  0  0  0  0  0  0  0  0  0
  149.5478  139.1482  154.8461 C   0  0  0  0  0  0  0  0  0  0  0  0
  150.9594  139.2101  154.7884 C   0  0  0  0  0  0  0  0  0  0  0  0
  151.6395  140.0886  155.6532 C   0  0  0  0  0  0  0  0  0  0  0  0
  150.8968  140.8934  156.5492 C   0  0  0  0  0  0  0  0  0  0  0  0
  151.5599  141.7793  157.4261 N   0  0  0  0  0  0  0  0  0  0  0  0
  151.7133  141.3756  158.8227 C   0  0  0  0  0  0  0  0  0  0  0  0
  152.7004  142.3079  159.5448 C   0  0  0  0  0  0  0  0  0  0  0  0
  152.2719  143.6585  159.4078 O   0  0  0  0  0  0  0  0  0  0  0  0
  152.2360  144.0658  158.0442 C   0  0  0  0  0  0  0  0  0  0  0  0
  151.2352  143.1947  157.2652 C   0  0  0  0  0  0  0  0  0  0  0  0
  149.5430  140.8373  156.5943 N   0  0  0  0  0  0  0  0  0  0  0  0
  148.8949  139.9949  155.7635 C   0  0  0  0  0  0  0  0  0  0  0  0
  145.3825  133.5478  153.4071 H   0  0  0  0  0  0  0  0  0  0  0  0
  146.6380  134.6276  154.0349 H   0  0  0  0  0  0  0  0  0  0  0  0
  147.0863  133.1382  153.2506 H   0  0  0  0  0  0  0  0  0  0  0  0
  145.4967  133.0821  150.7751 H   0  0  0  0  0  0  0  0  0  0  0  0
  147.2421  132.9400  150.9238 H   0  0  0  0  0  0  0  0  0  0  0  0
  146.5692  134.1110  149.8171 H   0  0  0  0  0  0  0  0  0  0  0  0
  145.0334  137.3677  150.2571 H   0  0  0  0  0  0  0  0  0  0  0  0
  145.6537  135.9015  149.5257 H   0  0  0  0  0  0  0  0  0  0  0  0
  146.7415  137.0070  150.3577 H   0  0  0  0  0  0  0  0  0  0  0  0
  143.3231  136.1538  151.7402 H   0  0  0  0  0  0  0  0  0  0  0  0
  143.7984  134.6691  152.5503 H   0  0  0  0  0  0  0  0  0  0  0  0
  143.7836  134.7629  150.7934 H   0  0  0  0  0  0  0  0  0  0  0  0
  145.0706  137.7274  152.6877 H   0  0  0  0  0  0  0  0  0  0  0  0
  145.1998  136.4209  153.8051 H   0  0  0  0  0  0  0  0  0  0  0  0
  147.7298  136.8532  152.5265 H   0  0  0  0  0  0  0  0  0  0  0  0
  149.2381  137.8636  153.2598 H   0  0  0  0  0  0  0  0  0  0  0  0
  151.5326  138.6133  154.0960 H   0  0  0  0  0  0  0  0  0  0  0  0
  152.7183  140.1248  155.6269 H   0  0  0  0  0  0  0  0  0  0  0  0
  150.7412  141.4073  159.3163 H   0  0  0  0  0  0  0  0  0  0  0  0
  152.0771  140.3490  158.8823 H   0  0  0  0  0  0  0  0  0  0  0  0
  152.7482  142.0555  160.6041 H   0  0  0  0  0  0  0  0  0  0  0  0
  153.7089  142.1923  159.1443 H   0  0  0  0  0  0  0  0  0  0  0  0
  151.9388  145.1134  157.9953 H   0  0  0  0  0  0  0  0  0  0  0  0
  153.2333  143.9975  157.6065 H   0  0  0  0  0  0  0  0  0  0  0  0
  151.2432  143.4960  156.2189 H   0  0  0  0  0  0  0  0  0  0  0  0
  150.2243  143.3669  157.6365 H   0  0  0  0  0  0  0  0  0  0  0  0
  147.8172  139.9943  155.8396 H   0  0  0  0  0  0  0  0  0  0  0  0
  147.3548  135.0624  151.8685 H   0  0  0  0  0  0  0  0  0  0  0  0
  1  2  1  0  0  0  0
  1 24  1  0  0  0  0
  1 25  1  0  0  0  0
  1 26  1  0  0  0  0
  2  3  1  0  0  0  0
  2  4  1  0  0  0  0
  2 51  1  0  0  0  0
  3 27  1  0  0  0  0
  3 28  1  0  0  0  0
  3 29  1  0  0  0  0
  4  5  1  0  0  0  0
  4  6  1  0  0  0  0
  4  7  1  0  0  0  0
  5 30  1  0  0  0  0
  5 31  1  0  0  0  0
  5 32  1  0  0  0  0
  6 33  1  0  0  0  0
  6 34  1  0  0  0  0
  6 35  1  0  0  0  0
  7  8  1  0  0  0  0
  7 36  1  0  0  0  0
  7 37  1  0  0  0  0
  8  9  1  0  0  0  0
  8 38  1  0  0  0  0
  9 10  2  0  0  0  0
  9 11  1  0  0  0  0
 11 12  1  0  0  0  0
 11 39  1  0  0  0  0
 12 23  1  0  0  0  0
 12 13  2  0  0  0  0
 13 14  1  0  0  0  0
 13 40  1  0  0  0  0
 14 15  2  0  0  0  0
 14 41  1  0  0  0  0
 15 16  1  0  0  0  0
 15 22  1  0  0  0  0
 16 21  1  0  0  0  0
 16 17  1  0  0  0  0
 17 18  1  0  0  0  0
 17 42  1  0  0  0  0
 17 43  1  0  0  0  0
 18 19  1  0  0  0  0
 18 44  1  0  0  0  0
 18 45  1  0  0  0  0
 19 20  1  0  0  0  0
 20 21  1  0  0  0  0
 20 46  1  0  0  0  0
 20 47  1  0  0  0  0
 21 48  1  0  0  0  0
 21 49  1  0  0  0  0
 22 23  2  0  0  0  0
 23 50  1  0  0  0  0
M  CHG  1   2   1
M  END
> <s_m_source_file>
AV-unprocessed.smi

> <i_m_source_file_index>
1559

> <i_lp_mmshare_version>
43012

> <i_f3d_flags>
0

> <s_epik_input>
W0NIM11OKFtDSDNdKUMoW0NIM10pKFtDSDNdKVtDSDJdW05IXUMoPU8pW05IXWMxW2NIXVtjSF1jKG5bY0hdMSlOMltDSDJdW0NIMl1PW0NIMl1bQ0gyXTI=

> <s_epik_cmdline>
J2VwaWtfcHl0aG9uJywgJy1waCcsICc3LjAnLCAnLXRuJywgJzgnLCAnLW1hJywgJzIwMCcsICctbWV0YWxfYmluZGluZycsICctaW1hZScsICc8aW5maWxlLm1hZT4nLCAnLW9tYWUnLCAnPG91dGZpbGUubWFlPic=

> <r_lp_tautomer_probability>
1

> <r_epik_Ionization_Penalty>
0.00606683

> <r_epik_Ionization_Penalty_Charging>
0.00433655

> <r_epik_Ionization_Penalty_Neutral>
0.00173028

> <r_epik_State_Penalty>
-0

> <r_epik_Charging_Adjusted_Penalty>
0.00433655

> <i_epik_Tot_Q>
1

> <i_epik_Tot_abs_Q>
1

> <r_epik_Metal_State_Penalty>
-0

> <b_epik_Metal_Only>
0

> <s_lp_Force_Field>
OPLS_2005

> <r_lp_Energy>
39.7319

> <b_lp_Chiralities_Consistent>
1

> <s_lp_Variant>
AV-unprocessed.smi:1559-1

> <Gold.Version>
5.8.1

> <Gold.Id.Protein>
6NUR|6NUR_protein|mol2

> <Gold.PLP.Fitness>
47.6992

> <Gold.PLP.PLP>
-37.2569

> <Gold.PLP.part.hbond>
-2.9807

> <Gold.PLP.part.metal>
0.0000

> <Gold.PLP.part.buried>
-1.5212

> <Gold.PLP.part.nonpolar>
-33.3543

> <Gold.PLP.part.repulsive>
0.2020

> <Gold.PLP.ligand.clash>
0.0000

> <Gold.PLP.ligand.torsion>
0.3704

> <Gold.PLP.Chemscore.Hbond>
3.5747

> <Gold.PLP.Chemscore.CHOScore>
0.0000

> <Gold.PLP.Chemscore.Metal>
0.0000

> <Gold.Chemscore.Hbonds>
donor molecule, donor type, donor heavy atom, donor atom, acceptor molecule, acceptor atom, score
      L1  H     2    51       P1  7948  2.00
      L1  H     8    38       P1  7948  0.98
      L1  H    11    39       P1  7948  0.60

> <Gold.PLP.Chemscore.Internal.Correction>
0.4591

> <Gold.Rescore>
     Score         DG    S(hbond)    S(metal)    S(lipo)     H(rot)  DE(clash)    DE(int)     intcor
     18.48     -21.09       2.47        0.00      98.84       1.64       0.79       1.82       ----

> <Gold.Chemscore.Fitness>
18.4811

> <Gold.Chemscore.DG>
-21.0898

> <Gold.Chemscore.ZeroCoef>
-5.4800

> <Gold.Chemscore.Hbond>
2.4693

> <Gold.Chemscore.Metal>
0.0000

> <Gold.Chemscore.Lipo>
98.8406

> <Gold.Chemscore.Internal_Hbond>
0.0000

> <Gold.Chemscore.DEClash>
0.7873

> <Gold.Chemscore.DEInternal>
1.8213

> <Gold.Chemscore.Rot>
1.6414

> <Gold.Chemscore.Internal.Correction>
   9.000000E+99

> <Gold.Chemscore.Hbonds>
donor molecule, donor type, donor heavy atom, donor atom, acceptor molecule, acceptor atom, score
      L1  H     2    51       P1  7948  0.92
      L1  H     8    38       P1  7948  0.91
      L1  H    11    39       P1  7948  0.59

> <Gold.Chemscore.Hbond.Weighted>
-8.2475

> <Gold.Chemscore.Metal.Weighted>
-0.0000

> <Gold.Chemscore.Lipo.Weighted>
-11.5643

> <Gold.Chemscore.Internal_Hbond.Weighted>
0.0000

> <Gold.Chemscore.DEClash.Weighted>
0.7873

> <Gold.Chemscore.DEInternal.Weighted>
1.8213

> <Gold.Chemscore.Rot.Weighted>
4.2021

> <Gold.Chemscore.Internal.Correction.Weighted>
   9.000000E+99

> <Gold.Protein.RotatedTorsions>
[ 6907 6896 6895 6894 ] final   87.68 input  -60.11 | X-H torsion
[ 7974 7965 7964 7962 ] final -134.19 input  175.53 | X-H torsion
[ 8008 7997 7996 7995 ] final   88.24 input   59.86 | X-H torsion
[ 10167 10162 10161 10158 ] final -106.03 input  -65.29 | X-H torsion
[ 10718 10713 10712 10709 ] final  159.09 input   66.30 | X-H torsion
[ 10763 10752 10751 10750 ] final   37.20 input  -60.55 | X-H torsion
[ 11005 11000 10999 10996 ] final -163.19 input  -57.11 | X-H torsion

> <Gold.Protein.ActiveResidues>
 VAL166  LYS551  ARG553  GLY616  TRP617  ASP618  TYR619  PRO620  LYS621  CYS622 
 ASP623  PHE694  ASN695  SER759  ASP760  ASP761  ALA762  ILE779  LEU786  VAL792 
 PHE793  MET794  SER795  GLU796  ALA797  LYS798  CYS799  TRP800  GLU811  SER814 

> <Gold.Protein.RotatedAtoms>
  152.5414  134.2239  159.8798 H   0  0  0  0  0  0  0  0  0  0  0  0  # atno 6907 bound_to 6896
  151.2214  133.4493  159.2608 H   0  0  0  0  0  0  0  0  0  0  0  0  # atno 6908 bound_to 6896
  151.0801  134.9866  159.8408 H   0  0  0  0  0  0  0  0  0  0  0  0  # atno 6909 bound_to 6896
  144.9125  140.6912  143.5016 H   0  0  0  0  0  0  0  0  0  0  0  0  # atno 7974 bound_to 7965
  155.9853  140.3373  155.6701 H   0  0  0  0  0  0  0  0  0  0  0  0  # atno 8008 bound_to 7997
  155.6494  140.0704  157.2610 H   0  0  0  0  0  0  0  0  0  0  0  0  # atno 8009 bound_to 7997
  154.4203  140.1728  156.1645 H   0  0  0  0  0  0  0  0  0  0  0  0  # atno 8010 bound_to 7997
  140.1921  143.3884  152.1198 H   0  0  0  0  0  0  0  0  0  0  0  0  # atno 10167 bound_to 10162
  157.1689  131.0605  151.2193 H   0  0  0  0  0  0  0  0  0  0  0  0  # atno 10718 bound_to 10713
  153.0047  135.6284  154.2106 H   0  0  0  0  0  0  0  0  0  0  0  0  # atno 10763 bound_to 10752
  154.1850  135.2811  155.3042 H   0  0  0  0  0  0  0  0  0  0  0  0  # atno 10764 bound_to 10752
  154.5805  135.5649  153.7240 H   0  0  0  0  0  0  0  0  0  0  0  0  # atno 10765 bound_to 10752
  140.6008  134.4949  157.5205 H   0  0  0  0  0  0  0  0  0  0  0  0  # atno 11005 bound_to 11000
  145.3431  139.1727  143.4475 LP  0  0  0  0  0  0  0  0  0  0  0  0  # atno 17320 bound_to 7965
  146.3165  140.3474  142.8653 LP  0  0  0  0  0  0  0  0  0  0  0  0  # atno 17321 bound_to 7965
  139.5251  144.7092  151.5258 LP  0  0  0  0  0  0  0  0  0  0  0  0  # atno 17342 bound_to 10162
  140.6448  143.8816  150.6727 LP  0  0  0  0  0  0  0  0  0  0  0  0  # atno 17343 bound_to 10162
  157.4062  130.7360  149.6804 LP  0  0  0  0  0  0  0  0  0  0  0  0  # atno 17370 bound_to 10713
  155.9741  130.4107  150.3946 LP  0  0  0  0  0  0  0  0  0  0  0  0  # atno 17371 bound_to 10713
  139.9233  134.8105  156.1144 LP  0  0  0  0  0  0  0  0  0  0  0  0  # atno 17394 bound_to 11000
  141.0873  133.6729  156.2464 LP  0  0  0  0  0  0  0  0  0  0  0  0  # atno 17395 bound_to 11000

$$$$
