AV-unprocessed.smi:1157|AV-procd|sdf|4908|dock1
  -GOLD-   22720 3483D 1   1.00000     0.00000
 Structure written by MMmdl.
 55 57  0  0  0  0  0  0  0  0  2 V2000
  145.3532  137.1599  154.1553 C   0  0  0  0  0  0  0  0  0  0  0  0
  145.2618  136.7209  152.6739 C   0  0  0  0  0  0  0  0  0  0  0  0
  143.7636  136.7534  152.2766 C   0  0  0  0  0  0  0  0  0  0  0  0
  145.9594  137.8205  151.8229 C   0  0  0  0  0  0  0  0  0  0  0  0
  147.2830  138.1593  152.3404 N   0  0  0  0  0  0  0  0  0  0  0  0
  147.5284  139.0736  153.2874 C   0  0  0  0  0  0  0  0  0  0  0  0
  146.6486  139.7319  153.8416 O   0  0  0  0  0  0  0  0  0  0  0  0
  148.8429  139.1542  153.5565 N   0  0  0  0  0  0  0  0  0  0  0  0
  149.5072  140.0374  154.4500 C   0  0  0  0  0  0  0  0  0  0  0  0
  150.6795  139.5767  155.0854 C   0  0  0  0  0  0  0  0  0  0  0  0
  151.3823  140.4277  155.9632 C   0  0  0  0  0  0  0  0  0  0  0  0
  150.9098  141.7412  156.1935 C   0  0  0  0  0  0  0  0  0  0  0  0
  151.5639  142.6491  157.0473 N   0  0  0  0  0  0  0  0  0  0  0  0
  152.0196  142.2584  158.3737 C   0  0  0  0  0  0  0  0  0  0  0  0
  152.0399  143.5507  159.1989 C   0  0  0  0  0  0  0  0  0  0  0  0
  152.1009  144.6633  158.1520 C   0  0  0  0  0  0  0  0  0  0  0  0
  151.3137  144.0800  156.9796 C   0  0  0  0  0  0  0  0  0  0  0  0
  149.7893  142.1468  155.5500 N   0  3  0  0  0  0  0  0  0  0  0  0
  149.0847  141.3642  154.7042 C   0  0  0  0  0  0  0  0  0  0  0  0
  145.8524  135.3752  152.4265 N   0  0  0  0  0  0  0  0  0  0  0  0
  145.3612  134.3137  153.3134 C   0  0  0  0  0  0  0  0  0  0  0  0
  146.0991  132.9834  153.0873 C   0  0  0  0  0  0  0  0  0  0  0  0
  145.9764  132.5923  151.7254 O   0  0  0  0  0  0  0  0  0  0  0  0
  146.4953  133.5693  150.8316 C   0  0  0  0  0  0  0  0  0  0  0  0
  145.7610  134.9050  151.0393 C   0  0  0  0  0  0  0  0  0  0  0  0
  144.9029  138.1425  154.3003 H   0  0  0  0  0  0  0  0  0  0  0  0
  146.3845  137.2351  154.4996 H   0  0  0  0  0  0  0  0  0  0  0  0
  144.8299  136.4750  154.8220 H   0  0  0  0  0  0  0  0  0  0  0  0
  143.3676  137.7696  152.2895 H   0  0  0  0  0  0  0  0  0  0  0  0
  143.1411  136.1786  152.9621 H   0  0  0  0  0  0  0  0  0  0  0  0
  143.6031  136.3562  151.2737 H   0  0  0  0  0  0  0  0  0  0  0  0
  146.0447  137.4838  150.7878 H   0  0  0  0  0  0  0  0  0  0  0  0
  145.3600  138.7300  151.7762 H   0  0  0  0  0  0  0  0  0  0  0  0
  148.0633  137.6588  151.9402 H   0  0  0  0  0  0  0  0  0  0  0  0
  149.4337  138.4827  153.0882 H   0  0  0  0  0  0  0  0  0  0  0  0
  151.0414  138.5747  154.9052 H   0  0  0  0  0  0  0  0  0  0  0  0
  152.2801  140.0650  156.4417 H   0  0  0  0  0  0  0  0  0  0  0  0
  151.3697  141.5128  158.8325 H   0  0  0  0  0  0  0  0  0  0  0  0
  153.0218  141.8365  158.2916 H   0  0  0  0  0  0  0  0  0  0  0  0
  151.1119  143.6368  159.7658 H   0  0  0  0  0  0  0  0  0  0  0  0
  152.8683  143.5872  159.9067 H   0  0  0  0  0  0  0  0  0  0  0  0
  151.6935  145.6099  158.5081 H   0  0  0  0  0  0  0  0  0  0  0  0
  153.1366  144.8322  157.8546 H   0  0  0  0  0  0  0  0  0  0  0  0
  151.6366  144.5026  156.0274 H   0  0  0  0  0  0  0  0  0  0  0  0
  150.2463  144.2694  157.1002 H   0  0  0  0  0  0  0  0  0  0  0  0
  148.2245  141.8396  154.2576 H   0  0  0  0  0  0  0  0  0  0  0  0
  145.4884  134.5890  154.3587 H   0  0  0  0  0  0  0  0  0  0  0  0
  144.2945  134.1537  153.1552 H   0  0  0  0  0  0  0  0  0  0  0  0
  147.1530  133.0767  153.3542 H   0  0  0  0  0  0  0  0  0  0  0  0
  145.6763  132.2036  153.7207 H   0  0  0  0  0  0  0  0  0  0  0  0
  147.5676  133.6892  150.9939 H   0  0  0  0  0  0  0  0  0  0  0  0
  146.3641  133.2202  149.8073 H   0  0  0  0  0  0  0  0  0  0  0  0
  144.7172  134.7802  150.7510 H   0  0  0  0  0  0  0  0  0  0  0  0
  146.1951  135.6298  150.3529 H   0  0  0  0  0  0  0  0  0  0  0  0
  149.4588  143.0987  155.7095 H   0  0  0  0  0  0  0  0  0  0  0  0
  1  2  1  0  0  0  0
  1 26  1  0  0  0  0
  1 27  1  0  0  0  0
  1 28  1  0  0  0  0
  2  3  1  0  0  0  0
  2  4  1  0  0  0  0
  2 20  1  0  0  0  0
  3 29  1  0  0  0  0
  3 30  1  0  0  0  0
  3 31  1  0  0  0  0
  4  5  1  0  0  0  0
  4 32  1  0  0  0  0
  4 33  1  0  0  0  0
  5  6  1  0  0  0  0
  5 34  1  0  0  0  0
  6  7  2  0  0  0  0
  6  8  1  0  0  0  0
  8  9  1  0  0  0  0
  8 35  1  0  0  0  0
  9 19  1  0  0  0  0
  9 10  2  0  0  0  0
 10 11  1  0  0  0  0
 10 36  1  0  0  0  0
 11 12  2  0  0  0  0
 11 37  1  0  0  0  0
 12 13  1  0  0  0  0
 12 18  1  0  0  0  0
 13 17  1  0  0  0  0
 13 14  1  0  0  0  0
 14 15  1  0  0  0  0
 14 38  1  0  0  0  0
 14 39  1  0  0  0  0
 15 16  1  0  0  0  0
 15 40  1  0  0  0  0
 15 41  1  0  0  0  0
 16 17  1  0  0  0  0
 16 42  1  0  0  0  0
 16 43  1  0  0  0  0
 17 44  1  0  0  0  0
 17 45  1  0  0  0  0
 18 19  2  0  0  0  0
 18 55  1  0  0  0  0
 19 46  1  0  0  0  0
 20 25  1  0  0  0  0
 20 21  1  0  0  0  0
 21 22  1  0  0  0  0
 21 47  1  0  0  0  0
 21 48  1  0  0  0  0
 22 23  1  0  0  0  0
 22 49  1  0  0  0  0
 22 50  1  0  0  0  0
 23 24  1  0  0  0  0
 24 25  1  0  0  0  0
 24 51  1  0  0  0  0
 24 52  1  0  0  0  0
 25 53  1  0  0  0  0
 25 54  1  0  0  0  0
M  CHG  1  18   1
M  END
> <s_m_source_file>
AV-unprocessed.smi

> <i_m_source_file_index>
1157

> <i_lp_mmshare_version>
43012

> <i_f3d_flags>
0

> <s_epik_input>
W0NIMl0xW0NIMl1PW0NIMl1bQ0gyXU4xQyhbQ0gzXSkoW0NIM10pW0NIMl1bTkhdQyg9TylbTkhdYzJbY0hdW2NIXWMobltjSF0yKU4zW0NIMl1bQ0gyXVtDSDJdW0NIMl0z

> <s_epik_cmdline>
J2VwaWtfcHl0aG9uJywgJy1waCcsICc3LjAnLCAnLXRuJywgJzgnLCAnLW1hJywgJzIwMCcsICctbWV0YWxfYmluZGluZycsICctaW1hZScsICc8aW5maWxlLm1hZT4nLCAnLW9tYWUnLCAnPG91dGZpbGUubWFlPic=

> <r_epik_Ionization_Penalty>
1.36967

> <r_epik_Ionization_Penalty_Charging>
1.10366

> <r_epik_Ionization_Penalty_Neutral>
0.266011

> <r_epik_State_Penalty>
1.45237

> <r_epik_Charging_Adjusted_Penalty>
2.55603

> <i_epik_Tot_Q>
1

> <i_epik_Tot_abs_Q>
1

> <r_epik_Metal_State_Penalty>
1.53545

> <b_epik_Metal_Only>
0

> <s_lp_Force_Field>
OPLS_2005

> <r_lp_Energy>
74.6442

> <b_lp_Chiralities_Consistent>
1

> <s_lp_Variant>
AV-unprocessed.smi:1157-3

> <Gold.Version>
5.8.1

> <Gold.Id.Protein>
6NUR|6NUR_protein|mol2

> <Gold.PLP.Fitness>
52.8882

> <Gold.PLP.PLP>
-45.6049

> <Gold.PLP.part.hbond>
-3.4258

> <Gold.PLP.part.metal>
0.0000

> <Gold.PLP.part.buried>
-2.0244

> <Gold.PLP.part.nonpolar>
-40.1771

> <Gold.PLP.part.repulsive>
0.7165

> <Gold.PLP.ligand.clash>
0.0000

> <Gold.PLP.ligand.torsion>
1.0492

> <Gold.PLP.Chemscore.Hbond>
2.9920

> <Gold.PLP.Chemscore.CHOScore>
0.0000

> <Gold.PLP.Chemscore.Metal>
0.0000

> <Gold.Chemscore.Hbonds>
donor molecule, donor type, donor heavy atom, donor atom, acceptor molecule, acceptor atom, score
      L1  H     5    34       P1  7948  0.99
      L1  H    18    55       P1  8028  2.00

> <Gold.PLP.Chemscore.Internal.Correction>
0.4056

> <Gold.Rescore>
     Score         DG    S(hbond)    S(metal)    S(lipo)     H(rot)  DE(clash)    DE(int)     intcor
     19.21     -21.89       1.97        0.00     114.78       1.40       1.62       1.06       ----

> <Gold.Chemscore.Fitness>
19.2133

> <Gold.Chemscore.DG>
-21.8915

> <Gold.Chemscore.ZeroCoef>
-5.4800

> <Gold.Chemscore.Hbond>
1.9679

> <Gold.Chemscore.Metal>
0.0000

> <Gold.Chemscore.Lipo>
114.7821

> <Gold.Chemscore.Internal_Hbond>
0.0000

> <Gold.Chemscore.DEClash>
1.6216

> <Gold.Chemscore.DEInternal>
1.0565

> <Gold.Chemscore.Rot>
1.4027

> <Gold.Chemscore.Internal.Correction>
   9.000000E+99

> <Gold.Chemscore.Hbonds>
donor molecule, donor type, donor heavy atom, donor atom, acceptor molecule, acceptor atom, score
      L1  H     5    34       P1  7948  0.94
      L1  H    18    55       P1  8028  1.00

> <Gold.Chemscore.Hbond.Weighted>
-6.5728

> <Gold.Chemscore.Metal.Weighted>
-0.0000

> <Gold.Chemscore.Lipo.Weighted>
-13.4295

> <Gold.Chemscore.Internal_Hbond.Weighted>
0.0000

> <Gold.Chemscore.DEClash.Weighted>
1.6216

> <Gold.Chemscore.DEInternal.Weighted>
1.0565

> <Gold.Chemscore.Rot.Weighted>
3.5908

> <Gold.Chemscore.Internal.Correction.Weighted>
   9.000000E+99

> <Gold.Protein.RotatedTorsions>
[ 6907 6896 6895 6894 ] final   69.32 input  -60.11 | X-H torsion
[ 7974 7965 7964 7962 ] final  158.35 input  175.53 | X-H torsion
[ 8008 7997 7996 7995 ] final  155.04 input   59.86 | X-H torsion
[ 10167 10162 10161 10158 ] final -140.78 input  -65.29 | X-H torsion
[ 10718 10713 10712 10709 ] final -163.23 input   66.30 | X-H torsion
[ 10763 10752 10751 10750 ] final  -55.35 input  -60.55 | X-H torsion
[ 11005 11000 10999 10996 ] final   47.50 input  -57.11 | X-H torsion

> <Gold.Protein.ActiveResidues>
 VAL166  LYS551  ARG553  GLY616  TRP617  ASP618  TYR619  PRO620  LYS621  CYS622 
 ASP623  PHE694  ASN695  SER759  ASP760  ASP761  ALA762  ILE779  LEU786  VAL792 
 PHE793  MET794  SER795  GLU796  ALA797  LYS798  CYS799  TRP800  GLU811  SER814 

> <Gold.Protein.RotatedAtoms>
  152.4678  134.5033  159.9731 H   0  0  0  0  0  0  0  0  0  0  0  0  # atno 6907 bound_to 6896
  151.5066  133.3487  159.2886 H   0  0  0  0  0  0  0  0  0  0  0  0  # atno 6908 bound_to 6896
  150.8672  134.8066  159.7189 H   0  0  0  0  0  0  0  0  0  0  0  0  # atno 6909 bound_to 6896
  144.7850  139.7467  143.6244 H   0  0  0  0  0  0  0  0  0  0  0  0  # atno 7974 bound_to 7965
  156.2500  140.1950  156.6739 H   0  0  0  0  0  0  0  0  0  0  0  0  # atno 8008 bound_to 7997
  154.6372  140.0588  156.9828 H   0  0  0  0  0  0  0  0  0  0  0  0  # atno 8009 bound_to 7997
  155.1619  140.3260  155.4412 H   0  0  0  0  0  0  0  0  0  0  0  0  # atno 8010 bound_to 7997
  139.8248  143.7526  152.2666 H   0  0  0  0  0  0  0  0  0  0  0  0  # atno 10167 bound_to 10162
  156.6218  130.8893  151.2959 H   0  0  0  0  0  0  0  0  0  0  0  0  # atno 10718 bound_to 10713
  154.1894  135.6430  153.5056 H   0  0  0  0  0  0  0  0  0  0  0  0  # atno 10763 bound_to 10752
  153.0039  135.5425  154.6430 H   0  0  0  0  0  0  0  0  0  0  0  0  # atno 10764 bound_to 10752
  154.5815  135.2925  155.0700 H   0  0  0  0  0  0  0  0  0  0  0  0  # atno 10765 bound_to 10752
  140.1273  134.4751  155.8549 H   0  0  0  0  0  0  0  0  0  0  0  0  # atno 11005 bound_to 11000
  146.2078  139.5414  142.9701 LP  0  0  0  0  0  0  0  0  0  0  0  0  # atno 17320 bound_to 7965
  145.5945  141.0364  143.2052 LP  0  0  0  0  0  0  0  0  0  0  0  0  # atno 17321 bound_to 7965
  139.7715  144.7475  151.0218 LP  0  0  0  0  0  0  0  0  0  0  0  0  # atno 17342 bound_to 10162
  140.7811  143.4640  151.0238 LP  0  0  0  0  0  0  0  0  0  0  0  0  # atno 17343 bound_to 10162
  157.7225  130.9578  150.1499 LP  0  0  0  0  0  0  0  0  0  0  0  0  # atno 17370 bound_to 10713
  156.2306  130.3682  149.8450 LP  0  0  0  0  0  0  0  0  0  0  0  0  # atno 17371 bound_to 10713
  141.2163  133.6782  156.7003 LP  0  0  0  0  0  0  0  0  0  0  0  0  # atno 17394 bound_to 11000
  140.2887  134.8258  157.3998 LP  0  0  0  0  0  0  0  0  0  0  0  0  # atno 17395 bound_to 11000

$$$$
