AV-unprocessed.smi:77|AV-procd|sdf|774|dock2
  -GOLD-   2262017123D 1   1.00000     0.00000
 Structure written by MMmdl.
 57 61  0  0  0  0  0  0  0  0  1 V2000
  146.1453  134.0764  152.6325 O   0  0  0  0  0  0  0  0  0  0  0  0
  145.5172  134.6956  151.7723 C   0  0  0  0  0  0  0  0  0  0  0  0
  145.1699  136.1786  151.9594 C   0  0  0  0  0  0  0  0  0  0  0  0
  144.3676  136.4382  153.1619 N   0  0  0  0  0  0  0  0  0  0  0  0
  144.9230  137.2217  154.1300 C   0  0  0  0  0  0  0  0  0  0  0  0
  144.5406  137.0458  155.4242 N   0  0  0  0  0  0  0  0  0  0  0  0
  145.0587  137.7975  156.3986 C   0  0  0  0  0  0  0  0  0  0  0  0
  145.9600  138.7750  156.3060 N   0  0  0  0  0  0  0  0  0  0  0  0
  146.3533  138.9631  155.0148 C   0  0  0  0  0  0  0  0  0  0  0  0
  145.8962  138.2353  153.8776 C   0  0  0  0  0  0  0  0  0  0  0  0
  146.5455  138.7000  152.7390 N   0  0  0  0  0  0  0  0  0  0  0  0
  147.3297  139.6467  153.1735 C   0  0  0  0  0  0  0  0  0  0  0  0
  147.2576  139.8908  154.5256 N   0  0  0  0  0  0  0  0  0  0  0  0
  148.0205  140.8817  155.2659 C   0  0  0  0  0  0  0  0  0  0  0  0
  149.1975  140.3155  156.1100 C   0  0  1  0  0  0  0  0  0  0  0  0
  149.9899  139.2984  155.2529 C   0  0  0  0  0  0  0  0  0  0  0  0
  150.5765  139.9189  154.1273 O   0  0  0  0  0  0  0  0  0  0  0  0
  150.1402  141.4139  156.6883 C   0  0  1  0  0  0  0  0  0  0  0  0
  149.5307  142.3489  157.7237 C   0  0  0  0  0  0  0  0  0  0  0  0
  150.7520  142.9256  158.4300 C   0  0  0  0  0  0  0  0  0  0  0  0
  151.7520  141.9191  158.3606 O   0  0  0  0  0  0  0  0  0  0  0  0
  151.3203  140.8683  157.5050 C   0  0  0  0  0  0  0  0  0  0  0  0
  142.9156  136.4786  152.9900 C   0  0  0  0  0  0  0  0  0  0  0  0
  142.0278  136.5347  154.2138 C   0  0  0  0  0  0  0  0  0  0  0  0
  142.0941  135.2732  153.3867 C   0  0  0  0  0  0  0  0  0  0  0  0
  145.1001  134.1426  150.6245 N   0  0  0  0  0  0  0  0  0  0  0  0
  145.3147  132.7879  150.2305 C   0  0  0  0  0  0  0  0  0  0  0  0
  144.1394  132.0325  149.6485 C   0  0  0  0  0  0  0  0  0  0  0  0
  144.6266  131.7046  151.0327 C   0  0  0  0  0  0  0  0  0  0  0  0
  146.0895  136.7658  151.9590 H   0  0  0  0  0  0  0  0  0  0  0  0
  144.6115  136.5097  151.0823 H   0  0  0  0  0  0  0  0  0  0  0  0
  144.6979  137.5867  157.3942 H   0  0  0  0  0  0  0  0  0  0  0  0
  147.9753  140.2053  152.5116 H   0  0  0  0  0  0  0  0  0  0  0  0
  148.3873  141.5997  154.5322 H   0  0  0  0  0  0  0  0  0  0  0  0
  147.3373  141.4332  155.9126 H   0  0  0  0  0  0  0  0  0  0  0  0
  148.7855  139.7618  156.9542 H   0  0  0  0  0  0  0  0  0  0  0  0
  150.7674  138.8140  155.8447 H   0  0  0  0  0  0  0  0  0  0  0  0
  149.3455  138.5101  154.8668 H   0  0  0  0  0  0  0  0  0  0  0  0
  150.0734  139.6907  153.3605 H   0  0  0  0  0  0  0  0  0  0  0  0
  150.5378  142.0157  155.8694 H   0  0  0  0  0  0  0  0  0  0  0  0
  148.9200  143.1412  157.2950 H   0  0  0  0  0  0  0  0  0  0  0  0
  148.9189  141.7884  158.4321 H   0  0  0  0  0  0  0  0  0  0  0  0
  151.1143  143.8095  157.9044 H   0  0  0  0  0  0  0  0  0  0  0  0
  150.5400  143.2076  159.4615 H   0  0  0  0  0  0  0  0  0  0  0  0
  151.0021  140.0320  158.1293 H   0  0  0  0  0  0  0  0  0  0  0  0
  152.1439  140.5268  156.8774 H   0  0  0  0  0  0  0  0  0  0  0  0
  142.5613  137.0261  152.1182 H   0  0  0  0  0  0  0  0  0  0  0  0
  142.5070  136.5185  155.1907 H   0  0  0  0  0  0  0  0  0  0  0  0
  141.1231  137.1351  154.1479 H   0  0  0  0  0  0  0  0  0  0  0  0
  141.2302  135.0305  152.7713 H   0  0  0  0  0  0  0  0  0  0  0  0
  142.6082  134.4199  153.8235 H   0  0  0  0  0  0  0  0  0  0  0  0
  144.5932  134.7281  149.9767 H   0  0  0  0  0  0  0  0  0  0  0  0
  146.2925  132.5339  149.8234 H   0  0  0  0  0  0  0  0  0  0  0  0
  143.1891  132.5561  149.5620 H   0  0  0  0  0  0  0  0  0  0  0  0
  144.3466  131.3119  148.8599 H   0  0  0  0  0  0  0  0  0  0  0  0
  145.1606  130.7664  151.1683 H   0  0  0  0  0  0  0  0  0  0  0  0
  144.0026  132.0100  151.8703 H   0  0  0  0  0  0  0  0  0  0  0  0
  1  2  2  0  0  0  0
  2  3  1  0  0  0  0
  2 26  1  0  0  0  0
  3  4  1  0  0  0  0
  3 30  1  0  0  0  0
  3 31  1  0  0  0  0
  4  5  1  0  0  0  0
  4 23  1  0  0  0  0
  5 10  1  0  0  0  0
  5  6  2  0  0  0  0
  6  7  1  0  0  0  0
  7  8  2  0  0  0  0
  7 32  1  0  0  0  0
  8  9  1  0  0  0  0
  9 13  1  0  0  0  0
  9 10  2  0  0  0  0
 10 11  1  0  0  0  0
 11 12  2  0  0  0  0
 12 13  1  0  0  0  0
 12 33  1  0  0  0  0
 13 14  1  0  0  0  0
 14 15  1  0  0  0  0
 14 34  1  0  0  0  0
 14 35  1  0  0  0  0
 15 16  1  0  0  0  0
 15 18  1  0  0  0  0
 15 36  1  0  0  0  0
 16 17  1  0  0  0  0
 16 37  1  0  0  0  0
 16 38  1  0  0  0  0
 17 39  1  0  0  0  0
 18 22  1  0  0  0  0
 18 19  1  0  0  0  0
 18 40  1  0  0  0  0
 19 20  1  0  0  0  0
 19 41  1  0  0  0  0
 19 42  1  0  0  0  0
 20 21  1  0  0  0  0
 20 43  1  0  0  0  0
 20 44  1  0  0  0  0
 21 22  1  0  0  0  0
 22 45  1  0  0  0  0
 22 46  1  0  0  0  0
 23 25  1  0  0  0  0
 23 24  1  0  0  0  0
 23 47  1  0  0  0  0
 24 25  1  0  0  0  0
 24 48  1  0  0  0  0
 24 49  1  0  0  0  0
 25 50  1  0  0  0  0
 25 51  1  0  0  0  0
 26 27  1  0  0  0  0
 26 52  1  0  0  0  0
 27 29  1  0  0  0  0
 27 28  1  0  0  0  0
 27 53  1  0  0  0  0
 28 29  1  0  0  0  0
 28 54  1  0  0  0  0
 28 55  1  0  0  0  0
 29 56  1  0  0  0  0
 29 57  1  0  0  0  0
M  END
> <s_m_source_file>
AV-unprocessed.smi

> <i_m_source_file_index>
77

> <i_lp_mmshare_version>
43012

> <i_f3d_flags>
0

> <s_epik_input>
W0NIMl0xW0NIMl1bQ0hdMVtOSF1DKD1PKVtDSDJdTihbQ0hdMltDSDJdW0NIMl0yKWMobltjSF1uMyljKGMzNCluW2NIXW40W0NIMl1bQ0BIXShbQ0gyXVtPSF0pW0NAQEhdNVtDSDJdW0NIMl1PW0NIMl01

> <s_epik_cmdline>
J2VwaWtfcHl0aG9uJywgJy1waCcsICc3LjAnLCAnLXRuJywgJzgnLCAnLW1hJywgJzIwMCcsICctbWV0YWxfYmluZGluZycsICctaW1hZScsICc8aW5maWxlLm1hZT4nLCAnLW9tYWUnLCAnPG91dGZpbGUubWFlPic=

> <r_lp_tautomer_probability>
1

> <r_epik_Ionization_Penalty>
0.000703847

> <r_epik_Ionization_Penalty_Charging>
0

> <r_epik_Ionization_Penalty_Neutral>
0.000703847

> <r_epik_State_Penalty>
0.00034025

> <r_epik_Charging_Adjusted_Penalty>
0.00034025

> <i_epik_Tot_Q>
0

> <i_epik_Tot_abs_Q>
0

> <r_epik_Metal_State_Penalty>
-0

> <b_epik_Metal_Only>
0

> <s_lp_Force_Field>
OPLS_2005

> <r_lp_Energy>
54.3031

> <b_lp_Chiralities_Consistent>
1

> <s_lp_Variant>
AV-unprocessed.smi:77-4

> <Gold.Version>
5.8.1

> <Gold.Id.Protein>
6NUR|6NUR_protein|mol2

> <Gold.PLP.Fitness>
44.8494

> <Gold.PLP.PLP>
-37.7099

> <Gold.PLP.part.hbond>
-2.6643

> <Gold.PLP.part.metal>
0.0000

> <Gold.PLP.part.buried>
-4.1265

> <Gold.PLP.part.nonpolar>
-31.2438

> <Gold.PLP.part.repulsive>
0.5493

> <Gold.PLP.ligand.clash>
0.0000

> <Gold.PLP.ligand.torsion>
1.6676

> <Gold.PLP.Chemscore.Hbond>
1.9440

> <Gold.PLP.Chemscore.CHOScore>
1.0000

> <Gold.PLP.Chemscore.Metal>
0.0000

> <Gold.Chemscore.Hbonds>
donor molecule, donor type, donor heavy atom, donor atom, acceptor molecule, acceptor atom, score
      L1  H    17    39       P1  7957  0.40
      P1  H  7989  7998       L1    17  0.95
      L1  C    12    33       P1  7957  1.00

> <Gold.PLP.Chemscore.Internal.Correction>
1.6427

> <Gold.Rescore>
     Score         DG    S(hbond)    S(metal)    S(lipo)     H(rot)  DE(clash)    DE(int)     intcor
      7.74     -11.79       1.49        0.00      87.46       3.47       0.05       4.01       ----

> <Gold.Chemscore.Fitness>
7.7373

> <Gold.Chemscore.DG>
-11.7927

> <Gold.Chemscore.ZeroCoef>
-5.4800

> <Gold.Chemscore.Hbond>
1.4856

> <Gold.Chemscore.Metal>
0.0000

> <Gold.Chemscore.Lipo>
87.4599

> <Gold.Chemscore.Internal_Hbond>
0.0000

> <Gold.Chemscore.DEClash>
0.0488

> <Gold.Chemscore.DEInternal>
4.0065

> <Gold.Chemscore.Rot>
3.4695

> <Gold.Chemscore.Internal.Correction>
   9.000000E+99

> <Gold.Chemscore.Hbonds>
donor molecule, donor type, donor heavy atom, donor atom, acceptor molecule, acceptor atom, score
      L1  H    17    39       P1  7957  0.37
      P1  H  7989  7998       L1    17  0.20

> <Gold.Chemscore.Hbond.Weighted>
-4.9618

> <Gold.Chemscore.Metal.Weighted>
-0.0000

> <Gold.Chemscore.Lipo.Weighted>
-10.2328

> <Gold.Chemscore.Internal_Hbond.Weighted>
0.0000

> <Gold.Chemscore.DEClash.Weighted>
0.0488

> <Gold.Chemscore.DEInternal.Weighted>
4.0065

> <Gold.Chemscore.Rot.Weighted>
8.8820

> <Gold.Chemscore.Internal.Correction.Weighted>
   9.000000E+99

> <Gold.Protein.RotatedTorsions>
[ 6907 6896 6895 6894 ] final -101.46 input  -60.11 | X-H torsion
[ 7974 7965 7964 7962 ] final  150.85 input  175.53 | X-H torsion
[ 8008 7997 7996 7995 ] final  -39.10 input   59.86 | X-H torsion
[ 10167 10162 10161 10158 ] final -149.34 input  -65.29 | X-H torsion
[ 10718 10713 10712 10709 ] final -167.93 input   66.30 | X-H torsion
[ 10763 10752 10751 10750 ] final   10.52 input  -60.55 | X-H torsion
[ 11005 11000 10999 10996 ] final   -6.44 input  -57.11 | X-H torsion

> <Gold.Protein.ActiveResidues>
 VAL166  LYS551  ARG553  GLY616  TRP617  ASP618  TYR619  PRO620  LYS621  CYS622 
 ASP623  PHE694  ASN695  SER759  ASP760  ASP761  ALA762  ILE779  LEU786  VAL792 
 PHE793  MET794  SER795  GLU796  ALA797  LYS798  CYS799  TRP800  GLU811  SER814 

> <Gold.Protein.RotatedAtoms>
  150.7155  134.0731  159.3871 H   0  0  0  0  0  0  0  0  0  0  0  0  # atno 6907 bound_to 6896
  151.8713  135.0486  160.0489 H   0  0  0  0  0  0  0  0  0  0  0  0  # atno 6908 bound_to 6896
  152.2640  133.5287  159.5435 H   0  0  0  0  0  0  0  0  0  0  0  0  # atno 6909 bound_to 6896
  144.8335  139.6461  143.6048 H   0  0  0  0  0  0  0  0  0  0  0  0  # atno 7974 bound_to 7965
  154.4027  140.1560  156.2808 H   0  0  0  0  0  0  0  0  0  0  0  0  # atno 8008 bound_to 7997
  155.8871  140.3440  155.5907 H   0  0  0  0  0  0  0  0  0  0  0  0  # atno 8009 bound_to 7997
  155.7600  140.0816  157.2150 H   0  0  0  0  0  0  0  0  0  0  0  0  # atno 8010 bound_to 7997
  139.7451  143.8602  152.2572 H   0  0  0  0  0  0  0  0  0  0  0  0  # atno 10167 bound_to 10162
  156.6896  130.9154  151.3067 H   0  0  0  0  0  0  0  0  0  0  0  0  # atno 10718 bound_to 10713
  153.2024  135.6858  153.8215 H   0  0  0  0  0  0  0  0  0  0  0  0  # atno 10763 bound_to 10752
  153.7477  135.3228  155.3316 H   0  0  0  0  0  0  0  0  0  0  0  0  # atno 10764 bound_to 10752
  154.8178  135.4673  154.0795 H   0  0  0  0  0  0  0  0  0  0  0  0  # atno 10765 bound_to 10752
  140.7020  133.8981  155.8690 H   0  0  0  0  0  0  0  0  0  0  0  0  # atno 11005 bound_to 11000
  146.2636  139.6466  142.9345 LP  0  0  0  0  0  0  0  0  0  0  0  0  # atno 17320 bound_to 7965
  145.4845  141.0438  143.2627 LP  0  0  0  0  0  0  0  0  0  0  0  0  # atno 17321 bound_to 7965
  139.8564  144.7139  150.9151 LP  0  0  0  0  0  0  0  0  0  0  0  0  # atno 17342 bound_to 10162
  140.7791  143.3854  151.1402 LP  0  0  0  0  0  0  0  0  0  0  0  0  # atno 17343 bound_to 10162
  157.7014  130.9337  150.0796 LP  0  0  0  0  0  0  0  0  0  0  0  0  # atno 17370 bound_to 10713
  156.1807  130.3650  149.9039 LP  0  0  0  0  0  0  0  0  0  0  0  0  # atno 17371 bound_to 10713
  141.0156  134.0960  157.4176 LP  0  0  0  0  0  0  0  0  0  0  0  0  # atno 17394 bound_to 11000
  139.8894  135.0105  156.6678 LP  0  0  0  0  0  0  0  0  0  0  0  0  # atno 17395 bound_to 11000

$$$$
