AV-unprocessed.smi:769|AV-procd|sdf|3678|dock3
  -GOLD-   22720 1 93D 1   1.00000     0.00000
 Structure written by MMmdl.
 50 52  0  0  0  0  0  0  0  0  4 V2000
  147.6198  131.9291  153.3885 O   0  0  0  0  0  0  0  0  0  0  0  0
  148.1696  133.0051  153.1265 C   0  0  0  0  0  0  0  0  0  0  0  0
  149.4078  133.4174  153.5113 N   0  5  0  0  0  0  0  0  0  0  0  0
  149.7064  134.1179  154.7595 C   0  0  0  0  0  0  0  0  0  0  0  0
  148.7493  135.3113  154.9463 C   0  0  0  0  0  0  0  0  0  0  0  0
  149.4059  136.5945  154.5842 N   0  3  0  0  0  0  0  0  0  0  0  0
  148.6987  137.7859  155.1254 C   0  0  0  0  0  0  0  0  0  0  0  0
  149.3776  139.0921  154.6733 C   0  0  0  0  0  0  0  0  0  0  0  0
  150.7912  139.0593  155.0634 N   0  0  0  0  0  0  0  0  0  0  0  0
  151.3218  139.9129  155.9732 C   0  0  0  0  0  0  0  0  0  0  0  0
  152.4916  139.8215  156.3475 O   0  0  0  0  0  0  0  0  0  0  0  0
  150.4452  141.0574  156.5269 C   0  0  0  0  0  0  0  0  0  0  0  0
  151.0612  142.4711  156.4997 C   0  0  0  0  0  0  0  0  0  0  0  0
  151.3907  142.3365  157.9894 C   0  0  0  0  0  0  0  0  0  0  0  0
  150.4288  141.1462  158.0629 C   0  0  0  0  0  0  0  0  0  0  0  0
  151.4972  137.9500  154.4126 C   0  0  0  0  0  0  0  0  0  0  0  0
  150.8696  136.6201  154.8662 C   0  0  0  0  0  0  0  0  0  0  0  0
  147.5452  133.9228  152.3664 N   0  0  0  0  0  0  0  0  0  0  0  0
  146.2665  133.8578  151.7499 C   0  0  0  0  0  0  0  0  0  0  0  0
  145.7557  135.0433  151.1768 C   0  0  0  0  0  0  0  0  0  0  0  0
  144.4834  135.0302  150.5704 C   0  0  0  0  0  0  0  0  0  0  0  0
  143.7587  133.8909  150.5525 N   0  3  0  0  0  0  0  0  0  0  0  0
  144.1969  132.7383  151.1038 C   0  0  0  0  0  0  0  0  0  0  0  0
  145.4615  132.6907  151.7246 C   0  0  0  0  0  0  0  0  0  0  0  0
  149.6376  133.4624  155.6288 H   0  0  0  0  0  0  0  0  0  0  0  0
  150.7312  134.4904  154.7616 H   0  0  0  0  0  0  0  0  0  0  0  0
  147.8745  135.1509  154.3134 H   0  0  0  0  0  0  0  0  0  0  0  0
  148.3738  135.3570  155.9700 H   0  0  0  0  0  0  0  0  0  0  0  0
  147.6614  137.7800  154.7878 H   0  0  0  0  0  0  0  0  0  0  0  0
  148.6811  137.7325  156.2153 H   0  0  0  0  0  0  0  0  0  0  0  0
  149.3086  139.1947  153.5892 H   0  0  0  0  0  0  0  0  0  0  0  0
  148.8389  139.9457  155.0865 H   0  0  0  0  0  0  0  0  0  0  0  0
  149.4501  141.0608  156.0806 H   0  0  0  0  0  0  0  0  0  0  0  0
  151.9356  142.6125  155.8636 H   0  0  0  0  0  0  0  0  0  0  0  0
  150.3146  143.2424  156.3051 H   0  0  0  0  0  0  0  0  0  0  0  0
  152.4284  142.0491  158.1657 H   0  0  0  0  0  0  0  0  0  0  0  0
  151.0998  143.1935  158.5974 H   0  0  0  0  0  0  0  0  0  0  0  0
  149.4468  141.4155  158.4546 H   0  0  0  0  0  0  0  0  0  0  0  0
  150.8395  140.2815  158.5864 H   0  0  0  0  0  0  0  0  0  0  0  0
  151.3973  138.0553  153.3313 H   0  0  0  0  0  0  0  0  0  0  0  0
  152.5694  137.9376  154.6000 H   0  0  0  0  0  0  0  0  0  0  0  0
  151.0366  136.4790  155.9355 H   0  0  0  0  0  0  0  0  0  0  0  0
  151.3627  135.7913  154.3572 H   0  0  0  0  0  0  0  0  0  0  0  0
  148.1015  134.7311  152.1292 H   0  0  0  0  0  0  0  0  0  0  0  0
  146.3367  135.9542  151.1940 H   0  0  0  0  0  0  0  0  0  0  0  0
  144.0268  135.8911  150.1043 H   0  0  0  0  0  0  0  0  0  0  0  0
  143.5248  131.8953  151.0380 H   0  0  0  0  0  0  0  0  0  0  0  0
  145.7867  131.7672  152.1792 H   0  0  0  0  0  0  0  0  0  0  0  0
  149.3122  136.6656  153.5806 H   0  0  0  0  0  0  0  0  0  0  0  0
  142.8397  133.9025  150.1093 H   0  0  0  0  0  0  0  0  0  0  0  0
  1  2  2  0  0  0  0
  2  3  1  0  0  0  0
  2 18  1  0  0  0  0
  3  4  1  0  0  0  0
  4  5  1  0  0  0  0
  4 25  1  0  0  0  0
  4 26  1  0  0  0  0
  5  6  1  0  0  0  0
  5 27  1  0  0  0  0
  5 28  1  0  0  0  0
  6 17  1  0  0  0  0
  6  7  1  0  0  0  0
  6 49  1  0  0  0  0
  7  8  1  0  0  0  0
  7 29  1  0  0  0  0
  7 30  1  0  0  0  0
  8  9  1  0  0  0  0
  8 31  1  0  0  0  0
  8 32  1  0  0  0  0
  9 10  1  0  0  0  0
  9 16  1  0  0  0  0
 10 11  2  0  0  0  0
 10 12  1  0  0  0  0
 12 15  1  0  0  0  0
 12 13  1  0  0  0  0
 12 33  1  0  0  0  0
 13 14  1  0  0  0  0
 13 34  1  0  0  0  0
 13 35  1  0  0  0  0
 14 15  1  0  0  0  0
 14 36  1  0  0  0  0
 14 37  1  0  0  0  0
 15 38  1  0  0  0  0
 15 39  1  0  0  0  0
 16 17  1  0  0  0  0
 16 40  1  0  0  0  0
 16 41  1  0  0  0  0
 17 42  1  0  0  0  0
 17 43  1  0  0  0  0
 18 19  1  0  0  0  0
 18 44  1  0  0  0  0
 19 24  1  0  0  0  0
 19 20  2  0  0  0  0
 20 21  1  0  0  0  0
 20 45  1  0  0  0  0
 21 22  2  0  0  0  0
 21 46  1  0  0  0  0
 22 23  1  0  0  0  0
 22 50  1  0  0  0  0
 23 24  2  0  0  0  0
 23 47  1  0  0  0  0
 24 48  1  0  0  0  0
M  CHG  1   3  -1
M  CHG  1   6   1
M  CHG  1  22   1
M  END
> <s_m_source_file>
AV-unprocessed.smi

> <i_m_source_file_index>
769

> <i_lp_mmshare_version>
43012

> <i_f3d_flags>
0

> <s_epik_input>
W2NIXTFbY0hdbltjSF1bY0hdYzFbTkhdQyg9TylbTkhdW0NIMl1bQ0gyXU4yW0NIMl1bQ0gyXU4oW0NIMl1bQ0gyXTIpQyg9TylbQ0hdM1tDSDJdW0NIMl1bQ0gyXTM=

> <s_epik_cmdline>
J2VwaWtfcHl0aG9uJywgJy1waCcsICc3LjAnLCAnLXRuJywgJzgnLCAnLW1hJywgJzIwMCcsICctbWV0YWxfYmluZGluZycsICctaW1hZScsICc8aW5maWxlLm1hZT4nLCAnLW9tYWUnLCAnPG91dGZpbGUubWFlPic=

> <r_epik_Ionization_Penalty>
8.38098

> <r_epik_Ionization_Penalty_Charging>
8.38098

> <r_epik_Ionization_Penalty_Neutral>
3.42309e-06

> <r_epik_State_Penalty>
8.4985

> <r_epik_Charging_Adjusted_Penalty>
16.8795

> <i_epik_Tot_Q>
1

> <i_epik_Tot_abs_Q>
3

> <r_epik_Metal_State_Penalty>
4.51015

> <b_epik_Metal_Only>
1

> <s_lp_Force_Field>
OPLS_2005

> <r_lp_Energy>
56.008

> <b_lp_Chiralities_Consistent>
1

> <s_lp_Variant>
AV-unprocessed.smi:769-5

> <Gold.Version>
5.8.1

> <Gold.Id.Protein>
6NUR|6NUR_protein|mol2

> <Gold.PLP.Fitness>
59.3648

> <Gold.PLP.PLP>
-43.9259

> <Gold.PLP.part.hbond>
-4.0000

> <Gold.PLP.part.metal>
0.0000

> <Gold.PLP.part.buried>
-6.0077

> <Gold.PLP.part.nonpolar>
-34.1051

> <Gold.PLP.part.repulsive>
0.3425

> <Gold.PLP.ligand.clash>
0.0000

> <Gold.PLP.ligand.torsion>
1.5317

> <Gold.PLP.Chemscore.Hbond>
6.0000

> <Gold.PLP.Chemscore.CHOScore>
0.0000

> <Gold.PLP.Chemscore.Metal>
0.0000

> <Gold.Chemscore.Hbonds>
donor molecule, donor type, donor heavy atom, donor atom, acceptor molecule, acceptor atom, score
      L1  H     6    49       P1  7948  2.00
      L1  H    18    44       P1  7948  1.00
      L1  H    22    50       P1 10186  2.00
      P1  H  7997  8010       L1    11  1.00

> <Gold.PLP.Chemscore.Internal.Correction>
0.5022

> <Gold.Rescore>
     Score         DG    S(hbond)    S(metal)    S(lipo)     H(rot)  DE(clash)    DE(int)     intcor
     20.35     -23.18       3.58        0.00      86.76       1.72       0.02       2.81       ----

> <Gold.Chemscore.Fitness>
20.3505

> <Gold.Chemscore.DG>
-23.1810

> <Gold.Chemscore.ZeroCoef>
-5.4800

> <Gold.Chemscore.Hbond>
3.5784

> <Gold.Chemscore.Metal>
0.0000

> <Gold.Chemscore.Lipo>
86.7622

> <Gold.Chemscore.Internal_Hbond>
0.0000

> <Gold.Chemscore.DEClash>
0.0163

> <Gold.Chemscore.DEInternal>
2.8142

> <Gold.Chemscore.Rot>
1.7195

> <Gold.Chemscore.Internal.Correction>
   9.000000E+99

> <Gold.Chemscore.Hbonds>
donor molecule, donor type, donor heavy atom, donor atom, acceptor molecule, acceptor atom, score
      L1  H     6    49       P1  7948  0.94
      L1  H    18    44       P1  7948  0.26
      L1  H    22    50       P1 10186  0.97
      P1  H  7997  8010       L1    11  1.00

> <Gold.Chemscore.Hbond.Weighted>
-11.9518

> <Gold.Chemscore.Metal.Weighted>
-0.0000

> <Gold.Chemscore.Lipo.Weighted>
-10.1512

> <Gold.Chemscore.Internal_Hbond.Weighted>
0.0000

> <Gold.Chemscore.DEClash.Weighted>
0.0163

> <Gold.Chemscore.DEInternal.Weighted>
2.8142

> <Gold.Chemscore.Rot.Weighted>
4.4020

> <Gold.Chemscore.Internal.Correction.Weighted>
   9.000000E+99

> <Gold.Protein.RotatedTorsions>
[ 6907 6896 6895 6894 ] final  -74.49 input  -60.11 | X-H torsion
[ 7974 7965 7964 7962 ] final  179.69 input  175.53 | X-H torsion
[ 8008 7997 7996 7995 ] final   72.71 input   59.86 | X-H torsion
[ 10167 10162 10161 10158 ] final    4.29 input  -65.29 | X-H torsion
[ 10718 10713 10712 10709 ] final  -77.66 input   66.30 | X-H torsion
[ 10763 10752 10751 10750 ] final -108.47 input  -60.55 | X-H torsion
[ 11005 11000 10999 10996 ] final  138.89 input  -57.11 | X-H torsion

> <Gold.Protein.ActiveResidues>
 VAL166  LYS551  ARG553  GLY616  TRP617  ASP618  TYR619  PRO620  LYS621  CYS622 
 ASP623  PHE694  ASN695  SER759  ASP760  ASP761  ALA762  ILE779  LEU786  VAL792 
 PHE793  MET794  SER795  GLU796  ALA797  LYS798  CYS799  TRP800  GLU811  SER814 

> <Gold.Protein.RotatedAtoms>
  150.7091  134.4861  159.5492 H   0  0  0  0  0  0  0  0  0  0  0  0  # atno 6907 bound_to 6896
  152.2488  134.8151  160.0458 H   0  0  0  0  0  0  0  0  0  0  0  0  # atno 6908 bound_to 6896
  151.8906  133.3480  159.3834 H   0  0  0  0  0  0  0  0  0  0  0  0  # atno 6909 bound_to 6896
  144.7143  140.0586  143.6433 H   0  0  0  0  0  0  0  0  0  0  0  0  # atno 7974 bound_to 7965
  155.7729  140.3484  155.5256 H   0  0  0  0  0  0  0  0  0  0  0  0  # atno 8008 bound_to 7997
  155.8804  140.1001  157.1510 H   0  0  0  0  0  0  0  0  0  0  0  0  # atno 8009 bound_to 7997
  154.4024  140.1323  156.4176 H   0  0  0  0  0  0  0  0  0  0  0  0  # atno 8010 bound_to 7997
  140.6542  143.7468  150.7626 H   0  0  0  0  0  0  0  0  0  0  0  0  # atno 10167 bound_to 10162
  156.0139  130.4497  150.3378 H   0  0  0  0  0  0  0  0  0  0  0  0  # atno 10718 bound_to 10713
  154.8137  135.4636  154.0586 H   0  0  0  0  0  0  0  0  0  0  0  0  # atno 10763 bound_to 10752
  153.1996  135.6867  153.8255 H   0  0  0  0  0  0  0  0  0  0  0  0  # atno 10764 bound_to 10752
  153.7744  135.3265  155.3334 H   0  0  0  0  0  0  0  0  0  0  0  0  # atno 10765 bound_to 10752
  140.0216  134.9394  157.0485 H   0  0  0  0  0  0  0  0  0  0  0  0  # atno 11005 bound_to 11000
  145.9883  139.2995  143.1000 LP  0  0  0  0  0  0  0  0  0  0  0  0  # atno 17320 bound_to 7965
  145.8932  140.9290  143.0541 LP  0  0  0  0  0  0  0  0  0  0  0  0  # atno 17321 bound_to 7965
  140.1125  143.4686  152.2362 LP  0  0  0  0  0  0  0  0  0  0  0  0  # atno 17342 bound_to 10162
  139.5762  144.7488  151.3759 LP  0  0  0  0  0  0  0  0  0  0  0  0  # atno 17343 bound_to 10162
  157.1475  131.0312  151.2900 LP  0  0  0  0  0  0  0  0  0  0  0  0  # atno 17370 bound_to 10713
  157.4420  130.7550  149.7078 LP  0  0  0  0  0  0  0  0  0  0  0  0  # atno 17371 bound_to 10713
  140.4378  134.1713  155.7172 LP  0  0  0  0  0  0  0  0  0  0  0  0  # atno 17394 bound_to 11000
  141.1777  133.8479  157.1365 LP  0  0  0  0  0  0  0  0  0  0  0  0  # atno 17395 bound_to 11000

$$$$
