AV-unprocessed.smi:2489|AV-procd|sdf|9804|dock3
  -GOLD-   2272013433D 1   1.00000     0.00000
 Structure written by MMmdl.
 34 35  0  0  0  0  0  0  0  0  2 V2000
  153.4671  140.9320  160.2332 C   0  0  0  0  0  0  0  0  0  0  0  0
  153.1884  142.3188  160.3613 O   0  0  0  0  0  0  0  0  0  0  0  0
  152.3954  142.9124  159.4028 C   0  0  0  0  0  0  0  0  0  0  0  0
  152.1299  144.2897  159.5470 C   0  0  0  0  0  0  0  0  0  0  0  0
  151.3184  144.9459  158.6030 C   0  0  0  0  0  0  0  0  0  0  0  0
  150.8049  144.2552  157.5637 N   0  3  0  0  0  0  0  0  0  0  0  0
  151.0321  142.9383  157.3588 C   0  0  0  0  0  0  0  0  0  0  0  0
  150.4100  142.3424  156.2292 N   0  0  0  0  0  0  0  0  0  0  0  0
  150.5515  141.0885  155.7614 C   0  0  0  0  0  0  0  0  0  0  0  0
  151.2844  140.2351  156.2627 O   0  0  0  0  0  0  0  0  0  0  0  0
  149.7217  140.7531  154.5160 C   0  0  1  0  0  0  0  0  0  0  0  0
  148.6955  139.6234  154.7192 C   0  0  0  0  0  0  0  0  0  0  0  0
  147.3711  140.3565  154.7758 C   0  0  0  0  0  0  0  0  0  0  0  0
  147.6342  141.5373  153.8478 C   0  0  1  0  0  0  0  0  0  0  0  0
  146.6793  142.7183  154.0498 C   0  0  0  0  0  0  0  0  0  0  0  0
  148.9659  141.9125  154.1701 O   0  0  0  0  0  0  0  0  0  0  0  0
  151.8302  142.2305  158.2935 C   0  0  0  0  0  0  0  0  0  0  0  0
  154.1132  140.6182  161.0531 H   0  0  0  0  0  0  0  0  0  0  0  0
  153.9888  140.7132  159.3004 H   0  0  0  0  0  0  0  0  0  0  0  0
  152.5550  140.3359  160.2862 H   0  0  0  0  0  0  0  0  0  0  0  0
  152.5429  144.8386  160.3808 H   0  0  0  0  0  0  0  0  0  0  0  0
  151.0662  145.9954  158.6476 H   0  0  0  0  0  0  0  0  0  0  0  0
  149.8377  142.9586  155.6704 H   0  0  0  0  0  0  0  0  0  0  0  0
  150.3833  140.4973  153.6866 H   0  0  0  0  0  0  0  0  0  0  0  0
  148.7118  138.9550  153.8572 H   0  0  0  0  0  0  0  0  0  0  0  0
  148.8679  139.0116  155.6058 H   0  0  0  0  0  0  0  0  0  0  0  0
  146.5286  139.7421  154.4575 H   0  0  0  0  0  0  0  0  0  0  0  0
  147.1794  140.7022  155.7926 H   0  0  0  0  0  0  0  0  0  0  0  0
  147.6087  141.2047  152.8086 H   0  0  0  0  0  0  0  0  0  0  0  0
  145.6505  142.4303  153.8329 H   0  0  0  0  0  0  0  0  0  0  0  0
  146.9403  143.5465  153.3904 H   0  0  0  0  0  0  0  0  0  0  0  0
  146.7159  143.0855  155.0761 H   0  0  0  0  0  0  0  0  0  0  0  0
  151.9931  141.1724  158.1662 H   0  0  0  0  0  0  0  0  0  0  0  0
  150.2196  144.7585  156.8964 H   0  0  0  0  0  0  0  0  0  0  0  0
  1  2  1  0  0  0  0
  1 18  1  0  0  0  0
  1 19  1  0  0  0  0
  1 20  1  0  0  0  0
  2  3  1  0  0  0  0
  3 17  1  0  0  0  0
  3  4  2  0  0  0  0
  4  5  1  0  0  0  0
  4 21  1  0  0  0  0
  5  6  2  0  0  0  0
  5 22  1  0  0  0  0
  6  7  1  0  0  0  0
  6 34  1  0  0  0  0
  7  8  1  0  0  0  0
  7 17  2  0  0  0  0
  8  9  1  0  0  0  0
  8 23  1  0  0  0  0
  9 10  2  0  0  0  0
  9 11  1  0  0  0  0
 11 16  1  0  0  0  0
 11 12  1  0  0  0  0
 11 24  1  0  0  0  0
 12 13  1  0  0  0  0
 12 25  1  0  0  0  0
 12 26  1  0  0  0  0
 13 14  1  0  0  0  0
 13 27  1  0  0  0  0
 13 28  1  0  0  0  0
 14 15  1  0  0  0  0
 14 16  1  0  0  0  0
 14 29  1  0  0  0  0
 15 30  1  0  0  0  0
 15 31  1  0  0  0  0
 15 32  1  0  0  0  0
 17 33  1  0  0  0  0
M  CHG  1   6   1
M  END
> <s_m_source_file>
AV-unprocessed.smi

> <i_m_source_file_index>
2489

> <i_lp_mmshare_version>
43012

> <i_f3d_flags>
0

> <s_epik_input>
W0NIM11PYzFbY0hdW2NIXW5jKFtjSF0xKVtOSF1DKD1PKVtDQEBIXTJbQ0gyXVtDSDJdW0NASF0oTzIpW0NIM10=

> <s_epik_cmdline>
J2VwaWtfcHl0aG9uJywgJy1waCcsICc3LjAnLCAnLXRuJywgJzgnLCAnLW1hJywgJzIwMCcsICctbWV0YWxfYmluZGluZycsICctaW1hZScsICc8aW5maWxlLm1hZT4nLCAnLW9tYWUnLCAnPG91dGZpbGUubWFlPic=

> <r_epik_Ionization_Penalty>
1.58956

> <r_epik_Ionization_Penalty_Charging>
1.1784

> <r_epik_Ionization_Penalty_Neutral>
0.411158

> <r_epik_State_Penalty>
1.31089

> <r_epik_Charging_Adjusted_Penalty>
2.48928

> <i_epik_Tot_Q>
1

> <i_epik_Tot_abs_Q>
1

> <r_epik_Metal_State_Penalty>
5.00213

> <b_epik_Metal_Only>
0

> <s_lp_Force_Field>
OPLS_2005

> <r_lp_Energy>
32.2942

> <b_lp_Chiralities_Consistent>
1

> <s_lp_Variant>
AV-unprocessed.smi:2489-10

> <Gold.Version>
5.8.1

> <Gold.Id.Protein>
6NUR|6NUR_protein|mol2

> <Gold.PLP.Fitness>
49.2499

> <Gold.PLP.PLP>
-39.3553

> <Gold.PLP.part.hbond>
-3.0000

> <Gold.PLP.part.metal>
0.0000

> <Gold.PLP.part.buried>
-5.5740

> <Gold.PLP.part.nonpolar>
-31.3220

> <Gold.PLP.part.repulsive>
0.3356

> <Gold.PLP.ligand.clash>
0.0000

> <Gold.PLP.ligand.torsion>
0.0118

> <Gold.PLP.Chemscore.Hbond>
3.3037

> <Gold.PLP.Chemscore.CHOScore>
0.0000

> <Gold.PLP.Chemscore.Metal>
0.0000

> <Gold.Chemscore.Hbonds>
donor molecule, donor type, donor heavy atom, donor atom, acceptor molecule, acceptor atom, score
      L1  H     6    34       P1  8028  2.00
      L1  H     8    23       P1  8028  0.88
      P1  H  8011  8017       L1    16  0.40

> <Gold.PLP.Chemscore.Internal.Correction>
0.0072

> <Gold.Rescore>
     Score         DG    S(hbond)    S(metal)    S(lipo)     H(rot)  DE(clash)    DE(int)     intcor
     16.48     -17.96       1.67        0.00      86.26       1.24       0.18       1.31       ----

> <Gold.Chemscore.Fitness>
16.4787

> <Gold.Chemscore.DG>
-17.9634

> <Gold.Chemscore.ZeroCoef>
-5.4800

> <Gold.Chemscore.Hbond>
1.6671

> <Gold.Chemscore.Metal>
0.0000

> <Gold.Chemscore.Lipo>
86.2562

> <Gold.Chemscore.Internal_Hbond>
0.0000

> <Gold.Chemscore.DEClash>
0.1764

> <Gold.Chemscore.DEInternal>
1.3082

> <Gold.Chemscore.Rot>
1.2409

> <Gold.Chemscore.Internal.Correction>
   9.000000E+99

> <Gold.Chemscore.Hbonds>
donor molecule, donor type, donor heavy atom, donor atom, acceptor molecule, acceptor atom, score
      L1  H     6    34       P1  8028  0.53
      L1  H     8    23       P1  8028  0.83
      P1  H  8011  8017       L1    16  0.06

> <Gold.Chemscore.Hbond.Weighted>
-5.5681

> <Gold.Chemscore.Metal.Weighted>
-0.0000

> <Gold.Chemscore.Lipo.Weighted>
-10.0920

> <Gold.Chemscore.Internal_Hbond.Weighted>
0.0000

> <Gold.Chemscore.DEClash.Weighted>
0.1764

> <Gold.Chemscore.DEInternal.Weighted>
1.3082

> <Gold.Chemscore.Rot.Weighted>
3.1767

> <Gold.Chemscore.Internal.Correction.Weighted>
   9.000000E+99

> <Gold.Protein.RotatedTorsions>
[ 6907 6896 6895 6894 ] final    2.81 input  -60.11 | X-H torsion
[ 7974 7965 7964 7962 ] final  179.22 input  175.53 | X-H torsion
[ 8008 7997 7996 7995 ] final  -50.92 input   59.86 | X-H torsion
[ 10167 10162 10161 10158 ] final -108.88 input  -65.29 | X-H torsion
[ 10718 10713 10712 10709 ] final   83.40 input   66.30 | X-H torsion
[ 10763 10752 10751 10750 ] final -176.10 input  -60.55 | X-H torsion
[ 11005 11000 10999 10996 ] final    0.03 input  -57.11 | X-H torsion

> <Gold.Protein.ActiveResidues>
 VAL166  LYS551  ARG553  GLY616  TRP617  ASP618  TYR619  PRO620  LYS621  CYS622 
 ASP623  PHE694  ASN695  SER759  ASP760  ASP761  ALA762  ILE779  LEU786  VAL792 
 PHE793  MET794  SER795  GLU796  ALA797  LYS798  CYS799  TRP800  GLU811  SER814 

> <Gold.Protein.RotatedAtoms>
  151.6149  135.1037  160.0088 H   0  0  0  0  0  0  0  0  0  0  0  0  # atno 6907 bound_to 6896
  152.4189  133.7079  159.6472 H   0  0  0  0  0  0  0  0  0  0  0  0  # atno 6908 bound_to 6896
  150.8076  133.8407  159.3219 H   0  0  0  0  0  0  0  0  0  0  0  0  # atno 6909 bound_to 6896
  144.7148  140.0515  143.6435 H   0  0  0  0  0  0  0  0  0  0  0  0  # atno 7974 bound_to 7965
  154.4072  140.1260  156.4744 H   0  0  0  0  0  0  0  0  0  0  0  0  # atno 8008 bound_to 7997
  155.7147  140.3493  155.4970 H   0  0  0  0  0  0  0  0  0  0  0  0  # atno 8009 bound_to 7997
  155.9268  140.1062  157.1153 H   0  0  0  0  0  0  0  0  0  0  0  0  # atno 8010 bound_to 7997
  140.1613  143.4118  152.1423 H   0  0  0  0  0  0  0  0  0  0  0  0  # atno 10167 bound_to 10162
  157.6878  131.0089  150.2518 H   0  0  0  0  0  0  0  0  0  0  0  0  # atno 10718 bound_to 10713
  154.5764  135.2832  155.0776 H   0  0  0  0  0  0  0  0  0  0  0  0  # atno 10763 bound_to 10752
  154.2129  135.6405  153.5124 H   0  0  0  0  0  0  0  0  0  0  0  0  # atno 10764 bound_to 10752
  153.0074  135.5496  154.6404 H   0  0  0  0  0  0  0  0  0  0  0  0  # atno 10765 bound_to 10752
  140.6310  133.9575  155.8274 H   0  0  0  0  0  0  0  0  0  0  0  0  # atno 11005 bound_to 11000
  145.9940  139.3037  143.0968 LP  0  0  0  0  0  0  0  0  0  0  0  0  # atno 17320 bound_to 7965
  145.8870  140.9327  143.0571 LP  0  0  0  0  0  0  0  0  0  0  0  0  # atno 17321 bound_to 7965
  139.5380  144.7228  151.4829 LP  0  0  0  0  0  0  0  0  0  0  0  0  # atno 17342 bound_to 10162
  140.6641  143.8436  150.6921 LP  0  0  0  0  0  0  0  0  0  0  0  0  # atno 17343 bound_to 10162
  156.3113  130.3772  149.7659 LP  0  0  0  0  0  0  0  0  0  0  0  0  # atno 17370 bound_to 10713
  156.5258  130.8235  151.3220 LP  0  0  0  0  0  0  0  0  0  0  0  0  # atno 17371 bound_to 10713
  141.0675  134.0255  157.3573 LP  0  0  0  0  0  0  0  0  0  0  0  0  # atno 17394 bound_to 11000
  139.9116  135.0191  156.7714 LP  0  0  0  0  0  0  0  0  0  0  0  0  # atno 17395 bound_to 11000

$$$$
