AV-unprocessed.smi:2695|AV-procd|sdf|10412|dock5
  -GOLD-   2272014453D 1   1.00000     0.00000
 Structure written by MMmdl.
 42 43  0  0  0  0  0  0  0  0  1 V2000
  148.8819  141.1734  154.1085 C   0  0  0  0  0  0  0  0  0  0  0  0
  149.1028  139.7829  154.6903 C   0  0  0  0  0  0  0  0  0  0  0  0
  148.3044  138.7645  154.2948 C   0  0  0  0  0  0  0  0  0  0  0  0
  148.4648  137.4142  154.8610 C   0  0  0  0  0  0  0  0  0  0  0  0
  147.7732  136.4662  154.4948 O   0  0  0  0  0  0  0  0  0  0  0  0
  149.4999  137.2717  155.8944 C   0  0  0  0  0  0  0  0  0  0  0  0
  150.2498  138.3416  156.2220 C   0  0  0  0  0  0  0  0  0  0  0  0
  151.1938  138.2663  157.1729 O   0  0  0  0  0  0  0  0  0  0  0  0
  150.1359  139.6203  155.6408 N   0  0  0  0  0  0  0  0  0  0  0  0
  151.0482  140.7201  156.0041 C   0  0  0  0  0  0  0  0  0  0  0  0
  150.8383  141.2384  157.4340 C   0  0  0  0  0  0  0  0  0  0  0  0
  149.9272  140.8029  158.1393 O   0  0  0  0  0  0  0  0  0  0  0  0
  151.6988  142.1839  157.8407 N   0  0  0  0  0  0  0  0  0  0  0  0
  151.7100  142.8312  159.1538 C   0  0  1  0  0  0  0  0  0  0  0  0
  152.9133  142.2974  159.9717 C   0  0  0  0  0  0  0  0  0  0  0  0
  153.1468  140.7873  159.8329 C   0  0  0  0  0  0  0  0  0  0  0  0
  154.0588  140.4297  161.0061 C   0  0  0  0  0  0  0  0  0  0  0  0
  153.6974  141.4133  162.1262 C   0  0  0  0  0  0  0  0  0  0  0  0
  152.8004  142.4856  161.4917 C   0  0  0  0  0  0  0  0  0  0  0  0
  151.7136  144.3658  158.9614 C   0  0  0  0  0  0  0  0  0  0  0  0
  150.5570  144.7599  158.4268 F   0  0  0  0  0  0  0  0  0  0  0  0
  151.8551  144.9932  160.1283 F   0  0  0  0  0  0  0  0  0  0  0  0
  152.7055  144.7344  158.1499 F   0  0  0  0  0  0  0  0  0  0  0  0
  147.9060  141.2429  153.6271 H   0  0  0  0  0  0  0  0  0  0  0  0
  149.6388  141.3961  153.3562 H   0  0  0  0  0  0  0  0  0  0  0  0
  148.9080  141.9453  154.8773 H   0  0  0  0  0  0  0  0  0  0  0  0
  147.5221  138.9195  153.5659 H   0  0  0  0  0  0  0  0  0  0  0  0
  149.6313  136.3135  156.3760 H   0  0  0  0  0  0  0  0  0  0  0  0
  152.0871  140.4075  155.8902 H   0  0  0  0  0  0  0  0  0  0  0  0
  150.9574  141.5565  155.3123 H   0  0  0  0  0  0  0  0  0  0  0  0
  152.4083  142.4838  157.1881 H   0  0  0  0  0  0  0  0  0  0  0  0
  150.8009  142.5669  159.6968 H   0  0  0  0  0  0  0  0  0  0  0  0
  153.8208  142.8030  159.6369 H   0  0  0  0  0  0  0  0  0  0  0  0
  152.2003  140.2531  159.9289 H   0  0  0  0  0  0  0  0  0  0  0  0
  153.5859  140.5124  158.8733 H   0  0  0  0  0  0  0  0  0  0  0  0
  153.9470  139.3893  161.3128 H   0  0  0  0  0  0  0  0  0  0  0  0
  155.1000  140.5754  160.7157 H   0  0  0  0  0  0  0  0  0  0  0  0
  153.1727  140.9096  162.9389 H   0  0  0  0  0  0  0  0  0  0  0  0
  154.6006  141.8557  162.5478 H   0  0  0  0  0  0  0  0  0  0  0  0
  153.0875  143.4896  161.8053 H   0  0  0  0  0  0  0  0  0  0  0  0
  151.7698  142.3247  161.8117 H   0  0  0  0  0  0  0  0  0  0  0  0
  150.7890  137.9076  157.9480 H   0  0  0  0  0  0  0  0  0  0  0  0
  1  2  1  0  0  0  0
  1 24  1  0  0  0  0
  1 25  1  0  0  0  0
  1 26  1  0  0  0  0
  2  9  1  0  0  0  0
  2  3  2  0  0  0  0
  3  4  1  0  0  0  0
  3 27  1  0  0  0  0
  4  5  2  0  0  0  0
  4  6  1  0  0  0  0
  6  7  2  0  0  0  0
  6 28  1  0  0  0  0
  7  8  1  0  0  0  0
  7  9  1  0  0  0  0
  8 42  1  0  0  0  0
  9 10  1  0  0  0  0
 10 11  1  0  0  0  0
 10 29  1  0  0  0  0
 10 30  1  0  0  0  0
 11 12  2  0  0  0  0
 11 13  1  0  0  0  0
 13 14  1  0  0  0  0
 13 31  1  0  0  0  0
 14 15  1  0  0  0  0
 14 20  1  0  0  0  0
 14 32  1  0  0  0  0
 15 19  1  0  0  0  0
 15 16  1  0  0  0  0
 15 33  1  0  0  0  0
 16 17  1  0  0  0  0
 16 34  1  0  0  0  0
 16 35  1  0  0  0  0
 17 18  1  0  0  0  0
 17 36  1  0  0  0  0
 17 37  1  0  0  0  0
 18 19  1  0  0  0  0
 18 38  1  0  0  0  0
 18 39  1  0  0  0  0
 19 40  1  0  0  0  0
 19 41  1  0  0  0  0
 20 21  1  0  0  0  0
 20 22  1  0  0  0  0
 20 23  1  0  0  0  0
M  END
> <s_m_source_file>
AV-unprocessed.smi

> <i_m_source_file_index>
2695

> <i_lp_mmshare_version>
43012

> <i_f3d_flags>
0

> <s_epik_input>
W0NIM11jMVtjSF1jKFtPSF0pW2NIXWMoPU8pbjFbQ0gyXUMoPU8pW05IXVtDQEBIXShDKEYpKEYpRilbQ0hdMltDSDJdW0NIMl1bQ0gyXVtDSDJdMg==

> <s_epik_cmdline>
J2VwaWtfcHl0aG9uJywgJy1waCcsICc3LjAnLCAnLXRuJywgJzgnLCAnLW1hJywgJzIwMCcsICctbWV0YWxfYmluZGluZycsICctaW1hZScsICc8aW5maWxlLm1hZT4nLCAnLW9tYWUnLCAnPG91dGZpbGUubWFlPic=

> <r_epik_Ionization_Penalty>
1.35977e-07

> <r_epik_Ionization_Penalty_Charging>
0

> <r_epik_Ionization_Penalty_Neutral>
1.35977e-07

> <r_epik_State_Penalty>
2.53185

> <r_epik_Charging_Adjusted_Penalty>
2.53185

> <i_epik_Tot_Q>
0

> <i_epik_Tot_abs_Q>
0

> <r_epik_Metal_State_Penalty>
2.53184

> <b_epik_Metal_Only>
0

> <s_lp_Force_Field>
OPLS_2005

> <r_lp_Energy>
25.7414

> <b_lp_Chiralities_Consistent>
1

> <s_lp_Variant>
AV-unprocessed.smi:2695-6

> <Gold.Version>
5.8.1

> <Gold.Id.Protein>
6NUR|6NUR_protein|mol2

> <Gold.PLP.Fitness>
47.0226

> <Gold.PLP.PLP>
-47.9375

> <Gold.PLP.part.hbond>
0.0000

> <Gold.PLP.part.metal>
0.0000

> <Gold.PLP.part.buried>
-4.6838

> <Gold.PLP.part.nonpolar>
-44.1218

> <Gold.PLP.part.repulsive>
1.3894

> <Gold.PLP.ligand.clash>
0.0000

> <Gold.PLP.ligand.torsion>
0.6192

> <Gold.PLP.Chemscore.Hbond>
0.0000

> <Gold.PLP.Chemscore.CHOScore>
0.0000

> <Gold.PLP.Chemscore.Metal>
0.0000

> <Gold.PLP.Chemscore.Internal.Correction>
0.3236

> <Gold.Rescore>
     Score         DG    S(hbond)    S(metal)    S(lipo)     H(rot)  DE(clash)    DE(int)     intcor
      9.83     -10.86       0.00        0.00      99.63       2.45       0.10       0.93       ----

> <Gold.Chemscore.Fitness>
9.8347

> <Gold.Chemscore.DG>
-10.8621

> <Gold.Chemscore.ZeroCoef>
-5.4800

> <Gold.Chemscore.Hbond>
0.0000

> <Gold.Chemscore.Metal>
0.0000

> <Gold.Chemscore.Lipo>
99.6349

> <Gold.Chemscore.Internal_Hbond>
0.0000

> <Gold.Chemscore.DEClash>
0.1001

> <Gold.Chemscore.DEInternal>
0.9274

> <Gold.Chemscore.Rot>
2.4512

> <Gold.Chemscore.Internal.Correction>
   9.000000E+99

> <Gold.Chemscore.Hbond.Weighted>
-0.0000

> <Gold.Chemscore.Metal.Weighted>
-0.0000

> <Gold.Chemscore.Lipo.Weighted>
-11.6573

> <Gold.Chemscore.Internal_Hbond.Weighted>
0.0000

> <Gold.Chemscore.DEClash.Weighted>
0.1001

> <Gold.Chemscore.DEInternal.Weighted>
0.9274

> <Gold.Chemscore.Rot.Weighted>
6.2752

> <Gold.Chemscore.Internal.Correction.Weighted>
   9.000000E+99

> <Gold.Protein.RotatedTorsions>
[ 6907 6896 6895 6894 ] final  -50.21 input  -60.11 | X-H torsion
[ 7974 7965 7964 7962 ] final -128.22 input  175.53 | X-H torsion
[ 8008 7997 7996 7995 ] final -128.91 input   59.86 | X-H torsion
[ 10167 10162 10161 10158 ] final   40.40 input  -65.29 | X-H torsion
[ 10718 10713 10712 10709 ] final -128.47 input   66.30 | X-H torsion
[ 10763 10752 10751 10750 ] final  104.12 input  -60.55 | X-H torsion
[ 11005 11000 10999 10996 ] final   20.89 input  -57.11 | X-H torsion

> <Gold.Protein.ActiveResidues>
 VAL166  LYS551  ARG553  GLY616  TRP617  ASP618  TYR619  PRO620  LYS621  CYS622 
 ASP623  PHE694  ASN695  SER759  ASP760  ASP761  ALA762  ILE779  LEU786  VAL792 
 PHE793  MET794  SER795  GLU796  ALA797  LYS798  CYS799  TRP800  GLU811  SER814 

> <Gold.Protein.RotatedAtoms>
  150.8730  134.8107  159.7168 H   0  0  0  0  0  0  0  0  0  0  0  0  # atno 6907 bound_to 6896
  152.4727  134.4917  159.9707 H   0  0  0  0  0  0  0  0  0  0  0  0  # atno 6908 bound_to 6896
  151.5003  133.3467  159.2903 H   0  0  0  0  0  0  0  0  0  0  0  0  # atno 6909 bound_to 6896
  144.9692  140.7528  143.4681 H   0  0  0  0  0  0  0  0  0  0  0  0  # atno 7974 bound_to 7965
  155.2705  140.0440  157.3006 H   0  0  0  0  0  0  0  0  0  0  0  0  # atno 8008 bound_to 7997
  154.5656  140.2359  155.8237 H   0  0  0  0  0  0  0  0  0  0  0  0  # atno 8009 bound_to 7997
  156.2082  140.3006  155.9682 H   0  0  0  0  0  0  0  0  0  0  0  0  # atno 8010 bound_to 7997
  140.3745  144.2061  150.6132 H   0  0  0  0  0  0  0  0  0  0  0  0  # atno 10167 bound_to 10162
  156.1954  130.6822  151.0475 H   0  0  0  0  0  0  0  0  0  0  0  0  # atno 10718 bound_to 10713
  153.3616  135.3954  155.1723 H   0  0  0  0  0  0  0  0  0  0  0  0  # atno 10763 bound_to 10752
  154.8680  135.3681  154.5091 H   0  0  0  0  0  0  0  0  0  0  0  0  # atno 10764 bound_to 10752
  153.5551  135.7082  153.5633 H   0  0  0  0  0  0  0  0  0  0  0  0  # atno 10765 bound_to 10752
  140.3976  134.1752  155.7663 H   0  0  0  0  0  0  0  0  0  0  0  0  # atno 11005 bound_to 11000
  145.2584  139.2002  143.4905 LP  0  0  0  0  0  0  0  0  0  0  0  0  # atno 17320 bound_to 7965
  146.3377  140.2509  142.8598 LP  0  0  0  0  0  0  0  0  0  0  0  0  # atno 17321 bound_to 7965
  140.4999  143.2321  151.8693 LP  0  0  0  0  0  0  0  0  0  0  0  0  # atno 17342 bound_to 10162
  139.4800  144.5071  151.8983 LP  0  0  0  0  0  0  0  0  0  0  0  0  # atno 17343 bound_to 10162
  157.6954  131.0796  150.6984 LP  0  0  0  0  0  0  0  0  0  0  0  0  # atno 17370 bound_to 10713
  156.7041  130.4632  149.5565 LP  0  0  0  0  0  0  0  0  0  0  0  0  # atno 17371 bound_to 10713
  141.1868  133.8294  157.1054 LP  0  0  0  0  0  0  0  0  0  0  0  0  # atno 17394 bound_to 11000
  140.0360  134.9878  157.0871 LP  0  0  0  0  0  0  0  0  0  0  0  0  # atno 17395 bound_to 11000

$$$$
