AV-unprocessed.smi:2740|AV-procd|sdf|10555|dock4
  -GOLD-   2272015 03D 1   1.00000     0.00000
 Structure written by MMmdl.
 31 32  0  0  0  0  0  0  0  0  1 V2000
  153.7542  142.1924  159.7082 C   0  0  0  0  0  0  0  0  0  0  0  0
  152.5130  142.9765  159.9702 C   0  0  0  0  0  0  0  0  0  0  0  0
  152.1464  143.6019  161.1375 C   0  0  0  0  0  0  0  0  0  0  0  0
  150.9173  144.2619  161.0642 N   0  0  0  0  0  0  0  0  0  0  0  0
  150.3544  144.1406  159.8571 C   0  0  0  0  0  0  0  0  0  0  0  0
  149.1073  144.7132  159.4926 N   0  0  0  0  0  0  0  0  0  0  0  0
  147.9717  144.7575  160.2109 C   0  0  0  0  0  0  0  0  0  0  0  0
  147.8224  144.2780  161.3351 O   0  0  0  0  0  0  0  0  0  0  0  0
  146.9999  145.3955  159.5426 N   0  0  0  0  0  0  0  0  0  0  0  0
  145.6429  145.6192  160.0319 C   0  0  0  0  0  0  0  0  0  0  0  0
  145.0054  146.8701  159.4035 C   0  0  1  0  0  0  0  0  0  0  0  0
  145.8266  148.1536  159.5353 C   0  0  0  0  0  0  0  0  0  0  0  0
  145.3132  148.9649  158.3685 C   0  0  0  0  0  0  0  0  0  0  0  0
  145.1314  147.8908  157.3004 C   0  0  0  0  0  0  0  0  0  0  0  0
  144.8379  146.6837  158.0004 O   0  0  0  0  0  0  0  0  0  0  0  0
  151.3083  143.1940  158.7257 S   0  0  0  0  0  0  0  0  0  0  0  0
  154.5007  142.3692  160.4828 H   0  0  0  0  0  0  0  0  0  0  0  0
  154.1939  142.4701  158.7500 H   0  0  0  0  0  0  0  0  0  0  0  0
  153.5383  141.1242  159.6851 H   0  0  0  0  0  0  0  0  0  0  0  0
  152.6988  143.6301  162.0652 H   0  0  0  0  0  0  0  0  0  0  0  0
  149.0793  145.1465  158.5816 H   0  0  0  0  0  0  0  0  0  0  0  0
  147.2133  145.7566  158.6245 H   0  0  0  0  0  0  0  0  0  0  0  0
  145.0142  144.7433  159.8626 H   0  0  0  0  0  0  0  0  0  0  0  0
  145.6993  145.7467  161.1132 H   0  0  0  0  0  0  0  0  0  0  0  0
  144.0138  147.0351  159.8280 H   0  0  0  0  0  0  0  0  0  0  0  0
  145.6900  148.6507  160.4962 H   0  0  0  0  0  0  0  0  0  0  0  0
  146.8896  147.9467  159.4043 H   0  0  0  0  0  0  0  0  0  0  0  0
  144.3513  149.4143  158.6191 H   0  0  0  0  0  0  0  0  0  0  0  0
  145.9950  149.7594  158.0640 H   0  0  0  0  0  0  0  0  0  0  0  0
  144.3427  148.1416  156.5906 H   0  0  0  0  0  0  0  0  0  0  0  0
  146.0572  147.7495  156.7416 H   0  0  0  0  0  0  0  0  0  0  0  0
  1  2  1  0  0  0  0
  1 17  1  0  0  0  0
  1 18  1  0  0  0  0
  1 19  1  0  0  0  0
  2 16  1  0  0  0  0
  2  3  2  0  0  0  0
  3  4  1  0  0  0  0
  3 20  1  0  0  0  0
  4  5  2  0  0  0  0
  5  6  1  0  0  0  0
  5 16  1  0  0  0  0
  6  7  1  0  0  0  0
  6 21  1  0  0  0  0
  7  8  2  0  0  0  0
  7  9  1  0  0  0  0
  9 10  1  0  0  0  0
  9 22  1  0  0  0  0
 10 11  1  0  0  0  0
 10 23  1  0  0  0  0
 10 24  1  0  0  0  0
 11 15  1  0  0  0  0
 11 12  1  0  0  0  0
 11 25  1  0  0  0  0
 12 13  1  0  0  0  0
 12 26  1  0  0  0  0
 12 27  1  0  0  0  0
 13 14  1  0  0  0  0
 13 28  1  0  0  0  0
 13 29  1  0  0  0  0
 14 15  1  0  0  0  0
 14 30  1  0  0  0  0
 14 31  1  0  0  0  0
M  END
> <s_m_source_file>
AV-unprocessed.smi

> <i_m_source_file_index>
2740

> <i_lp_mmshare_version>
43012

> <i_f3d_flags>
0

> <s_epik_input>
W0NIM11jMVtjSF1uYyhzMSlbTkhdQyg9TylbTkhdW0NIMl1bQ0BASF0yW0NIMl1bQ0gyXVtDSDJdTzI=

> <s_epik_cmdline>
J2VwaWtfcHl0aG9uJywgJy1waCcsICc3LjAnLCAnLXRuJywgJzgnLCAnLW1hJywgJzIwMCcsICctbWV0YWxfYmluZGluZycsICctaW1hZScsICc8aW5maWxlLm1hZT4nLCAnLW9tYWUnLCAnPG91dGZpbGUubWFlPic=

> <r_lp_tautomer_probability>
0.999

> <r_epik_Ionization_Penalty>
0.000387528

> <r_epik_Ionization_Penalty_Charging>
0

> <r_epik_Ionization_Penalty_Neutral>
0.000387528

> <r_epik_State_Penalty>
0.000177984

> <r_epik_Charging_Adjusted_Penalty>
0.000177984

> <i_epik_Tot_Q>
0

> <i_epik_Tot_abs_Q>
0

> <r_epik_Metal_State_Penalty>
0.00626158

> <b_epik_Metal_Only>
0

> <s_lp_Force_Field>
OPLS_2005

> <r_lp_Energy>
15.3507

> <b_lp_Chiralities_Consistent>
1

> <s_lp_Variant>
AV-unprocessed.smi:2740-2

> <Gold.Version>
5.8.1

> <Gold.Id.Protein>
6NUR|6NUR_protein|mol2

> <Gold.PLP.Fitness>
41.2965

> <Gold.PLP.PLP>
-33.7317

> <Gold.PLP.part.hbond>
-3.1935

> <Gold.PLP.part.metal>
0.0000

> <Gold.PLP.part.buried>
-7.3847

> <Gold.PLP.part.nonpolar>
-25.2050

> <Gold.PLP.part.repulsive>
0.7391

> <Gold.PLP.ligand.clash>
0.0000

> <Gold.PLP.ligand.torsion>
0.5392

> <Gold.PLP.Chemscore.Hbond>
2.8800

> <Gold.PLP.Chemscore.CHOScore>
0.0000

> <Gold.PLP.Chemscore.Metal>
0.0000

> <Gold.Chemscore.Hbonds>
donor molecule, donor type, donor heavy atom, donor atom, acceptor molecule, acceptor atom, score
      L1  H     6    21       P1  8029  0.88
      L1  H     9    22       P1  8029  0.91
      P1  H  6933  6944       L1     8  1.00

> <Gold.PLP.Chemscore.Internal.Correction>
0.0032

> <Gold.Rescore>
     Score         DG    S(hbond)    S(metal)    S(lipo)     H(rot)  DE(clash)    DE(int)     intcor
     20.43     -21.04       2.87        0.00      78.96       1.27       0.06       0.55       ----

> <Gold.Chemscore.Fitness>
20.4298

> <Gold.Chemscore.DG>
-21.0440

> <Gold.Chemscore.ZeroCoef>
-5.4800

> <Gold.Chemscore.Hbond>
2.8655

> <Gold.Chemscore.Metal>
0.0000

> <Gold.Chemscore.Lipo>
78.9623

> <Gold.Chemscore.Internal_Hbond>
0.0000

> <Gold.Chemscore.DEClash>
0.0638

> <Gold.Chemscore.DEInternal>
0.5504

> <Gold.Chemscore.Rot>
1.2678

> <Gold.Chemscore.Internal.Correction>
   9.000000E+99

> <Gold.Chemscore.Hbonds>
donor molecule, donor type, donor heavy atom, donor atom, acceptor molecule, acceptor atom, score
      L1  H     6    21       P1  8029  0.81
      L1  H     9    22       P1  8029  0.88
      P1  H  6933  6944       L1     8  0.79

> <Gold.Chemscore.Hbond.Weighted>
-9.5709

> <Gold.Chemscore.Metal.Weighted>
-0.0000

> <Gold.Chemscore.Lipo.Weighted>
-9.2386

> <Gold.Chemscore.Internal_Hbond.Weighted>
0.0000

> <Gold.Chemscore.DEClash.Weighted>
0.0638

> <Gold.Chemscore.DEInternal.Weighted>
0.5504

> <Gold.Chemscore.Rot.Weighted>
3.2455

> <Gold.Chemscore.Internal.Correction.Weighted>
   9.000000E+99

> <Gold.Protein.RotatedTorsions>
[ 6907 6896 6895 6894 ] final  118.46 input  -60.11 | X-H torsion
[ 7974 7965 7964 7962 ] final  160.23 input  175.53 | X-H torsion
[ 8008 7997 7996 7995 ] final   40.08 input   59.86 | X-H torsion
[ 10167 10162 10161 10158 ] final  -11.69 input  -65.29 | X-H torsion
[ 10718 10713 10712 10709 ] final  -79.30 input   66.30 | X-H torsion
[ 10763 10752 10751 10750 ] final  150.03 input  -60.55 | X-H torsion
[ 11005 11000 10999 10996 ] final  -64.52 input  -57.11 | X-H torsion

> <Gold.Protein.ActiveResidues>
 VAL166  LYS551  ARG553  GLY616  TRP617  ASP618  TYR619  PRO620  LYS621  CYS622 
 ASP623  PHE694  ASN695  SER759  ASP760  ASP761  ALA762  ILE779  LEU786  VAL792 
 PHE793  MET794  SER795  GLU796  ALA797  LYS798  CYS799  TRP800  GLU811  SER814 

> <Gold.Protein.RotatedAtoms>
  152.4541  133.7688  159.6787 H   0  0  0  0  0  0  0  0  0  0  0  0  # atno 6907 bound_to 6896
  150.8462  133.7848  159.3048 H   0  0  0  0  0  0  0  0  0  0  0  0  # atno 6908 bound_to 6896
  151.5457  135.1071  159.9989 H   0  0  0  0  0  0  0  0  0  0  0  0  # atno 6909 bound_to 6896
  144.7748  139.7728  143.6283 H   0  0  0  0  0  0  0  0  0  0  0  0  # atno 7974 bound_to 7965
  155.2473  140.3350  155.4286 H   0  0  0  0  0  0  0  0  0  0  0  0  # atno 8008 bound_to 7997
  156.2231  140.1817  156.7474 H   0  0  0  0  0  0  0  0  0  0  0  0  # atno 8009 bound_to 7997
  154.5856  140.0646  156.9151 H   0  0  0  0  0  0  0  0  0  0  0  0  # atno 8010 bound_to 7997
  140.7144  143.5612  150.9193 H   0  0  0  0  0  0  0  0  0  0  0  0  # atno 10167 bound_to 10162
  156.0096  130.4542  150.3627 H   0  0  0  0  0  0  0  0  0  0  0  0  # atno 10718 bound_to 10713
  154.0809  135.2859  155.3290 H   0  0  0  0  0  0  0  0  0  0  0  0  # atno 10763 bound_to 10752
  154.6684  135.5308  153.8110 H   0  0  0  0  0  0  0  0  0  0  0  0  # atno 10764 bound_to 10752
  153.0449  135.6551  154.0984 H   0  0  0  0  0  0  0  0  0  0  0  0  # atno 10765 bound_to 10752
  141.1427  133.6667  156.5846 H   0  0  0  0  0  0  0  0  0  0  0  0  # atno 11005 bound_to 11000
  146.1919  139.5165  142.9799 LP  0  0  0  0  0  0  0  0  0  0  0  0  # atno 17320 bound_to 7965
  145.6219  141.0321  143.1910 LP  0  0  0  0  0  0  0  0  0  0  0  0  # atno 17321 bound_to 7965
  139.9338  143.6462  152.3070 LP  0  0  0  0  0  0  0  0  0  0  0  0  # atno 17342 bound_to 10162
  139.6922  144.7645  151.1418 LP  0  0  0  0  0  0  0  0  0  0  0  0  # atno 17343 bound_to 10162
  157.1715  131.0370  151.2793 LP  0  0  0  0  0  0  0  0  0  0  0  0  # atno 17370 bound_to 10713
  157.4225  130.7445  149.6924 LP  0  0  0  0  0  0  0  0  0  0  0  0  # atno 17371 bound_to 10713
  140.3811  134.7523  157.4661 LP  0  0  0  0  0  0  0  0  0  0  0  0  # atno 17394 bound_to 11000
  140.0637  134.5959  155.8719 LP  0  0  0  0  0  0  0  0  0  0  0  0  # atno 17395 bound_to 11000

$$$$
