AV-unprocessed.smi:2364|AV-procd|sdf|9418|dock5
  -GOLD-   2272013 53D 1   1.00000     0.00000
 Structure written by MMmdl.
 46 47  0  0  0  0  0  0  0  0  1 V2000
  144.4542  132.4920  149.8208 C   0  0  0  0  0  0  0  0  0  0  0  0
  144.2244  132.4320  151.3418 C   0  0  0  0  0  0  0  0  0  0  0  0
  145.2245  133.2409  152.2165 C   0  0  2  0  0  0  0  0  0  0  0  0
  145.1195  134.7404  151.8605 C   0  0  0  0  0  0  0  0  0  0  0  0
  146.6650  132.7409  151.9227 C   0  0  0  0  0  0  0  0  0  0  0  0
  146.7873  131.3385  152.0638 O   0  0  0  0  0  0  0  0  0  0  0  0
  144.9109  133.1035  153.6471 N   0  0  0  0  0  0  0  0  0  0  0  0
  145.5959  133.5759  154.7028 C   0  0  0  0  0  0  0  0  0  0  0  0
  146.6466  134.2117  154.6140 O   0  0  0  0  0  0  0  0  0  0  0  0
  144.9800  133.2580  155.8549 N   0  0  0  0  0  0  0  0  0  0  0  0
  145.3888  133.5562  157.1811 C   0  0  0  0  0  0  0  0  0  0  0  0
  144.4431  133.8392  158.1211 N   0  0  0  0  0  0  0  0  0  0  0  0
  145.2375  134.0361  159.1651 C   0  0  0  0  0  0  0  0  0  0  0  0
  146.5450  133.9275  158.8948 N   0  0  0  0  0  0  0  0  0  0  0  0
  147.7151  133.9805  159.7771 C   0  0  0  0  0  0  0  0  0  0  0  0
  147.6228  132.9629  160.9383 C   0  0  0  0  0  0  0  0  0  0  0  0
  146.5073  133.3258  161.9365 C   0  0  0  0  0  0  0  0  0  0  0  0
  146.7067  134.7436  162.4972 C   0  0  0  0  0  0  0  0  0  0  0  0
  146.8422  135.7834  161.3722 C   0  0  0  0  0  0  0  0  0  0  0  0
  147.9530  135.3872  160.3814 C   0  0  0  0  0  0  0  0  0  0  0  0
  146.6578  133.5635  157.5923 N   0  0  0  0  0  0  0  0  0  0  0  0
  143.6886  131.9176  149.2992 H   0  0  0  0  0  0  0  0  0  0  0  0
  145.4191  132.0725  149.5382 H   0  0  0  0  0  0  0  0  0  0  0  0
  144.4057  133.5128  149.4422 H   0  0  0  0  0  0  0  0  0  0  0  0
  143.2065  132.7673  151.5412 H   0  0  0  0  0  0  0  0  0  0  0  0
  144.2426  131.3867  151.6528 H   0  0  0  0  0  0  0  0  0  0  0  0
  145.3292  134.9130  150.8045 H   0  0  0  0  0  0  0  0  0  0  0  0
  145.8236  135.3431  152.4349 H   0  0  0  0  0  0  0  0  0  0  0  0
  144.1272  135.1398  152.0679 H   0  0  0  0  0  0  0  0  0  0  0  0
  146.9885  133.0168  150.9191 H   0  0  0  0  0  0  0  0  0  0  0  0
  147.3714  133.2100  152.6084 H   0  0  0  0  0  0  0  0  0  0  0  0
  147.3444  131.0154  151.3723 H   0  0  0  0  0  0  0  0  0  0  0  0
  144.0601  132.6003  153.8516 H   0  0  0  0  0  0  0  0  0  0  0  0
  144.1183  132.7391  155.7751 H   0  0  0  0  0  0  0  0  0  0  0  0
  144.8491  134.2641  160.1462 H   0  0  0  0  0  0  0  0  0  0  0  0
  148.5770  133.7218  159.1610 H   0  0  0  0  0  0  0  0  0  0  0  0
  147.4768  131.9514  160.5600 H   0  0  0  0  0  0  0  0  0  0  0  0
  148.5764  132.9397  161.4675 H   0  0  0  0  0  0  0  0  0  0  0  0
  145.5332  133.2576  161.4516 H   0  0  0  0  0  0  0  0  0  0  0  0
  146.4932  132.6047  162.7540 H   0  0  0  0  0  0  0  0  0  0  0  0
  145.8739  135.0069  163.1496 H   0  0  0  0  0  0  0  0  0  0  0  0
  147.6031  134.7636  163.1182 H   0  0  0  0  0  0  0  0  0  0  0  0
  145.8915  135.8830  160.8474 H   0  0  0  0  0  0  0  0  0  0  0  0
  147.0596  136.7628  161.7992 H   0  0  0  0  0  0  0  0  0  0  0  0
  148.9110  135.3934  160.9029 H   0  0  0  0  0  0  0  0  0  0  0  0
  148.0449  136.1413  159.5992 H   0  0  0  0  0  0  0  0  0  0  0  0
  1  2  1  0  0  0  0
  1 22  1  0  0  0  0
  1 23  1  0  0  0  0
  1 24  1  0  0  0  0
  2  3  1  0  0  0  0
  2 25  1  0  0  0  0
  2 26  1  0  0  0  0
  3  4  1  0  0  0  0
  3  5  1  0  0  0  0
  3  7  1  0  0  0  0
  4 27  1  0  0  0  0
  4 28  1  0  0  0  0
  4 29  1  0  0  0  0
  5  6  1  0  0  0  0
  5 30  1  0  0  0  0
  5 31  1  0  0  0  0
  6 32  1  0  0  0  0
  7  8  1  0  0  0  0
  7 33  1  0  0  0  0
  8  9  2  0  0  0  0
  8 10  1  0  0  0  0
 10 11  1  0  0  0  0
 10 34  1  0  0  0  0
 11 21  2  0  0  0  0
 11 12  1  0  0  0  0
 12 13  2  0  0  0  0
 13 14  1  0  0  0  0
 13 35  1  0  0  0  0
 14 15  1  0  0  0  0
 14 21  1  0  0  0  0
 15 20  1  0  0  0  0
 15 16  1  0  0  0  0
 15 36  1  0  0  0  0
 16 17  1  0  0  0  0
 16 37  1  0  0  0  0
 16 38  1  0  0  0  0
 17 18  1  0  0  0  0
 17 39  1  0  0  0  0
 17 40  1  0  0  0  0
 18 19  1  0  0  0  0
 18 41  1  0  0  0  0
 18 42  1  0  0  0  0
 19 20  1  0  0  0  0
 19 43  1  0  0  0  0
 19 44  1  0  0  0  0
 20 45  1  0  0  0  0
 20 46  1  0  0  0  0
M  END
> <s_m_source_file>
AV-unprocessed.smi

> <i_m_source_file_index>
2364

> <i_lp_mmshare_version>
43012

> <i_f3d_flags>
0

> <s_epik_input>
W0NIM11bQ0gyXVtDQEBdKFtDSDNdKShbQ0gyXVtPSF0pW05IXUMoPU8pW05IXWMxbltjSF1uKG4xKVtDSF0yW0NIMl1bQ0gyXVtDSDJdW0NIMl1bQ0gyXTI=

> <s_epik_cmdline>
J2VwaWtfcHl0aG9uJywgJy1waCcsICc3LjAnLCAnLXRuJywgJzgnLCAnLW1hJywgJzIwMCcsICctbWV0YWxfYmluZGluZycsICctaW1hZScsICc8aW5maWxlLm1hZT4nLCAnLW9tYWUnLCAnPG91dGZpbGUubWFlPic=

> <r_lp_tautomer_probability>
1

> <r_epik_Ionization_Penalty>
9.31261e-05

> <r_epik_Ionization_Penalty_Charging>
0

> <r_epik_Ionization_Penalty_Neutral>
9.31261e-05

> <r_epik_State_Penalty>
-0

> <r_epik_Charging_Adjusted_Penalty>
0

> <i_epik_Tot_Q>
0

> <i_epik_Tot_abs_Q>
0

> <r_epik_Metal_State_Penalty>
-0

> <b_epik_Metal_Only>
0

> <s_lp_Force_Field>
OPLS_2005

> <r_lp_Energy>
24.8913

> <b_lp_Chiralities_Consistent>
1

> <s_lp_Variant>
AV-unprocessed.smi:2364-2

> <Gold.Version>
5.8.1

> <Gold.Id.Protein>
6NUR|6NUR_protein|mol2

> <Gold.PLP.Fitness>
38.1765

> <Gold.PLP.PLP>
-29.9184

> <Gold.PLP.part.hbond>
-3.0000

> <Gold.PLP.part.metal>
0.0000

> <Gold.PLP.part.buried>
-4.9979

> <Gold.PLP.part.nonpolar>
-22.6626

> <Gold.PLP.part.repulsive>
0.0960

> <Gold.PLP.ligand.clash>
0.0000

> <Gold.PLP.ligand.torsion>
0.4096

> <Gold.PLP.Chemscore.Hbond>
2.9913

> <Gold.PLP.Chemscore.CHOScore>
0.0000

> <Gold.PLP.Chemscore.Metal>
0.0000

> <Gold.Chemscore.Hbonds>
donor molecule, donor type, donor heavy atom, donor atom, acceptor molecule, acceptor atom, score
      L1  H     6    32       P1 10747  1.00
      L1  H     7    33       P1 10957  1.00
      L1  H    10    34       P1 10957  1.00

> <Gold.PLP.Chemscore.Internal.Correction>
0.1035

> <Gold.Rescore>
     Score         DG    S(hbond)    S(metal)    S(lipo)     H(rot)  DE(clash)    DE(int)     intcor
     16.24     -16.70       2.68        0.00      70.66       2.34       0.00       0.47       ----

> <Gold.Chemscore.Fitness>
16.2354

> <Gold.Chemscore.DG>
-16.7034

> <Gold.Chemscore.ZeroCoef>
-5.4800

> <Gold.Chemscore.Hbond>
2.6753

> <Gold.Chemscore.Metal>
0.0000

> <Gold.Chemscore.Lipo>
70.6553

> <Gold.Chemscore.Internal_Hbond>
0.0000

> <Gold.Chemscore.DEClash>
0.0000

> <Gold.Chemscore.DEInternal>
0.4680

> <Gold.Chemscore.Rot>
2.3354

> <Gold.Chemscore.Internal.Correction>
   9.000000E+99

> <Gold.Chemscore.Hbonds>
donor molecule, donor type, donor heavy atom, donor atom, acceptor molecule, acceptor atom, score
      L1  H     6    32       P1 10747  0.97
      L1  H     7    33       P1 10957  0.65
      L1  H    10    34       P1 10957  0.96

> <Gold.Chemscore.Hbond.Weighted>
-8.9354

> <Gold.Chemscore.Metal.Weighted>
-0.0000

> <Gold.Chemscore.Lipo.Weighted>
-8.2667

> <Gold.Chemscore.Internal_Hbond.Weighted>
0.0000

> <Gold.Chemscore.DEClash.Weighted>
0.0000

> <Gold.Chemscore.DEInternal.Weighted>
0.4680

> <Gold.Chemscore.Rot.Weighted>
5.9787

> <Gold.Chemscore.Internal.Correction.Weighted>
   9.000000E+99

> <Gold.Protein.RotatedTorsions>
[ 6907 6896 6895 6894 ] final  -98.47 input  -60.11 | X-H torsion
[ 7974 7965 7964 7962 ] final   16.61 input  175.53 | X-H torsion
[ 8008 7997 7996 7995 ] final   96.20 input   59.86 | X-H torsion
[ 10167 10162 10161 10158 ] final    4.86 input  -65.29 | X-H torsion
[ 10718 10713 10712 10709 ] final -151.10 input   66.30 | X-H torsion
[ 10763 10752 10751 10750 ] final  -19.10 input  -60.55 | X-H torsion
[ 11005 11000 10999 10996 ] final   79.54 input  -57.11 | X-H torsion

> <Gold.Protein.ActiveResidues>
 VAL166  LYS551  ARG553  GLY616  TRP617  ASP618  TYR619  PRO620  LYS621  CYS622 
 ASP623  PHE694  ASN695  SER759  ASP760  ASP761  ALA762  ILE779  LEU786  VAL792 
 PHE793  MET794  SER795  GLU796  ALA797  LYS798  CYS799  TRP800  GLU811  SER814 

> <Gold.Protein.RotatedAtoms>
  150.7048  134.1190  159.4027 H   0  0  0  0  0  0  0  0  0  0  0  0  # atno 6907 bound_to 6896
  151.9176  135.0310  160.0529 H   0  0  0  0  0  0  0  0  0  0  0  0  # atno 6908 bound_to 6896
  152.2283  133.5002  159.5238 H   0  0  0  0  0  0  0  0  0  0  0  0  # atno 6909 bound_to 6896
  146.2244  139.8723  142.8585 H   0  0  0  0  0  0  0  0  0  0  0  0  # atno 7974 bound_to 7965
  156.0771  140.3276  155.7647 H   0  0  0  0  0  0  0  0  0  0  0  0  # atno 8008 bound_to 7997
  155.5213  140.0585  157.2923 H   0  0  0  0  0  0  0  0  0  0  0  0  # atno 8009 bound_to 7997
  154.4561  140.1943  156.0392 H   0  0  0  0  0  0  0  0  0  0  0  0  # atno 8010 bound_to 7997
  140.6513  143.7538  150.7579 H   0  0  0  0  0  0  0  0  0  0  0  0  # atno 10167 bound_to 10162
  156.4547  130.8185  151.2416 H   0  0  0  0  0  0  0  0  0  0  0  0  # atno 10718 bound_to 10713
  153.5996  135.7000  153.5390 H   0  0  0  0  0  0  0  0  0  0  0  0  # atno 10763 bound_to 10752
  153.3108  135.4102  155.1334 H   0  0  0  0  0  0  0  0  0  0  0  0  # atno 10764 bound_to 10752
  154.8585  135.3671  154.5531 H   0  0  0  0  0  0  0  0  0  0  0  0  # atno 10765 bound_to 10752
  139.9168  134.7851  156.1793 H   0  0  0  0  0  0  0  0  0  0  0  0  # atno 11005 bound_to 11000
  145.2596  141.0072  143.3834 LP  0  0  0  0  0  0  0  0  0  0  0  0  # atno 17320 bound_to 7965
  144.9309  139.4300  143.6495 LP  0  0  0  0  0  0  0  0  0  0  0  0  # atno 17321 bound_to 7965
  140.1190  143.4630  152.2325 LP  0  0  0  0  0  0  0  0  0  0  0  0  # atno 17342 bound_to 10162
  139.5728  144.7472  151.3844 LP  0  0  0  0  0  0  0  0  0  0  0  0  # atno 17343 bound_to 10162
  157.7501  131.0126  150.3392 LP  0  0  0  0  0  0  0  0  0  0  0  0  # atno 17370 bound_to 10713
  156.3779  130.3875  149.7125 LP  0  0  0  0  0  0  0  0  0  0  0  0  # atno 17371 bound_to 10713
  141.0652  133.6822  156.2031 LP  0  0  0  0  0  0  0  0  0  0  0  0  # atno 17394 bound_to 11000
  140.6596  134.4981  157.5582 LP  0  0  0  0  0  0  0  0  0  0  0  0  # atno 17395 bound_to 11000

$$$$
