AV-unprocessed.smi:2966|AV-procd|sdf|11325|dock2
  -GOLD-   2272016233D 1   1.00000     0.00000
 Structure written by MMmdl.
 41 43  0  0  0  0  0  0  0  0  2 V2000
  150.8103  138.1225  154.1291 C   0  0  0  0  0  0  0  0  0  0  0  0
  151.7015  139.1697  154.4688 O   0  0  0  0  0  0  0  0  0  0  0  0
  152.2864  138.9926  155.7487 C   0  0  0  0  0  0  0  0  0  0  0  0
  151.3064  139.4463  156.8391 C   0  0  0  0  0  0  0  0  0  0  0  0
  151.0699  140.8969  156.8082 N   0  0  0  0  0  0  0  0  0  0  0  0
  150.3917  141.6573  155.9054 C   0  0  0  0  0  0  0  0  0  0  0  0
  149.5846  141.0798  154.4492 S   0  0  0  0  0  0  0  0  0  0  0  0
  147.8833  141.6901  154.6095 C   0  0  0  0  0  0  0  0  0  0  0  0
  147.3178  141.4773  156.0128 C   0  0  0  0  0  0  0  0  0  0  0  0
  146.6862  140.4529  156.2707 O   0  0  0  0  0  0  0  0  0  0  0  0
  147.5751  142.4398  156.9105 N   0  0  0  0  0  0  0  0  0  0  0  0
  147.1866  142.4186  158.2829 C   0  0  0  0  0  0  0  0  0  0  0  0
  145.7634  142.0169  158.6037 C   0  0  0  0  0  0  0  0  0  0  0  0
  146.1837  143.4541  158.7437 C   0  0  0  0  0  0  0  0  0  0  0  0
  150.4715  142.9545  156.3083 N   0  3  0  0  0  0  0  0  0  0  0  0
  151.2022  143.0266  157.4954 C   0  0  0  0  0  0  0  0  0  0  0  0
  151.5458  144.1180  158.2873 C   0  0  0  0  0  0  0  0  0  0  0  0
  152.3038  143.8461  159.4451 C   0  0  0  0  0  0  0  0  0  0  0  0
  152.6904  142.5316  159.7781 C   0  0  0  0  0  0  0  0  0  0  0  0
  152.3377  141.4329  158.9671 C   0  0  0  0  0  0  0  0  0  0  0  0
  151.5890  141.7093  157.8233 C   0  0  0  0  0  0  0  0  0  0  0  0
  150.3929  138.3037  153.1387 H   0  0  0  0  0  0  0  0  0  0  0  0
  149.9835  138.0628  154.8379 H   0  0  0  0  0  0  0  0  0  0  0  0
  151.3231  137.1600  154.1067 H   0  0  0  0  0  0  0  0  0  0  0  0
  152.5450  137.9435  155.8996 H   0  0  0  0  0  0  0  0  0  0  0  0
  153.2101  139.5696  155.8190 H   0  0  0  0  0  0  0  0  0  0  0  0
  150.3538  138.9234  156.7547 H   0  0  0  0  0  0  0  0  0  0  0  0
  151.7040  139.1966  157.8226 H   0  0  0  0  0  0  0  0  0  0  0  0
  147.8589  142.7517  154.3618 H   0  0  0  0  0  0  0  0  0  0  0  0
  147.2553  141.1770  153.8803 H   0  0  0  0  0  0  0  0  0  0  0  0
  148.1035  143.2431  156.6017 H   0  0  0  0  0  0  0  0  0  0  0  0
  147.9402  142.1244  159.0123 H   0  0  0  0  0  0  0  0  0  0  0  0
  145.1054  141.7654  157.7740 H   0  0  0  0  0  0  0  0  0  0  0  0
  145.5955  141.4517  159.5183 H   0  0  0  0  0  0  0  0  0  0  0  0
  146.2986  143.8490  159.7510 H   0  0  0  0  0  0  0  0  0  0  0  0
  145.8038  144.1605  158.0078 H   0  0  0  0  0  0  0  0  0  0  0  0
  151.2499  145.1259  158.0354 H   0  0  0  0  0  0  0  0  0  0  0  0
  152.5934  144.6619  160.0917 H   0  0  0  0  0  0  0  0  0  0  0  0
  153.2689  142.3615  160.6746 H   0  0  0  0  0  0  0  0  0  0  0  0
  152.6350  140.4299  159.2349 H   0  0  0  0  0  0  0  0  0  0  0  0
  150.0560  143.7294  155.8080 H   0  0  0  0  0  0  0  0  0  0  0  0
  1  2  1  0  0  0  0
  1 22  1  0  0  0  0
  1 23  1  0  0  0  0
  1 24  1  0  0  0  0
  2  3  1  0  0  0  0
  3  4  1  0  0  0  0
  3 25  1  0  0  0  0
  3 26  1  0  0  0  0
  4  5  1  0  0  0  0
  4 27  1  0  0  0  0
  4 28  1  0  0  0  0
  5 21  1  0  0  0  0
  5  6  1  0  0  0  0
  6  7  1  0  0  0  0
  6 15  2  0  0  0  0
  7  8  1  0  0  0  0
  8  9  1  0  0  0  0
  8 29  1  0  0  0  0
  8 30  1  0  0  0  0
  9 10  2  0  0  0  0
  9 11  1  0  0  0  0
 11 12  1  0  0  0  0
 11 31  1  0  0  0  0
 12 14  1  0  0  0  0
 12 13  1  0  0  0  0
 12 32  1  0  0  0  0
 13 14  1  0  0  0  0
 13 33  1  0  0  0  0
 13 34  1  0  0  0  0
 14 35  1  0  0  0  0
 14 36  1  0  0  0  0
 15 16  1  0  0  0  0
 15 41  1  0  0  0  0
 16 21  2  0  0  0  0
 16 17  1  0  0  0  0
 17 18  2  0  0  0  0
 17 37  1  0  0  0  0
 18 19  1  0  0  0  0
 18 38  1  0  0  0  0
 19 20  2  0  0  0  0
 19 39  1  0  0  0  0
 20 21  1  0  0  0  0
 20 40  1  0  0  0  0
M  CHG  1  15   1
M  END
> <s_m_source_file>
AV-unprocessed.smi

> <i_m_source_file_index>
2966

> <i_lp_mmshare_version>
43012

> <i_f3d_flags>
0

> <s_epik_input>
W2NIXTFbY0hdW2NIXVtjSF1jKGMxMiluKFtDSDJdW0NIMl1PW0NIM10pYyhuMilTW0NIMl1DKD1PKVtOSF1bQ0hdM1tDSDJdW0NIMl0z

> <s_epik_cmdline>
J2VwaWtfcHl0aG9uJywgJy1waCcsICc3LjAnLCAnLXRuJywgJzgnLCAnLW1hJywgJzIwMCcsICctbWV0YWxfYmluZGluZycsICctaW1hZScsICc8aW5maWxlLm1hZT4nLCAnLW9tYWUnLCAnPG91dGZpbGUubWFlPic=

> <r_epik_Ionization_Penalty>
1.66257

> <r_epik_Ionization_Penalty_Charging>
1.66257

> <r_epik_Ionization_Penalty_Neutral>
8.69326e-08

> <r_epik_State_Penalty>
1.76557

> <r_epik_Charging_Adjusted_Penalty>
3.42813

> <i_epik_Tot_Q>
1

> <i_epik_Tot_abs_Q>
1

> <r_epik_Metal_State_Penalty>
1.80073

> <b_epik_Metal_Only>
0

> <s_lp_Force_Field>
OPLS_2005

> <r_lp_Energy>
20.3811

> <b_lp_Chiralities_Consistent>
1

> <s_lp_Variant>
AV-unprocessed.smi:2966-2

> <Gold.Version>
5.8.1

> <Gold.Id.Protein>
6NUR|6NUR_protein|mol2

> <Gold.PLP.Fitness>
52.5748

> <Gold.PLP.PLP>
-42.1167

> <Gold.PLP.part.hbond>
-2.7461

> <Gold.PLP.part.metal>
0.0000

> <Gold.PLP.part.buried>
-3.2219

> <Gold.PLP.part.nonpolar>
-36.9016

> <Gold.PLP.part.repulsive>
0.2351

> <Gold.PLP.ligand.clash>
0.0000

> <Gold.PLP.ligand.torsion>
0.7620

> <Gold.PLP.Chemscore.Hbond>
3.9340

> <Gold.PLP.Chemscore.CHOScore>
0.0000

> <Gold.PLP.Chemscore.Metal>
0.0000

> <Gold.Chemscore.Hbonds>
donor molecule, donor type, donor heavy atom, donor atom, acceptor molecule, acceptor atom, score
      L1  H    11    31       P1  8028  0.95
      L1  H    15    41       P1  8028  1.98
      P1  H  7989  7998       L1     2  1.00

> <Gold.PLP.Chemscore.Internal.Correction>
0.1801

> <Gold.Rescore>
     Score         DG    S(hbond)    S(metal)    S(lipo)     H(rot)  DE(clash)    DE(int)     intcor
     15.81     -18.26       1.98        0.00     101.31       2.21       0.47       1.98       ----

> <Gold.Chemscore.Fitness>
15.8101

> <Gold.Chemscore.DG>
-18.2602

> <Gold.Chemscore.ZeroCoef>
-5.4800

> <Gold.Chemscore.Hbond>
1.9753

> <Gold.Chemscore.Metal>
0.0000

> <Gold.Chemscore.Lipo>
101.3060

> <Gold.Chemscore.Internal_Hbond>
0.0000

> <Gold.Chemscore.DEClash>
0.4685

> <Gold.Chemscore.DEInternal>
1.9816

> <Gold.Chemscore.Rot>
2.2149

> <Gold.Chemscore.Internal.Correction>
   9.000000E+99

> <Gold.Chemscore.Hbonds>
donor molecule, donor type, donor heavy atom, donor atom, acceptor molecule, acceptor atom, score
      L1  H    11    31       P1  8028  0.22
      L1  H    15    41       P1  8028  0.88
      P1  H  7989  7998       L1     2  0.93

> <Gold.Chemscore.Hbond.Weighted>
-6.5974

> <Gold.Chemscore.Metal.Weighted>
-0.0000

> <Gold.Chemscore.Lipo.Weighted>
-11.8528

> <Gold.Chemscore.Internal_Hbond.Weighted>
0.0000

> <Gold.Chemscore.DEClash.Weighted>
0.4685

> <Gold.Chemscore.DEInternal.Weighted>
1.9816

> <Gold.Chemscore.Rot.Weighted>
5.6700

> <Gold.Chemscore.Internal.Correction.Weighted>
   9.000000E+99

> <Gold.Protein.RotatedTorsions>
[ 6907 6896 6895 6894 ] final  -77.77 input  -60.11 | X-H torsion
[ 7974 7965 7964 7962 ] final  119.26 input  175.53 | X-H torsion
[ 8008 7997 7996 7995 ] final   41.27 input   59.86 | X-H torsion
[ 10167 10162 10161 10158 ] final  125.60 input  -65.29 | X-H torsion
[ 10718 10713 10712 10709 ] final   68.44 input   66.30 | X-H torsion
[ 10763 10752 10751 10750 ] final  -69.88 input  -60.55 | X-H torsion
[ 11005 11000 10999 10996 ] final  143.05 input  -57.11 | X-H torsion

> <Gold.Protein.ActiveResidues>
 VAL166  LYS551  ARG553  GLY616  TRP617  ASP618  TYR619  PRO620  LYS621  CYS622 
 ASP623  PHE694  ASN695  SER759  ASP760  ASP761  ALA762  ILE779  LEU786  VAL792 
 PHE793  MET794  SER795  GLU796  ALA797  LYS798  CYS799  TRP800  GLU811  SER814 

> <Gold.Protein.RotatedAtoms>
  150.6990  134.4373  159.5275 H   0  0  0  0  0  0  0  0  0  0  0  0  # atno 6907 bound_to 6896
  152.2089  134.8517  160.0509 H   0  0  0  0  0  0  0  0  0  0  0  0  # atno 6908 bound_to 6896
  151.9410  133.3603  159.4002 H   0  0  0  0  0  0  0  0  0  0  0  0  # atno 6909 bound_to 6896
  145.1453  139.3243  143.4595 H   0  0  0  0  0  0  0  0  0  0  0  0  # atno 7974 bound_to 7965
  155.2669  140.3363  155.4268 H   0  0  0  0  0  0  0  0  0  0  0  0  # atno 8008 bound_to 7997
  156.2150  140.1785  156.7652 H   0  0  0  0  0  0  0  0  0  0  0  0  # atno 8009 bound_to 7997
  154.5740  140.0665  156.8991 H   0  0  0  0  0  0  0  0  0  0  0  0  # atno 8010 bound_to 7997
  139.5677  144.6921  151.3865 H   0  0  0  0  0  0  0  0  0  0  0  0  # atno 10167 bound_to 10162
  157.6289  130.9373  150.0377 H   0  0  0  0  0  0  0  0  0  0  0  0  # atno 10718 bound_to 10713
  154.4098  135.6011  153.5946 H   0  0  0  0  0  0  0  0  0  0  0  0  # atno 10763 bound_to 10752
  152.9790  135.5926  154.4084 H   0  0  0  0  0  0  0  0  0  0  0  0  # atno 10764 bound_to 10752
  154.3894  135.2842  155.2142 H   0  0  0  0  0  0  0  0  0  0  0  0  # atno 10765 bound_to 10752
  140.0524  134.9249  157.1040 H   0  0  0  0  0  0  0  0  0  0  0  0  # atno 11005 bound_to 11000
  146.3501  140.1506  142.8592 LP  0  0  0  0  0  0  0  0  0  0  0  0  # atno 17320 bound_to 7965
  145.0488  140.9002  143.5008 LP  0  0  0  0  0  0  0  0  0  0  0  0  # atno 17321 bound_to 7965
  140.6961  143.7746  150.7328 LP  0  0  0  0  0  0  0  0  0  0  0  0  # atno 17342 bound_to 10162
  140.1243  143.4584  152.2294 LP  0  0  0  0  0  0  0  0  0  0  0  0  # atno 17343 bound_to 10162
  156.1479  130.3642  149.9482 LP  0  0  0  0  0  0  0  0  0  0  0  0  # atno 17370 bound_to 10713
  156.7509  130.9115  151.3637 LP  0  0  0  0  0  0  0  0  0  0  0  0  # atno 17371 bound_to 10713
  140.3897  134.2198  155.7167 LP  0  0  0  0  0  0  0  0  0  0  0  0  # atno 17394 bound_to 11000
  141.1936  133.8146  157.0791 LP  0  0  0  0  0  0  0  0  0  0  0  0  # atno 17395 bound_to 11000

$$$$
