AV-unprocessed.smi:107|AV-procd|sdf|1013|dock9
  -GOLD-   2262018 13D 1   1.00000     0.00000
 Structure written by MMmdl.
 31 32  0  0  0  0  0  0  0  0  1 V2000
  150.3874  144.3772  159.8268 C   0  0  0  0  0  0  0  0  0  0  0  0
  151.0304  143.1566  159.1896 C   0  0  0  0  0  0  0  0  0  0  0  0
  150.7210  142.7433  157.9341 C   0  0  0  0  0  0  0  0  0  0  0  0
  151.2907  141.6344  157.3243 N   0  0  0  0  0  0  0  0  0  0  0  0
  150.8983  141.2272  155.9219 C   0  0  2  0  0  0  0  0  0  0  0  0
  149.8115  142.1537  155.3669 C   0  0  0  0  0  0  0  0  0  0  0  0
  148.9118  141.1847  154.6256 C   0  0  1  0  0  0  0  0  0  0  0  0
  149.3654  140.9997  153.2975 O   0  0  0  0  0  0  0  0  0  0  0  0
  149.0444  139.9103  155.4718 C   0  0  1  0  0  0  0  0  0  0  0  0
  148.7238  138.5757  154.7767 C   0  0  0  0  0  0  0  0  0  0  0  0
  149.4037  138.4899  153.5423 O   0  0  0  0  0  0  0  0  0  0  0  0
  150.3864  139.9262  155.9531 O   0  0  0  0  0  0  0  0  0  0  0  0
  152.2652  140.8886  158.0200 C   0  0  0  0  0  0  0  0  0  0  0  0
  152.8359  139.9115  157.5370 O   0  0  0  0  0  0  0  0  0  0  0  0
  152.5807  141.3098  159.3108 N   0  0  0  0  0  0  0  0  0  0  0  0
  152.0226  142.4096  159.9672 C   0  0  0  0  0  0  0  0  0  0  0  0
  152.3822  142.6808  161.1117 O   0  0  0  0  0  0  0  0  0  0  0  0
  153.2753  140.7766  159.8137 H   0  0  0  0  0  0  0  0  0  0  0  0
  149.6669  144.8499  159.1587 H   0  0  0  0  0  0  0  0  0  0  0  0
  151.1459  145.1190  160.0793 H   0  0  0  0  0  0  0  0  0  0  0  0
  149.8624  144.0983  160.7412 H   0  0  0  0  0  0  0  0  0  0  0  0
  149.9929  143.3156  157.3797 H   0  0  0  0  0  0  0  0  0  0  0  0
  151.8000  141.2056  155.3083 H   0  0  0  0  0  0  0  0  0  0  0  0
  149.2628  142.6123  156.1910 H   0  0  0  0  0  0  0  0  0  0  0  0
  150.2373  142.9433  154.7466 H   0  0  0  0  0  0  0  0  0  0  0  0
  147.8809  141.5378  154.5887 H   0  0  0  0  0  0  0  0  0  0  0  0
  149.0846  140.1468  153.0017 H   0  0  0  0  0  0  0  0  0  0  0  0
  148.3981  140.0141  156.3446 H   0  0  0  0  0  0  0  0  0  0  0  0
  148.9858  137.7228  155.4031 H   0  0  0  0  0  0  0  0  0  0  0  0
  147.6533  138.5078  154.5818 H   0  0  0  0  0  0  0  0  0  0  0  0
  149.2217  137.6460  153.1574 H   0  0  0  0  0  0  0  0  0  0  0  0
  1  2  1  0  0  0  0
  1 19  1  0  0  0  0
  1 20  1  0  0  0  0
  1 21  1  0  0  0  0
  2 16  1  0  0  0  0
  2  3  2  0  0  0  0
  3  4  1  0  0  0  0
  3 22  1  0  0  0  0
  4  5  1  0  0  0  0
  4 13  1  0  0  0  0
  5 12  1  0  0  0  0
  5  6  1  0  0  0  0
  5 23  1  0  0  0  0
  6  7  1  0  0  0  0
  6 24  1  0  0  0  0
  6 25  1  0  0  0  0
  7  8  1  0  0  0  0
  7  9  1  0  0  0  0
  7 26  1  0  0  0  0
  8 27  1  0  0  0  0
  9 10  1  0  0  0  0
  9 12  1  0  0  0  0
  9 28  1  0  0  0  0
 10 11  1  0  0  0  0
 10 29  1  0  0  0  0
 10 30  1  0  0  0  0
 11 31  1  0  0  0  0
 13 14  2  0  0  0  0
 13 15  1  0  0  0  0
 15 18  1  0  0  0  0
 15 16  1  0  0  0  0
 16 17  2  0  0  0  0
M  END
> <s_m_source_file>
AV-unprocessed.smi

> <i_m_source_file_index>
107

> <i_lp_mmshare_version>
43012

> <i_f3d_flags>
0

> <s_epik_input>
Tz1jMVtuSF1jKD1PKW4oW2NIXWMxW0NIM10pW0NAQEhdMltDSDJdW0NAQEhdKFtPSF0pW0NASF0oTzIpW0NIMl1bT0hd

> <s_epik_cmdline>
J2VwaWtfcHl0aG9uJywgJy1waCcsICc3LjAnLCAnLXRuJywgJzgnLCAnLW1hJywgJzIwMCcsICctbWV0YWxfYmluZGluZycsICctaW1hZScsICc8aW5maWxlLm1hZT4nLCAnLW9tYWUnLCAnPG91dGZpbGUubWFlPic=

> <r_lp_tautomer_probability>
0.999537

> <r_epik_Ionization_Penalty>
0.00121888

> <r_epik_Ionization_Penalty_Charging>
0.00121876

> <r_epik_Ionization_Penalty_Neutral>
1.19946e-07

> <r_epik_State_Penalty>
0.000805124

> <r_epik_Charging_Adjusted_Penalty>
0.00202389

> <i_epik_Tot_Q>
0

> <i_epik_Tot_abs_Q>
0

> <r_epik_Metal_State_Penalty>
0.662472

> <b_epik_Metal_Only>
0

> <s_epik_Chemistry_Notes>
This compound contains an acetal/aminal-like group ( X-CH(R)-Y where X, Y are N, S, or O) that may be acid/base labile, releasing an aldehyde.

> <s_lp_Force_Field>
OPLS_2005

> <r_lp_Energy>
27.6975

> <b_lp_Chiralities_Consistent>
1

> <s_lp_Variant>
AV-unprocessed.smi:107-1

> <Gold.Version>
5.8.1

> <Gold.Id.Protein>
6NUR|6NUR_protein|mol2

> <Gold.PLP.Fitness>
40.8735

> <Gold.PLP.PLP>
-28.5263

> <Gold.PLP.part.hbond>
-5.3242

> <Gold.PLP.part.metal>
0.0000

> <Gold.PLP.part.buried>
-3.5563

> <Gold.PLP.part.nonpolar>
-19.6049

> <Gold.PLP.part.repulsive>
0.1696

> <Gold.PLP.ligand.clash>
0.0000

> <Gold.PLP.ligand.torsion>
0.0645

> <Gold.PLP.Chemscore.Hbond>
3.1580

> <Gold.PLP.Chemscore.CHOScore>
1.0000

> <Gold.PLP.Chemscore.Metal>
0.0000

> <Gold.Chemscore.Hbonds>
donor molecule, donor type, donor heavy atom, donor atom, acceptor molecule, acceptor atom, score
      L1  H     8    27       P1  7957  0.11
      L1  H    11    31       P1  7948  1.00
      P1  H  7989  7998       L1     8  0.09
      P1  H  7997  8010       L1    14  1.00
      P1  H  8011  8017       L1     8  1.00
      L1  C     3    22       P1  8028  1.00

> <Gold.PLP.Chemscore.Internal.Correction>
0.0021

> <Gold.Rescore>
     Score         DG    S(hbond)    S(metal)    S(lipo)     H(rot)  DE(clash)    DE(int)     intcor
     12.02     -14.65       3.19        0.00      46.99       2.73       1.49       1.13       ----

> <Gold.Chemscore.Fitness>
12.0217

> <Gold.Chemscore.DG>
-14.6453

> <Gold.Chemscore.ZeroCoef>
-5.4800

> <Gold.Chemscore.Hbond>
3.1871

> <Gold.Chemscore.Metal>
0.0000

> <Gold.Chemscore.Lipo>
46.9860

> <Gold.Chemscore.Internal_Hbond>
0.0000

> <Gold.Chemscore.DEClash>
1.4913

> <Gold.Chemscore.DEInternal>
1.1323

> <Gold.Chemscore.Rot>
2.7253

> <Gold.Chemscore.Internal.Correction>
   9.000000E+99

> <Gold.Chemscore.Hbonds>
donor molecule, donor type, donor heavy atom, donor atom, acceptor molecule, acceptor atom, score
      L1  H     8    27       P1  7957  0.13
      L1  H    11    31       P1  7948  0.98
      P1  H  7989  7998       L1     8  0.03
      P1  H  7997  8010       L1    14  0.98
      P1  H  8011  8017       L1     8  0.97

> <Gold.Chemscore.Hbond.Weighted>
-10.6448

> <Gold.Chemscore.Metal.Weighted>
-0.0000

> <Gold.Chemscore.Lipo.Weighted>
-5.4974

> <Gold.Chemscore.Internal_Hbond.Weighted>
0.0000

> <Gold.Chemscore.DEClash.Weighted>
1.4913

> <Gold.Chemscore.DEInternal.Weighted>
1.1323

> <Gold.Chemscore.Rot.Weighted>
6.9769

> <Gold.Chemscore.Internal.Correction.Weighted>
   9.000000E+99

> <Gold.Protein.RotatedTorsions>
[ 6907 6896 6895 6894 ] final  -29.16 input  -60.11 | X-H torsion
[ 7974 7965 7964 7962 ] final  -77.13 input  175.53 | X-H torsion
[ 8008 7997 7996 7995 ] final   54.61 input   59.86 | X-H torsion
[ 10167 10162 10161 10158 ] final  -14.55 input  -65.29 | X-H torsion
[ 10718 10713 10712 10709 ] final   98.56 input   66.30 | X-H torsion
[ 10763 10752 10751 10750 ] final  112.43 input  -60.55 | X-H torsion
[ 11005 11000 10999 10996 ] final -109.04 input  -57.11 | X-H torsion

> <Gold.Protein.ActiveResidues>
 VAL166  LYS551  ARG553  GLY616  TRP617  ASP618  TYR619  PRO620  LYS621  CYS622 
 ASP623  PHE694  ASN695  SER759  ASP760  ASP761  ALA762  ILE779  LEU786  VAL792 
 PHE793  MET794  SER795  GLU796  ALA797  LYS798  CYS799  TRP800  GLU811  SER814 

> <Gold.Protein.RotatedAtoms>
  151.1230  135.0089  159.8546 H   0  0  0  0  0  0  0  0  0  0  0  0  # atno 6907 bound_to 6896
  152.5448  134.1701  159.8603 H   0  0  0  0  0  0  0  0  0  0  0  0  # atno 6908 bound_to 6896
  151.1760  133.4709  159.2627 H   0  0  0  0  0  0  0  0  0  0  0  0  # atno 6909 bound_to 6896
  145.6037  140.9403  143.1227 H   0  0  0  0  0  0  0  0  0  0  0  0  # atno 7974 bound_to 7965
  155.4876  140.3470  155.4350 H   0  0  0  0  0  0  0  0  0  0  0  0  # atno 8008 bound_to 7997
  156.0998  140.1432  156.9511 H   0  0  0  0  0  0  0  0  0  0  0  0  # atno 8009 bound_to 7997
  154.4686  140.0908  156.7064 H   0  0  0  0  0  0  0  0  0  0  0  0  # atno 8010 bound_to 7997
  140.7203  143.5310  150.9520 H   0  0  0  0  0  0  0  0  0  0  0  0  # atno 10167 bound_to 10162
  157.6893  131.0644  150.4815 H   0  0  0  0  0  0  0  0  0  0  0  0  # atno 10718 bound_to 10713
  153.4778  135.3686  155.2425 H   0  0  0  0  0  0  0  0  0  0  0  0  # atno 10763 bound_to 10752
  154.8756  135.3947  154.3736 H   0  0  0  0  0  0  0  0  0  0  0  0  # atno 10764 bound_to 10752
  153.4335  135.7083  153.6280 H   0  0  0  0  0  0  0  0  0  0  0  0  # atno 10765 bound_to 10752
  141.0869  133.9123  157.2165 H   0  0  0  0  0  0  0  0  0  0  0  0  # atno 11005 bound_to 11000
  144.7299  139.7759  143.7351 LP  0  0  0  0  0  0  0  0  0  0  0  0  # atno 17320 bound_to 7965
  146.1557  139.4654  143.0020 LP  0  0  0  0  0  0  0  0  0  0  0  0  # atno 17321 bound_to 7965
  139.9030  143.6812  152.3128 LP  0  0  0  0  0  0  0  0  0  0  0  0  # atno 17342 bound_to 10162
  139.7169  144.7610  151.1020 LP  0  0  0  0  0  0  0  0  0  0  0  0  # atno 17343 bound_to 10162
  156.5147  130.4147  149.6282 LP  0  0  0  0  0  0  0  0  0  0  0  0  # atno 17370 bound_to 10713
  156.3209  130.7280  151.2191 LP  0  0  0  0  0  0  0  0  0  0  0  0  # atno 17371 bound_to 10713
  139.9689  135.0134  156.9459 LP  0  0  0  0  0  0  0  0  0  0  0  0  # atno 17394 bound_to 11000
  140.5342  134.0783  155.7324 LP  0  0  0  0  0  0  0  0  0  0  0  0  # atno 17395 bound_to 11000

$$$$
