AV-unprocessed.smi:99|AV-procd|sdf|876|dock10
  -GOLD-   2262017343D 1   1.00000     0.00000
 Structure written by MMmdl.
 53 56  0  0  0  0  0  0  0  0  1 V2000
  152.0763  139.8008  159.2890 O   0  0  0  0  0  0  0  0  0  0  0  0
  151.7637  140.7484  158.5649 C   0  0  0  0  0  0  0  0  0  0  0  0
  151.2558  140.6025  157.3253 O   0  0  0  0  0  0  0  0  0  0  0  0
  151.0374  139.3042  156.7987 C   0  0  0  0  0  0  0  0  0  0  0  0
  149.7050  138.7537  157.3310 C   0  0  1  0  0  0  0  0  0  0  0  0
  148.6776  139.0163  156.3828 O   0  0  0  0  0  0  0  0  0  0  0  0
  148.5794  137.9609  155.4789 C   0  0  2  0  0  0  0  0  0  0  0  0
  147.1056  137.7643  155.1822 N   0  0  0  0  0  0  0  0  0  0  0  0
  146.4007  136.6927  155.7188 C   0  0  0  0  0  0  0  0  0  0  0  0
  145.0678  136.5202  155.5562 C   0  0  0  0  0  0  0  0  0  0  0  0
  144.2822  137.4959  154.8099 C   0  0  0  0  0  0  0  0  0  0  0  0
  143.0742  137.4204  154.5956 O   0  0  0  0  0  0  0  0  0  0  0  0
  145.0160  138.5859  154.3346 N   0  0  0  0  0  0  0  0  0  0  0  0
  146.3874  138.7806  154.5090 C   0  0  0  0  0  0  0  0  0  0  0  0
  146.9140  139.8047  154.0750 O   0  0  0  0  0  0  0  0  0  0  0  0
  149.2534  136.7212  156.1010 C   0  0  1  0  0  0  0  0  0  0  0  0
  150.3759  136.2899  155.3572 O   0  0  0  0  0  0  0  0  0  0  0  0
  149.7176  137.2274  157.4660 C   0  0  2  0  0  0  0  0  0  0  0  0
  148.8109  136.8490  158.4944 O   0  0  0  0  0  0  0  0  0  0  0  0
  148.7004  135.5618  158.8865 C   0  0  0  0  0  0  0  0  0  0  0  0
  149.0803  134.6055  158.2084 O   0  0  0  0  0  0  0  0  0  0  0  0
  148.0591  135.4207  160.2249 C   0  0  0  0  0  0  0  0  0  0  0  0
  147.7299  134.1312  160.7039 C   0  0  0  0  0  0  0  0  0  0  0  0
  147.1204  133.9682  161.9632 C   0  0  0  0  0  0  0  0  0  0  0  0
  146.8316  135.0926  162.7583 C   0  0  0  0  0  0  0  0  0  0  0  0
  147.1527  136.3808  162.2924 C   0  0  0  0  0  0  0  0  0  0  0  0
  147.7626  136.5461  161.0336 C   0  0  0  0  0  0  0  0  0  0  0  0
  151.9082  142.1763  158.9704 C   0  0  0  0  0  0  0  0  0  0  0  0
  151.4918  143.1943  158.0809 C   0  0  0  0  0  0  0  0  0  0  0  0
  151.6158  144.5518  158.4354 C   0  0  0  0  0  0  0  0  0  0  0  0
  152.1582  144.9080  159.6838 C   0  0  0  0  0  0  0  0  0  0  0  0
  152.5755  143.9049  160.5779 C   0  0  0  0  0  0  0  0  0  0  0  0
  152.4521  142.5467  160.2252 C   0  0  0  0  0  0  0  0  0  0  0  0
  144.5083  139.3005  153.8334 H   0  0  0  0  0  0  0  0  0  0  0  0
  151.0421  139.3281  155.7082 H   0  0  0  0  0  0  0  0  0  0  0  0
  151.8562  138.6568  157.1153 H   0  0  0  0  0  0  0  0  0  0  0  0
  149.4746  139.2295  158.2854 H   0  0  0  0  0  0  0  0  0  0  0  0
  149.0691  138.2420  154.5453 H   0  0  0  0  0  0  0  0  0  0  0  0
  146.9190  135.9525  156.3065 H   0  0  0  0  0  0  0  0  0  0  0  0
  144.5785  135.6594  155.9890 H   0  0  0  0  0  0  0  0  0  0  0  0
  148.5696  135.8754  156.1708 H   0  0  0  0  0  0  0  0  0  0  0  0
  150.8539  137.0500  155.0627 H   0  0  0  0  0  0  0  0  0  0  0  0
  150.7180  136.8734  157.7218 H   0  0  0  0  0  0  0  0  0  0  0  0
  147.9421  133.2529  160.1112 H   0  0  0  0  0  0  0  0  0  0  0  0
  146.8745  132.9786  162.3192 H   0  0  0  0  0  0  0  0  0  0  0  0
  146.3645  134.9673  163.7241 H   0  0  0  0  0  0  0  0  0  0  0  0
  146.9305  137.2449  162.9013 H   0  0  0  0  0  0  0  0  0  0  0  0
  147.9937  137.5494  160.7061 H   0  0  0  0  0  0  0  0  0  0  0  0
  151.0729  142.9452  157.1166 H   0  0  0  0  0  0  0  0  0  0  0  0
  151.2946  145.3204  157.7479 H   0  0  0  0  0  0  0  0  0  0  0  0
  152.2542  145.9492  159.9547 H   0  0  0  0  0  0  0  0  0  0  0  0
  152.9919  144.1771  161.5367 H   0  0  0  0  0  0  0  0  0  0  0  0
  152.7824  141.8021  160.9347 H   0  0  0  0  0  0  0  0  0  0  0  0
  1  2  2  0  0  0  0
  2  3  1  0  0  0  0
  2 28  1  0  0  0  0
  3  4  1  0  0  0  0
  4  5  1  0  0  0  0
  4 35  1  0  0  0  0
  4 36  1  0  0  0  0
  5 18  1  0  0  0  0
  5  6  1  0  0  0  0
  5 37  1  0  0  0  0
  6  7  1  0  0  0  0
  7  8  1  0  0  0  0
  7 16  1  0  0  0  0
  7 38  1  0  0  0  0
  8 14  1  0  0  0  0
  8  9  1  0  0  0  0
  9 10  2  0  0  0  0
  9 39  1  0  0  0  0
 10 11  1  0  0  0  0
 10 40  1  0  0  0  0
 11 12  2  0  0  0  0
 11 13  1  0  0  0  0
 13 34  1  0  0  0  0
 13 14  1  0  0  0  0
 14 15  2  0  0  0  0
 16 17  1  0  0  0  0
 16 18  1  0  0  0  0
 16 41  1  0  0  0  0
 17 42  1  0  0  0  0
 18 19  1  0  0  0  0
 18 43  1  0  0  0  0
 19 20  1  0  0  0  0
 20 21  2  0  0  0  0
 20 22  1  0  0  0  0
 22 27  1  0  0  0  0
 22 23  2  0  0  0  0
 23 24  1  0  0  0  0
 23 44  1  0  0  0  0
 24 25  2  0  0  0  0
 24 45  1  0  0  0  0
 25 26  1  0  0  0  0
 25 46  1  0  0  0  0
 26 27  2  0  0  0  0
 26 47  1  0  0  0  0
 27 48  1  0  0  0  0
 28 33  1  0  0  0  0
 28 29  2  0  0  0  0
 29 30  1  0  0  0  0
 29 49  1  0  0  0  0
 30 31  2  0  0  0  0
 30 50  1  0  0  0  0
 31 32  1  0  0  0  0
 31 51  1  0  0  0  0
 32 33  2  0  0  0  0
 32 52  1  0  0  0  0
 33 53  1  0  0  0  0
M  END
> <s_m_source_file>
AV-unprocessed.smi

> <i_m_source_file_index>
99

> <i_lp_mmshare_version>
43012

> <i_f3d_flags>
0

> <s_epik_input>
W2NIXTFbY0hdW2NIXVtjSF1bY0hdYzFDKD1PKU9bQ0gyXVtDQEBIXTJPW0NAQEhdKG4zW2NIXVtjSF1jKD1PKVtuSF1jMz1PKVtDQEBIXShbT0hdKVtDQEhdMk9DKD1PKWM0W2NIXVtjSF1bY0hdW2NIXVtjSF00

> <s_epik_cmdline>
J2VwaWtfcHl0aG9uJywgJy1waCcsICc3LjAnLCAnLXRuJywgJzgnLCAnLW1hJywgJzIwMCcsICctbWV0YWxfYmluZGluZycsICctaW1hZScsICc8aW5maWxlLm1hZT4nLCAnLW9tYWUnLCAnPG91dGZpbGUubWFlPic=

> <r_lp_tautomer_probability>
1

> <r_epik_Ionization_Penalty>
0.00454555

> <r_epik_Ionization_Penalty_Charging>
0.0045191

> <r_epik_Ionization_Penalty_Neutral>
2.64449e-05

> <r_epik_State_Penalty>
-0

> <r_epik_Charging_Adjusted_Penalty>
0.0045191

> <i_epik_Tot_Q>
0

> <i_epik_Tot_abs_Q>
0

> <r_epik_Metal_State_Penalty>
1.27877

> <b_epik_Metal_Only>
0

> <s_epik_Chemistry_Notes>
This compound has an ester and may undergo hydrolysis at high or low pH. This compound contains an acetal/aminal-like group ( X-CH(R)-Y where X, Y are N, S, or O) that may be acid/base labile, releasing an aldehyde.

> <s_lp_Force_Field>
OPLS_2005

> <r_lp_Energy>
32.4523

> <b_lp_Chiralities_Consistent>
1

> <s_lp_Variant>
AV-unprocessed.smi:99-12

> <Gold.Version>
5.8.1

> <Gold.Id.Protein>
6NUR|6NUR_protein|mol2

> <Gold.PLP.Fitness>
50.9575

> <Gold.PLP.PLP>
-46.7290

> <Gold.PLP.part.hbond>
-2.0000

> <Gold.PLP.part.metal>
0.0000

> <Gold.PLP.part.buried>
-7.1510

> <Gold.PLP.part.nonpolar>
-38.4191

> <Gold.PLP.part.repulsive>
0.2056

> <Gold.PLP.ligand.clash>
0.0000

> <Gold.PLP.ligand.torsion>
1.0599

> <Gold.PLP.Chemscore.Hbond>
2.0000

> <Gold.PLP.Chemscore.CHOScore>
0.0000

> <Gold.PLP.Chemscore.Metal>
0.0000

> <Gold.Chemscore.Hbonds>
donor molecule, donor type, donor heavy atom, donor atom, acceptor molecule, acceptor atom, score
      L1  H    13    34       P1 10175  1.00
      P1  H  6896  6907       L1    21  0.90

> <Gold.PLP.Chemscore.Internal.Correction>
0.3484

> <Gold.Rescore>
     Score         DG    S(hbond)    S(metal)    S(lipo)     H(rot)  DE(clash)    DE(int)     intcor
     17.30     -18.55       1.95        0.00     125.87       3.19       0.02       1.23       ----

> <Gold.Chemscore.Fitness>
17.3035

> <Gold.Chemscore.DG>
-18.5538

> <Gold.Chemscore.ZeroCoef>
-5.4800

> <Gold.Chemscore.Hbond>
1.9503

> <Gold.Chemscore.Metal>
0.0000

> <Gold.Chemscore.Lipo>
125.8707

> <Gold.Chemscore.Internal_Hbond>
0.0000

> <Gold.Chemscore.DEClash>
0.0202

> <Gold.Chemscore.DEInternal>
1.2300

> <Gold.Chemscore.Rot>
3.1903

> <Gold.Chemscore.Internal.Correction>
   9.000000E+99

> <Gold.Chemscore.Hbonds>
donor molecule, donor type, donor heavy atom, donor atom, acceptor molecule, acceptor atom, score
      L1  H    13    34       P1 10175  0.98
      P1  H  6896  6907       L1    21  0.17

> <Gold.Chemscore.Hbond.Weighted>
-6.5140

> <Gold.Chemscore.Metal.Weighted>
-0.0000

> <Gold.Chemscore.Lipo.Weighted>
-14.7269

> <Gold.Chemscore.Internal_Hbond.Weighted>
0.0000

> <Gold.Chemscore.DEClash.Weighted>
0.0202

> <Gold.Chemscore.DEInternal.Weighted>
1.2300

> <Gold.Chemscore.Rot.Weighted>
8.1671

> <Gold.Chemscore.Internal.Correction.Weighted>
   9.000000E+99

> <Gold.Protein.RotatedTorsions>
[ 6907 6896 6895 6894 ] final -102.97 input  -60.11 | X-H torsion
[ 7974 7965 7964 7962 ] final  122.13 input  175.53 | X-H torsion
[ 8008 7997 7996 7995 ] final   37.31 input   59.86 | X-H torsion
[ 10167 10162 10161 10158 ] final   60.20 input  -65.29 | X-H torsion
[ 10718 10713 10712 10709 ] final  -55.69 input   66.30 | X-H torsion
[ 10763 10752 10751 10750 ] final -116.79 input  -60.55 | X-H torsion
[ 11005 11000 10999 10996 ] final   77.91 input  -57.11 | X-H torsion

> <Gold.Protein.ActiveResidues>
 VAL166  LYS551  ARG553  GLY616  TRP617  ASP618  TYR619  PRO620  LYS621  CYS622 
 ASP623  PHE694  ASN695  SER759  ASP760  ASP761  ALA762  ILE779  LEU786  VAL792 
 PHE793  MET794  SER795  GLU796  ALA797  LYS798  CYS799  TRP800  GLU811  SER814 

> <Gold.Protein.RotatedAtoms>
  150.7219  134.0500  159.3794 H   0  0  0  0  0  0  0  0  0  0  0  0  # atno 6907 bound_to 6896
  151.8477  135.0566  160.0464 H   0  0  0  0  0  0  0  0  0  0  0  0  # atno 6908 bound_to 6896
  152.2814  133.5438  159.5537 H   0  0  0  0  0  0  0  0  0  0  0  0  # atno 6909 bound_to 6896
  145.1111  139.3452  143.4762 H   0  0  0  0  0  0  0  0  0  0  0  0  # atno 7974 bound_to 7965
  155.2016  140.3316  155.4342 H   0  0  0  0  0  0  0  0  0  0  0  0  # atno 8008 bound_to 7997
  156.2404  140.1892  156.7053 H   0  0  0  0  0  0  0  0  0  0  0  0  # atno 8009 bound_to 7997
  154.6137  140.0605  156.9513 H   0  0  0  0  0  0  0  0  0  0  0  0  # atno 8010 bound_to 7997
  140.1681  144.4304  150.6675 H   0  0  0  0  0  0  0  0  0  0  0  0  # atno 10167 bound_to 10162
  156.1348  130.4157  150.0205 H   0  0  0  0  0  0  0  0  0  0  0  0  # atno 10718 bound_to 10713
  154.8532  135.4333  154.1877 H   0  0  0  0  0  0  0  0  0  0  0  0  # atno 10763 bound_to 10752
  153.2952  135.6964  153.7261 H   0  0  0  0  0  0  0  0  0  0  0  0  # atno 10764 bound_to 10752
  153.6412  135.3467  155.3046 H   0  0  0  0  0  0  0  0  0  0  0  0  # atno 10765 bound_to 10752
  139.9234  134.7721  156.1582 H   0  0  0  0  0  0  0  0  0  0  0  0  # atno 11005 bound_to 11000
  146.3526  140.1030  142.8607 LP  0  0  0  0  0  0  0  0  0  0  0  0  # atno 17320 bound_to 7965
  145.0846  140.9244  143.4805 LP  0  0  0  0  0  0  0  0  0  0  0  0  # atno 17321 bound_to 7965
  140.6600  143.2249  151.5879 LP  0  0  0  0  0  0  0  0  0  0  0  0  # atno 17342 bound_to 10162
  139.5350  144.2806  152.1232 LP  0  0  0  0  0  0  0  0  0  0  0  0  # atno 17343 bound_to 10162
  156.8107  130.9324  151.3644 LP  0  0  0  0  0  0  0  0  0  0  0  0  # atno 17370 bound_to 10713
  157.6522  130.8894  149.9656 LP  0  0  0  0  0  0  0  0  0  0  0  0  # atno 17371 bound_to 10713
  141.0774  133.6769  156.2264 LP  0  0  0  0  0  0  0  0  0  0  0  0  # atno 17394 bound_to 11000
  140.6406  134.5170  157.5569 LP  0  0  0  0  0  0  0  0  0  0  0  0  # atno 17395 bound_to 11000

$$$$
