AV-unprocessed.smi:290|AV-procd|sdf|2235|dock7
  -GOLD-   2262022103D 1   1.00000     0.00000
 Structure written by MMmdl.
 59 62  0  0  0  0  0  0  0  0  2 V2000
  153.0685  140.9350  160.2069 C   0  0  0  0  0  0  0  0  0  0  0  0
  152.4603  141.2240  158.8267 C   0  0  2  0  0  0  0  0  0  0  0  0
  151.3529  142.1139  158.9394 O   0  0  0  0  0  0  0  0  0  0  0  0
  150.3725  141.8067  157.9520 C   0  0  0  0  0  0  0  0  0  0  0  0
  150.9977  140.7306  157.0691 C   0  0  0  0  0  0  0  0  0  0  0  0
  151.9357  140.0129  158.0319 C   0  0  1  0  0  0  0  0  0  0  0  0
  152.9843  139.4190  157.2906 O   0  0  0  0  0  0  0  0  0  0  0  0
  151.2386  138.9357  158.9085 C   0  0  0  0  0  0  0  0  0  0  0  0
  150.5916  137.8779  158.1485 N   0  0  0  0  0  0  0  0  0  0  0  0
  151.1987  137.0006  157.2790 C   0  0  0  0  0  0  0  0  0  0  0  0
  150.4011  136.1377  156.7118 N   0  0  0  0  0  0  0  0  0  0  0  0
  149.1438  136.4557  157.2127 C   0  0  0  0  0  0  0  0  0  0  0  0
  147.8316  135.9345  157.0231 C   0  0  0  0  0  0  0  0  0  0  0  0
  147.5107  134.8860  156.2326 N   0  0  0  0  0  0  0  0  0  0  0  0
  146.1451  134.3701  156.3069 C   0  0  0  0  0  0  0  0  0  0  0  0
  145.6340  134.2727  154.8647 C   0  0  0  0  0  0  0  0  0  0  0  0
  146.5529  135.2266  154.0908 C   0  0  2  0  0  0  0  0  0  0  0  0
  146.6132  135.0184  152.6139 N   0  3  1  0  0  0  0  0  0  0  0  0
  146.5947  133.5821  152.2353 C   0  0  0  0  0  0  0  0  0  0  0  0
  145.5684  135.7976  151.8930 C   0  0  0  0  0  0  0  0  0  0  0  0
  145.8089  137.3177  151.9293 C   0  0  0  0  0  0  0  0  0  0  0  0
  147.0880  137.6234  151.4175 O   0  0  0  0  0  0  0  0  0  0  0  0
  147.8933  135.0406  154.8335 C   0  0  2  0  0  0  0  0  0  0  0  0
  148.7087  133.8147  154.3794 C   0  0  0  0  0  0  0  0  0  0  0  0
  146.8164  136.5016  157.7189 N   0  0  0  0  0  0  0  0  0  0  0  0
  147.0579  137.5318  158.5350 C   0  0  0  0  0  0  0  0  0  0  0  0
  148.2205  138.1300  158.8031 N   0  0  0  0  0  0  0  0  0  0  0  0
  149.2475  137.5489  158.1188 C   0  0  0  0  0  0  0  0  0  0  0  0
  146.1946  136.2426  154.2627 H   0  0  0  0  0  0  0  0  0  0  0  0
  148.5130  135.9301  154.7074 H   0  0  0  0  0  0  0  0  0  0  0  0
  153.8925  140.2251  160.1316 H   0  0  0  0  0  0  0  0  0  0  0  0
  152.3303  140.5264  160.8970 H   0  0  0  0  0  0  0  0  0  0  0  0
  153.4589  141.8499  160.6531 H   0  0  0  0  0  0  0  0  0  0  0  0
  153.2065  141.7441  158.2226 H   0  0  0  0  0  0  0  0  0  0  0  0
  149.4818  141.4245  158.4514 H   0  0  0  0  0  0  0  0  0  0  0  0
  150.0885  142.6931  157.3845 H   0  0  0  0  0  0  0  0  0  0  0  0
  150.2622  140.0916  156.5825 H   0  0  0  0  0  0  0  0  0  0  0  0
  151.5718  141.2172  156.2784 H   0  0  0  0  0  0  0  0  0  0  0  0
  152.6168  138.7466  156.7372 H   0  0  0  0  0  0  0  0  0  0  0  0
  151.9589  138.4684  159.5808 H   0  0  0  0  0  0  0  0  0  0  0  0
  150.4849  139.3973  159.5478 H   0  0  0  0  0  0  0  0  0  0  0  0
  152.2613  137.0165  157.0846 H   0  0  0  0  0  0  0  0  0  0  0  0
  146.1427  133.3910  156.7865 H   0  0  0  0  0  0  0  0  0  0  0  0
  145.4985  135.0156  156.9012 H   0  0  0  0  0  0  0  0  0  0  0  0
  145.7528  133.2501  154.5044 H   0  0  0  0  0  0  0  0  0  0  0  0
  144.5792  134.5378  154.7860 H   0  0  0  0  0  0  0  0  0  0  0  0
  145.6869  133.0971  152.5963 H   0  0  0  0  0  0  0  0  0  0  0  0
  147.4527  133.0500  152.6453 H   0  0  0  0  0  0  0  0  0  0  0  0
  146.6425  133.4458  151.1564 H   0  0  0  0  0  0  0  0  0  0  0  0
  145.5142  135.4522  150.8597 H   0  0  0  0  0  0  0  0  0  0  0  0
  144.5843  135.6075  152.3208 H   0  0  0  0  0  0  0  0  0  0  0  0
  145.0507  137.8758  151.3822 H   0  0  0  0  0  0  0  0  0  0  0  0
  145.7668  137.6678  152.9609 H   0  0  0  0  0  0  0  0  0  0  0  0
  147.7393  137.2167  151.9692 H   0  0  0  0  0  0  0  0  0  0  0  0
  149.0392  133.9131  153.3465 H   0  0  0  0  0  0  0  0  0  0  0  0
  148.1383  132.8895  154.4616 H   0  0  0  0  0  0  0  0  0  0  0  0
  149.6042  133.7018  154.9913 H   0  0  0  0  0  0  0  0  0  0  0  0
  146.1962  137.9329  159.0483 H   0  0  0  0  0  0  0  0  0  0  0  0
  147.5048  135.3875  152.3142 H   0  0  0  0  0  0  0  0  0  0  0  0
  1  2  1  0  0  0  0
  1 31  1  0  0  0  0
  1 32  1  0  0  0  0
  1 33  1  0  0  0  0
  2  6  1  0  0  0  0
  2  3  1  0  0  0  0
  2 34  1  0  0  0  0
  3  4  1  0  0  0  0
  4  5  1  0  0  0  0
  4 35  1  0  0  0  0
  4 36  1  0  0  0  0
  5  6  1  0  0  0  0
  5 37  1  0  0  0  0
  5 38  1  0  0  0  0
  6  7  1  0  0  0  0
  6  8  1  0  0  0  0
  7 39  1  0  0  0  0
  8  9  1  0  0  0  0
  8 40  1  0  0  0  0
  8 41  1  0  0  0  0
  9 28  1  0  0  0  0
  9 10  1  0  0  0  0
 10 11  2  0  0  0  0
 10 42  1  0  0  0  0
 11 12  1  0  0  0  0
 12 28  2  0  0  0  0
 12 13  1  0  0  0  0
 13 14  1  0  0  0  0
 13 25  2  0  0  0  0
 14 23  1  0  0  0  0
 14 15  1  0  0  0  0
 15 16  1  0  0  0  0
 15 43  1  0  0  0  0
 15 44  1  0  0  0  0
 16 17  1  0  0  0  0
 16 45  1  0  0  0  0
 16 46  1  0  0  0  0
 17 29  1  0  0  0  0
 17 18  1  0  0  0  0
 17 23  1  0  0  0  0
 18 19  1  0  0  0  0
 18 20  1  0  0  0  0
 18 59  1  0  0  0  0
 19 47  1  0  0  0  0
 19 48  1  0  0  0  0
 19 49  1  0  0  0  0
 20 21  1  0  0  0  0
 20 50  1  0  0  0  0
 20 51  1  0  0  0  0
 21 22  1  0  0  0  0
 21 52  1  0  0  0  0
 21 53  1  0  0  0  0
 22 54  1  0  0  0  0
 23 30  1  0  0  0  0
 23 24  1  0  0  0  0
 24 55  1  0  0  0  0
 24 56  1  0  0  0  0
 24 57  1  0  0  0  0
 25 26  1  0  0  0  0
 26 27  2  0  0  0  0
 26 58  1  0  0  0  0
 27 28  1  0  0  0  0
M  CHG  1  18   1
M  END
> <s_m_source_file>
AV-unprocessed.smi

> <i_m_source_file_index>
290

> <i_lp_mmshare_version>
43012

> <i_f3d_flags>
0

> <s_epik_input>
W0NIMl0xW0NIMl1PW0NAQEhdKFtDSDNdKVtDQEBdMShbT0hdKVtDSDJdbihbY0hdbjIpYyhjMjMpbltjSF1uYzNONFtDSDJdW0NIMl1bQ0BIXShbQ0BIXTRbQ0gzXSlOKFtDSDNdKVtDSDJdW0NIMl1bT0hd

> <s_epik_cmdline>
J2VwaWtfcHl0aG9uJywgJy1waCcsICc3LjAnLCAnLXRuJywgJzgnLCAnLW1hJywgJzIwMCcsICctbWV0YWxfYmluZGluZycsICctaW1hZScsICc8aW5maWxlLm1hZT4nLCAnLW9tYWUnLCAnPG91dGZpbGUubWFlPic=

> <r_lp_tautomer_probability>
1

> <r_epik_Ionization_Penalty>
0.0036983

> <r_epik_Ionization_Penalty_Charging>
0.0032725

> <r_epik_Ionization_Penalty_Neutral>
0.000425798

> <r_epik_State_Penalty>
-0

> <r_epik_Charging_Adjusted_Penalty>
0.0032725

> <i_epik_Tot_Q>
1

> <i_epik_Tot_abs_Q>
1

> <r_epik_Metal_State_Penalty>
-0

> <b_epik_Metal_Only>
0

> <s_lp_Force_Field>
OPLS_2005

> <r_lp_Energy>
64.7341

> <b_lp_Chiralities_Consistent>
1

> <s_lp_Variant>
AV-unprocessed.smi:290-21

> <Gold.Version>
5.8.1

> <Gold.Id.Protein>
6NUR|6NUR_protein|mol2

> <Gold.PLP.Fitness>
43.3170

> <Gold.PLP.PLP>
-30.4714

> <Gold.PLP.part.hbond>
-4.3042

> <Gold.PLP.part.metal>
0.0000

> <Gold.PLP.part.buried>
-5.7872

> <Gold.PLP.part.nonpolar>
-21.3275

> <Gold.PLP.part.repulsive>
0.0085

> <Gold.PLP.ligand.clash>
0.0000

> <Gold.PLP.ligand.torsion>
0.7169

> <Gold.PLP.Chemscore.Hbond>
4.6680

> <Gold.PLP.Chemscore.CHOScore>
0.0000

> <Gold.PLP.Chemscore.Metal>
0.0000

> <Gold.Chemscore.Hbonds>
donor molecule, donor type, donor heavy atom, donor atom, acceptor molecule, acceptor atom, score
      L1  H    18    59       P1  7948  2.00
      L1  H    22    54       P1  7948  0.77
      P1  H  7954  7966       L1    22  0.85
      P1  H  7997  8010       L1     7  1.00

> <Gold.PLP.Chemscore.Internal.Correction>
0.2754

> <Gold.Rescore>
     Score         DG    S(hbond)    S(metal)    S(lipo)     H(rot)  DE(clash)    DE(int)     intcor
     12.44     -13.51       2.97        0.00      63.91       3.67       0.04       1.02       ----

> <Gold.Chemscore.Fitness>
12.4434

> <Gold.Chemscore.DG>
-13.5070

> <Gold.Chemscore.ZeroCoef>
-5.4800

> <Gold.Chemscore.Hbond>
2.9743

> <Gold.Chemscore.Metal>
0.0000

> <Gold.Chemscore.Lipo>
63.9088

> <Gold.Chemscore.Internal_Hbond>
0.0000

> <Gold.Chemscore.DEClash>
0.0402

> <Gold.Chemscore.DEInternal>
1.0233

> <Gold.Chemscore.Rot>
3.6658

> <Gold.Chemscore.Internal.Correction>
   9.000000E+99

> <Gold.Chemscore.Hbonds>
donor molecule, donor type, donor heavy atom, donor atom, acceptor molecule, acceptor atom, score
      L1  H    18    59       P1  7948  1.00
      L1  H    22    54       P1  7948  0.72
      P1  H  7954  7966       L1    22  0.15
      P1  H  7997  8010       L1     7  0.96

> <Gold.Chemscore.Hbond.Weighted>
-9.9341

> <Gold.Chemscore.Metal.Weighted>
-0.0000

> <Gold.Chemscore.Lipo.Weighted>
-7.4773

> <Gold.Chemscore.Internal_Hbond.Weighted>
0.0000

> <Gold.Chemscore.DEClash.Weighted>
0.0402

> <Gold.Chemscore.DEInternal.Weighted>
1.0233

> <Gold.Chemscore.Rot.Weighted>
9.3844

> <Gold.Chemscore.Internal.Correction.Weighted>
   9.000000E+99

> <Gold.Protein.RotatedTorsions>
[ 6907 6896 6895 6894 ] final   13.54 input  -60.11 | X-H torsion
[ 7974 7965 7964 7962 ] final -151.39 input  175.53 | X-H torsion
[ 8008 7997 7996 7995 ] final   43.09 input   59.86 | X-H torsion
[ 10167 10162 10161 10158 ] final   44.68 input  -65.29 | X-H torsion
[ 10718 10713 10712 10709 ] final  112.67 input   66.30 | X-H torsion
[ 10763 10752 10751 10750 ] final   96.39 input  -60.55 | X-H torsion
[ 11005 11000 10999 10996 ] final  178.23 input  -57.11 | X-H torsion

> <Gold.Protein.ActiveResidues>
 VAL166  LYS551  ARG553  GLY616  TRP617  ASP618  TYR619  PRO620  LYS621  CYS622 
 ASP623  PHE694  ASN695  SER759  ASP760  ASP761  ALA762  ILE779  LEU786  VAL792 
 PHE793  MET794  SER795  GLU796  ALA797  LYS798  CYS799  TRP800  GLU811  SER814 

> <Gold.Protein.RotatedAtoms>
  151.7879  135.0744  160.0382 H   0  0  0  0  0  0  0  0  0  0  0  0  # atno 6907 bound_to 6896
  152.3177  133.5816  159.5732 H   0  0  0  0  0  0  0  0  0  0  0  0  # atno 6908 bound_to 6896
  150.7353  133.9974  159.3669 H   0  0  0  0  0  0  0  0  0  0  0  0  # atno 6909 bound_to 6896
  144.7852  140.4803  143.5811 H   0  0  0  0  0  0  0  0  0  0  0  0  # atno 7974 bound_to 7965
  155.2969  140.3382  155.4249 H   0  0  0  0  0  0  0  0  0  0  0  0  # atno 8008 bound_to 7997
  156.2019  140.1736  156.7920 H   0  0  0  0  0  0  0  0  0  0  0  0  # atno 8009 bound_to 7997
  154.5571  140.0694  156.8744 H   0  0  0  0  0  0  0  0  0  0  0  0  # atno 8010 bound_to 7997
  140.3318  144.2579  150.6167 H   0  0  0  0  0  0  0  0  0  0  0  0  # atno 10167 bound_to 10162
  157.6380  131.0971  150.6929 H   0  0  0  0  0  0  0  0  0  0  0  0  # atno 10718 bound_to 10713
  153.2644  135.4220  155.0926 H   0  0  0  0  0  0  0  0  0  0  0  0  # atno 10763 bound_to 10752
  154.8432  135.3457  154.6332 H   0  0  0  0  0  0  0  0  0  0  0  0  # atno 10764 bound_to 10752
  153.6752  135.7041  153.5192 H   0  0  0  0  0  0  0  0  0  0  0  0  # atno 10765 bound_to 10752
  140.3928  134.6847  157.4517 H   0  0  0  0  0  0  0  0  0  0  0  0  # atno 11005 bound_to 11000
  145.5941  139.1498  143.3166 LP  0  0  0  0  0  0  0  0  0  0  0  0  # atno 17320 bound_to 7965
  146.2081  140.6065  142.9072 LP  0  0  0  0  0  0  0  0  0  0  0  0  # atno 17321 bound_to 7965
  140.5390  143.2227  151.8116 LP  0  0  0  0  0  0  0  0  0  0  0  0  # atno 17342 bound_to 10162
  139.4855  144.4624  151.9524 LP  0  0  0  0  0  0  0  0  0  0  0  0  # atno 17343 bound_to 10162
  156.7257  130.4694  149.5512 LP  0  0  0  0  0  0  0  0  0  0  0  0  # atno 17370 bound_to 10713
  156.1635  130.6390  151.0749 LP  0  0  0  0  0  0  0  0  0  0  0  0  # atno 17371 bound_to 10713
  140.0394  134.6290  155.9001 LP  0  0  0  0  0  0  0  0  0  0  0  0  # atno 17394 bound_to 11000
  141.1884  133.6562  156.5325 LP  0  0  0  0  0  0  0  0  0  0  0  0  # atno 17395 bound_to 11000

$$$$
