AV-unprocessed.smi:2524|AV-procd|sdf|9922|dock10
  -GOLD-   2272013563D 1   1.00000     0.00000
 Structure written by MMmdl.
 36 37  0  0  0  0  0  0  0  0  1 V2000
  145.5141  142.4074  155.0414 C   0  0  0  0  0  0  0  0  0  0  0  0
  146.8019  142.4265  155.4165 C   0  0  0  0  0  0  0  0  0  0  0  0
  147.3449  141.7455  156.6552 C   0  0  0  0  0  0  0  0  0  0  0  0
  148.3402  140.6339  156.3038 C   0  0  0  0  0  0  0  0  0  0  0  0
  149.7347  141.2904  155.2984 S   0  0  0  0  0  0  0  0  0  0  0  0
  150.7224  140.2157  155.1160 O   0  0  0  0  0  0  0  0  0  0  0  0
  149.1948  141.9983  154.1279 O   0  0  0  0  0  0  0  0  0  0  0  0
  150.4222  142.4679  156.3504 N   0  0  0  0  0  0  0  0  0  0  0  0
  151.3025  142.0194  157.4304 C   0  0  0  0  0  0  0  0  0  0  0  0
  151.6994  143.1798  158.3319 C   0  0  0  0  0  0  0  0  0  0  0  0
  152.4054  142.6977  159.5699 C   0  0  0  0  0  0  0  0  0  0  0  0
  152.2698  143.3732  160.8021 C   0  0  0  0  0  0  0  0  0  0  0  0
  152.9423  142.8684  161.9326 C   0  0  0  0  0  0  0  0  0  0  0  0
  153.7173  141.7637  161.9020 N   0  0  0  0  0  0  0  0  0  0  0  0
  153.8454  141.1185  160.7233 C   0  0  0  0  0  0  0  0  0  0  0  0
  153.2149  141.5424  159.5366 C   0  0  0  0  0  0  0  0  0  0  0  0
  152.1699  144.4713  157.6960 C   0  0  0  0  0  0  0  0  0  0  0  0
  150.8341  144.4219  158.3924 C   0  0  0  0  0  0  0  0  0  0  0  0
  144.7669  141.8868  155.6227 H   0  0  0  0  0  0  0  0  0  0  0  0
  145.1905  142.9146  154.1447 H   0  0  0  0  0  0  0  0  0  0  0  0
  147.5199  142.9578  154.8086 H   0  0  0  0  0  0  0  0  0  0  0  0
  147.8234  142.4839  157.2996 H   0  0  0  0  0  0  0  0  0  0  0  0
  146.5070  141.3322  157.2173 H   0  0  0  0  0  0  0  0  0  0  0  0
  148.7535  140.1785  157.2040 H   0  0  0  0  0  0  0  0  0  0  0  0
  147.8508  139.8484  155.7272 H   0  0  0  0  0  0  0  0  0  0  0  0
  150.8430  143.2343  155.8254 H   0  0  0  0  0  0  0  0  0  0  0  0
  150.8005  141.2610  158.0319 H   0  0  0  0  0  0  0  0  0  0  0  0
  152.1886  141.5542  156.9973 H   0  0  0  0  0  0  0  0  0  0  0  0
  151.6569  144.2586  160.8830 H   0  0  0  0  0  0  0  0  0  0  0  0
  152.8530  143.3650  162.8874 H   0  0  0  0  0  0  0  0  0  0  0  0
  154.4684  140.2365  160.7252 H   0  0  0  0  0  0  0  0  0  0  0  0
  153.3471  140.9871  158.6197 H   0  0  0  0  0  0  0  0  0  0  0  0
  152.9676  145.0235  158.1890 H   0  0  0  0  0  0  0  0  0  0  0  0
  152.1525  144.5471  156.6106 H   0  0  0  0  0  0  0  0  0  0  0  0
  149.9510  144.4631  157.7581 H   0  0  0  0  0  0  0  0  0  0  0  0
  150.7484  144.9415  159.3447 H   0  0  0  0  0  0  0  0  0  0  0  0
  1  2  2  0  0  0  0
  1 19  1  0  0  0  0
  1 20  1  0  0  0  0
  2  3  1  0  0  0  0
  2 21  1  0  0  0  0
  3  4  1  0  0  0  0
  3 22  1  0  0  0  0
  3 23  1  0  0  0  0
  4  5  1  0  0  0  0
  4 24  1  0  0  0  0
  4 25  1  0  0  0  0
  5  6  2  0  0  0  0
  5  7  2  0  0  0  0
  5  8  1  0  0  0  0
  8  9  1  0  0  0  0
  8 26  1  0  0  0  0
  9 10  1  0  0  0  0
  9 27  1  0  0  0  0
  9 28  1  0  0  0  0
 10 18  1  0  0  0  0
 10 11  1  0  0  0  0
 10 17  1  0  0  0  0
 11 16  1  0  0  0  0
 11 12  2  0  0  0  0
 12 13  1  0  0  0  0
 12 29  1  0  0  0  0
 13 14  2  0  0  0  0
 13 30  1  0  0  0  0
 14 15  1  0  0  0  0
 15 16  2  0  0  0  0
 15 31  1  0  0  0  0
 16 32  1  0  0  0  0
 17 18  1  0  0  0  0
 17 33  1  0  0  0  0
 17 34  1  0  0  0  0
 18 35  1  0  0  0  0
 18 36  1  0  0  0  0
M  END
> <s_m_source_file>
AV-unprocessed.smi

> <i_m_source_file_index>
2524

> <i_lp_mmshare_version>
43012

> <i_f3d_flags>
0

> <s_epik_input>
W0NIMl09W0NIXVtDSDJdW0NIMl1TKD1PKSg9TylbTkhdW0NIMl1DMShbQ0gyXVtDSDJdMSljMltjSF1bY0hdbltjSF1bY0hdMg==

> <s_epik_cmdline>
J2VwaWtfcHl0aG9uJywgJy1waCcsICc3LjAnLCAnLXRuJywgJzgnLCAnLW1hJywgJzIwMCcsICctbWV0YWxfYmluZGluZycsICctaW1hZScsICc8aW5maWxlLm1hZT4nLCAnLW9tYWUnLCAnPG91dGZpbGUubWFlPic=

> <r_epik_Ionization_Penalty>
0.0344299

> <r_epik_Ionization_Penalty_Charging>
0

> <r_epik_Ionization_Penalty_Neutral>
0.0344299

> <r_epik_State_Penalty>
0.0286381

> <r_epik_Charging_Adjusted_Penalty>
0.0286381

> <i_epik_Tot_Q>
0

> <i_epik_Tot_abs_Q>
0

> <r_epik_Metal_State_Penalty>
0.0327794

> <b_epik_Metal_Only>
0

> <s_lp_Force_Field>
OPLS_2005

> <r_lp_Energy>
10.3721

> <b_lp_Chiralities_Consistent>
1

> <s_lp_Variant>
AV-unprocessed.smi:2524-1

> <Gold.Version>
5.8.1

> <Gold.Id.Protein>
6NUR|6NUR_protein|mol2

> <Gold.PLP.Fitness>
46.7738

> <Gold.PLP.PLP>
-43.4370

> <Gold.PLP.part.hbond>
-3.7189

> <Gold.PLP.part.metal>
0.0000

> <Gold.PLP.part.buried>
-4.8863

> <Gold.PLP.part.nonpolar>
-34.3237

> <Gold.PLP.part.repulsive>
0.3092

> <Gold.PLP.ligand.clash>
0.0000

> <Gold.PLP.ligand.torsion>
1.2314

> <Gold.PLP.Chemscore.Hbond>
1.4031

> <Gold.PLP.Chemscore.CHOScore>
0.0000

> <Gold.PLP.Chemscore.Metal>
0.0000

> <Gold.Chemscore.Hbonds>
donor molecule, donor type, donor heavy atom, donor atom, acceptor molecule, acceptor atom, score
      P1  H  7989  7998       L1     6  1.00
      P1  H  8011  8017       L1     7  0.40

> <Gold.PLP.Chemscore.Internal.Correction>
1.5902

> <Gold.Rescore>
     Score         DG    S(hbond)    S(metal)    S(lipo)     H(rot)  DE(clash)    DE(int)     intcor
     15.99     -17.33       1.31        0.00     104.32       1.85       0.01       1.33       ----

> <Gold.Chemscore.Fitness>
15.9910

> <Gold.Chemscore.DG>
-17.3335

> <Gold.Chemscore.ZeroCoef>
-5.4800

> <Gold.Chemscore.Hbond>
1.3101

> <Gold.Chemscore.Metal>
0.0000

> <Gold.Chemscore.Lipo>
104.3162

> <Gold.Chemscore.Internal_Hbond>
0.0000

> <Gold.Chemscore.DEClash>
0.0089

> <Gold.Chemscore.DEInternal>
1.3336

> <Gold.Chemscore.Rot>
1.8465

> <Gold.Chemscore.Internal.Correction>
   9.000000E+99

> <Gold.Chemscore.Hbonds>
donor molecule, donor type, donor heavy atom, donor atom, acceptor molecule, acceptor atom, score
      P1  H  7989  7998       L1     6  0.25
      P1  H  8011  8017       L1     7  0.40

> <Gold.Chemscore.Hbond.Weighted>
-4.3756

> <Gold.Chemscore.Metal.Weighted>
-0.0000

> <Gold.Chemscore.Lipo.Weighted>
-12.2050

> <Gold.Chemscore.Internal_Hbond.Weighted>
0.0000

> <Gold.Chemscore.DEClash.Weighted>
0.0089

> <Gold.Chemscore.DEInternal.Weighted>
1.3336

> <Gold.Chemscore.Rot.Weighted>
4.7272

> <Gold.Chemscore.Internal.Correction.Weighted>
   9.000000E+99

> <Gold.Protein.RotatedTorsions>
[ 6907 6896 6895 6894 ] final  -25.01 input  -60.11 | X-H torsion
[ 7974 7965 7964 7962 ] final  144.98 input  175.53 | X-H torsion
[ 8008 7997 7996 7995 ] final   54.92 input   59.86 | X-H torsion
[ 10167 10162 10161 10158 ] final -133.84 input  -65.29 | X-H torsion
[ 10718 10713 10712 10709 ] final  159.52 input   66.30 | X-H torsion
[ 10763 10752 10751 10750 ] final   59.08 input  -60.55 | X-H torsion
[ 11005 11000 10999 10996 ] final  -52.94 input  -57.11 | X-H torsion

> <Gold.Protein.ActiveResidues>
 VAL166  LYS551  ARG553  GLY616  TRP617  ASP618  TYR619  PRO620  LYS621  CYS622 
 ASP623  PHE694  ASN695  SER759  ASP760  ASP761  ALA762  ILE779  LEU786  VAL792 
 PHE793  MET794  SER795  GLU796  ALA797  LYS798  CYS799  TRP800  GLU811  SER814 

> <Gold.Protein.RotatedAtoms>
  151.1813  135.0362  159.8793 H   0  0  0  0  0  0  0  0  0  0  0  0  # atno 6907 bound_to 6896
  152.5444  134.1060  159.8348 H   0  0  0  0  0  0  0  0  0  0  0  0  # atno 6908 bound_to 6896
  151.1177  133.5080  159.2635 H   0  0  0  0  0  0  0  0  0  0  0  0  # atno 6909 bound_to 6896
  144.8790  139.5728  143.5851 H   0  0  0  0  0  0  0  0  0  0  0  0  # atno 7974 bound_to 7965
  155.4927  140.3472  155.4357 H   0  0  0  0  0  0  0  0  0  0  0  0  # atno 8008 bound_to 7997
  156.0966  140.1424  156.9551 H   0  0  0  0  0  0  0  0  0  0  0  0  # atno 8009 bound_to 7997
  154.4667  140.0915  156.7017 H   0  0  0  0  0  0  0  0  0  0  0  0  # atno 8010 bound_to 7997
  139.8942  143.6686  152.2607 H   0  0  0  0  0  0  0  0  0  0  0  0  # atno 10167 bound_to 10162
  157.1631  131.0592  151.2222 H   0  0  0  0  0  0  0  0  0  0  0  0  # atno 10718 bound_to 10713
  152.9886  135.5584  154.5656 H   0  0  0  0  0  0  0  0  0  0  0  0  # atno 10763 bound_to 10752
  154.5067  135.2800  155.1379 H   0  0  0  0  0  0  0  0  0  0  0  0  # atno 10764 bound_to 10752
  154.2787  135.6349  153.5391 H   0  0  0  0  0  0  0  0  0  0  0  0  # atno 10765 bound_to 10752
  141.0950  133.6626  156.4098 H   0  0  0  0  0  0  0  0  0  0  0  0  # atno 11005 bound_to 11000
  146.2982  139.7343  142.9111 LP  0  0  0  0  0  0  0  0  0  0  0  0  # atno 17320 bound_to 7965
  145.3989  141.0382  143.3082 LP  0  0  0  0  0  0  0  0  0  0  0  0  # atno 17321 bound_to 7965
  139.7083  144.7624  151.1156 LP  0  0  0  0  0  0  0  0  0  0  0  0  # atno 17342 bound_to 10162
  140.7720  143.5365  150.9362 LP  0  0  0  0  0  0  0  0  0  0  0  0  # atno 17343 bound_to 10162
  157.4114  130.7387  149.6842 LP  0  0  0  0  0  0  0  0  0  0  0  0  # atno 17370 bound_to 10713
  155.9750  130.4094  150.3878 LP  0  0  0  0  0  0  0  0  0  0  0  0  # atno 17371 bound_to 10713
  140.5161  134.6349  157.5302 LP  0  0  0  0  0  0  0  0  0  0  0  0  # atno 17394 bound_to 11000
  139.9785  134.7176  155.9905 LP  0  0  0  0  0  0  0  0  0  0  0  0  # atno 17395 bound_to 11000

$$$$
