AV-unprocessed.smi:1709|AV-procd|sdf|6896|dock1
  -GOLD-   22720 8103D 1   1.00000     0.00000
 Structure written by MMmdl.
 43 45  0  0  0  0  0  0  0  0  2 V2000
  150.7855  137.7892  154.8444 C   0  0  0  0  0  0  0  0  0  0  0  0
  149.9799  139.0587  155.0709 C   0  0  0  0  0  0  0  0  0  0  0  0
  150.5889  140.1504  155.7257 C   0  0  0  0  0  0  0  0  0  0  0  0
  149.8478  141.3252  155.9354 C   0  0  0  0  0  0  0  0  0  0  0  0
  148.5202  141.3585  155.4784 C   0  0  0  0  0  0  0  0  0  0  0  0
  147.9310  140.3199  154.8510 N   0  0  0  0  0  0  0  0  0  0  0  0
  148.6307  139.1752  154.6395 C   0  0  0  0  0  0  0  0  0  0  0  0
  148.0883  138.0278  153.9808 N   0  0  0  0  0  0  0  0  0  0  0  0
  146.8909  137.4117  154.0813 C   0  0  0  0  0  0  0  0  0  0  0  0
  146.0290  137.8234  154.8559 O   0  0  0  0  0  0  0  0  0  0  0  0
  146.7065  136.3351  153.3005 N   0  0  0  0  0  0  0  0  0  0  0  0
  145.5120  135.4987  153.2707 C   0  0  1  0  0  0  0  0  0  0  0  0
  144.2316  136.2973  152.9681 C   0  0  0  0  0  0  0  0  0  0  0  0
  143.3876  135.3870  152.0544 C   0  0  0  0  0  0  0  0  0  0  0  0
  144.1359  134.1185  151.9673 N   0  3  1  0  0  0  0  0  0  0  0  0
  143.8913  133.2722  150.7790 C   0  0  0  0  0  0  0  0  0  0  0  0
  144.6971  131.9643  150.9116 C   0  0  0  0  0  0  0  0  0  0  0  0
  146.1917  132.2373  151.1779 C   0  0  0  0  0  0  0  0  0  0  0  0
  146.3786  133.1981  152.3679 C   0  0  0  0  0  0  0  0  0  0  0  0
  145.5529  134.4745  152.1340 C   0  0  2  0  0  0  0  0  0  0  0  0
  151.8006  137.8887  155.2298 H   0  0  0  0  0  0  0  0  0  0  0  0
  150.8530  137.5633  153.7796 H   0  0  0  0  0  0  0  0  0  0  0  0
  150.3167  136.9443  155.3499 H   0  0  0  0  0  0  0  0  0  0  0  0
  151.6130  140.0918  156.0641 H   0  0  0  0  0  0  0  0  0  0  0  0
  150.2861  142.1776  156.4330 H   0  0  0  0  0  0  0  0  0  0  0  0
  147.9144  142.2416  155.6182 H   0  0  0  0  0  0  0  0  0  0  0  0
  148.7030  137.6229  153.2898 H   0  0  0  0  0  0  0  0  0  0  0  0
  147.4668  136.0686  152.6901 H   0  0  0  0  0  0  0  0  0  0  0  0
  145.3783  134.9824  154.2237 H   0  0  0  0  0  0  0  0  0  0  0  0
  143.7028  136.5526  153.8870 H   0  0  0  0  0  0  0  0  0  0  0  0
  144.4564  137.2315  152.4505 H   0  0  0  0  0  0  0  0  0  0  0  0
  142.3844  135.2181  152.4464 H   0  0  0  0  0  0  0  0  0  0  0  0
  143.2938  135.8360  151.0644 H   0  0  0  0  0  0  0  0  0  0  0  0
  142.8263  133.0519  150.6991 H   0  0  0  0  0  0  0  0  0  0  0  0
  144.1798  133.8090  149.8740 H   0  0  0  0  0  0  0  0  0  0  0  0
  144.2894  131.3719  151.7319 H   0  0  0  0  0  0  0  0  0  0  0  0
  144.5821  131.3612  150.0106 H   0  0  0  0  0  0  0  0  0  0  0  0
  146.7180  131.3008  151.3646 H   0  0  0  0  0  0  0  0  0  0  0  0
  146.6445  132.6729  150.2864 H   0  0  0  0  0  0  0  0  0  0  0  0
  146.0662  132.7115  153.2929 H   0  0  0  0  0  0  0  0  0  0  0  0
  147.4345  133.4432  152.4835 H   0  0  0  0  0  0  0  0  0  0  0  0
  145.8972  134.9669  151.2212 H   0  0  0  0  0  0  0  0  0  0  0  0
  143.8808  133.5779  152.7814 H   0  0  0  0  0  0  0  0  0  0  0  0
  1  2  1  0  0  0  0
  1 21  1  0  0  0  0
  1 22  1  0  0  0  0
  1 23  1  0  0  0  0
  2  7  1  0  0  0  0
  2  3  2  0  0  0  0
  3  4  1  0  0  0  0
  3 24  1  0  0  0  0
  4  5  2  0  0  0  0
  4 25  1  0  0  0  0
  5  6  1  0  0  0  0
  5 26  1  0  0  0  0
  6  7  2  0  0  0  0
  7  8  1  0  0  0  0
  8  9  1  0  0  0  0
  8 27  1  0  0  0  0
  9 10  2  0  0  0  0
  9 11  1  0  0  0  0
 11 12  1  0  0  0  0
 11 28  1  0  0  0  0
 12 20  1  0  0  0  0
 12 13  1  0  0  0  0
 12 29  1  0  0  0  0
 13 14  1  0  0  0  0
 13 30  1  0  0  0  0
 13 31  1  0  0  0  0
 14 15  1  0  0  0  0
 14 32  1  0  0  0  0
 14 33  1  0  0  0  0
 15 20  1  0  0  0  0
 15 16  1  0  0  0  0
 15 43  1  0  0  0  0
 16 17  1  0  0  0  0
 16 34  1  0  0  0  0
 16 35  1  0  0  0  0
 17 18  1  0  0  0  0
 17 36  1  0  0  0  0
 17 37  1  0  0  0  0
 18 19  1  0  0  0  0
 18 38  1  0  0  0  0
 18 39  1  0  0  0  0
 19 20  1  0  0  0  0
 19 40  1  0  0  0  0
 19 41  1  0  0  0  0
 20 42  1  0  0  0  0
M  CHG  1  15   1
M  END
> <s_m_source_file>
AV-unprocessed.smi

> <i_m_source_file_index>
1709

> <i_lp_mmshare_version>
43012

> <i_f3d_flags>
0

> <s_epik_input>
W0NIM11jMVtjSF1bY0hdW2NIXW5jMVtOSF1DKD1PKVtOSF1bQ0BIXShbQ0gyXVtDSDJdMilbQ0BASF0oTjIzKVtDSDJdW0NIMl1bQ0gyXVtDSDJdMw==

> <s_epik_cmdline>
J2VwaWtfcHl0aG9uJywgJy1waCcsICc3LjAnLCAnLXRuJywgJzgnLCAnLW1hJywgJzIwMCcsICctbWV0YWxfYmluZGluZycsICctaW1hZScsICc8aW5maWxlLm1hZT4nLCAnLW9tYWUnLCAnPG91dGZpbGUubWFlPic=

> <r_epik_Ionization_Penalty>
0.00101524

> <r_epik_Ionization_Penalty_Charging>
0.000974069

> <r_epik_Ionization_Penalty_Neutral>
4.11757e-05

> <r_epik_State_Penalty>
0.000633842

> <r_epik_Charging_Adjusted_Penalty>
0.00160791

> <i_epik_Tot_Q>
1

> <i_epik_Tot_abs_Q>
1

> <r_epik_Metal_State_Penalty>
-0

> <b_epik_Metal_Only>
0

> <s_lp_Force_Field>
OPLS_2005

> <r_lp_Energy>
38.4546

> <b_lp_Chiralities_Consistent>
1

> <s_lp_Variant>
AV-unprocessed.smi:1709-6

> <Gold.Version>
5.8.1

> <Gold.Id.Protein>
6NUR|6NUR_protein|mol2

> <Gold.PLP.Fitness>
39.8397

> <Gold.PLP.PLP>
-31.8235

> <Gold.PLP.part.hbond>
-1.9055

> <Gold.PLP.part.metal>
0.0000

> <Gold.PLP.part.buried>
-2.6392

> <Gold.PLP.part.nonpolar>
-28.2423

> <Gold.PLP.part.repulsive>
0.1944

> <Gold.PLP.ligand.clash>
0.0000

> <Gold.PLP.ligand.torsion>
0.3836

> <Gold.PLP.Chemscore.Hbond>
1.9280

> <Gold.PLP.Chemscore.CHOScore>
0.9961

> <Gold.PLP.Chemscore.Metal>
0.0000

> <Gold.Chemscore.Hbonds>
donor molecule, donor type, donor heavy atom, donor atom, acceptor molecule, acceptor atom, score
      L1  H     8    27       P1  7948  0.96
      L1  H    11    28       P1  7948  1.00
      L1  C     5    26       P1  8028  0.64

> <Gold.PLP.Chemscore.Internal.Correction>
0.0111

> <Gold.Rescore>
     Score         DG    S(hbond)    S(metal)    S(lipo)     H(rot)  DE(clash)    DE(int)     intcor
     17.45     -18.05       1.84        0.00      76.80       1.00       0.09       0.51       ----

> <Gold.Chemscore.Fitness>
17.4477

> <Gold.Chemscore.DG>
-18.0472

> <Gold.Chemscore.ZeroCoef>
-5.4800

> <Gold.Chemscore.Hbond>
1.8386

> <Gold.Chemscore.Metal>
0.0000

> <Gold.Chemscore.Lipo>
76.8049

> <Gold.Chemscore.Internal_Hbond>
0.0000

> <Gold.Chemscore.DEClash>
0.0916

> <Gold.Chemscore.DEInternal>
0.5079

> <Gold.Chemscore.Rot>
1.0000

> <Gold.Chemscore.Internal.Correction>
   9.000000E+99

> <Gold.Chemscore.Hbonds>
donor molecule, donor type, donor heavy atom, donor atom, acceptor molecule, acceptor atom, score
      L1  H     8    27       P1  7948  0.89
      L1  H    11    28       P1  7948  0.99

> <Gold.Chemscore.Hbond.Weighted>
-6.1410

> <Gold.Chemscore.Metal.Weighted>
-0.0000

> <Gold.Chemscore.Lipo.Weighted>
-8.9862

> <Gold.Chemscore.Internal_Hbond.Weighted>
0.0000

> <Gold.Chemscore.DEClash.Weighted>
0.0916

> <Gold.Chemscore.DEInternal.Weighted>
0.5079

> <Gold.Chemscore.Rot.Weighted>
2.5600

> <Gold.Chemscore.Internal.Correction.Weighted>
   9.000000E+99

> <Gold.Protein.RotatedTorsions>
[ 6907 6896 6895 6894 ] final   81.19 input  -60.11 | X-H torsion
[ 7974 7965 7964 7962 ] final   67.29 input  175.53 | X-H torsion
[ 8008 7997 7996 7995 ] final -106.36 input   59.86 | X-H torsion
[ 10167 10162 10161 10158 ] final -113.00 input  -65.29 | X-H torsion
[ 10718 10713 10712 10709 ] final    0.58 input   66.30 | X-H torsion
[ 10763 10752 10751 10750 ] final  170.56 input  -60.55 | X-H torsion
[ 11005 11000 10999 10996 ] final  159.64 input  -57.11 | X-H torsion

> <Gold.Protein.ActiveResidues>
 VAL166  LYS551  ARG553  GLY616  TRP617  ASP618  TYR619  PRO620  LYS621  CYS622 
 ASP623  PHE694  ASN695  SER759  ASP760  ASP761  ALA762  ILE779  LEU786  VAL792 
 PHE793  MET794  SER795  GLU796  ALA797  LYS798  CYS799  TRP800  GLU811  SER814 

> <Gold.Protein.RotatedAtoms>
  152.5260  134.3241  159.9158 H   0  0  0  0  0  0  0  0  0  0  0  0  # atno 6907 bound_to 6896
  151.3190  133.4041  159.2660 H   0  0  0  0  0  0  0  0  0  0  0  0  # atno 6908 bound_to 6896
  150.9974  134.9312  159.7992 H   0  0  0  0  0  0  0  0  0  0  0  0  # atno 6909 bound_to 6896
  145.8164  139.3060  143.1069 H   0  0  0  0  0  0  0  0  0  0  0  0  # atno 7974 bound_to 7965
  154.9134  140.0409  157.1958 H   0  0  0  0  0  0  0  0  0  0  0  0  # atno 8008 bound_to 7997
  154.8326  140.2901  155.5691 H   0  0  0  0  0  0  0  0  0  0  0  0  # atno 8009 bound_to 7997
  156.2987  140.2498  156.3254 H   0  0  0  0  0  0  0  0  0  0  0  0  # atno 8010 bound_to 7997
  140.1166  143.4480  152.1718 H   0  0  0  0  0  0  0  0  0  0  0  0  # atno 10167 bound_to 10162
  156.8354  130.5503  149.5682 H   0  0  0  0  0  0  0  0  0  0  0  0  # atno 10718 bound_to 10713
  154.3993  135.2755  155.2106 H   0  0  0  0  0  0  0  0  0  0  0  0  # atno 10763 bound_to 10752
  154.4139  135.6016  153.5973 H   0  0  0  0  0  0  0  0  0  0  0  0  # atno 10764 bound_to 10752
  152.9831  135.5956  154.4258 H   0  0  0  0  0  0  0  0  0  0  0  0  # atno 10765 bound_to 10752
  140.1981  134.8358  157.2988 H   0  0  0  0  0  0  0  0  0  0  0  0  # atno 11005 bound_to 11000
  145.9722  140.8751  143.0156 LP  0  0  0  0  0  0  0  0  0  0  0  0  # atno 17320 bound_to 7965
  144.6752  140.1962  143.7391 LP  0  0  0  0  0  0  0  0  0  0  0  0  # atno 17321 bound_to 7965
  139.5591  144.7393  151.4208 LP  0  0  0  0  0  0  0  0  0  0  0  0  # atno 17342 bound_to 10162
  140.6896  143.7894  150.7235 LP  0  0  0  0  0  0  0  0  0  0  0  0  # atno 17343 bound_to 10162
  156.0910  130.5896  150.9733 LP  0  0  0  0  0  0  0  0  0  0  0  0  # atno 17370 bound_to 10713
  157.6384  131.0913  150.8301 LP  0  0  0  0  0  0  0  0  0  0  0  0  # atno 17371 bound_to 10713
  140.2084  134.4168  155.7625 LP  0  0  0  0  0  0  0  0  0  0  0  0  # atno 17394 bound_to 11000
  141.2227  133.7106  156.8298 LP  0  0  0  0  0  0  0  0  0  0  0  0  # atno 17395 bound_to 11000

$$$$
