AV-unprocessed.smi:2110|AV-procd|sdf|8609|dock7
  -GOLD-   2272011353D 1   1.00000     0.00000
 Structure written by MMmdl.
 47 48  0  0  0  0  0  0  0  0  2 V2000
  151.6683  144.8060  159.5120 C   0  0  0  0  0  0  0  0  0  0  0  0
  151.3723  143.8700  158.3331 C   0  0  0  0  0  0  0  0  0  0  0  0
  151.7404  142.4834  158.6600 N   0  0  0  0  0  0  0  0  0  0  0  0
  153.1564  142.2289  158.9710 C   0  0  0  0  0  0  0  0  0  0  0  0
  153.4629  142.4879  160.4527 C   0  0  0  0  0  0  0  0  0  0  0  0
  150.7244  141.1749  158.1476 S   0  0  0  0  0  0  0  0  0  0  0  0
  151.5290  139.9462  158.0619 O   0  0  0  0  0  0  0  0  0  0  0  0
  149.4800  141.2214  158.9296 O   0  0  0  0  0  0  0  0  0  0  0  0
  150.3751  141.7091  156.5426 N   0  0  0  0  0  0  0  0  0  0  0  0
  150.2150  140.7635  155.4352 C   0  0  0  0  0  0  0  0  0  0  0  0
  148.7953  140.6794  154.9024 C   0  0  0  0  0  0  0  0  0  0  0  0
  148.5078  139.8729  153.7820 C   0  0  0  0  0  0  0  0  0  0  0  0
  147.1841  139.8059  153.3103 C   0  0  0  0  0  0  0  0  0  0  0  0
  146.2135  140.5103  153.9300 N   0  3  0  0  0  0  0  0  0  0  0  0
  146.4259  141.3055  155.0074 C   0  0  0  0  0  0  0  0  0  0  0  0
  145.3163  141.9763  155.5685 N   0  0  0  0  0  0  0  0  0  0  0  0
  144.4513  141.1918  156.4486 C   0  0  0  0  0  0  0  0  0  0  0  0
  143.5035  142.1116  157.2368 C   0  0  0  0  0  0  0  0  0  0  0  0
  142.7833  142.9449  156.3361 O   0  0  0  0  0  0  0  0  0  0  0  0
  143.6524  143.7954  155.5980 C   0  0  0  0  0  0  0  0  0  0  0  0
  144.6052  142.9462  154.7400 C   0  0  0  0  0  0  0  0  0  0  0  0
  147.7473  141.4051  155.5128 C   0  0  0  0  0  0  0  0  0  0  0  0
  151.4081  145.8344  159.2617 H   0  0  0  0  0  0  0  0  0  0  0  0
  152.7261  144.7861  159.7752 H   0  0  0  0  0  0  0  0  0  0  0  0
  151.0984  144.5302  160.3987 H   0  0  0  0  0  0  0  0  0  0  0  0
  150.3135  143.9082  158.0751 H   0  0  0  0  0  0  0  0  0  0  0  0
  151.9150  144.2083  157.4498 H   0  0  0  0  0  0  0  0  0  0  0  0
  153.4001  141.1934  158.7329 H   0  0  0  0  0  0  0  0  0  0  0  0
  153.7858  142.8490  158.3316 H   0  0  0  0  0  0  0  0  0  0  0  0
  154.5063  142.2630  160.6739 H   0  0  0  0  0  0  0  0  0  0  0  0
  152.8470  141.8620  161.0984 H   0  0  0  0  0  0  0  0  0  0  0  0
  153.2874  143.5281  160.7267 H   0  0  0  0  0  0  0  0  0  0  0  0
  150.7391  142.6305  156.3003 H   0  0  0  0  0  0  0  0  0  0  0  0
  150.8661  141.0755  154.6188 H   0  0  0  0  0  0  0  0  0  0  0  0
  150.5590  139.7783  155.7492 H   0  0  0  0  0  0  0  0  0  0  0  0
  149.2874  139.3073  153.2928 H   0  0  0  0  0  0  0  0  0  0  0  0
  146.8726  139.2109  152.4640 H   0  0  0  0  0  0  0  0  0  0  0  0
  143.8742  140.4934  155.8417 H   0  0  0  0  0  0  0  0  0  0  0  0
  145.0301  140.5988  157.1564 H   0  0  0  0  0  0  0  0  0  0  0  0
  142.7949  141.5153  157.8117 H   0  0  0  0  0  0  0  0  0  0  0  0
  144.0581  142.7219  157.9515 H   0  0  0  0  0  0  0  0  0  0  0  0
  143.0551  144.4479  154.9611 H   0  0  0  0  0  0  0  0  0  0  0  0
  144.2114  144.4408  156.2778 H   0  0  0  0  0  0  0  0  0  0  0  0
  145.3108  143.6115  154.2420 H   0  0  0  0  0  0  0  0  0  0  0  0
  144.0457  142.4178  153.9670 H   0  0  0  0  0  0  0  0  0  0  0  0
  147.9776  142.0281  156.3636 H   0  0  0  0  0  0  0  0  0  0  0  0
  145.2622  140.4344  153.5689 H   0  0  0  0  0  0  0  0  0  0  0  0
  1  2  1  0  0  0  0
  1 23  1  0  0  0  0
  1 24  1  0  0  0  0
  1 25  1  0  0  0  0
  2  3  1  0  0  0  0
  2 26  1  0  0  0  0
  2 27  1  0  0  0  0
  3  4  1  0  0  0  0
  3  6  1  0  0  0  0
  4  5  1  0  0  0  0
  4 28  1  0  0  0  0
  4 29  1  0  0  0  0
  5 30  1  0  0  0  0
  5 31  1  0  0  0  0
  5 32  1  0  0  0  0
  6  7  2  0  0  0  0
  6  8  2  0  0  0  0
  6  9  1  0  0  0  0
  9 10  1  0  0  0  0
  9 33  1  0  0  0  0
 10 11  1  0  0  0  0
 10 34  1  0  0  0  0
 10 35  1  0  0  0  0
 11 22  1  0  0  0  0
 11 12  2  0  0  0  0
 12 13  1  0  0  0  0
 12 36  1  0  0  0  0
 13 14  2  0  0  0  0
 13 37  1  0  0  0  0
 14 15  1  0  0  0  0
 14 47  1  0  0  0  0
 15 16  1  0  0  0  0
 15 22  2  0  0  0  0
 16 21  1  0  0  0  0
 16 17  1  0  0  0  0
 17 18  1  0  0  0  0
 17 38  1  0  0  0  0
 17 39  1  0  0  0  0
 18 19  1  0  0  0  0
 18 40  1  0  0  0  0
 18 41  1  0  0  0  0
 19 20  1  0  0  0  0
 20 21  1  0  0  0  0
 20 42  1  0  0  0  0
 20 43  1  0  0  0  0
 21 44  1  0  0  0  0
 21 45  1  0  0  0  0
 22 46  1  0  0  0  0
M  CHG  1  14   1
M  END
> <s_m_source_file>
AV-unprocessed.smi

> <i_m_source_file_index>
2110

> <i_lp_mmshare_version>
43012

> <i_f3d_flags>
0

> <s_epik_input>
W0NIM11bQ0gyXU4oW0NIMl1bQ0gzXSlTKD1PKSg9TylbTkhdW0NIMl1jMVtjSF1bY0hdbmMoW2NIXTEpTjJbQ0gyXVtDSDJdT1tDSDJdW0NIMl0y

> <s_epik_cmdline>
J2VwaWtfcHl0aG9uJywgJy1waCcsICc3LjAnLCAnLXRuJywgJzgnLCAnLW1hJywgJzIwMCcsICctbWV0YWxfYmluZGluZycsICctaW1hZScsICc8aW5maWxlLm1hZT4nLCAnLW9tYWUnLCAnPG91dGZpbGUubWFlPic=

> <r_lp_tautomer_probability>
0.999994

> <r_epik_Ionization_Penalty>
1.66934

> <r_epik_Ionization_Penalty_Charging>
1.61364

> <r_epik_Ionization_Penalty_Neutral>
0.0557011

> <r_epik_State_Penalty>
1.67389

> <r_epik_Charging_Adjusted_Penalty>
3.28753

> <i_epik_Tot_Q>
1

> <i_epik_Tot_abs_Q>
1

> <r_epik_Metal_State_Penalty>
4.64949

> <b_epik_Metal_Only>
0

> <s_lp_Force_Field>
OPLS_2005

> <r_lp_Energy>
18.4454

> <b_lp_Chiralities_Consistent>
1

> <s_lp_Variant>
AV-unprocessed.smi:2110-2

> <Gold.Version>
5.8.1

> <Gold.Id.Protein>
6NUR|6NUR_protein|mol2

> <Gold.PLP.Fitness>
49.7738

> <Gold.PLP.PLP>
-44.5417

> <Gold.PLP.part.hbond>
-1.6068

> <Gold.PLP.part.metal>
0.0000

> <Gold.PLP.part.buried>
-4.4651

> <Gold.PLP.part.nonpolar>
-39.5138

> <Gold.PLP.part.repulsive>
0.5192

> <Gold.PLP.ligand.clash>
0.0000

> <Gold.PLP.ligand.torsion>
2.3324

> <Gold.PLP.Chemscore.Hbond>
2.0000

> <Gold.PLP.Chemscore.CHOScore>
0.0000

> <Gold.PLP.Chemscore.Metal>
0.0000

> <Gold.Chemscore.Hbonds>
donor molecule, donor type, donor heavy atom, donor atom, acceptor molecule, acceptor atom, score
      L1  H    14    47       P1 10175  2.00

> <Gold.PLP.Chemscore.Internal.Correction>
3.8968

> <Gold.Rescore>
     Score         DG    S(hbond)    S(metal)    S(lipo)     H(rot)  DE(clash)    DE(int)     intcor
     12.61     -15.12       0.74        0.00     100.06       1.77       0.22       2.29       ----

> <Gold.Chemscore.Fitness>
12.6107

> <Gold.Chemscore.DG>
-15.1177

> <Gold.Chemscore.ZeroCoef>
-5.4800

> <Gold.Chemscore.Hbond>
0.7355

> <Gold.Chemscore.Metal>
0.0000

> <Gold.Chemscore.Lipo>
100.0613

> <Gold.Chemscore.Internal_Hbond>
0.0000

> <Gold.Chemscore.DEClash>
0.2218

> <Gold.Chemscore.DEInternal>
2.2853

> <Gold.Chemscore.Rot>
1.7680

> <Gold.Chemscore.Internal.Correction>
   9.000000E+99

> <Gold.Chemscore.Hbonds>
donor molecule, donor type, donor heavy atom, donor atom, acceptor molecule, acceptor atom, score
      L1  H    14    47       P1 10175  0.99

> <Gold.Chemscore.Hbond.Weighted>
-2.4566

> <Gold.Chemscore.Metal.Weighted>
-0.0000

> <Gold.Chemscore.Lipo.Weighted>
-11.7072

> <Gold.Chemscore.Internal_Hbond.Weighted>
0.0000

> <Gold.Chemscore.DEClash.Weighted>
0.2218

> <Gold.Chemscore.DEInternal.Weighted>
2.2853

> <Gold.Chemscore.Rot.Weighted>
4.5261

> <Gold.Chemscore.Internal.Correction.Weighted>
   9.000000E+99

> <Gold.Protein.RotatedTorsions>
[ 6907 6896 6895 6894 ] final   83.59 input  -60.11 | X-H torsion
[ 7974 7965 7964 7962 ] final   36.14 input  175.53 | X-H torsion
[ 8008 7997 7996 7995 ] final   57.67 input   59.86 | X-H torsion
[ 10167 10162 10161 10158 ] final   69.69 input  -65.29 | X-H torsion
[ 10718 10713 10712 10709 ] final  -32.60 input   66.30 | X-H torsion
[ 10763 10752 10751 10750 ] final   46.02 input  -60.55 | X-H torsion
[ 11005 11000 10999 10996 ] final  120.61 input  -57.11 | X-H torsion

> <Gold.Protein.ActiveResidues>
 VAL166  LYS551  ARG553  GLY616  TRP617  ASP618  TYR619  PRO620  LYS621  CYS622 
 ASP623  PHE694  ASN695  SER759  ASP760  ASP761  ALA762  ILE779  LEU786  VAL792 
 PHE793  MET794  SER795  GLU796  ALA797  LYS798  CYS799  TRP800  GLU811  SER814 

> <Gold.Protein.RotatedAtoms>
  152.5331  134.2872  159.9029 H   0  0  0  0  0  0  0  0  0  0  0  0  # atno 6907 bound_to 6896
  151.2825  133.4196  159.2635 H   0  0  0  0  0  0  0  0  0  0  0  0  # atno 6908 bound_to 6896
  151.0271  134.9527  159.8148 H   0  0  0  0  0  0  0  0  0  0  0  0  # atno 6909 bound_to 6896
  146.1233  139.6055  142.9275 H   0  0  0  0  0  0  0  0  0  0  0  0  # atno 7974 bound_to 7965
  155.5375  140.3483  155.4439 H   0  0  0  0  0  0  0  0  0  0  0  0  # atno 8008 bound_to 7997
  156.0675  140.1355  156.9895 H   0  0  0  0  0  0  0  0  0  0  0  0  # atno 8009 bound_to 7997
  154.4511  140.0972  156.6594 H   0  0  0  0  0  0  0  0  0  0  0  0  # atno 8010 bound_to 7997
  140.0650  144.5201  150.7267 H   0  0  0  0  0  0  0  0  0  0  0  0  # atno 10167 bound_to 10162
  156.3729  130.4343  149.7530 H   0  0  0  0  0  0  0  0  0  0  0  0  # atno 10718 bound_to 10713
  152.9816  135.6021  154.3531 H   0  0  0  0  0  0  0  0  0  0  0  0  # atno 10763 bound_to 10752
  154.3219  135.2769  155.2517 H   0  0  0  0  0  0  0  0  0  0  0  0  # atno 10764 bound_to 10752
  154.4680  135.5949  153.6357 H   0  0  0  0  0  0  0  0  0  0  0  0  # atno 10765 bound_to 10752
  139.9192  134.9635  156.7833 H   0  0  0  0  0  0  0  0  0  0  0  0  # atno 11005 bound_to 11000
  145.5420  141.0420  143.2325 LP  0  0  0  0  0  0  0  0  0  0  0  0  # atno 17320 bound_to 7965
  144.7618  139.6939  143.7231 LP  0  0  0  0  0  0  0  0  0  0  0  0  # atno 17321 bound_to 7965
  140.7153  143.2539  151.4452 LP  0  0  0  0  0  0  0  0  0  0  0  0  # atno 17342 bound_to 10162
  139.5870  144.1582  152.2042 LP  0  0  0  0  0  0  0  0  0  0  0  0  # atno 17343 bound_to 10162
  156.4651  130.7970  151.2989 LP  0  0  0  0  0  0  0  0  0  0  0  0  # atno 17370 bound_to 10713
  157.7485  131.0053  150.3110 LP  0  0  0  0  0  0  0  0  0  0  0  0  # atno 17371 bound_to 10713
  140.6527  133.9717  155.7763 LP  0  0  0  0  0  0  0  0  0  0  0  0  # atno 17394 bound_to 11000
  141.0697  134.0223  157.3543 LP  0  0  0  0  0  0  0  0  0  0  0  0  # atno 17395 bound_to 11000

$$$$
