AV-unprocessed.smi:2837|AV-procd|sdf|10926|dock2
  -GOLD-   2272015373D 1   1.00000     0.00000
 Structure written by MMmdl.
 33 35  0  0  0  0  0  0  0  0  2 V2000
  153.8540  142.0050  162.3767 F   0  0  0  0  0  0  0  0  0  0  0  0
  152.8636  142.4936  161.5908 C   0  0  0  0  0  0  0  0  0  0  0  0
  152.5269  143.7152  162.0696 F   0  0  0  0  0  0  0  0  0  0  0  0
  153.2901  142.6067  160.3047 O   0  0  0  0  0  0  0  0  0  0  0  0
  152.3641  142.6295  159.2868 C   0  0  0  0  0  0  0  0  0  0  0  0
  152.0742  143.8658  158.6731 C   0  0  0  0  0  0  0  0  0  0  0  0
  151.1401  143.9258  157.6188 C   0  0  0  0  0  0  0  0  0  0  0  0
  150.5094  142.7373  157.1803 C   0  0  0  0  0  0  0  0  0  0  0  0
  149.5669  142.6723  156.1449 N   0  0  0  0  0  0  0  0  0  0  0  0
  148.9606  141.4058  155.7510 C   0  0  2  0  0  0  0  0  0  0  0  0
  149.2782  141.0135  154.3058 C   0  0  0  0  0  0  0  0  0  0  0  0
  147.8767  140.7665  153.7302 C   0  0  2  0  0  0  0  0  0  0  0  0
  147.1340  142.0834  153.4720 C   0  0  0  0  0  0  0  0  0  0  0  0
  146.8031  142.5363  154.8927 C   0  0  0  0  0  0  0  0  0  0  0  0
  147.4184  141.4083  155.7389 C   0  0  1  0  0  0  0  0  0  0  0  0
  147.1887  140.3039  154.8808 O   0  0  0  0  0  0  0  0  0  0  0  0
  150.8219  141.5710  157.7869 N   0  3  0  0  0  0  0  0  0  0  0  0
  151.7092  141.4723  158.8009 C   0  0  0  0  0  0  0  0  0  0  0  0
  151.9859  141.8516  161.6689 H   0  0  0  0  0  0  0  0  0  0  0  0
  152.5644  144.7667  159.0124 H   0  0  0  0  0  0  0  0  0  0  0  0
  150.9238  144.8816  157.1657 H   0  0  0  0  0  0  0  0  0  0  0  0
  149.1627  143.5262  155.7879 H   0  0  0  0  0  0  0  0  0  0  0  0
  149.3220  140.6123  156.4060 H   0  0  0  0  0  0  0  0  0  0  0  0
  149.8180  141.7804  153.7480 H   0  0  0  0  0  0  0  0  0  0  0  0
  149.8738  140.1001  154.2852 H   0  0  0  0  0  0  0  0  0  0  0  0
  147.8595  140.0764  152.8863 H   0  0  0  0  0  0  0  0  0  0  0  0
  147.7429  142.8054  152.9269 H   0  0  0  0  0  0  0  0  0  0  0  0
  146.2194  141.9090  152.9040 H   0  0  0  0  0  0  0  0  0  0  0  0
  147.2054  143.5210  155.1310 H   0  0  0  0  0  0  0  0  0  0  0  0
  145.7225  142.5732  155.0339 H   0  0  0  0  0  0  0  0  0  0  0  0
  146.9649  141.3024  156.7244 H   0  0  0  0  0  0  0  0  0  0  0  0
  151.8656  140.4730  159.1807 H   0  0  0  0  0  0  0  0  0  0  0  0
  150.3672  140.7174  157.4617 H   0  0  0  0  0  0  0  0  0  0  0  0
  1  2  1  0  0  0  0
  2  3  1  0  0  0  0
  2  4  1  0  0  0  0
  2 19  1  0  0  0  0
  4  5  1  0  0  0  0
  5 18  1  0  0  0  0
  5  6  2  0  0  0  0
  6  7  1  0  0  0  0
  6 20  1  0  0  0  0
  7  8  2  0  0  0  0
  7 21  1  0  0  0  0
  8  9  1  0  0  0  0
  8 17  1  0  0  0  0
  9 10  1  0  0  0  0
  9 22  1  0  0  0  0
 10 15  1  0  0  0  0
 10 11  1  0  0  0  0
 10 23  1  0  0  0  0
 11 12  1  0  0  0  0
 11 24  1  0  0  0  0
 11 25  1  0  0  0  0
 12 16  1  0  0  0  0
 12 13  1  0  0  0  0
 12 26  1  0  0  0  0
 13 14  1  0  0  0  0
 13 27  1  0  0  0  0
 13 28  1  0  0  0  0
 14 15  1  0  0  0  0
 14 29  1  0  0  0  0
 14 30  1  0  0  0  0
 15 16  1  0  0  0  0
 15 31  1  0  0  0  0
 17 18  2  0  0  0  0
 17 33  1  0  0  0  0
 18 32  1  0  0  0  0
M  CHG  1  17   1
M  END
> <s_m_source_file>
AV-unprocessed.smi

> <i_m_source_file_index>
2837

> <i_lp_mmshare_version>
43012

> <i_f3d_flags>
0

> <s_epik_input>
RltDSF0oRilPYzFbY0hdW2NIXWMobltjSF0xKVtOSF1bQ0BIXShbQ0gyXVtDQEBIXTIzKVtDQEBIXShPMylbQ0gyXVtDSDJdMg==

> <s_epik_cmdline>
J2VwaWtfcHl0aG9uJywgJy1waCcsICc3LjAnLCAnLXRuJywgJzgnLCAnLW1hJywgJzIwMCcsICctbWV0YWxfYmluZGluZycsICctaW1hZScsICc8aW5maWxlLm1hZT4nLCAnLW9tYWUnLCAnPG91dGZpbGUubWFlPic=

> <r_lp_tautomer_probability>
0.999429

> <r_epik_Ionization_Penalty>
2.29716

> <r_epik_Ionization_Penalty_Charging>
2.29716

> <r_epik_Ionization_Penalty_Neutral>
1.42285e-06

> <r_epik_State_Penalty>
2.44762

> <r_epik_Charging_Adjusted_Penalty>
4.74478

> <i_epik_Tot_Q>
1

> <i_epik_Tot_abs_Q>
1

> <r_epik_Metal_State_Penalty>
6.53078

> <b_epik_Metal_Only>
0

> <s_lp_Force_Field>
OPLS_2005

> <r_lp_Energy>
46.8355

> <b_lp_Chiralities_Consistent>
1

> <s_lp_Variant>
AV-unprocessed.smi:2837-7

> <Gold.Version>
5.8.1

> <Gold.Id.Protein>
6NUR|6NUR_protein|mol2

> <Gold.PLP.Fitness>
45.1403

> <Gold.PLP.PLP>
-40.0927

> <Gold.PLP.part.hbond>
-1.0000

> <Gold.PLP.part.metal>
0.0000

> <Gold.PLP.part.buried>
-4.3620

> <Gold.PLP.part.nonpolar>
-35.6119

> <Gold.PLP.part.repulsive>
0.2138

> <Gold.PLP.ligand.clash>
0.0000

> <Gold.PLP.ligand.torsion>
0.4843

> <Gold.PLP.Chemscore.Hbond>
2.0000

> <Gold.PLP.Chemscore.CHOScore>
0.0000

> <Gold.PLP.Chemscore.Metal>
0.0000

> <Gold.Chemscore.Hbonds>
donor molecule, donor type, donor heavy atom, donor atom, acceptor molecule, acceptor atom, score
      L1  H     9    22       P1  8028  0.52

> <Gold.PLP.Chemscore.Internal.Correction>
0.0161

> <Gold.Rescore>
     Score         DG    S(hbond)    S(metal)    S(lipo)     H(rot)  DE(clash)    DE(int)     intcor
     15.25     -15.80       1.00        0.00      88.98       1.34       0.06       0.49       ----

> <Gold.Chemscore.Fitness>
15.2531

> <Gold.Chemscore.DG>
-15.8006

> <Gold.Chemscore.ZeroCoef>
-5.4800

> <Gold.Chemscore.Hbond>
0.9978

> <Gold.Chemscore.Metal>
0.0000

> <Gold.Chemscore.Lipo>
88.9756

> <Gold.Chemscore.Internal_Hbond>
0.0000

> <Gold.Chemscore.DEClash>
0.0597

> <Gold.Chemscore.DEInternal>
0.4878

> <Gold.Chemscore.Rot>
1.3368

> <Gold.Chemscore.Internal.Correction>
   9.000000E+99

> <Gold.Chemscore.Hbonds>
donor molecule, donor type, donor heavy atom, donor atom, acceptor molecule, acceptor atom, score
      L1  H     9    22       P1  8028  0.25

> <Gold.Chemscore.Hbond.Weighted>
-3.3327

> <Gold.Chemscore.Metal.Weighted>
-0.0000

> <Gold.Chemscore.Lipo.Weighted>
-10.4101

> <Gold.Chemscore.Internal_Hbond.Weighted>
0.0000

> <Gold.Chemscore.DEClash.Weighted>
0.0597

> <Gold.Chemscore.DEInternal.Weighted>
0.4878

> <Gold.Chemscore.Rot.Weighted>
3.4223

> <Gold.Chemscore.Internal.Correction.Weighted>
   9.000000E+99

> <Gold.Protein.RotatedTorsions>
[ 6907 6896 6895 6894 ] final  162.69 input  -60.11 | X-H torsion
[ 7974 7965 7964 7962 ] final   73.45 input  175.53 | X-H torsion
[ 8008 7997 7996 7995 ] final -140.44 input   59.86 | X-H torsion
[ 10167 10162 10161 10158 ] final -105.44 input  -65.29 | X-H torsion
[ 10718 10713 10712 10709 ] final   13.51 input   66.30 | X-H torsion
[ 10763 10752 10751 10750 ] final -123.98 input  -60.55 | X-H torsion
[ 11005 11000 10999 10996 ] final  118.60 input  -57.11 | X-H torsion

> <Gold.Protein.ActiveResidues>
 VAL166  LYS551  ARG553  GLY616  TRP617  ASP618  TYR619  PRO620  LYS621  CYS622 
 ASP623  PHE694  ASN695  SER759  ASP760  ASP761  ALA762  ILE779  LEU786  VAL792 
 PHE793  MET794  SER795  GLU796  ALA797  LYS798  CYS799  TRP800  GLU811  SER814 

> <Gold.Protein.RotatedAtoms>
  151.9366  133.3626  159.3949 H   0  0  0  0  0  0  0  0  0  0  0  0  # atno 6907 bound_to 6896
  150.7006  134.4483  159.5333 H   0  0  0  0  0  0  0  0  0  0  0  0  # atno 6908 bound_to 6896
  152.2133  134.8482  160.0545 H   0  0  0  0  0  0  0  0  0  0  0  0  # atno 6909 bound_to 6896
  145.7407  139.2720  143.1488 H   0  0  0  0  0  0  0  0  0  0  0  0  # atno 7974 bound_to 7965
  155.4614  140.0546  157.2990 H   0  0  0  0  0  0  0  0  0  0  0  0  # atno 8008 bound_to 7997
  154.4736  140.2051  155.9889 H   0  0  0  0  0  0  0  0  0  0  0  0  # atno 8009 bound_to 7997
  156.1095  140.3206  155.8058 H   0  0  0  0  0  0  0  0  0  0  0  0  # atno 8010 bound_to 7997
  140.1985  143.3837  152.1149 H   0  0  0  0  0  0  0  0  0  0  0  0  # atno 10167 bound_to 10162
  157.0258  130.6173  149.5728 H   0  0  0  0  0  0  0  0  0  0  0  0  # atno 10718 bound_to 10713
  154.8716  135.4079  154.3031 H   0  0  0  0  0  0  0  0  0  0  0  0  # atno 10763 bound_to 10752
  153.3887  135.7014  153.6516 H   0  0  0  0  0  0  0  0  0  0  0  0  # atno 10764 bound_to 10752
  153.5308  135.3668  155.2646 H   0  0  0  0  0  0  0  0  0  0  0  0  # atno 10765 bound_to 10752
  139.9115  134.9621  156.7528 H   0  0  0  0  0  0  0  0  0  0  0  0  # atno 11005 bound_to 11000
  146.0450  140.8127  142.9810 LP  0  0  0  0  0  0  0  0  0  0  0  0  # atno 17320 bound_to 7965
  144.6871  140.2967  143.7269 LP  0  0  0  0  0  0  0  0  0  0  0  0  # atno 17321 bound_to 7965
  139.5227  144.7062  151.5347 LP  0  0  0  0  0  0  0  0  0  0  0  0  # atno 17342 bound_to 10162
  140.6407  143.8895  150.6689 LP  0  0  0  0  0  0  0  0  0  0  0  0  # atno 17343 bound_to 10162
  156.0086  130.5176  150.7915 LP  0  0  0  0  0  0  0  0  0  0  0  0  # atno 17370 bound_to 10713
  157.5215  131.0932  151.0072 LP  0  0  0  0  0  0  0  0  0  0  0  0  # atno 17371 bound_to 10713
  140.6760  133.9517  155.7883 LP  0  0  0  0  0  0  0  0  0  0  0  0  # atno 17394 bound_to 11000
  141.0544  134.0438  157.3742 LP  0  0  0  0  0  0  0  0  0  0  0  0  # atno 17395 bound_to 11000

$$$$
