AV-unprocessed.smi:104|AV-procd|sdf|1005|dock2
  -GOLD-   2262017593D 1   1.00000     0.00000
 Structure written by MMmdl.
 47 49  0  0  0  0  0  0  0  0  1 V2000
  147.5016  134.6527  161.9645 C   0  0  0  0  0  0  0  0  0  0  0  0
  147.8022  135.9644  161.2515 C   0  0  0  0  0  0  0  0  0  0  0  0
  147.4826  137.0474  161.7405 O   0  0  0  0  0  0  0  0  0  0  0  0
  148.4318  135.7764  160.0789 O   0  0  0  0  0  0  0  0  0  0  0  0
  148.7656  136.8800  159.2476 C   0  0  0  0  0  0  0  0  0  0  0  0
  147.5595  137.3022  158.3898 C   0  0  2  0  0  0  0  0  0  0  0  0
  147.2539  136.3173  157.4036 O   0  0  0  0  0  0  0  0  0  0  0  0
  146.6821  136.9350  156.2880 C   0  0  1  0  0  0  0  0  0  0  0  0
  145.3358  136.3467  156.0140 N   0  0  0  0  0  0  0  0  0  0  0  0
  144.6439  135.4122  156.7498 C   0  0  0  0  0  0  0  0  0  0  0  0
  145.3483  134.6532  158.3483 Br  0  0  0  0  0  0  0  0  0  0  0  0
  143.4782  135.0418  156.2994 N   0  0  0  0  0  0  0  0  0  0  0  0
  143.3543  135.7809  155.1298 C   0  0  0  0  0  0  0  0  0  0  0  0
  142.3541  135.8801  154.1300 C   0  0  0  0  0  0  0  0  0  0  0  0
  141.2103  135.1827  154.1677 N   0  0  0  0  0  0  0  0  0  0  0  0
  142.5633  136.7152  153.0856 N   0  0  0  0  0  0  0  0  0  0  0  0
  143.6970  137.4201  153.0224 C   0  0  0  0  0  0  0  0  0  0  0  0
  144.7207  137.4343  153.8800 N   0  0  0  0  0  0  0  0  0  0  0  0
  144.5092  136.5949  154.9355 C   0  0  0  0  0  0  0  0  0  0  0  0
  146.5538  138.4236  156.6033 C   0  0  2  0  0  0  0  0  0  0  0  0
  146.6744  139.2061  155.4228 O   0  0  0  0  0  0  0  0  0  0  0  0
  146.6015  140.5445  155.4906 C   0  0  0  0  0  0  0  0  0  0  0  0
  146.8790  141.2070  154.1482 C   0  0  0  0  0  0  0  0  0  0  0  0
  146.3507  141.2072  156.4970 O   0  0  0  0  0  0  0  0  0  0  0  0
  147.6828  138.6146  157.6070 C   0  0  2  0  0  0  0  0  0  0  0  0
  148.9572  138.6754  156.9678 O   0  0  0  0  0  0  0  0  0  0  0  0
  149.4710  139.8543  156.5718 C   0  0  0  0  0  0  0  0  0  0  0  0
  150.7239  139.6840  155.7243 C   0  0  0  0  0  0  0  0  0  0  0  0
  149.0189  140.9685  156.8350 O   0  0  0  0  0  0  0  0  0  0  0  0
  146.6291  134.1742  161.5200 H   0  0  0  0  0  0  0  0  0  0  0  0
  147.2986  134.8302  163.0210 H   0  0  0  0  0  0  0  0  0  0  0  0
  148.3490  133.9716  161.8865 H   0  0  0  0  0  0  0  0  0  0  0  0
  149.1856  137.7163  159.8080 H   0  0  0  0  0  0  0  0  0  0  0  0
  149.5587  136.5350  158.5842 H   0  0  0  0  0  0  0  0  0  0  0  0
  146.6841  137.3689  159.0372 H   0  0  0  0  0  0  0  0  0  0  0  0
  147.2906  136.7202  155.4095 H   0  0  0  0  0  0  0  0  0  0  0  0
  141.0311  134.5509  154.9349 H   0  0  0  0  0  0  0  0  0  0  0  0
  140.5299  135.2905  153.4294 H   0  0  0  0  0  0  0  0  0  0  0  0
  143.7989  138.0652  152.1620 H   0  0  0  0  0  0  0  0  0  0  0  0
  145.5938  138.5840  157.0982 H   0  0  0  0  0  0  0  0  0  0  0  0
  146.1508  140.8786  153.4064 H   0  0  0  0  0  0  0  0  0  0  0  0
  147.8765  140.9435  153.7963 H   0  0  0  0  0  0  0  0  0  0  0  0
  146.8189  142.2919  154.2362 H   0  0  0  0  0  0  0  0  0  0  0  0
  147.5181  139.4765  158.2553 H   0  0  0  0  0  0  0  0  0  0  0  0
  150.5016  139.0962  154.8336 H   0  0  0  0  0  0  0  0  0  0  0  0
  151.4989  139.1721  156.2951 H   0  0  0  0  0  0  0  0  0  0  0  0
  151.1092  140.6547  155.4109 H   0  0  0  0  0  0  0  0  0  0  0  0
  1  2  1  0  0  0  0
  1 30  1  0  0  0  0
  1 31  1  0  0  0  0
  1 32  1  0  0  0  0
  2  3  2  0  0  0  0
  2  4  1  0  0  0  0
  4  5  1  0  0  0  0
  5  6  1  0  0  0  0
  5 33  1  0  0  0  0
  5 34  1  0  0  0  0
  6 25  1  0  0  0  0
  6  7  1  0  0  0  0
  6 35  1  0  0  0  0
  7  8  1  0  0  0  0
  8  9  1  0  0  0  0
  8 20  1  0  0  0  0
  8 36  1  0  0  0  0
  9 19  1  0  0  0  0
  9 10  1  0  0  0  0
 10 11  1  0  0  0  0
 10 12  2  0  0  0  0
 12 13  1  0  0  0  0
 13 19  2  0  0  0  0
 13 14  1  0  0  0  0
 14 15  1  0  0  0  0
 14 16  2  0  0  0  0
 15 37  1  0  0  0  0
 15 38  1  0  0  0  0
 16 17  1  0  0  0  0
 17 18  2  0  0  0  0
 17 39  1  0  0  0  0
 18 19  1  0  0  0  0
 20 21  1  0  0  0  0
 20 25  1  0  0  0  0
 20 40  1  0  0  0  0
 21 22  1  0  0  0  0
 22 23  1  0  0  0  0
 22 24  2  0  0  0  0
 23 41  1  0  0  0  0
 23 42  1  0  0  0  0
 23 43  1  0  0  0  0
 25 26  1  0  0  0  0
 25 44  1  0  0  0  0
 26 27  1  0  0  0  0
 27 28  1  0  0  0  0
 27 29  2  0  0  0  0
 28 45  1  0  0  0  0
 28 46  1  0  0  0  0
 28 47  1  0  0  0  0
M  END
> <s_m_source_file>
AV-unprocessed.smi

> <i_m_source_file_index>
104

> <i_lp_mmshare_version>
43012

> <i_f3d_flags>
0

> <s_epik_input>
W0NIM11DKD1PKU9bQ0gyXVtDQEBIXTFPW0NASF0oW0NAQEhdKE9DKD1PKVtDSDNdKVtDQEhdMU9DKD1PKVtDSDNdKW4oYyhCciluMiljKGMyMyluW2NIXW5jM1tOSDJd

> <s_epik_cmdline>
J2VwaWtfcHl0aG9uJywgJy1waCcsICc3LjAnLCAnLXRuJywgJzgnLCAnLW1hJywgJzIwMCcsICctbWV0YWxfYmluZGluZycsICctaW1hZScsICc8aW5maWxlLm1hZT4nLCAnLW9tYWUnLCAnPG91dGZpbGUubWFlPic=

> <r_lp_tautomer_probability>
1

> <r_epik_Ionization_Penalty>
7.36622e-05

> <r_epik_Ionization_Penalty_Charging>
0

> <r_epik_Ionization_Penalty_Neutral>
7.36622e-05

> <r_epik_State_Penalty>
-0

> <r_epik_Charging_Adjusted_Penalty>
0

> <i_epik_Tot_Q>
0

> <i_epik_Tot_abs_Q>
0

> <r_epik_Metal_State_Penalty>
-0

> <b_epik_Metal_Only>
0

> <s_epik_Chemistry_Notes>
This compound has an ester and may undergo hydrolysis at high or low pH. This compound contains an acetal/aminal-like group ( X-CH(R)-Y where X, Y are N, S, or O) that may be acid/base labile, releasing an aldehyde.

> <s_lp_Force_Field>
OPLS_2005

> <r_lp_Energy>
18.0917

> <b_lp_Chiralities_Consistent>
1

> <s_lp_Variant>
AV-unprocessed.smi:104-13

> <Gold.Version>
5.8.1

> <Gold.Id.Protein>
6NUR|6NUR_protein|mol2

> <Gold.PLP.Fitness>
36.7860

> <Gold.PLP.PLP>
-24.3523

> <Gold.PLP.part.hbond>
-3.2477

> <Gold.PLP.part.metal>
0.0000

> <Gold.PLP.part.buried>
-5.3245

> <Gold.PLP.part.nonpolar>
-15.9801

> <Gold.PLP.part.repulsive>
0.5980

> <Gold.PLP.ligand.clash>
0.0000

> <Gold.PLP.ligand.torsion>
0.6455

> <Gold.PLP.Chemscore.Hbond>
2.7280

> <Gold.PLP.Chemscore.CHOScore>
1.7428

> <Gold.PLP.Chemscore.Metal>
0.0000

> <Gold.Chemscore.Hbonds>
donor molecule, donor type, donor heavy atom, donor atom, acceptor molecule, acceptor atom, score
      L1  H    15    37       P1 11000  1.00
      P1  H  6931  6943       L1     3  1.00
      P1  H  6934  6947       L1     3  0.56
      L1  C    17    39       P1 10171  1.00
      L1  C    17    39       P1 10175  0.79

> <Gold.PLP.Chemscore.Internal.Correction>
0.3122

> <Gold.Rescore>
     Score         DG    S(hbond)    S(metal)    S(lipo)     H(rot)  DE(clash)    DE(int)     intcor
      4.84      -7.28       2.77        0.00      30.62       4.31       0.01       2.43       ----

> <Gold.Chemscore.Fitness>
4.8408

> <Gold.Chemscore.DG>
-7.2798

> <Gold.Chemscore.ZeroCoef>
-5.4800

> <Gold.Chemscore.Hbond>
2.7674

> <Gold.Chemscore.Metal>
0.0000

> <Gold.Chemscore.Lipo>
30.6192

> <Gold.Chemscore.Internal_Hbond>
0.0000

> <Gold.Chemscore.DEClash>
0.0096

> <Gold.Chemscore.DEInternal>
2.4294

> <Gold.Chemscore.Rot>
4.3070

> <Gold.Chemscore.Internal.Correction>
   9.000000E+99

> <Gold.Chemscore.Hbonds>
donor molecule, donor type, donor heavy atom, donor atom, acceptor molecule, acceptor atom, score
      L1  H    15    37       P1 11000  0.83
      P1  H  6931  6943       L1     3  0.77
      P1  H  6934  6947       L1     3  0.56

> <Gold.Chemscore.Hbond.Weighted>
-9.2432

> <Gold.Chemscore.Metal.Weighted>
-0.0000

> <Gold.Chemscore.Lipo.Weighted>
-3.5825

> <Gold.Chemscore.Internal_Hbond.Weighted>
0.0000

> <Gold.Chemscore.DEClash.Weighted>
0.0096

> <Gold.Chemscore.DEInternal.Weighted>
2.4294

> <Gold.Chemscore.Rot.Weighted>
11.0259

> <Gold.Chemscore.Internal.Correction.Weighted>
   9.000000E+99

> <Gold.Protein.RotatedTorsions>
[ 6907 6896 6895 6894 ] final  -46.11 input  -60.11 | X-H torsion
[ 7974 7965 7964 7962 ] final  112.88 input  175.53 | X-H torsion
[ 8008 7997 7996 7995 ] final   14.20 input   59.86 | X-H torsion
[ 10167 10162 10161 10158 ] final   79.55 input  -65.29 | X-H torsion
[ 10718 10713 10712 10709 ] final -179.68 input   66.30 | X-H torsion
[ 10763 10752 10751 10750 ] final  150.47 input  -60.55 | X-H torsion
[ 11005 11000 10999 10996 ] final -126.04 input  -57.11 | X-H torsion

> <Gold.Protein.ActiveResidues>
 VAL166  LYS551  ARG553  GLY616  TRP617  ASP618  TYR619  PRO620  LYS621  CYS622 
 ASP623  PHE694  ASN695  SER759  ASP760  ASP761  ALA762  ILE779  LEU786  VAL792 
 PHE793  MET794  SER795  GLU796  ALA797  LYS798  CYS799  TRP800  GLU811  SER814 

> <Gold.Protein.RotatedAtoms>
  150.9147  134.8564  159.7448 H   0  0  0  0  0  0  0  0  0  0  0  0  # atno 6907 bound_to 6896
  152.4962  134.4307  159.9521 H   0  0  0  0  0  0  0  0  0  0  0  0  # atno 6908 bound_to 6896
  151.4346  133.3621  159.2808 H   0  0  0  0  0  0  0  0  0  0  0  0  # atno 6909 bound_to 6896
  145.2239  139.2849  143.4203 H   0  0  0  0  0  0  0  0  0  0  0  0  # atno 7974 bound_to 7965
  154.8452  140.2921  155.5634 H   0  0  0  0  0  0  0  0  0  0  0  0  # atno 8008 bound_to 7997
  156.3014  140.2506  156.3333 H   0  0  0  0  0  0  0  0  0  0  0  0  # atno 8009 bound_to 7997
  154.9082  140.0389  157.1920 H   0  0  0  0  0  0  0  0  0  0  0  0  # atno 8010 bound_to 7997
  139.9591  144.5973  150.8089 H   0  0  0  0  0  0  0  0  0  0  0  0  # atno 10167 bound_to 10162
  156.8628  130.9757  151.3081 H   0  0  0  0  0  0  0  0  0  0  0  0  # atno 10718 bound_to 10713
  154.0880  135.2854  155.3277 H   0  0  0  0  0  0  0  0  0  0  0  0  # atno 10763 bound_to 10752
  154.6639  135.5324  153.8056 H   0  0  0  0  0  0  0  0  0  0  0  0  # atno 10764 bound_to 10752
  153.0424  135.6541  154.1051 H   0  0  0  0  0  0  0  0  0  0  0  0  # atno 10765 bound_to 10752
  140.9713  134.0801  157.3866 H   0  0  0  0  0  0  0  0  0  0  0  0  # atno 11005 bound_to 11000
  146.3369  140.2554  142.8600 LP  0  0  0  0  0  0  0  0  0  0  0  0  # atno 17320 bound_to 7965
  144.9739  140.8395  143.5438 LP  0  0  0  0  0  0  0  0  0  0  0  0  # atno 17321 bound_to 7965
  140.7559  143.3055  151.2973 LP  0  0  0  0  0  0  0  0  0  0  0  0  # atno 17342 bound_to 10162
  139.6568  144.0261  152.2665 LP  0  0  0  0  0  0  0  0  0  0  0  0  # atno 17343 bound_to 10162
  157.6240  130.8677  149.9158 LP  0  0  0  0  0  0  0  0  0  0  0  0  # atno 17370 bound_to 10713
  156.0768  130.3678  150.0662 LP  0  0  0  0  0  0  0  0  0  0  0  0  # atno 17371 bound_to 10713
  139.8913  135.0118  156.6786 LP  0  0  0  0  0  0  0  0  0  0  0  0  # atno 17394 bound_to 11000
  140.7324  133.9048  155.8220 LP  0  0  0  0  0  0  0  0  0  0  0  0  # atno 17395 bound_to 11000

$$$$
