AV-unprocessed.smi:787|AV-procd|sdf|3727|dock4
  -GOLD-   22720 1153D 1   1.00000     0.00000
 Structure written by MMmdl.
 47 49  0  0  0  0  0  0  0  0  2 V2000
  151.1801  137.2194  154.5357 C   0  0  0  0  0  0  0  0  0  0  0  0
  150.0554  137.9996  154.0447 N   0  0  0  0  0  0  0  0  0  0  0  0
  149.7378  139.2360  154.6242 C   0  0  0  0  0  0  0  0  0  0  0  0
  150.5305  139.7514  155.5922 N   0  0  0  0  0  0  0  0  0  0  0  0
  150.1949  140.9396  156.1114 C   0  0  0  0  0  0  0  0  0  0  0  0
  149.1525  141.7293  155.8100 N   0  0  0  0  0  0  0  0  0  0  0  0
  148.3593  141.2264  154.8544 C   0  0  0  0  0  0  0  0  0  0  0  0
  147.2177  141.8236  154.3486 N   0  0  0  0  0  0  0  0  0  0  0  0
  146.8194  140.9287  153.4488 C   0  0  0  0  0  0  0  0  0  0  0  0
  147.5572  139.8084  153.3165 N   0  0  0  0  0  0  0  0  0  0  0  0
  147.2947  138.7005  152.4141 C   0  0  0  0  0  0  0  0  0  0  0  0
  145.8953  138.0845  152.6162 C   0  0  2  0  0  0  0  0  0  0  0  0
  145.5774  138.1707  153.9901 O   0  0  0  0  0  0  0  0  0  0  0  0
  145.7848  136.6100  152.1680 C   0  0  0  0  0  0  0  0  0  0  0  0
  144.5435  136.3624  151.3929 N   0  3  2  0  0  0  0  0  0  0  0  0
  143.4155  135.9429  152.2561 C   0  0  0  0  0  0  0  0  0  0  0  0
  144.7478  135.4498  150.2388 C   0  0  0  0  0  0  0  0  0  0  0  0
  144.8984  134.0107  150.6944 C   0  0  0  0  0  0  0  0  0  0  0  0
  144.0199  133.0126  150.2214 C   0  0  0  0  0  0  0  0  0  0  0  0
  144.1706  131.6785  150.6475 C   0  0  0  0  0  0  0  0  0  0  0  0
  145.1982  131.3380  151.5481 C   0  0  0  0  0  0  0  0  0  0  0  0
  146.0746  132.3321  152.0242 C   0  0  0  0  0  0  0  0  0  0  0  0
  145.9248  133.6663  151.5989 C   0  0  0  0  0  0  0  0  0  0  0  0
  148.6026  139.9688  154.2238 C   0  0  0  0  0  0  0  0  0  0  0  0
  151.2762  136.3009  153.9568 H   0  0  0  0  0  0  0  0  0  0  0  0
  151.0366  136.9500  155.5824 H   0  0  0  0  0  0  0  0  0  0  0  0
  152.1103  137.7805  154.4419 H   0  0  0  0  0  0  0  0  0  0  0  0
  149.5475  137.6722  153.2357 H   0  0  0  0  0  0  0  0  0  0  0  0
  150.8553  141.3142  156.8794 H   0  0  0  0  0  0  0  0  0  0  0  0
  145.9296  141.0925  152.8583 H   0  0  0  0  0  0  0  0  0  0  0  0
  147.4039  139.0584  151.3889 H   0  0  0  0  0  0  0  0  0  0  0  0
  148.0696  137.9473  152.5621 H   0  0  0  0  0  0  0  0  0  0  0  0
  145.1681  138.6910  152.0794 H   0  0  0  0  0  0  0  0  0  0  0  0
  145.8650  139.0096  154.3180 H   0  0  0  0  0  0  0  0  0  0  0  0
  146.6371  136.3120  151.5559 H   0  0  0  0  0  0  0  0  0  0  0  0
  145.8126  135.9740  153.0543 H   0  0  0  0  0  0  0  0  0  0  0  0
  143.6247  134.9849  152.7340 H   0  0  0  0  0  0  0  0  0  0  0  0
  142.4953  135.8438  151.6799 H   0  0  0  0  0  0  0  0  0  0  0  0
  143.2311  136.6815  153.0368 H   0  0  0  0  0  0  0  0  0  0  0  0
  143.9007  135.4884  149.5539 H   0  0  0  0  0  0  0  0  0  0  0  0
  145.6158  135.7634  149.6566 H   0  0  0  0  0  0  0  0  0  0  0  0
  143.2298  133.2651  149.5296 H   0  0  0  0  0  0  0  0  0  0  0  0
  143.4979  130.9158  150.2836 H   0  0  0  0  0  0  0  0  0  0  0  0
  145.3136  130.3148  151.8742 H   0  0  0  0  0  0  0  0  0  0  0  0
  146.8622  132.0706  152.7157 H   0  0  0  0  0  0  0  0  0  0  0  0
  146.6016  134.4239  151.9667 H   0  0  0  0  0  0  0  0  0  0  0  0
  144.2842  137.2597  151.0071 H   0  0  0  0  0  0  0  0  0  0  0  0
  1  2  1  0  0  0  0
  1 25  1  0  0  0  0
  1 26  1  0  0  0  0
  1 27  1  0  0  0  0
  2  3  1  0  0  0  0
  2 28  1  0  0  0  0
  3 24  1  0  0  0  0
  3  4  2  0  0  0  0
  4  5  1  0  0  0  0
  5  6  2  0  0  0  0
  5 29  1  0  0  0  0
  6  7  1  0  0  0  0
  7 24  2  0  0  0  0
  7  8  1  0  0  0  0
  8  9  2  0  0  0  0
  9 10  1  0  0  0  0
  9 30  1  0  0  0  0
 10 11  1  0  0  0  0
 10 24  1  0  0  0  0
 11 12  1  0  0  0  0
 11 31  1  0  0  0  0
 11 32  1  0  0  0  0
 12 13  1  0  0  0  0
 12 14  1  0  0  0  0
 12 33  1  0  0  0  0
 13 34  1  0  0  0  0
 14 15  1  0  0  0  0
 14 35  1  0  0  0  0
 14 36  1  0  0  0  0
 15 16  1  0  0  0  0
 15 17  1  0  0  0  0
 15 47  1  0  0  0  0
 16 37  1  0  0  0  0
 16 38  1  0  0  0  0
 16 39  1  0  0  0  0
 17 18  1  0  0  0  0
 17 40  1  0  0  0  0
 17 41  1  0  0  0  0
 18 23  1  0  0  0  0
 18 19  2  0  0  0  0
 19 20  1  0  0  0  0
 19 42  1  0  0  0  0
 20 21  2  0  0  0  0
 20 43  1  0  0  0  0
 21 22  1  0  0  0  0
 21 44  1  0  0  0  0
 22 23  2  0  0  0  0
 22 45  1  0  0  0  0
 23 46  1  0  0  0  0
M  CHG  1  15   1
M  END
> <s_m_source_file>
AV-unprocessed.smi

> <i_m_source_file_index>
787

> <i_lp_mmshare_version>
43012

> <i_f3d_flags>
0

> <s_epik_input>
bjFbY0hdbmMoW05IXVtDSDNdKWMoYzEyKW4oW2NIXW4yKVtDSDJdW0NASF0oW09IXSlbQ0gyXU4oW0NIM10pW0NIMl1jM1tjSF1bY0hdW2NIXVtjSF1bY0hdMw==

> <s_epik_cmdline>
J2VwaWtfcHl0aG9uJywgJy1waCcsICc3LjAnLCAnLXRuJywgJzgnLCAnLW1hJywgJzIwMCcsICctbWV0YWxfYmluZGluZycsICctaW1hZScsICc8aW5maWxlLm1hZT4nLCAnLW9tYWUnLCAnPG91dGZpbGUubWFlPic=

> <r_lp_tautomer_probability>
0.999987

> <r_epik_Ionization_Penalty>
0.0526284

> <r_epik_Ionization_Penalty_Charging>
0.0475377

> <r_epik_Ionization_Penalty_Neutral>
0.00509065

> <r_epik_State_Penalty>
0.0404888

> <r_epik_Charging_Adjusted_Penalty>
0.0880265

> <i_epik_Tot_Q>
1

> <i_epik_Tot_abs_Q>
1

> <r_epik_Metal_State_Penalty>
0.040507

> <b_epik_Metal_Only>
0

> <s_lp_Force_Field>
OPLS_2005

> <r_lp_Energy>
15.7703

> <b_lp_Chiralities_Consistent>
1

> <s_lp_Variant>
AV-unprocessed.smi:787-3

> <Gold.Version>
5.8.1

> <Gold.Id.Protein>
6NUR|6NUR_protein|mol2

> <Gold.PLP.Fitness>
47.6334

> <Gold.PLP.PLP>
-41.0609

> <Gold.PLP.part.hbond>
-3.0485

> <Gold.PLP.part.metal>
0.0000

> <Gold.PLP.part.buried>
1.1331

> <Gold.PLP.part.nonpolar>
-41.7193

> <Gold.PLP.part.repulsive>
1.9191

> <Gold.PLP.ligand.clash>
0.0000

> <Gold.PLP.ligand.torsion>
1.4770

> <Gold.PLP.Chemscore.Hbond>
2.0613

> <Gold.PLP.Chemscore.CHOScore>
0.9988

> <Gold.PLP.Chemscore.Metal>
0.0000

> <Gold.Chemscore.Hbonds>
donor molecule, donor type, donor heavy atom, donor atom, acceptor molecule, acceptor atom, score
      L1  H     2    28       P1  7948  0.98
      L1  H    15    47       P1 10171  1.00
      L1  C     9    30       P1 10175  0.90

> <Gold.PLP.Chemscore.Internal.Correction>
0.3462

> <Gold.Rescore>
     Score         DG    S(hbond)    S(metal)    S(lipo)     H(rot)  DE(clash)    DE(int)     intcor
     12.13     -13.87       1.83        0.00      89.22       3.19       0.18       1.56       ----

> <Gold.Chemscore.Fitness>
12.1265

> <Gold.Chemscore.DG>
-13.8687

> <Gold.Chemscore.ZeroCoef>
-5.4800

> <Gold.Chemscore.Hbond>
1.8333

> <Gold.Chemscore.Metal>
0.0000

> <Gold.Chemscore.Lipo>
89.2228

> <Gold.Chemscore.Internal_Hbond>
0.0000

> <Gold.Chemscore.DEClash>
0.1815

> <Gold.Chemscore.DEInternal>
1.5607

> <Gold.Chemscore.Rot>
3.1928

> <Gold.Chemscore.Internal.Correction>
   9.000000E+99

> <Gold.Chemscore.Hbonds>
donor molecule, donor type, donor heavy atom, donor atom, acceptor molecule, acceptor atom, score
      L1  H     2    28       P1  7948  0.78
      L1  H    15    47       P1 10171  1.00

> <Gold.Chemscore.Hbond.Weighted>
-6.1233

> <Gold.Chemscore.Metal.Weighted>
-0.0000

> <Gold.Chemscore.Lipo.Weighted>
-10.4391

> <Gold.Chemscore.Internal_Hbond.Weighted>
0.0000

> <Gold.Chemscore.DEClash.Weighted>
0.1815

> <Gold.Chemscore.DEInternal.Weighted>
1.5607

> <Gold.Chemscore.Rot.Weighted>
8.1736

> <Gold.Chemscore.Internal.Correction.Weighted>
   9.000000E+99

> <Gold.Protein.RotatedTorsions>
[ 6907 6896 6895 6894 ] final  -75.33 input  -60.11 | X-H torsion
[ 7974 7965 7964 7962 ] final  -74.84 input  175.53 | X-H torsion
[ 8008 7997 7996 7995 ] final -153.56 input   59.86 | X-H torsion
[ 10167 10162 10161 10158 ] final   22.31 input  -65.29 | X-H torsion
[ 10718 10713 10712 10709 ] final   20.31 input   66.30 | X-H torsion
[ 10763 10752 10751 10750 ] final -127.06 input  -60.55 | X-H torsion
[ 11005 11000 10999 10996 ] final   61.11 input  -57.11 | X-H torsion

> <Gold.Protein.ActiveResidues>
 VAL166  LYS551  ARG553  GLY616  TRP617  ASP618  TYR619  PRO620  LYS621  CYS622 
 ASP623  PHE694  ASN695  SER759  ASP760  ASP761  ALA762  ILE779  LEU786  VAL792 
 PHE793  MET794  SER795  GLU796  ALA797  LYS798  CYS799  TRP800  GLU811  SER814 

> <Gold.Protein.RotatedAtoms>
  150.7063  134.4738  159.5437 H   0  0  0  0  0  0  0  0  0  0  0  0  # atno 6907 bound_to 6896
  152.2388  134.8246  160.0472 H   0  0  0  0  0  0  0  0  0  0  0  0  # atno 6908 bound_to 6896
  151.9035  133.3508  159.3875 H   0  0  0  0  0  0  0  0  0  0  0  0  # atno 6909 bound_to 6896
  145.6338  140.9330  143.1073 H   0  0  0  0  0  0  0  0  0  0  0  0  # atno 7974 bound_to 7965
  155.6728  140.0735  157.2514 H   0  0  0  0  0  0  0  0  0  0  0  0  # atno 8008 bound_to 7997
  154.4120  140.1696  156.1949 H   0  0  0  0  0  0  0  0  0  0  0  0  # atno 8009 bound_to 7997
  155.9602  140.3370  155.6487 H   0  0  0  0  0  0  0  0  0  0  0  0  # atno 8010 bound_to 7997
  140.5358  143.9762  150.6491 H   0  0  0  0  0  0  0  0  0  0  0  0  # atno 10167 bound_to 10162
  157.1227  130.6557  149.5928 H   0  0  0  0  0  0  0  0  0  0  0  0  # atno 10718 bound_to 10713
  154.8750  135.3975  154.3531 H   0  0  0  0  0  0  0  0  0  0  0  0  # atno 10763 bound_to 10752
  153.4314  135.7025  153.6233 H   0  0  0  0  0  0  0  0  0  0  0  0  # atno 10764 bound_to 10752
  153.4853  135.3760  155.2433 H   0  0  0  0  0  0  0  0  0  0  0  0  # atno 10765 bound_to 10752
  140.0184  134.6190  155.9675 H   0  0  0  0  0  0  0  0  0  0  0  0  # atno 11005 bound_to 11000
  144.7183  139.8117  143.7391 LP  0  0  0  0  0  0  0  0  0  0  0  0  # atno 17320 bound_to 7965
  146.1336  139.4376  143.0153 LP  0  0  0  0  0  0  0  0  0  0  0  0  # atno 17321 bound_to 7965
  140.3150  143.3174  152.0841 LP  0  0  0  0  0  0  0  0  0  0  0  0  # atno 17342 bound_to 10162
  139.4970  144.6611  151.6461 LP  0  0  0  0  0  0  0  0  0  0  0  0  # atno 17343 bound_to 10162
  155.9825  130.4839  150.6884 LP  0  0  0  0  0  0  0  0  0  0  0  0  # atno 17370 bound_to 10713
  157.4462  131.0867  151.0893 LP  0  0  0  0  0  0  0  0  0  0  0  0  # atno 17371 bound_to 10713
  141.1758  133.6540  156.4823 LP  0  0  0  0  0  0  0  0  0  0  0  0  # atno 17394 bound_to 11000
  140.4430  134.6998  157.5001 LP  0  0  0  0  0  0  0  0  0  0  0  0  # atno 17395 bound_to 11000

$$$$
