AV-unprocessed.smi:2823|AV-procd|sdf|10885|dock6
  -GOLD-   2272015323D 1   1.00000     0.00000
 Structure written by MMmdl.
 41 42  0  0  0  0  0  0  0  0  2 V2000
  145.6071  133.4612  162.1002 C   0  0  0  0  0  0  0  0  0  0  0  0
  146.2635  134.7358  161.6928 C   0  0  0  0  0  0  0  0  0  0  0  0
  145.5960  135.8799  161.6783 N   0  0  0  0  0  0  0  0  0  0  0  0
  146.5599  136.8044  161.2523 O   0  0  0  0  0  0  0  0  0  0  0  0
  147.7074  136.1056  161.0514 C   0  0  0  0  0  0  0  0  0  0  0  0
  148.8324  136.7130  160.6394 N   0  5  0  0  0  0  0  0  0  0  0  0
  149.2077  136.6268  159.3435 C   0  0  0  0  0  0  0  0  0  0  0  0
  149.2540  135.5982  158.6657 O   0  0  0  0  0  0  0  0  0  0  0  0
  149.5438  137.8063  158.8004 N   0  0  0  0  0  0  0  0  0  0  0  0
  149.9696  138.0478  157.4203 C   0  0  0  0  0  0  0  0  0  0  0  0
  150.7297  139.3997  157.2457 C   0  0  0  0  0  0  0  0  0  0  0  0
  151.5375  139.4649  155.9052 C   0  0  0  0  0  0  0  0  0  0  0  0
  151.1519  140.2484  155.0334 O   0  0  0  0  0  0  0  0  0  0  0  0
  152.6233  138.6781  155.6710 N   0  0  0  0  0  0  0  0  0  0  0  0
  153.2587  138.7035  154.3497 C   0  0  0  0  0  0  0  0  0  0  0  0
  153.2842  137.7516  156.5958 C   0  0  0  0  0  0  0  0  0  0  0  0
  149.6862  140.5495  157.3295 C   0  0  0  0  0  0  0  0  0  0  0  0
  150.4310  141.8115  157.7777 C   0  0  0  0  0  0  0  0  0  0  0  0
  151.6715  141.3111  158.5200 C   0  0  0  0  0  0  0  0  0  0  0  0
  151.6217  139.7783  158.4547 C   0  0  0  0  0  0  0  0  0  0  0  0
  147.5706  134.8074  161.3250 N   0  0  0  0  0  0  0  0  0  0  0  0
  144.5437  133.4812  161.8587 H   0  0  0  0  0  0  0  0  0  0  0  0
  145.7173  133.3096  163.1739 H   0  0  0  0  0  0  0  0  0  0  0  0
  146.0608  132.6161  161.5817 H   0  0  0  0  0  0  0  0  0  0  0  0
  149.4866  138.6160  159.4004 H   0  0  0  0  0  0  0  0  0  0  0  0
  150.6335  137.2245  157.1553 H   0  0  0  0  0  0  0  0  0  0  0  0
  149.1314  137.9380  156.7371 H   0  0  0  0  0  0  0  0  0  0  0  0
  153.6748  139.6902  154.1411 H   0  0  0  0  0  0  0  0  0  0  0  0
  152.5345  138.4638  153.5692 H   0  0  0  0  0  0  0  0  0  0  0  0
  154.0706  137.9799  154.2638 H   0  0  0  0  0  0  0  0  0  0  0  0
  152.9798  137.8262  157.6339 H   0  0  0  0  0  0  0  0  0  0  0  0
  154.3615  137.9199  156.5850 H   0  0  0  0  0  0  0  0  0  0  0  0
  153.1097  136.7235  156.2780 H   0  0  0  0  0  0  0  0  0  0  0  0
  149.1288  140.7090  156.4052 H   0  0  0  0  0  0  0  0  0  0  0  0
  148.9384  140.3138  158.0883 H   0  0  0  0  0  0  0  0  0  0  0  0
  150.7283  142.4061  156.9134 H   0  0  0  0  0  0  0  0  0  0  0  0
  149.8033  142.4429  158.4072 H   0  0  0  0  0  0  0  0  0  0  0  0
  152.5701  141.6813  158.0246 H   0  0  0  0  0  0  0  0  0  0  0  0
  151.6996  141.6632  159.5516 H   0  0  0  0  0  0  0  0  0  0  0  0
  151.1736  139.3965  159.3730 H   0  0  0  0  0  0  0  0  0  0  0  0
  152.6355  139.3855  158.4175 H   0  0  0  0  0  0  0  0  0  0  0  0
  1  2  1  0  0  0  0
  1 22  1  0  0  0  0
  1 23  1  0  0  0  0
  1 24  1  0  0  0  0
  2 21  1  0  0  0  0
  2  3  2  0  0  0  0
  3  4  1  0  0  0  0
  4  5  1  0  0  0  0
  5  6  1  0  0  0  0
  5 21  2  0  0  0  0
  6  7  1  0  0  0  0
  7  8  2  0  0  0  0
  7  9  1  0  0  0  0
  9 10  1  0  0  0  0
  9 25  1  0  0  0  0
 10 11  1  0  0  0  0
 10 26  1  0  0  0  0
 10 27  1  0  0  0  0
 11 20  1  0  0  0  0
 11 12  1  0  0  0  0
 11 17  1  0  0  0  0
 12 13  2  0  0  0  0
 12 14  1  0  0  0  0
 14 15  1  0  0  0  0
 14 16  1  0  0  0  0
 15 28  1  0  0  0  0
 15 29  1  0  0  0  0
 15 30  1  0  0  0  0
 16 31  1  0  0  0  0
 16 32  1  0  0  0  0
 16 33  1  0  0  0  0
 17 18  1  0  0  0  0
 17 34  1  0  0  0  0
 17 35  1  0  0  0  0
 18 19  1  0  0  0  0
 18 36  1  0  0  0  0
 18 37  1  0  0  0  0
 19 20  1  0  0  0  0
 19 38  1  0  0  0  0
 19 39  1  0  0  0  0
 20 40  1  0  0  0  0
 20 41  1  0  0  0  0
M  CHG  1   6  -1
M  END
> <s_m_source_file>
AV-unprocessed.smi

> <i_m_source_file_index>
2823

> <i_lp_mmshare_version>
43012

> <i_f3d_flags>
0

> <s_epik_input>
W0NIM11jMW5vYyhuMSlbTkhdQyg9TylbTkhdW0NIMl1DMihDKD1PKU4oW0NIM10pW0NIM10pW0NIMl1bQ0gyXVtDSDJdW0NIMl0y

> <s_epik_cmdline>
J2VwaWtfcHl0aG9uJywgJy1waCcsICc3LjAnLCAnLXRuJywgJzgnLCAnLW1hJywgJzIwMCcsICctbWV0YWxfYmluZGluZycsICctaW1hZScsICc8aW5maWxlLm1hZT4nLCAnLW9tYWUnLCAnPG91dGZpbGUubWFlPic=

> <r_lp_tautomer_probability>
1

> <r_epik_Ionization_Penalty>
6.03325

> <r_epik_Ionization_Penalty_Charging>
6.03318

> <r_epik_Ionization_Penalty_Neutral>
6.91426e-05

> <r_epik_State_Penalty>
6.03316

> <r_epik_Charging_Adjusted_Penalty>
12.0663

> <i_epik_Tot_Q>
-1

> <i_epik_Tot_abs_Q>
1

> <r_epik_Metal_State_Penalty>
1.98358

> <b_epik_Metal_Only>
1

> <s_lp_Force_Field>
OPLS_2005

> <r_lp_Energy>
29.6758

> <b_lp_Chiralities_Consistent>
1

> <s_lp_Variant>
AV-unprocessed.smi:2823-2

> <Gold.Version>
5.8.1

> <Gold.Id.Protein>
6NUR|6NUR_protein|mol2

> <Gold.PLP.Fitness>
43.8203

> <Gold.PLP.PLP>
-32.7179

> <Gold.PLP.part.hbond>
-4.1841

> <Gold.PLP.part.metal>
0.0000

> <Gold.PLP.part.buried>
-6.2373

> <Gold.PLP.part.nonpolar>
-23.1792

> <Gold.PLP.part.repulsive>
0.2688

> <Gold.PLP.ligand.clash>
0.0000

> <Gold.PLP.ligand.torsion>
1.6776

> <Gold.PLP.Chemscore.Hbond>
4.7513

> <Gold.PLP.Chemscore.CHOScore>
0.0000

> <Gold.PLP.Chemscore.Metal>
0.0000

> <Gold.Chemscore.Hbonds>
donor molecule, donor type, donor heavy atom, donor atom, acceptor molecule, acceptor atom, score
      P1  H  6896  6907       L1     8  1.00
      P1  H  6931  6943       L1     6  1.79
      P1  H  6934  6947       L1     4  0.28
      P1  H  7989  7998       L1    13  1.00

> <Gold.PLP.Chemscore.Internal.Correction>
0.2039

> <Gold.Rescore>
     Score         DG    S(hbond)    S(metal)    S(lipo)     H(rot)  DE(clash)    DE(int)     intcor
     14.78     -16.51       2.93        0.00      48.11       1.71       0.07       1.66       ----

> <Gold.Chemscore.Fitness>
14.7817

> <Gold.Chemscore.DG>
-16.5114

> <Gold.Chemscore.ZeroCoef>
-5.4800

> <Gold.Chemscore.Hbond>
2.9320

> <Gold.Chemscore.Metal>
0.0000

> <Gold.Chemscore.Lipo>
48.1072

> <Gold.Chemscore.Internal_Hbond>
0.0000

> <Gold.Chemscore.DEClash>
0.0678

> <Gold.Chemscore.DEInternal>
1.6619

> <Gold.Chemscore.Rot>
1.7149

> <Gold.Chemscore.Internal.Correction>
   9.000000E+99

> <Gold.Chemscore.Hbonds>
donor molecule, donor type, donor heavy atom, donor atom, acceptor molecule, acceptor atom, score
      P1  H  6896  6907       L1     8  0.58
      P1  H  6931  6943       L1     6  0.43
      P1  H  6934  6947       L1     4  0.13
      P1  H  7989  7998       L1    13  0.99

> <Gold.Chemscore.Hbond.Weighted>
-9.7930

> <Gold.Chemscore.Metal.Weighted>
-0.0000

> <Gold.Chemscore.Lipo.Weighted>
-5.6285

> <Gold.Chemscore.Internal_Hbond.Weighted>
0.0000

> <Gold.Chemscore.DEClash.Weighted>
0.0678

> <Gold.Chemscore.DEInternal.Weighted>
1.6619

> <Gold.Chemscore.Rot.Weighted>
4.3901

> <Gold.Chemscore.Internal.Correction.Weighted>
   9.000000E+99

> <Gold.Protein.RotatedTorsions>
[ 6907 6896 6895 6894 ] final  -81.50 input  -60.11 | X-H torsion
[ 7974 7965 7964 7962 ] final -156.14 input  175.53 | X-H torsion
[ 8008 7997 7996 7995 ] final  -71.85 input   59.86 | X-H torsion
[ 10167 10162 10161 10158 ] final  122.44 input  -65.29 | X-H torsion
[ 10718 10713 10712 10709 ] final -111.26 input   66.30 | X-H torsion
[ 10763 10752 10751 10750 ] final  115.58 input  -60.55 | X-H torsion
[ 11005 11000 10999 10996 ] final  154.84 input  -57.11 | X-H torsion

> <Gold.Protein.ActiveResidues>
 VAL166  LYS551  ARG553  GLY616  TRP617  ASP618  TYR619  PRO620  LYS621  CYS622 
 ASP623  PHE694  ASN695  SER759  ASP760  ASP761  ALA762  ILE779  LEU786  VAL792 
 PHE793  MET794  SER795  GLU796  ALA797  LYS798  CYS799  TRP800  GLU811  SER814 

> <Gold.Protein.RotatedAtoms>
  150.6911  134.3808  159.5033 H   0  0  0  0  0  0  0  0  0  0  0  0  # atno 6907 bound_to 6896
  152.1611  134.8909  160.0550 H   0  0  0  0  0  0  0  0  0  0  0  0  # atno 6908 bound_to 6896
  151.9970  133.3777  159.4204 H   0  0  0  0  0  0  0  0  0  0  0  0  # atno 6909 bound_to 6896
  144.7607  140.4152  143.5979 H   0  0  0  0  0  0  0  0  0  0  0  0  # atno 7974 bound_to 7965
  154.5120  140.0808  156.8007 H   0  0  0  0  0  0  0  0  0  0  0  0  # atno 8008 bound_to 7997
  155.3765  140.3425  155.4227 H   0  0  0  0  0  0  0  0  0  0  0  0  # atno 8009 bound_to 7997
  156.1584  140.1580  156.8641 H   0  0  0  0  0  0  0  0  0  0  0  0  # atno 8010 bound_to 7997
  139.5859  144.7006  151.3411 H   0  0  0  0  0  0  0  0  0  0  0  0  # atno 10167 bound_to 10162
  156.0637  130.5858  150.8350 H   0  0  0  0  0  0  0  0  0  0  0  0  # atno 10718 bound_to 10713
  153.5243  135.3591  155.2646 H   0  0  0  0  0  0  0  0  0  0  0  0  # atno 10763 bound_to 10752
  154.8732  135.4053  154.3224 H   0  0  0  0  0  0  0  0  0  0  0  0  # atno 10764 bound_to 10752
  153.3900  135.7071  153.6569 H   0  0  0  0  0  0  0  0  0  0  0  0  # atno 10765 bound_to 10752
  140.1526  134.8664  157.2474 H   0  0  0  0  0  0  0  0  0  0  0  0  # atno 11005 bound_to 11000
  145.6629  139.1584  143.2798 LP  0  0  0  0  0  0  0  0  0  0  0  0  # atno 17320 bound_to 7965
  146.1667  140.6708  142.9252 LP  0  0  0  0  0  0  0  0  0  0  0  0  # atno 17321 bound_to 7965
  140.7130  143.7340  150.7603 LP  0  0  0  0  0  0  0  0  0  0  0  0  # atno 17342 bound_to 10162
  140.0884  143.4901  152.2492 LP  0  0  0  0  0  0  0  0  0  0  0  0  # atno 17343 bound_to 10162
  157.5664  131.0946  150.9483 LP  0  0  0  0  0  0  0  0  0  0  0  0  # atno 17370 bound_to 10713
  156.9709  130.5490  149.5290 LP  0  0  0  0  0  0  0  0  0  0  0  0  # atno 17371 bound_to 10713
  140.2586  134.3598  155.7415 LP  0  0  0  0  0  0  0  0  0  0  0  0  # atno 17394 bound_to 11000
  141.2201  133.7356  156.9045 LP  0  0  0  0  0  0  0  0  0  0  0  0  # atno 17395 bound_to 11000

$$$$
