AV-unprocessed.smi:1622|AV-procd|sdf|6499|dock5
  -GOLD-   22720 7163D 1   1.00000     0.00000
 Structure written by MMmdl.
 40 41  0  0  0  0  0  0  0  0  3 V2000
  144.6533  135.5688  155.7758 C   0  0  0  0  0  0  0  0  0  0  0  0
  144.9006  135.1573  154.3160 C   0  0  0  0  0  0  0  0  0  0  0  0
  146.2386  135.6696  153.7159 C   0  0  2  0  0  0  0  0  0  0  0  0
  146.3395  137.2153  153.7326 C   0  0  0  0  0  0  0  0  0  0  0  0
  147.7200  137.6699  153.6203 N   0  0  0  0  0  0  0  0  0  0  0  0
  148.2929  138.6061  154.3871 C   0  0  0  0  0  0  0  0  0  0  0  0
  147.6346  139.1694  155.2644 O   0  0  0  0  0  0  0  0  0  0  0  0
  149.5929  138.8273  154.0905 N   0  5  0  0  0  0  0  0  0  0  0  0
  150.4387  139.2427  155.0480 C   0  0  0  0  0  0  0  0  0  0  0  0
  151.7671  139.2733  154.8700 N   0  0  0  0  0  0  0  0  0  0  0  0
  152.4551  139.7306  155.9848 N   0  0  0  0  0  0  0  0  0  0  0  0
  151.6343  140.0306  156.9942 C   0  0  0  0  0  0  0  0  0  0  0  0
  152.1248  140.5414  158.3055 C   0  0  0  0  0  0  0  0  0  0  0  0
  149.9322  139.7706  156.6524 S   0  0  0  0  0  0  0  0  0  0  0  0
  146.4656  135.1170  152.3481 N   0  3  0  0  0  0  0  0  0  0  0  0
  146.6323  133.6499  152.2627 C   0  0  0  0  0  0  0  0  0  0  0  0
  146.3676  133.3076  150.8011 C   0  0  0  0  0  0  0  0  0  0  0  0
  145.2471  134.2682  150.4211 C   0  0  0  0  0  0  0  0  0  0  0  0
  145.4450  135.4863  151.3342 C   0  0  0  0  0  0  0  0  0  0  0  0
  143.6846  135.2033  156.1170 H   0  0  0  0  0  0  0  0  0  0  0  0
  144.6556  136.6524  155.8926 H   0  0  0  0  0  0  0  0  0  0  0  0
  145.4089  135.1550  156.4437 H   0  0  0  0  0  0  0  0  0  0  0  0
  144.8618  134.0696  154.2512 H   0  0  0  0  0  0  0  0  0  0  0  0
  144.0602  135.4951  153.7106 H   0  0  0  0  0  0  0  0  0  0  0  0
  147.0433  135.2897  154.3479 H   0  0  0  0  0  0  0  0  0  0  0  0
  145.7933  137.6513  152.8959 H   0  0  0  0  0  0  0  0  0  0  0  0
  145.8866  137.6109  154.6432 H   0  0  0  0  0  0  0  0  0  0  0  0
  148.2930  137.2368  152.9108 H   0  0  0  0  0  0  0  0  0  0  0  0
  152.7433  139.7874  158.7926 H   0  0  0  0  0  0  0  0  0  0  0  0
  151.2852  140.7801  158.9587 H   0  0  0  0  0  0  0  0  0  0  0  0
  152.7195  141.4431  158.1577 H   0  0  0  0  0  0  0  0  0  0  0  0
  147.6253  133.3310  152.5809 H   0  0  0  0  0  0  0  0  0  0  0  0
  145.8932  133.1567  152.8966 H   0  0  0  0  0  0  0  0  0  0  0  0
  147.2560  133.5186  150.2044 H   0  0  0  0  0  0  0  0  0  0  0  0
  146.1001  132.2611  150.6511 H   0  0  0  0  0  0  0  0  0  0  0  0
  145.2647  134.5294  149.3627 H   0  0  0  0  0  0  0  0  0  0  0  0
  144.2818  133.8059  150.6311 H   0  0  0  0  0  0  0  0  0  0  0  0
  144.4937  135.7518  151.7975 H   0  0  0  0  0  0  0  0  0  0  0  0
  145.7944  136.3528  150.7719 H   0  0  0  0  0  0  0  0  0  0  0  0
  147.3373  135.5072  152.0192 H   0  0  0  0  0  0  0  0  0  0  0  0
  1  2  1  0  0  0  0
  1 20  1  0  0  0  0
  1 21  1  0  0  0  0
  1 22  1  0  0  0  0
  2  3  1  0  0  0  0
  2 23  1  0  0  0  0
  2 24  1  0  0  0  0
  3  4  1  0  0  0  0
  3 15  1  0  0  0  0
  3 25  1  0  0  0  0
  4  5  1  0  0  0  0
  4 26  1  0  0  0  0
  4 27  1  0  0  0  0
  5  6  1  0  0  0  0
  5 28  1  0  0  0  0
  6  7  2  0  0  0  0
  6  8  1  0  0  0  0
  8  9  1  0  0  0  0
  9 14  1  0  0  0  0
  9 10  2  0  0  0  0
 10 11  1  0  0  0  0
 11 12  2  0  0  0  0
 12 13  1  0  0  0  0
 12 14  1  0  0  0  0
 13 29  1  0  0  0  0
 13 30  1  0  0  0  0
 13 31  1  0  0  0  0
 15 19  1  0  0  0  0
 15 16  1  0  0  0  0
 15 40  1  0  0  0  0
 16 17  1  0  0  0  0
 16 32  1  0  0  0  0
 16 33  1  0  0  0  0
 17 18  1  0  0  0  0
 17 34  1  0  0  0  0
 17 35  1  0  0  0  0
 18 19  1  0  0  0  0
 18 36  1  0  0  0  0
 18 37  1  0  0  0  0
 19 38  1  0  0  0  0
 19 39  1  0  0  0  0
M  CHG  1   8  -1
M  CHG  1  15   1
M  END
> <s_m_source_file>
AV-unprocessed.smi

> <i_m_source_file_index>
1622

> <i_lp_mmshare_version>
43012

> <i_f3d_flags>
0

> <s_epik_input>
W0NIMl0xW0NIMl1bQ0gyXVtDSDJdTjFbQ0BIXShbQ0gyXVtDSDNdKVtDSDJdW05IXUMoPU8pW05IXWMybm5jKHMyKVtDSDNd

> <s_epik_cmdline>
J2VwaWtfcHl0aG9uJywgJy1waCcsICc3LjAnLCAnLXRuJywgJzgnLCAnLW1hJywgJzIwMCcsICctbWV0YWxfYmluZGluZycsICctaW1hZScsICc8aW5maWxlLm1hZT4nLCAnLW9tYWUnLCAnPG91dGZpbGUubWFlPic=

> <r_lp_tautomer_probability>
1

> <r_epik_Ionization_Penalty>
4.34497

> <r_epik_Ionization_Penalty_Charging>
4.23453

> <r_epik_Ionization_Penalty_Neutral>
0.110433

> <r_epik_State_Penalty>
4.23293

> <r_epik_Charging_Adjusted_Penalty>
8.46746

> <i_epik_Tot_Q>
0

> <i_epik_Tot_abs_Q>
2

> <r_epik_Metal_State_Penalty>
0.701092

> <b_epik_Metal_Only>
1

> <s_lp_Force_Field>
OPLS_2005

> <r_lp_Energy>
26.4527

> <b_lp_Chiralities_Consistent>
1

> <s_lp_Variant>
AV-unprocessed.smi:1622-3

> <Gold.Version>
5.8.1

> <Gold.Id.Protein>
6NUR|6NUR_protein|mol2

> <Gold.PLP.Fitness>
37.9098

> <Gold.PLP.PLP>
-23.5586

> <Gold.PLP.part.hbond>
-4.0000

> <Gold.PLP.part.metal>
0.0000

> <Gold.PLP.part.buried>
-2.9981

> <Gold.PLP.part.nonpolar>
-16.0803

> <Gold.PLP.part.repulsive>
0.3164

> <Gold.PLP.ligand.clash>
0.0000

> <Gold.PLP.ligand.torsion>
0.4657

> <Gold.PLP.Chemscore.Hbond>
5.0000

> <Gold.PLP.Chemscore.CHOScore>
0.0000

> <Gold.PLP.Chemscore.Metal>
0.0000

> <Gold.Chemscore.Hbonds>
donor molecule, donor type, donor heavy atom, donor atom, acceptor molecule, acceptor atom, score
      L1  H     5    28       P1  7948  1.00
      L1  H    15    40       P1  7948  2.00
      P1  H  7989  7998       L1    10  0.54
      P1  H  7997  8008       L1    11  1.00

> <Gold.PLP.Chemscore.Internal.Correction>
0.2826

> <Gold.Rescore>
     Score         DG    S(hbond)    S(metal)    S(lipo)     H(rot)  DE(clash)    DE(int)     intcor
     16.17     -18.16       3.65        0.00      42.05       1.73       0.10       1.89       ----

> <Gold.Chemscore.Fitness>
16.1713

> <Gold.Chemscore.DG>
-18.1648

> <Gold.Chemscore.ZeroCoef>
-5.4800

> <Gold.Chemscore.Hbond>
3.6544

> <Gold.Chemscore.Metal>
0.0000

> <Gold.Chemscore.Lipo>
42.0529

> <Gold.Chemscore.Internal_Hbond>
0.0000

> <Gold.Chemscore.DEClash>
0.1004

> <Gold.Chemscore.DEInternal>
1.8931

> <Gold.Chemscore.Rot>
1.7348

> <Gold.Chemscore.Internal.Correction>
   9.000000E+99

> <Gold.Chemscore.Hbonds>
donor molecule, donor type, donor heavy atom, donor atom, acceptor molecule, acceptor atom, score
      L1  H     5    28       P1  7948  0.98
      L1  H    15    40       P1  7948  1.00
      P1  H  7989  7998       L1    10  0.03
      P1  H  7997  8008       L1    11  0.95

> <Gold.Chemscore.Hbond.Weighted>
-12.2057

> <Gold.Chemscore.Metal.Weighted>
-0.0000

> <Gold.Chemscore.Lipo.Weighted>
-4.9202

> <Gold.Chemscore.Internal_Hbond.Weighted>
0.0000

> <Gold.Chemscore.DEClash.Weighted>
0.1004

> <Gold.Chemscore.DEInternal.Weighted>
1.8931

> <Gold.Chemscore.Rot.Weighted>
4.4411

> <Gold.Chemscore.Internal.Correction.Weighted>
   9.000000E+99

> <Gold.Protein.RotatedTorsions>
[ 6907 6896 6895 6894 ] final   19.63 input  -60.11 | X-H torsion
[ 7974 7965 7964 7962 ] final   90.26 input  175.53 | X-H torsion
[ 8008 7997 7996 7995 ] final  -34.96 input   59.86 | X-H torsion
[ 10167 10162 10161 10158 ] final   23.27 input  -65.29 | X-H torsion
[ 10718 10713 10712 10709 ] final  171.20 input   66.30 | X-H torsion
[ 10763 10752 10751 10750 ] final  -10.32 input  -60.55 | X-H torsion
[ 11005 11000 10999 10996 ] final  166.93 input  -57.11 | X-H torsion

> <Gold.Protein.ActiveResidues>
 VAL166  LYS551  ARG553  GLY616  TRP617  ASP618  TYR619  PRO620  LYS621  CYS622 
 ASP623  PHE694  ASN695  SER759  ASP760  ASP761  ALA762  ILE779  LEU786  VAL792 
 PHE793  MET794  SER795  GLU796  ALA797  LYS798  CYS799  TRP800  GLU811  SER814 

> <Gold.Protein.RotatedAtoms>
  151.8838  135.0443  160.0491 H   0  0  0  0  0  0  0  0  0  0  0  0  # atno 6907 bound_to 6896
  152.2491  133.5195  159.5323 H   0  0  0  0  0  0  0  0  0  0  0  0  # atno 6908 bound_to 6896
  150.7078  134.0901  159.3971 H   0  0  0  0  0  0  0  0  0  0  0  0  # atno 6909 bound_to 6896
  145.5213  139.2279  143.2670 H   0  0  0  0  0  0  0  0  0  0  0  0  # atno 7974 bound_to 7965
  154.4107  140.1670  156.2134 H   0  0  0  0  0  0  0  0  0  0  0  0  # atno 8008 bound_to 7997
  155.9425  140.3407  155.6316 H   0  0  0  0  0  0  0  0  0  0  0  0  # atno 8009 bound_to 7997
  155.6972  140.0740  157.2415 H   0  0  0  0  0  0  0  0  0  0  0  0  # atno 8010 bound_to 7997
  140.5282  143.9887  150.6451 H   0  0  0  0  0  0  0  0  0  0  0  0  # atno 10167 bound_to 10162
  156.9970  131.0164  151.2841 H   0  0  0  0  0  0  0  0  0  0  0  0  # atno 10718 bound_to 10713
  153.4675  135.7016  153.6013 H   0  0  0  0  0  0  0  0  0  0  0  0  # atno 10763 bound_to 10752
  153.4281  135.3809  155.2153 H   0  0  0  0  0  0  0  0  0  0  0  0  # atno 10764 bound_to 10752
  154.8726  135.3944  154.4109 H   0  0  0  0  0  0  0  0  0  0  0  0  # atno 10765 bound_to 10752
  140.2715  134.7823  157.3679 H   0  0  0  0  0  0  0  0  0  0  0  0  # atno 11005 bound_to 11000
  146.2104  140.6025  142.9062 LP  0  0  0  0  0  0  0  0  0  0  0  0  # atno 17320 bound_to 7965
  144.7674  140.5562  143.6693 LP  0  0  0  0  0  0  0  0  0  0  0  0  # atno 17321 bound_to 7965
  140.3254  143.3110  152.0741 LP  0  0  0  0  0  0  0  0  0  0  0  0  # atno 17342 bound_to 10162
  139.4945  144.6545  151.6603 LP  0  0  0  0  0  0  0  0  0  0  0  0  # atno 17343 bound_to 10162
  157.5418  130.8125  149.8038 LP  0  0  0  0  0  0  0  0  0  0  0  0  # atno 17370 bound_to 10713
  156.0185  130.3804  150.2034 LP  0  0  0  0  0  0  0  0  0  0  0  0  # atno 17371 bound_to 10713
  140.1368  134.5023  155.8062 LP  0  0  0  0  0  0  0  0  0  0  0  0  # atno 17394 bound_to 11000
  141.2176  133.6810  156.7139 LP  0  0  0  0  0  0  0  0  0  0  0  0  # atno 17395 bound_to 11000

$$$$
