AV-unprocessed.smi:2691|AV-procd|sdf|10390|dock9
  -GOLD-   2272014423D 1   1.00000     0.00000
 Structure written by MMmdl.
 49 51  0  0  0  0  0  0  0  0  1 V2000
  152.3465  142.9789  161.5668 C   0  0  0  0  0  0  0  0  0  0  0  0
  151.8602  142.5541  160.1926 C   0  0  0  0  0  0  0  0  0  0  0  0
  152.3244  141.3368  159.6455 C   0  0  0  0  0  0  0  0  0  0  0  0
  151.9004  140.9079  158.3689 C   0  0  0  0  0  0  0  0  0  0  0  0
  152.2221  139.7685  157.6515 N   0  0  0  0  0  0  0  0  0  0  0  0
  151.5161  139.9452  156.5387 C   0  0  0  0  0  0  0  0  0  0  0  0
  150.7812  141.0702  156.4457 N   0  0  0  0  0  0  0  0  0  0  0  0
  149.9493  141.4844  155.3299 C   0  0  0  0  0  0  0  0  0  0  0  0
  149.2201  140.2981  154.6677 C   0  0  2  0  0  0  0  0  0  0  0  0
  150.1473  139.6757  153.8022 O   0  0  0  0  0  0  0  0  0  0  0  0
  147.9751  140.7124  153.8444 C   0  0  0  0  0  0  0  0  0  0  0  0
  147.2316  139.5424  153.3527 N   0  0  0  0  0  0  0  0  0  0  0  0
  147.2683  139.3160  151.9642 C   0  0  0  0  0  0  0  0  0  0  0  0
  146.6595  138.3102  151.4217 N   0  0  0  0  0  0  0  0  0  0  0  0
  145.9431  137.4142  152.2251 C   0  0  0  0  0  0  0  0  0  0  0  0
  145.2516  136.2445  151.5368 C   0  0  0  0  0  0  0  0  0  0  0  0
  144.4069  135.4225  152.5238 C   0  0  0  0  0  0  0  0  0  0  0  0
  146.2620  135.3621  150.7879 C   0  0  0  0  0  0  0  0  0  0  0  0
  145.8849  137.5870  153.5672 C   0  0  0  0  0  0  0  0  0  0  0  0
  146.5628  138.7142  154.2076 C   0  0  0  0  0  0  0  0  0  0  0  0
  146.5370  138.8992  155.4244 O   0  0  0  0  0  0  0  0  0  0  0  0
  150.9932  141.7376  157.6473 C   0  0  0  0  0  0  0  0  0  0  0  0
  150.5195  142.9482  158.1833 C   0  0  0  0  0  0  0  0  0  0  0  0
  150.9528  143.3614  159.4605 C   0  0  0  0  0  0  0  0  0  0  0  0
  150.4386  144.6722  160.0287 C   0  0  0  0  0  0  0  0  0  0  0  0
  153.0621  142.2641  161.9744 H   0  0  0  0  0  0  0  0  0  0  0  0
  151.5105  143.0496  162.2629 H   0  0  0  0  0  0  0  0  0  0  0  0
  152.8385  143.9503  161.5146 H   0  0  0  0  0  0  0  0  0  0  0  0
  153.0143  140.7207  160.2031 H   0  0  0  0  0  0  0  0  0  0  0  0
  151.5435  139.2198  155.7388 H   0  0  0  0  0  0  0  0  0  0  0  0
  149.2303  142.2252  155.6833 H   0  0  0  0  0  0  0  0  0  0  0  0
  150.5892  141.9889  154.6044 H   0  0  0  0  0  0  0  0  0  0  0  0
  148.9484  139.5793  155.4417 H   0  0  0  0  0  0  0  0  0  0  0  0
  149.7816  139.6594  152.9310 H   0  0  0  0  0  0  0  0  0  0  0  0
  147.2924  141.3066  154.4525 H   0  0  0  0  0  0  0  0  0  0  0  0
  148.2544  141.3933  153.0374 H   0  0  0  0  0  0  0  0  0  0  0  0
  147.8443  140.0402  151.3856 H   0  0  0  0  0  0  0  0  0  0  0  0
  144.5674  136.6549  150.7929 H   0  0  0  0  0  0  0  0  0  0  0  0
  143.6765  136.0515  153.0334 H   0  0  0  0  0  0  0  0  0  0  0  0
  145.0266  134.9469  153.2847 H   0  0  0  0  0  0  0  0  0  0  0  0
  143.8582  134.6347  152.0068 H   0  0  0  0  0  0  0  0  0  0  0  0
  146.8389  135.9481  150.0717 H   0  0  0  0  0  0  0  0  0  0  0  0
  145.7554  134.5717  150.2336 H   0  0  0  0  0  0  0  0  0  0  0  0
  146.9653  134.8878  151.4732 H   0  0  0  0  0  0  0  0  0  0  0  0
  145.3342  136.8896  154.1815 H   0  0  0  0  0  0  0  0  0  0  0  0
  149.8314  143.5553  157.6141 H   0  0  0  0  0  0  0  0  0  0  0  0
  149.7069  145.1335  159.3648 H   0  0  0  0  0  0  0  0  0  0  0  0
  151.2598  145.3763  160.1644 H   0  0  0  0  0  0  0  0  0  0  0  0
  149.9573  144.5100  160.9935 H   0  0  0  0  0  0  0  0  0  0  0  0
  1  2  1  0  0  0  0
  1 26  1  0  0  0  0
  1 27  1  0  0  0  0
  1 28  1  0  0  0  0
  2 24  1  0  0  0  0
  2  3  2  0  0  0  0
  3  4  1  0  0  0  0
  3 29  1  0  0  0  0
  4 22  2  0  0  0  0
  4  5  1  0  0  0  0
  5  6  2  0  0  0  0
  6  7  1  0  0  0  0
  6 30  1  0  0  0  0
  7  8  1  0  0  0  0
  7 22  1  0  0  0  0
  8  9  1  0  0  0  0
  8 31  1  0  0  0  0
  8 32  1  0  0  0  0
  9 10  1  0  0  0  0
  9 11  1  0  0  0  0
  9 33  1  0  0  0  0
 10 34  1  0  0  0  0
 11 12  1  0  0  0  0
 11 35  1  0  0  0  0
 11 36  1  0  0  0  0
 12 20  1  0  0  0  0
 12 13  1  0  0  0  0
 13 14  2  0  0  0  0
 13 37  1  0  0  0  0
 14 15  1  0  0  0  0
 15 16  1  0  0  0  0
 15 19  2  0  0  0  0
 16 17  1  0  0  0  0
 16 18  1  0  0  0  0
 16 38  1  0  0  0  0
 17 39  1  0  0  0  0
 17 40  1  0  0  0  0
 17 41  1  0  0  0  0
 18 42  1  0  0  0  0
 18 43  1  0  0  0  0
 18 44  1  0  0  0  0
 19 20  1  0  0  0  0
 19 45  1  0  0  0  0
 20 21  2  0  0  0  0
 22 23  1  0  0  0  0
 23 24  2  0  0  0  0
 23 46  1  0  0  0  0
 24 25  1  0  0  0  0
 25 47  1  0  0  0  0
 25 48  1  0  0  0  0
 25 49  1  0  0  0  0
M  END
> <s_m_source_file>
AV-unprocessed.smi

> <i_m_source_file_index>
2691

> <i_lp_mmshare_version>
43012

> <i_f3d_flags>
0

> <s_epik_input>
W0NIM11jKFtjSF0xKWMoW0NIM10pW2NIXWMoYzEyKW4oW2NIXW4yKVtDSDJdW0NASF0oW09IXSlbQ0gyXW4zW2NIXW5jKFtDSF0oW0NIM10pW0NIM10pW2NIXWMzPU8=

> <s_epik_cmdline>
J2VwaWtfcHl0aG9uJywgJy1waCcsICc3LjAnLCAnLXRuJywgJzgnLCAnLW1hJywgJzIwMCcsICctbWV0YWxfYmluZGluZycsICctaW1hZScsICc8aW5maWxlLm1hZT4nLCAnLW9tYWUnLCAnPG91dGZpbGUubWFlPic=

> <r_lp_tautomer_probability>
1

> <r_epik_Ionization_Penalty>
0.113357

> <r_epik_Ionization_Penalty_Charging>
3.84185e-08

> <r_epik_Ionization_Penalty_Neutral>
0.113357

> <r_epik_State_Penalty>
0.103025

> <r_epik_Charging_Adjusted_Penalty>
0.103025

> <i_epik_Tot_Q>
0

> <i_epik_Tot_abs_Q>
0

> <r_epik_Metal_State_Penalty>
0.0863451

> <b_epik_Metal_Only>
0

> <s_lp_Force_Field>
OPLS_2005

> <r_lp_Energy>
18.3457

> <b_lp_Chiralities_Consistent>
1

> <s_lp_Variant>
AV-unprocessed.smi:2691-1

> <Gold.Version>
5.8.1

> <Gold.Id.Protein>
6NUR|6NUR_protein|mol2

> <Gold.PLP.Fitness>
58.8957

> <Gold.PLP.PLP>
-48.6629

> <Gold.PLP.part.hbond>
-3.0000

> <Gold.PLP.part.metal>
0.0000

> <Gold.PLP.part.buried>
-4.1570

> <Gold.PLP.part.nonpolar>
-41.2769

> <Gold.PLP.part.repulsive>
0.3563

> <Gold.PLP.ligand.clash>
0.0000

> <Gold.PLP.ligand.torsion>
0.6403

> <Gold.PLP.Chemscore.Hbond>
2.8960

> <Gold.PLP.Chemscore.CHOScore>
0.9209

> <Gold.PLP.Chemscore.Metal>
0.0000

> <Gold.Chemscore.Hbonds>
donor molecule, donor type, donor heavy atom, donor atom, acceptor molecule, acceptor atom, score
      L1  H    10    34       P1  7957  1.00
      P1  H  7954  7966       L1    14  0.51
      P1  H  7989  7998       L1    10  0.84
      P1  H  7997  8008       L1     5  0.10
      L1  C    13    37       P1  7957  0.24

> <Gold.PLP.Chemscore.Internal.Correction>
0.0627

> <Gold.Rescore>
     Score         DG    S(hbond)    S(metal)    S(lipo)     H(rot)  DE(clash)    DE(int)     intcor
     18.61     -19.56       2.28        0.00     109.03       2.45       0.27       0.68       ----

> <Gold.Chemscore.Fitness>
18.6087

> <Gold.Chemscore.DG>
-19.5642

> <Gold.Chemscore.ZeroCoef>
-5.4800

> <Gold.Chemscore.Hbond>
2.2780

> <Gold.Chemscore.Metal>
0.0000

> <Gold.Chemscore.Lipo>
109.0343

> <Gold.Chemscore.Internal_Hbond>
0.0000

> <Gold.Chemscore.DEClash>
0.2747

> <Gold.Chemscore.DEInternal>
0.6807

> <Gold.Chemscore.Rot>
2.4536

> <Gold.Chemscore.Internal.Correction>
   9.000000E+99

> <Gold.Chemscore.Hbonds>
donor molecule, donor type, donor heavy atom, donor atom, acceptor molecule, acceptor atom, score
      L1  H    10    34       P1  7957  0.99
      P1  H  7954  7966       L1    14  0.09
      P1  H  7989  7998       L1    10  0.12
      P1  H  7997  8008       L1     5  0.02

> <Gold.Chemscore.Hbond.Weighted>
-7.6084

> <Gold.Chemscore.Metal.Weighted>
-0.0000

> <Gold.Chemscore.Lipo.Weighted>
-12.7570

> <Gold.Chemscore.Internal_Hbond.Weighted>
0.0000

> <Gold.Chemscore.DEClash.Weighted>
0.2747

> <Gold.Chemscore.DEInternal.Weighted>
0.6807

> <Gold.Chemscore.Rot.Weighted>
6.2812

> <Gold.Chemscore.Internal.Correction.Weighted>
   9.000000E+99

> <Gold.Protein.RotatedTorsions>
[ 6907 6896 6895 6894 ] final  -19.33 input  -60.11 | X-H torsion
[ 7974 7965 7964 7962 ] final  -21.53 input  175.53 | X-H torsion
[ 8008 7997 7996 7995 ] final  -71.06 input   59.86 | X-H torsion
[ 10167 10162 10161 10158 ] final   45.97 input  -65.29 | X-H torsion
[ 10718 10713 10712 10709 ] final -128.83 input   66.30 | X-H torsion
[ 10763 10752 10751 10750 ] final -136.63 input  -60.55 | X-H torsion
[ 11005 11000 10999 10996 ] final  -96.60 input  -57.11 | X-H torsion

> <Gold.Protein.ActiveResidues>
 VAL166  LYS551  ARG553  GLY616  TRP617  ASP618  TYR619  PRO620  LYS621  CYS622 
 ASP623  PHE694  ASN695  SER759  ASP760  ASP761  ALA762  ILE779  LEU786  VAL792 
 PHE793  MET794  SER795  GLU796  ALA797  LYS798  CYS799  TRP800  GLU811  SER814 

> <Gold.Protein.RotatedAtoms>
  151.2647  135.0665  159.9111 H   0  0  0  0  0  0  0  0  0  0  0  0  # atno 6907 bound_to 6896
  152.5360  134.0194  159.7985 H   0  0  0  0  0  0  0  0  0  0  0  0  # atno 6908 bound_to 6896
  151.0422  133.5646  159.2681 H   0  0  0  0  0  0  0  0  0  0  0  0  # atno 6909 bound_to 6896
  146.1727  140.4354  142.8526 H   0  0  0  0  0  0  0  0  0  0  0  0  # atno 7974 bound_to 7965
  154.5059  140.0822  156.7892 H   0  0  0  0  0  0  0  0  0  0  0  0  # atno 8008 bound_to 7997
  155.3896  140.3432  155.4232 H   0  0  0  0  0  0  0  0  0  0  0  0  # atno 8009 bound_to 7997
  156.1514  140.1559  156.8751 H   0  0  0  0  0  0  0  0  0  0  0  0  # atno 8010 bound_to 7997
  140.3187  144.2732  150.6186 H   0  0  0  0  0  0  0  0  0  0  0  0  # atno 10167 bound_to 10162
  156.1988  130.6844  151.0514 H   0  0  0  0  0  0  0  0  0  0  0  0  # atno 10718 bound_to 10713
  154.8680  135.3667  154.5091 H   0  0  0  0  0  0  0  0  0  0  0  0  # atno 10763 bound_to 10752
  153.5727  135.7020  153.5502 H   0  0  0  0  0  0  0  0  0  0  0  0  # atno 10764 bound_to 10752
  153.3527  135.4067  155.1621 H   0  0  0  0  0  0  0  0  0  0  0  0  # atno 10765 bound_to 10752
  141.1406  133.8109  157.0592 H   0  0  0  0  0  0  0  0  0  0  0  0  # atno 11005 bound_to 11000
  144.8188  140.6515  143.6366 LP  0  0  0  0  0  0  0  0  0  0  0  0  # atno 17320 bound_to 7965
  145.4295  139.1551  143.4030 LP  0  0  0  0  0  0  0  0  0  0  0  0  # atno 17321 bound_to 7965
  140.5503  143.2207  151.7938 LP  0  0  0  0  0  0  0  0  0  0  0  0  # atno 17342 bound_to 10162
  139.4878  144.4485  151.9681 LP  0  0  0  0  0  0  0  0  0  0  0  0  # atno 17343 bound_to 10162
  157.6974  131.0789  150.6928 LP  0  0  0  0  0  0  0  0  0  0  0  0  # atno 17370 bound_to 10713
  156.6985  130.4616  149.5579 LP  0  0  0  0  0  0  0  0  0  0  0  0  # atno 17371 bound_to 10713
  140.0582  134.9769  157.1258 LP  0  0  0  0  0  0  0  0  0  0  0  0  # atno 17394 bound_to 11000
  140.3888  134.2207  155.7167 LP  0  0  0  0  0  0  0  0  0  0  0  0  # atno 17395 bound_to 11000

$$$$
