AV-unprocessed.smi:2422|AV-procd|sdf|9557|dock9
  -GOLD-   2272013193D 1   1.00000     0.00000
 Structure written by MMmdl.
 46 47  0  0  0  0  0  0  0  0  1 V2000
  148.5449  131.1041  153.4910 C   0  0  0  0  0  0  0  0  0  0  0  0
  149.2448  132.0033  154.3328 O   0  0  0  0  0  0  0  0  0  0  0  0
  149.1986  133.3411  153.8592 C   0  0  0  0  0  0  0  0  0  0  0  0
  149.4320  134.3328  155.0240 C   0  0  0  0  0  0  0  0  0  0  0  0
  148.2692  134.2299  156.0289 C   0  0  0  0  0  0  0  0  0  0  0  0
  150.7459  133.9905  155.7585 C   0  0  0  0  0  0  0  0  0  0  0  0
  149.4650  135.7189  154.5388 N   0  0  0  0  0  0  0  0  0  0  0  0
  149.6354  136.8478  155.2480 C   0  0  0  0  0  0  0  0  0  0  0  0
  149.7794  136.8786  156.4701 O   0  0  0  0  0  0  0  0  0  0  0  0
  149.6285  137.9247  154.4435 N   0  0  0  0  0  0  0  0  0  0  0  0
  149.7861  139.2890  154.8010 C   0  0  0  0  0  0  0  0  0  0  0  0
  149.0243  140.3104  154.3015 N   0  0  0  0  0  0  0  0  0  0  0  0
  149.5789  141.3245  154.9519 C   0  0  0  0  0  0  0  0  0  0  0  0
  150.5733  140.9679  155.7702 N   0  0  0  0  0  0  0  0  0  0  0  0
  151.4193  141.7841  156.6275 C   0  0  0  0  0  0  0  0  0  0  0  0
  151.5825  141.1505  158.0242 C   0  0  0  0  0  0  0  0  0  0  0  0
  152.4905  142.0077  158.9216 C   0  0  0  0  0  0  0  0  0  0  0  0
  151.9700  143.4503  159.0265 C   0  0  0  0  0  0  0  0  0  0  0  0
  151.8044  144.0858  157.6367 C   0  0  0  0  0  0  0  0  0  0  0  0
  150.8941  143.2313  156.7397 C   0  0  0  0  0  0  0  0  0  0  0  0
  150.7315  139.6240  155.6763 N   0  0  0  0  0  0  0  0  0  0  0  0
  148.6096  130.0953  153.8984 H   0  0  0  0  0  0  0  0  0  0  0  0
  148.9712  131.0905  152.4872 H   0  0  0  0  0  0  0  0  0  0  0  0
  147.4896  131.3710  153.4201 H   0  0  0  0  0  0  0  0  0  0  0  0
  149.9625  133.4831  153.0930 H   0  0  0  0  0  0  0  0  0  0  0  0
  148.2382  133.5275  153.3766 H   0  0  0  0  0  0  0  0  0  0  0  0
  148.1730  133.2175  156.4222 H   0  0  0  0  0  0  0  0  0  0  0  0
  147.3159  134.4944  155.5694 H   0  0  0  0  0  0  0  0  0  0  0  0
  148.4179  134.8978  156.8784 H   0  0  0  0  0  0  0  0  0  0  0  0
  150.7005  132.9943  156.1996 H   0  0  0  0  0  0  0  0  0  0  0  0
  150.9466  134.6969  156.5649 H   0  0  0  0  0  0  0  0  0  0  0  0
  151.6059  134.0026  155.0889 H   0  0  0  0  0  0  0  0  0  0  0  0
  149.3611  135.8262  153.5406 H   0  0  0  0  0  0  0  0  0  0  0  0
  149.5041  137.7484  153.4577 H   0  0  0  0  0  0  0  0  0  0  0  0
  149.2538  142.3472  154.8291 H   0  0  0  0  0  0  0  0  0  0  0  0
  152.4039  141.8208  156.1582 H   0  0  0  0  0  0  0  0  0  0  0  0
  150.6075  141.0382  158.5004 H   0  0  0  0  0  0  0  0  0  0  0  0
  151.9993  140.1468  157.9326 H   0  0  0  0  0  0  0  0  0  0  0  0
  152.5582  141.5636  159.9151 H   0  0  0  0  0  0  0  0  0  0  0  0
  153.5032  142.0139  158.5165 H   0  0  0  0  0  0  0  0  0  0  0  0
  151.0111  143.4557  159.5468 H   0  0  0  0  0  0  0  0  0  0  0  0
  152.6526  144.0491  159.6301 H   0  0  0  0  0  0  0  0  0  0  0  0
  151.3928  145.0910  157.7341 H   0  0  0  0  0  0  0  0  0  0  0  0
  152.7820  144.1968  157.1657 H   0  0  0  0  0  0  0  0  0  0  0  0
  150.8248  143.6824  155.7492 H   0  0  0  0  0  0  0  0  0  0  0  0
  149.8838  143.2344  157.1517 H   0  0  0  0  0  0  0  0  0  0  0  0
  1  2  1  0  0  0  0
  1 22  1  0  0  0  0
  1 23  1  0  0  0  0
  1 24  1  0  0  0  0
  2  3  1  0  0  0  0
  3  4  1  0  0  0  0
  3 25  1  0  0  0  0
  3 26  1  0  0  0  0
  4  5  1  0  0  0  0
  4  6  1  0  0  0  0
  4  7  1  0  0  0  0
  5 27  1  0  0  0  0
  5 28  1  0  0  0  0
  5 29  1  0  0  0  0
  6 30  1  0  0  0  0
  6 31  1  0  0  0  0
  6 32  1  0  0  0  0
  7  8  1  0  0  0  0
  7 33  1  0  0  0  0
  8  9  2  0  0  0  0
  8 10  1  0  0  0  0
 10 11  1  0  0  0  0
 10 34  1  0  0  0  0
 11 21  2  0  0  0  0
 11 12  1  0  0  0  0
 12 13  2  0  0  0  0
 13 14  1  0  0  0  0
 13 35  1  0  0  0  0
 14 15  1  0  0  0  0
 14 21  1  0  0  0  0
 15 20  1  0  0  0  0
 15 16  1  0  0  0  0
 15 36  1  0  0  0  0
 16 17  1  0  0  0  0
 16 37  1  0  0  0  0
 16 38  1  0  0  0  0
 17 18  1  0  0  0  0
 17 39  1  0  0  0  0
 17 40  1  0  0  0  0
 18 19  1  0  0  0  0
 18 41  1  0  0  0  0
 18 42  1  0  0  0  0
 19 20  1  0  0  0  0
 19 43  1  0  0  0  0
 19 44  1  0  0  0  0
 20 45  1  0  0  0  0
 20 46  1  0  0  0  0
M  END
> <s_m_source_file>
AV-unprocessed.smi

> <i_m_source_file_index>
2422

> <i_lp_mmshare_version>
43012

> <i_f3d_flags>
0

> <s_epik_input>
W0NIM11PW0NIMl1DKFtDSDNdKShbQ0gzXSlbTkhdQyg9TylbTkhdYzFuW2NIXW4objEpW0NIXTJbQ0gyXVtDSDJdW0NIMl1bQ0gyXVtDSDJdMg==

> <s_epik_cmdline>
J2VwaWtfcHl0aG9uJywgJy1waCcsICc3LjAnLCAnLXRuJywgJzgnLCAnLW1hJywgJzIwMCcsICctbWV0YWxfYmluZGluZycsICctaW1hZScsICc8aW5maWxlLm1hZT4nLCAnLW9tYWUnLCAnPG91dGZpbGUubWFlPic=

> <r_lp_tautomer_probability>
1

> <r_epik_Ionization_Penalty>
0.000103736

> <r_epik_Ionization_Penalty_Charging>
0

> <r_epik_Ionization_Penalty_Neutral>
0.000103736

> <r_epik_State_Penalty>
-0

> <r_epik_Charging_Adjusted_Penalty>
0

> <i_epik_Tot_Q>
0

> <i_epik_Tot_abs_Q>
0

> <r_epik_Metal_State_Penalty>
-0

> <b_epik_Metal_Only>
0

> <s_lp_Force_Field>
OPLS_2005

> <r_lp_Energy>
18.085

> <b_lp_Chiralities_Consistent>
1

> <s_lp_Variant>
AV-unprocessed.smi:2422-1

> <Gold.Version>
5.8.1

> <Gold.Id.Protein>
6NUR|6NUR_protein|mol2

> <Gold.PLP.Fitness>
40.2507

> <Gold.PLP.PLP>
-34.3717

> <Gold.PLP.part.hbond>
-1.6552

> <Gold.PLP.part.metal>
0.0000

> <Gold.PLP.part.buried>
-2.0840

> <Gold.PLP.part.nonpolar>
-31.3103

> <Gold.PLP.part.repulsive>
0.2457

> <Gold.PLP.ligand.clash>
0.0000

> <Gold.PLP.ligand.torsion>
0.7758

> <Gold.PLP.Chemscore.Hbond>
1.4602

> <Gold.PLP.Chemscore.CHOScore>
1.0000

> <Gold.PLP.Chemscore.Metal>
0.0000

> <Gold.Chemscore.Hbonds>
donor molecule, donor type, donor heavy atom, donor atom, acceptor molecule, acceptor atom, score
      L1  H     7    33       P1  7948  1.00
      L1  H    10    34       P1  7948  0.46
      L1  C    13    35       P1  8028  1.00

> <Gold.PLP.Chemscore.Internal.Correction>
0.0500

> <Gold.Rescore>
     Score         DG    S(hbond)    S(metal)    S(lipo)     H(rot)  DE(clash)    DE(int)     intcor
     13.44     -16.33       1.79        0.00      78.76       1.70       1.31       1.58       ----

> <Gold.Chemscore.Fitness>
13.4388

> <Gold.Chemscore.DG>
-16.3344

> <Gold.Chemscore.ZeroCoef>
-5.4800

> <Gold.Chemscore.Hbond>
1.7904

> <Gold.Chemscore.Metal>
0.0000

> <Gold.Chemscore.Lipo>
78.7569

> <Gold.Chemscore.Internal_Hbond>
0.0000

> <Gold.Chemscore.DEClash>
1.3108

> <Gold.Chemscore.DEInternal>
1.5849

> <Gold.Chemscore.Rot>
1.6954

> <Gold.Chemscore.Internal.Correction>
   9.000000E+99

> <Gold.Chemscore.Hbonds>
donor molecule, donor type, donor heavy atom, donor atom, acceptor molecule, acceptor atom, score
      L1  H     7    33       P1  7948  0.50
      L1  H    10    34       P1  7948  0.40

> <Gold.Chemscore.Hbond.Weighted>
-5.9800

> <Gold.Chemscore.Metal.Weighted>
-0.0000

> <Gold.Chemscore.Lipo.Weighted>
-9.2146

> <Gold.Chemscore.Internal_Hbond.Weighted>
0.0000

> <Gold.Chemscore.DEClash.Weighted>
1.3108

> <Gold.Chemscore.DEInternal.Weighted>
1.5849

> <Gold.Chemscore.Rot.Weighted>
4.3402

> <Gold.Chemscore.Internal.Correction.Weighted>
   9.000000E+99

> <Gold.Protein.RotatedTorsions>
[ 6907 6896 6895 6894 ] final -138.98 input  -60.11 | X-H torsion
[ 7974 7965 7964 7962 ] final  -62.04 input  175.53 | X-H torsion
[ 8008 7997 7996 7995 ] final  143.79 input   59.86 | X-H torsion
[ 10167 10162 10161 10158 ] final   43.10 input  -65.29 | X-H torsion
[ 10718 10713 10712 10709 ] final  177.27 input   66.30 | X-H torsion
[ 10763 10752 10751 10750 ] final  -56.35 input  -60.55 | X-H torsion
[ 11005 11000 10999 10996 ] final  -81.03 input  -57.11 | X-H torsion

> <Gold.Protein.ActiveResidues>
 VAL166  LYS551  ARG553  GLY616  TRP617  ASP618  TYR619  PRO620  LYS621  CYS622 
 ASP623  PHE694  ASN695  SER759  ASP760  ASP761  ALA762  ILE779  LEU786  VAL792 
 PHE793  MET794  SER795  GLU796  ALA797  LYS798  CYS799  TRP800  GLU811  SER814 

> <Gold.Protein.RotatedAtoms>
  151.0419  133.5698  159.2650 H   0  0  0  0  0  0  0  0  0  0  0  0  # atno 6907 bound_to 6896
  151.2741  135.0693  159.9155 H   0  0  0  0  0  0  0  0  0  0  0  0  # atno 6908 bound_to 6896
  152.5366  134.0145  159.8007 H   0  0  0  0  0  0  0  0  0  0  0  0  # atno 6909 bound_to 6896
  145.7961  140.8682  143.0255 H   0  0  0  0  0  0  0  0  0  0  0  0  # atno 7974 bound_to 7965
  156.2922  140.2253  156.4948 H   0  0  0  0  0  0  0  0  0  0  0  0  # atno 8008 bound_to 7997
  154.7740  140.0464  157.1095 H   0  0  0  0  0  0  0  0  0  0  0  0  # atno 8009 bound_to 7997
  154.9839  140.3082  155.4938 H   0  0  0  0  0  0  0  0  0  0  0  0  # atno 8010 bound_to 7997
  140.3477  144.2390  150.6149 H   0  0  0  0  0  0  0  0  0  0  0  0  # atno 10167 bound_to 10162
  156.9078  130.9900  151.3025 H   0  0  0  0  0  0  0  0  0  0  0  0  # atno 10718 bound_to 10713
  154.2052  135.6404  153.5099 H   0  0  0  0  0  0  0  0  0  0  0  0  # atno 10763 bound_to 10752
  153.0002  135.5461  154.6273 H   0  0  0  0  0  0  0  0  0  0  0  0  # atno 10764 bound_to 10752
  154.5696  135.2915  155.0813 H   0  0  0  0  0  0  0  0  0  0  0  0  # atno 10765 bound_to 10752
  141.1667  133.7177  156.8362 H   0  0  0  0  0  0  0  0  0  0  0  0  # atno 11005 bound_to 11000
  144.6775  140.0192  143.7484 LP  0  0  0  0  0  0  0  0  0  0  0  0  # atno 17320 bound_to 7965
  145.9926  139.3027  143.0975 LP  0  0  0  0  0  0  0  0  0  0  0  0  # atno 17321 bound_to 7965
  140.5249  143.2257  151.8331 LP  0  0  0  0  0  0  0  0  0  0  0  0  # atno 17342 bound_to 10162
  139.4831  144.4792  151.9328 LP  0  0  0  0  0  0  0  0  0  0  0  0  # atno 17343 bound_to 10162
  157.5986  130.8496  149.8768 LP  0  0  0  0  0  0  0  0  0  0  0  0  # atno 17370 bound_to 10713
  156.0551  130.3710  150.1111 LP  0  0  0  0  0  0  0  0  0  0  0  0  # atno 17371 bound_to 10713
  140.2016  134.8893  157.3175 LP  0  0  0  0  0  0  0  0  0  0  0  0  # atno 17394 bound_to 11000
  140.2181  134.4056  155.7579 LP  0  0  0  0  0  0  0  0  0  0  0  0  # atno 17395 bound_to 11000

$$$$
