AV-unprocessed.smi:1999|AV-procd|sdf|8096|dock7
  -GOLD-   2272010313D 1   1.00000     0.00000
 Structure written by MMmdl.
 37 38  0  0  0  0  0  0  0  0  2 V2000
  144.1159  143.9048  162.0854 C   0  0  0  0  0  0  0  0  0  0  0  0
  145.2872  143.6382  161.2035 C   0  0  0  0  0  0  0  0  0  0  0  0
  146.4290  143.1150  161.6564 N   0  0  0  0  0  0  0  0  0  0  0  0
  147.3679  142.9571  160.6473 N   0  0  0  0  0  0  0  0  0  0  0  0
  146.9209  143.3512  159.4464 C   0  0  0  0  0  0  0  0  0  0  0  0
  147.6766  143.2807  158.3381 N   0  5  0  0  0  0  0  0  0  0  0  0
  148.8977  142.7011  158.3890 C   0  0  0  0  0  0  0  0  0  0  0  0
  149.2883  141.8954  159.2371 O   0  0  0  0  0  0  0  0  0  0  0  0
  149.7162  143.0784  157.3961 N   0  0  0  0  0  0  0  0  0  0  0  0
  151.0837  142.6089  157.1778 C   0  0  2  0  0  0  0  0  0  0  0  0
  151.1521  141.0842  157.3545 C   0  0  0  0  0  0  0  0  0  0  0  0
  152.0471  143.3255  158.1464 C   0  0  0  0  0  0  0  0  0  0  0  0
  152.2600  142.6670  159.4370 N   0  0  0  0  0  0  0  0  0  0  0  0
  152.2851  143.6061  160.5562 C   0  0  0  0  0  0  0  0  0  0  0  0
  152.5350  142.8938  161.8968 C   0  0  0  0  0  0  0  0  0  0  0  0
  153.7476  142.1506  161.8272 O   0  0  0  0  0  0  0  0  0  0  0  0
  153.7402  141.1888  160.7774 C   0  0  0  0  0  0  0  0  0  0  0  0
  153.4986  141.8969  159.4332 C   0  0  0  0  0  0  0  0  0  0  0  0
  145.2746  143.9823  159.4820 S   0  0  0  0  0  0  0  0  0  0  0  0
  143.5204  142.9987  162.1960 H   0  0  0  0  0  0  0  0  0  0  0  0
  143.4895  144.6863  161.6551 H   0  0  0  0  0  0  0  0  0  0  0  0
  144.4492  144.2296  163.0715 H   0  0  0  0  0  0  0  0  0  0  0  0
  149.3510  143.7358  156.7228 H   0  0  0  0  0  0  0  0  0  0  0  0
  151.3858  142.8342  156.1545 H   0  0  0  0  0  0  0  0  0  0  0  0
  152.1648  140.7162  157.1887 H   0  0  0  0  0  0  0  0  0  0  0  0
  150.4988  140.5744  156.6459 H   0  0  0  0  0  0  0  0  0  0  0  0
  150.8495  140.7869  158.3592 H   0  0  0  0  0  0  0  0  0  0  0  0
  153.0102  143.4239  157.6430 H   0  0  0  0  0  0  0  0  0  0  0  0
  151.6952  144.3447  158.3131 H   0  0  0  0  0  0  0  0  0  0  0  0
  153.0611  144.3555  160.3939 H   0  0  0  0  0  0  0  0  0  0  0  0
  151.3390  144.1422  160.6222 H   0  0  0  0  0  0  0  0  0  0  0  0
  152.6087  143.6217  162.7048 H   0  0  0  0  0  0  0  0  0  0  0  0
  151.7057  142.2275  162.1398 H   0  0  0  0  0  0  0  0  0  0  0  0
  154.6975  140.6677  160.7648 H   0  0  0  0  0  0  0  0  0  0  0  0
  152.9690  140.4402  160.9642 H   0  0  0  0  0  0  0  0  0  0  0  0
  153.4695  141.1535  158.6360 H   0  0  0  0  0  0  0  0  0  0  0  0
  154.3419  142.5542  159.2160 H   0  0  0  0  0  0  0  0  0  0  0  0
  1  2  1  0  0  0  0
  1 20  1  0  0  0  0
  1 21  1  0  0  0  0
  1 22  1  0  0  0  0
  2 19  1  0  0  0  0
  2  3  2  0  0  0  0
  3  4  1  0  0  0  0
  4  5  2  0  0  0  0
  5  6  1  0  0  0  0
  5 19  1  0  0  0  0
  6  7  1  0  0  0  0
  7  8  2  0  0  0  0
  7  9  1  0  0  0  0
  9 10  1  0  0  0  0
  9 23  1  0  0  0  0
 10 11  1  0  0  0  0
 10 12  1  0  0  0  0
 10 24  1  0  0  0  0
 11 25  1  0  0  0  0
 11 26  1  0  0  0  0
 11 27  1  0  0  0  0
 12 13  1  0  0  0  0
 12 28  1  0  0  0  0
 12 29  1  0  0  0  0
 13 18  1  0  0  0  0
 13 14  1  0  0  0  0
 14 15  1  0  0  0  0
 14 30  1  0  0  0  0
 14 31  1  0  0  0  0
 15 16  1  0  0  0  0
 15 32  1  0  0  0  0
 15 33  1  0  0  0  0
 16 17  1  0  0  0  0
 17 18  1  0  0  0  0
 17 34  1  0  0  0  0
 17 35  1  0  0  0  0
 18 36  1  0  0  0  0
 18 37  1  0  0  0  0
M  CHG  1   6  -1
M  END
> <s_m_source_file>
AV-unprocessed.smi

> <i_m_source_file_index>
1999

> <i_lp_mmshare_version>
43012

> <i_f3d_flags>
0

> <s_epik_input>
W0NIM11jMW5uYyhzMSlbTkhdQyg9TylbTkhdW0NASF0oW0NIM10pW0NIMl1OMltDSDJdW0NIMl1PW0NIMl1bQ0gyXTI=

> <s_epik_cmdline>
J2VwaWtfcHl0aG9uJywgJy1waCcsICc3LjAnLCAnLXRuJywgJzgnLCAnLW1hJywgJzIwMCcsICctbWV0YWxfYmluZGluZycsICctaW1hZScsICc8aW5maWxlLm1hZT4nLCAnLW9tYWUnLCAnPG91dGZpbGUubWFlPic=

> <r_lp_tautomer_probability>
1

> <r_epik_Ionization_Penalty>
3.74165

> <r_epik_Ionization_Penalty_Charging>
3.28066

> <r_epik_Ionization_Penalty_Neutral>
0.460988

> <r_epik_State_Penalty>
3.48767

> <r_epik_Charging_Adjusted_Penalty>
6.76834

> <i_epik_Tot_Q>
-1

> <i_epik_Tot_abs_Q>
1

> <r_epik_Metal_State_Penalty>
0.700129

> <b_epik_Metal_Only>
1

> <s_lp_Force_Field>
OPLS_2005

> <r_lp_Energy>
23.1925

> <b_lp_Chiralities_Consistent>
1

> <s_lp_Variant>
AV-unprocessed.smi:1999-5

> <Gold.Version>
5.8.1

> <Gold.Id.Protein>
6NUR|6NUR_protein|mol2

> <Gold.PLP.Fitness>
37.9251

> <Gold.PLP.PLP>
-33.7971

> <Gold.PLP.part.hbond>
-6.4859

> <Gold.PLP.part.metal>
0.0000

> <Gold.PLP.part.buried>
-2.3288

> <Gold.PLP.part.nonpolar>
-27.2415

> <Gold.PLP.part.repulsive>
1.6015

> <Gold.PLP.ligand.clash>
0.0000

> <Gold.PLP.ligand.torsion>
1.2435

> <Gold.PLP.Chemscore.Hbond>
2.1785

> <Gold.PLP.Chemscore.CHOScore>
0.0000

> <Gold.PLP.Chemscore.Metal>
0.0000

> <Gold.Chemscore.Hbonds>
donor molecule, donor type, donor heavy atom, donor atom, acceptor molecule, acceptor atom, score
      L1  H     9    23       P1  8028  0.96
      P1  H  6933  6944       L1     4  0.93
      P1  H  6934  6946       L1     4  0.16

> <Gold.PLP.Chemscore.Internal.Correction>
0.0796

> <Gold.Rescore>
     Score         DG    S(hbond)    S(metal)    S(lipo)     H(rot)  DE(clash)    DE(int)     intcor
      9.61     -15.51       1.23        0.00      84.61       1.56       1.49       4.41       ----

> <Gold.Chemscore.Fitness>
9.6089

> <Gold.Chemscore.DG>
-15.5136

> <Gold.Chemscore.ZeroCoef>
-5.4800

> <Gold.Chemscore.Hbond>
1.2327

> <Gold.Chemscore.Metal>
0.0000

> <Gold.Chemscore.Lipo>
84.6053

> <Gold.Chemscore.Internal_Hbond>
0.0000

> <Gold.Chemscore.DEClash>
1.4915

> <Gold.Chemscore.DEInternal>
4.4132

> <Gold.Chemscore.Rot>
1.5556

> <Gold.Chemscore.Internal.Correction>
   9.000000E+99

> <Gold.Chemscore.Hbonds>
donor molecule, donor type, donor heavy atom, donor atom, acceptor molecule, acceptor atom, score
      L1  H     9    23       P1  8028  0.85
      P1  H  6933  6944       L1     4  0.22

> <Gold.Chemscore.Hbond.Weighted>
-4.1171

> <Gold.Chemscore.Metal.Weighted>
-0.0000

> <Gold.Chemscore.Lipo.Weighted>
-9.8988

> <Gold.Chemscore.Internal_Hbond.Weighted>
0.0000

> <Gold.Chemscore.DEClash.Weighted>
1.4915

> <Gold.Chemscore.DEInternal.Weighted>
4.4132

> <Gold.Chemscore.Rot.Weighted>
3.9823

> <Gold.Chemscore.Internal.Correction.Weighted>
   9.000000E+99

> <Gold.Protein.RotatedTorsions>
[ 6907 6896 6895 6894 ] final  -51.98 input  -60.11 | X-H torsion
[ 7974 7965 7964 7962 ] final -140.66 input  175.53 | X-H torsion
[ 8008 7997 7996 7995 ] final   41.17 input   59.86 | X-H torsion
[ 10167 10162 10161 10158 ] final  121.72 input  -65.29 | X-H torsion
[ 10718 10713 10712 10709 ] final -177.32 input   66.30 | X-H torsion
[ 10763 10752 10751 10750 ] final   71.55 input  -60.55 | X-H torsion
[ 11005 11000 10999 10996 ] final  -45.70 input  -57.11 | X-H torsion

> <Gold.Protein.ActiveResidues>
 VAL166  LYS551  ARG553  GLY616  TRP617  ASP618  TYR619  PRO620  LYS621  CYS622 
 ASP623  PHE694  ASN695  SER759  ASP760  ASP761  ALA762  ILE779  LEU786  VAL792 
 PHE793  MET794  SER795  GLU796  ALA797  LYS798  CYS799  TRP800  GLU811  SER814 

> <Gold.Protein.RotatedAtoms>
  150.8560  134.7899  159.7045 H   0  0  0  0  0  0  0  0  0  0  0  0  # atno 6907 bound_to 6896
  152.4612  134.5177  159.9783 H   0  0  0  0  0  0  0  0  0  0  0  0  # atno 6908 bound_to 6896
  151.5290  133.3414  159.2950 H   0  0  0  0  0  0  0  0  0  0  0  0  # atno 6909 bound_to 6896
  144.8580  140.6174  143.5347 H   0  0  0  0  0  0  0  0  0  0  0  0  # atno 7974 bound_to 7965
  155.2651  140.3362  155.4270 H   0  0  0  0  0  0  0  0  0  0  0  0  # atno 8008 bound_to 7997
  156.2157  140.1788  156.7636 H   0  0  0  0  0  0  0  0  0  0  0  0  # atno 8009 bound_to 7997
  154.5750  140.0663  156.9006 H   0  0  0  0  0  0  0  0  0  0  0  0  # atno 8010 bound_to 7997
  139.5902  144.7022  151.3309 H   0  0  0  0  0  0  0  0  0  0  0  0  # atno 10167 bound_to 10162
  156.8278  130.9642  151.3108 H   0  0  0  0  0  0  0  0  0  0  0  0  # atno 10718 bound_to 10713
  153.0406  135.5132  154.7611 H   0  0  0  0  0  0  0  0  0  0  0  0  # atno 10763 bound_to 10752
  154.6551  135.2930  154.9940 H   0  0  0  0  0  0  0  0  0  0  0  0  # atno 10764 bound_to 10752
  154.0810  135.6664  153.4890 H   0  0  0  0  0  0  0  0  0  0  0  0  # atno 10765 bound_to 10752
  141.0532  133.6735  156.3051 H   0  0  0  0  0  0  0  0  0  0  0  0  # atno 11005 bound_to 11000
  145.4368  139.1541  143.3992 LP  0  0  0  0  0  0  0  0  0  0  0  0  # atno 17320 bound_to 7965
  146.2838  140.4487  142.8766 LP  0  0  0  0  0  0  0  0  0  0  0  0  # atno 17321 bound_to 7965
  140.7166  143.7248  150.7668 LP  0  0  0  0  0  0  0  0  0  0  0  0  # atno 17342 bound_to 10162
  140.0802  143.4976  152.2534 LP  0  0  0  0  0  0  0  0  0  0  0  0  # atno 17343 bound_to 10162
  157.6423  130.8815  149.9472 LP  0  0  0  0  0  0  0  0  0  0  0  0  # atno 17370 bound_to 10713
  156.0952  130.3660  150.0320 LP  0  0  0  0  0  0  0  0  0  0  0  0  # atno 17371 bound_to 10713
  140.6014  134.5551  157.5518 LP  0  0  0  0  0  0  0  0  0  0  0  0  # atno 17394 bound_to 11000
  139.9368  134.7860  156.0782 LP  0  0  0  0  0  0  0  0  0  0  0  0  # atno 17395 bound_to 11000

$$$$
