AV-unprocessed.smi:243|AV-procd|sdf|1850|dock9
  -GOLD-   2262020473D 1   1.00000     0.00000
 Structure written by MMmdl.
 58 61  0  0  0  0  0  0  0  0  2 V2000
  150.6998  137.3529  158.5819 C   0  0  0  0  0  0  0  0  0  0  0  0
  150.0977  138.7415  158.3255 C   0  0  0  0  0  0  0  0  0  0  0  0
  150.9438  139.5766  157.4312 N   0  3  2  0  0  0  0  0  0  0  0  0
  150.4346  140.9593  157.2571 C   0  0  0  0  0  0  0  0  0  0  0  0
  149.1947  140.9931  156.3503 C   0  0  0  0  0  0  0  0  0  0  0  0
  149.4823  140.3569  154.9708 C   0  0  2  0  0  0  0  0  0  0  0  0
  148.3172  140.4171  154.0745 N   0  0  0  0  0  0  0  0  0  0  0  0
  147.7898  141.7416  153.7668 C   0  0  0  0  0  0  0  0  0  0  0  0
  147.3636  139.4627  154.2183 C   0  0  0  0  0  0  0  0  0  0  0  0
  146.9454  139.1758  155.4764 N   0  0  0  0  0  0  0  0  0  0  0  0
  146.0125  138.2412  155.6798 C   0  0  0  0  0  0  0  0  0  0  0  0
  145.3807  137.4843  154.7810 N   0  0  0  0  0  0  0  0  0  0  0  0
  145.8040  137.7601  153.5144 C   0  0  0  0  0  0  0  0  0  0  0  0
  146.7818  138.7269  153.1451 C   0  0  0  0  0  0  0  0  0  0  0  0
  146.9362  138.7360  151.7636 N   0  0  0  0  0  0  0  0  0  0  0  0
  146.1041  137.8236  151.3423 C   0  0  0  0  0  0  0  0  0  0  0  0
  145.3910  137.1791  152.3278 N   0  0  0  0  0  0  0  0  0  0  0  0
  144.4058  136.1239  152.1445 C   0  0  0  0  0  0  0  0  0  0  0  0
  144.8069  135.0819  151.0730 C   0  0  1  0  0  0  0  0  0  0  0  0
  144.6997  135.6734  149.7895 O   0  0  0  0  0  0  0  0  0  0  0  0
  146.2300  134.5685  151.2478 C   0  0  0  0  0  0  0  0  0  0  0  0
  146.1608  133.1754  150.6363 C   0  0  0  0  0  0  0  0  0  0  0  0
  144.8948  132.7001  151.0627 O   0  0  0  0  0  0  0  0  0  0  0  0
  143.9712  133.7854  151.0842 C   0  0  0  0  0  0  0  0  0  0  0  0
  150.0797  138.9331  155.1410 C   0  0  1  0  0  0  0  0  0  0  0  0
  150.5353  138.3352  153.7974 C   0  0  0  0  0  0  0  0  0  0  0  0
  151.2768  138.9582  156.1205 C   0  0  0  0  0  0  0  0  0  0  0  0
  150.1141  136.8153  159.3278 H   0  0  0  0  0  0  0  0  0  0  0  0
  151.7212  137.4278  158.9561 H   0  0  0  0  0  0  0  0  0  0  0  0
  150.7127  136.7391  157.6816 H   0  0  0  0  0  0  0  0  0  0  0  0
  149.0845  138.6486  157.9347 H   0  0  0  0  0  0  0  0  0  0  0  0
  150.0053  139.2436  159.2892 H   0  0  0  0  0  0  0  0  0  0  0  0
  150.2113  141.4051  158.2271 H   0  0  0  0  0  0  0  0  0  0  0  0
  151.2250  141.5690  156.8175 H   0  0  0  0  0  0  0  0  0  0  0  0
  148.3759  140.4737  156.8481 H   0  0  0  0  0  0  0  0  0  0  0  0
  148.8710  142.0272  156.2302 H   0  0  0  0  0  0  0  0  0  0  0  0
  150.2546  140.9655  154.4978 H   0  0  0  0  0  0  0  0  0  0  0  0
  146.9234  141.6788  153.1064 H   0  0  0  0  0  0  0  0  0  0  0  0
  148.5498  142.3346  153.2576 H   0  0  0  0  0  0  0  0  0  0  0  0
  147.4956  142.2763  154.6696 H   0  0  0  0  0  0  0  0  0  0  0  0
  145.7342  138.0742  156.7101 H   0  0  0  0  0  0  0  0  0  0  0  0
  145.9892  137.5939  150.2930 H   0  0  0  0  0  0  0  0  0  0  0  0
  144.2446  135.6328  153.1052 H   0  0  0  0  0  0  0  0  0  0  0  0
  143.4566  136.5904  151.8775 H   0  0  0  0  0  0  0  0  0  0  0  0
  144.4671  136.5830  149.8963 H   0  0  0  0  0  0  0  0  0  0  0  0
  146.9867  135.2039  150.7858 H   0  0  0  0  0  0  0  0  0  0  0  0
  146.4725  134.4800  152.3078 H   0  0  0  0  0  0  0  0  0  0  0  0
  146.1858  133.2243  149.5464 H   0  0  0  0  0  0  0  0  0  0  0  0
  146.9685  132.5248  150.9720 H   0  0  0  0  0  0  0  0  0  0  0  0
  143.3741  133.6902  151.9904 H   0  0  0  0  0  0  0  0  0  0  0  0
  143.2887  133.7232  150.2351 H   0  0  0  0  0  0  0  0  0  0  0  0
  149.3223  138.2711  155.5591 H   0  0  0  0  0  0  0  0  0  0  0  0
  151.3051  138.9508  153.3310 H   0  0  0  0  0  0  0  0  0  0  0  0
  149.7117  138.2490  153.0894 H   0  0  0  0  0  0  0  0  0  0  0  0
  150.9481  137.3354  153.9340 H   0  0  0  0  0  0  0  0  0  0  0  0
  152.0911  139.5352  155.6796 H   0  0  0  0  0  0  0  0  0  0  0  0
  151.6739  137.9540  156.2636 H   0  0  0  0  0  0  0  0  0  0  0  0
  151.8205  139.6750  157.9231 H   0  0  0  0  0  0  0  0  0  0  0  0
  1  2  1  0  0  0  0
  1 28  1  0  0  0  0
  1 29  1  0  0  0  0
  1 30  1  0  0  0  0
  2  3  1  0  0  0  0
  2 31  1  0  0  0  0
  2 32  1  0  0  0  0
  3 27  1  0  0  0  0
  3  4  1  0  0  0  0
  3 58  1  0  0  0  0
  4  5  1  0  0  0  0
  4 33  1  0  0  0  0
  4 34  1  0  0  0  0
  5  6  1  0  0  0  0
  5 35  1  0  0  0  0
  5 36  1  0  0  0  0
  6  7  1  0  0  0  0
  6 25  1  0  0  0  0
  6 37  1  0  0  0  0
  7  8  1  0  0  0  0
  7  9  1  0  0  0  0
  8 38  1  0  0  0  0
  8 39  1  0  0  0  0
  8 40  1  0  0  0  0
  9 14  1  0  0  0  0
  9 10  2  0  0  0  0
 10 11  1  0  0  0  0
 11 12  2  0  0  0  0
 11 41  1  0  0  0  0
 12 13  1  0  0  0  0
 13 17  1  0  0  0  0
 13 14  2  0  0  0  0
 14 15  1  0  0  0  0
 15 16  2  0  0  0  0
 16 17  1  0  0  0  0
 16 42  1  0  0  0  0
 17 18  1  0  0  0  0
 18 19  1  0  0  0  0
 18 43  1  0  0  0  0
 18 44  1  0  0  0  0
 19 24  1  0  0  0  0
 19 20  1  0  0  0  0
 19 21  1  0  0  0  0
 20 45  1  0  0  0  0
 21 22  1  0  0  0  0
 21 46  1  0  0  0  0
 21 47  1  0  0  0  0
 22 23  1  0  0  0  0
 22 48  1  0  0  0  0
 22 49  1  0  0  0  0
 23 24  1  0  0  0  0
 24 50  1  0  0  0  0
 24 51  1  0  0  0  0
 25 26  1  0  0  0  0
 25 27  1  0  0  0  0
 25 52  1  0  0  0  0
 26 53  1  0  0  0  0
 26 54  1  0  0  0  0
 26 55  1  0  0  0  0
 27 56  1  0  0  0  0
 27 57  1  0  0  0  0
M  CHG  1   3   1
M  END
> <s_m_source_file>
AV-unprocessed.smi

> <i_m_source_file_index>
243

> <i_lp_mmshare_version>
43012

> <i_f3d_flags>
0

> <s_epik_input>
W0NIM11bQ0gyXU4xW0NIMl1bQ0gyXVtDQEhdKFtDQEBIXShbQ0gzXSlbQ0gyXTEpTihbQ0gzXSljKG5bY0hdbjIpYyhjMjMpbltjSF1uM1tDSDJdW0NAQF00KFtPSF0pW0NIMl1bQ0gyXU9bQ0gyXTQ=

> <s_epik_cmdline>
J2VwaWtfcHl0aG9uJywgJy1waCcsICc3LjAnLCAnLXRuJywgJzgnLCAnLW1hJywgJzIwMCcsICctbWV0YWxfYmluZGluZycsICctaW1hZScsICc8aW5maWxlLm1hZT4nLCAnLW9tYWUnLCAnPG91dGZpbGUubWFlPic=

> <r_lp_tautomer_probability>
1

> <r_epik_Ionization_Penalty>
0.00253099

> <r_epik_Ionization_Penalty_Charging>
0.00137877

> <r_epik_Ionization_Penalty_Neutral>
0.00115221

> <r_epik_State_Penalty>
-0

> <r_epik_Charging_Adjusted_Penalty>
0.00137877

> <i_epik_Tot_Q>
1

> <i_epik_Tot_abs_Q>
1

> <r_epik_Metal_State_Penalty>
-0

> <b_epik_Metal_Only>
0

> <s_lp_Force_Field>
OPLS_2005

> <r_lp_Energy>
49.0604

> <b_lp_Chiralities_Consistent>
1

> <s_lp_Variant>
AV-unprocessed.smi:243-3

> <Gold.Version>
5.8.1

> <Gold.Id.Protein>
6NUR|6NUR_protein|mol2

> <Gold.PLP.Fitness>
39.6217

> <Gold.PLP.PLP>
-36.5881

> <Gold.PLP.part.hbond>
-2.0000

> <Gold.PLP.part.metal>
0.0000

> <Gold.PLP.part.buried>
-4.4567

> <Gold.PLP.part.nonpolar>
-32.1568

> <Gold.PLP.part.repulsive>
1.3661

> <Gold.PLP.ligand.clash>
0.0000

> <Gold.PLP.ligand.torsion>
1.0800

> <Gold.PLP.Chemscore.Hbond>
1.0000

> <Gold.PLP.Chemscore.CHOScore>
0.4570

> <Gold.PLP.Chemscore.Metal>
0.0000

> <Gold.Chemscore.Hbonds>
donor molecule, donor type, donor heavy atom, donor atom, acceptor molecule, acceptor atom, score
      L1  H    20    45       P1 10171  0.91
      L1  C    16    42       P1 10171  0.45

> <Gold.PLP.Chemscore.Internal.Correction>
0.8226

> <Gold.Rescore>
     Score         DG    S(hbond)    S(metal)    S(lipo)     H(rot)  DE(clash)    DE(int)     intcor
      8.39     -11.96       0.99        0.00      82.62       2.53       1.52       2.06       ----

> <Gold.Chemscore.Fitness>
8.3854

> <Gold.Chemscore.DG>
-11.9623

> <Gold.Chemscore.ZeroCoef>
-5.4800

> <Gold.Chemscore.Hbond>
0.9863

> <Gold.Chemscore.Metal>
0.0000

> <Gold.Chemscore.Lipo>
82.6165

> <Gold.Chemscore.Internal_Hbond>
0.0000

> <Gold.Chemscore.DEClash>
1.5219

> <Gold.Chemscore.DEInternal>
2.0550

> <Gold.Chemscore.Rot>
2.5305

> <Gold.Chemscore.Internal.Correction>
   9.000000E+99

> <Gold.Chemscore.Hbonds>
donor molecule, donor type, donor heavy atom, donor atom, acceptor molecule, acceptor atom, score
      L1  H    20    45       P1 10171  0.87

> <Gold.Chemscore.Hbond.Weighted>
-3.2942

> <Gold.Chemscore.Metal.Weighted>
-0.0000

> <Gold.Chemscore.Lipo.Weighted>
-9.6661

> <Gold.Chemscore.Internal_Hbond.Weighted>
0.0000

> <Gold.Chemscore.DEClash.Weighted>
1.5219

> <Gold.Chemscore.DEInternal.Weighted>
2.0550

> <Gold.Chemscore.Rot.Weighted>
6.4780

> <Gold.Chemscore.Internal.Correction.Weighted>
   9.000000E+99

> <Gold.Protein.RotatedTorsions>
[ 6907 6896 6895 6894 ] final -124.75 input  -60.11 | X-H torsion
[ 7974 7965 7964 7962 ] final    1.38 input  175.53 | X-H torsion
[ 8008 7997 7996 7995 ] final  128.45 input   59.86 | X-H torsion
[ 10167 10162 10161 10158 ] final   76.62 input  -65.29 | X-H torsion
[ 10718 10713 10712 10709 ] final  145.33 input   66.30 | X-H torsion
[ 10763 10752 10751 10750 ] final  -83.64 input  -60.55 | X-H torsion
[ 11005 11000 10999 10996 ] final   96.71 input  -57.11 | X-H torsion

> <Gold.Protein.ActiveResidues>
 VAL166  LYS551  ARG553  GLY616  TRP617  ASP618  TYR619  PRO620  LYS621  CYS622 
 ASP623  PHE694  ASN695  SER759  ASP760  ASP761  ALA762  ILE779  LEU786  VAL792 
 PHE793  MET794  SER795  GLU796  ALA797  LYS798  CYS799  TRP800  GLU811  SER814 

> <Gold.Protein.RotatedAtoms>
  150.8799  133.7386  159.2935 H   0  0  0  0  0  0  0  0  0  0  0  0  # atno 6907 bound_to 6896
  151.4971  135.1058  159.9828 H   0  0  0  0  0  0  0  0  0  0  0  0  # atno 6908 bound_to 6896
  152.4753  133.8078  159.7042 H   0  0  0  0  0  0  0  0  0  0  0  0  # atno 6909 bound_to 6896
  146.2440  140.0996  142.8348 H   0  0  0  0  0  0  0  0  0  0  0  0  # atno 7974 bound_to 7965
  156.2915  140.2644  156.2438 H   0  0  0  0  0  0  0  0  0  0  0  0  # atno 8008 bound_to 7997
  154.9951  140.0388  157.2354 H   0  0  0  0  0  0  0  0  0  0  0  0  # atno 8009 bound_to 7997
  154.7651  140.2768  155.6187 H   0  0  0  0  0  0  0  0  0  0  0  0  # atno 8010 bound_to 7997
  139.9903  144.5762  150.7824 H   0  0  0  0  0  0  0  0  0  0  0  0  # atno 10167 bound_to 10162
  157.3465  131.0944  151.1037 H   0  0  0  0  0  0  0  0  0  0  0  0  # atno 10718 bound_to 10713
  154.5902  135.5549  153.7270 H   0  0  0  0  0  0  0  0  0  0  0  0  # atno 10763 bound_to 10752
  153.0114  135.6341  154.1860 H   0  0  0  0  0  0  0  0  0  0  0  0  # atno 10764 bound_to 10752
  154.1801  135.2887  155.3034 H   0  0  0  0  0  0  0  0  0  0  0  0  # atno 10765 bound_to 10752
  139.8780  134.8964  156.4199 H   0  0  0  0  0  0  0  0  0  0  0  0  # atno 11005 bound_to 11000
  145.0580  140.9067  143.4955 LP  0  0  0  0  0  0  0  0  0  0  0  0  # atno 17320 bound_to 7965
  145.1106  139.2760  143.5639 LP  0  0  0  0  0  0  0  0  0  0  0  0  # atno 17321 bound_to 7965
  140.7457  143.2880  151.3410 LP  0  0  0  0  0  0  0  0  0  0  0  0  # atno 17342 bound_to 10162
  139.6345  144.0657  152.2504 LP  0  0  0  0  0  0  0  0  0  0  0  0  # atno 17343 bound_to 10162
  157.2229  130.6489  149.5818 LP  0  0  0  0  0  0  0  0  0  0  0  0  # atno 17370 bound_to 10713
  155.9715  130.4623  150.6142 LP  0  0  0  0  0  0  0  0  0  0  0  0  # atno 17371 bound_to 10713
  140.9141  133.7691  155.9827 LP  0  0  0  0  0  0  0  0  0  0  0  0  # atno 17394 bound_to 11000
  140.8513  134.2950  157.5274 LP  0  0  0  0  0  0  0  0  0  0  0  0  # atno 17395 bound_to 11000

$$$$
