AV-unprocessed.smi:1748|AV-procd|sdf|7036|dock6
  -GOLD-   22720 8253D 1   1.00000     0.00000
 Structure written by MMmdl.
 40 41  0  0  0  0  0  0  0  0  2 V2000
  144.1170  139.4594  155.7912 C   0  0  0  0  0  0  0  0  0  0  0  0
  144.9818  139.5011  154.5925 N   0  3  1  0  0  0  0  0  0  0  0  0
  146.1641  140.3793  154.7777 C   0  0  0  0  0  0  0  0  0  0  0  0
  146.9694  140.5011  153.4733 C   0  0  0  0  0  0  0  0  0  0  0  0
  147.3827  139.1190  152.9483 C   0  0  0  0  0  0  0  0  0  0  0  0
  146.1458  138.2187  152.7954 C   0  0  1  0  0  0  0  0  0  0  0  0
  146.5523  136.8870  152.3570 N   0  0  0  0  0  0  0  0  0  0  0  0
  145.7218  135.8538  152.1570 C   0  0  0  0  0  0  0  0  0  0  0  0
  144.5067  135.9234  152.3394 O   0  0  0  0  0  0  0  0  0  0  0  0
  146.4004  134.7612  151.7618 N   0  0  0  0  0  0  0  0  0  0  0  0
  145.9149  133.4872  151.4215 C   0  0  0  0  0  0  0  0  0  0  0  0
  146.4676  132.3121  151.8216 C   0  0  0  0  0  0  0  0  0  0  0  0
  145.9047  131.0264  151.4429 C   0  0  0  0  0  0  0  0  0  0  0  0
  146.4931  129.7159  151.9428 C   0  0  0  0  0  0  0  0  0  0  0  0
  147.4358  129.9324  152.8612 F   0  0  0  0  0  0  0  0  0  0  0  0
  145.5368  128.9729  152.4980 F   0  0  0  0  0  0  0  0  0  0  0  0
  147.0348  129.0181  150.9442 F   0  0  0  0  0  0  0  0  0  0  0  0
  144.7859  131.0579  150.6958 C   0  0  0  0  0  0  0  0  0  0  0  0
  144.2124  132.2611  150.2788 N   0  0  0  0  0  0  0  0  0  0  0  0
  144.6980  133.4831  150.5924 C   0  0  0  0  0  0  0  0  0  0  0  0
  144.1311  134.4989  150.1910 O   0  0  0  0  0  0  0  0  0  0  0  0
  145.3642  138.1458  154.1246 C   0  0  0  0  0  0  0  0  0  0  0  0
  143.3785  132.2003  149.7123 H   0  0  0  0  0  0  0  0  0  0  0  0
  144.6448  139.0229  156.6400 H   0  0  0  0  0  0  0  0  0  0  0  0
  143.2233  138.8642  155.6008 H   0  0  0  0  0  0  0  0  0  0  0  0
  143.7938  140.4634  156.0681 H   0  0  0  0  0  0  0  0  0  0  0  0
  145.8378  141.3697  155.0976 H   0  0  0  0  0  0  0  0  0  0  0  0
  146.7952  139.9804  155.5735 H   0  0  0  0  0  0  0  0  0  0  0  0
  146.3707  141.0147  152.7197 H   0  0  0  0  0  0  0  0  0  0  0  0
  147.8541  141.1169  153.6373 H   0  0  0  0  0  0  0  0  0  0  0  0
  147.8972  139.2229  151.9920 H   0  0  0  0  0  0  0  0  0  0  0  0
  148.0943  138.6640  153.6391 H   0  0  0  0  0  0  0  0  0  0  0  0
  145.5013  138.6560  152.0299 H   0  0  0  0  0  0  0  0  0  0  0  0
  147.5373  136.7436  152.1872 H   0  0  0  0  0  0  0  0  0  0  0  0
  147.4062  134.8454  151.7294 H   0  0  0  0  0  0  0  0  0  0  0  0
  147.3412  132.2967  152.4522 H   0  0  0  0  0  0  0  0  0  0  0  0
  144.2487  130.1797  150.3687 H   0  0  0  0  0  0  0  0  0  0  0  0
  145.9622  137.6506  154.8920 H   0  0  0  0  0  0  0  0  0  0  0  0
  144.4612  137.5480  153.9921 H   0  0  0  0  0  0  0  0  0  0  0  0
  144.4286  139.9136  153.8547 H   0  0  0  0  0  0  0  0  0  0  0  0
  1  2  1  0  0  0  0
  1 24  1  0  0  0  0
  1 25  1  0  0  0  0
  1 26  1  0  0  0  0
  2 22  1  0  0  0  0
  2  3  1  0  0  0  0
  2 40  1  0  0  0  0
  3  4  1  0  0  0  0
  3 27  1  0  0  0  0
  3 28  1  0  0  0  0
  4  5  1  0  0  0  0
  4 29  1  0  0  0  0
  4 30  1  0  0  0  0
  5  6  1  0  0  0  0
  5 31  1  0  0  0  0
  5 32  1  0  0  0  0
  6  7  1  0  0  0  0
  6 22  1  0  0  0  0
  6 33  1  0  0  0  0
  7  8  1  0  0  0  0
  7 34  1  0  0  0  0
  8  9  2  0  0  0  0
  8 10  1  0  0  0  0
 10 11  1  0  0  0  0
 10 35  1  0  0  0  0
 11 20  1  0  0  0  0
 11 12  2  0  0  0  0
 12 13  1  0  0  0  0
 12 36  1  0  0  0  0
 13 14  1  0  0  0  0
 13 18  2  0  0  0  0
 14 15  1  0  0  0  0
 14 16  1  0  0  0  0
 14 17  1  0  0  0  0
 18 19  1  0  0  0  0
 18 37  1  0  0  0  0
 19 23  1  0  0  0  0
 19 20  1  0  0  0  0
 20 21  2  0  0  0  0
 22 38  1  0  0  0  0
 22 39  1  0  0  0  0
M  CHG  1   2   1
M  END
> <s_m_source_file>
AV-unprocessed.smi

> <i_m_source_file_index>
1748

> <i_lp_mmshare_version>
43012

> <i_f3d_flags>
0

> <s_epik_input>
W0NIM11OMVtDSDJdW0NIMl1bQ0gyXVtDQEhdKFtDSDJdMSlbTkhdQyg9TylbTkhdYzJbY0hdYyhDKEYpKEYpRilbY0hdW25IXWMyPU8=

> <s_epik_cmdline>
J2VwaWtfcHl0aG9uJywgJy1waCcsICc3LjAnLCAnLXRuJywgJzgnLCAnLW1hJywgJzIwMCcsICctbWV0YWxfYmluZGluZycsICctaW1hZScsICc8aW5maWxlLm1hZT4nLCAnLW9tYWUnLCAnPG91dGZpbGUubWFlPic=

> <r_lp_tautomer_probability>
1

> <r_epik_Ionization_Penalty>
0.00746315

> <r_epik_Ionization_Penalty_Charging>
0.00744398

> <r_epik_Ionization_Penalty_Neutral>
1.91704e-05

> <r_epik_State_Penalty>
-0

> <r_epik_Charging_Adjusted_Penalty>
0.00744398

> <i_epik_Tot_Q>
1

> <i_epik_Tot_abs_Q>
1

> <r_epik_Metal_State_Penalty>
0.379332

> <b_epik_Metal_Only>
0

> <s_lp_Force_Field>
OPLS_2005

> <r_lp_Energy>
25.304

> <b_lp_Chiralities_Consistent>
1

> <s_lp_Variant>
AV-unprocessed.smi:1748-1

> <Gold.Version>
5.8.1

> <Gold.Id.Protein>
6NUR|6NUR_protein|mol2

> <Gold.PLP.Fitness>
40.1449

> <Gold.PLP.PLP>
-29.7251

> <Gold.PLP.part.hbond>
-2.9697

> <Gold.PLP.part.metal>
0.0000

> <Gold.PLP.part.buried>
0.6381

> <Gold.PLP.part.nonpolar>
-28.4994

> <Gold.PLP.part.repulsive>
0.5079

> <Gold.PLP.ligand.clash>
0.0000

> <Gold.PLP.ligand.torsion>
0.6131

> <Gold.PLP.Chemscore.Hbond>
3.8713

> <Gold.PLP.Chemscore.CHOScore>
0.0000

> <Gold.PLP.Chemscore.Metal>
0.0000

> <Gold.Chemscore.Hbonds>
donor molecule, donor type, donor heavy atom, donor atom, acceptor molecule, acceptor atom, score
      L1  H     2    40       P1 10175  2.00
      L1  H     7    34       P1  7948  0.99
      L1  H    10    35       P1  7948  0.87

> <Gold.PLP.Chemscore.Internal.Correction>
0.0322

> <Gold.Rescore>
     Score         DG    S(hbond)    S(metal)    S(lipo)     H(rot)  DE(clash)    DE(int)     intcor
     14.52     -20.04       2.90        0.00      63.59       1.00       1.24       4.28       ----

> <Gold.Chemscore.Fitness>
14.5239

> <Gold.Chemscore.DG>
-20.0402

> <Gold.Chemscore.ZeroCoef>
-5.4800

> <Gold.Chemscore.Hbond>
2.8983

> <Gold.Chemscore.Metal>
0.0000

> <Gold.Chemscore.Lipo>
63.5873

> <Gold.Chemscore.Internal_Hbond>
0.0000

> <Gold.Chemscore.DEClash>
1.2383

> <Gold.Chemscore.DEInternal>
4.2780

> <Gold.Chemscore.Rot>
1.0000

> <Gold.Chemscore.Internal.Correction>
   9.000000E+99

> <Gold.Chemscore.Hbonds>
donor molecule, donor type, donor heavy atom, donor atom, acceptor molecule, acceptor atom, score
      L1  H     2    40       P1 10175  1.00
      L1  H     7    34       P1  7948  0.92
      L1  H    10    35       P1  7948  0.57

> <Gold.Chemscore.Hbond.Weighted>
-9.6804

> <Gold.Chemscore.Metal.Weighted>
-0.0000

> <Gold.Chemscore.Lipo.Weighted>
-7.4397

> <Gold.Chemscore.Internal_Hbond.Weighted>
0.0000

> <Gold.Chemscore.DEClash.Weighted>
1.2383

> <Gold.Chemscore.DEInternal.Weighted>
4.2780

> <Gold.Chemscore.Rot.Weighted>
2.5600

> <Gold.Chemscore.Internal.Correction.Weighted>
   9.000000E+99

> <Gold.Protein.RotatedTorsions>
[ 6907 6896 6895 6894 ] final   90.44 input  -60.11 | X-H torsion
[ 7974 7965 7964 7962 ] final  -36.69 input  175.53 | X-H torsion
[ 8008 7997 7996 7995 ] final -127.60 input   59.86 | X-H torsion
[ 10167 10162 10161 10158 ] final  161.55 input  -65.29 | X-H torsion
[ 10718 10713 10712 10709 ] final  -62.67 input   66.30 | X-H torsion
[ 10763 10752 10751 10750 ] final -138.61 input  -60.55 | X-H torsion
[ 11005 11000 10999 10996 ] final   23.21 input  -57.11 | X-H torsion

> <Gold.Protein.ActiveResidues>
 VAL166  LYS551  ARG553  GLY616  TRP617  ASP618  TYR619  PRO620  LYS621  CYS622 
 ASP623  PHE694  ASN695  SER759  ASP760  ASP761  ALA762  ILE779  LEU786  VAL792 
 PHE793  MET794  SER795  GLU796  ALA797  LYS798  CYS799  TRP800  GLU811  SER814 

> <Gold.Protein.RotatedAtoms>
  152.5444  134.1811  159.8635 H   0  0  0  0  0  0  0  0  0  0  0  0  # atno 6907 bound_to 6896
  151.1813  133.4716  159.2601 H   0  0  0  0  0  0  0  0  0  0  0  0  # atno 6908 bound_to 6896
  151.1175  135.0073  159.8578 H   0  0  0  0  0  0  0  0  0  0  0  0  # atno 6909 bound_to 6896
  146.0640  140.6308  142.8984 H   0  0  0  0  0  0  0  0  0  0  0  0  # atno 7974 bound_to 7965
  155.2489  140.0431  157.2984 H   0  0  0  0  0  0  0  0  0  0  0  0  # atno 8008 bound_to 7997
  154.5781  140.2393  155.8062 H   0  0  0  0  0  0  0  0  0  0  0  0  # atno 8009 bound_to 7997
  156.2173  140.2981  155.9877 H   0  0  0  0  0  0  0  0  0  0  0  0  # atno 8010 bound_to 7997
  139.4850  144.4525  151.8811 H   0  0  0  0  0  0  0  0  0  0  0  0  # atno 10167 bound_to 10162
  156.0840  130.4211  150.1168 H   0  0  0  0  0  0  0  0  0  0  0  0  # atno 10718 bound_to 10713
  154.8632  135.3607  154.5412 H   0  0  0  0  0  0  0  0  0  0  0  0  # atno 10763 bound_to 10752
  153.6034  135.7012  153.5380 H   0  0  0  0  0  0  0  0  0  0  0  0  # atno 10764 bound_to 10752
  153.3271  135.4135  155.1426 H   0  0  0  0  0  0  0  0  0  0  0  0  # atno 10765 bound_to 10752
  140.3721  134.2011  155.7666 H   0  0  0  0  0  0  0  0  0  0  0  0  # atno 11005 bound_to 11000
  144.7191  140.4313  143.7021 LP  0  0  0  0  0  0  0  0  0  0  0  0  # atno 17320 bound_to 7965
  145.6510  139.1565  143.2862 LP  0  0  0  0  0  0  0  0  0  0  0  0  # atno 17321 bound_to 7965
  140.3983  144.2527  150.5894 LP  0  0  0  0  0  0  0  0  0  0  0  0  # atno 17342 bound_to 10162
  140.5081  143.2298  151.8576 LP  0  0  0  0  0  0  0  0  0  0  0  0  # atno 17343 bound_to 10162
  156.9193  130.9677  151.3551 LP  0  0  0  0  0  0  0  0  0  0  0  0  # atno 17370 bound_to 10713
  157.5968  130.8483  149.8741 LP  0  0  0  0  0  0  0  0  0  0  0  0  # atno 17371 bound_to 10713
  141.1951  133.8113  157.0729 LP  0  0  0  0  0  0  0  0  0  0  0  0  # atno 17394 bound_to 11000
  140.0543  134.9788  157.1193 LP  0  0  0  0  0  0  0  0  0  0  0  0  # atno 17395 bound_to 11000

$$$$
