AV-unprocessed.smi:1331|AV-procd|sdf|5488|dock2
  -GOLD-   22720 5 63D 1   1.00000     0.00000
 Structure written by MMmdl.
 38 39  0  0  0  0  0  0  0  0  1 V2000
  147.0434  142.0518  154.9286 C   0  0  0  0  0  0  0  0  0  0  0  0
  148.2168  141.1874  155.4095 C   0  0  1  0  0  0  0  0  0  0  0  0
  149.1074  140.7429  154.2294 C   0  0  0  0  0  0  0  0  0  0  0  0
  149.9433  139.6007  154.5551 N   0  0  0  0  0  0  0  0  0  0  0  0
  149.5890  138.2693  154.6184 C   0  0  0  0  0  0  0  0  0  0  0  0
  150.7122  137.5654  154.9449 C   0  0  0  0  0  0  0  0  0  0  0  0
  151.7153  138.5675  155.0668 C   0  0  0  0  0  0  0  0  0  0  0  0
  151.2511  139.7850  154.8368 N   0  0  0  0  0  0  0  0  0  0  0  0
  148.9940  141.9465  156.3885 N   0  0  0  0  0  0  0  0  0  0  0  0
  149.9174  141.4407  157.2219 C   0  0  0  0  0  0  0  0  0  0  0  0
  150.2037  140.2441  157.2708 O   0  0  0  0  0  0  0  0  0  0  0  0
  150.6414  142.4453  158.1273 C   0  0  0  0  0  0  0  0  0  0  0  0
  151.3728  143.5129  157.2857 C   0  0  0  0  0  0  0  0  0  0  0  0
  152.1119  144.5203  158.1817 C   0  0  0  0  0  0  0  0  0  0  0  0
  153.0904  143.8095  159.1307 C   0  0  0  0  0  0  0  0  0  0  0  0
  152.3744  142.7373  159.9670 C   0  0  0  0  0  0  0  0  0  0  0  0
  151.6352  141.7318  159.0689 C   0  0  0  0  0  0  0  0  0  0  0  0
  146.4209  141.5069  154.2183 H   0  0  0  0  0  0  0  0  0  0  0  0
  147.3926  142.9599  154.4361 H   0  0  0  0  0  0  0  0  0  0  0  0
  146.4061  142.3482  155.7625 H   0  0  0  0  0  0  0  0  0  0  0  0
  147.7895  140.3006  155.8811 H   0  0  0  0  0  0  0  0  0  0  0  0
  148.4885  140.4733  153.3725 H   0  0  0  0  0  0  0  0  0  0  0  0
  149.7482  141.5631  153.9025 H   0  0  0  0  0  0  0  0  0  0  0  0
  148.5808  137.9373  154.4191 H   0  0  0  0  0  0  0  0  0  0  0  0
  150.8042  136.4973  155.0748 H   0  0  0  0  0  0  0  0  0  0  0  0
  152.7597  138.4474  155.3142 H   0  0  0  0  0  0  0  0  0  0  0  0
  148.8281  142.9419  156.4223 H   0  0  0  0  0  0  0  0  0  0  0  0
  149.8956  142.9512  158.7434 H   0  0  0  0  0  0  0  0  0  0  0  0
  152.0894  143.0377  156.6137 H   0  0  0  0  0  0  0  0  0  0  0  0
  150.6617  144.0431  156.6509 H   0  0  0  0  0  0  0  0  0  0  0  0
  152.6499  145.2409  157.5653 H   0  0  0  0  0  0  0  0  0  0  0  0
  151.3875  145.0910  158.7638 H   0  0  0  0  0  0  0  0  0  0  0  0
  153.8897  143.3461  158.5511 H   0  0  0  0  0  0  0  0  0  0  0  0
  153.5669  144.5371  159.7883 H   0  0  0  0  0  0  0  0  0  0  0  0
  153.0955  142.2143  160.5957 H   0  0  0  0  0  0  0  0  0  0  0  0
  151.6640  143.2146  160.6429 H   0  0  0  0  0  0  0  0  0  0  0  0
  151.1085  141.0068  159.6907 H   0  0  0  0  0  0  0  0  0  0  0  0
  152.3661  141.1668  158.4881 H   0  0  0  0  0  0  0  0  0  0  0  0
  1  2  1  0  0  0  0
  1 18  1  0  0  0  0
  1 19  1  0  0  0  0
  1 20  1  0  0  0  0
  2  3  1  0  0  0  0
  2  9  1  0  0  0  0
  2 21  1  0  0  0  0
  3  4  1  0  0  0  0
  3 22  1  0  0  0  0
  3 23  1  0  0  0  0
  4  8  1  0  0  0  0
  4  5  1  0  0  0  0
  5  6  2  0  0  0  0
  5 24  1  0  0  0  0
  6  7  1  0  0  0  0
  6 25  1  0  0  0  0
  7  8  2  0  0  0  0
  7 26  1  0  0  0  0
  9 10  1  0  0  0  0
  9 27  1  0  0  0  0
 10 11  2  0  0  0  0
 10 12  1  0  0  0  0
 12 17  1  0  0  0  0
 12 13  1  0  0  0  0
 12 28  1  0  0  0  0
 13 14  1  0  0  0  0
 13 29  1  0  0  0  0
 13 30  1  0  0  0  0
 14 15  1  0  0  0  0
 14 31  1  0  0  0  0
 14 32  1  0  0  0  0
 15 16  1  0  0  0  0
 15 33  1  0  0  0  0
 15 34  1  0  0  0  0
 16 17  1  0  0  0  0
 16 35  1  0  0  0  0
 16 36  1  0  0  0  0
 17 37  1  0  0  0  0
 17 38  1  0  0  0  0
M  END
> <s_m_source_file>
AV-unprocessed.smi

> <i_m_source_file_index>
1331

> <i_lp_mmshare_version>
43012

> <i_f3d_flags>
0

> <s_epik_input>
bjFbY0hdW2NIXVtjSF1uMVtDSDJdW0NAQEhdKFtDSDNdKVtOSF1DKD1PKVtDSF0yW0NIMl1bQ0gyXVtDSDJdW0NIMl1bQ0gyXTI=

> <s_epik_cmdline>
J2VwaWtfcHl0aG9uJywgJy1waCcsICc3LjAnLCAnLXRuJywgJzgnLCAnLW1hJywgJzIwMCcsICctbWV0YWxfYmluZGluZycsICctaW1hZScsICc8aW5maWxlLm1hZT4nLCAnLW9tYWUnLCAnPG91dGZpbGUubWFlPic=

> <r_lp_tautomer_probability>
1

> <r_epik_Ionization_Penalty>
0.000326658

> <r_epik_Ionization_Penalty_Charging>
0

> <r_epik_Ionization_Penalty_Neutral>
0.000326658

> <r_epik_State_Penalty>
-0

> <r_epik_Charging_Adjusted_Penalty>
0

> <i_epik_Tot_Q>
0

> <i_epik_Tot_abs_Q>
0

> <r_epik_Metal_State_Penalty>
-0

> <b_epik_Metal_Only>
0

> <s_lp_Force_Field>
OPLS_2005

> <r_lp_Energy>
10.1956

> <b_lp_Chiralities_Consistent>
1

> <s_lp_Variant>
AV-unprocessed.smi:1331-2

> <Gold.Version>
5.8.1

> <Gold.Id.Protein>
6NUR|6NUR_protein|mol2

> <Gold.PLP.Fitness>
45.4183

> <Gold.PLP.PLP>
-40.5111

> <Gold.PLP.part.hbond>
-1.9973

> <Gold.PLP.part.metal>
0.0000

> <Gold.PLP.part.buried>
-1.8810

> <Gold.PLP.part.nonpolar>
-36.5523

> <Gold.PLP.part.repulsive>
0.1159

> <Gold.PLP.ligand.clash>
0.0000

> <Gold.PLP.ligand.torsion>
0.5611

> <Gold.PLP.Chemscore.Hbond>
1.9920

> <Gold.PLP.Chemscore.CHOScore>
0.0000

> <Gold.PLP.Chemscore.Metal>
0.0000

> <Gold.Chemscore.Hbonds>
donor molecule, donor type, donor heavy atom, donor atom, acceptor molecule, acceptor atom, score
      L1  H     9    27       P1  8028  1.00
      P1  H  7989  7998       L1     8  0.90

> <Gold.PLP.Chemscore.Internal.Correction>
0.0534

> <Gold.Rescore>
     Score         DG    S(hbond)    S(metal)    S(lipo)     H(rot)  DE(clash)    DE(int)     intcor
     18.02     -19.85       1.84        0.00     102.90       1.49       0.10       1.73       ----

> <Gold.Chemscore.Fitness>
18.0156

> <Gold.Chemscore.DG>
-19.8520

> <Gold.Chemscore.ZeroCoef>
-5.4800

> <Gold.Chemscore.Hbond>
1.8407

> <Gold.Chemscore.Metal>
0.0000

> <Gold.Chemscore.Lipo>
102.8976

> <Gold.Chemscore.Internal_Hbond>
0.0000

> <Gold.Chemscore.DEClash>
0.1035

> <Gold.Chemscore.DEInternal>
1.7329

> <Gold.Chemscore.Rot>
1.4902

> <Gold.Chemscore.Internal.Correction>
   9.000000E+99

> <Gold.Chemscore.Hbonds>
donor molecule, donor type, donor heavy atom, donor atom, acceptor molecule, acceptor atom, score
      L1  H     9    27       P1  8028  0.95
      P1  H  7989  7998       L1     8  0.18

> <Gold.Chemscore.Hbond.Weighted>
-6.1478

> <Gold.Chemscore.Metal.Weighted>
-0.0000

> <Gold.Chemscore.Lipo.Weighted>
-12.0390

> <Gold.Chemscore.Internal_Hbond.Weighted>
0.0000

> <Gold.Chemscore.DEClash.Weighted>
0.1035

> <Gold.Chemscore.DEInternal.Weighted>
1.7329

> <Gold.Chemscore.Rot.Weighted>
3.8149

> <Gold.Chemscore.Internal.Correction.Weighted>
   9.000000E+99

> <Gold.Protein.RotatedTorsions>
[ 6907 6896 6895 6894 ] final  101.53 input  -60.11 | X-H torsion
[ 7974 7965 7964 7962 ] final -115.85 input  175.53 | X-H torsion
[ 8008 7997 7996 7995 ] final -134.70 input   59.86 | X-H torsion
[ 10167 10162 10161 10158 ] final  -65.79 input  -65.29 | X-H torsion
[ 10718 10713 10712 10709 ] final  -96.78 input   66.30 | X-H torsion
[ 10763 10752 10751 10750 ] final  112.86 input  -60.55 | X-H torsion
[ 11005 11000 10999 10996 ] final  -43.95 input  -57.11 | X-H torsion

> <Gold.Protein.ActiveResidues>
 VAL166  LYS551  ARG553  GLY616  TRP617  ASP618  TYR619  PRO620  LYS621  CYS622 
 ASP623  PHE694  ASN695  SER759  ASP760  ASP761  ALA762  ILE779  LEU786  VAL792 
 PHE793  MET794  SER795  GLU796  ALA797  LYS798  CYS799  TRP800  GLU811  SER814 

> <Gold.Protein.RotatedAtoms>
  152.5347  134.0112  159.7938 H   0  0  0  0  0  0  0  0  0  0  0  0  # atno 6907 bound_to 6896
  151.0314  133.5779  159.2667 H   0  0  0  0  0  0  0  0  0  0  0  0  # atno 6908 bound_to 6896
  151.2783  135.0713  159.9213 H   0  0  0  0  0  0  0  0  0  0  0  0  # atno 6909 bound_to 6896
  145.1036  140.8567  143.3911 H   0  0  0  0  0  0  0  0  0  0  0  0  # atno 7974 bound_to 7965
  155.3663  140.0485  157.3046 H   0  0  0  0  0  0  0  0  0  0  0  0  # atno 8008 bound_to 7997
  154.5152  140.2206  155.9042 H   0  0  0  0  0  0  0  0  0  0  0  0  # atno 8009 bound_to 7997
  156.1628  140.3112  155.8843 H   0  0  0  0  0  0  0  0  0  0  0  0  # atno 8010 bound_to 7997
  140.5704  143.2317  151.6550 H   0  0  0  0  0  0  0  0  0  0  0  0  # atno 10167 bound_to 10162
  156.0069  130.5166  150.6277 H   0  0  0  0  0  0  0  0  0  0  0  0  # atno 10718 bound_to 10713
  153.4841  135.3673  155.2457 H   0  0  0  0  0  0  0  0  0  0  0  0  # atno 10763 bound_to 10752
  154.8754  135.3961  154.3666 H   0  0  0  0  0  0  0  0  0  0  0  0  # atno 10764 bound_to 10752
  153.4274  135.7081  153.6319 H   0  0  0  0  0  0  0  0  0  0  0  0  # atno 10765 bound_to 10752
  141.0418  133.6777  156.2804 H   0  0  0  0  0  0  0  0  0  0  0  0  # atno 11005 bound_to 11000
  145.0927  139.2878  143.5726 LP  0  0  0  0  0  0  0  0  0  0  0  0  # atno 17320 bound_to 7965
  146.3529  140.0470  142.8638 LP  0  0  0  0  0  0  0  0  0  0  0  0  # atno 17321 bound_to 7965
  139.5114  144.3509  152.0653 LP  0  0  0  0  0  0  0  0  0  0  0  0  # atno 17342 bound_to 10162
  140.2646  144.4030  150.6173 LP  0  0  0  0  0  0  0  0  0  0  0  0  # atno 17343 bound_to 10162
  157.4081  131.0819  151.1246 LP  0  0  0  0  0  0  0  0  0  0  0  0  # atno 17370 bound_to 10713
  157.1886  130.6342  149.5696 LP  0  0  0  0  0  0  0  0  0  0  0  0  # atno 17371 bound_to 10713
  140.6220  134.5351  157.5549 LP  0  0  0  0  0  0  0  0  0  0  0  0  # atno 17394 bound_to 11000
  139.9281  134.8016  156.1009 LP  0  0  0  0  0  0  0  0  0  0  0  0  # atno 17395 bound_to 11000

$$$$
