AV-unprocessed.smi:3232|AV-procd|sdf|12343|dock8
  -GOLD-   2272018203D 1   1.00000     0.00000
 Structure written by MMmdl.
 40 41  0  0  0  0  0  0  0  0  2 V2000
  144.1043  137.0791  152.2843 C   0  0  0  0  0  0  0  0  0  0  0  0
  145.6223  137.1767  152.0824 C   0  0  0  0  0  0  0  0  0  0  0  0
  146.3129  135.9028  152.3975 N   0  3  2  0  0  0  0  0  0  0  0  0
  146.0063  134.7876  151.4765 C   0  0  0  0  0  0  0  0  0  0  0  0
  146.2987  133.5235  152.2746 C   0  0  0  0  0  0  0  0  0  0  0  0
  145.8449  133.8995  153.6799 C   0  0  0  0  0  0  0  0  0  0  0  0
  146.0957  135.4177  153.7840 C   0  0  1  0  0  0  0  0  0  0  0  0
  147.3011  135.7869  154.6744 C   0  0  0  0  0  0  0  0  0  0  0  0
  148.0601  136.9051  154.1277 N   0  0  0  0  0  0  0  0  0  0  0  0
  148.1789  138.1108  154.7063 C   0  0  0  0  0  0  0  0  0  0  0  0
  147.5720  138.4216  155.7321 O   0  0  0  0  0  0  0  0  0  0  0  0
  149.1466  139.0953  154.0286 C   0  0  1  0  0  0  0  0  0  0  0  0
  148.8387  140.5701  154.3584 C   0  0  0  0  0  0  0  0  0  0  0  0
  150.5253  138.7444  154.3503 N   0  0  0  0  0  0  0  0  0  0  0  0
  151.1747  137.5878  154.2010 C   0  0  0  0  0  0  0  0  0  0  0  0
  152.4192  137.6060  154.6572 N   0  0  0  0  0  0  0  0  0  0  0  0
  152.4781  138.8937  155.1091 C   0  0  0  0  0  0  0  0  0  0  0  0
  151.3674  139.6155  154.9611 N   0  0  0  0  0  0  0  0  0  0  0  0
  143.6174  138.0101  151.9933 H   0  0  0  0  0  0  0  0  0  0  0  0
  143.8473  136.8885  153.3262 H   0  0  0  0  0  0  0  0  0  0  0  0
  143.6767  136.2791  151.6791 H   0  0  0  0  0  0  0  0  0  0  0  0
  145.8184  137.4316  151.0401 H   0  0  0  0  0  0  0  0  0  0  0  0
  146.0360  137.9862  152.6859 H   0  0  0  0  0  0  0  0  0  0  0  0
  144.9500  134.8102  151.2031 H   0  0  0  0  0  0  0  0  0  0  0  0
  146.5949  134.8459  150.5605 H   0  0  0  0  0  0  0  0  0  0  0  0
  145.7860  132.6444  151.8829 H   0  0  0  0  0  0  0  0  0  0  0  0
  147.3704  133.3202  152.2721 H   0  0  0  0  0  0  0  0  0  0  0  0
  144.7766  133.7017  153.7794 H   0  0  0  0  0  0  0  0  0  0  0  0
  146.3522  133.3130  154.4467 H   0  0  0  0  0  0  0  0  0  0  0  0
  145.1940  135.8797  154.1911 H   0  0  0  0  0  0  0  0  0  0  0  0
  146.9587  136.0651  155.6715 H   0  0  0  0  0  0  0  0  0  0  0  0
  147.9603  134.9264  154.8031 H   0  0  0  0  0  0  0  0  0  0  0  0
  148.5821  136.7324  153.2806 H   0  0  0  0  0  0  0  0  0  0  0  0
  149.0252  138.9705  152.9513 H   0  0  0  0  0  0  0  0  0  0  0  0
  147.8273  140.8393  154.0518 H   0  0  0  0  0  0  0  0  0  0  0  0
  149.5248  141.2362  153.8346 H   0  0  0  0  0  0  0  0  0  0  0  0
  148.9279  140.7782  155.4257 H   0  0  0  0  0  0  0  0  0  0  0  0
  150.7245  136.7104  153.7598 H   0  0  0  0  0  0  0  0  0  0  0  0
  153.3621  139.3088  155.5702 H   0  0  0  0  0  0  0  0  0  0  0  0
  147.3058  136.0710  152.3192 H   0  0  0  0  0  0  0  0  0  0  0  0
  1  2  1  0  0  0  0
  1 19  1  0  0  0  0
  1 20  1  0  0  0  0
  1 21  1  0  0  0  0
  2  3  1  0  0  0  0
  2 22  1  0  0  0  0
  2 23  1  0  0  0  0
  3  7  1  0  0  0  0
  3  4  1  0  0  0  0
  3 40  1  0  0  0  0
  4  5  1  0  0  0  0
  4 24  1  0  0  0  0
  4 25  1  0  0  0  0
  5  6  1  0  0  0  0
  5 26  1  0  0  0  0
  5 27  1  0  0  0  0
  6  7  1  0  0  0  0
  6 28  1  0  0  0  0
  6 29  1  0  0  0  0
  7  8  1  0  0  0  0
  7 30  1  0  0  0  0
  8  9  1  0  0  0  0
  8 31  1  0  0  0  0
  8 32  1  0  0  0  0
  9 10  1  0  0  0  0
  9 33  1  0  0  0  0
 10 11  2  0  0  0  0
 10 12  1  0  0  0  0
 12 13  1  0  0  0  0
 12 14  1  0  0  0  0
 12 34  1  0  0  0  0
 13 35  1  0  0  0  0
 13 36  1  0  0  0  0
 13 37  1  0  0  0  0
 14 18  1  0  0  0  0
 14 15  1  0  0  0  0
 15 16  2  0  0  0  0
 15 38  1  0  0  0  0
 16 17  1  0  0  0  0
 17 18  2  0  0  0  0
 17 39  1  0  0  0  0
M  CHG  1   3   1
M  END
> <s_m_source_file>
AV-unprocessed.smi

> <i_m_source_file_index>
3232

> <i_lp_mmshare_version>
43012

> <i_f3d_flags>
0

> <s_epik_input>
W0NIM11bQ0gyXU4xW0NIMl1bQ0gyXVtDSDJdW0NASF0xW0NIMl1bTkhdQyg9TylbQ0BIXShbQ0gzXSluMltjSF1uW2NIXW4y

> <s_epik_cmdline>
J2VwaWtfcHl0aG9uJywgJy1waCcsICc3LjAnLCAnLXRuJywgJzgnLCAnLW1hJywgJzIwMCcsICctbWV0YWxfYmluZGluZycsICctaW1hZScsICc8aW5maWxlLm1hZT4nLCAnLW9tYWUnLCAnPG91dGZpbGUubWFlPic=

> <r_lp_tautomer_probability>
1

> <r_epik_Ionization_Penalty>
0.00177695

> <r_epik_Ionization_Penalty_Charging>
0.00176881

> <r_epik_Ionization_Penalty_Neutral>
8.13528e-06

> <r_epik_State_Penalty>
0.00119827

> <r_epik_Charging_Adjusted_Penalty>
0.00296709

> <i_epik_Tot_Q>
1

> <i_epik_Tot_abs_Q>
1

> <r_epik_Metal_State_Penalty>
-0

> <b_epik_Metal_Only>
0

> <s_lp_Force_Field>
OPLS_2005

> <r_lp_Energy>
32.1761

> <b_lp_Chiralities_Consistent>
1

> <s_lp_Variant>
AV-unprocessed.smi:3232-5

> <Gold.Version>
5.8.1

> <Gold.Id.Protein>
6NUR|6NUR_protein|mol2

> <Gold.PLP.Fitness>
42.8833

> <Gold.PLP.PLP>
-28.5094

> <Gold.PLP.part.hbond>
-4.0000

> <Gold.PLP.part.metal>
0.0000

> <Gold.PLP.part.buried>
-2.0758

> <Gold.PLP.part.nonpolar>
-23.0057

> <Gold.PLP.part.repulsive>
0.1595

> <Gold.PLP.ligand.clash>
0.0000

> <Gold.PLP.ligand.torsion>
1.1588

> <Gold.PLP.Chemscore.Hbond>
4.5829

> <Gold.PLP.Chemscore.CHOScore>
0.9422

> <Gold.PLP.Chemscore.Metal>
0.0000

> <Gold.Chemscore.Hbonds>
donor molecule, donor type, donor heavy atom, donor atom, acceptor molecule, acceptor atom, score
      L1  H     3    40       P1  7948  2.00
      L1  H     9    33       P1  7948  1.00
      P1  H  7989  7998       L1    18  0.95
      P1  H 10752 10763       L1    16  0.60
      L1  C    15    38       P1  7948  0.30
      L1  C    15    38       P1  7949  0.63

> <Gold.PLP.Chemscore.Internal.Correction>
0.1161

> <Gold.Rescore>
     Score         DG    S(hbond)    S(metal)    S(lipo)     H(rot)  DE(clash)    DE(int)     intcor
     12.06     -14.41       3.39        0.00      34.07       2.49       1.26       1.08       ----

> <Gold.Chemscore.Fitness>
12.0589

> <Gold.Chemscore.DG>
-14.4075

> <Gold.Chemscore.ZeroCoef>
-5.4800

> <Gold.Chemscore.Hbond>
3.3865

> <Gold.Chemscore.Metal>
0.0000

> <Gold.Chemscore.Lipo>
34.0698

> <Gold.Chemscore.Internal_Hbond>
0.0000

> <Gold.Chemscore.DEClash>
1.2646

> <Gold.Chemscore.DEInternal>
1.0840

> <Gold.Chemscore.Rot>
2.4882

> <Gold.Chemscore.Internal.Correction>
   9.000000E+99

> <Gold.Chemscore.Hbonds>
donor molecule, donor type, donor heavy atom, donor atom, acceptor molecule, acceptor atom, score
      L1  H     3    40       P1  7948  1.00
      L1  H     9    33       P1  7948  0.94
      P1  H  7989  7998       L1    18  0.14
      P1  H 10752 10763       L1    16  0.15

> <Gold.Chemscore.Hbond.Weighted>
-11.3111

> <Gold.Chemscore.Metal.Weighted>
-0.0000

> <Gold.Chemscore.Lipo.Weighted>
-3.9862

> <Gold.Chemscore.Internal_Hbond.Weighted>
0.0000

> <Gold.Chemscore.DEClash.Weighted>
1.2646

> <Gold.Chemscore.DEInternal.Weighted>
1.0840

> <Gold.Chemscore.Rot.Weighted>
6.3697

> <Gold.Chemscore.Internal.Correction.Weighted>
   9.000000E+99

> <Gold.Protein.RotatedTorsions>
[ 6907 6896 6895 6894 ] final  -43.52 input  -60.11 | X-H torsion
[ 7974 7965 7964 7962 ] final -129.53 input  175.53 | X-H torsion
[ 8008 7997 7996 7995 ] final   68.70 input   59.86 | X-H torsion
[ 10167 10162 10161 10158 ] final   10.50 input  -65.29 | X-H torsion
[ 10718 10713 10712 10709 ] final -142.72 input   66.30 | X-H torsion
[ 10763 10752 10751 10750 ] final   40.96 input  -60.55 | X-H torsion
[ 11005 11000 10999 10996 ] final  -22.67 input  -57.11 | X-H torsion

> <Gold.Protein.ActiveResidues>
 VAL166  LYS551  ARG553  GLY616  TRP617  ASP618  TYR619  PRO620  LYS621  CYS622 
 ASP623  PHE694  ASN695  SER759  ASP760  ASP761  ALA762  ILE779  LEU786  VAL792 
 PHE793  MET794  SER795  GLU796  ALA797  LYS798  CYS799  TRP800  GLU811  SER814 

> <Gold.Protein.RotatedAtoms>
  150.9430  134.8838  159.7624 H   0  0  0  0  0  0  0  0  0  0  0  0  # atno 6907 bound_to 6896
  152.5088  134.3914  159.9395 H   0  0  0  0  0  0  0  0  0  0  0  0  # atno 6908 bound_to 6896
  151.3934  133.3741  159.2758 H   0  0  0  0  0  0  0  0  0  0  0  0  # atno 6909 bound_to 6896
  144.9563  140.7399  143.4757 H   0  0  0  0  0  0  0  0  0  0  0  0  # atno 7974 bound_to 7965
  155.7123  140.3494  155.4979 H   0  0  0  0  0  0  0  0  0  0  0  0  # atno 8008 bound_to 7997
  155.9344  140.1090  157.1128 H   0  0  0  0  0  0  0  0  0  0  0  0  # atno 8009 bound_to 7997
  154.4091  140.1225  156.4832 H   0  0  0  0  0  0  0  0  0  0  0  0  # atno 8010 bound_to 7997
  140.6190  143.8245  150.7153 H   0  0  0  0  0  0  0  0  0  0  0  0  # atno 10167 bound_to 10162
  156.3493  130.7679  151.1829 H   0  0  0  0  0  0  0  0  0  0  0  0  # atno 10718 bound_to 10713
  152.9921  135.6176  154.2710 H   0  0  0  0  0  0  0  0  0  0  0  0  # atno 10763 bound_to 10752
  154.2442  135.2787  155.2843 H   0  0  0  0  0  0  0  0  0  0  0  0  # atno 10764 bound_to 10752
  154.5343  135.5779  153.6843 H   0  0  0  0  0  0  0  0  0  0  0  0  # atno 10765 bound_to 10752
  140.8679  133.7741  156.0151 H   0  0  0  0  0  0  0  0  0  0  0  0  # atno 11005 bound_to 11000
  145.2768  139.1933  143.4812 LP  0  0  0  0  0  0  0  0  0  0  0  0  # atno 17320 bound_to 7965
  146.3338  140.2723  142.8606 LP  0  0  0  0  0  0  0  0  0  0  0  0  # atno 17321 bound_to 7965
  140.1830  143.4099  152.1919 LP  0  0  0  0  0  0  0  0  0  0  0  0  # atno 17342 bound_to 10162
  139.5423  144.7267  151.4694 LP  0  0  0  0  0  0  0  0  0  0  0  0  # atno 17343 bound_to 10162
  157.7459  131.0432  150.4732 LP  0  0  0  0  0  0  0  0  0  0  0  0  # atno 17370 bound_to 10713
  156.4925  130.4098  149.6398 LP  0  0  0  0  0  0  0  0  0  0  0  0  # atno 17371 bound_to 10713
  140.8607  134.2844  157.5235 LP  0  0  0  0  0  0  0  0  0  0  0  0  # atno 17394 bound_to 11000
  139.8710  134.9517  156.4092 LP  0  0  0  0  0  0  0  0  0  0  0  0  # atno 17395 bound_to 11000

$$$$
