AV-unprocessed.smi:1439|AV-procd|sdf|5869|dock5
  -GOLD-   22720 5543D 1   1.00000     0.00000
 Structure written by MMmdl.
 36 37  0  0  0  0  0  0  0  0  1 V2000
  145.0993  138.0626  152.3174 N   0  0  0  0  0  0  0  0  0  0  0  0
  146.1243  138.2692  153.1488 C   0  0  0  0  0  0  0  0  0  0  0  0
  146.2772  137.6156  154.1785 O   0  0  0  0  0  0  0  0  0  0  0  0
  147.1180  139.3708  152.7746 C   0  0  0  0  0  0  0  0  0  0  0  0
  147.2338  140.3716  153.8882 C   0  0  0  0  0  0  0  0  0  0  0  0
  146.2668  141.2550  154.3055 C   0  0  0  0  0  0  0  0  0  0  0  0
  146.8102  142.2434  155.6337 S   0  0  0  0  0  0  0  0  0  0  0  0
  148.3632  141.4084  155.5635 C   0  0  0  0  0  0  0  0  0  0  0  0
  149.4987  141.6313  156.3813 N   0  0  0  0  0  0  0  0  0  0  0  0
  150.7405  141.1403  156.2245 C   0  0  0  0  0  0  0  0  0  0  0  0
  151.0848  140.3937  155.3084 O   0  0  0  0  0  0  0  0  0  0  0  0
  151.7594  141.5621  157.2878 C   0  0  0  0  0  0  0  0  0  0  0  0
  151.0988  142.1053  158.5680 C   0  0  0  0  0  0  0  0  0  0  0  0
  152.1261  142.5736  159.6088 C   0  0  2  0  0  0  0  0  0  0  0  0
  153.1237  141.4964  160.0232 C   0  0  0  0  0  0  0  0  0  0  0  0
  153.6192  141.9984  161.3675 C   0  0  0  0  0  0  0  0  0  0  0  0
  152.4921  142.9140  161.8578 C   0  0  0  0  0  0  0  0  0  0  0  0
  151.4966  142.8875  160.8412 O   0  0  0  0  0  0  0  0  0  0  0  0
  148.4269  140.4742  154.6131 N   0  0  0  0  0  0  0  0  0  0  0  0
  144.4250  137.3400  152.5236 H   0  0  0  0  0  0  0  0  0  0  0  0
  145.0059  138.6234  151.4828 H   0  0  0  0  0  0  0  0  0  0  0  0
  148.0858  138.9216  152.5469 H   0  0  0  0  0  0  0  0  0  0  0  0
  146.7844  139.8585  151.8579 H   0  0  0  0  0  0  0  0  0  0  0  0
  145.2677  141.3791  153.9143 H   0  0  0  0  0  0  0  0  0  0  0  0
  149.3510  142.2369  157.1754 H   0  0  0  0  0  0  0  0  0  0  0  0
  152.3963  140.7125  157.5391 H   0  0  0  0  0  0  0  0  0  0  0  0
  152.4104  142.3214  156.8533 H   0  0  0  0  0  0  0  0  0  0  0  0
  150.4300  142.9322  158.3246 H   0  0  0  0  0  0  0  0  0  0  0  0
  150.4771  141.3254  159.0104 H   0  0  0  0  0  0  0  0  0  0  0  0
  152.6620  143.4538  159.2485 H   0  0  0  0  0  0  0  0  0  0  0  0
  152.6149  140.5403  160.1542 H   0  0  0  0  0  0  0  0  0  0  0  0
  153.9258  141.3573  159.2976 H   0  0  0  0  0  0  0  0  0  0  0  0
  153.8181  141.1777  162.0574 H   0  0  0  0  0  0  0  0  0  0  0  0
  154.5412  142.5686  161.2482 H   0  0  0  0  0  0  0  0  0  0  0  0
  152.0714  142.5792  162.8063 H   0  0  0  0  0  0  0  0  0  0  0  0
  152.8545  143.9343  161.9889 H   0  0  0  0  0  0  0  0  0  0  0  0
  1  2  1  0  0  0  0
  1 20  1  0  0  0  0
  1 21  1  0  0  0  0
  2  3  2  0  0  0  0
  2  4  1  0  0  0  0
  4  5  1  0  0  0  0
  4 22  1  0  0  0  0
  4 23  1  0  0  0  0
  5 19  1  0  0  0  0
  5  6  2  0  0  0  0
  6  7  1  0  0  0  0
  6 24  1  0  0  0  0
  7  8  1  0  0  0  0
  8  9  1  0  0  0  0
  8 19  2  0  0  0  0
  9 10  1  0  0  0  0
  9 25  1  0  0  0  0
 10 11  2  0  0  0  0
 10 12  1  0  0  0  0
 12 13  1  0  0  0  0
 12 26  1  0  0  0  0
 12 27  1  0  0  0  0
 13 14  1  0  0  0  0
 13 28  1  0  0  0  0
 13 29  1  0  0  0  0
 14 18  1  0  0  0  0
 14 15  1  0  0  0  0
 14 30  1  0  0  0  0
 15 16  1  0  0  0  0
 15 31  1  0  0  0  0
 15 32  1  0  0  0  0
 16 17  1  0  0  0  0
 16 33  1  0  0  0  0
 16 34  1  0  0  0  0
 17 18  1  0  0  0  0
 17 35  1  0  0  0  0
 17 36  1  0  0  0  0
M  END
> <s_m_source_file>
AV-unprocessed.smi

> <i_m_source_file_index>
1439

> <i_lp_mmshare_version>
43012

> <i_f3d_flags>
0

> <s_epik_input>
W05IMl1DKD1PKVtDSDJdYzFbY0hdc2MobjEpW05IXUMoPU8pW0NIMl1bQ0gyXVtDQEBIXTJbQ0gyXVtDSDJdW0NIMl1PMg==

> <s_epik_cmdline>
J2VwaWtfcHl0aG9uJywgJy1waCcsICc3LjAnLCAnLXRuJywgJzgnLCAnLW1hJywgJzIwMCcsICctbWV0YWxfYmluZGluZycsICctaW1hZScsICc8aW5maWxlLm1hZT4nLCAnLW9tYWUnLCAnPG91dGZpbGUubWFlPic=

> <r_lp_tautomer_probability>
1

> <r_epik_Ionization_Penalty>
0.000300833

> <r_epik_Ionization_Penalty_Charging>
0

> <r_epik_Ionization_Penalty_Neutral>
0.000300833

> <r_epik_State_Penalty>
-0

> <r_epik_Charging_Adjusted_Penalty>
0

> <i_epik_Tot_Q>
0

> <i_epik_Tot_abs_Q>
0

> <r_epik_Metal_State_Penalty>
0.167159

> <b_epik_Metal_Only>
0

> <s_lp_Force_Field>
OPLS_2005

> <r_lp_Energy>
15.8288

> <b_lp_Chiralities_Consistent>
1

> <s_lp_Variant>
AV-unprocessed.smi:1439-1

> <Gold.Version>
5.8.1

> <Gold.Id.Protein>
6NUR|6NUR_protein|mol2

> <Gold.PLP.Fitness>
42.9263

> <Gold.PLP.PLP>
-35.1762

> <Gold.PLP.part.hbond>
-4.3389

> <Gold.PLP.part.metal>
0.0000

> <Gold.PLP.part.buried>
-4.4913

> <Gold.PLP.part.nonpolar>
-27.1889

> <Gold.PLP.part.repulsive>
0.3781

> <Gold.PLP.ligand.clash>
0.0000

> <Gold.PLP.ligand.torsion>
0.3679

> <Gold.PLP.Chemscore.Hbond>
1.8125

> <Gold.PLP.Chemscore.CHOScore>
1.0000

> <Gold.PLP.Chemscore.Metal>
0.0000

> <Gold.Chemscore.Hbonds>
donor molecule, donor type, donor heavy atom, donor atom, acceptor molecule, acceptor atom, score
      L1  H     1    21       P1 10171  0.75
      P1  H  6933  6945       L1    18  0.05
      P1  H  7989  7998       L1    11  1.00
      L1  C     6    24       P1 10175  1.00

> <Gold.PLP.Chemscore.Internal.Correction>
0.0486

> <Gold.Rescore>
     Score         DG    S(hbond)    S(metal)    S(lipo)     H(rot)  DE(clash)    DE(int)     intcor
     12.42     -14.28       1.84        0.00      78.79       2.56       0.07       1.79       ----

> <Gold.Chemscore.Fitness>
12.4166

> <Gold.Chemscore.DG>
-14.2824

> <Gold.Chemscore.ZeroCoef>
-5.4800

> <Gold.Chemscore.Hbond>
1.8374

> <Gold.Chemscore.Metal>
0.0000

> <Gold.Chemscore.Lipo>
78.7907

> <Gold.Chemscore.Internal_Hbond>
0.0000

> <Gold.Chemscore.DEClash>
0.0711

> <Gold.Chemscore.DEInternal>
1.7947

> <Gold.Chemscore.Rot>
2.5598

> <Gold.Chemscore.Internal.Correction>
   9.000000E+99

> <Gold.Chemscore.Hbonds>
donor molecule, donor type, donor heavy atom, donor atom, acceptor molecule, acceptor atom, score
      L1  H     1    21       P1 10171  0.70
      P1  H  7989  7998       L1    11  0.94

> <Gold.Chemscore.Hbond.Weighted>
-6.1371

> <Gold.Chemscore.Metal.Weighted>
-0.0000

> <Gold.Chemscore.Lipo.Weighted>
-9.2185

> <Gold.Chemscore.Internal_Hbond.Weighted>
0.0000

> <Gold.Chemscore.DEClash.Weighted>
0.0711

> <Gold.Chemscore.DEInternal.Weighted>
1.7947

> <Gold.Chemscore.Rot.Weighted>
6.5532

> <Gold.Chemscore.Internal.Correction.Weighted>
   9.000000E+99

> <Gold.Protein.RotatedTorsions>
[ 6907 6896 6895 6894 ] final   60.29 input  -60.11 | X-H torsion
[ 7974 7965 7964 7962 ] final   16.31 input  175.53 | X-H torsion
[ 8008 7997 7996 7995 ] final  104.38 input   59.86 | X-H torsion
[ 10167 10162 10161 10158 ] final    8.33 input  -65.29 | X-H torsion
[ 10718 10713 10712 10709 ] final  166.95 input   66.30 | X-H torsion
[ 10763 10752 10751 10750 ] final  -88.78 input  -60.55 | X-H torsion
[ 11005 11000 10999 10996 ] final -162.84 input  -57.11 | X-H torsion

> <Gold.Protein.ActiveResidues>
 VAL166  LYS551  ARG553  GLY616  TRP617  ASP618  TYR619  PRO620  LYS621  CYS622 
 ASP623  PHE694  ASN695  SER759  ASP760  ASP761  ALA762  ILE779  LEU786  VAL792 
 PHE793  MET794  SER795  GLU796  ALA797  LYS798  CYS799  TRP800  GLU811  SER814 

> <Gold.Protein.RotatedAtoms>
  152.3990  134.6318  160.0077 H   0  0  0  0  0  0  0  0  0  0  0  0  # atno 6907 bound_to 6896
  151.6529  133.3314  159.3164 H   0  0  0  0  0  0  0  0  0  0  0  0  # atno 6908 bound_to 6896
  150.7893  134.6946  159.6561 H   0  0  0  0  0  0  0  0  0  0  0  0  # atno 6909 bound_to 6896
  146.2253  139.8766  142.8578 H   0  0  0  0  0  0  0  0  0  0  0  0  # atno 7974 bound_to 7965
  156.1567  140.3149  155.8738 H   0  0  0  0  0  0  0  0  0  0  0  0  # atno 8008 bound_to 7997
  155.3864  140.0491  157.3059 H   0  0  0  0  0  0  0  0  0  0  0  0  # atno 8009 bound_to 7997
  154.5108  140.2164  155.9171 H   0  0  0  0  0  0  0  0  0  0  0  0  # atno 8010 bound_to 7997
  140.6320  143.7971  150.7309 H   0  0  0  0  0  0  0  0  0  0  0  0  # atno 10167 bound_to 10162
  157.0586  131.0333  151.2655 H   0  0  0  0  0  0  0  0  0  0  0  0  # atno 10718 bound_to 10713
  154.6482  135.5365  153.7870 H   0  0  0  0  0  0  0  0  0  0  0  0  # atno 10763 bound_to 10752
  153.0371  135.6476  154.1057 H   0  0  0  0  0  0  0  0  0  0  0  0  # atno 10764 bound_to 10752
  154.0976  135.2935  155.3238 H   0  0  0  0  0  0  0  0  0  0  0  0  # atno 10765 bound_to 10752
  140.6048  134.4910  157.5209 H   0  0  0  0  0  0  0  0  0  0  0  0  # atno 11005 bound_to 11000
  145.2554  141.0059  143.3857 LP  0  0  0  0  0  0  0  0  0  0  0  0  # atno 17320 bound_to 7965
  144.9341  139.4265  143.6481 LP  0  0  0  0  0  0  0  0  0  0  0  0  # atno 17321 bound_to 7965
  140.1584  143.4296  152.2083 LP  0  0  0  0  0  0  0  0  0  0  0  0  # atno 17342 bound_to 10162
  139.5534  144.7354  151.4367 LP  0  0  0  0  0  0  0  0  0  0  0  0  # atno 17343 bound_to 10162
  157.4973  130.7858  149.7568 LP  0  0  0  0  0  0  0  0  0  0  0  0  # atno 17370 bound_to 10713
  155.9985  130.3893  150.2698 LP  0  0  0  0  0  0  0  0  0  0  0  0  # atno 17371 bound_to 10713
  139.9217  134.8136  156.1191 LP  0  0  0  0  0  0  0  0  0  0  0  0  # atno 17394 bound_to 11000
  141.0848  133.6739  156.2413 LP  0  0  0  0  0  0  0  0  0  0  0  0  # atno 17395 bound_to 11000

$$$$
