AV-unprocessed.smi:37|AV-procd|sdf|328|dock9
  -GOLD-   2262016153D 1   1.00000     0.00000
 Structure written by MMmdl.
 43 44  0  0  0  0  0  0  0  0  2 V2000
  149.0830  131.5594  154.1676 C   0  0  0  0  0  0  0  0  0  0  0  0
  149.2619  133.0505  153.8494 C   0  0  0  0  0  0  0  0  0  0  0  0
  148.6974  133.9457  154.9502 C   0  0  0  0  0  0  0  0  0  0  0  0
  148.8745  135.1641  154.9432 O   0  0  0  0  0  0  0  0  0  0  0  0
  148.0204  133.2541  155.8773 O   0  0  0  0  0  0  0  0  0  0  0  0
  147.2489  133.9372  156.8514 C   0  0  0  0  0  0  0  0  0  0  0  0
  148.1539  134.3967  158.0021 C   0  0  1  0  0  0  0  0  0  0  0  0
  149.3999  134.8362  157.4734 O   0  0  0  0  0  0  0  0  0  0  0  0
  149.8518  135.9004  158.2440 C   0  0  1  0  0  0  0  0  0  0  0  0
  150.8265  136.7361  157.4479 N   0  0  0  0  0  0  0  0  0  0  0  0
  150.5987  137.0321  156.1135 C   0  0  0  0  0  0  0  0  0  0  0  0
  151.4654  137.7876  155.4090 C   0  0  0  0  0  0  0  0  0  0  0  0
  151.2154  138.0638  154.1175 F   0  0  0  0  0  0  0  0  0  0  0  0
  152.6691  138.3033  156.0585 C   0  0  0  0  0  0  0  0  0  0  0  0
  153.4576  138.9887  155.4094 O   0  0  0  0  0  0  0  0  0  0  0  0
  152.8661  137.9970  157.3738 N   0  5  0  0  0  0  0  0  0  0  0  0
  151.9894  137.2360  158.0924 C   0  0  0  0  0  0  0  0  0  0  0  0
  152.1519  136.9586  159.2809 O   0  0  0  0  0  0  0  0  0  0  0  0
  148.6000  136.6809  158.6595 C   0  0  1  0  0  0  0  0  0  0  0  0
  147.9479  137.9031  157.2207 Br  0  0  0  0  0  0  0  0  0  0  0  0
  147.5868  135.5574  158.8437 C   0  0  2  0  0  0  0  0  0  0  0  0
  147.5412  135.1556  160.2082 O   0  0  0  0  0  0  0  0  0  0  0  0
  147.3908  136.0711  161.1833 C   0  0  0  0  0  0  0  0  0  0  0  0
  147.3186  137.2899  161.0253 O   0  0  0  0  0  0  0  0  0  0  0  0
  147.3334  135.4452  162.5749 C   0  0  0  0  0  0  0  0  0  0  0  0
  147.4518  133.9155  162.5313 C   0  0  0  0  0  0  0  0  0  0  0  0
  149.4751  130.9443  153.3576 H   0  0  0  0  0  0  0  0  0  0  0  0
  148.0304  131.3051  154.2957 H   0  0  0  0  0  0  0  0  0  0  0  0
  149.6105  131.2757  155.0787 H   0  0  0  0  0  0  0  0  0  0  0  0
  150.3196  133.2795  153.7183 H   0  0  0  0  0  0  0  0  0  0  0  0
  148.7666  133.2911  152.9085 H   0  0  0  0  0  0  0  0  0  0  0  0
  146.7577  134.7959  156.3923 H   0  0  0  0  0  0  0  0  0  0  0  0
  146.4684  133.2800  157.2375 H   0  0  0  0  0  0  0  0  0  0  0  0
  148.3583  133.5389  158.6450 H   0  0  0  0  0  0  0  0  0  0  0  0
  150.4107  135.4997  159.0921 H   0  0  0  0  0  0  0  0  0  0  0  0
  149.7111  136.6680  155.6180 H   0  0  0  0  0  0  0  0  0  0  0  0
  148.7831  137.2777  159.5538 H   0  0  0  0  0  0  0  0  0  0  0  0
  146.5933  135.8516  158.5014 H   0  0  0  0  0  0  0  0  0  0  0  0
  148.1345  135.8656  163.1829 H   0  0  0  0  0  0  0  0  0  0  0  0
  146.3939  135.7292  163.0497 H   0  0  0  0  0  0  0  0  0  0  0  0
  147.3595  133.4953  163.5329 H   0  0  0  0  0  0  0  0  0  0  0  0
  148.4154  133.5998  162.1298 H   0  0  0  0  0  0  0  0  0  0  0  0
  146.6683  133.4742  161.9145 H   0  0  0  0  0  0  0  0  0  0  0  0
  1  2  1  0  0  0  0
  1 27  1  0  0  0  0
  1 28  1  0  0  0  0
  1 29  1  0  0  0  0
  2  3  1  0  0  0  0
  2 30  1  0  0  0  0
  2 31  1  0  0  0  0
  3  4  2  0  0  0  0
  3  5  1  0  0  0  0
  5  6  1  0  0  0  0
  6  7  1  0  0  0  0
  6 32  1  0  0  0  0
  6 33  1  0  0  0  0
  7 21  1  0  0  0  0
  7  8  1  0  0  0  0
  7 34  1  0  0  0  0
  8  9  1  0  0  0  0
  9 10  1  0  0  0  0
  9 19  1  0  0  0  0
  9 35  1  0  0  0  0
 10 17  1  0  0  0  0
 10 11  1  0  0  0  0
 11 12  2  0  0  0  0
 11 36  1  0  0  0  0
 12 13  1  0  0  0  0
 12 14  1  0  0  0  0
 14 15  2  0  0  0  0
 14 16  1  0  0  0  0
 16 17  1  0  0  0  0
 17 18  2  0  0  0  0
 19 20  1  0  0  0  0
 19 21  1  0  0  0  0
 19 37  1  0  0  0  0
 21 22  1  0  0  0  0
 21 38  1  0  0  0  0
 22 23  1  0  0  0  0
 23 24  2  0  0  0  0
 23 25  1  0  0  0  0
 25 26  1  0  0  0  0
 25 39  1  0  0  0  0
 25 40  1  0  0  0  0
 26 41  1  0  0  0  0
 26 42  1  0  0  0  0
 26 43  1  0  0  0  0
M  CHG  1  16  -1
M  END
> <s_m_source_file>
AV-unprocessed.smi

> <i_m_source_file_index>
37

> <i_lp_mmshare_version>
43012

> <i_f3d_flags>
0

> <s_epik_input>
W0NIM11bQ0gyXUMoPU8pT1tDSDJdW0NAQEhdMU9bQ0BASF0objJbY0hdYyhGKWMoPU8pW25IXWMyPU8pW0NAQEhdKEJyKVtDQEhdMU9DKD1PKVtDSDJdW0NIM10=

> <s_epik_cmdline>
J2VwaWtfcHl0aG9uJywgJy1waCcsICc3LjAnLCAnLXRuJywgJzgnLCAnLW1hJywgJzIwMCcsICctbWV0YWxfYmluZGluZycsICctaW1hZScsICc8aW5maWxlLm1hZT4nLCAnLW9tYWUnLCAnPG91dGZpbGUubWFlPic=

> <r_epik_Ionization_Penalty>
1.08158

> <r_epik_Ionization_Penalty_Charging>
9.05154e-09

> <r_epik_Ionization_Penalty_Neutral>
1.08158

> <r_epik_State_Penalty>
1.13706

> <r_epik_Charging_Adjusted_Penalty>
1.13706

> <i_epik_Tot_Q>
-1

> <i_epik_Tot_abs_Q>
1

> <r_epik_Metal_State_Penalty>
0.00343535

> <b_epik_Metal_Only>
0

> <s_epik_Chemistry_Notes>
This compound has an ester and may undergo hydrolysis at high or low pH. This compound contains an acetal/aminal-like group ( X-CH(R)-Y where X, Y are N, S, or O) that may be acid/base labile, releasing an aldehyde.

> <s_lp_Force_Field>
OPLS_2005

> <r_lp_Energy>
31.9934

> <b_lp_Chiralities_Consistent>
1

> <s_lp_Variant>
AV-unprocessed.smi:37-26

> <Gold.Version>
5.8.1

> <Gold.Id.Protein>
6NUR|6NUR_protein|mol2

> <Gold.PLP.Fitness>
42.9204

> <Gold.PLP.PLP>
-33.4317

> <Gold.PLP.part.hbond>
-4.0000

> <Gold.PLP.part.metal>
0.0000

> <Gold.PLP.part.buried>
-3.8290

> <Gold.PLP.part.nonpolar>
-26.3101

> <Gold.PLP.part.repulsive>
0.1397

> <Gold.PLP.ligand.clash>
0.0000

> <Gold.PLP.ligand.torsion>
1.0579

> <Gold.PLP.Chemscore.Hbond>
3.8160

> <Gold.PLP.Chemscore.CHOScore>
0.0000

> <Gold.PLP.Chemscore.Metal>
0.0000

> <Gold.Chemscore.Hbonds>
donor molecule, donor type, donor heavy atom, donor atom, acceptor molecule, acceptor atom, score
      P1  H  6896  6909       L1    18  1.00
      P1  H  6931  6943       L1    24  0.55
      P1  H  6934  6947       L1    24  1.00
      P1  H  7997  8010       L1    15  1.00

> <Gold.PLP.Chemscore.Internal.Correction>
0.1564

> <Gold.Rescore>
     Score         DG    S(hbond)    S(metal)    S(lipo)     H(rot)  DE(clash)    DE(int)     intcor
     10.14     -12.24       2.93        0.00      45.55       3.27       0.02       2.07       ----

> <Gold.Chemscore.Fitness>
10.1364

> <Gold.Chemscore.DG>
-12.2351

> <Gold.Chemscore.ZeroCoef>
-5.4800

> <Gold.Chemscore.Hbond>
2.9310

> <Gold.Chemscore.Metal>
0.0000

> <Gold.Chemscore.Lipo>
45.5465

> <Gold.Chemscore.Internal_Hbond>
0.0000

> <Gold.Chemscore.DEClash>
0.0247

> <Gold.Chemscore.DEInternal>
2.0740

> <Gold.Chemscore.Rot>
3.2669

> <Gold.Chemscore.Internal.Correction>
   9.000000E+99

> <Gold.Chemscore.Hbonds>
donor molecule, donor type, donor heavy atom, donor atom, acceptor molecule, acceptor atom, score
      P1  H  6896  6909       L1    18  0.93
      P1  H  6931  6943       L1    24  0.43
      P1  H  6934  6947       L1    24  0.98
      P1  H  7997  8010       L1    15  0.95

> <Gold.Chemscore.Hbond.Weighted>
-9.7895

> <Gold.Chemscore.Metal.Weighted>
-0.0000

> <Gold.Chemscore.Lipo.Weighted>
-5.3289

> <Gold.Chemscore.Internal_Hbond.Weighted>
0.0000

> <Gold.Chemscore.DEClash.Weighted>
0.0247

> <Gold.Chemscore.DEInternal.Weighted>
2.0740

> <Gold.Chemscore.Rot.Weighted>
8.3634

> <Gold.Chemscore.Internal.Correction.Weighted>
   9.000000E+99

> <Gold.Protein.RotatedTorsions>
[ 6907 6896 6895 6894 ] final  126.56 input  -60.11 | X-H torsion
[ 7974 7965 7964 7962 ] final -176.96 input  175.53 | X-H torsion
[ 8008 7997 7996 7995 ] final  103.74 input   59.86 | X-H torsion
[ 10167 10162 10161 10158 ] final   39.96 input  -65.29 | X-H torsion
[ 10718 10713 10712 10709 ] final  -97.89 input   66.30 | X-H torsion
[ 10763 10752 10751 10750 ] final  -43.02 input  -60.55 | X-H torsion
[ 11005 11000 10999 10996 ] final  106.94 input  -57.11 | X-H torsion

> <Gold.Protein.ActiveResidues>
 VAL166  LYS551  ARG553  GLY616  TRP617  ASP618  TYR619  PRO620  LYS621  CYS622 
 ASP623  PHE694  ASN695  SER759  ASP760  ASP761  ALA762  ILE779  LEU786  VAL792 
 PHE793  MET794  SER795  GLU796  ALA797  LYS798  CYS799  TRP800  GLU811  SER814 

> <Gold.Protein.RotatedAtoms>
  152.3892  133.6654  159.6223 H   0  0  0  0  0  0  0  0  0  0  0  0  # atno 6907 bound_to 6896
  150.7804  133.8983  159.3342 H   0  0  0  0  0  0  0  0  0  0  0  0  # atno 6908 bound_to 6896
  151.6774  135.0968  160.0261 H   0  0  0  0  0  0  0  0  0  0  0  0  # atno 6909 bound_to 6896
  144.7127  140.1092  143.6412 H   0  0  0  0  0  0  0  0  0  0  0  0  # atno 7974 bound_to 7965
  156.1511  140.3159  155.8650 H   0  0  0  0  0  0  0  0  0  0  0  0  # atno 8008 bound_to 7997
  155.3969  140.0497  157.3055 H   0  0  0  0  0  0  0  0  0  0  0  0  # atno 8009 bound_to 7997
  154.5059  140.2147  155.9263 H   0  0  0  0  0  0  0  0  0  0  0  0  # atno 8010 bound_to 7997
  140.3788  144.2007  150.6131 H   0  0  0  0  0  0  0  0  0  0  0  0  # atno 10167 bound_to 10162
  156.0094  130.5214  150.6441 H   0  0  0  0  0  0  0  0  0  0  0  0  # atno 10718 bound_to 10713
  153.9887  135.6708  153.4753 H   0  0  0  0  0  0  0  0  0  0  0  0  # atno 10763 bound_to 10752
  153.0715  135.4972  154.8310 H   0  0  0  0  0  0  0  0  0  0  0  0  # atno 10764 bound_to 10752
  154.7122  135.3099  154.9142 H   0  0  0  0  0  0  0  0  0  0  0  0  # atno 10765 bound_to 10752
  139.8821  134.9385  156.5743 H   0  0  0  0  0  0  0  0  0  0  0  0  # atno 11005 bound_to 11000
  145.9470  139.2707  143.1235 LP  0  0  0  0  0  0  0  0  0  0  0  0  # atno 17320 bound_to 7965
  145.9364  140.9012  143.0330 LP  0  0  0  0  0  0  0  0  0  0  0  0  # atno 17321 bound_to 7965
  140.4958  143.2333  151.8751 LP  0  0  0  0  0  0  0  0  0  0  0  0  # atno 17342 bound_to 10162
  139.4797  144.5114  151.8927 LP  0  0  0  0  0  0  0  0  0  0  0  0  # atno 17343 bound_to 10162
  157.4215  131.0837  151.1126 LP  0  0  0  0  0  0  0  0  0  0  0  0  # atno 17370 bound_to 10713
  157.1726  130.6274  149.5645 LP  0  0  0  0  0  0  0  0  0  0  0  0  # atno 17371 bound_to 10713
  140.8074  133.8456  155.8780 LP  0  0  0  0  0  0  0  0  0  0  0  0  # atno 17394 bound_to 11000
  140.9537  134.1745  157.4708 LP  0  0  0  0  0  0  0  0  0  0  0  0  # atno 17395 bound_to 11000

$$$$
