AV-unprocessed.smi:3311|AV-procd|sdf|12726|dock6
  -GOLD-   2272019 73D 1   1.00000     0.00000
 Structure written by MMmdl.
 43 44  0  0  0  0  0  0  0  0  1 V2000
  148.1002  142.0012  154.0075 C   0  0  0  0  0  0  0  0  0  0  0  0
  149.3842  141.4837  154.6784 C   0  0  1  0  0  0  0  0  0  0  0  0
  149.7139  142.3750  155.7971 N   0  0  0  0  0  0  0  0  0  0  0  0
  151.0488  142.2067  156.3782 C   0  0  0  0  0  0  0  0  0  0  0  0
  151.1520  142.7900  157.8062 C   0  0  0  0  0  0  0  0  0  0  0  0
  149.9052  142.5608  158.4385 O   0  0  0  0  0  0  0  0  0  0  0  0
  152.2269  142.0109  158.6016 C   0  0  0  0  0  0  0  0  0  0  0  0
  152.4677  142.5787  160.0122 C   0  0  0  0  0  0  0  0  0  0  0  0
  152.8150  144.0727  159.9590 C   0  0  0  0  0  0  0  0  0  0  0  0
  151.7223  144.8630  159.2263 C   0  0  0  0  0  0  0  0  0  0  0  0
  151.4747  144.3064  157.8127 C   0  0  0  0  0  0  0  0  0  0  0  0
  149.2397  139.9870  155.0876 C   0  0  1  0  0  0  0  0  0  0  0  0
  148.0200  139.2507  154.5081 C   0  0  0  0  0  0  0  0  0  0  0  0
  150.4639  139.2176  154.8841 N   0  0  0  0  0  0  0  0  0  0  0  0
  150.6122  137.9389  154.3828 C   0  0  0  0  0  0  0  0  0  0  0  0
  151.9475  137.6550  154.3697 C   0  0  0  0  0  0  0  0  0  0  0  0
  152.5480  138.8361  154.8866 C   0  0  0  0  0  0  0  0  0  0  0  0
  151.6601  139.7679  155.1920 N   0  0  0  0  0  0  0  0  0  0  0  0
  147.8246  141.3801  153.1550 H   0  0  0  0  0  0  0  0  0  0  0  0
  148.2345  143.0186  153.6387 H   0  0  0  0  0  0  0  0  0  0  0  0
  147.2562  142.0108  154.6979 H   0  0  0  0  0  0  0  0  0  0  0  0
  150.1720  141.5531  153.9270 H   0  0  0  0  0  0  0  0  0  0  0  0
  149.5998  143.3401  155.5047 H   0  0  0  0  0  0  0  0  0  0  0  0
  151.3472  141.1620  156.3959 H   0  0  0  0  0  0  0  0  0  0  0  0
  151.7745  142.7128  155.7404 H   0  0  0  0  0  0  0  0  0  0  0  0
  149.7537  143.2563  159.0598 H   0  0  0  0  0  0  0  0  0  0  0  0
  151.9548  140.9568  158.6727 H   0  0  0  0  0  0  0  0  0  0  0  0
  153.1697  142.0400  158.0533 H   0  0  0  0  0  0  0  0  0  0  0  0
  151.5811  142.4292  160.6293 H   0  0  0  0  0  0  0  0  0  0  0  0
  153.2742  142.0289  160.4986 H   0  0  0  0  0  0  0  0  0  0  0  0
  152.9420  144.4620  160.9698 H   0  0  0  0  0  0  0  0  0  0  0  0
  153.7707  144.2102  159.4513 H   0  0  0  0  0  0  0  0  0  0  0  0
  150.7973  144.8301  159.8033 H   0  0  0  0  0  0  0  0  0  0  0  0
  152.0059  145.9138  159.1634 H   0  0  0  0  0  0  0  0  0  0  0  0
  152.3631  144.4852  157.2054 H   0  0  0  0  0  0  0  0  0  0  0  0
  150.6694  144.8745  157.3458 H   0  0  0  0  0  0  0  0  0  0  0  0
  149.0586  140.0034  156.1642 H   0  0  0  0  0  0  0  0  0  0  0  0
  147.1139  139.8491  154.6050 H   0  0  0  0  0  0  0  0  0  0  0  0
  147.8514  138.3134  155.0391 H   0  0  0  0  0  0  0  0  0  0  0  0
  148.1537  138.9972  153.4571 H   0  0  0  0  0  0  0  0  0  0  0  0
  149.7637  137.3440  154.0777 H   0  0  0  0  0  0  0  0  0  0  0  0
  152.4224  136.7432  154.0394 H   0  0  0  0  0  0  0  0  0  0  0  0
  153.5958  139.0432  155.0470 H   0  0  0  0  0  0  0  0  0  0  0  0
  1  2  1  0  0  0  0
  1 19  1  0  0  0  0
  1 20  1  0  0  0  0
  1 21  1  0  0  0  0
  2  3  1  0  0  0  0
  2 12  1  0  0  0  0
  2 22  1  0  0  0  0
  3  4  1  0  0  0  0
  3 23  1  0  0  0  0
  4  5  1  0  0  0  0
  4 24  1  0  0  0  0
  4 25  1  0  0  0  0
  5 11  1  0  0  0  0
  5  6  1  0  0  0  0
  5  7  1  0  0  0  0
  6 26  1  0  0  0  0
  7  8  1  0  0  0  0
  7 27  1  0  0  0  0
  7 28  1  0  0  0  0
  8  9  1  0  0  0  0
  8 29  1  0  0  0  0
  8 30  1  0  0  0  0
  9 10  1  0  0  0  0
  9 31  1  0  0  0  0
  9 32  1  0  0  0  0
 10 11  1  0  0  0  0
 10 33  1  0  0  0  0
 10 34  1  0  0  0  0
 11 35  1  0  0  0  0
 11 36  1  0  0  0  0
 12 13  1  0  0  0  0
 12 14  1  0  0  0  0
 12 37  1  0  0  0  0
 13 38  1  0  0  0  0
 13 39  1  0  0  0  0
 13 40  1  0  0  0  0
 14 18  1  0  0  0  0
 14 15  1  0  0  0  0
 15 16  2  0  0  0  0
 15 41  1  0  0  0  0
 16 17  1  0  0  0  0
 16 42  1  0  0  0  0
 17 18  2  0  0  0  0
 17 43  1  0  0  0  0
M  END
> <s_m_source_file>
AV-unprocessed.smi

> <i_m_source_file_index>
3311

> <i_lp_mmshare_version>
43012

> <i_f3d_flags>
0

> <s_epik_input>
bjFbY0hdW2NIXVtjSF1uMVtDQEBIXShbQ0gzXSlbQ0BIXShbQ0gzXSlbTkhdW0NIMl1DMihbT0hdKVtDSDJdW0NIMl1bQ0gyXVtDSDJdW0NIMl0y

> <s_epik_cmdline>
J2VwaWtfcHl0aG9uJywgJy1waCcsICc3LjAnLCAnLXRuJywgJzgnLCAnLW1hJywgJzIwMCcsICctbWV0YWxfYmluZGluZycsICctaW1hZScsICc8aW5maWxlLm1hZT4nLCAnLW9tYWUnLCAnPG91dGZpbGUubWFlPic=

> <r_lp_tautomer_probability>
1

> <r_epik_Ionization_Penalty>
2.222

> <r_epik_Ionization_Penalty_Charging>
0

> <r_epik_Ionization_Penalty_Neutral>
2.222

> <r_epik_State_Penalty>
2.36562

> <r_epik_Charging_Adjusted_Penalty>
2.36562

> <i_epik_Tot_Q>
0

> <i_epik_Tot_abs_Q>
0

> <r_epik_Metal_State_Penalty>
2.36435

> <b_epik_Metal_Only>
0

> <s_lp_Force_Field>
OPLS_2005

> <r_lp_Energy>
31.437

> <b_lp_Chiralities_Consistent>
1

> <s_lp_Variant>
AV-unprocessed.smi:3311-8

> <Gold.Version>
5.8.1

> <Gold.Id.Protein>
6NUR|6NUR_protein|mol2

> <Gold.PLP.Fitness>
48.9130

> <Gold.PLP.PLP>
-45.1968

> <Gold.PLP.part.hbond>
-1.9625

> <Gold.PLP.part.metal>
0.0000

> <Gold.PLP.part.buried>
-3.5831

> <Gold.PLP.part.nonpolar>
-38.2993

> <Gold.PLP.part.repulsive>
0.0309

> <Gold.PLP.ligand.clash>
0.0000

> <Gold.PLP.ligand.torsion>
2.0780

> <Gold.PLP.Chemscore.Hbond>
1.5400

> <Gold.PLP.Chemscore.CHOScore>
1.0000

> <Gold.PLP.Chemscore.Metal>
0.0000

> <Gold.Chemscore.Hbonds>
donor molecule, donor type, donor heavy atom, donor atom, acceptor molecule, acceptor atom, score
      L1  H     3    23       P1  8028  1.00
      P1  H  7989  7998       L1    18  0.60
      L1  C    15    41       P1  7948  0.88

> <Gold.PLP.Chemscore.Internal.Correction>
0.2522

> <Gold.Rescore>
     Score         DG    S(hbond)    S(metal)    S(lipo)     H(rot)  DE(clash)    DE(int)     intcor
     15.10     -18.40       0.95        0.00     128.53       2.07       0.09       3.22       ----

> <Gold.Chemscore.Fitness>
15.0950

> <Gold.Chemscore.DG>
-18.4041

> <Gold.Chemscore.ZeroCoef>
-5.4800

> <Gold.Chemscore.Hbond>
0.9525

> <Gold.Chemscore.Metal>
0.0000

> <Gold.Chemscore.Lipo>
128.5334

> <Gold.Chemscore.Internal_Hbond>
0.0000

> <Gold.Chemscore.DEClash>
0.0940

> <Gold.Chemscore.DEInternal>
3.2151

> <Gold.Chemscore.Rot>
2.0686

> <Gold.Chemscore.Internal.Correction>
   9.000000E+99

> <Gold.Chemscore.Hbonds>
donor molecule, donor type, donor heavy atom, donor atom, acceptor molecule, acceptor atom, score
      L1  H     3    23       P1  8028  0.92
      P1  H  7989  7998       L1    18  0.01

> <Gold.Chemscore.Hbond.Weighted>
-3.1814

> <Gold.Chemscore.Metal.Weighted>
-0.0000

> <Gold.Chemscore.Lipo.Weighted>
-15.0384

> <Gold.Chemscore.Internal_Hbond.Weighted>
0.0000

> <Gold.Chemscore.DEClash.Weighted>
0.0940

> <Gold.Chemscore.DEInternal.Weighted>
3.2151

> <Gold.Chemscore.Rot.Weighted>
5.2957

> <Gold.Chemscore.Internal.Correction.Weighted>
   9.000000E+99

> <Gold.Protein.RotatedTorsions>
[ 6907 6896 6895 6894 ] final  134.09 input  -60.11 | X-H torsion
[ 7974 7965 7964 7962 ] final  105.09 input  175.53 | X-H torsion
[ 8008 7997 7996 7995 ] final  -51.67 input   59.86 | X-H torsion
[ 10167 10162 10161 10158 ] final  -53.37 input  -65.29 | X-H torsion
[ 10718 10713 10712 10709 ] final   38.90 input   66.30 | X-H torsion
[ 10763 10752 10751 10750 ] final  169.67 input  -60.55 | X-H torsion
[ 11005 11000 10999 10996 ] final -108.30 input  -57.11 | X-H torsion

> <Gold.Protein.ActiveResidues>
 VAL166  LYS551  ARG553  GLY616  TRP617  ASP618  TYR619  PRO620  LYS621  CYS622 
 ASP623  PHE694  ASN695  SER759  ASP760  ASP761  ALA762  ILE779  LEU786  VAL792 
 PHE793  MET794  SER795  GLU796  ALA797  LYS798  CYS799  TRP800  GLU811  SER814 

> <Gold.Protein.RotatedAtoms>
  152.3150  133.5792  159.5705 H   0  0  0  0  0  0  0  0  0  0  0  0  # atno 6907 bound_to 6896
  150.7342  134.0096  159.3674 H   0  0  0  0  0  0  0  0  0  0  0  0  # atno 6908 bound_to 6896
  151.7986  135.0716  160.0448 H   0  0  0  0  0  0  0  0  0  0  0  0  # atno 6909 bound_to 6896
  145.3242  139.2504  143.3695 H   0  0  0  0  0  0  0  0  0  0  0  0  # atno 7974 bound_to 7965
  154.4088  140.1242  156.4866 H   0  0  0  0  0  0  0  0  0  0  0  0  # atno 8008 bound_to 7997
  155.7032  140.3494  155.4922 H   0  0  0  0  0  0  0  0  0  0  0  0  # atno 8009 bound_to 7997
  155.9367  140.1079  157.1079 H   0  0  0  0  0  0  0  0  0  0  0  0  # atno 8010 bound_to 7997
  140.6488  143.2552  151.4782 H   0  0  0  0  0  0  0  0  0  0  0  0  # atno 10167 bound_to 10162
  157.3643  130.7666  149.7071 H   0  0  0  0  0  0  0  0  0  0  0  0  # atno 10718 bound_to 10713
  154.3865  135.2753  155.2180 H   0  0  0  0  0  0  0  0  0  0  0  0  # atno 10763 bound_to 10752
  154.4264  135.5987  153.6045 H   0  0  0  0  0  0  0  0  0  0  0  0  # atno 10764 bound_to 10752
  152.9833  135.5985  154.4114 H   0  0  0  0  0  0  0  0  0  0  0  0  # atno 10765 bound_to 10752
  141.0909  133.9057  157.2078 H   0  0  0  0  0  0  0  0  0  0  0  0  # atno 11005 bound_to 11000
  146.3070  140.3806  142.8683 LP  0  0  0  0  0  0  0  0  0  0  0  0  # atno 17320 bound_to 7965
  144.8915  140.7529  143.5924 LP  0  0  0  0  0  0  0  0  0  0  0  0  # atno 17321 bound_to 7965
  139.5701  144.1948  152.1824 LP  0  0  0  0  0  0  0  0  0  0  0  0  # atno 17342 bound_to 10162
  140.1242  144.5346  150.6843 LP  0  0  0  0  0  0  0  0  0  0  0  0  # atno 17343 bound_to 10162
  155.9743  130.4105  150.3933 LP  0  0  0  0  0  0  0  0  0  0  0  0  # atno 17370 bound_to 10713
  157.2015  131.0439  151.2648 LP  0  0  0  0  0  0  0  0  0  0  0  0  # atno 17371 bound_to 10713
  139.9735  135.0121  156.9572 LP  0  0  0  0  0  0  0  0  0  0  0  0  # atno 17394 bound_to 11000
  140.5254  134.0866  155.7302 LP  0  0  0  0  0  0  0  0  0  0  0  0  # atno 17395 bound_to 11000

$$$$
