AV-unprocessed.smi:1047|AV-procd|sdf|4600|dock10
  -GOLD-   22720 3 93D 1   1.00000     0.00000
 Structure written by MMmdl.
 57 59  0  0  0  0  0  0  0  0  3 V2000
  144.1114  134.8782  150.3552 C   0  0  0  0  0  0  0  0  0  0  0  0
  145.2279  135.8513  150.7586 C   0  0  0  0  0  0  0  0  0  0  0  0
  144.7545  136.9048  151.6904 N   0  3  1  0  0  0  0  0  0  0  0  0
  143.8325  136.4008  152.7383 C   0  0  0  0  0  0  0  0  0  0  0  0
  143.3498  137.5570  153.6304 C   0  0  0  0  0  0  0  0  0  0  0  0
  144.4665  138.2194  154.2101 O   0  0  0  0  0  0  0  0  0  0  0  0
  145.3357  138.7720  153.2273 C   0  0  1  0  0  0  0  0  0  0  0  0
  146.4379  139.5795  153.9337 C   0  0  0  0  0  0  0  0  0  0  0  0
  146.7184  140.8382  153.2476 N   0  0  0  0  0  0  0  0  0  0  0  0
  147.5764  141.7396  154.0098 C   0  0  0  0  0  0  0  0  0  0  0  0
  148.8989  141.0566  154.3983 C   0  0  1  0  0  0  0  0  0  0  0  0
  149.6608  140.8529  153.2243 O   0  0  0  0  0  0  0  0  0  0  0  0
  149.7097  141.9120  155.3913 C   0  0  0  0  0  0  0  0  0  0  0  0
  150.4119  141.1046  156.4000 N   0  0  0  0  0  0  0  0  0  0  0  0
  150.5519  139.7536  156.4832 C   0  0  0  0  0  0  0  0  0  0  0  0
  151.2854  139.4840  157.5982 N   0  3  0  0  0  0  0  0  0  0  0  0
  151.6199  140.6800  158.2363 C   0  0  0  0  0  0  0  0  0  0  0  0
  152.3489  140.9185  159.3952 C   0  0  0  0  0  0  0  0  0  0  0  0
  152.5178  142.2661  159.7853 C   0  0  0  0  0  0  0  0  0  0  0  0
  153.3075  142.5614  161.0493 C   0  0  0  0  0  0  0  0  0  0  0  0
  151.9653  143.3230  159.0164 C   0  0  0  0  0  0  0  0  0  0  0  0
  152.1601  144.7689  159.4401 C   0  0  0  0  0  0  0  0  0  0  0  0
  151.2251  143.0590  157.8417 C   0  0  0  0  0  0  0  0  0  0  0  0
  151.0648  141.7251  157.4724 C   0  0  0  0  0  0  0  0  0  0  0  0
  145.8737  137.6558  152.3066 C   0  0  0  0  0  0  0  0  0  0  0  0
  144.4710  134.1734  149.6052 H   0  0  0  0  0  0  0  0  0  0  0  0
  143.2616  135.4100  149.9264 H   0  0  0  0  0  0  0  0  0  0  0  0
  143.7520  134.2929  151.2010 H   0  0  0  0  0  0  0  0  0  0  0  0
  146.0701  135.3130  151.1960 H   0  0  0  0  0  0  0  0  0  0  0  0
  145.6024  136.3234  149.8491 H   0  0  0  0  0  0  0  0  0  0  0  0
  142.9688  135.9153  152.2852 H   0  0  0  0  0  0  0  0  0  0  0  0
  144.3403  135.6494  153.3453 H   0  0  0  0  0  0  0  0  0  0  0  0
  142.7484  138.2651  153.0579 H   0  0  0  0  0  0  0  0  0  0  0  0
  142.7148  137.1746  154.4297 H   0  0  0  0  0  0  0  0  0  0  0  0
  144.7584  139.4740  152.6228 H   0  0  0  0  0  0  0  0  0  0  0  0
  146.1355  139.7804  154.9623 H   0  0  0  0  0  0  0  0  0  0  0  0
  147.3444  138.9758  153.9902 H   0  0  0  0  0  0  0  0  0  0  0  0
  147.1380  140.6490  152.3428 H   0  0  0  0  0  0  0  0  0  0  0  0
  147.7669  142.6589  153.4541 H   0  0  0  0  0  0  0  0  0  0  0  0
  147.0517  142.0345  154.9195 H   0  0  0  0  0  0  0  0  0  0  0  0
  148.6980  140.0868  154.8562 H   0  0  0  0  0  0  0  0  0  0  0  0
  149.1693  140.2977  152.6388 H   0  0  0  0  0  0  0  0  0  0  0  0
  150.4249  142.5526  154.8750 H   0  0  0  0  0  0  0  0  0  0  0  0
  149.0399  142.5814  155.9331 H   0  0  0  0  0  0  0  0  0  0  0  0
  150.1534  139.0264  155.7903 H   0  0  0  0  0  0  0  0  0  0  0  0
  152.7690  140.1086  159.9734 H   0  0  0  0  0  0  0  0  0  0  0  0
  152.6954  143.1115  161.7645 H   0  0  0  0  0  0  0  0  0  0  0  0
  154.1915  143.1567  160.8189 H   0  0  0  0  0  0  0  0  0  0  0  0
  153.6404  141.6435  161.5349 H   0  0  0  0  0  0  0  0  0  0  0  0
  151.6914  145.4577  158.7364 H   0  0  0  0  0  0  0  0  0  0  0  0
  153.2214  145.0143  159.4880 H   0  0  0  0  0  0  0  0  0  0  0  0
  151.7192  144.9436  160.4216 H   0  0  0  0  0  0  0  0  0  0  0  0
  150.8084  143.8656  157.2574 H   0  0  0  0  0  0  0  0  0  0  0  0
  146.5013  136.9606  152.8665 H   0  0  0  0  0  0  0  0  0  0  0  0
  146.4979  138.0937  151.5265 H   0  0  0  0  0  0  0  0  0  0  0  0
  144.2372  137.5716  151.1355 H   0  0  0  0  0  0  0  0  0  0  0  0
  151.5384  138.5513  157.8985 H   0  0  0  0  0  0  0  0  0  0  0  0
  1  2  1  0  0  0  0
  1 26  1  0  0  0  0
  1 27  1  0  0  0  0
  1 28  1  0  0  0  0
  2  3  1  0  0  0  0
  2 29  1  0  0  0  0
  2 30  1  0  0  0  0
  3 25  1  0  0  0  0
  3  4  1  0  0  0  0
  3 56  1  0  0  0  0
  4  5  1  0  0  0  0
  4 31  1  0  0  0  0
  4 32  1  0  0  0  0
  5  6  1  0  0  0  0
  5 33  1  0  0  0  0
  5 34  1  0  0  0  0
  6  7  1  0  0  0  0
  7  8  1  0  0  0  0
  7 25  1  0  0  0  0
  7 35  1  0  0  0  0
  8  9  1  0  0  0  0
  8 36  1  0  0  0  0
  8 37  1  0  0  0  0
  9 10  1  0  0  0  0
  9 38  1  0  0  0  0
 10 11  1  0  0  0  0
 10 39  1  0  0  0  0
 10 40  1  0  0  0  0
 11 12  1  0  0  0  0
 11 13  1  0  0  0  0
 11 41  1  0  0  0  0
 12 42  1  0  0  0  0
 13 14  1  0  0  0  0
 13 43  1  0  0  0  0
 13 44  1  0  0  0  0
 14 24  1  0  0  0  0
 14 15  1  0  0  0  0
 15 16  2  0  0  0  0
 15 45  1  0  0  0  0
 16 17  1  0  0  0  0
 16 57  1  0  0  0  0
 17 24  2  0  0  0  0
 17 18  1  0  0  0  0
 18 19  2  0  0  0  0
 18 46  1  0  0  0  0
 19 20  1  0  0  0  0
 19 21  1  0  0  0  0
 20 47  1  0  0  0  0
 20 48  1  0  0  0  0
 20 49  1  0  0  0  0
 21 22  1  0  0  0  0
 21 23  2  0  0  0  0
 22 50  1  0  0  0  0
 22 51  1  0  0  0  0
 22 52  1  0  0  0  0
 23 24  1  0  0  0  0
 23 53  1  0  0  0  0
 25 54  1  0  0  0  0
 25 55  1  0  0  0  0
M  CHG  1   3   1
M  CHG  1  16   1
M  END
> <s_m_source_file>
AV-unprocessed.smi

> <i_m_source_file_index>
1047

> <i_lp_mmshare_version>
43012

> <i_f3d_flags>
0

> <s_epik_input>
W0NIM11bQ0gyXU4xW0NIMl1bQ0gyXU9bQ0BIXShbQ0gyXTEpW0NIMl1bTkhdW0NIMl1bQ0BIXShbT0hdKVtDSDJdbihbY0hdbjIpYyhjMjMpW2NIXWMoW0NIM10pYyhbY0hdMylbQ0gzXQ==

> <s_epik_cmdline>
J2VwaWtfcHl0aG9uJywgJy1waCcsICc3LjAnLCAnLXRuJywgJzgnLCAnLW1hJywgJzIwMCcsICctbWV0YWxfYmluZGluZycsICctaW1hZScsICc8aW5maWxlLm1hZT4nLCAnLW9tYWUnLCAnPG91dGZpbGUubWFlPic=

> <r_epik_Ionization_Penalty>
2.03028

> <r_epik_Ionization_Penalty_Charging>
1.21256

> <r_epik_Ionization_Penalty_Neutral>
0.817715

> <r_epik_State_Penalty>
2.54959

> <r_epik_Charging_Adjusted_Penalty>
3.76215

> <i_epik_Tot_Q>
2

> <i_epik_Tot_abs_Q>
2

> <r_epik_Metal_State_Penalty>
6.52811

> <b_epik_Metal_Only>
0

> <s_lp_Force_Field>
OPLS_2005

> <r_lp_Energy>
36.9073

> <b_lp_Chiralities_Consistent>
1

> <s_lp_Variant>
AV-unprocessed.smi:1047-41

> <Gold.Version>
5.8.1

> <Gold.Id.Protein>
6NUR|6NUR_protein|mol2

> <Gold.PLP.Fitness>
54.2387

> <Gold.PLP.PLP>
-48.6888

> <Gold.PLP.part.hbond>
-3.1435

> <Gold.PLP.part.metal>
0.0000

> <Gold.PLP.part.buried>
-0.5303

> <Gold.PLP.part.nonpolar>
-45.0164

> <Gold.PLP.part.repulsive>
0.1850

> <Gold.PLP.ligand.clash>
0.0000

> <Gold.PLP.ligand.torsion>
1.3210

> <Gold.PLP.Chemscore.Hbond>
2.6720

> <Gold.PLP.Chemscore.CHOScore>
0.0000

> <Gold.PLP.Chemscore.Metal>
0.0000

> <Gold.Chemscore.Hbonds>
donor molecule, donor type, donor heavy atom, donor atom, acceptor molecule, acceptor atom, score
      L1  H     3    56       P1 10171  1.00
      L1  H    12    42       P1  7957  0.45
      P1  H  7989  7998       L1    12  0.21
      P1  H  8011  8017       L1    12  1.00

> <Gold.PLP.Chemscore.Internal.Correction>
0.1759

> <Gold.Rescore>
     Score         DG    S(hbond)    S(metal)    S(lipo)     H(rot)  DE(clash)    DE(int)     intcor
     19.55     -22.23       2.31        0.00     136.52       2.71       1.29       1.39       ----

> <Gold.Chemscore.Fitness>
19.5536

> <Gold.Chemscore.DG>
-22.2330

> <Gold.Chemscore.ZeroCoef>
-5.4800

> <Gold.Chemscore.Hbond>
2.3099

> <Gold.Chemscore.Metal>
0.0000

> <Gold.Chemscore.Lipo>
136.5172

> <Gold.Chemscore.Internal_Hbond>
0.0000

> <Gold.Chemscore.DEClash>
1.2943

> <Gold.Chemscore.DEInternal>
1.3850

> <Gold.Chemscore.Rot>
2.7088

> <Gold.Chemscore.Internal.Correction>
   9.000000E+99

> <Gold.Chemscore.Hbonds>
donor molecule, donor type, donor heavy atom, donor atom, acceptor molecule, acceptor atom, score
      L1  H     3    56       P1 10171  0.99
      L1  H    12    42       P1  7957  0.42
      P1  H  7989  7998       L1    12  0.20
      P1  H  8011  8017       L1    12  0.33

> <Gold.Chemscore.Hbond.Weighted>
-7.7151

> <Gold.Chemscore.Metal.Weighted>
-0.0000

> <Gold.Chemscore.Lipo.Weighted>
-15.9725

> <Gold.Chemscore.Internal_Hbond.Weighted>
0.0000

> <Gold.Chemscore.DEClash.Weighted>
1.2943

> <Gold.Chemscore.DEInternal.Weighted>
1.3850

> <Gold.Chemscore.Rot.Weighted>
6.9346

> <Gold.Chemscore.Internal.Correction.Weighted>
   9.000000E+99

> <Gold.Protein.RotatedTorsions>
[ 6907 6896 6895 6894 ] final  -92.34 input  -60.11 | X-H torsion
[ 7974 7965 7964 7962 ] final   30.11 input  175.53 | X-H torsion
[ 8008 7997 7996 7995 ] final -120.33 input   59.86 | X-H torsion
[ 10167 10162 10161 10158 ] final   87.07 input  -65.29 | X-H torsion
[ 10718 10713 10712 10709 ] final -101.87 input   66.30 | X-H torsion
[ 10763 10752 10751 10750 ] final  138.36 input  -60.55 | X-H torsion
[ 11005 11000 10999 10996 ] final  110.65 input  -57.11 | X-H torsion

> <Gold.Protein.ActiveResidues>
 VAL166  LYS551  ARG553  GLY616  TRP617  ASP618  TYR619  PRO620  LYS621  CYS622 
 ASP623  PHE694  ASN695  SER759  ASP760  ASP761  ALA762  ILE779  LEU786  VAL792 
 PHE793  MET794  SER795  GLU796  ALA797  LYS798  CYS799  TRP800  GLU811  SER814 

> <Gold.Protein.RotatedAtoms>
  150.6905  134.2138  159.4369 H   0  0  0  0  0  0  0  0  0  0  0  0  # atno 6907 bound_to 6896
  152.0098  134.9880  160.0577 H   0  0  0  0  0  0  0  0  0  0  0  0  # atno 6908 bound_to 6896
  152.1499  133.4481  159.4845 H   0  0  0  0  0  0  0  0  0  0  0  0  # atno 6909 bound_to 6896
  146.1632  139.6833  142.9019 H   0  0  0  0  0  0  0  0  0  0  0  0  # atno 7974 bound_to 7965
  155.1301  140.0400  157.2772 H   0  0  0  0  0  0  0  0  0  0  0  0  # atno 8008 bound_to 7997
  154.6549  140.2577  155.7147 H   0  0  0  0  0  0  0  0  0  0  0  0  # atno 8009 bound_to 7997
  156.2594  140.2829  156.0998 H   0  0  0  0  0  0  0  0  0  0  0  0  # atno 8010 bound_to 7997
  139.8810  144.6440  150.8842 H   0  0  0  0  0  0  0  0  0  0  0  0  # atno 10167 bound_to 10162
  156.0209  130.5394  150.7026 H   0  0  0  0  0  0  0  0  0  0  0  0  # atno 10718 bound_to 10713
  153.8882  135.3036  155.3447 H   0  0  0  0  0  0  0  0  0  0  0  0  # atno 10763 bound_to 10752
  154.7729  135.4876  153.9688 H   0  0  0  0  0  0  0  0  0  0  0  0  # atno 10764 bound_to 10752
  153.1312  135.6804  153.9273 H   0  0  0  0  0  0  0  0  0  0  0  0  # atno 10765 bound_to 10752
  139.8886  134.9489  156.6312 H   0  0  0  0  0  0  0  0  0  0  0  0  # atno 11005 bound_to 11000
  145.4536  141.0429  143.2791 LP  0  0  0  0  0  0  0  0  0  0  0  0  # atno 17320 bound_to 7965
  144.8055  139.6059  143.7052 LP  0  0  0  0  0  0  0  0  0  0  0  0  # atno 17321 bound_to 7965
  140.7744  143.3585  151.1873 LP  0  0  0  0  0  0  0  0  0  0  0  0  # atno 17342 bound_to 10162
  139.7195  143.9245  152.2980 LP  0  0  0  0  0  0  0  0  0  0  0  0  # atno 17343 bound_to 10162
  157.4683  131.0890  151.0670 LP  0  0  0  0  0  0  0  0  0  0  0  0  # atno 17370 bound_to 10713
  157.1138  130.6033  149.5488 LP  0  0  0  0  0  0  0  0  0  0  0  0  # atno 17371 bound_to 10713
  140.7665  133.8774  155.8458 LP  0  0  0  0  0  0  0  0  0  0  0  0  # atno 17394 bound_to 11000
  140.9878  134.1319  157.4436 LP  0  0  0  0  0  0  0  0  0  0  0  0  # atno 17395 bound_to 11000

$$$$
