AV-unprocessed.smi:1941|AV-procd|sdf|7845|dock1
  -GOLD-   22720 9583D 1   1.00000     0.00000
 Structure written by MMmdl.
 40 41  0  0  0  0  0  0  0  0  1 V2000
  144.3430  136.1004  152.5240 C   0  0  0  0  0  0  0  0  0  0  0  0
  145.3193  137.1979  152.2738 C   0  0  0  0  0  0  0  0  0  0  0  0
  145.6843  138.0877  153.2005 N   0  0  0  0  0  0  0  0  0  0  0  0
  146.6105  139.0180  152.7188 C   0  0  0  0  0  0  0  0  0  0  0  0
  147.1304  140.0930  153.6243 C   0  0  0  0  0  0  0  0  0  0  0  0
  148.6046  139.8735  154.0021 C   0  0  0  0  0  0  0  0  0  0  0  0
  148.9756  140.6462  155.1820 N   0  0  0  0  0  0  0  0  0  0  0  0
  150.2128  140.7236  155.6910 C   0  0  0  0  0  0  0  0  0  0  0  0
  151.1935  140.1593  155.2059 O   0  0  0  0  0  0  0  0  0  0  0  0
  150.2472  141.4874  156.7924 N   0  0  0  0  0  0  0  0  0  0  0  0
  151.4315  141.7732  157.6005 C   0  0  2  0  0  0  0  0  0  0  0  0
  151.8376  140.5015  158.3591 C   0  0  0  0  0  0  0  0  0  0  0  0
  151.1485  142.9482  158.5566 C   0  0  2  0  0  0  0  0  0  0  0  0
  151.3847  144.3356  157.9583 C   0  0  0  0  0  0  0  0  0  0  0  0
  151.6445  145.2072  159.1765 C   0  0  0  0  0  0  0  0  0  0  0  0
  151.9661  144.2062  160.2904 C   0  0  0  0  0  0  0  0  0  0  0  0
  152.0575  142.9429  159.6462 O   0  0  0  0  0  0  0  0  0  0  0  0
  146.9471  138.8147  151.4036 C   0  0  0  0  0  0  0  0  0  0  0  0
  146.1106  137.4467  150.7224 S   0  0  0  0  0  0  0  0  0  0  0  0
  143.7985  136.2757  153.4525 H   0  0  0  0  0  0  0  0  0  0  0  0
  144.8663  135.1473  152.5992 H   0  0  0  0  0  0  0  0  0  0  0  0
  143.6261  136.0441  151.7048 H   0  0  0  0  0  0  0  0  0  0  0  0
  147.0212  141.0662  153.1440 H   0  0  0  0  0  0  0  0  0  0  0  0
  146.5212  140.1372  154.5280 H   0  0  0  0  0  0  0  0  0  0  0  0
  148.8054  138.8136  154.1688 H   0  0  0  0  0  0  0  0  0  0  0  0
  149.2479  140.1853  153.1789 H   0  0  0  0  0  0  0  0  0  0  0  0
  148.2352  141.1489  155.6492 H   0  0  0  0  0  0  0  0  0  0  0  0
  149.3822  141.9056  157.1016 H   0  0  0  0  0  0  0  0  0  0  0  0
  152.2670  142.0535  156.9566 H   0  0  0  0  0  0  0  0  0  0  0  0
  152.7316  140.6707  158.9596 H   0  0  0  0  0  0  0  0  0  0  0  0
  152.0573  139.6866  157.6686 H   0  0  0  0  0  0  0  0  0  0  0  0
  151.0452  140.1671  159.0295 H   0  0  0  0  0  0  0  0  0  0  0  0
  150.1308  142.8839  158.9472 H   0  0  0  0  0  0  0  0  0  0  0  0
  152.2712  144.3238  157.3224 H   0  0  0  0  0  0  0  0  0  0  0  0
  150.5452  144.6858  157.3572 H   0  0  0  0  0  0  0  0  0  0  0  0
  152.4708  145.8955  158.9967 H   0  0  0  0  0  0  0  0  0  0  0  0
  150.7653  145.7974  159.4368 H   0  0  0  0  0  0  0  0  0  0  0  0
  152.8928  144.4451  160.8127 H   0  0  0  0  0  0  0  0  0  0  0  0
  151.1602  144.1770  161.0248 H   0  0  0  0  0  0  0  0  0  0  0  0
  147.6342  139.3845  150.7957 H   0  0  0  0  0  0  0  0  0  0  0  0
  1  2  1  0  0  0  0
  1 20  1  0  0  0  0
  1 21  1  0  0  0  0
  1 22  1  0  0  0  0
  2 19  1  0  0  0  0
  2  3  2  0  0  0  0
  3  4  1  0  0  0  0
  4  5  1  0  0  0  0
  4 18  2  0  0  0  0
  5  6  1  0  0  0  0
  5 23  1  0  0  0  0
  5 24  1  0  0  0  0
  6  7  1  0  0  0  0
  6 25  1  0  0  0  0
  6 26  1  0  0  0  0
  7  8  1  0  0  0  0
  7 27  1  0  0  0  0
  8  9  2  0  0  0  0
  8 10  1  0  0  0  0
 10 11  1  0  0  0  0
 10 28  1  0  0  0  0
 11 12  1  0  0  0  0
 11 13  1  0  0  0  0
 11 29  1  0  0  0  0
 12 30  1  0  0  0  0
 12 31  1  0  0  0  0
 12 32  1  0  0  0  0
 13 17  1  0  0  0  0
 13 14  1  0  0  0  0
 13 33  1  0  0  0  0
 14 15  1  0  0  0  0
 14 34  1  0  0  0  0
 14 35  1  0  0  0  0
 15 16  1  0  0  0  0
 15 36  1  0  0  0  0
 15 37  1  0  0  0  0
 16 17  1  0  0  0  0
 16 38  1  0  0  0  0
 16 39  1  0  0  0  0
 18 19  1  0  0  0  0
 18 40  1  0  0  0  0
M  END
> <s_m_source_file>
AV-unprocessed.smi

> <i_m_source_file_index>
1941

> <i_lp_mmshare_version>
43012

> <i_f3d_flags>
0

> <s_epik_input>
W0NIM11jMW5jKFtjSF1zMSlbQ0gyXVtDSDJdW05IXUMoPU8pW05IXVtDQEhdKFtDSDNdKVtDQEBIXTJbQ0gyXVtDSDJdW0NIMl1PMg==

> <s_epik_cmdline>
J2VwaWtfcHl0aG9uJywgJy1waCcsICc3LjAnLCAnLXRuJywgJzgnLCAnLW1hJywgJzIwMCcsICctbWV0YWxfYmluZGluZycsICctaW1hZScsICc8aW5maWxlLm1hZT4nLCAnLW9tYWUnLCAnPG91dGZpbGUubWFlPic=

> <r_epik_Ionization_Penalty>
0.00195486

> <r_epik_Ionization_Penalty_Charging>
0

> <r_epik_Ionization_Penalty_Neutral>
0.00195486

> <r_epik_State_Penalty>
0.00129472

> <r_epik_Charging_Adjusted_Penalty>
0.00129472

> <i_epik_Tot_Q>
0

> <i_epik_Tot_abs_Q>
0

> <r_epik_Metal_State_Penalty>
-0

> <b_epik_Metal_Only>
0

> <s_lp_Force_Field>
OPLS_2005

> <r_lp_Energy>
10.4909

> <b_lp_Chiralities_Consistent>
1

> <s_lp_Variant>
AV-unprocessed.smi:1941-1

> <Gold.Version>
5.8.1

> <Gold.Id.Protein>
6NUR|6NUR_protein|mol2

> <Gold.PLP.Fitness>
41.1792

> <Gold.PLP.PLP>
-36.7868

> <Gold.PLP.part.hbond>
-1.0000

> <Gold.PLP.part.metal>
0.0000

> <Gold.PLP.part.buried>
0.1174

> <Gold.PLP.part.nonpolar>
-36.8118

> <Gold.PLP.part.repulsive>
0.3552

> <Gold.PLP.ligand.clash>
0.0000

> <Gold.PLP.ligand.torsion>
0.8580

> <Gold.PLP.Chemscore.Hbond>
1.0000

> <Gold.PLP.Chemscore.CHOScore>
1.0000

> <Gold.PLP.Chemscore.Metal>
0.0000

> <Gold.Chemscore.Hbonds>
donor molecule, donor type, donor heavy atom, donor atom, acceptor molecule, acceptor atom, score
      P1  H  7989  7998       L1     9  1.00
      L1  C    18    40       P1  7957  1.00

> <Gold.PLP.Chemscore.Internal.Correction>
0.1083

> <Gold.Rescore>
     Score         DG    S(hbond)    S(metal)    S(lipo)     H(rot)  DE(clash)    DE(int)     intcor
     14.63     -16.92       0.90        0.00     109.01       1.69       1.72       0.57       ----

> <Gold.Chemscore.Fitness>
14.6340

> <Gold.Chemscore.DG>
-16.9195

> <Gold.Chemscore.ZeroCoef>
-5.4800

> <Gold.Chemscore.Hbond>
0.9036

> <Gold.Chemscore.Metal>
0.0000

> <Gold.Chemscore.Lipo>
109.0061

> <Gold.Chemscore.Internal_Hbond>
0.0000

> <Gold.Chemscore.DEClash>
1.7170

> <Gold.Chemscore.DEInternal>
0.5685

> <Gold.Chemscore.Rot>
1.6923

> <Gold.Chemscore.Internal.Correction>
   9.000000E+99

> <Gold.Chemscore.Hbonds>
donor molecule, donor type, donor heavy atom, donor atom, acceptor molecule, acceptor atom, score
      P1  H  7989  7998       L1     9  0.81

> <Gold.Chemscore.Hbond.Weighted>
-3.0181

> <Gold.Chemscore.Metal.Weighted>
-0.0000

> <Gold.Chemscore.Lipo.Weighted>
-12.7537

> <Gold.Chemscore.Internal_Hbond.Weighted>
0.0000

> <Gold.Chemscore.DEClash.Weighted>
1.7170

> <Gold.Chemscore.DEInternal.Weighted>
0.5685

> <Gold.Chemscore.Rot.Weighted>
4.3323

> <Gold.Chemscore.Internal.Correction.Weighted>
   9.000000E+99

> <Gold.Protein.RotatedTorsions>
[ 6907 6896 6895 6894 ] final  -98.42 input  -60.11 | X-H torsion
[ 7974 7965 7964 7962 ] final  -30.20 input  175.53 | X-H torsion
[ 8008 7997 7996 7995 ] final  -15.77 input   59.86 | X-H torsion
[ 10167 10162 10161 10158 ] final  110.80 input  -65.29 | X-H torsion
[ 10718 10713 10712 10709 ] final -119.90 input   66.30 | X-H torsion
[ 10763 10752 10751 10750 ] final  162.68 input  -60.55 | X-H torsion
[ 11005 11000 10999 10996 ] final   35.08 input  -57.11 | X-H torsion

> <Gold.Protein.ActiveResidues>
 VAL166  LYS551  ARG553  GLY616  TRP617  ASP618  TYR619  PRO620  LYS621  CYS622 
 ASP623  PHE694  ASN695  SER759  ASP760  ASP761  ALA762  ILE779  LEU786  VAL792 
 PHE793  MET794  SER795  GLU796  ALA797  LYS798  CYS799  TRP800  GLU811  SER814 

> <Gold.Protein.RotatedAtoms>
  150.7046  134.1198  159.4030 H   0  0  0  0  0  0  0  0  0  0  0  0  # atno 6907 bound_to 6896
  151.9184  135.0306  160.0529 H   0  0  0  0  0  0  0  0  0  0  0  0  # atno 6908 bound_to 6896
  152.2277  133.4998  159.5234 H   0  0  0  0  0  0  0  0  0  0  0  0  # atno 6909 bound_to 6896
  146.1161  140.5509  142.8756 H   0  0  0  0  0  0  0  0  0  0  0  0  # atno 7974 bound_to 7965
  154.5105  140.2187  155.9166 H   0  0  0  0  0  0  0  0  0  0  0  0  # atno 8008 bound_to 7997
  156.1546  140.3154  155.8670 H   0  0  0  0  0  0  0  0  0  0  0  0  # atno 8009 bound_to 7997
  155.3872  140.0476  157.3032 H   0  0  0  0  0  0  0  0  0  0  0  0  # atno 8010 bound_to 7997
  139.6660  144.7127  151.1776 H   0  0  0  0  0  0  0  0  0  0  0  0  # atno 10167 bound_to 10162
  156.1217  130.6328  150.9474 H   0  0  0  0  0  0  0  0  0  0  0  0  # atno 10718 bound_to 10713
  154.2821  135.2763  155.2692 H   0  0  0  0  0  0  0  0  0  0  0  0  # atno 10763 bound_to 10752
  154.5209  135.5756  153.6683 H   0  0  0  0  0  0  0  0  0  0  0  0  # atno 10764 bound_to 10752
  152.9927  135.6204  154.2981 H   0  0  0  0  0  0  0  0  0  0  0  0  # atno 10765 bound_to 10752
  140.2463  134.3355  155.7906 H   0  0  0  0  0  0  0  0  0  0  0  0  # atno 11005 bound_to 11000
  144.7554  140.5294  143.6772 LP  0  0  0  0  0  0  0  0  0  0  0  0  # atno 17320 bound_to 7965
  145.5564  139.1478  143.3365 LP  0  0  0  0  0  0  0  0  0  0  0  0  # atno 17321 bound_to 7965
  140.7599  143.5918  150.8788 LP  0  0  0  0  0  0  0  0  0  0  0  0  # atno 17342 bound_to 10162
  139.9580  143.6196  152.3010 LP  0  0  0  0  0  0  0  0  0  0  0  0  # atno 17343 bound_to 10162
  157.6400  131.0911  150.8271 LP  0  0  0  0  0  0  0  0  0  0  0  0  # atno 17370 bound_to 10713
  156.8366  130.5034  149.5325 LP  0  0  0  0  0  0  0  0  0  0  0  0  # atno 17371 bound_to 10713
  141.2206  133.7328  156.8966 LP  0  0  0  0  0  0  0  0  0  0  0  0  # atno 17394 bound_to 11000
  140.1602  134.9170  157.2705 LP  0  0  0  0  0  0  0  0  0  0  0  0  # atno 17395 bound_to 11000

$$$$
