AV-unprocessed.smi:2037|AV-procd|sdf|8279|dock2
  -GOLD-   2272010543D 1   1.00000     0.00000
 Structure written by MMmdl.
 38 39  0  0  0  0  0  0  0  0  3 V2000
  145.8982  132.2703  154.3136 C   0  0  0  0  0  0  0  0  0  0  0  0
  146.4630  133.0917  153.1416 C   0  0  2  0  0  0  0  0  0  0  0  0
  147.9252  132.7384  152.8159 C   0  0  0  0  0  0  0  0  0  0  0  0
  148.9072  133.2993  153.8602 C   0  0  0  0  0  0  0  0  0  0  0  0
  148.7493  134.7684  154.0173 N   0  3  2  0  0  0  0  0  0  0  0  0
  149.7763  135.3456  154.9205 C   0  0  0  0  0  0  0  0  0  0  0  0
  149.7530  134.7074  156.3219 C   0  0  0  0  0  0  0  0  0  0  0  0
  149.1327  135.5947  157.2982 N   0  0  0  0  0  0  0  0  0  0  0  0
  148.4625  135.2068  158.3924 C   0  0  0  0  0  0  0  0  0  0  0  0
  148.3266  134.0052  158.6356 O   0  0  0  0  0  0  0  0  0  0  0  0
  147.9908  136.2344  159.1330 N   0  5  0  0  0  0  0  0  0  0  0  0
  147.4678  136.0027  160.3481 C   0  0  0  0  0  0  0  0  0  0  0  0
  147.3972  136.9390  161.3012 N   0  0  0  0  0  0  0  0  0  0  0  0
  146.8116  136.4846  162.4840 C   0  0  0  0  0  0  0  0  0  0  0  0
  146.4187  135.1737  162.4271 C   0  0  0  0  0  0  0  0  0  0  0  0
  146.7747  134.4670  160.8769 S   0  0  0  0  0  0  0  0  0  0  0  0
  147.3582  135.1311  154.3986 C   0  0  0  0  0  0  0  0  0  0  0  0
  146.3423  134.6098  153.3659 C   0  0  0  0  0  0  0  0  0  0  0  0
  146.4321  132.4586  155.2448 H   0  0  0  0  0  0  0  0  0  0  0  0
  145.9626  131.2015  154.1079 H   0  0  0  0  0  0  0  0  0  0  0  0
  144.8473  132.5057  154.4832 H   0  0  0  0  0  0  0  0  0  0  0  0
  145.8600  132.8377  152.2688 H   0  0  0  0  0  0  0  0  0  0  0  0
  148.0440  131.6575  152.7327 H   0  0  0  0  0  0  0  0  0  0  0  0
  148.1811  133.1456  151.8367 H   0  0  0  0  0  0  0  0  0  0  0  0
  148.7640  132.8097  154.8243 H   0  0  0  0  0  0  0  0  0  0  0  0
  149.9256  133.0721  153.5425 H   0  0  0  0  0  0  0  0  0  0  0  0
  150.7644  135.2521  154.4675 H   0  0  0  0  0  0  0  0  0  0  0  0
  149.5885  136.4150  155.0283 H   0  0  0  0  0  0  0  0  0  0  0  0
  149.2296  133.7500  156.3001 H   0  0  0  0  0  0  0  0  0  0  0  0
  150.7626  134.5016  156.6744 H   0  0  0  0  0  0  0  0  0  0  0  0
  149.2236  136.5878  157.1398 H   0  0  0  0  0  0  0  0  0  0  0  0
  146.7132  137.1644  163.3173 H   0  0  0  0  0  0  0  0  0  0  0  0
  145.9435  134.5842  163.1966 H   0  0  0  0  0  0  0  0  0  0  0  0
  147.1337  134.7341  155.3894 H   0  0  0  0  0  0  0  0  0  0  0  0
  147.2542  136.2128  154.4676 H   0  0  0  0  0  0  0  0  0  0  0  0
  146.5078  135.1251  152.4186 H   0  0  0  0  0  0  0  0  0  0  0  0
  145.3285  134.8666  153.6751 H   0  0  0  0  0  0  0  0  0  0  0  0
  148.9195  135.1676  153.1053 H   0  0  0  0  0  0  0  0  0  0  0  0
  1  2  1  0  0  0  0
  1 19  1  0  0  0  0
  1 20  1  0  0  0  0
  1 21  1  0  0  0  0
  2 18  1  0  0  0  0
  2  3  1  0  0  0  0
  2 22  1  0  0  0  0
  3  4  1  0  0  0  0
  3 23  1  0  0  0  0
  3 24  1  0  0  0  0
  4  5  1  0  0  0  0
  4 25  1  0  0  0  0
  4 26  1  0  0  0  0
  5  6  1  0  0  0  0
  5 17  1  0  0  0  0
  5 38  1  0  0  0  0
  6  7  1  0  0  0  0
  6 27  1  0  0  0  0
  6 28  1  0  0  0  0
  7  8  1  0  0  0  0
  7 29  1  0  0  0  0
  7 30  1  0  0  0  0
  8  9  1  0  0  0  0
  8 31  1  0  0  0  0
  9 10  2  0  0  0  0
  9 11  1  0  0  0  0
 11 12  1  0  0  0  0
 12 16  1  0  0  0  0
 12 13  2  0  0  0  0
 13 14  1  0  0  0  0
 14 15  2  0  0  0  0
 14 32  1  0  0  0  0
 15 16  1  0  0  0  0
 15 33  1  0  0  0  0
 17 18  1  0  0  0  0
 17 34  1  0  0  0  0
 17 35  1  0  0  0  0
 18 36  1  0  0  0  0
 18 37  1  0  0  0  0
M  CHG  1   5   1
M  CHG  1  11  -1
M  END
> <s_m_source_file>
AV-unprocessed.smi

> <i_m_source_file_index>
2037

> <i_lp_mmshare_version>
43012

> <i_f3d_flags>
0

> <s_epik_input>
W0NIM11bQ0hdMVtDSDJdW0NIMl1OKFtDSDJdW0NIMl0xKVtDSDJdW0NIMl1bTkhdQyg9TylbTkhdYzJuW2NIXVtjSF1zMg==

> <s_epik_cmdline>
J2VwaWtfcHl0aG9uJywgJy1waCcsICc3LjAnLCAnLXRuJywgJzgnLCAnLW1hJywgJzIwMCcsICctbWV0YWxfYmluZGluZycsICctaW1hZScsICc8aW5maWxlLm1hZT4nLCAnLW9tYWUnLCAnPG91dGZpbGUubWFlPic=

> <r_lp_tautomer_probability>
0.999

> <r_epik_Ionization_Penalty>
6.22113

> <r_epik_Ionization_Penalty_Charging>
5.39005

> <r_epik_Ionization_Penalty_Neutral>
0.831074

> <r_epik_State_Penalty>
5.38997

> <r_epik_Charging_Adjusted_Penalty>
10.78

> <i_epik_Tot_Q>
0

> <i_epik_Tot_abs_Q>
2

> <r_epik_Metal_State_Penalty>
1.41601

> <b_epik_Metal_Only>
1

> <s_lp_Force_Field>
OPLS_2005

> <r_lp_Energy>
7.28937

> <b_lp_Chiralities_Consistent>
1

> <s_lp_Variant>
AV-unprocessed.smi:2037-4

> <Gold.Version>
5.8.1

> <Gold.Id.Protein>
6NUR|6NUR_protein|mol2

> <Gold.PLP.Fitness>
43.2673

> <Gold.PLP.PLP>
-30.2064

> <Gold.PLP.part.hbond>
-4.0000

> <Gold.PLP.part.metal>
0.0000

> <Gold.PLP.part.buried>
-2.4175

> <Gold.PLP.part.nonpolar>
-23.2352

> <Gold.PLP.part.repulsive>
0.0624

> <Gold.PLP.ligand.clash>
0.0000

> <Gold.PLP.ligand.torsion>
0.6665

> <Gold.PLP.Chemscore.Hbond>
4.7840

> <Gold.PLP.Chemscore.CHOScore>
0.0000

> <Gold.PLP.Chemscore.Metal>
0.0000

> <Gold.Chemscore.Hbonds>
donor molecule, donor type, donor heavy atom, donor atom, acceptor molecule, acceptor atom, score
      L1  H     5    38       P1  7948  2.00
      P1  H  6931  6943       L1    13  0.63
      P1  H  6934  6947       L1    13  0.76

> <Gold.PLP.Chemscore.Internal.Correction>
0.0419

> <Gold.Rescore>
     Score         DG    S(hbond)    S(metal)    S(lipo)     H(rot)  DE(clash)    DE(int)     intcor
     16.89     -19.00       3.22        0.00      57.87       1.57       0.13       1.99       ----

> <Gold.Chemscore.Fitness>
16.8882

> <Gold.Chemscore.DG>
-19.0031

> <Gold.Chemscore.ZeroCoef>
-5.4800

> <Gold.Chemscore.Hbond>
3.2232

> <Gold.Chemscore.Metal>
0.0000

> <Gold.Chemscore.Lipo>
57.8697

> <Gold.Chemscore.Internal_Hbond>
0.0000

> <Gold.Chemscore.DEClash>
0.1292

> <Gold.Chemscore.DEInternal>
1.9857

> <Gold.Chemscore.Rot>
1.5676

> <Gold.Chemscore.Internal.Correction>
   9.000000E+99

> <Gold.Chemscore.Hbonds>
donor molecule, donor type, donor heavy atom, donor atom, acceptor molecule, acceptor atom, score
      L1  H     5    38       P1  7948  0.34
      P1  H  6931  6943       L1    13  0.33
      P1  H  6934  6947       L1    13  0.65

> <Gold.Chemscore.Hbond.Weighted>
-10.7654

> <Gold.Chemscore.Metal.Weighted>
-0.0000

> <Gold.Chemscore.Lipo.Weighted>
-6.7708

> <Gold.Chemscore.Internal_Hbond.Weighted>
0.0000

> <Gold.Chemscore.DEClash.Weighted>
0.1292

> <Gold.Chemscore.DEInternal.Weighted>
1.9857

> <Gold.Chemscore.Rot.Weighted>
4.0130

> <Gold.Chemscore.Internal.Correction.Weighted>
   9.000000E+99

> <Gold.Protein.RotatedTorsions>
[ 6907 6896 6895 6894 ] final   43.11 input  -60.11 | X-H torsion
[ 7974 7965 7964 7962 ] final  -81.79 input  175.53 | X-H torsion
[ 8008 7997 7996 7995 ] final   79.49 input   59.86 | X-H torsion
[ 10167 10162 10161 10158 ] final   74.36 input  -65.29 | X-H torsion
[ 10718 10713 10712 10709 ] final  106.78 input   66.30 | X-H torsion
[ 10763 10752 10751 10750 ] final  -67.69 input  -60.55 | X-H torsion
[ 11005 11000 10999 10996 ] final  103.05 input  -57.11 | X-H torsion

> <Gold.Protein.ActiveResidues>
 VAL166  LYS551  ARG553  GLY616  TRP617  ASP618  TYR619  PRO620  LYS621  CYS622 
 ASP623  PHE694  ASN695  SER759  ASP760  ASP761  ALA762  ILE779  LEU786  VAL792 
 PHE793  MET794  SER795  GLU796  ALA797  LYS798  CYS799  TRP800  GLU811  SER814 

> <Gold.Protein.RotatedAtoms>
  152.2162  134.8455  160.0491 H   0  0  0  0  0  0  0  0  0  0  0  0  # atno 6907 bound_to 6896
  151.9256  133.3592  159.3920 H   0  0  0  0  0  0  0  0  0  0  0  0  # atno 6908 bound_to 6896
  150.6988  134.4516  159.5383 H   0  0  0  0  0  0  0  0  0  0  0  0  # atno 6909 bound_to 6896
  145.5420  140.9508  143.1546 H   0  0  0  0  0  0  0  0  0  0  0  0  # atno 7974 bound_to 7965
  155.8704  140.3449  155.5817 H   0  0  0  0  0  0  0  0  0  0  0  0  # atno 8008 bound_to 7997
  155.7833  140.0861  157.2067 H   0  0  0  0  0  0  0  0  0  0  0  0  # atno 8009 bound_to 7997
  154.4017  140.1496  156.3065 H   0  0  0  0  0  0  0  0  0  0  0  0  # atno 8010 bound_to 7997
  140.0145  144.5588  150.7631 H   0  0  0  0  0  0  0  0  0  0  0  0  # atno 10167 bound_to 10162
  157.6654  131.0858  150.6058 H   0  0  0  0  0  0  0  0  0  0  0  0  # atno 10718 bound_to 10713
  154.3782  135.6080  153.5776 H   0  0  0  0  0  0  0  0  0  0  0  0  # atno 10763 bound_to 10752
  152.9788  135.5854  154.4441 H   0  0  0  0  0  0  0  0  0  0  0  0  # atno 10764 bound_to 10752
  154.4206  135.2846  155.1955 H   0  0  0  0  0  0  0  0  0  0  0  0  # atno 10765 bound_to 10752
  139.8781  134.9248  156.5150 H   0  0  0  0  0  0  0  0  0  0  0  0  # atno 11005 bound_to 11000
  144.7572  139.7044  143.7249 LP  0  0  0  0  0  0  0  0  0  0  0  0  # atno 17320 bound_to 7965
  146.1975  139.5250  142.9765 LP  0  0  0  0  0  0  0  0  0  0  0  0  # atno 17321 bound_to 7965
  140.7368  143.2757  151.3749 LP  0  0  0  0  0  0  0  0  0  0  0  0  # atno 17342 bound_to 10162
  139.6182  144.0960  152.2366 LP  0  0  0  0  0  0  0  0  0  0  0  0  # atno 17343 bound_to 10162
  156.6359  130.4445  149.5769 LP  0  0  0  0  0  0  0  0  0  0  0  0  # atno 17370 bound_to 10713
  156.2246  130.6758  151.1403 LP  0  0  0  0  0  0  0  0  0  0  0  0  # atno 17371 bound_to 10713
  140.8492  133.8145  155.9152 LP  0  0  0  0  0  0  0  0  0  0  0  0  # atno 17394 bound_to 11000
  140.9161  134.2200  157.4956 LP  0  0  0  0  0  0  0  0  0  0  0  0  # atno 17395 bound_to 11000

$$$$
