AV-unprocessed.smi:232|AV-procd|sdf|1775|dock9
  -GOLD-   2262020313D 1   1.00000     0.00000
 Structure written by MMmdl.
 52 55  0  0  0  0  0  0  0  0  1 V2000
  143.6834  132.9090  150.8152 C   0  0  0  0  0  0  0  0  0  0  0  0
  143.8586  134.3770  151.2266 C   0  0  0  0  0  0  0  0  0  0  0  0
  143.3197  134.6931  152.6342 C   0  0  2  0  0  0  0  0  0  0  0  0
  141.8086  134.4446  152.7692 C   0  0  0  0  0  0  0  0  0  0  0  0
  141.3553  135.5128  153.7579 C   0  0  0  0  0  0  0  0  0  0  0  0
  142.2415  136.6891  153.3590 C   0  0  1  0  0  0  0  0  0  0  0  0
  142.2566  137.8489  154.3758 C   0  0  0  0  0  0  0  0  0  0  0  0
  143.5366  136.0942  153.0154 N   0  0  0  0  0  0  0  0  0  0  0  0
  144.5939  136.3562  153.8211 C   0  0  0  0  0  0  0  0  0  0  0  0
  144.6756  135.7978  155.0580 N   0  0  0  0  0  0  0  0  0  0  0  0
  145.7144  136.0801  155.8505 C   0  0  0  0  0  0  0  0  0  0  0  0
  146.7556  136.8808  155.6103 N   0  0  0  0  0  0  0  0  0  0  0  0
  146.6689  137.4466  154.3723 C   0  0  0  0  0  0  0  0  0  0  0  0
  145.6300  137.2410  153.4232 C   0  0  0  0  0  0  0  0  0  0  0  0
  145.8760  137.9842  152.2757 N   0  0  0  0  0  0  0  0  0  0  0  0
  146.9995  138.5975  152.5325 C   0  0  0  0  0  0  0  0  0  0  0  0
  147.5429  138.3328  153.7697 N   0  0  0  0  0  0  0  0  0  0  0  0
  148.7726  138.8756  154.3186 C   0  0  0  0  0  0  0  0  0  0  0  0
  148.6810  140.3937  154.5700 C   0  0  2  0  0  0  0  0  0  0  0  0
  148.7297  141.0719  153.3287 O   0  0  0  0  0  0  0  0  0  0  0  0
  149.8218  140.9106  155.4660 C   0  0  1  0  0  0  0  0  0  0  0  0
  149.7115  140.4856  156.9327 C   0  0  0  0  0  0  0  0  0  0  0  0
  151.1546  140.5281  157.3781 C   0  0  0  0  0  0  0  0  0  0  0  0
  151.8682  139.9852  156.1454 C   0  0  0  0  0  0  0  0  0  0  0  0
  151.0757  140.3857  155.0309 O   0  0  0  0  0  0  0  0  0  0  0  0
  144.0142  132.7535  149.7882 H   0  0  0  0  0  0  0  0  0  0  0  0
  142.6383  132.6045  150.8780 H   0  0  0  0  0  0  0  0  0  0  0  0
  144.2668  132.2432  151.4509 H   0  0  0  0  0  0  0  0  0  0  0  0
  144.9116  134.6534  151.1597 H   0  0  0  0  0  0  0  0  0  0  0  0
  143.3338  134.9996  150.5014 H   0  0  0  0  0  0  0  0  0  0  0  0
  143.8167  134.0276  153.3407 H   0  0  0  0  0  0  0  0  0  0  0  0
  141.3084  134.6042  151.8125 H   0  0  0  0  0  0  0  0  0  0  0  0
  141.5756  133.4329  153.1022 H   0  0  0  0  0  0  0  0  0  0  0  0
  140.2908  135.7371  153.6842 H   0  0  0  0  0  0  0  0  0  0  0  0
  141.5720  135.1974  154.7797 H   0  0  0  0  0  0  0  0  0  0  0  0
  141.8542  137.0949  152.4232 H   0  0  0  0  0  0  0  0  0  0  0  0
  141.2518  138.2473  154.5176 H   0  0  0  0  0  0  0  0  0  0  0  0
  142.8862  138.6704  154.0328 H   0  0  0  0  0  0  0  0  0  0  0  0
  142.6188  137.5288  155.3532 H   0  0  0  0  0  0  0  0  0  0  0  0
  145.7091  135.5982  156.8170 H   0  0  0  0  0  0  0  0  0  0  0  0
  147.4628  139.2681  151.8235 H   0  0  0  0  0  0  0  0  0  0  0  0
  148.9863  138.3479  155.2488 H   0  0  0  0  0  0  0  0  0  0  0  0
  149.5926  138.6478  153.6360 H   0  0  0  0  0  0  0  0  0  0  0  0
  147.7245  140.6228  155.0418 H   0  0  0  0  0  0  0  0  0  0  0  0
  148.8329  140.4320  152.6413 H   0  0  0  0  0  0  0  0  0  0  0  0
  149.8842  141.9988  155.4116 H   0  0  0  0  0  0  0  0  0  0  0  0
  149.0646  141.1394  157.5180 H   0  0  0  0  0  0  0  0  0  0  0  0
  149.3286  139.4670  157.0118 H   0  0  0  0  0  0  0  0  0  0  0  0
  151.4591  141.5582  157.5683 H   0  0  0  0  0  0  0  0  0  0  0  0
  151.3463  139.9406  158.2763 H   0  0  0  0  0  0  0  0  0  0  0  0
  152.8918  140.3507  156.0610 H   0  0  0  0  0  0  0  0  0  0  0  0
  151.8983  138.8953  156.1724 H   0  0  0  0  0  0  0  0  0  0  0  0
  1  2  1  0  0  0  0
  1 26  1  0  0  0  0
  1 27  1  0  0  0  0
  1 28  1  0  0  0  0
  2  3  1  0  0  0  0
  2 29  1  0  0  0  0
  2 30  1  0  0  0  0
  3  8  1  0  0  0  0
  3  4  1  0  0  0  0
  3 31  1  0  0  0  0
  4  5  1  0  0  0  0
  4 32  1  0  0  0  0
  4 33  1  0  0  0  0
  5  6  1  0  0  0  0
  5 34  1  0  0  0  0
  5 35  1  0  0  0  0
  6  7  1  0  0  0  0
  6  8  1  0  0  0  0
  6 36  1  0  0  0  0
  7 37  1  0  0  0  0
  7 38  1  0  0  0  0
  7 39  1  0  0  0  0
  8  9  1  0  0  0  0
  9 14  1  0  0  0  0
  9 10  2  0  0  0  0
 10 11  1  0  0  0  0
 11 12  2  0  0  0  0
 11 40  1  0  0  0  0
 12 13  1  0  0  0  0
 13 17  1  0  0  0  0
 13 14  2  0  0  0  0
 14 15  1  0  0  0  0
 15 16  2  0  0  0  0
 16 17  1  0  0  0  0
 16 41  1  0  0  0  0
 17 18  1  0  0  0  0
 18 19  1  0  0  0  0
 18 42  1  0  0  0  0
 18 43  1  0  0  0  0
 19 20  1  0  0  0  0
 19 21  1  0  0  0  0
 19 44  1  0  0  0  0
 20 45  1  0  0  0  0
 21 25  1  0  0  0  0
 21 22  1  0  0  0  0
 21 46  1  0  0  0  0
 22 23  1  0  0  0  0
 22 47  1  0  0  0  0
 22 48  1  0  0  0  0
 23 24  1  0  0  0  0
 23 49  1  0  0  0  0
 23 50  1  0  0  0  0
 24 25  1  0  0  0  0
 24 51  1  0  0  0  0
 24 52  1  0  0  0  0
M  END
> <s_m_source_file>
AV-unprocessed.smi

> <i_m_source_file_index>
232

> <i_lp_mmshare_version>
43012

> <i_f3d_flags>
0

> <s_epik_input>
W0NIM11bQ0gyXVtDQEBIXTFbQ0gyXVtDSDJdW0NAQEhdKFtDSDNdKU4xYyhuW2NIXW4yKWMoYzIzKW5bY0hdbjNbQ0gyXVtDQEhdKFtPSF0pW0NAQEhdNFtDSDJdW0NIMl1bQ0gyXU80

> <s_epik_cmdline>
J2VwaWtfcHl0aG9uJywgJy1waCcsICc3LjAnLCAnLXRuJywgJzgnLCAnLW1hJywgJzIwMCcsICctbWV0YWxfYmluZGluZycsICctaW1hZScsICc8aW5maWxlLm1hZT4nLCAnLW9tYWUnLCAnPG91dGZpbGUubWFlPic=

> <r_lp_tautomer_probability>
1

> <r_epik_Ionization_Penalty>
0.00258048

> <r_epik_Ionization_Penalty_Charging>
0

> <r_epik_Ionization_Penalty_Neutral>
0.00258048

> <r_epik_State_Penalty>
0.00168551

> <r_epik_Charging_Adjusted_Penalty>
0.00168551

> <i_epik_Tot_Q>
0

> <i_epik_Tot_abs_Q>
0

> <r_epik_Metal_State_Penalty>
-0

> <b_epik_Metal_Only>
0

> <s_lp_Force_Field>
OPLS_2005

> <r_lp_Energy>
56.7631

> <b_lp_Chiralities_Consistent>
1

> <s_lp_Variant>
AV-unprocessed.smi:232-9

> <Gold.Version>
5.8.1

> <Gold.Id.Protein>
6NUR|6NUR_protein|mol2

> <Gold.PLP.Fitness>
46.2343

> <Gold.PLP.PLP>
-35.4245

> <Gold.PLP.part.hbond>
-2.7115

> <Gold.PLP.part.metal>
0.0000

> <Gold.PLP.part.buried>
-4.3133

> <Gold.PLP.part.nonpolar>
-28.0445

> <Gold.PLP.part.repulsive>
0.4915

> <Gold.PLP.ligand.clash>
0.0000

> <Gold.PLP.ligand.torsion>
0.4569

> <Gold.PLP.Chemscore.Hbond>
2.8320

> <Gold.PLP.Chemscore.CHOScore>
1.0000

> <Gold.PLP.Chemscore.Metal>
0.0000

> <Gold.Chemscore.Hbonds>
donor molecule, donor type, donor heavy atom, donor atom, acceptor molecule, acceptor atom, score
      L1  H    20    45       P1  7957  0.93
      P1  H  7989  7998       L1    25  1.00
      P1  H  8011  8017       L1    20  0.60
      L1  C    16    41       P1  7957  1.00

> <Gold.PLP.Chemscore.Internal.Correction>
0.2277

> <Gold.Rescore>
     Score         DG    S(hbond)    S(metal)    S(lipo)     H(rot)  DE(clash)    DE(int)     intcor
     14.99     -15.37       2.17        0.00      75.75       2.43       0.11       0.27       ----

> <Gold.Chemscore.Fitness>
14.9852

> <Gold.Chemscore.DG>
-15.3654

> <Gold.Chemscore.ZeroCoef>
-5.4800

> <Gold.Chemscore.Hbond>
2.1657

> <Gold.Chemscore.Metal>
0.0000

> <Gold.Chemscore.Lipo>
75.7491

> <Gold.Chemscore.Internal_Hbond>
0.0000

> <Gold.Chemscore.DEClash>
0.1114

> <Gold.Chemscore.DEInternal>
0.2688

> <Gold.Chemscore.Rot>
2.4260

> <Gold.Chemscore.Internal.Correction>
   9.000000E+99

> <Gold.Chemscore.Hbonds>
donor molecule, donor type, donor heavy atom, donor atom, acceptor molecule, acceptor atom, score
      L1  H    20    45       P1  7957  0.90
      P1  H  7989  7998       L1    25  0.92
      P1  H  8011  8017       L1    20  0.04

> <Gold.Chemscore.Hbond.Weighted>
-7.2335

> <Gold.Chemscore.Metal.Weighted>
-0.0000

> <Gold.Chemscore.Lipo.Weighted>
-8.8626

> <Gold.Chemscore.Internal_Hbond.Weighted>
0.0000

> <Gold.Chemscore.DEClash.Weighted>
0.1114

> <Gold.Chemscore.DEInternal.Weighted>
0.2688

> <Gold.Chemscore.Rot.Weighted>
6.2107

> <Gold.Chemscore.Internal.Correction.Weighted>
   9.000000E+99

> <Gold.Protein.RotatedTorsions>
[ 6907 6896 6895 6894 ] final    7.06 input  -60.11 | X-H torsion
[ 7974 7965 7964 7962 ] final  118.73 input  175.53 | X-H torsion
[ 8008 7997 7996 7995 ] final   37.86 input   59.86 | X-H torsion
[ 10167 10162 10161 10158 ] final   -7.29 input  -65.29 | X-H torsion
[ 10718 10713 10712 10709 ] final -130.26 input   66.30 | X-H torsion
[ 10763 10752 10751 10750 ] final -136.79 input  -60.55 | X-H torsion
[ 11005 11000 10999 10996 ] final  -43.92 input  -57.11 | X-H torsion

> <Gold.Protein.ActiveResidues>
 VAL166  LYS551  ARG553  GLY616  TRP617  ASP618  TYR619  PRO620  LYS621  CYS622 
 ASP623  PHE694  ASN695  SER759  ASP760  ASP761  ALA762  ILE779  LEU786  VAL792 
 PHE793  MET794  SER795  GLU796  ALA797  LYS798  CYS799  TRP800  GLU811  SER814 

> <Gold.Protein.RotatedAtoms>
  151.6837  135.0957  160.0220 H   0  0  0  0  0  0  0  0  0  0  0  0  # atno 6907 bound_to 6896
  152.3820  133.6555  159.6177 H   0  0  0  0  0  0  0  0  0  0  0  0  # atno 6908 bound_to 6896
  150.7754  133.9015  159.3384 H   0  0  0  0  0  0  0  0  0  0  0  0  # atno 6909 bound_to 6896
  145.1517  139.3206  143.4563 H   0  0  0  0  0  0  0  0  0  0  0  0  # atno 7974 bound_to 7965
  155.2106  140.3323  155.4329 H   0  0  0  0  0  0  0  0  0  0  0  0  # atno 8008 bound_to 7997
  156.2372  140.1878  156.7137 H   0  0  0  0  0  0  0  0  0  0  0  0  # atno 8009 bound_to 7997
  154.6080  140.0613  156.9442 H   0  0  0  0  0  0  0  0  0  0  0  0  # atno 8010 bound_to 7997
  140.7024  143.6097  150.8716 H   0  0  0  0  0  0  0  0  0  0  0  0  # atno 10167 bound_to 10162
  156.2127  130.6928  151.0667 H   0  0  0  0  0  0  0  0  0  0  0  0  # atno 10718 bound_to 10713
  154.8676  135.3662  154.5118 H   0  0  0  0  0  0  0  0  0  0  0  0  # atno 10763 bound_to 10752
  153.5753  135.7019  153.5491 H   0  0  0  0  0  0  0  0  0  0  0  0  # atno 10764 bound_to 10752
  153.3505  135.4073  155.1605 H   0  0  0  0  0  0  0  0  0  0  0  0  # atno 10765 bound_to 10752
  141.0416  133.6778  156.2800 H   0  0  0  0  0  0  0  0  0  0  0  0  # atno 11005 bound_to 11000
  146.3494  140.1594  142.8591 LP  0  0  0  0  0  0  0  0  0  0  0  0  # atno 17320 bound_to 7965
  145.0424  140.8955  143.5044 LP  0  0  0  0  0  0  0  0  0  0  0  0  # atno 17321 bound_to 7965
  139.9820  143.5940  152.2939 LP  0  0  0  0  0  0  0  0  0  0  0  0  # atno 17342 bound_to 10162
  139.6565  144.7662  151.2046 LP  0  0  0  0  0  0  0  0  0  0  0  0  # atno 17343 bound_to 10162
  157.7047  131.0761  150.6707 LP  0  0  0  0  0  0  0  0  0  0  0  0  # atno 17370 bound_to 10713
  156.6767  130.4555  149.5640 LP  0  0  0  0  0  0  0  0  0  0  0  0  # atno 17371 bound_to 10713
  140.6224  134.5348  157.5549 LP  0  0  0  0  0  0  0  0  0  0  0  0  # atno 17394 bound_to 11000
  139.9280  134.8018  156.1012 LP  0  0  0  0  0  0  0  0  0  0  0  0  # atno 17395 bound_to 11000

$$$$
