AV-unprocessed.smi:679|AV-procd|sdf|3321|dock10
  -GOLD-   22720 0293D 1   1.00000     0.00000
 Structure written by MMmdl.
 41 43  0  0  0  0  0  0  0  0  1 V2000
  148.3370  145.2175  161.1115 C   0  0  0  0  0  0  0  0  0  0  0  0
  149.4455  144.8016  160.1422 C   0  0  0  0  0  0  0  0  0  0  0  0
  149.2857  143.4291  159.8285 O   0  0  0  0  0  0  0  0  0  0  0  0
  149.4863  143.1487  158.4522 C   0  0  2  0  0  0  0  0  0  0  0  0
  149.2782  141.6821  158.0619 C   0  0  0  0  0  0  0  0  0  0  0  0
  150.4605  141.8805  157.1113 C   0  0  2  0  0  0  0  0  0  0  0  0
  151.3171  140.7047  157.0319 N   0  0  0  0  0  0  0  0  0  0  0  0
  151.5112  139.9810  155.9200 C   0  0  0  0  0  0  0  0  0  0  0  0
  150.9030  140.1734  154.8677 O   0  0  0  0  0  0  0  0  0  0  0  0
  152.5833  138.8956  155.9980 C   0  0  0  0  0  0  0  0  0  0  0  0
  152.1473  137.8190  156.8674 N   0  0  0  0  0  0  0  0  0  0  0  0
  151.7566  137.8268  158.1438 C   0  0  0  0  0  0  0  0  0  0  0  0
  151.4039  136.6180  158.5540 N   0  0  0  0  0  0  0  0  0  0  0  0
  151.6032  135.8332  157.4301 N   0  0  0  0  0  0  0  0  0  0  0  0
  152.0440  136.5402  156.4261 N   0  0  0  0  0  0  0  0  0  0  0  0
  150.9779  142.9879  158.0662 C   0  0  0  0  0  0  0  0  0  0  0  0
  151.6678  144.2043  157.4567 C   0  0  0  0  0  0  0  0  0  0  0  0
  152.3934  144.9373  158.5916 C   0  0  0  0  0  0  0  0  0  0  0  0
  152.4993  143.9345  159.7449 C   0  0  0  0  0  0  0  0  0  0  0  0
  151.9580  142.6175  159.1886 C   0  0  0  0  0  0  0  0  0  0  0  0
  148.4283  146.2700  161.3799 H   0  0  0  0  0  0  0  0  0  0  0  0
  148.3819  144.6324  162.0304 H   0  0  0  0  0  0  0  0  0  0  0  0
  147.3527  145.0688  160.6669 H   0  0  0  0  0  0  0  0  0  0  0  0
  149.3935  145.4072  159.2364 H   0  0  0  0  0  0  0  0  0  0  0  0
  150.4220  144.9712  160.5983 H   0  0  0  0  0  0  0  0  0  0  0  0
  148.9586  143.8400  157.7904 H   0  0  0  0  0  0  0  0  0  0  0  0
  149.4790  140.9873  158.8799 H   0  0  0  0  0  0  0  0  0  0  0  0
  148.3272  141.4706  157.5726 H   0  0  0  0  0  0  0  0  0  0  0  0
  150.1415  142.2730  156.1425 H   0  0  0  0  0  0  0  0  0  0  0  0
  151.8584  140.4748  157.8530 H   0  0  0  0  0  0  0  0  0  0  0  0
  152.7969  138.5010  155.0034 H   0  0  0  0  0  0  0  0  0  0  0  0
  153.5122  139.3108  156.3907 H   0  0  0  0  0  0  0  0  0  0  0  0
  151.7213  138.7114  158.7626 H   0  0  0  0  0  0  0  0  0  0  0  0
  152.3964  143.8814  156.7121 H   0  0  0  0  0  0  0  0  0  0  0  0
  150.9688  144.8648  156.9428 H   0  0  0  0  0  0  0  0  0  0  0  0
  153.3752  145.2840  158.2674 H   0  0  0  0  0  0  0  0  0  0  0  0
  151.8252  145.8124  158.9094 H   0  0  0  0  0  0  0  0  0  0  0  0
  153.5203  143.8313  160.1135 H   0  0  0  0  0  0  0  0  0  0  0  0
  151.8802  144.2676  160.5788 H   0  0  0  0  0  0  0  0  0  0  0  0
  151.5033  142.0085  159.9707 H   0  0  0  0  0  0  0  0  0  0  0  0
  152.7966  142.0439  158.7930 H   0  0  0  0  0  0  0  0  0  0  0  0
  1  2  1  0  0  0  0
  1 21  1  0  0  0  0
  1 22  1  0  0  0  0
  1 23  1  0  0  0  0
  2  3  1  0  0  0  0
  2 24  1  0  0  0  0
  2 25  1  0  0  0  0
  3  4  1  0  0  0  0
  4 16  1  0  0  0  0
  4  5  1  0  0  0  0
  4 26  1  0  0  0  0
  5  6  1  0  0  0  0
  5 27  1  0  0  0  0
  5 28  1  0  0  0  0
  6  7  1  0  0  0  0
  6 16  1  0  0  0  0
  6 29  1  0  0  0  0
  7  8  1  0  0  0  0
  7 30  1  0  0  0  0
  8  9  2  0  0  0  0
  8 10  1  0  0  0  0
 10 11  1  0  0  0  0
 10 31  1  0  0  0  0
 10 32  1  0  0  0  0
 11 15  1  0  0  0  0
 11 12  1  0  0  0  0
 12 13  2  0  0  0  0
 12 33  1  0  0  0  0
 13 14  1  0  0  0  0
 14 15  2  0  0  0  0
 16 20  1  0  0  0  0
 16 17  1  0  0  0  0
 17 18  1  0  0  0  0
 17 34  1  0  0  0  0
 17 35  1  0  0  0  0
 18 19  1  0  0  0  0
 18 36  1  0  0  0  0
 18 37  1  0  0  0  0
 19 20  1  0  0  0  0
 19 38  1  0  0  0  0
 19 39  1  0  0  0  0
 20 40  1  0  0  0  0
 20 41  1  0  0  0  0
M  END
> <s_m_source_file>
AV-unprocessed.smi

> <i_m_source_file_index>
679

> <i_lp_mmshare_version>
43012

> <i_f3d_flags>
0

> <s_epik_input>
W0NIMl0xW0NIMl1bQ0gyXVtDSDJdQzEyW0NASF0oT1tDSDJdW0NIM10pW0NIMl1bQ0BIXTJbTkhdQyg9TylbQ0gyXW4zW2NIXW5ubjM=

> <s_epik_cmdline>
J2VwaWtfcHl0aG9uJywgJy1waCcsICc3LjAnLCAnLXRuJywgJzgnLCAnLW1hJywgJzIwMCcsICctbWV0YWxfYmluZGluZycsICctaW1hZScsICc8aW5maWxlLm1hZT4nLCAnLW9tYWUnLCAnPG91dGZpbGUubWFlPic=

> <r_lp_tautomer_probability>
1

> <r_epik_Ionization_Penalty>
7.96741e-07

> <r_epik_Ionization_Penalty_Charging>
0

> <r_epik_Ionization_Penalty_Neutral>
7.96741e-07

> <r_epik_State_Penalty>
-0

> <r_epik_Charging_Adjusted_Penalty>
0

> <i_epik_Tot_Q>
0

> <i_epik_Tot_abs_Q>
0

> <r_epik_Metal_State_Penalty>
-0

> <b_epik_Metal_Only>
0

> <s_lp_Force_Field>
OPLS_2005

> <r_lp_Energy>
37

> <b_lp_Chiralities_Consistent>
1

> <s_lp_Variant>
AV-unprocessed.smi:679-3

> <Gold.Version>
5.8.1

> <Gold.Id.Protein>
6NUR|6NUR_protein|mol2

> <Gold.PLP.Fitness>
48.4850

> <Gold.PLP.PLP>
-40.4506

> <Gold.PLP.part.hbond>
-4.9609

> <Gold.PLP.part.metal>
0.0000

> <Gold.PLP.part.buried>
-5.7899

> <Gold.PLP.part.nonpolar>
-30.9988

> <Gold.PLP.part.repulsive>
0.2706

> <Gold.PLP.ligand.clash>
0.0000

> <Gold.PLP.ligand.torsion>
0.6768

> <Gold.PLP.Chemscore.Hbond>
3.0104

> <Gold.PLP.Chemscore.CHOScore>
0.0000

> <Gold.PLP.Chemscore.Metal>
0.0000

> <Gold.Chemscore.Hbonds>
donor molecule, donor type, donor heavy atom, donor atom, acceptor molecule, acceptor atom, score
      P1  H  6896  6908       L1    13  0.66
      P1  H  6933  6944       L1     3  0.32
      P1  H  7989  7998       L1     9  1.00
      P1  H 10752 10763       L1    15  0.94

> <Gold.PLP.Chemscore.Internal.Correction>
0.3567

> <Gold.Rescore>
     Score         DG    S(hbond)    S(metal)    S(lipo)     H(rot)  DE(clash)    DE(int)     intcor
     18.07     -18.75       2.56        0.00      93.12       2.41       0.03       0.65       ----

> <Gold.Chemscore.Fitness>
18.0688

> <Gold.Chemscore.DG>
-18.7503

> <Gold.Chemscore.ZeroCoef>
-5.4800

> <Gold.Chemscore.Hbond>
2.5575

> <Gold.Chemscore.Metal>
0.0000

> <Gold.Chemscore.Lipo>
93.1197

> <Gold.Chemscore.Internal_Hbond>
0.0000

> <Gold.Chemscore.DEClash>
0.0291

> <Gold.Chemscore.DEInternal>
0.6524

> <Gold.Chemscore.Rot>
2.4089

> <Gold.Chemscore.Internal.Correction>
   9.000000E+99

> <Gold.Chemscore.Hbonds>
donor molecule, donor type, donor heavy atom, donor atom, acceptor molecule, acceptor atom, score
      P1  H  6896  6908       L1    13  0.13
      P1  H  6933  6944       L1     3  0.25
      P1  H  7989  7998       L1     9  0.99
      P1  H 10752 10763       L1    15  0.81

> <Gold.Chemscore.Hbond.Weighted>
-8.5421

> <Gold.Chemscore.Metal.Weighted>
-0.0000

> <Gold.Chemscore.Lipo.Weighted>
-10.8950

> <Gold.Chemscore.Internal_Hbond.Weighted>
0.0000

> <Gold.Chemscore.DEClash.Weighted>
0.0291

> <Gold.Chemscore.DEInternal.Weighted>
0.6524

> <Gold.Chemscore.Rot.Weighted>
6.1668

> <Gold.Chemscore.Internal.Correction.Weighted>
   9.000000E+99

> <Gold.Protein.RotatedTorsions>
[ 6907 6896 6895 6894 ] final -130.23 input  -60.11 | X-H torsion
[ 7974 7965 7964 7962 ] final   59.40 input  175.53 | X-H torsion
[ 8008 7997 7996 7995 ] final    2.39 input   59.86 | X-H torsion
[ 10167 10162 10161 10158 ] final   -0.44 input  -65.29 | X-H torsion
[ 10718 10713 10712 10709 ] final   -8.77 input   66.30 | X-H torsion
[ 10763 10752 10751 10750 ] final   88.32 input  -60.55 | X-H torsion
[ 11005 11000 10999 10996 ] final  101.01 input  -57.11 | X-H torsion

> <Gold.Protein.ActiveResidues>
 VAL166  LYS551  ARG553  GLY616  TRP617  ASP618  TYR619  PRO620  LYS621  CYS622 
 ASP623  PHE694  ASN695  SER759  ASP760  ASP761  ALA762  ILE779  LEU786  VAL792 
 PHE793  MET794  SER795  GLU796  ALA797  LYS798  CYS799  TRP800  GLU811  SER814 

> <Gold.Protein.RotatedAtoms>
  150.9374  133.6696  159.2797 H   0  0  0  0  0  0  0  0  0  0  0  0  # atno 6907 bound_to 6896
  151.4097  135.0982  159.9591 H   0  0  0  0  0  0  0  0  0  0  0  0  # atno 6908 bound_to 6896
  152.5054  133.8849  159.7420 H   0  0  0  0  0  0  0  0  0  0  0  0  # atno 6909 bound_to 6896
  145.9075  139.3628  143.0555 H   0  0  0  0  0  0  0  0  0  0  0  0  # atno 7974 bound_to 7965
  154.6910  140.2653  155.6812 H   0  0  0  0  0  0  0  0  0  0  0  0  # atno 8008 bound_to 7997
  156.2732  140.2791  156.1411 H   0  0  0  0  0  0  0  0  0  0  0  0  # atno 8009 bound_to 7997
  155.0897  140.0373  157.2655 H   0  0  0  0  0  0  0  0  0  0  0  0  # atno 8010 bound_to 7997
  140.6767  143.6895  150.8040 H   0  0  0  0  0  0  0  0  0  0  0  0  # atno 10167 bound_to 10162
  156.6977  130.5084  149.5926 H   0  0  0  0  0  0  0  0  0  0  0  0  # atno 10718 bound_to 10713
  153.1756  135.4511  154.9961 H   0  0  0  0  0  0  0  0  0  0  0  0  # atno 10763 bound_to 10752
  154.7996  135.3250  154.7586 H   0  0  0  0  0  0  0  0  0  0  0  0  # atno 10764 bound_to 10752
  153.8056  135.6959  153.4903 H   0  0  0  0  0  0  0  0  0  0  0  0  # atno 10765 bound_to 10752
  139.8772  134.9164  156.4841 H   0  0  0  0  0  0  0  0  0  0  0  0  # atno 11005 bound_to 11000
  145.8713  140.9418  143.0649 LP  0  0  0  0  0  0  0  0  0  0  0  0  # atno 17320 bound_to 7965
  144.6740  140.0658  143.7474 LP  0  0  0  0  0  0  0  0  0  0  0  0  # atno 17321 bound_to 7965
  140.0589  143.5175  152.2637 LP  0  0  0  0  0  0  0  0  0  0  0  0  # atno 17342 bound_to 10162
  139.6064  144.7597  151.3052 LP  0  0  0  0  0  0  0  0  0  0  0  0  # atno 17343 bound_to 10162
  156.1751  130.6463  151.0885 LP  0  0  0  0  0  0  0  0  0  0  0  0  # atno 17370 bound_to 10713
  157.6985  131.0785  150.6895 LP  0  0  0  0  0  0  0  0  0  0  0  0  # atno 17371 bound_to 10713
  140.8706  133.7991  155.9360 LP  0  0  0  0  0  0  0  0  0  0  0  0  # atno 17394 bound_to 11000
  140.8957  134.2441  157.5070 LP  0  0  0  0  0  0  0  0  0  0  0  0  # atno 17395 bound_to 11000

$$$$
