AV-unprocessed.smi:1943|AV-procd|sdf|7851|dock7
  -GOLD-   22720 9593D 1   1.00000     0.00000
 Structure written by MMmdl.
 48 49  0  0  0  0  0  0  0  0  2 V2000
  144.4181  132.7141  150.0719 C   0  0  0  0  0  0  0  0  0  0  0  0
  144.6201  133.0169  151.5140 N   0  3  0  0  0  0  0  0  0  0  0  0
  143.3337  133.4329  152.1320 C   0  0  0  0  0  0  0  0  0  0  0  0
  145.8127  133.8845  151.8313 C   0  0  0  0  0  0  0  0  0  0  0  0
  147.1188  133.2501  151.2909 C   0  0  0  0  0  0  0  0  0  0  0  0
  145.6642  135.2896  151.1885 C   0  0  0  0  0  0  0  0  0  0  0  0
  145.8855  134.0764  153.3771 C   0  0  0  0  0  0  0  0  0  0  0  0
  147.1842  134.5502  153.8538 N   0  0  0  0  0  0  0  0  0  0  0  0
  147.5586  134.6505  155.1402 C   0  0  0  0  0  0  0  0  0  0  0  0
  146.8272  134.3558  156.0858 O   0  0  0  0  0  0  0  0  0  0  0  0
  148.9751  135.1054  155.3525 C   0  0  0  0  0  0  0  0  0  0  0  0
  149.3046  136.3305  154.8780 N   0  0  0  0  0  0  0  0  0  0  0  0
  150.5489  136.7821  155.0794 C   0  0  0  0  0  0  0  0  0  0  0  0
  150.8701  138.0476  154.5735 N   0  0  0  0  0  0  0  0  0  0  0  0
  149.8462  139.0413  154.2528 C   0  0  0  0  0  0  0  0  0  0  0  0
  149.6649  139.9974  155.4455 C   0  0  0  0  0  0  0  0  0  0  0  0
  150.9140  140.6136  155.7525 O   0  0  0  0  0  0  0  0  0  0  0  0
  151.9277  139.6651  156.0809 C   0  0  0  0  0  0  0  0  0  0  0  0
  152.1364  138.7040  154.8963 C   0  0  0  0  0  0  0  0  0  0  0  0
  151.5112  136.1113  155.7234 N   0  0  0  0  0  0  0  0  0  0  0  0
  151.2082  134.8886  156.2063 C   0  0  0  0  0  0  0  0  0  0  0  0
  149.9295  134.3203  156.0481 C   0  0  0  0  0  0  0  0  0  0  0  0
  149.6086  132.7348  156.6627 Cl  0  0  0  0  0  0  0  0  0  0  0  0
  144.0721  133.5920  149.5253 H   0  0  0  0  0  0  0  0  0  0  0  0
  143.6597  131.9396  149.9548 H   0  0  0  0  0  0  0  0  0  0  0  0
  145.3170  132.3430  149.5843 H   0  0  0  0  0  0  0  0  0  0  0  0
  143.0645  134.4504  151.8473 H   0  0  0  0  0  0  0  0  0  0  0  0
  143.3656  133.3697  153.2193 H   0  0  0  0  0  0  0  0  0  0  0  0
  142.5234  132.7752  151.8156 H   0  0  0  0  0  0  0  0  0  0  0  0
  147.9676  133.9252  151.4030 H   0  0  0  0  0  0  0  0  0  0  0  0
  147.0453  133.0148  150.2292 H   0  0  0  0  0  0  0  0  0  0  0  0
  147.3769  132.3315  151.8183 H   0  0  0  0  0  0  0  0  0  0  0  0
  146.4795  135.9566  151.4696 H   0  0  0  0  0  0  0  0  0  0  0  0
  144.7345  135.7721  151.4929 H   0  0  0  0  0  0  0  0  0  0  0  0
  145.6825  135.2498  150.0991 H   0  0  0  0  0  0  0  0  0  0  0  0
  145.1416  134.8114  153.6874 H   0  0  0  0  0  0  0  0  0  0  0  0
  145.6281  133.1627  153.9107 H   0  0  0  0  0  0  0  0  0  0  0  0
  147.8600  134.8170  153.1520 H   0  0  0  0  0  0  0  0  0  0  0  0
  150.1716  139.6047  153.3775 H   0  0  0  0  0  0  0  0  0  0  0  0
  148.8955  138.5864  153.9753 H   0  0  0  0  0  0  0  0  0  0  0  0
  148.9381  140.7719  155.2007 H   0  0  0  0  0  0  0  0  0  0  0  0
  149.2846  139.4646  156.3187 H   0  0  0  0  0  0  0  0  0  0  0  0
  152.8526  140.1977  156.3019 H   0  0  0  0  0  0  0  0  0  0  0  0
  151.6501  139.1172  156.9829 H   0  0  0  0  0  0  0  0  0  0  0  0
  152.9337  137.9958  155.1198 H   0  0  0  0  0  0  0  0  0  0  0  0
  152.4711  139.2641  154.0223 H   0  0  0  0  0  0  0  0  0  0  0  0
  151.9966  134.3570  156.7183 H   0  0  0  0  0  0  0  0  0  0  0  0
  144.8299  132.1269  151.9431 H   0  0  0  0  0  0  0  0  0  0  0  0
  1  2  1  0  0  0  0
  1 24  1  0  0  0  0
  1 25  1  0  0  0  0
  1 26  1  0  0  0  0
  2  3  1  0  0  0  0
  2  4  1  0  0  0  0
  2 48  1  0  0  0  0
  3 27  1  0  0  0  0
  3 28  1  0  0  0  0
  3 29  1  0  0  0  0
  4  5  1  0  0  0  0
  4  6  1  0  0  0  0
  4  7  1  0  0  0  0
  5 30  1  0  0  0  0
  5 31  1  0  0  0  0
  5 32  1  0  0  0  0
  6 33  1  0  0  0  0
  6 34  1  0  0  0  0
  6 35  1  0  0  0  0
  7  8  1  0  0  0  0
  7 36  1  0  0  0  0
  7 37  1  0  0  0  0
  8  9  1  0  0  0  0
  8 38  1  0  0  0  0
  9 10  2  0  0  0  0
  9 11  1  0  0  0  0
 11 22  1  0  0  0  0
 11 12  2  0  0  0  0
 12 13  1  0  0  0  0
 13 14  1  0  0  0  0
 13 20  2  0  0  0  0
 14 19  1  0  0  0  0
 14 15  1  0  0  0  0
 15 16  1  0  0  0  0
 15 39  1  0  0  0  0
 15 40  1  0  0  0  0
 16 17  1  0  0  0  0
 16 41  1  0  0  0  0
 16 42  1  0  0  0  0
 17 18  1  0  0  0  0
 18 19  1  0  0  0  0
 18 43  1  0  0  0  0
 18 44  1  0  0  0  0
 19 45  1  0  0  0  0
 19 46  1  0  0  0  0
 20 21  1  0  0  0  0
 21 22  2  0  0  0  0
 21 47  1  0  0  0  0
 22 23  1  0  0  0  0
M  CHG  1   2   1
M  END
> <s_m_source_file>
AV-unprocessed.smi

> <i_m_source_file_index>
1943

> <i_lp_mmshare_version>
43012

> <i_f3d_flags>
0

> <s_epik_input>
W0NIM11OKFtDSDNdKUMoW0NIM10pKFtDSDNdKVtDSDJdW05IXUMoPU8pYzFuYyhuW2NIXWMxQ2wpTjJbQ0gyXVtDSDJdT1tDSDJdW0NIMl0y

> <s_epik_cmdline>
J2VwaWtfcHl0aG9uJywgJy1waCcsICc3LjAnLCAnLXRuJywgJzgnLCAnLW1hJywgJzIwMCcsICctbWV0YWxfYmluZGluZycsICctaW1hZScsICc8aW5maWxlLm1hZT4nLCAnLW9tYWUnLCAnPG91dGZpbGUubWFlPic=

> <r_lp_tautomer_probability>
1

> <r_epik_Ionization_Penalty>
0.00747112

> <r_epik_Ionization_Penalty_Charging>
0.00734137

> <r_epik_Ionization_Penalty_Neutral>
0.000129757

> <r_epik_State_Penalty>
0.00547931

> <r_epik_Charging_Adjusted_Penalty>
0.0128207

> <i_epik_Tot_Q>
1

> <i_epik_Tot_abs_Q>
1

> <r_epik_Metal_State_Penalty>
0.0979204

> <b_epik_Metal_Only>
0

> <s_lp_Force_Field>
OPLS_2005

> <r_lp_Energy>
30.7364

> <b_lp_Chiralities_Consistent>
1

> <s_lp_Variant>
AV-unprocessed.smi:1943-1

> <Gold.Version>
5.8.1

> <Gold.Id.Protein>
6NUR|6NUR_protein|mol2

> <Gold.PLP.Fitness>
40.8112

> <Gold.PLP.PLP>
-36.0595

> <Gold.PLP.part.hbond>
-3.0000

> <Gold.PLP.part.metal>
0.0000

> <Gold.PLP.part.buried>
-4.3863

> <Gold.PLP.part.nonpolar>
-30.6538

> <Gold.PLP.part.repulsive>
1.9681

> <Gold.PLP.ligand.clash>
0.0000

> <Gold.PLP.ligand.torsion>
1.5267

> <Gold.PLP.Chemscore.Hbond>
2.5001

> <Gold.PLP.Chemscore.CHOScore>
0.0000

> <Gold.PLP.Chemscore.Metal>
0.0000

> <Gold.Chemscore.Hbonds>
donor molecule, donor type, donor heavy atom, donor atom, acceptor molecule, acceptor atom, score
      L1  H     8    38       P1  7948  0.63
      P1  H  7989  7998       L1    17  0.08
      P1  H 10752 10763       L1    20  0.88

> <Gold.PLP.Chemscore.Internal.Correction>
0.3049

> <Gold.Rescore>
     Score         DG    S(hbond)    S(metal)    S(lipo)     H(rot)  DE(clash)    DE(int)     intcor
     13.67     -16.37       1.48        0.00      82.25       1.43       1.13       1.57       ----

> <Gold.Chemscore.Fitness>
13.6681

> <Gold.Chemscore.DG>
-16.3704

> <Gold.Chemscore.ZeroCoef>
-5.4800

> <Gold.Chemscore.Hbond>
1.4754

> <Gold.Chemscore.Metal>
0.0000

> <Gold.Chemscore.Lipo>
82.2484

> <Gold.Chemscore.Internal_Hbond>
0.0000

> <Gold.Chemscore.DEClash>
1.1346

> <Gold.Chemscore.DEInternal>
1.5678

> <Gold.Chemscore.Rot>
1.4298

> <Gold.Chemscore.Internal.Correction>
   9.000000E+99

> <Gold.Chemscore.Hbonds>
donor molecule, donor type, donor heavy atom, donor atom, acceptor molecule, acceptor atom, score
      L1  H     8    38       P1  7948  0.59
      P1  H 10752 10763       L1    20  0.13

> <Gold.Chemscore.Hbond.Weighted>
-4.9277

> <Gold.Chemscore.Metal.Weighted>
-0.0000

> <Gold.Chemscore.Lipo.Weighted>
-9.6231

> <Gold.Chemscore.Internal_Hbond.Weighted>
0.0000

> <Gold.Chemscore.DEClash.Weighted>
1.1346

> <Gold.Chemscore.DEInternal.Weighted>
1.5678

> <Gold.Chemscore.Rot.Weighted>
3.6604

> <Gold.Chemscore.Internal.Correction.Weighted>
   9.000000E+99

> <Gold.Protein.RotatedTorsions>
[ 6907 6896 6895 6894 ] final   85.73 input  -60.11 | X-H torsion
[ 7974 7965 7964 7962 ] final  -89.45 input  175.53 | X-H torsion
[ 8008 7997 7996 7995 ] final   44.49 input   59.86 | X-H torsion
[ 10167 10162 10161 10158 ] final -101.70 input  -65.29 | X-H torsion
[ 10718 10713 10712 10709 ] final   56.49 input   66.30 | X-H torsion
[ 10763 10752 10751 10750 ] final   53.77 input  -60.55 | X-H torsion
[ 11005 11000 10999 10996 ] final   25.63 input  -57.11 | X-H torsion

> <Gold.Protein.ActiveResidues>
 VAL166  LYS551  ARG553  GLY616  TRP617  ASP618  TYR619  PRO620  LYS621  CYS622 
 ASP623  PHE694  ASN695  SER759  ASP760  ASP761  ALA762  ILE779  LEU786  VAL792 
 PHE793  MET794  SER795  GLU796  ALA797  LYS798  CYS799  TRP800  GLU811  SER814 

> <Gold.Protein.RotatedAtoms>
  152.5380  134.2541  159.8909 H   0  0  0  0  0  0  0  0  0  0  0  0  # atno 6907 bound_to 6896
  151.2503  133.4347  159.2619 H   0  0  0  0  0  0  0  0  0  0  0  0  # atno 6908 bound_to 6896
  151.0545  134.9709  159.8285 H   0  0  0  0  0  0  0  0  0  0  0  0  # atno 6909 bound_to 6896
  145.4396  140.9558  143.2082 H   0  0  0  0  0  0  0  0  0  0  0  0  # atno 7974 bound_to 7965
  155.3202  140.3396  155.4241 H   0  0  0  0  0  0  0  0  0  0  0  0  # atno 8008 bound_to 7997
  156.1913  140.1698  156.8124 H   0  0  0  0  0  0  0  0  0  0  0  0  # atno 8009 bound_to 7997
  154.5445  140.0718  156.8549 H   0  0  0  0  0  0  0  0  0  0  0  0  # atno 8010 bound_to 7997
  140.2385  143.3556  152.0823 H   0  0  0  0  0  0  0  0  0  0  0  0  # atno 10167 bound_to 10162
  157.5435  130.8714  149.8856 H   0  0  0  0  0  0  0  0  0  0  0  0  # atno 10718 bound_to 10713
  152.9798  135.5767  154.4796 H   0  0  0  0  0  0  0  0  0  0  0  0  # atno 10763 bound_to 10752
  154.4346  135.2774  155.1891 H   0  0  0  0  0  0  0  0  0  0  0  0  # atno 10764 bound_to 10752
  154.3584  135.6194  153.5732 H   0  0  0  0  0  0  0  0  0  0  0  0  # atno 10765 bound_to 10752
  140.3457  134.2283  155.7685 H   0  0  0  0  0  0  0  0  0  0  0  0  # atno 11005 bound_to 11000
  144.8130  139.5928  143.7021 LP  0  0  0  0  0  0  0  0  0  0  0  0  # atno 17320 bound_to 7965
  146.2563  139.6310  142.9392 LP  0  0  0  0  0  0  0  0  0  0  0  0  # atno 17321 bound_to 7965
  139.5085  144.6851  151.5907 LP  0  0  0  0  0  0  0  0  0  0  0  0  # atno 17342 bound_to 10162
  140.6132  143.9398  150.6468 LP  0  0  0  0  0  0  0  0  0  0  0  0  # atno 17343 bound_to 10162
  156.0516  130.3716  150.1188 LP  0  0  0  0  0  0  0  0  0  0  0  0  # atno 17370 bound_to 10713
  156.9366  130.9731  151.3523 LP  0  0  0  0  0  0  0  0  0  0  0  0  # atno 17371 bound_to 10713
  141.2026  133.7933  157.0382 LP  0  0  0  0  0  0  0  0  0  0  0  0  # atno 17394 bound_to 11000
  140.0744  134.9684  157.1521 LP  0  0  0  0  0  0  0  0  0  0  0  0  # atno 17395 bound_to 11000

$$$$
