AV-unprocessed.smi:79|AV-procd|sdf|784|dock2
  -GOLD-   2262017153D 1   1.00000     0.00000
 Structure written by MMmdl.
 56 59  0  0  0  0  0  0  0  0  2 V2000
  151.6241  145.1136  157.7519 C   0  0  0  0  0  0  0  0  0  0  0  0
  150.9801  144.6328  159.0585 C   0  0  1  0  0  0  0  0  0  0  0  0
  150.8430  145.7466  159.9179 O   0  0  0  0  0  0  0  0  0  0  0  0
  149.5942  144.0002  158.8225 C   0  0  0  0  0  0  0  0  0  0  0  0
  149.6224  142.9276  157.7952 N   0  3  1  0  0  0  0  0  0  0  0  0
  150.9159  142.1975  157.7757 C   0  0  0  0  0  0  0  0  0  0  0  0
  150.9598  141.1713  156.6305 C   0  0  0  0  0  0  0  0  0  0  0  0
  149.8023  140.2815  156.6900 N   0  0  0  0  0  0  0  0  0  0  0  0
  149.9882  139.1281  157.3840 C   0  0  0  0  0  0  0  0  0  0  0  0
  151.2387  138.7601  157.7709 N   0  0  0  0  0  0  0  0  0  0  0  0
  151.4300  137.6260  158.4511 C   0  0  0  0  0  0  0  0  0  0  0  0
  150.5261  136.7272  158.8443 N   0  0  0  0  0  0  0  0  0  0  0  0
  149.2687  137.0898  158.4614 C   0  0  0  0  0  0  0  0  0  0  0  0
  148.9147  138.2613  157.7342 C   0  0  0  0  0  0  0  0  0  0  0  0
  147.5397  138.2968  157.5370 N   0  0  0  0  0  0  0  0  0  0  0  0
  147.1068  137.2066  158.1093 C   0  0  0  0  0  0  0  0  0  0  0  0
  148.0786  136.4183  158.6836 N   0  0  0  0  0  0  0  0  0  0  0  0
  147.8772  135.1632  159.3920 C   0  0  0  0  0  0  0  0  0  0  0  0
  147.0828  135.3077  160.7034 C   0  0  0  0  0  0  0  0  0  0  0  0
  146.9161  133.9096  161.3319 C   0  0  0  0  0  0  0  0  0  0  0  0
  145.9918  133.9031  162.4017 O   0  0  0  0  0  0  0  0  0  0  0  0
  147.5759  136.4188  161.6411 C   0  0  0  0  0  0  0  0  0  0  0  0
  146.2586  137.0041  161.7356 O   0  0  0  0  0  0  0  0  0  0  0  0
  145.8159  136.1727  160.6401 C   0  0  0  0  0  0  0  0  0  0  0  0
  148.4958  140.9462  156.7423 C   0  0  2  0  0  0  0  0  0  0  0  0
  148.1247  141.5609  155.3817 C   0  0  0  0  0  0  0  0  0  0  0  0
  148.4622  141.9985  157.8738 C   0  0  0  0  0  0  0  0  0  0  0  0
  151.7704  144.2841  157.0597 H   0  0  0  0  0  0  0  0  0  0  0  0
  152.6009  145.5624  157.9365 H   0  0  0  0  0  0  0  0  0  0  0  0
  151.0045  145.8583  157.2512 H   0  0  0  0  0  0  0  0  0  0  0  0
  151.6558  143.9196  159.5289 H   0  0  0  0  0  0  0  0  0  0  0  0
  151.4028  145.6215  160.6693 H   0  0  0  0  0  0  0  0  0  0  0  0
  149.2360  143.5927  159.7695 H   0  0  0  0  0  0  0  0  0  0  0  0
  148.8702  144.7613  158.5273 H   0  0  0  0  0  0  0  0  0  0  0  0
  151.7396  142.9022  157.6566 H   0  0  0  0  0  0  0  0  0  0  0  0
  151.0616  141.6955  158.7336 H   0  0  0  0  0  0  0  0  0  0  0  0
  150.9603  141.6842  155.6686 H   0  0  0  0  0  0  0  0  0  0  0  0
  151.8978  140.6188  156.6761 H   0  0  0  0  0  0  0  0  0  0  0  0
  152.4533  137.4080  158.7192 H   0  0  0  0  0  0  0  0  0  0  0  0
  146.0577  136.9495  158.1312 H   0  0  0  0  0  0  0  0  0  0  0  0
  147.3836  134.4610  158.7189 H   0  0  0  0  0  0  0  0  0  0  0  0
  148.8618  134.7370  159.5879 H   0  0  0  0  0  0  0  0  0  0  0  0
  146.5604  133.1876  160.5974 H   0  0  0  0  0  0  0  0  0  0  0  0
  147.8693  133.5371  161.7080 H   0  0  0  0  0  0  0  0  0  0  0  0
  145.1832  133.5198  162.0985 H   0  0  0  0  0  0  0  0  0  0  0  0
  147.9504  136.0656  162.6024 H   0  0  0  0  0  0  0  0  0  0  0  0
  148.2882  137.1050  161.1807 H   0  0  0  0  0  0  0  0  0  0  0  0
  145.7132  136.7487  159.7201 H   0  0  0  0  0  0  0  0  0  0  0  0
  144.8947  135.6344  160.8656 H   0  0  0  0  0  0  0  0  0  0  0  0
  147.7265  140.2010  156.9504 H   0  0  0  0  0  0  0  0  0  0  0  0
  147.1215  141.9869  155.4083 H   0  0  0  0  0  0  0  0  0  0  0  0
  148.1370  140.8046  154.5965 H   0  0  0  0  0  0  0  0  0  0  0  0
  148.8102  142.3561  155.0883 H   0  0  0  0  0  0  0  0  0  0  0  0
  148.4788  141.5003  158.8440 H   0  0  0  0  0  0  0  0  0  0  0  0
  147.5216  142.5458  157.8286 H   0  0  0  0  0  0  0  0  0  0  0  0
  149.5569  143.3954  156.9022 H   0  0  0  0  0  0  0  0  0  0  0  0
  1  2  1  0  0  0  0
  1 28  1  0  0  0  0
  1 29  1  0  0  0  0
  1 30  1  0  0  0  0
  2  3  1  0  0  0  0
  2  4  1  0  0  0  0
  2 31  1  0  0  0  0
  3 32  1  0  0  0  0
  4  5  1  0  0  0  0
  4 33  1  0  0  0  0
  4 34  1  0  0  0  0
  5 27  1  0  0  0  0
  5  6  1  0  0  0  0
  5 56  1  0  0  0  0
  6  7  1  0  0  0  0
  6 35  1  0  0  0  0
  6 36  1  0  0  0  0
  7  8  1  0  0  0  0
  7 37  1  0  0  0  0
  7 38  1  0  0  0  0
  8  9  1  0  0  0  0
  8 25  1  0  0  0  0
  9 14  1  0  0  0  0
  9 10  2  0  0  0  0
 10 11  1  0  0  0  0
 11 12  2  0  0  0  0
 11 39  1  0  0  0  0
 12 13  1  0  0  0  0
 13 17  1  0  0  0  0
 13 14  2  0  0  0  0
 14 15  1  0  0  0  0
 15 16  2  0  0  0  0
 16 17  1  0  0  0  0
 16 40  1  0  0  0  0
 17 18  1  0  0  0  0
 18 19  1  0  0  0  0
 18 41  1  0  0  0  0
 18 42  1  0  0  0  0
 19 24  1  0  0  0  0
 19 20  1  0  0  0  0
 19 22  1  0  0  0  0
 20 21  1  0  0  0  0
 20 43  1  0  0  0  0
 20 44  1  0  0  0  0
 21 45  1  0  0  0  0
 22 23  1  0  0  0  0
 22 46  1  0  0  0  0
 22 47  1  0  0  0  0
 23 24  1  0  0  0  0
 24 48  1  0  0  0  0
 24 49  1  0  0  0  0
 25 26  1  0  0  0  0
 25 27  1  0  0  0  0
 25 50  1  0  0  0  0
 26 51  1  0  0  0  0
 26 52  1  0  0  0  0
 26 53  1  0  0  0  0
 27 54  1  0  0  0  0
 27 55  1  0  0  0  0
M  CHG  1   5   1
M  END
> <s_m_source_file>
AV-unprocessed.smi

> <i_m_source_file_index>
79

> <i_lp_mmshare_version>
43012

> <i_f3d_flags>
0

> <s_epik_input>
W0NIM11bQ0BIXShbT0hdKVtDSDJdTjFbQ0gyXVtDSDJdTihbQ0BASF0oW0NIM10pW0NIMl0xKWMobltjSF1uMiljKGMyMyluW2NIXW4zW0NIMl1DNChbQ0gyXVtPSF0pW0NIMl1PW0NIMl00

> <s_epik_cmdline>
J2VwaWtfcHl0aG9uJywgJy1waCcsICc3LjAnLCAnLXRuJywgJzgnLCAnLW1hJywgJzIwMCcsICctbWV0YWxfYmluZGluZycsICctaW1hZScsICc8aW5maWxlLm1hZT4nLCAnLW9tYWUnLCAnPG91dGZpbGUubWFlPic=

> <r_lp_tautomer_probability>
1

> <r_epik_Ionization_Penalty>
0.00515943

> <r_epik_Ionization_Penalty_Charging>
0.00509693

> <r_epik_Ionization_Penalty_Neutral>
6.25007e-05

> <r_epik_State_Penalty>
-0

> <r_epik_Charging_Adjusted_Penalty>
0.00509693

> <i_epik_Tot_Q>
1

> <i_epik_Tot_abs_Q>
1

> <r_epik_Metal_State_Penalty>
-0

> <b_epik_Metal_Only>
0

> <s_lp_Force_Field>
OPLS_2005

> <r_lp_Energy>
50.645

> <b_lp_Chiralities_Consistent>
1

> <s_lp_Variant>
AV-unprocessed.smi:79-8

> <Gold.Version>
5.8.1

> <Gold.Id.Protein>
6NUR|6NUR_protein|mol2

> <Gold.PLP.Fitness>
51.7308

> <Gold.PLP.PLP>
-43.0431

> <Gold.PLP.part.hbond>
-6.2644

> <Gold.PLP.part.metal>
0.0000

> <Gold.PLP.part.buried>
-4.5068

> <Gold.PLP.part.nonpolar>
-31.4001

> <Gold.PLP.part.repulsive>
0.0327

> <Gold.PLP.ligand.clash>
0.0000

> <Gold.PLP.ligand.torsion>
0.7242

> <Gold.PLP.Chemscore.Hbond>
3.1185

> <Gold.PLP.Chemscore.CHOScore>
0.0000

> <Gold.PLP.Chemscore.Metal>
0.0000

> <Gold.Chemscore.Hbonds>
donor molecule, donor type, donor heavy atom, donor atom, acceptor molecule, acceptor atom, score
      L1  H     5    56       P1  8028  2.00
      P1  H  6896  6909       L1    12  1.00
      P1  H  6934  6947       L1    23  0.09

> <Gold.PLP.Chemscore.Internal.Correction>
0.7808

> <Gold.Rescore>
     Score         DG    S(hbond)    S(metal)    S(lipo)     H(rot)  DE(clash)    DE(int)     intcor
      8.15     -12.63       1.60        0.00      89.65       3.39       0.62       3.86       ----

> <Gold.Chemscore.Fitness>
8.1525

> <Gold.Chemscore.DG>
-12.6291

> <Gold.Chemscore.ZeroCoef>
-5.4800

> <Gold.Chemscore.Hbond>
1.5958

> <Gold.Chemscore.Metal>
0.0000

> <Gold.Chemscore.Lipo>
89.6532

> <Gold.Chemscore.Internal_Hbond>
0.0000

> <Gold.Chemscore.DEClash>
0.6180

> <Gold.Chemscore.DEInternal>
3.8585

> <Gold.Chemscore.Rot>
3.3868

> <Gold.Chemscore.Internal.Correction>
   9.000000E+99

> <Gold.Chemscore.Hbonds>
donor molecule, donor type, donor heavy atom, donor atom, acceptor molecule, acceptor atom, score
      L1  H     5    56       P1  8028  0.95
      P1  H  6896  6909       L1    12  0.90

> <Gold.Chemscore.Hbond.Weighted>
-5.3298

> <Gold.Chemscore.Metal.Weighted>
-0.0000

> <Gold.Chemscore.Lipo.Weighted>
-10.4894

> <Gold.Chemscore.Internal_Hbond.Weighted>
0.0000

> <Gold.Chemscore.DEClash.Weighted>
0.6180

> <Gold.Chemscore.DEInternal.Weighted>
3.8585

> <Gold.Chemscore.Rot.Weighted>
8.6701

> <Gold.Chemscore.Internal.Correction.Weighted>
   9.000000E+99

> <Gold.Protein.RotatedTorsions>
[ 6907 6896 6895 6894 ] final   77.23 input  -60.11 | X-H torsion
[ 7974 7965 7964 7962 ] final  -86.88 input  175.53 | X-H torsion
[ 8008 7997 7996 7995 ] final    0.03 input   59.86 | X-H torsion
[ 10167 10162 10161 10158 ] final  -43.97 input  -65.29 | X-H torsion
[ 10718 10713 10712 10709 ] final   71.17 input   66.30 | X-H torsion
[ 10763 10752 10751 10750 ] final  -27.11 input  -60.55 | X-H torsion
[ 11005 11000 10999 10996 ] final  -45.69 input  -57.11 | X-H torsion

> <Gold.Protein.ActiveResidues>
 VAL166  LYS551  ARG553  GLY616  TRP617  ASP618  TYR619  PRO620  LYS621  CYS622 
 ASP623  PHE694  ASN695  SER759  ASP760  ASP761  ALA762  ILE779  LEU786  VAL792 
 PHE793  MET794  SER795  GLU796  ALA797  LYS798  CYS799  TRP800  GLU811  SER814 

> <Gold.Protein.RotatedAtoms>
  152.5109  134.3848  159.9363 H   0  0  0  0  0  0  0  0  0  0  0  0  # atno 6907 bound_to 6896
  151.3806  133.3816  159.2717 H   0  0  0  0  0  0  0  0  0  0  0  0  # atno 6908 bound_to 6896
  150.9508  134.8928  159.7729 H   0  0  0  0  0  0  0  0  0  0  0  0  # atno 6909 bound_to 6896
  145.4740  140.9559  143.1901 H   0  0  0  0  0  0  0  0  0  0  0  0  # atno 7974 bound_to 7965
  154.6634  140.2596  155.7084 H   0  0  0  0  0  0  0  0  0  0  0  0  # atno 8008 bound_to 7997
  156.2628  140.2844  156.1037 H   0  0  0  0  0  0  0  0  0  0  0  0  # atno 8009 bound_to 7997
  155.1274  140.0378  157.2756 H   0  0  0  0  0  0  0  0  0  0  0  0  # atno 8010 bound_to 7997
  140.6914  143.2954  151.3428 H   0  0  0  0  0  0  0  0  0  0  0  0  # atno 10167 bound_to 10162
  157.6438  130.9514  150.0752 H   0  0  0  0  0  0  0  0  0  0  0  0  # atno 10718 bound_to 10713
  153.7269  135.6941  153.4999 H   0  0  0  0  0  0  0  0  0  0  0  0  # atno 10763 bound_to 10752
  153.2164  135.4385  155.0438 H   0  0  0  0  0  0  0  0  0  0  0  0  # atno 10764 bound_to 10752
  154.8266  135.3449  154.6800 H   0  0  0  0  0  0  0  0  0  0  0  0  # atno 10765 bound_to 10752
  141.0531  133.6735  156.3048 H   0  0  0  0  0  0  0  0  0  0  0  0  # atno 11005 bound_to 11000
  144.7928  139.6294  143.7106 LP  0  0  0  0  0  0  0  0  0  0  0  0  # atno 17320 bound_to 7965
  146.2380  139.5943  142.9511 LP  0  0  0  0  0  0  0  0  0  0  0  0  # atno 17321 bound_to 7965
  139.6321  144.0700  152.2485 LP  0  0  0  0  0  0  0  0  0  0  0  0  # atno 17342 bound_to 10162
  140.0178  144.6175  150.7592 LP  0  0  0  0  0  0  0  0  0  0  0  0  # atno 17343 bound_to 10162
  156.1744  130.3647  149.9120 LP  0  0  0  0  0  0  0  0  0  0  0  0  # atno 17370 bound_to 10713
  156.7088  130.8962  151.3607 LP  0  0  0  0  0  0  0  0  0  0  0  0  # atno 17371 bound_to 10713
  140.6016  134.5549  157.5518 LP  0  0  0  0  0  0  0  0  0  0  0  0  # atno 17394 bound_to 11000
  139.9367  134.7862  156.0784 LP  0  0  0  0  0  0  0  0  0  0  0  0  # atno 17395 bound_to 11000

$$$$
