AV-unprocessed.smi:3282|AV-procd|sdf|12561|dock1
  -GOLD-   2272018483D 1   1.00000     0.00000
 Structure written by MMmdl.
 34 35  0  0  0  0  0  0  0  0  1 V2000
  150.9792  140.3728  157.7152 C   0  0  0  0  0  0  0  0  0  0  0  0
  150.5342  141.2777  156.5549 C   0  0  0  0  0  0  0  0  0  0  0  0
  150.1508  140.5074  155.2802 C   0  0  0  0  0  0  0  0  0  0  0  0
  150.9659  139.7490  154.7526 O   0  0  0  0  0  0  0  0  0  0  0  0
  148.9144  140.6916  154.7720 N   0  0  0  0  0  0  0  0  0  0  0  0
  147.8812  141.5580  155.3358 C   0  0  0  0  0  0  0  0  0  0  0  0
  146.6107  141.2737  154.5344 C   0  0  0  0  0  0  0  0  0  0  0  0
  147.1092  140.7145  153.2022 C   0  0  2  0  0  0  0  0  0  0  0  0
  146.1739  139.7664  152.6058 N   0  0  0  0  0  0  0  0  0  0  0  0
  145.9772  138.5122  153.0368 C   0  0  0  0  0  0  0  0  0  0  0  0
  146.5817  138.0190  153.9897 O   0  0  0  0  0  0  0  0  0  0  0  0
  145.0487  137.8814  152.2986 N   0  0  0  0  0  0  0  0  0  0  0  0
  144.5642  136.5597  152.4667 C   0  0  0  0  0  0  0  0  0  0  0  0
  144.7708  135.7651  153.5182 N   0  0  0  0  0  0  0  0  0  0  0  0
  144.0943  134.5938  153.2097 C   0  0  0  0  0  0  0  0  0  0  0  0
  143.5119  134.7482  151.9778 C   0  0  0  0  0  0  0  0  0  0  0  0
  143.8023  135.9952  151.4928 O   0  0  0  0  0  0  0  0  0  0  0  0
  148.4388  140.0391  153.5547 C   0  0  0  0  0  0  0  0  0  0  0  0
  151.2452  140.9696  158.5878 H   0  0  0  0  0  0  0  0  0  0  0  0
  151.8528  139.7784  157.4448 H   0  0  0  0  0  0  0  0  0  0  0  0
  150.1845  139.6891  158.0155 H   0  0  0  0  0  0  0  0  0  0  0  0
  149.6796  141.8746  156.8744 H   0  0  0  0  0  0  0  0  0  0  0  0
  151.3404  141.9738  156.3213 H   0  0  0  0  0  0  0  0  0  0  0  0
  147.7214  141.3739  156.3990 H   0  0  0  0  0  0  0  0  0  0  0  0
  148.1818  142.5992  155.2109 H   0  0  0  0  0  0  0  0  0  0  0  0
  146.0193  140.5221  155.0598 H   0  0  0  0  0  0  0  0  0  0  0  0
  145.9852  142.1583  154.4110 H   0  0  0  0  0  0  0  0  0  0  0  0
  147.3067  141.5397  152.5152 H   0  0  0  0  0  0  0  0  0  0  0  0
  145.6356  140.0921  151.8162 H   0  0  0  0  0  0  0  0  0  0  0  0
  144.6374  138.4042  151.5396 H   0  0  0  0  0  0  0  0  0  0  0  0
  144.0790  133.7506  153.8843 H   0  0  0  0  0  0  0  0  0  0  0  0
  142.9019  134.1137  151.3519 H   0  0  0  0  0  0  0  0  0  0  0  0
  149.1550  140.1296  152.7364 H   0  0  0  0  0  0  0  0  0  0  0  0
  148.3018  138.9768  153.7652 H   0  0  0  0  0  0  0  0  0  0  0  0
  1  2  1  0  0  0  0
  1 19  1  0  0  0  0
  1 20  1  0  0  0  0
  1 21  1  0  0  0  0
  2  3  1  0  0  0  0
  2 22  1  0  0  0  0
  2 23  1  0  0  0  0
  3  4  2  0  0  0  0
  3  5  1  0  0  0  0
  5 18  1  0  0  0  0
  5  6  1  0  0  0  0
  6  7  1  0  0  0  0
  6 24  1  0  0  0  0
  6 25  1  0  0  0  0
  7  8  1  0  0  0  0
  7 26  1  0  0  0  0
  7 27  1  0  0  0  0
  8  9  1  0  0  0  0
  8 18  1  0  0  0  0
  8 28  1  0  0  0  0
  9 10  1  0  0  0  0
  9 29  1  0  0  0  0
 10 11  2  0  0  0  0
 10 12  1  0  0  0  0
 12 13  1  0  0  0  0
 12 30  1  0  0  0  0
 13 17  1  0  0  0  0
 13 14  2  0  0  0  0
 14 15  1  0  0  0  0
 15 16  2  0  0  0  0
 15 31  1  0  0  0  0
 16 17  1  0  0  0  0
 16 32  1  0  0  0  0
 18 33  1  0  0  0  0
 18 34  1  0  0  0  0
M  END
> <s_m_source_file>
AV-unprocessed.smi

> <i_m_source_file_index>
3282

> <i_lp_mmshare_version>
43012

> <i_f3d_flags>
0

> <s_epik_input>
W0NIM11bQ0gyXUMoPU8pTjFbQ0gyXVtDSDJdW0NASF0oW0NIMl0xKVtOSF1DKD1PKVtOSF1jMm5bY0hdW2NIXW8y

> <s_epik_cmdline>
J2VwaWtfcHl0aG9uJywgJy1waCcsICc3LjAnLCAnLXRuJywgJzgnLCAnLW1hJywgJzIwMCcsICctbWV0YWxfYmluZGluZycsICctaW1hZScsICc8aW5maWxlLm1hZT4nLCAnLW9tYWUnLCAnPG91dGZpbGUubWFlPic=

> <r_lp_tautomer_probability>
0.785861

> <r_epik_Ionization_Penalty>
4.35681e-05

> <r_epik_Ionization_Penalty_Charging>
0

> <r_epik_Ionization_Penalty_Neutral>
4.35681e-05

> <r_epik_State_Penalty>
0.0212547

> <r_epik_Charging_Adjusted_Penalty>
0.0212547

> <i_epik_Tot_Q>
0

> <i_epik_Tot_abs_Q>
0

> <r_epik_Metal_State_Penalty>
0.00779955

> <b_epik_Metal_Only>
0

> <s_lp_Force_Field>
OPLS_2005

> <r_lp_Energy>
25.4049

> <b_lp_Chiralities_Consistent>
1

> <s_lp_Variant>
AV-unprocessed.smi:3282-2

> <Gold.Version>
5.8.1

> <Gold.Id.Protein>
6NUR|6NUR_protein|mol2

> <Gold.PLP.Fitness>
35.8259

> <Gold.PLP.PLP>
-24.9832

> <Gold.PLP.part.hbond>
-4.0000

> <Gold.PLP.part.metal>
0.0000

> <Gold.PLP.part.buried>
-0.6805

> <Gold.PLP.part.nonpolar>
-22.6915

> <Gold.PLP.part.repulsive>
0.8146

> <Gold.PLP.ligand.clash>
0.0000

> <Gold.PLP.ligand.torsion>
0.2492

> <Gold.PLP.Chemscore.Hbond>
2.1716

> <Gold.PLP.Chemscore.CHOScore>
1.6059

> <Gold.PLP.Chemscore.Metal>
0.0000

> <Gold.Chemscore.Hbonds>
donor molecule, donor type, donor heavy atom, donor atom, acceptor molecule, acceptor atom, score
      L1  H     9    29       P1 10175  0.17
      L1  H    12    30       P1 10171  1.00
      P1  H  7989  7998       L1     4  1.00
      L1  C    15    31       P1 10957  0.83
      L1  C    16    32       P1 10186  0.77

> <Gold.PLP.Chemscore.Internal.Correction>
0.0087

> <Gold.Rescore>
     Score         DG    S(hbond)    S(metal)    S(lipo)     H(rot)  DE(clash)    DE(int)     intcor
     11.02     -13.71       2.21        0.00      36.09       1.32       0.03       2.66       ----

> <Gold.Chemscore.Fitness>
11.0215

> <Gold.Chemscore.DG>
-13.7112

> <Gold.Chemscore.ZeroCoef>
-5.4800

> <Gold.Chemscore.Hbond>
2.2119

> <Gold.Chemscore.Metal>
0.0000

> <Gold.Chemscore.Lipo>
36.0900

> <Gold.Chemscore.Internal_Hbond>
0.0000

> <Gold.Chemscore.DEClash>
0.0312

> <Gold.Chemscore.DEInternal>
2.6585

> <Gold.Chemscore.Rot>
1.3199

> <Gold.Chemscore.Internal.Correction>
   9.000000E+99

> <Gold.Chemscore.Hbonds>
donor molecule, donor type, donor heavy atom, donor atom, acceptor molecule, acceptor atom, score
      L1  H     9    29       P1 10175  0.06
      L1  H    12    30       P1 10171  0.98
      P1  H  7989  7998       L1     4  0.26

> <Gold.Chemscore.Hbond.Weighted>
-7.3876

> <Gold.Chemscore.Metal.Weighted>
-0.0000

> <Gold.Chemscore.Lipo.Weighted>
-4.2225

> <Gold.Chemscore.Internal_Hbond.Weighted>
0.0000

> <Gold.Chemscore.DEClash.Weighted>
0.0312

> <Gold.Chemscore.DEInternal.Weighted>
2.6585

> <Gold.Chemscore.Rot.Weighted>
3.3789

> <Gold.Chemscore.Internal.Correction.Weighted>
   9.000000E+99

> <Gold.Protein.RotatedTorsions>
[ 6907 6896 6895 6894 ] final -155.06 input  -60.11 | X-H torsion
[ 7974 7965 7964 7962 ] final -117.90 input  175.53 | X-H torsion
[ 8008 7997 7996 7995 ] final  -43.38 input   59.86 | X-H torsion
[ 10167 10162 10161 10158 ] final   -1.72 input  -65.29 | X-H torsion
[ 10718 10713 10712 10709 ] final  100.22 input   66.30 | X-H torsion
[ 10763 10752 10751 10750 ] final   80.28 input  -60.55 | X-H torsion
[ 11005 11000 10999 10996 ] final  -75.16 input  -57.11 | X-H torsion

> <Gold.Protein.ActiveResidues>
 VAL166  LYS551  ARG553  GLY616  TRP617  ASP618  TYR619  PRO620  LYS621  CYS622 
 ASP623  PHE694  ASN695  SER759  ASP760  ASP761  ALA762  ILE779  LEU786  VAL792 
 PHE793  MET794  SER795  GLU796  ALA797  LYS798  CYS799  TRP800  GLU811  SER814 

> <Gold.Protein.RotatedAtoms>
  151.2669  133.4274  159.2618 H   0  0  0  0  0  0  0  0  0  0  0  0  # atno 6907 bound_to 6896
  151.0480  134.9653  159.8207 H   0  0  0  0  0  0  0  0  0  0  0  0  # atno 6908 bound_to 6896
  152.5377  134.2624  159.8993 H   0  0  0  0  0  0  0  0  0  0  0  0  # atno 6909 bound_to 6896
  145.0800  140.8419  143.4045 H   0  0  0  0  0  0  0  0  0  0  0  0  # atno 7974 bound_to 7965
  154.3997  140.1449  156.3509 H   0  0  0  0  0  0  0  0  0  0  0  0  # atno 8008 bound_to 7997
  155.8270  140.3467  155.5528 H   0  0  0  0  0  0  0  0  0  0  0  0  # atno 8009 bound_to 7997
  155.8228  140.0900  157.1829 H   0  0  0  0  0  0  0  0  0  0  0  0  # atno 8010 bound_to 7997
  140.6822  143.6741  150.8160 H   0  0  0  0  0  0  0  0  0  0  0  0  # atno 10167 bound_to 10162
  157.6859  131.0692  150.5067 H   0  0  0  0  0  0  0  0  0  0  0  0  # atno 10718 bound_to 10713
  153.1021  135.4808  154.8885 H   0  0  0  0  0  0  0  0  0  0  0  0  # atno 10763 bound_to 10752
  154.7390  135.3078  154.8764 H   0  0  0  0  0  0  0  0  0  0  0  0  # atno 10764 bound_to 10752
  153.9378  135.6837  153.4798 H   0  0  0  0  0  0  0  0  0  0  0  0  # atno 10765 bound_to 10752
  141.1642  133.6936  156.7474 H   0  0  0  0  0  0  0  0  0  0  0  0  # atno 11005 bound_to 11000
  145.1190  139.2706  143.5598 LP  0  0  0  0  0  0  0  0  0  0  0  0  # atno 17320 bound_to 7965
  146.3531  140.0808  142.8618 LP  0  0  0  0  0  0  0  0  0  0  0  0  # atno 17321 bound_to 7965
  140.0443  143.5314  152.2703 LP  0  0  0  0  0  0  0  0  0  0  0  0  # atno 17342 bound_to 10162
  139.6152  144.7618  151.2861 LP  0  0  0  0  0  0  0  0  0  0  0  0  # atno 17343 bound_to 10162
  156.5386  130.4202  149.6165 LP  0  0  0  0  0  0  0  0  0  0  0  0  # atno 17370 bound_to 10713
  156.3005  130.7174  151.2045 LP  0  0  0  0  0  0  0  0  0  0  0  0  # atno 17371 bound_to 10713
  140.2629  134.8452  157.3775 LP  0  0  0  0  0  0  0  0  0  0  0  0  # atno 17394 bound_to 11000
  140.1594  134.4748  155.7905 LP  0  0  0  0  0  0  0  0  0  0  0  0  # atno 17395 bound_to 11000

$$$$
