AV-unprocessed.smi:2217|AV-procd|sdf|8973|dock2
  -GOLD-   2272012183D 1   1.00000     0.00000
 Structure written by MMmdl.
 45 48  0  0  0  0  0  0  0  0  1 V2000
  150.1978  129.6943  154.5728 C   0  0  0  0  0  0  0  0  0  0  0  0
  149.9946  131.1948  154.5884 C   0  0  0  0  0  0  0  0  0  0  0  0
  149.1974  131.8312  153.6185 C   0  0  0  0  0  0  0  0  0  0  0  0
  149.0432  133.2299  153.6773 C   0  0  0  0  0  0  0  0  0  0  0  0
  149.6899  133.9627  154.6982 C   0  0  0  0  0  0  0  0  0  0  0  0
  149.4560  135.3699  154.6560 N   0  0  0  0  0  0  0  0  0  0  0  0
  149.3378  136.2853  155.6420 C   0  0  0  0  0  0  0  0  0  0  0  0
  149.4286  135.9619  156.8251 O   0  0  0  0  0  0  0  0  0  0  0  0
  149.1161  137.5476  155.2474 N   0  0  0  0  0  0  0  0  0  0  0  0
  148.9808  138.7155  156.1163 C   0  0  1  0  0  0  0  0  0  0  0  0
  150.3468  139.3009  156.5443 C   0  0  1  0  0  0  0  0  0  0  0  0
  151.6501  138.5654  156.3444 C   0  0  0  0  0  0  0  0  0  0  0  0
  152.1793  139.1585  155.0349 C   0  0  0  0  0  0  0  0  0  0  0  0
  151.0335  139.7168  154.3952 O   0  0  0  0  0  0  0  0  0  0  0  0
  150.2107  140.2981  155.4041 C   0  0  1  0  0  0  0  0  0  0  0  0
  148.6985  140.0057  155.3106 C   0  0  0  0  0  0  0  0  0  0  0  0
  147.7965  141.0465  155.9724 C   0  0  0  0  0  0  0  0  0  0  0  0
  147.3881  142.0515  154.8899 C   0  0  0  0  0  0  0  0  0  0  0  0
  147.6302  141.3444  153.5528 C   0  0  0  0  0  0  0  0  0  0  0  0
  148.0753  139.9270  153.9166 C   0  0  0  0  0  0  0  0  0  0  0  0
  150.4544  133.3355  155.6286 N   0  0  0  0  0  0  0  0  0  0  0  0
  150.6025  131.9957  155.5735 C   0  0  0  0  0  0  0  0  0  0  0  0
  149.3986  129.1963  154.0231 H   0  0  0  0  0  0  0  0  0  0  0  0
  150.2084  129.2976  155.5883 H   0  0  0  0  0  0  0  0  0  0  0  0
  151.1475  129.4483  154.0973 H   0  0  0  0  0  0  0  0  0  0  0  0
  148.7109  131.2607  152.8411 H   0  0  0  0  0  0  0  0  0  0  0  0
  148.4335  133.7322  152.9403 H   0  0  0  0  0  0  0  0  0  0  0  0
  149.3371  135.7437  153.7257 H   0  0  0  0  0  0  0  0  0  0  0  0
  149.0552  137.7192  154.2532 H   0  0  0  0  0  0  0  0  0  0  0  0
  148.2978  138.5796  156.9565 H   0  0  0  0  0  0  0  0  0  0  0  0
  150.2667  139.7991  157.5118 H   0  0  0  0  0  0  0  0  0  0  0  0
  152.3498  138.7370  157.1627 H   0  0  0  0  0  0  0  0  0  0  0  0
  151.5065  137.4881  156.2615 H   0  0  0  0  0  0  0  0  0  0  0  0
  152.8941  139.9571  155.2387 H   0  0  0  0  0  0  0  0  0  0  0  0
  152.6671  138.4159  154.4032 H   0  0  0  0  0  0  0  0  0  0  0  0
  150.4927  141.3190  155.6655 H   0  0  0  0  0  0  0  0  0  0  0  0
  146.9025  140.5627  156.3685 H   0  0  0  0  0  0  0  0  0  0  0  0
  148.2796  141.5447  156.8136 H   0  0  0  0  0  0  0  0  0  0  0  0
  146.3473  142.3548  155.0067 H   0  0  0  0  0  0  0  0  0  0  0  0
  148.0012  142.9513  154.9513 H   0  0  0  0  0  0  0  0  0  0  0  0
  146.7436  141.3414  152.9181 H   0  0  0  0  0  0  0  0  0  0  0  0
  148.4249  141.8537  153.0063 H   0  0  0  0  0  0  0  0  0  0  0  0
  148.7565  139.5206  153.1683 H   0  0  0  0  0  0  0  0  0  0  0  0
  147.2043  139.2705  153.9372 H   0  0  0  0  0  0  0  0  0  0  0  0
  151.2236  131.5536  156.3387 H   0  0  0  0  0  0  0  0  0  0  0  0
  1  2  1  0  0  0  0
  1 23  1  0  0  0  0
  1 24  1  0  0  0  0
  1 25  1  0  0  0  0
  2 22  1  0  0  0  0
  2  3  2  0  0  0  0
  3  4  1  0  0  0  0
  3 26  1  0  0  0  0
  4  5  2  0  0  0  0
  4 27  1  0  0  0  0
  5  6  1  0  0  0  0
  5 21  1  0  0  0  0
  6  7  1  0  0  0  0
  6 28  1  0  0  0  0
  7  8  2  0  0  0  0
  7  9  1  0  0  0  0
  9 10  1  0  0  0  0
  9 29  1  0  0  0  0
 10 16  1  0  0  0  0
 10 11  1  0  0  0  0
 10 30  1  0  0  0  0
 11 15  1  0  0  0  0
 11 12  1  0  0  0  0
 11 31  1  0  0  0  0
 12 13  1  0  0  0  0
 12 32  1  0  0  0  0
 12 33  1  0  0  0  0
 13 14  1  0  0  0  0
 13 34  1  0  0  0  0
 13 35  1  0  0  0  0
 14 15  1  0  0  0  0
 15 16  1  0  0  0  0
 15 36  1  0  0  0  0
 16 20  1  0  0  0  0
 16 17  1  0  0  0  0
 17 18  1  0  0  0  0
 17 37  1  0  0  0  0
 17 38  1  0  0  0  0
 18 19  1  0  0  0  0
 18 39  1  0  0  0  0
 18 40  1  0  0  0  0
 19 20  1  0  0  0  0
 19 41  1  0  0  0  0
 19 42  1  0  0  0  0
 20 43  1  0  0  0  0
 20 44  1  0  0  0  0
 21 22  2  0  0  0  0
 22 45  1  0  0  0  0
M  END
> <s_m_source_file>
AV-unprocessed.smi

> <i_m_source_file_index>
2217

> <i_lp_mmshare_version>
43012

> <i_f3d_flags>
0

> <s_epik_input>
W0NIM11jMVtjSF1bY0hdYyhuW2NIXTEpW05IXUMoPU8pW05IXVtDQEBIXTJbQ0BASF0oW0NIMl1bQ0gyXU8zKVtDQEhdM0MyNFtDSDJdW0NIMl1bQ0gyXVtDSDJdNA==

> <s_epik_cmdline>
J2VwaWtfcHl0aG9uJywgJy1waCcsICc3LjAnLCAnLXRuJywgJzgnLCAnLW1hJywgJzIwMCcsICctbWV0YWxfYmluZGluZycsICctaW1hZScsICc8aW5maWxlLm1hZT4nLCAnLW9tYWUnLCAnPG91dGZpbGUubWFlPic=

> <r_lp_tautomer_probability>
1

> <r_epik_Ionization_Penalty>
6.14796e-05

> <r_epik_Ionization_Penalty_Charging>
0

> <r_epik_Ionization_Penalty_Neutral>
6.14796e-05

> <r_epik_State_Penalty>
-0

> <r_epik_Charging_Adjusted_Penalty>
0

> <i_epik_Tot_Q>
0

> <i_epik_Tot_abs_Q>
0

> <r_epik_Metal_State_Penalty>
-0

> <b_epik_Metal_Only>
0

> <s_lp_Force_Field>
OPLS_2005

> <r_lp_Energy>
58.8424

> <b_lp_Chiralities_Consistent>
1

> <s_lp_Variant>
AV-unprocessed.smi:2217-6

> <Gold.Version>
5.8.1

> <Gold.Id.Protein>
6NUR|6NUR_protein|mol2

> <Gold.PLP.Fitness>
38.3190

> <Gold.PLP.PLP>
-32.9018

> <Gold.PLP.part.hbond>
-2.0000

> <Gold.PLP.part.metal>
0.0000

> <Gold.PLP.part.buried>
-3.0132

> <Gold.PLP.part.nonpolar>
-27.5389

> <Gold.PLP.part.repulsive>
0.1504

> <Gold.PLP.ligand.clash>
0.0000

> <Gold.PLP.ligand.torsion>
0.3940

> <Gold.PLP.Chemscore.Hbond>
2.0000

> <Gold.PLP.Chemscore.CHOScore>
0.0000

> <Gold.PLP.Chemscore.Metal>
0.0000

> <Gold.Chemscore.Hbonds>
donor molecule, donor type, donor heavy atom, donor atom, acceptor molecule, acceptor atom, score
      L1  H     6    28       P1  7948  1.00
      P1  H  7989  7998       L1    14  1.00

> <Gold.PLP.Chemscore.Internal.Correction>
0.2053

> <Gold.Rescore>
     Score         DG    S(hbond)    S(metal)    S(lipo)     H(rot)  DE(clash)    DE(int)     intcor
     15.71     -17.40       1.65        0.00      76.74       1.00       1.28       0.41       ----

> <Gold.Chemscore.Fitness>
15.7116

> <Gold.Chemscore.DG>
-17.4021

> <Gold.Chemscore.ZeroCoef>
-5.4800

> <Gold.Chemscore.Hbond>
1.6478

> <Gold.Chemscore.Metal>
0.0000

> <Gold.Chemscore.Lipo>
76.7396

> <Gold.Chemscore.Internal_Hbond>
0.0000

> <Gold.Chemscore.DEClash>
1.2765

> <Gold.Chemscore.DEInternal>
0.4140

> <Gold.Chemscore.Rot>
1.0000

> <Gold.Chemscore.Internal.Correction>
   9.000000E+99

> <Gold.Chemscore.Hbonds>
donor molecule, donor type, donor heavy atom, donor atom, acceptor molecule, acceptor atom, score
      L1  H     6    28       P1  7948  0.55
      P1  H  7989  7998       L1    14  0.29

> <Gold.Chemscore.Hbond.Weighted>
-5.5036

> <Gold.Chemscore.Metal.Weighted>
-0.0000

> <Gold.Chemscore.Lipo.Weighted>
-8.9785

> <Gold.Chemscore.Internal_Hbond.Weighted>
0.0000

> <Gold.Chemscore.DEClash.Weighted>
1.2765

> <Gold.Chemscore.DEInternal.Weighted>
0.4140

> <Gold.Chemscore.Rot.Weighted>
2.5600

> <Gold.Chemscore.Internal.Correction.Weighted>
   9.000000E+99

> <Gold.Protein.RotatedTorsions>
[ 6907 6896 6895 6894 ] final   29.23 input  -60.11 | X-H torsion
[ 7974 7965 7964 7962 ] final -159.03 input  175.53 | X-H torsion
[ 8008 7997 7996 7995 ] final -138.30 input   59.86 | X-H torsion
[ 10167 10162 10161 10158 ] final -142.51 input  -65.29 | X-H torsion
[ 10718 10713 10712 10709 ] final -172.64 input   66.30 | X-H torsion
[ 10763 10752 10751 10750 ] final   85.82 input  -60.55 | X-H torsion
[ 11005 11000 10999 10996 ] final   80.83 input  -57.11 | X-H torsion

> <Gold.Protein.ActiveResidues>
 VAL166  LYS551  ARG553  GLY616  TRP617  ASP618  TYR619  PRO620  LYS621  CYS622 
 ASP623  PHE694  ASN695  SER759  ASP760  ASP761  ALA762  ILE779  LEU786  VAL792 
 PHE793  MET794  SER795  GLU796  ALA797  LYS798  CYS799  TRP800  GLU811  SER814 

> <Gold.Protein.RotatedAtoms>
  152.0285  134.9781  160.0571 H   0  0  0  0  0  0  0  0  0  0  0  0  # atno 6907 bound_to 6896
  152.1267  133.4379  159.4709 H   0  0  0  0  0  0  0  0  0  0  0  0  # atno 6908 bound_to 6896
  150.6853  134.2388  159.4507 H   0  0  0  0  0  0  0  0  0  0  0  0  # atno 6909 bound_to 6896
  144.7481  140.3742  143.6069 H   0  0  0  0  0  0  0  0  0  0  0  0  # atno 7974 bound_to 7965
  155.4260  140.0522  157.3022 H   0  0  0  0  0  0  0  0  0  0  0  0  # atno 8008 bound_to 7997
  154.4881  140.2109  155.9568 H   0  0  0  0  0  0  0  0  0  0  0  0  # atno 8009 bound_to 7997
  156.1304  140.3173  155.8345 H   0  0  0  0  0  0  0  0  0  0  0  0  # atno 8010 bound_to 7997
  139.8082  143.7739  152.2662 H   0  0  0  0  0  0  0  0  0  0  0  0  # atno 10167 bound_to 10162
  156.7586  130.9405  151.3117 H   0  0  0  0  0  0  0  0  0  0  0  0  # atno 10718 bound_to 10713
  153.1511  135.4603  154.9638 H   0  0  0  0  0  0  0  0  0  0  0  0  # atno 10763 bound_to 10752
  154.7826  135.3193  154.7960 H   0  0  0  0  0  0  0  0  0  0  0  0  # atno 10764 bound_to 10752
  153.8465  135.6925  153.4851 H   0  0  0  0  0  0  0  0  0  0  0  0  # atno 10765 bound_to 10752
  139.9120  134.7950  156.1961 H   0  0  0  0  0  0  0  0  0  0  0  0  # atno 11005 bound_to 11000
  145.7045  139.1669  143.2574 LP  0  0  0  0  0  0  0  0  0  0  0  0  # atno 17320 bound_to 7965
  146.1391  140.7082  142.9375 LP  0  0  0  0  0  0  0  0  0  0  0  0  # atno 17321 bound_to 7965
  139.7880  144.7420  150.9994 LP  0  0  0  0  0  0  0  0  0  0  0  0  # atno 17342 bound_to 10162
  140.7818  143.4472  151.0466 LP  0  0  0  0  0  0  0  0  0  0  0  0  # atno 17343 bound_to 10162
  157.6745  130.9081  150.0117 LP  0  0  0  0  0  0  0  0  0  0  0  0  # atno 17370 bound_to 10713
  156.1354  130.3643  149.9665 LP  0  0  0  0  0  0  0  0  0  0  0  0  # atno 17371 bound_to 10713
  141.0554  133.6868  156.1850 LP  0  0  0  0  0  0  0  0  0  0  0  0  # atno 17394 bound_to 11000
  140.6746  134.4832  157.5588 LP  0  0  0  0  0  0  0  0  0  0  0  0  # atno 17395 bound_to 11000

$$$$
