AV-unprocessed.smi:2245|AV-procd|sdf|9076|dock3
  -GOLD-   2272012283D 1   1.00000     0.00000
 Structure written by MMmdl.
 44 45  0  0  0  0  0  0  0  0  1 V2000
  153.5249  138.3098  154.7913 C   0  0  0  0  0  0  0  0  0  0  0  0
  152.1446  138.9164  154.9342 C   0  0  0  0  0  0  0  0  0  0  0  0
  151.9207  140.0122  155.7896 C   0  0  0  0  0  0  0  0  0  0  0  0
  150.6132  140.5283  155.8804 C   0  0  0  0  0  0  0  0  0  0  0  0
  150.3007  141.7001  156.7869 C   0  0  0  0  0  0  0  0  0  0  0  0
  149.5709  140.0204  155.1886 N   0  0  0  0  0  0  0  0  0  0  0  0
  149.7750  138.9652  154.3617 C   0  0  0  0  0  0  0  0  0  0  0  0
  148.7453  138.3487  153.6032 N   0  0  0  0  0  0  0  0  0  0  0  0
  147.4167  138.5251  153.7093 C   0  0  0  0  0  0  0  0  0  0  0  0
  146.8613  139.3441  154.4424 O   0  0  0  0  0  0  0  0  0  0  0  0
  146.7521  137.6852  152.9043 N   0  0  0  0  0  0  0  0  0  0  0  0
  145.3003  137.5877  152.8210 C   0  0  0  0  0  0  0  0  0  0  0  0
  144.8860  136.4105  151.9240 C   0  0  2  0  0  0  0  0  0  0  0  0
  143.4394  135.9438  152.1017 C   0  0  0  0  0  0  0  0  0  0  0  0
  143.5197  134.4134  152.1167 C   0  0  0  0  0  0  0  0  0  0  0  0
  144.8452  134.1086  151.5887 N   0  0  0  0  0  0  0  0  0  0  0  0
  145.3216  132.7710  151.9344 C   0  0  0  0  0  0  0  0  0  0  0  0
  144.9116  131.6996  150.9054 C   0  0  0  0  0  0  0  0  0  0  0  0
  145.6564  131.8532  149.8113 F   0  0  0  0  0  0  0  0  0  0  0  0
  145.1115  130.4686  151.3754 F   0  0  0  0  0  0  0  0  0  0  0  0
  143.6292  131.8417  150.5686 F   0  0  0  0  0  0  0  0  0  0  0  0
  145.6958  135.1386  152.1662 C   0  0  0  0  0  0  0  0  0  0  0  0
  151.0561  138.3887  154.2111 C   0  0  0  0  0  0  0  0  0  0  0  0
  154.2423  138.7950  155.4537 H   0  0  0  0  0  0  0  0  0  0  0  0
  153.8796  138.4165  153.7659 H   0  0  0  0  0  0  0  0  0  0  0  0
  153.4983  137.2481  155.0375 H   0  0  0  0  0  0  0  0  0  0  0  0
  152.7281  140.4443  156.3625 H   0  0  0  0  0  0  0  0  0  0  0  0
  151.2123  142.2101  157.0993 H   0  0  0  0  0  0  0  0  0  0  0  0
  149.7776  141.3561  157.6794 H   0  0  0  0  0  0  0  0  0  0  0  0
  149.6664  142.4242  156.2742 H   0  0  0  0  0  0  0  0  0  0  0  0
  149.0545  137.6618  152.9317 H   0  0  0  0  0  0  0  0  0  0  0  0
  147.2855  137.0494  152.3297 H   0  0  0  0  0  0  0  0  0  0  0  0
  144.8784  137.4474  153.8178 H   0  0  0  0  0  0  0  0  0  0  0  0
  144.9000  138.5258  152.4342 H   0  0  0  0  0  0  0  0  0  0  0  0
  145.0272  136.6984  150.8804 H   0  0  0  0  0  0  0  0  0  0  0  0
  142.9988  136.3055  153.0317 H   0  0  0  0  0  0  0  0  0  0  0  0
  142.8175  136.3017  151.2806 H   0  0  0  0  0  0  0  0  0  0  0  0
  143.4329  134.0508  153.1424 H   0  0  0  0  0  0  0  0  0  0  0  0
  142.7285  133.9552  151.5231 H   0  0  0  0  0  0  0  0  0  0  0  0
  146.4114  132.8057  151.9708 H   0  0  0  0  0  0  0  0  0  0  0  0
  144.9858  132.4919  152.9339 H   0  0  0  0  0  0  0  0  0  0  0  0
  146.6772  135.1710  151.6915 H   0  0  0  0  0  0  0  0  0  0  0  0
  145.8320  134.9640  153.2352 H   0  0  0  0  0  0  0  0  0  0  0  0
  151.2052  137.5466  153.5505 H   0  0  0  0  0  0  0  0  0  0  0  0
  1  2  1  0  0  0  0
  1 24  1  0  0  0  0
  1 25  1  0  0  0  0
  1 26  1  0  0  0  0
  2 23  1  0  0  0  0
  2  3  2  0  0  0  0
  3  4  1  0  0  0  0
  3 27  1  0  0  0  0
  4  5  1  0  0  0  0
  4  6  2  0  0  0  0
  5 28  1  0  0  0  0
  5 29  1  0  0  0  0
  5 30  1  0  0  0  0
  6  7  1  0  0  0  0
  7  8  1  0  0  0  0
  7 23  2  0  0  0  0
  8  9  1  0  0  0  0
  8 31  1  0  0  0  0
  9 10  2  0  0  0  0
  9 11  1  0  0  0  0
 11 12  1  0  0  0  0
 11 32  1  0  0  0  0
 12 13  1  0  0  0  0
 12 33  1  0  0  0  0
 12 34  1  0  0  0  0
 13 22  1  0  0  0  0
 13 14  1  0  0  0  0
 13 35  1  0  0  0  0
 14 15  1  0  0  0  0
 14 36  1  0  0  0  0
 14 37  1  0  0  0  0
 15 16  1  0  0  0  0
 15 38  1  0  0  0  0
 15 39  1  0  0  0  0
 16 17  1  0  0  0  0
 16 22  1  0  0  0  0
 17 18  1  0  0  0  0
 17 40  1  0  0  0  0
 17 41  1  0  0  0  0
 18 19  1  0  0  0  0
 18 20  1  0  0  0  0
 18 21  1  0  0  0  0
 22 42  1  0  0  0  0
 22 43  1  0  0  0  0
 23 44  1  0  0  0  0
M  END
> <s_m_source_file>
AV-unprocessed.smi

> <i_m_source_file_index>
2245

> <i_lp_mmshare_version>
43012

> <i_f3d_flags>
0

> <s_epik_input>
W0NIM11jMVtjSF1jKFtDSDNdKW5jKFtjSF0xKVtOSF1DKD1PKVtOSF1bQ0gyXVtDQEBIXTJbQ0gyXVtDSDJdTihbQ0gyXTIpW0NIMl1DKEYpKEYpRg==

> <s_epik_cmdline>
J2VwaWtfcHl0aG9uJywgJy1waCcsICc3LjAnLCAnLXRuJywgJzgnLCAnLW1hJywgJzIwMCcsICctbWV0YWxfYmluZGluZycsICctaW1hZScsICc8aW5maWxlLm1hZT4nLCAnLW9tYWUnLCAnPG91dGZpbGUubWFlPic=

> <r_epik_Ionization_Penalty>
0.252219

> <r_epik_Ionization_Penalty_Charging>
0

> <r_epik_Ionization_Penalty_Neutral>
0.252219

> <r_epik_State_Penalty>
0.24335

> <r_epik_Charging_Adjusted_Penalty>
0.24335

> <i_epik_Tot_Q>
0

> <i_epik_Tot_abs_Q>
0

> <r_epik_Metal_State_Penalty>
0.243337

> <b_epik_Metal_Only>
0

> <s_lp_Force_Field>
OPLS_2005

> <r_lp_Energy>
29.2312

> <b_lp_Chiralities_Consistent>
1

> <s_lp_Variant>
AV-unprocessed.smi:2245-1

> <Gold.Version>
5.8.1

> <Gold.Id.Protein>
6NUR|6NUR_protein|mol2

> <Gold.PLP.Fitness>
50.3676

> <Gold.PLP.PLP>
-45.3241

> <Gold.PLP.part.hbond>
-2.9805

> <Gold.PLP.part.metal>
0.0000

> <Gold.PLP.part.buried>
-5.2119

> <Gold.PLP.part.nonpolar>
-39.2873

> <Gold.PLP.part.repulsive>
0.3724

> <Gold.PLP.ligand.clash>
0.0000

> <Gold.PLP.ligand.torsion>
0.6673

> <Gold.PLP.Chemscore.Hbond>
2.0000

> <Gold.PLP.Chemscore.CHOScore>
0.0000

> <Gold.PLP.Chemscore.Metal>
0.0000

> <Gold.Chemscore.Hbonds>
donor molecule, donor type, donor heavy atom, donor atom, acceptor molecule, acceptor atom, score
      L1  H     8    31       P1  7948  1.00
      L1  H    11    32       P1  7948  1.00

> <Gold.PLP.Chemscore.Internal.Correction>
0.3782

> <Gold.Rescore>
     Score         DG    S(hbond)    S(metal)    S(lipo)     H(rot)  DE(clash)    DE(int)     intcor
     15.97     -17.78       1.92        0.00      84.95       1.58       0.08       1.73       ----

> <Gold.Chemscore.Fitness>
15.9736

> <Gold.Chemscore.DG>
-17.7829

> <Gold.Chemscore.ZeroCoef>
-5.4800

> <Gold.Chemscore.Hbond>
1.9209

> <Gold.Chemscore.Metal>
0.0000

> <Gold.Chemscore.Lipo>
84.9451

> <Gold.Chemscore.Internal_Hbond>
0.0000

> <Gold.Chemscore.DEClash>
0.0805

> <Gold.Chemscore.DEInternal>
1.7288

> <Gold.Chemscore.Rot>
1.5826

> <Gold.Chemscore.Internal.Correction>
   9.000000E+99

> <Gold.Chemscore.Hbonds>
donor molecule, donor type, donor heavy atom, donor atom, acceptor molecule, acceptor atom, score
      L1  H     8    31       P1  7948  0.99
      L1  H    11    32       P1  7948  0.95

> <Gold.Chemscore.Hbond.Weighted>
-6.4158

> <Gold.Chemscore.Metal.Weighted>
-0.0000

> <Gold.Chemscore.Lipo.Weighted>
-9.9386

> <Gold.Chemscore.Internal_Hbond.Weighted>
0.0000

> <Gold.Chemscore.DEClash.Weighted>
0.0805

> <Gold.Chemscore.DEInternal.Weighted>
1.7288

> <Gold.Chemscore.Rot.Weighted>
4.0515

> <Gold.Chemscore.Internal.Correction.Weighted>
   9.000000E+99

> <Gold.Protein.RotatedTorsions>
[ 6907 6896 6895 6894 ] final   -7.93 input  -60.11 | X-H torsion
[ 7974 7965 7964 7962 ] final   48.00 input  175.53 | X-H torsion
[ 8008 7997 7996 7995 ] final  108.07 input   59.86 | X-H torsion
[ 10167 10162 10161 10158 ] final   84.15 input  -65.29 | X-H torsion
[ 10718 10713 10712 10709 ] final  -55.58 input   66.30 | X-H torsion
[ 10763 10752 10751 10750 ] final   83.87 input  -60.55 | X-H torsion
[ 11005 11000 10999 10996 ] final  -51.14 input  -57.11 | X-H torsion

> <Gold.Protein.ActiveResidues>
 VAL166  LYS551  ARG553  GLY616  TRP617  ASP618  TYR619  PRO620  LYS621  CYS622 
 ASP623  PHE694  ASN695  SER759  ASP760  ASP761  ALA762  ILE779  LEU786  VAL792 
 PHE793  MET794  SER795  GLU796  ALA797  LYS798  CYS799  TRP800  GLU811  SER814 

> <Gold.Protein.RotatedAtoms>
  151.4417  135.1021  159.9671 H   0  0  0  0  0  0  0  0  0  0  0  0  # atno 6907 bound_to 6896
  152.4920  133.8522  159.7218 H   0  0  0  0  0  0  0  0  0  0  0  0  # atno 6908 bound_to 6896
  150.9083  133.6971  159.2888 H   0  0  0  0  0  0  0  0  0  0  0  0  # atno 6909 bound_to 6896
  146.0245  139.4690  142.9876 H   0  0  0  0  0  0  0  0  0  0  0  0  # atno 7974 bound_to 7965
  156.1874  140.3083  155.9265 H   0  0  0  0  0  0  0  0  0  0  0  0  # atno 8008 bound_to 7997
  155.3250  140.0458  157.3057 H   0  0  0  0  0  0  0  0  0  0  0  0  # atno 8009 bound_to 7997
  154.5412  140.2262  155.8648 H   0  0  0  0  0  0  0  0  0  0  0  0  # atno 8010 bound_to 7997
  139.9110  144.6272  150.8538 H   0  0  0  0  0  0  0  0  0  0  0  0  # atno 10167 bound_to 10162
  156.1357  130.4157  150.0190 H   0  0  0  0  0  0  0  0  0  0  0  0  # atno 10718 bound_to 10713
  153.1330  135.4675  154.9378 H   0  0  0  0  0  0  0  0  0  0  0  0  # atno 10763 bound_to 10752
  154.7681  135.3150  154.8248 H   0  0  0  0  0  0  0  0  0  0  0  0  # atno 10764 bound_to 10752
  153.8786  135.6896  153.4822 H   0  0  0  0  0  0  0  0  0  0  0  0  # atno 10765 bound_to 10752
  141.0854  133.6643  156.3833 H   0  0  0  0  0  0  0  0  0  0  0  0  # atno 11005 bound_to 11000
  145.7140  141.0097  143.1438 LP  0  0  0  0  0  0  0  0  0  0  0  0  # atno 17320 bound_to 7965
  144.7004  139.8790  143.7446 LP  0  0  0  0  0  0  0  0  0  0  0  0  # atno 17321 bound_to 7965
  140.7685  143.3366  151.2296 LP  0  0  0  0  0  0  0  0  0  0  0  0  # atno 17342 bound_to 10162
  139.6943  143.9640  152.2875 LP  0  0  0  0  0  0  0  0  0  0  0  0  # atno 17343 bound_to 10162
  156.8090  130.9318  151.3644 LP  0  0  0  0  0  0  0  0  0  0  0  0  # atno 17370 bound_to 10713
  157.6530  130.8900  149.9671 LP  0  0  0  0  0  0  0  0  0  0  0  0  # atno 17371 bound_to 10713
  140.5374  134.6154  157.5369 LP  0  0  0  0  0  0  0  0  0  0  0  0  # atno 17394 bound_to 11000
  139.9672  134.7353  156.0114 LP  0  0  0  0  0  0  0  0  0  0  0  0  # atno 17395 bound_to 11000

$$$$
