AV-unprocessed.smi:2748|AV-procd|sdf|10583|dock8
  -GOLD-   2272015 33D 1   1.00000     0.00000
 Structure written by MMmdl.
 29 31  0  0  0  0  0  0  0  0  2 V2000
  151.3252  136.3347  154.7510 O   0  0  0  0  0  0  0  0  0  0  0  0
  151.4324  137.0377  155.7548 C   0  0  0  0  0  0  0  0  0  0  0  0
  151.7796  136.5318  156.9747 N   0  5  0  0  0  0  0  0  0  0  0  0
  151.9018  137.2974  158.1029 C   0  0  0  0  0  0  0  0  0  0  0  0
  152.2252  136.8201  159.1910 O   0  0  0  0  0  0  0  0  0  0  0  0
  151.6571  138.6385  158.0169 N   0  0  0  0  0  0  0  0  0  0  0  0
  151.7657  139.5347  159.1758 C   0  0  0  0  0  0  0  0  0  0  0  0
  152.7867  140.6619  158.9316 C   0  0  2  0  0  0  0  0  0  0  0  0
  153.1014  141.4685  160.2197 C   0  0  0  0  0  0  0  0  0  0  0  0
  152.6910  142.8445  159.8275 C   0  0  0  0  0  0  0  0  0  0  0  0
  152.7417  144.0224  160.5921 C   0  0  0  0  0  0  0  0  0  0  0  0
  152.2859  145.2173  159.9928 C   0  0  0  0  0  0  0  0  0  0  0  0
  151.7955  145.2115  158.6646 C   0  0  0  0  0  0  0  0  0  0  0  0
  151.7553  144.0115  157.9191 C   0  0  0  0  0  0  0  0  0  0  0  0
  152.2135  142.8304  158.5291 C   0  0  0  0  0  0  0  0  0  0  0  0
  152.2531  141.5877  157.9643 O   0  0  0  0  0  0  0  0  0  0  0  0
  151.3039  139.2111  156.7834 C   0  0  0  0  0  0  0  0  0  0  0  0
  151.1836  138.4748  155.6617 C   0  0  0  0  0  0  0  0  0  0  0  0
  150.7508  139.2070  154.1577 Cl  0  0  0  0  0  0  0  0  0  0  0  0
  150.7923  139.9655  159.4151 H   0  0  0  0  0  0  0  0  0  0  0  0
  152.0474  138.9635  160.0621 H   0  0  0  0  0  0  0  0  0  0  0  0
  153.7144  140.2504  158.5317 H   0  0  0  0  0  0  0  0  0  0  0  0
  152.5254  141.1321  161.0825 H   0  0  0  0  0  0  0  0  0  0  0  0
  154.1626  141.4411  160.4685 H   0  0  0  0  0  0  0  0  0  0  0  0
  153.1163  144.0143  161.6051 H   0  0  0  0  0  0  0  0  0  0  0  0
  152.3111  146.1414  160.5514 H   0  0  0  0  0  0  0  0  0  0  0  0
  151.4495  146.1316  158.2172 H   0  0  0  0  0  0  0  0  0  0  0  0
  151.3828  144.0012  156.9055 H   0  0  0  0  0  0  0  0  0  0  0  0
  151.1446  140.2792  156.8046 H   0  0  0  0  0  0  0  0  0  0  0  0
  1  2  2  0  0  0  0
  2 18  1  0  0  0  0
  2  3  1  0  0  0  0
  3  4  1  0  0  0  0
  4  5  2  0  0  0  0
  4  6  1  0  0  0  0
  6  7  1  0  0  0  0
  6 17  1  0  0  0  0
  7  8  1  0  0  0  0
  7 20  1  0  0  0  0
  7 21  1  0  0  0  0
  8 16  1  0  0  0  0
  8  9  1  0  0  0  0
  8 22  1  0  0  0  0
  9 10  1  0  0  0  0
  9 23  1  0  0  0  0
  9 24  1  0  0  0  0
 10 15  2  0  0  0  0
 10 11  1  0  0  0  0
 11 12  2  0  0  0  0
 11 25  1  0  0  0  0
 12 13  1  0  0  0  0
 12 26  1  0  0  0  0
 13 14  2  0  0  0  0
 13 27  1  0  0  0  0
 14 15  1  0  0  0  0
 14 28  1  0  0  0  0
 15 16  1  0  0  0  0
 17 18  2  0  0  0  0
 17 29  1  0  0  0  0
 18 19  1  0  0  0  0
M  CHG  1   3  -1
M  END
> <s_m_source_file>
AV-unprocessed.smi

> <i_m_source_file_index>
2748

> <i_lp_mmshare_version>
43012

> <i_f3d_flags>
0

> <s_epik_input>
Tz1jMVtuSF1jKD1PKW4oW2NIXWMxQ2wpW0NIMl1bQ0BIXShbQ0gyXTIpT2MoYzIzKVtjSF1bY0hdW2NIXVtjSF0z

> <s_epik_cmdline>
J2VwaWtfcHl0aG9uJywgJy1waCcsICc3LjAnLCAnLXRuJywgJzgnLCAnLW1hJywgJzIwMCcsICctbWV0YWxfYmluZGluZycsICctaW1hZScsICc8aW5maWxlLm1hZT4nLCAnLW9tYWUnLCAnPG91dGZpbGUubWFlPic=

> <r_lp_tautomer_probability>
1

> <r_epik_Ionization_Penalty>
2.00749

> <r_epik_Ionization_Penalty_Charging>
2.26533e-08

> <r_epik_Ionization_Penalty_Neutral>
2.00749

> <r_epik_State_Penalty>
2.13675

> <r_epik_Charging_Adjusted_Penalty>
2.13675

> <i_epik_Tot_Q>
-1

> <i_epik_Tot_abs_Q>
1

> <r_epik_Metal_State_Penalty>
0.0208594

> <b_epik_Metal_Only>
0

> <s_lp_Force_Field>
OPLS_2005

> <r_lp_Energy>
29.9215

> <b_lp_Chiralities_Consistent>
1

> <s_lp_Variant>
AV-unprocessed.smi:2748-3

> <Gold.Version>
5.8.1

> <Gold.Id.Protein>
6NUR|6NUR_protein|mol2

> <Gold.PLP.Fitness>
43.9552

> <Gold.PLP.PLP>
-38.0985

> <Gold.PLP.part.hbond>
-2.0000

> <Gold.PLP.part.metal>
0.0000

> <Gold.PLP.part.buried>
-5.0828

> <Gold.PLP.part.nonpolar>
-31.3217

> <Gold.PLP.part.repulsive>
0.1596

> <Gold.PLP.ligand.clash>
0.0000

> <Gold.PLP.ligand.torsion>
0.0591

> <Gold.PLP.Chemscore.Hbond>
1.9913

> <Gold.PLP.Chemscore.CHOScore>
0.0000

> <Gold.PLP.Chemscore.Metal>
0.0000

> <Gold.Chemscore.Hbonds>
donor molecule, donor type, donor heavy atom, donor atom, acceptor molecule, acceptor atom, score
      P1  H  6896  6908       L1     5  0.99
      P1  H 10752 10764       L1     1  1.00

> <Gold.PLP.Chemscore.Internal.Correction>
0.0011

> <Gold.Rescore>
     Score         DG    S(hbond)    S(metal)    S(lipo)     H(rot)  DE(clash)    DE(int)     intcor
     19.92     -21.55       1.90        0.00     111.50       1.29       0.06       1.57       ----

> <Gold.Chemscore.Fitness>
19.9179

> <Gold.Chemscore.DG>
-21.5508

> <Gold.Chemscore.ZeroCoef>
-5.4800

> <Gold.Chemscore.Hbond>
1.8979

> <Gold.Chemscore.Metal>
0.0000

> <Gold.Chemscore.Lipo>
111.4960

> <Gold.Chemscore.Internal_Hbond>
0.0000

> <Gold.Chemscore.DEClash>
0.0589

> <Gold.Chemscore.DEInternal>
1.5741

> <Gold.Chemscore.Rot>
1.2942

> <Gold.Chemscore.Internal.Correction>
   9.000000E+99

> <Gold.Chemscore.Hbonds>
donor molecule, donor type, donor heavy atom, donor atom, acceptor molecule, acceptor atom, score
      P1  H  6896  6908       L1     5  0.93
      P1  H 10752 10764       L1     1  0.45

> <Gold.Chemscore.Hbond.Weighted>
-6.3389

> <Gold.Chemscore.Metal.Weighted>
-0.0000

> <Gold.Chemscore.Lipo.Weighted>
-13.0450

> <Gold.Chemscore.Internal_Hbond.Weighted>
0.0000

> <Gold.Chemscore.DEClash.Weighted>
0.0589

> <Gold.Chemscore.DEInternal.Weighted>
1.5741

> <Gold.Chemscore.Rot.Weighted>
3.3131

> <Gold.Chemscore.Internal.Correction.Weighted>
   9.000000E+99

> <Gold.Protein.RotatedTorsions>
[ 6907 6896 6895 6894 ] final -102.24 input  -60.11 | X-H torsion
[ 7974 7965 7964 7962 ] final   52.17 input  175.53 | X-H torsion
[ 8008 7997 7996 7995 ] final  179.35 input   59.86 | X-H torsion
[ 10167 10162 10161 10158 ] final   68.67 input  -65.29 | X-H torsion
[ 10718 10713 10712 10709 ] final  -89.59 input   66.30 | X-H torsion
[ 10763 10752 10751 10750 ] final  -59.81 input  -60.55 | X-H torsion
[ 11005 11000 10999 10996 ] final  143.73 input  -57.11 | X-H torsion

> <Gold.Protein.ActiveResidues>
 VAL166  LYS551  ARG553  GLY616  TRP617  ASP618  TYR619  PRO620  LYS621  CYS622 
 ASP623  PHE694  ASN695  SER759  ASP760  ASP761  ALA762  ILE779  LEU786  VAL792 
 PHE793  MET794  SER795  GLU796  ALA797  LYS798  CYS799  TRP800  GLU811  SER814 

> <Gold.Protein.RotatedAtoms>
  150.7188  134.0612  159.3831 H   0  0  0  0  0  0  0  0  0  0  0  0  # atno 6907 bound_to 6896
  151.8592  135.0528  160.0477 H   0  0  0  0  0  0  0  0  0  0  0  0  # atno 6908 bound_to 6896
  152.2731  133.5364  159.5487 H   0  0  0  0  0  0  0  0  0  0  0  0  # atno 6909 bound_to 6896
  145.9840  139.4271  143.0114 H   0  0  0  0  0  0  0  0  0  0  0  0  # atno 7974 bound_to 7965
  156.0443  140.1311  157.0121 H   0  0  0  0  0  0  0  0  0  0  0  0  # atno 8008 bound_to 7997
  154.4405  140.1024  156.6354 H   0  0  0  0  0  0  0  0  0  0  0  0  # atno 8009 bound_to 7997
  155.5619  140.3465  155.4495 H   0  0  0  0  0  0  0  0  0  0  0  0  # atno 8010 bound_to 7997
  140.0762  144.5110  150.7193 H   0  0  0  0  0  0  0  0  0  0  0  0  # atno 10167 bound_to 10162
  155.9985  130.4878  150.5194 H   0  0  0  0  0  0  0  0  0  0  0  0  # atno 10718 bound_to 10713
  154.2594  135.6311  153.5269 H   0  0  0  0  0  0  0  0  0  0  0  0  # atno 10763 bound_to 10752
  152.9898  135.5584  154.5720 H   0  0  0  0  0  0  0  0  0  0  0  0  # atno 10764 bound_to 10752
  154.5266  135.2885  155.1192 H   0  0  0  0  0  0  0  0  0  0  0  0  # atno 10765 bound_to 10752
  140.0576  134.9222  157.1128 H   0  0  0  0  0  0  0  0  0  0  0  0  # atno 11005 bound_to 11000
  145.7728  140.9889  143.1140 LP  0  0  0  0  0  0  0  0  0  0  0  0  # atno 17320 bound_to 7965
  144.6869  139.9468  143.7477 LP  0  0  0  0  0  0  0  0  0  0  0  0  # atno 17321 bound_to 7965
  140.7101  143.2498  151.4608 LP  0  0  0  0  0  0  0  0  0  0  0  0  # atno 17342 bound_to 10162
  139.5807  144.1717  152.1963 LP  0  0  0  0  0  0  0  0  0  0  0  0  # atno 17343 bound_to 10162
  157.3157  131.0672  151.1968 LP  0  0  0  0  0  0  0  0  0  0  0  0  # atno 17370 bound_to 10713
  157.2899  130.6791  149.6109 LP  0  0  0  0  0  0  0  0  0  0  0  0  # atno 17371 bound_to 10713
  140.3819  134.2277  155.7170 LP  0  0  0  0  0  0  0  0  0  0  0  0  # atno 17394 bound_to 11000
  141.1959  133.8095  157.0695 LP  0  0  0  0  0  0  0  0  0  0  0  0  # atno 17395 bound_to 11000

$$$$
