AV-unprocessed.smi:2636|AV-procd|sdf|10259|dock10
  -GOLD-   2272014273D 1   1.00000     0.00000
 Structure written by MMmdl.
 35 36  0  0  0  0  0  0  0  0  2 V2000
  151.3967  134.3259  153.6079 C   0  0  0  0  0  0  0  0  0  0  0  0
  152.0937  135.4559  154.3437 C   0  0  0  0  0  0  0  0  0  0  0  0
  151.9316  136.7528  154.0093 C   0  0  0  0  0  0  0  0  0  0  0  0
  152.5794  137.7903  154.6993 N   0  0  0  0  0  0  0  0  0  0  0  0
  152.3063  139.1638  154.3119 C   0  0  0  0  0  0  0  0  0  0  0  0
  150.9325  139.3722  154.3343 O   0  0  0  0  0  0  0  0  0  0  0  0
  150.3630  139.1902  155.6208 C   0  0  0  0  0  0  0  0  0  0  0  0
  151.0869  139.9945  156.6839 C   0  0  0  0  0  0  0  0  0  0  0  0
  150.6467  141.1487  157.2210 C   0  0  0  0  0  0  0  0  0  0  0  0
  151.3274  141.9520  158.2531 C   0  0  0  0  0  0  0  0  0  0  0  0
  152.4010  141.4503  159.0271 C   0  0  0  0  0  0  0  0  0  0  0  0
  153.0202  142.2577  160.0014 C   0  0  0  0  0  0  0  0  0  0  0  0
  152.5759  143.5759  160.2125 C   0  0  0  0  0  0  0  0  0  0  0  0
  151.5103  144.0855  159.4478 C   0  0  0  0  0  0  0  0  0  0  0  0
  150.8910  143.2767  158.4751 C   0  0  0  0  0  0  0  0  0  0  0  0
  153.3761  137.5116  155.7735 C   0  0  0  0  0  0  0  0  0  0  0  0
  153.9049  138.4390  156.3883 O   0  0  0  0  0  0  0  0  0  0  0  0
  153.5627  136.2024  156.1249 N   0  5  0  0  0  0  0  0  0  0  0  0
  152.9764  135.1551  155.4740 C   0  0  0  0  0  0  0  0  0  0  0  0
  153.1642  133.9850  155.8056 O   0  0  0  0  0  0  0  0  0  0  0  0
  150.7867  134.7067  152.7884 H   0  0  0  0  0  0  0  0  0  0  0  0
  150.7459  133.7744  154.2871 H   0  0  0  0  0  0  0  0  0  0  0  0
  152.1284  133.6328  153.1920 H   0  0  0  0  0  0  0  0  0  0  0  0
  151.2929  137.0724  153.1990 H   0  0  0  0  0  0  0  0  0  0  0  0
  152.8174  139.8349  155.0056 H   0  0  0  0  0  0  0  0  0  0  0  0
  152.6990  139.3461  153.3101 H   0  0  0  0  0  0  0  0  0  0  0  0
  149.3153  139.4940  155.6108 H   0  0  0  0  0  0  0  0  0  0  0  0
  150.3992  138.1369  155.9021 H   0  0  0  0  0  0  0  0  0  0  0  0
  152.0256  139.5689  157.0030 H   0  0  0  0  0  0  0  0  0  0  0  0
  149.7022  141.5450  156.8767 H   0  0  0  0  0  0  0  0  0  0  0  0
  152.7663  140.4445  158.8895 H   0  0  0  0  0  0  0  0  0  0  0  0
  153.8378  141.8641  160.5874 H   0  0  0  0  0  0  0  0  0  0  0  0
  153.0514  144.1944  160.9595 H   0  0  0  0  0  0  0  0  0  0  0  0
  151.1662  145.0967  159.6074 H   0  0  0  0  0  0  0  0  0  0  0  0
  150.0732  143.6816  157.8964 H   0  0  0  0  0  0  0  0  0  0  0  0
  1  2  1  0  0  0  0
  1 21  1  0  0  0  0
  1 22  1  0  0  0  0
  1 23  1  0  0  0  0
  2 19  1  0  0  0  0
  2  3  2  0  0  0  0
  3  4  1  0  0  0  0
  3 24  1  0  0  0  0
  4  5  1  0  0  0  0
  4 16  1  0  0  0  0
  5  6  1  0  0  0  0
  5 25  1  0  0  0  0
  5 26  1  0  0  0  0
  6  7  1  0  0  0  0
  7  8  1  0  0  0  0
  7 27  1  0  0  0  0
  7 28  1  0  0  0  0
  8  9  2  0  0  0  0
  8 29  1  0  0  0  0
  9 10  1  0  0  0  0
  9 30  1  0  0  0  0
 10 15  1  0  0  0  0
 10 11  2  0  0  0  0
 11 12  1  0  0  0  0
 11 31  1  0  0  0  0
 12 13  2  0  0  0  0
 12 32  1  0  0  0  0
 13 14  1  0  0  0  0
 13 33  1  0  0  0  0
 14 15  2  0  0  0  0
 14 34  1  0  0  0  0
 15 35  1  0  0  0  0
 16 17  2  0  0  0  0
 16 18  1  0  0  0  0
 18 19  1  0  0  0  0
 19 20  2  0  0  0  0
M  CHG  1  18  -1
M  END
> <s_m_source_file>
AV-unprocessed.smi

> <i_m_source_file_index>
2636

> <i_lp_mmshare_version>
43012

> <i_f3d_flags>
0

> <s_epik_input>
Tz1jMVtuSF1jKD1PKW4oW2NIXWMxW0NIM10pW0NIMl1PW0NIMl0vW0NIXT1bQ0hdL2MyW2NIXVtjSF1bY0hdW2NIXVtjSF0y

> <s_epik_cmdline>
J2VwaWtfcHl0aG9uJywgJy1waCcsICc3LjAnLCAnLXRuJywgJzgnLCAnLW1hJywgJzIwMCcsICctbWV0YWxfYmluZGluZycsICctaW1hZScsICc8aW5maWxlLm1hZT4nLCAnLW9tYWUnLCAnPG91dGZpbGUubWFlPic=

> <r_lp_tautomer_probability>
0.999537

> <r_epik_Ionization_Penalty>
3.43625

> <r_epik_Ionization_Penalty_Charging>
7.29021e-08

> <r_epik_Ionization_Penalty_Neutral>
3.43625

> <r_epik_State_Penalty>
3.43567

> <r_epik_Charging_Adjusted_Penalty>
3.43567

> <i_epik_Tot_Q>
-1

> <i_epik_Tot_abs_Q>
1

> <r_epik_Metal_State_Penalty>
0.168611

> <b_epik_Metal_Only>
1

> <s_epik_Chemistry_Notes>
This compound contains an acetal/aminal-like group ( X-CH(R)-Y where X, Y are N, S, or O) that may be acid/base labile, releasing an aldehyde.

> <s_lp_Force_Field>
OPLS_2005

> <r_lp_Energy>
15.3134

> <b_lp_Chiralities_Consistent>
1

> <s_lp_Variant>
AV-unprocessed.smi:2636-3

> <Gold.Version>
5.8.1

> <Gold.Id.Protein>
6NUR|6NUR_protein|mol2

> <Gold.PLP.Fitness>
49.9679

> <Gold.PLP.PLP>
-41.6937

> <Gold.PLP.part.hbond>
-2.5684

> <Gold.PLP.part.metal>
0.0000

> <Gold.PLP.part.buried>
-5.2274

> <Gold.PLP.part.nonpolar>
-35.4151

> <Gold.PLP.part.repulsive>
0.1387

> <Gold.PLP.ligand.clash>
0.0000

> <Gold.PLP.ligand.torsion>
0.2052

> <Gold.PLP.Chemscore.Hbond>
1.7840

> <Gold.PLP.Chemscore.CHOScore>
1.0969

> <Gold.PLP.Chemscore.Metal>
0.0000

> <Gold.Chemscore.Hbonds>
donor molecule, donor type, donor heavy atom, donor atom, acceptor molecule, acceptor atom, score
      P1  H  7997  8008       L1    17  0.37
      L1  C     3    24       P1  7949  0.81

> <Gold.PLP.Chemscore.Internal.Correction>
0.0417

> <Gold.Rescore>
     Score         DG    S(hbond)    S(metal)    S(lipo)     H(rot)  DE(clash)    DE(int)     intcor
     17.38     -17.52       1.64        0.00      97.17       1.88       0.02       0.12       ----

> <Gold.Chemscore.Fitness>
17.3826

> <Gold.Chemscore.DG>
-17.5212

> <Gold.Chemscore.ZeroCoef>
-5.4800

> <Gold.Chemscore.Hbond>
1.6422

> <Gold.Chemscore.Metal>
0.0000

> <Gold.Chemscore.Lipo>
97.1735

> <Gold.Chemscore.Internal_Hbond>
0.0000

> <Gold.Chemscore.DEClash>
0.0174

> <Gold.Chemscore.DEInternal>
0.1212

> <Gold.Chemscore.Rot>
1.8800

> <Gold.Chemscore.Internal.Correction>
   9.000000E+99

> <Gold.Chemscore.Hbonds>
donor molecule, donor type, donor heavy atom, donor atom, acceptor molecule, acceptor atom, score
      P1  H  7997  8008       L1    17  0.38

> <Gold.Chemscore.Hbond.Weighted>
-5.4848

> <Gold.Chemscore.Metal.Weighted>
-0.0000

> <Gold.Chemscore.Lipo.Weighted>
-11.3693

> <Gold.Chemscore.Internal_Hbond.Weighted>
0.0000

> <Gold.Chemscore.DEClash.Weighted>
0.0174

> <Gold.Chemscore.DEInternal.Weighted>
0.1212

> <Gold.Chemscore.Rot.Weighted>
4.8129

> <Gold.Chemscore.Internal.Correction.Weighted>
   9.000000E+99

> <Gold.Protein.RotatedTorsions>
[ 6907 6896 6895 6894 ] final -119.65 input  -60.11 | X-H torsion
[ 7974 7965 7964 7962 ] final  105.33 input  175.53 | X-H torsion
[ 8008 7997 7996 7995 ] final  -22.61 input   59.86 | X-H torsion
[ 10167 10162 10161 10158 ] final    7.17 input  -65.29 | X-H torsion
[ 10718 10713 10712 10709 ] final -138.58 input   66.30 | X-H torsion
[ 10763 10752 10751 10750 ] final   -3.11 input  -60.55 | X-H torsion
[ 11005 11000 10999 10996 ] final  -18.33 input  -57.11 | X-H torsion

> <Gold.Protein.ActiveResidues>
 VAL166  LYS551  ARG553  GLY616  TRP617  ASP618  TYR619  PRO620  LYS621  CYS622 
 ASP623  PHE694  ASN695  SER759  ASP760  ASP761  ALA762  ILE779  LEU786  VAL792 
 PHE793  MET794  SER795  GLU796  ALA797  LYS798  CYS799  TRP800  GLU811  SER814 

> <Gold.Protein.RotatedAtoms>
  150.8323  133.8070  159.3093 H   0  0  0  0  0  0  0  0  0  0  0  0  # atno 6907 bound_to 6896
  151.5796  135.1057  160.0024 H   0  0  0  0  0  0  0  0  0  0  0  0  # atno 6908 bound_to 6896
  152.4401  133.7390  159.6687 H   0  0  0  0  0  0  0  0  0  0  0  0  # atno 6909 bound_to 6896
  145.3210  139.2513  143.3712 H   0  0  0  0  0  0  0  0  0  0  0  0  # atno 7974 bound_to 7965
  154.4634  140.2003  156.0184 H   0  0  0  0  0  0  0  0  0  0  0  0  # atno 8008 bound_to 7997
  156.0882  140.3262  155.7752 H   0  0  0  0  0  0  0  0  0  0  0  0  # atno 8009 bound_to 7997
  155.5001  140.0553  157.2931 H   0  0  0  0  0  0  0  0  0  0  0  0  # atno 8010 bound_to 7997
  140.6387  143.7826  150.7396 H   0  0  0  0  0  0  0  0  0  0  0  0  # atno 10167 bound_to 10162
  156.3010  130.7428  151.1480 H   0  0  0  0  0  0  0  0  0  0  0  0  # atno 10718 bound_to 10713
  153.3670  135.6993  153.6667 H   0  0  0  0  0  0  0  0  0  0  0  0  # atno 10763 bound_to 10752
  153.5333  135.3588  155.2686 H   0  0  0  0  0  0  0  0  0  0  0  0  # atno 10764 bound_to 10752
  154.8676  135.4186  154.2940 H   0  0  0  0  0  0  0  0  0  0  0  0  # atno 10765 bound_to 10752
  140.8257  133.8034  155.9706 H   0  0  0  0  0  0  0  0  0  0  0  0  # atno 11005 bound_to 11000
  146.3082  140.3768  142.8680 LP  0  0  0  0  0  0  0  0  0  0  0  0  # atno 17320 bound_to 7965
  144.8939  140.7558  143.5909 LP  0  0  0  0  0  0  0  0  0  0  0  0  # atno 17321 bound_to 7965
  140.1453  143.4405  152.2167 LP  0  0  0  0  0  0  0  0  0  0  0  0  # atno 17342 bound_to 10162
  139.5596  144.7397  151.4193 LP  0  0  0  0  0  0  0  0  0  0  0  0  # atno 17343 bound_to 10162
  157.7368  131.0559  150.5394 LP  0  0  0  0  0  0  0  0  0  0  0  0  # atno 17370 bound_to 10713
  156.5522  130.4234  149.6102 LP  0  0  0  0  0  0  0  0  0  0  0  0  # atno 17371 bound_to 10713
  140.9051  134.2330  157.5019 LP  0  0  0  0  0  0  0  0  0  0  0  0  # atno 17394 bound_to 11000
  139.8706  134.9724  156.4773 LP  0  0  0  0  0  0  0  0  0  0  0  0  # atno 17395 bound_to 11000

$$$$
