AV-unprocessed.smi:2379|AV-procd|sdf|9454|dock3
  -GOLD-   2272013 83D 1   1.00000     0.00000
 Structure written by MMmdl.
 53 55  0  0  0  0  0  0  0  0  2 V2000
  152.5641  143.3395  161.5140 C   0  0  0  0  0  0  0  0  0  0  0  0
  152.8934  142.1751  160.6038 C   0  0  0  0  0  0  0  0  0  0  0  0
  154.0760  141.4342  160.7870 C   0  0  0  0  0  0  0  0  0  0  0  0
  154.3323  140.3629  159.9091 C   0  0  0  0  0  0  0  0  0  0  0  0
  155.5873  139.5274  160.0466 C   0  0  0  0  0  0  0  0  0  0  0  0
  153.4990  140.0187  158.9039 N   0  0  0  0  0  0  0  0  0  0  0  0
  152.3573  140.7260  158.7171 C   0  0  0  0  0  0  0  0  0  0  0  0
  151.4199  140.4487  157.6866 N   0  0  0  0  0  0  0  0  0  0  0  0
  151.6520  139.9085  156.4772 C   0  0  0  0  0  0  0  0  0  0  0  0
  152.7459  139.5193  156.0674 O   0  0  0  0  0  0  0  0  0  0  0  0
  150.5257  139.8374  155.7521 N   0  0  0  0  0  0  0  0  0  0  0  0
  150.4200  139.2784  154.4042 C   0  0  2  0  0  0  0  0  0  0  0  0
  148.9553  139.0354  153.9887 C   0  0  0  0  0  0  0  0  0  0  0  0
  148.3204  137.8681  154.7644 C   0  0  0  0  0  0  0  0  0  0  0  0
  149.1179  136.6236  154.6105 N   0  3  2  0  0  0  0  0  0  0  0  0
  148.4560  135.4415  155.2224 C   0  0  0  0  0  0  0  0  0  0  0  0
  148.8476  134.1210  154.5289 C   0  0  1  0  0  0  0  0  0  0  0  0
  148.9646  132.9054  155.4367 C   0  0  0  0  0  0  0  0  0  0  0  0
  148.6478  131.7229  154.5158 C   0  0  0  0  0  0  0  0  0  0  0  0
  148.1680  132.2839  153.2989 O   0  0  0  0  0  0  0  0  0  0  0  0
  147.8008  133.6334  153.5310 C   0  0  0  0  0  0  0  0  0  0  0  0
  150.5175  136.8175  155.0734 C   0  0  0  0  0  0  0  0  0  0  0  0
  151.2074  137.9605  154.3061 C   0  0  0  0  0  0  0  0  0  0  0  0
  152.0253  141.8162  159.5524 C   0  0  0  0  0  0  0  0  0  0  0  0
  152.9699  143.1776  162.5131 H   0  0  0  0  0  0  0  0  0  0  0  0
  151.4852  143.4692  161.6048 H   0  0  0  0  0  0  0  0  0  0  0  0
  152.9894  144.2602  161.1150 H   0  0  0  0  0  0  0  0  0  0  0  0
  154.7686  141.6815  161.5785 H   0  0  0  0  0  0  0  0  0  0  0  0
  156.0806  139.7114  161.0013 H   0  0  0  0  0  0  0  0  0  0  0  0
  156.2885  139.7674  159.2472 H   0  0  0  0  0  0  0  0  0  0  0  0
  155.3486  138.4649  159.9882 H   0  0  0  0  0  0  0  0  0  0  0  0
  150.4639  140.6960  157.8943 H   0  0  0  0  0  0  0  0  0  0  0  0
  149.6726  140.1755  156.1730 H   0  0  0  0  0  0  0  0  0  0  0  0
  150.8687  139.9937  153.7122 H   0  0  0  0  0  0  0  0  0  0  0  0
  148.3593  139.9391  154.1196 H   0  0  0  0  0  0  0  0  0  0  0  0
  148.9224  138.8098  152.9220 H   0  0  0  0  0  0  0  0  0  0  0  0
  148.2287  138.1175  155.8227 H   0  0  0  0  0  0  0  0  0  0  0  0
  147.3093  137.7069  154.3883 H   0  0  0  0  0  0  0  0  0  0  0  0
  148.6445  135.4018  156.2964 H   0  0  0  0  0  0  0  0  0  0  0  0
  147.3750  135.5478  155.1191 H   0  0  0  0  0  0  0  0  0  0  0  0
  149.7874  134.2543  153.9897 H   0  0  0  0  0  0  0  0  0  0  0  0
  149.9512  132.8181  155.8929 H   0  0  0  0  0  0  0  0  0  0  0  0
  148.2243  132.9507  156.2369 H   0  0  0  0  0  0  0  0  0  0  0  0
  149.5323  131.1186  154.3133 H   0  0  0  0  0  0  0  0  0  0  0  0
  147.8894  131.0756  154.9576 H   0  0  0  0  0  0  0  0  0  0  0  0
  146.7983  133.6669  153.9614 H   0  0  0  0  0  0  0  0  0  0  0  0
  147.7976  134.2098  152.6055 H   0  0  0  0  0  0  0  0  0  0  0  0
  150.5215  137.0259  156.1442 H   0  0  0  0  0  0  0  0  0  0  0  0
  151.0933  135.9048  154.9341 H   0  0  0  0  0  0  0  0  0  0  0  0
  151.3014  137.6773  153.2568 H   0  0  0  0  0  0  0  0  0  0  0  0
  152.2250  138.0990  154.6737 H   0  0  0  0  0  0  0  0  0  0  0  0
  151.1136  142.3730  159.3908 H   0  0  0  0  0  0  0  0  0  0  0  0
  149.1566  136.4430  153.6175 H   0  0  0  0  0  0  0  0  0  0  0  0
  1  2  1  0  0  0  0
  1 25  1  0  0  0  0
  1 26  1  0  0  0  0
  1 27  1  0  0  0  0
  2 24  1  0  0  0  0
  2  3  2  0  0  0  0
  3  4  1  0  0  0  0
  3 28  1  0  0  0  0
  4  5  1  0  0  0  0
  4  6  2  0  0  0  0
  5 29  1  0  0  0  0
  5 30  1  0  0  0  0
  5 31  1  0  0  0  0
  6  7  1  0  0  0  0
  7  8  1  0  0  0  0
  7 24  2  0  0  0  0
  8  9  1  0  0  0  0
  8 32  1  0  0  0  0
  9 10  2  0  0  0  0
  9 11  1  0  0  0  0
 11 12  1  0  0  0  0
 11 33  1  0  0  0  0
 12 23  1  0  0  0  0
 12 13  1  0  0  0  0
 12 34  1  0  0  0  0
 13 14  1  0  0  0  0
 13 35  1  0  0  0  0
 13 36  1  0  0  0  0
 14 15  1  0  0  0  0
 14 37  1  0  0  0  0
 14 38  1  0  0  0  0
 15 16  1  0  0  0  0
 15 22  1  0  0  0  0
 15 53  1  0  0  0  0
 16 17  1  0  0  0  0
 16 39  1  0  0  0  0
 16 40  1  0  0  0  0
 17 21  1  0  0  0  0
 17 18  1  0  0  0  0
 17 41  1  0  0  0  0
 18 19  1  0  0  0  0
 18 42  1  0  0  0  0
 18 43  1  0  0  0  0
 19 20  1  0  0  0  0
 19 44  1  0  0  0  0
 19 45  1  0  0  0  0
 20 21  1  0  0  0  0
 21 46  1  0  0  0  0
 21 47  1  0  0  0  0
 22 23  1  0  0  0  0
 22 48  1  0  0  0  0
 22 49  1  0  0  0  0
 23 50  1  0  0  0  0
 23 51  1  0  0  0  0
 24 52  1  0  0  0  0
M  CHG  1  15   1
M  END
> <s_m_source_file>
AV-unprocessed.smi

> <i_m_source_file_index>
2379

> <i_lp_mmshare_version>
43012

> <i_f3d_flags>
0

> <s_epik_input>
W0NIM11jMVtjSF1jKFtDSDNdKW5jKFtjSF0xKVtOSF1DKD1PKVtOSF1bQ0hdMltDSDJdW0NIMl1OKFtDSDJdW0NIMl0yKVtDSDJdW0NAQEhdM1tDSDJdW0NIMl1PW0NIMl0z

> <s_epik_cmdline>
J2VwaWtfcHl0aG9uJywgJy1waCcsICc3LjAnLCAnLXRuJywgJzgnLCAnLW1hJywgJzIwMCcsICctbWV0YWxfYmluZGluZycsICctaW1hZScsICc8aW5maWxlLm1hZT4nLCAnLW9tYWUnLCAnPG91dGZpbGUubWFlPic=

> <r_epik_Ionization_Penalty>
0.00766556

> <r_epik_Ionization_Penalty_Charging>
0.00747775

> <r_epik_Ionization_Penalty_Neutral>
0.00018781

> <r_epik_State_Penalty>
0.00558817

> <r_epik_Charging_Adjusted_Penalty>
0.0130659

> <i_epik_Tot_Q>
1

> <i_epik_Tot_abs_Q>
1

> <r_epik_Metal_State_Penalty>
-0

> <b_epik_Metal_Only>
0

> <s_lp_Force_Field>
OPLS_2005

> <r_lp_Energy>
36.2098

> <b_lp_Chiralities_Consistent>
1

> <s_lp_Variant>
AV-unprocessed.smi:2379-4

> <Gold.Version>
5.8.1

> <Gold.Id.Protein>
6NUR|6NUR_protein|mol2

> <Gold.PLP.Fitness>
53.4637

> <Gold.PLP.PLP>
-46.6988

> <Gold.PLP.part.hbond>
-3.0000

> <Gold.PLP.part.metal>
0.0000

> <Gold.PLP.part.buried>
-4.6256

> <Gold.PLP.part.nonpolar>
-39.8592

> <Gold.PLP.part.repulsive>
0.2868

> <Gold.PLP.ligand.clash>
0.0000

> <Gold.PLP.ligand.torsion>
1.1481

> <Gold.PLP.Chemscore.Hbond>
3.0000

> <Gold.PLP.Chemscore.CHOScore>
0.0000

> <Gold.PLP.Chemscore.Metal>
0.0000

> <Gold.Chemscore.Hbonds>
donor molecule, donor type, donor heavy atom, donor atom, acceptor molecule, acceptor atom, score
      L1  H    15    53       P1  7948  2.00
      P1  H  7997  8010       L1    10  1.00

> <Gold.PLP.Chemscore.Internal.Correction>
0.0610

> <Gold.Rescore>
     Score         DG    S(hbond)    S(metal)    S(lipo)     H(rot)  DE(clash)    DE(int)     intcor
     18.31     -21.53       1.91        0.00     112.78       1.37       0.03       3.18       ----

> <Gold.Chemscore.Fitness>
18.3095

> <Gold.Chemscore.DG>
-21.5278

> <Gold.Chemscore.ZeroCoef>
-5.4800

> <Gold.Chemscore.Hbond>
1.9059

> <Gold.Chemscore.Metal>
0.0000

> <Gold.Chemscore.Lipo>
112.7833

> <Gold.Chemscore.Internal_Hbond>
0.0000

> <Gold.Chemscore.DEClash>
0.0345

> <Gold.Chemscore.DEInternal>
3.1839

> <Gold.Chemscore.Rot>
1.3725

> <Gold.Chemscore.Internal.Correction>
   9.000000E+99

> <Gold.Chemscore.Hbonds>
donor molecule, donor type, donor heavy atom, donor atom, acceptor molecule, acceptor atom, score
      L1  H    15    53       P1  7948  0.97
      P1  H  7997  8010       L1    10  1.00

> <Gold.Chemscore.Hbond.Weighted>
-6.3658

> <Gold.Chemscore.Metal.Weighted>
-0.0000

> <Gold.Chemscore.Lipo.Weighted>
-13.1956

> <Gold.Chemscore.Internal_Hbond.Weighted>
0.0000

> <Gold.Chemscore.DEClash.Weighted>
0.0345

> <Gold.Chemscore.DEInternal.Weighted>
3.1839

> <Gold.Chemscore.Rot.Weighted>
3.5136

> <Gold.Chemscore.Internal.Correction.Weighted>
   9.000000E+99

> <Gold.Protein.RotatedTorsions>
[ 6907 6896 6895 6894 ] final -113.42 input  -60.11 | X-H torsion
[ 7974 7965 7964 7962 ] final   92.93 input  175.53 | X-H torsion
[ 8008 7997 7996 7995 ] final   83.50 input   59.86 | X-H torsion
[ 10167 10162 10161 10158 ] final    7.83 input  -65.29 | X-H torsion
[ 10718 10713 10712 10709 ] final  -15.89 input   66.30 | X-H torsion
[ 10763 10752 10751 10750 ] final  -81.21 input  -60.55 | X-H torsion
[ 11005 11000 10999 10996 ] final -158.10 input  -57.11 | X-H torsion

> <Gold.Protein.ActiveResidues>
 VAL166  LYS551  ARG553  GLY616  TRP617  ASP618  TYR619  PRO620  LYS621  CYS622 
 ASP623  PHE694  ASN695  SER759  ASP760  ASP761  ALA762  ILE779  LEU786  VAL792 
 PHE793  MET794  SER795  GLU796  ALA797  LYS798  CYS799  TRP800  GLU811  SER814 

> <Gold.Protein.RotatedAtoms>
  150.7828  133.8948  159.3323 H   0  0  0  0  0  0  0  0  0  0  0  0  # atno 6907 bound_to 6896
  151.6806  135.0960  160.0225 H   0  0  0  0  0  0  0  0  0  0  0  0  # atno 6908 bound_to 6896
  152.3884  133.6605  159.6253 H   0  0  0  0  0  0  0  0  0  0  0  0  # atno 6909 bound_to 6896
  145.4857  139.2277  143.2858 H   0  0  0  0  0  0  0  0  0  0  0  0  # atno 7974 bound_to 7965
  155.9247  140.3419  155.6201 H   0  0  0  0  0  0  0  0  0  0  0  0  # atno 8008 bound_to 7997
  155.7230  140.0786  157.2341 H   0  0  0  0  0  0  0  0  0  0  0  0  # atno 8009 bound_to 7997
  154.4075  140.1602  156.2411 H   0  0  0  0  0  0  0  0  0  0  0  0  # atno 8010 bound_to 7997
  140.6349  143.7909  150.7346 H   0  0  0  0  0  0  0  0  0  0  0  0  # atno 10167 bound_to 10162
  156.5954  130.4810  149.6262 H   0  0  0  0  0  0  0  0  0  0  0  0  # atno 10718 bound_to 10713
  154.5608  135.5634  153.7005 H   0  0  0  0  0  0  0  0  0  0  0  0  # atno 10763 bound_to 10752
  153.0017  135.6273  154.2247 H   0  0  0  0  0  0  0  0  0  0  0  0  # atno 10764 bound_to 10752
  154.2185  135.2870  155.2913 H   0  0  0  0  0  0  0  0  0  0  0  0  # atno 10765 bound_to 10752
  140.6573  134.4387  157.5235 H   0  0  0  0  0  0  0  0  0  0  0  0  # atno 11005 bound_to 11000
  146.2314  140.5647  142.8973 LP  0  0  0  0  0  0  0  0  0  0  0  0  # atno 17320 bound_to 7965
  144.7863  140.5943  143.6571 LP  0  0  0  0  0  0  0  0  0  0  0  0  # atno 17321 bound_to 7965
  140.1528  143.4343  152.2120 LP  0  0  0  0  0  0  0  0  0  0  0  0  # atno 17342 bound_to 10162
  139.5560  144.7373  151.4292 LP  0  0  0  0  0  0  0  0  0  0  0  0  # atno 17343 bound_to 10162
  156.2514  130.6909  151.1648 LP  0  0  0  0  0  0  0  0  0  0  0  0  # atno 17370 bound_to 10713
  157.7293  131.0625  150.5780 LP  0  0  0  0  0  0  0  0  0  0  0  0  # atno 17371 bound_to 10713
  139.9025  134.8524  156.1838 LP  0  0  0  0  0  0  0  0  0  0  0  0  # atno 17394 bound_to 11000
  141.0492  133.6897  156.1739 LP  0  0  0  0  0  0  0  0  0  0  0  0  # atno 17395 bound_to 11000

$$$$
