AV-unprocessed.smi:235|AV-procd|sdf|1807|dock10
  -GOLD-   2262020383D 1   1.00000     0.00000
 Structure written by MMmdl.
 54 58  0  0  0  0  0  0  0  0  1 V2000
  148.3107  136.3238  155.6756 O   0  0  0  0  0  0  0  0  0  0  0  0
  148.1893  136.4875  154.4607 C   0  0  0  0  0  0  0  0  0  0  0  0
  149.0942  136.0682  153.5643 N   0  0  0  0  0  0  0  0  0  0  0  0
  150.3043  135.3759  153.8674 C   0  0  0  0  0  0  0  0  0  0  0  0
  150.5976  134.1059  153.0978 C   0  0  0  0  0  0  0  0  0  0  0  0
  150.1899  134.0266  154.5433 C   0  0  0  0  0  0  0  0  0  0  0  0
  146.9644  137.2160  153.8900 C   0  0  2  0  0  0  0  0  0  0  0  0
  146.2214  136.3699  152.8483 C   0  0  0  0  0  0  0  0  0  0  0  0
  145.4904  137.4180  152.0185 C   0  0  0  0  0  0  0  0  0  0  0  0
  146.4781  138.5846  151.9865 C   0  0  0  0  0  0  0  0  0  0  0  0
  147.3341  138.4304  153.1597 N   0  0  0  0  0  0  0  0  0  0  0  0
  147.4968  139.5369  153.9181 C   0  0  0  0  0  0  0  0  0  0  0  0
  146.3831  140.2391  154.2389 N   0  0  0  0  0  0  0  0  0  0  0  0
  146.4841  141.3491  154.9770 C   0  0  0  0  0  0  0  0  0  0  0  0
  147.5803  141.9193  155.4834 N   0  0  0  0  0  0  0  0  0  0  0  0
  148.7009  141.2119  155.1602 C   0  0  0  0  0  0  0  0  0  0  0  0
  148.7507  140.0179  154.3887 C   0  0  0  0  0  0  0  0  0  0  0  0
  150.0656  139.5845  154.2661 N   0  0  0  0  0  0  0  0  0  0  0  0
  150.7547  140.4727  154.9300 C   0  0  0  0  0  0  0  0  0  0  0  0
  150.0137  141.4840  155.4985 N   0  0  0  0  0  0  0  0  0  0  0  0
  150.5143  142.5957  156.2863 C   0  0  0  0  0  0  0  0  0  0  0  0
  150.6878  142.2270  157.7722 C   0  0  1  0  0  0  0  0  0  0  0  0
  151.1695  140.9026  157.9046 O   0  0  0  0  0  0  0  0  0  0  0  0
  151.6041  143.2090  158.5291 C   0  0  1  0  0  0  0  0  0  0  0  0
  151.3201  144.7056  158.3113 C   0  0  0  0  0  0  0  0  0  0  0  0
  151.1859  145.2593  159.7204 C   0  0  0  0  0  0  0  0  0  0  0  0
  151.8874  144.2096  160.5734 C   0  0  0  0  0  0  0  0  0  0  0  0
  151.5337  142.9944  159.9349 O   0  0  0  0  0  0  0  0  0  0  0  0
  148.9096  136.2521  152.5888 H   0  0  0  0  0  0  0  0  0  0  0  0
  151.1694  135.9771  154.1440 H   0  0  0  0  0  0  0  0  0  0  0  0
  149.8726  133.7812  152.3537 H   0  0  0  0  0  0  0  0  0  0  0  0
  151.6376  133.8936  152.8572 H   0  0  0  0  0  0  0  0  0  0  0  0
  150.9574  133.7629  155.2681 H   0  0  0  0  0  0  0  0  0  0  0  0
  149.1924  133.6515  154.7649 H   0  0  0  0  0  0  0  0  0  0  0  0
  146.2762  137.4616  154.7014 H   0  0  0  0  0  0  0  0  0  0  0  0
  146.9206  135.8214  152.2142 H   0  0  0  0  0  0  0  0  0  0  0  0
  145.5403  135.6486  153.3011 H   0  0  0  0  0  0  0  0  0  0  0  0
  145.2181  137.0633  151.0241 H   0  0  0  0  0  0  0  0  0  0  0  0
  144.5771  137.7211  152.5324 H   0  0  0  0  0  0  0  0  0  0  0  0
  147.1116  138.5163  151.1015 H   0  0  0  0  0  0  0  0  0  0  0  0
  145.9602  139.5441  151.9405 H   0  0  0  0  0  0  0  0  0  0  0  0
  145.5530  141.8527  155.1913 H   0  0  0  0  0  0  0  0  0  0  0  0
  151.8291  140.4125  155.0261 H   0  0  0  0  0  0  0  0  0  0  0  0
  151.4609  142.9272  155.8578 H   0  0  0  0  0  0  0  0  0  0  0  0
  149.8164  143.4274  156.1832 H   0  0  0  0  0  0  0  0  0  0  0  0
  149.7076  142.2501  158.2504 H   0  0  0  0  0  0  0  0  0  0  0  0
  152.1091  140.9365  158.0010 H   0  0  0  0  0  0  0  0  0  0  0  0
  152.6373  143.0149  158.2357 H   0  0  0  0  0  0  0  0  0  0  0  0
  152.1579  145.1725  157.7917 H   0  0  0  0  0  0  0  0  0  0  0  0
  150.4231  144.8988  157.7224 H   0  0  0  0  0  0  0  0  0  0  0  0
  151.6162  146.2548  159.8319 H   0  0  0  0  0  0  0  0  0  0  0  0
  150.1321  145.3120  159.9967 H   0  0  0  0  0  0  0  0  0  0  0  0
  152.9703  144.3395  160.5422 H   0  0  0  0  0  0  0  0  0  0  0  0
  151.5656  144.2269  161.6149 H   0  0  0  0  0  0  0  0  0  0  0  0
  1  2  2  0  0  0  0
  2  3  1  0  0  0  0
  2  7  1  0  0  0  0
  3  4  1  0  0  0  0
  3 29  1  0  0  0  0
  4  6  1  0  0  0  0
  4  5  1  0  0  0  0
  4 30  1  0  0  0  0
  5  6  1  0  0  0  0
  5 31  1  0  0  0  0
  5 32  1  0  0  0  0
  6 33  1  0  0  0  0
  6 34  1  0  0  0  0
  7 11  1  0  0  0  0
  7  8  1  0  0  0  0
  7 35  1  0  0  0  0
  8  9  1  0  0  0  0
  8 36  1  0  0  0  0
  8 37  1  0  0  0  0
  9 10  1  0  0  0  0
  9 38  1  0  0  0  0
  9 39  1  0  0  0  0
 10 11  1  0  0  0  0
 10 40  1  0  0  0  0
 10 41  1  0  0  0  0
 11 12  1  0  0  0  0
 12 17  1  0  0  0  0
 12 13  2  0  0  0  0
 13 14  1  0  0  0  0
 14 15  2  0  0  0  0
 14 42  1  0  0  0  0
 15 16  1  0  0  0  0
 16 20  1  0  0  0  0
 16 17  2  0  0  0  0
 17 18  1  0  0  0  0
 18 19  2  0  0  0  0
 19 20  1  0  0  0  0
 19 43  1  0  0  0  0
 20 21  1  0  0  0  0
 21 22  1  0  0  0  0
 21 44  1  0  0  0  0
 21 45  1  0  0  0  0
 22 23  1  0  0  0  0
 22 24  1  0  0  0  0
 22 46  1  0  0  0  0
 23 47  1  0  0  0  0
 24 28  1  0  0  0  0
 24 25  1  0  0  0  0
 24 48  1  0  0  0  0
 25 26  1  0  0  0  0
 25 49  1  0  0  0  0
 25 50  1  0  0  0  0
 26 27  1  0  0  0  0
 26 51  1  0  0  0  0
 26 52  1  0  0  0  0
 27 28  1  0  0  0  0
 27 53  1  0  0  0  0
 27 54  1  0  0  0  0
M  END
> <s_m_source_file>
AV-unprocessed.smi

> <i_m_source_file_index>
235

> <i_lp_mmshare_version>
43012

> <i_f3d_flags>
0

> <s_epik_input>
W0NIMl0xW0NIMl1bQ0hdMVtOSF1DKD1PKVtDQEBIXTJbQ0gyXVtDSDJdW0NIMl1OMmMobltjSF1uMyljKGMzNCluW2NIXW40W0NIMl1bQ0BIXShbT0hdKVtDQEBIXTVbQ0gyXVtDSDJdW0NIMl1PNQ==

> <s_epik_cmdline>
J2VwaWtfcHl0aG9uJywgJy1waCcsICc3LjAnLCAnLXRuJywgJzgnLCAnLW1hJywgJzIwMCcsICctbWV0YWxfYmluZGluZycsICctaW1hZScsICc8aW5maWxlLm1hZT4nLCAnLW9tYWUnLCAnPG91dGZpbGUubWFlPic=

> <r_lp_tautomer_probability>
1

> <r_epik_Ionization_Penalty>
0.000526714

> <r_epik_Ionization_Penalty_Charging>
0

> <r_epik_Ionization_Penalty_Neutral>
0.000526714

> <r_epik_State_Penalty>
0.000272704

> <r_epik_Charging_Adjusted_Penalty>
0.000272704

> <i_epik_Tot_Q>
0

> <i_epik_Tot_abs_Q>
0

> <r_epik_Metal_State_Penalty>
-0

> <b_epik_Metal_Only>
0

> <s_lp_Force_Field>
OPLS_2005

> <r_lp_Energy>
60.9584

> <b_lp_Chiralities_Consistent>
1

> <s_lp_Variant>
AV-unprocessed.smi:235-7

> <Gold.Version>
5.8.1

> <Gold.Id.Protein>
6NUR|6NUR_protein|mol2

> <Gold.PLP.Fitness>
46.9683

> <Gold.PLP.PLP>
-46.0745

> <Gold.PLP.part.hbond>
-0.9065

> <Gold.PLP.part.metal>
0.0000

> <Gold.PLP.part.buried>
-5.0623

> <Gold.PLP.part.nonpolar>
-43.3494

> <Gold.PLP.part.repulsive>
3.3188

> <Gold.PLP.ligand.clash>
0.0000

> <Gold.PLP.ligand.torsion>
1.1740

> <Gold.PLP.Chemscore.Hbond>
1.0000

> <Gold.PLP.Chemscore.CHOScore>
0.0000

> <Gold.PLP.Chemscore.Metal>
0.0000

> <Gold.PLP.Chemscore.Internal.Correction>
0.2416

> <Gold.Rescore>
     Score         DG    S(hbond)    S(metal)    S(lipo)     H(rot)  DE(clash)    DE(int)     intcor
     11.16     -12.68       0.93        0.00     100.54       3.00       0.41       1.11       ----

> <Gold.Chemscore.Fitness>
11.1588

> <Gold.Chemscore.DG>
-12.6842

> <Gold.Chemscore.ZeroCoef>
-5.4800

> <Gold.Chemscore.Hbond>
0.9337

> <Gold.Chemscore.Metal>
0.0000

> <Gold.Chemscore.Lipo>
100.5368

> <Gold.Chemscore.Internal_Hbond>
0.0000

> <Gold.Chemscore.DEClash>
0.4142

> <Gold.Chemscore.DEInternal>
1.1112

> <Gold.Chemscore.Rot>
2.9989

> <Gold.Chemscore.Internal.Correction>
   9.000000E+99

> <Gold.Chemscore.Hbond.Weighted>
-3.1186

> <Gold.Chemscore.Metal.Weighted>
-0.0000

> <Gold.Chemscore.Lipo.Weighted>
-11.7628

> <Gold.Chemscore.Internal_Hbond.Weighted>
0.0000

> <Gold.Chemscore.DEClash.Weighted>
0.4142

> <Gold.Chemscore.DEInternal.Weighted>
1.1112

> <Gold.Chemscore.Rot.Weighted>
7.6772

> <Gold.Chemscore.Internal.Correction.Weighted>
   9.000000E+99

> <Gold.Protein.RotatedTorsions>
[ 6907 6896 6895 6894 ] final -121.23 input  -60.11 | X-H torsion
[ 7974 7965 7964 7962 ] final  -93.53 input  175.53 | X-H torsion
[ 8008 7997 7996 7995 ] final  116.07 input   59.86 | X-H torsion
[ 10167 10162 10161 10158 ] final   55.68 input  -65.29 | X-H torsion
[ 10718 10713 10712 10709 ] final    3.32 input   66.30 | X-H torsion
[ 10763 10752 10751 10750 ] final  -87.85 input  -60.55 | X-H torsion
[ 11005 11000 10999 10996 ] final   14.41 input  -57.11 | X-H torsion

> <Gold.Protein.ActiveResidues>
 VAL166  LYS551  ARG553  GLY616  TRP617  ASP618  TYR619  PRO620  LYS621  CYS622 
 ASP623  PHE694  ASN695  SER759  ASP760  ASP761  ALA762  ILE779  LEU786  VAL792 
 PHE793  MET794  SER795  GLU796  ALA797  LYS798  CYS799  TRP800  GLU811  SER814 

> <Gold.Protein.RotatedAtoms>
  150.8465  133.7854  159.3041 H   0  0  0  0  0  0  0  0  0  0  0  0  # atno 6907 bound_to 6896
  151.5539  135.1065  159.9966 H   0  0  0  0  0  0  0  0  0  0  0  0  # atno 6908 bound_to 6896
  152.4517  133.7600  159.6797 H   0  0  0  0  0  0  0  0  0  0  0  0  # atno 6909 bound_to 6896
  145.3853  140.9522  143.2370 H   0  0  0  0  0  0  0  0  0  0  0  0  # atno 7974 bound_to 7965
  156.2418  140.2925  156.0466 H   0  0  0  0  0  0  0  0  0  0  0  0  # atno 8008 bound_to 7997
  155.1928  140.0407  157.2920 H   0  0  0  0  0  0  0  0  0  0  0  0  # atno 8009 bound_to 7997
  154.6183  140.2469  155.7589 H   0  0  0  0  0  0  0  0  0  0  0  0  # atno 8010 bound_to 7997
  140.2169  144.3830  150.6466 H   0  0  0  0  0  0  0  0  0  0  0  0  # atno 10167 bound_to 10162
  156.8761  130.5637  149.5655 H   0  0  0  0  0  0  0  0  0  0  0  0  # atno 10718 bound_to 10713
  154.6381  135.5398  153.7757 H   0  0  0  0  0  0  0  0  0  0  0  0  # atno 10763 bound_to 10752
  153.0319  135.6452  154.1201 H   0  0  0  0  0  0  0  0  0  0  0  0  # atno 10764 bound_to 10752
  154.1127  135.2925  155.3207 H   0  0  0  0  0  0  0  0  0  0  0  0  # atno 10765 bound_to 10752
  140.4699  134.1042  155.7731 H   0  0  0  0  0  0  0  0  0  0  0  0  # atno 11005 bound_to 11000
  144.8478  139.5369  143.6870 LP  0  0  0  0  0  0  0  0  0  0  0  0  # atno 17320 bound_to 7965
  146.2823  139.6909  142.9220 LP  0  0  0  0  0  0  0  0  0  0  0  0  # atno 17321 bound_to 7965
  140.6283  143.2184  151.6549 LP  0  0  0  0  0  0  0  0  0  0  0  0  # atno 17342 bound_to 10162
  139.5159  144.3365  152.0779 LP  0  0  0  0  0  0  0  0  0  0  0  0  # atno 17343 bound_to 10162
  156.0701  130.5736  150.9367 LP  0  0  0  0  0  0  0  0  0  0  0  0  # atno 17370 bound_to 10713
  157.6167  131.0932  150.8697 LP  0  0  0  0  0  0  0  0  0  0  0  0  # atno 17371 bound_to 10713
  141.1582  133.8843  157.1920 LP  0  0  0  0  0  0  0  0  0  0  0  0  # atno 17394 bound_to 11000
  139.9892  135.0071  156.9935 LP  0  0  0  0  0  0  0  0  0  0  0  0  # atno 17395 bound_to 11000

$$$$
