AV-unprocessed.smi:51|AV-procd|sdf|504|dock4
  -GOLD-   2262016373D 1   1.00000     0.00000
 Structure written by MMmdl.
 26 27  0  0  0  0  0  0  0  0  3 V2000
  155.6972  140.9864  160.2927 O   0  0  0  0  0  0  0  0  0  0  0  0
  154.5125  140.7469  159.9746 C   0  0  0  0  0  0  0  0  0  0  0  0
  154.1475  140.0842  158.9778 O   0  5  0  0  0  0  0  0  0  0  0  0
  153.4225  141.3000  160.9043 C   0  0  1  0  0  0  0  0  0  0  0  0
  153.9064  141.4175  162.3600 C   0  0  0  0  0  0  0  0  0  0  0  0
  153.1091  142.6066  162.8952 C   0  0  1  0  0  0  0  0  0  0  0  0
  153.7264  143.2256  164.0037 O   0  0  0  0  0  0  0  0  0  0  0  0
  153.0051  143.5412  161.6883 C   0  0  0  0  0  0  0  0  0  0  0  0
  153.0114  142.6545  160.5342 N   0  0  0  0  0  0  0  0  0  0  0  0
  152.2683  142.9511  159.3746 C   0  0  0  0  0  0  0  0  0  0  0  0
  151.8029  141.9266  158.5240 C   0  0  0  0  0  0  0  0  0  0  0  0
  151.0589  142.3158  157.3948 C   0  0  0  0  0  0  0  0  0  0  0  0
  150.8150  143.6261  157.1521 N   0  3  0  0  0  0  0  0  0  0  0  0
  151.2871  144.5525  157.9986 C   0  0  0  0  0  0  0  0  0  0  0  0
  152.0012  144.2455  159.0866 N   0  0  0  0  0  0  0  0  0  0  0  0
  152.5459  140.6515  160.8692 H   0  0  0  0  0  0  0  0  0  0  0  0
  153.7342  140.5060  162.9333 H   0  0  0  0  0  0  0  0  0  0  0  0
  154.9745  141.6404  162.4023 H   0  0  0  0  0  0  0  0  0  0  0  0
  152.1117  142.2699  163.1820 H   0  0  0  0  0  0  0  0  0  0  0  0
  154.3091  143.8978  163.6849 H   0  0  0  0  0  0  0  0  0  0  0  0
  152.1074  144.1576  161.7497 H   0  0  0  0  0  0  0  0  0  0  0  0
  153.8717  144.2003  161.6195 H   0  0  0  0  0  0  0  0  0  0  0  0
  151.9889  140.8827  158.7291 H   0  0  0  0  0  0  0  0  0  0  0  0
  150.6473  141.6197  156.6787 H   0  0  0  0  0  0  0  0  0  0  0  0
  151.0665  145.5837  157.7655 H   0  0  0  0  0  0  0  0  0  0  0  0
  150.2724  143.8972  156.3320 H   0  0  0  0  0  0  0  0  0  0  0  0
  1  2  2  0  0  0  0
  2  3  1  0  0  0  0
  2  4  1  0  0  0  0
  4  9  1  0  0  0  0
  4  5  1  0  0  0  0
  4 16  1  0  0  0  0
  5  6  1  0  0  0  0
  5 17  1  0  0  0  0
  5 18  1  0  0  0  0
  6  7  1  0  0  0  0
  6  8  1  0  0  0  0
  6 19  1  0  0  0  0
  7 20  1  0  0  0  0
  8  9  1  0  0  0  0
  8 21  1  0  0  0  0
  8 22  1  0  0  0  0
  9 10  1  0  0  0  0
 10 15  1  0  0  0  0
 10 11  2  0  0  0  0
 11 12  1  0  0  0  0
 11 23  1  0  0  0  0
 12 13  2  0  0  0  0
 12 24  1  0  0  0  0
 13 14  1  0  0  0  0
 13 26  1  0  0  0  0
 14 15  2  0  0  0  0
 14 25  1  0  0  0  0
M  CHG  1   3  -1
M  CHG  1  13   1
M  END
> <s_m_source_file>
AV-unprocessed.smi

> <i_m_source_file_index>
51

> <i_lp_mmshare_version>
43012

> <i_f3d_flags>
0

> <s_epik_input>
Tz1DKFtPSF0pW0NAQEhdMVtDSDJdW0NAQEhdKFtPSF0pW0NIMl1OMWMyW2NIXVtjSF1uW2NIXW4y

> <s_epik_cmdline>
J2VwaWtfcHl0aG9uJywgJy1waCcsICc3LjAnLCAnLXRuJywgJzgnLCAnLW1hJywgJzIwMCcsICctbWV0YWxfYmluZGluZycsICctaW1hZScsICc8aW5maWxlLm1hZT4nLCAnLW9tYWUnLCAnPG91dGZpbGUubWFlPic=

> <r_lp_tautomer_probability>
0.999336

> <r_epik_Ionization_Penalty>
0.688427

> <r_epik_Ionization_Penalty_Charging>
0.688427

> <r_epik_Ionization_Penalty_Neutral>
1.98379e-07

> <r_epik_State_Penalty>
0.709817

> <r_epik_Charging_Adjusted_Penalty>
1.39824

> <i_epik_Tot_Q>
0

> <i_epik_Tot_abs_Q>
2

> <r_epik_Metal_State_Penalty>
0.873261

> <b_epik_Metal_Only>
0

> <s_lp_Force_Field>
OPLS_2005

> <r_lp_Energy>
15.7

> <b_lp_Chiralities_Consistent>
1

> <s_lp_Variant>
AV-unprocessed.smi:51-6

> <Gold.Version>
5.8.1

> <Gold.Id.Protein>
6NUR|6NUR_protein|mol2

> <Gold.PLP.Fitness>
45.4997

> <Gold.PLP.PLP>
-35.3226

> <Gold.PLP.part.hbond>
-3.0976

> <Gold.PLP.part.metal>
0.0000

> <Gold.PLP.part.buried>
-5.2283

> <Gold.PLP.part.nonpolar>
-26.8882

> <Gold.PLP.part.repulsive>
0.0267

> <Gold.PLP.ligand.clash>
0.0000

> <Gold.PLP.ligand.torsion>
0.9047

> <Gold.PLP.Chemscore.Hbond>
3.9520

> <Gold.PLP.Chemscore.CHOScore>
0.0000

> <Gold.PLP.Chemscore.Metal>
0.0000

> <Gold.Chemscore.Hbonds>
donor molecule, donor type, donor heavy atom, donor atom, acceptor molecule, acceptor atom, score
      L1  H    13    26       P1  8028  1.95
      P1  H  7997  8008       L1     3  1.98

> <Gold.PLP.Chemscore.Internal.Correction>
0.1304

> <Gold.Rescore>
     Score         DG    S(hbond)    S(metal)    S(lipo)     H(rot)  DE(clash)    DE(int)     intcor
     12.23     -14.46       1.93        0.00      58.73       1.70       1.22       1.00       ----

> <Gold.Chemscore.Fitness>
12.2314

> <Gold.Chemscore.DG>
-14.4557

> <Gold.Chemscore.ZeroCoef>
-5.4800

> <Gold.Chemscore.Hbond>
1.9346

> <Gold.Chemscore.Metal>
0.0000

> <Gold.Chemscore.Lipo>
58.7268

> <Gold.Chemscore.Internal_Hbond>
0.0000

> <Gold.Chemscore.DEClash>
1.2194

> <Gold.Chemscore.DEInternal>
1.0049

> <Gold.Chemscore.Rot>
1.7020

> <Gold.Chemscore.Internal.Correction>
   9.000000E+99

> <Gold.Chemscore.Hbonds>
donor molecule, donor type, donor heavy atom, donor atom, acceptor molecule, acceptor atom, score
      L1  H    13    26       P1  8028  0.93
      P1  H  7997  8008       L1     3  0.94

> <Gold.Chemscore.Hbond.Weighted>
-6.4617

> <Gold.Chemscore.Metal.Weighted>
-0.0000

> <Gold.Chemscore.Lipo.Weighted>
-6.8710

> <Gold.Chemscore.Internal_Hbond.Weighted>
0.0000

> <Gold.Chemscore.DEClash.Weighted>
1.2194

> <Gold.Chemscore.DEInternal.Weighted>
1.0049

> <Gold.Chemscore.Rot.Weighted>
4.3571

> <Gold.Chemscore.Internal.Correction.Weighted>
   9.000000E+99

> <Gold.Protein.RotatedTorsions>
[ 6907 6896 6895 6894 ] final  -76.03 input  -60.11 | X-H torsion
[ 7974 7965 7964 7962 ] final -106.58 input  175.53 | X-H torsion
[ 8008 7997 7996 7995 ] final -112.46 input   59.86 | X-H torsion
[ 10167 10162 10161 10158 ] final  148.55 input  -65.29 | X-H torsion
[ 10718 10713 10712 10709 ] final  175.74 input   66.30 | X-H torsion
[ 10763 10752 10751 10750 ] final -179.63 input  -60.55 | X-H torsion
[ 11005 11000 10999 10996 ] final  -40.57 input  -57.11 | X-H torsion

> <Gold.Protein.ActiveResidues>
 VAL166  LYS551  ARG553  GLY616  TRP617  ASP618  TYR619  PRO620  LYS621  CYS622 
 ASP623  PHE694  ASN695  SER759  ASP760  ASP761  ALA762  ILE779  LEU786  VAL792 
 PHE793  MET794  SER795  GLU796  ALA797  LYS798  CYS799  TRP800  GLU811  SER814 

> <Gold.Protein.RotatedAtoms>
  150.7040  134.4633  159.5390 H   0  0  0  0  0  0  0  0  0  0  0  0  # atno 6907 bound_to 6896
  152.2303  134.8325  160.0483 H   0  0  0  0  0  0  0  0  0  0  0  0  # atno 6908 bound_to 6896
  151.9144  133.3534  159.3911 H   0  0  0  0  0  0  0  0  0  0  0  0  # atno 6909 bound_to 6896
  145.2161  140.9115  143.3286 H   0  0  0  0  0  0  0  0  0  0  0  0  # atno 7974 bound_to 7965
  155.0055  140.0394  157.2378 H   0  0  0  0  0  0  0  0  0  0  0  0  # atno 8008 bound_to 7997
  154.7506  140.2766  155.6273 H   0  0  0  0  0  0  0  0  0  0  0  0  # atno 8009 bound_to 7997
  156.2884  140.2647  156.2258 H   0  0  0  0  0  0  0  0  0  0  0  0  # atno 8010 bound_to 7997
  139.4873  144.5670  151.7125 H   0  0  0  0  0  0  0  0  0  0  0  0  # atno 10167 bound_to 10162
  156.9304  130.9969  151.2988 H   0  0  0  0  0  0  0  0  0  0  0  0  # atno 10718 bound_to 10713
  154.5326  135.2801  155.1166 H   0  0  0  0  0  0  0  0  0  0  0  0  # atno 10763 bound_to 10752
  154.2680  135.6309  153.5303 H   0  0  0  0  0  0  0  0  0  0  0  0  # atno 10764 bound_to 10752
  152.9960  135.5621  154.5844 H   0  0  0  0  0  0  0  0  0  0  0  0  # atno 10765 bound_to 10752
  141.0184  133.6874  156.2340 H   0  0  0  0  0  0  0  0  0  0  0  0  # atno 11005 bound_to 11000
  144.9810  139.3783  143.6262 LP  0  0  0  0  0  0  0  0  0  0  0  0  # atno 17320 bound_to 7965
  146.3387  139.8951  142.8803 LP  0  0  0  0  0  0  0  0  0  0  0  0  # atno 17321 bound_to 7965
  140.5250  144.0819  150.6035 LP  0  0  0  0  0  0  0  0  0  0  0  0  # atno 17342 bound_to 10162
  140.3790  143.2813  152.0192 LP  0  0  0  0  0  0  0  0  0  0  0  0  # atno 17343 bound_to 10162
  157.5851  130.8403  149.8577 LP  0  0  0  0  0  0  0  0  0  0  0  0  # atno 17370 bound_to 10713
  156.0450  130.3730  150.1340 LP  0  0  0  0  0  0  0  0  0  0  0  0  # atno 17371 bound_to 10713
  140.6615  134.4963  157.5583 LP  0  0  0  0  0  0  0  0  0  0  0  0  # atno 17394 bound_to 11000
  139.9131  134.8303  156.1459 LP  0  0  0  0  0  0  0  0  0  0  0  0  # atno 17395 bound_to 11000

$$$$
