AV-unprocessed.smi:1338|AV-procd|sdf|5500|dock4
  -GOLD-   22720 5 83D 1   1.00000     0.00000
 Structure written by MMmdl.
 40 41  0  0  0  0  0  0  0  0  1 V2000
  146.6990  138.5861  152.6373 C   0  0  0  0  0  0  0  0  0  0  0  0
  147.8055  139.1442  153.5057 C   0  0  0  0  0  0  0  0  0  0  0  0
  148.9444  138.3566  153.5311 N   0  0  0  0  0  0  0  0  0  0  0  0
  150.0152  138.7908  154.2924 C   0  0  0  0  0  0  0  0  0  0  0  0
  151.2255  137.8735  154.2587 C   0  0  0  0  0  0  0  0  0  0  0  0
  149.9515  139.9482  154.9988 C   0  0  0  0  0  0  0  0  0  0  0  0
  151.1107  140.4619  155.8507 C   0  0  0  0  0  0  0  0  0  0  0  0
  150.7151  141.0231  157.2176 C   0  0  0  0  0  0  0  0  0  0  0  0
  149.6640  140.6644  157.7480 O   0  0  0  0  0  0  0  0  0  0  0  0
  151.5674  141.8943  157.7794 N   0  0  0  0  0  0  0  0  0  0  0  0
  151.3910  142.5262  159.0833 C   0  0  0  0  0  0  0  0  0  0  0  0
  151.2220  144.0520  158.9297 C   0  0  0  0  0  0  0  0  0  0  0  0
  151.1106  144.7452  160.2973 C   0  0  0  0  0  0  0  0  0  0  0  0
  152.3141  144.4108  161.1926 C   0  0  0  0  0  0  0  0  0  0  0  0
  152.4819  142.8915  161.3517 C   0  0  0  0  0  0  0  0  0  0  0  0
  152.5959  142.1970  159.9848 C   0  0  0  0  0  0  0  0  0  0  0  0
  148.7006  140.7418  154.9424 C   0  0  0  0  0  0  0  0  0  0  0  0
  148.5734  141.7903  155.5732 O   0  0  0  0  0  0  0  0  0  0  0  0
  147.6477  140.2623  154.1465 N   0  0  0  0  0  0  0  0  0  0  0  0
  149.0336  137.4894  153.0214 H   0  0  0  0  0  0  0  0  0  0  0  0
  145.8659  139.2868  152.5692 H   0  0  0  0  0  0  0  0  0  0  0  0
  146.3249  137.6509  153.0548 H   0  0  0  0  0  0  0  0  0  0  0  0
  147.0649  138.3947  151.6280 H   0  0  0  0  0  0  0  0  0  0  0  0
  152.0946  138.4013  153.8656 H   0  0  0  0  0  0  0  0  0  0  0  0
  151.0514  137.0020  153.6263 H   0  0  0  0  0  0  0  0  0  0  0  0
  151.4612  137.5157  155.2611 H   0  0  0  0  0  0  0  0  0  0  0  0
  151.6708  141.2303  155.3168 H   0  0  0  0  0  0  0  0  0  0  0  0
  151.8254  139.6496  155.9879 H   0  0  0  0  0  0  0  0  0  0  0  0
  152.4058  142.1315  157.2692 H   0  0  0  0  0  0  0  0  0  0  0  0
  150.4959  142.1193  159.5580 H   0  0  0  0  0  0  0  0  0  0  0  0
  152.0717  144.4650  158.3838 H   0  0  0  0  0  0  0  0  0  0  0  0
  150.3355  144.2756  158.3350 H   0  0  0  0  0  0  0  0  0  0  0  0
  151.0363  145.8245  160.1620 H   0  0  0  0  0  0  0  0  0  0  0  0
  150.1899  144.4314  160.7909 H   0  0  0  0  0  0  0  0  0  0  0  0
  153.2207  144.8356  160.7598 H   0  0  0  0  0  0  0  0  0  0  0  0
  152.1904  144.8760  162.1709 H   0  0  0  0  0  0  0  0  0  0  0  0
  153.3657  142.6762  161.9529 H   0  0  0  0  0  0  0  0  0  0  0  0
  151.6298  142.4849  161.8979 H   0  0  0  0  0  0  0  0  0  0  0  0
  152.6730  141.1183  160.1272 H   0  0  0  0  0  0  0  0  0  0  0  0
  153.5200  142.5112  159.4973 H   0  0  0  0  0  0  0  0  0  0  0  0
  1 21  1  0  0  0  0
  1 22  1  0  0  0  0
  1 23  1  0  0  0  0
  1  2  1  0  0  0  0
  2  3  1  0  0  0  0
  2 19  2  0  0  0  0
  3  4  1  0  0  0  0
  3 20  1  0  0  0  0
  4  6  2  0  0  0  0
  4  5  1  0  0  0  0
  5 24  1  0  0  0  0
  5 25  1  0  0  0  0
  5 26  1  0  0  0  0
  6 17  1  0  0  0  0
  6  7  1  0  0  0  0
  7  8  1  0  0  0  0
  7 27  1  0  0  0  0
  7 28  1  0  0  0  0
  8  9  2  0  0  0  0
  8 10  1  0  0  0  0
 10 11  1  0  0  0  0
 10 29  1  0  0  0  0
 11 16  1  0  0  0  0
 11 12  1  0  0  0  0
 11 30  1  0  0  0  0
 12 13  1  0  0  0  0
 12 31  1  0  0  0  0
 12 32  1  0  0  0  0
 13 14  1  0  0  0  0
 13 33  1  0  0  0  0
 13 34  1  0  0  0  0
 14 15  1  0  0  0  0
 14 35  1  0  0  0  0
 14 36  1  0  0  0  0
 15 16  1  0  0  0  0
 15 37  1  0  0  0  0
 15 38  1  0  0  0  0
 16 39  1  0  0  0  0
 16 40  1  0  0  0  0
 17 18  2  0  0  0  0
 17 19  1  0  0  0  0
M  END
> <s_m_source_file>
AV-unprocessed.smi

> <i_m_source_file_index>
1338

> <i_lp_mmshare_version>
43012

> <i_f3d_flags>
0

> <s_epik_input>
W0NIM11jMW5jKFtDSDNdKWMoYyg9TylbbkhdMSlbQ0gyXUMoPU8pW05IXVtDSF0yW0NIMl1bQ0gyXVtDSDJdW0NIMl1bQ0gyXTI=

> <s_epik_cmdline>
J2VwaWtfcHl0aG9uJywgJy1waCcsICc3LjAnLCAnLXRuJywgJzgnLCAnLW1hJywgJzIwMCcsICctbWV0YWxfYmluZGluZycsICctaW1hZScsICc8aW5maWxlLm1hZT4nLCAnLW9tYWUnLCAnPG91dGZpbGUubWFlPic=

> <r_lp_tautomer_probability>
0.156392

> <r_epik_Ionization_Penalty>
0.0136832

> <r_epik_Ionization_Penalty_Charging>
0.0135532

> <r_epik_Ionization_Penalty_Neutral>
0.000130025

> <r_epik_State_Penalty>
1.15342

> <r_epik_Charging_Adjusted_Penalty>
1.16697

> <i_epik_Tot_Q>
0

> <i_epik_Tot_abs_Q>
0

> <r_epik_Metal_State_Penalty>
1.31441

> <b_epik_Metal_Only>
0

> <s_lp_Force_Field>
OPLS_2005

> <r_lp_Energy>
13.63

> <b_lp_Chiralities_Consistent>
1

> <s_lp_Variant>
AV-unprocessed.smi:1338-2

> <Gold.Version>
5.8.1

> <Gold.Id.Protein>
6NUR|6NUR_protein|mol2

> <Gold.PLP.Fitness>
41.9294

> <Gold.PLP.PLP>
-40.0880

> <Gold.PLP.part.hbond>
-2.0000

> <Gold.PLP.part.metal>
0.0000

> <Gold.PLP.part.buried>
-2.9798

> <Gold.PLP.part.nonpolar>
-36.0088

> <Gold.PLP.part.repulsive>
2.0658

> <Gold.PLP.ligand.clash>
0.0000

> <Gold.PLP.ligand.torsion>
0.5816

> <Gold.PLP.Chemscore.Hbond>
1.0000

> <Gold.PLP.Chemscore.CHOScore>
0.0000

> <Gold.PLP.Chemscore.Metal>
0.0000

> <Gold.Chemscore.Hbonds>
donor molecule, donor type, donor heavy atom, donor atom, acceptor molecule, acceptor atom, score
      L1  H     3    20       P1  7948  1.00

> <Gold.PLP.Chemscore.Internal.Correction>
0.0045

> <Gold.Rescore>
     Score         DG    S(hbond)    S(metal)    S(lipo)     H(rot)  DE(clash)    DE(int)     intcor
     12.13     -16.84       0.96        0.00     102.25       1.49       0.45       4.26       ----

> <Gold.Chemscore.Fitness>
12.1255

> <Gold.Chemscore.DG>
-16.8389

> <Gold.Chemscore.ZeroCoef>
-5.4800

> <Gold.Chemscore.Hbond>
0.9644

> <Gold.Chemscore.Metal>
0.0000

> <Gold.Chemscore.Lipo>
102.2475

> <Gold.Chemscore.Internal_Hbond>
0.0000

> <Gold.Chemscore.DEClash>
0.4526

> <Gold.Chemscore.DEInternal>
4.2607

> <Gold.Chemscore.Rot>
1.4942

> <Gold.Chemscore.Internal.Correction>
   9.000000E+99

> <Gold.Chemscore.Hbonds>
donor molecule, donor type, donor heavy atom, donor atom, acceptor molecule, acceptor atom, score
      L1  H     3    20       P1  7948  1.00

> <Gold.Chemscore.Hbond.Weighted>
-3.2212

> <Gold.Chemscore.Metal.Weighted>
-0.0000

> <Gold.Chemscore.Lipo.Weighted>
-11.9630

> <Gold.Chemscore.Internal_Hbond.Weighted>
0.0000

> <Gold.Chemscore.DEClash.Weighted>
0.4526

> <Gold.Chemscore.DEInternal.Weighted>
4.2607

> <Gold.Chemscore.Rot.Weighted>
3.8253

> <Gold.Chemscore.Internal.Correction.Weighted>
   9.000000E+99

> <Gold.Protein.RotatedTorsions>
[ 6907 6896 6895 6894 ] final  -52.42 input  -60.11 | X-H torsion
[ 7974 7965 7964 7962 ] final  -98.33 input  175.53 | X-H torsion
[ 8008 7997 7996 7995 ] final  -94.70 input   59.86 | X-H torsion
[ 10167 10162 10161 10158 ] final -152.77 input  -65.29 | X-H torsion
[ 10718 10713 10712 10709 ] final  -16.42 input   66.30 | X-H torsion
[ 10763 10752 10751 10750 ] final  -55.24 input  -60.55 | X-H torsion
[ 11005 11000 10999 10996 ] final -164.30 input  -57.11 | X-H torsion

> <Gold.Protein.ActiveResidues>
 VAL166  LYS551  ARG553  GLY616  TRP617  ASP618  TYR619  PRO620  LYS621  CYS622 
 ASP623  PHE694  ASN695  SER759  ASP760  ASP761  ALA762  ILE779  LEU786  VAL792 
 PHE793  MET794  SER795  GLU796  ALA797  LYS798  CYS799  TRP800  GLU811  SER814 

> <Gold.Protein.RotatedAtoms>
  150.8520  134.7847  159.7015 H   0  0  0  0  0  0  0  0  0  0  0  0  # atno 6907 bound_to 6896
  152.4582  134.5241  159.9801 H   0  0  0  0  0  0  0  0  0  0  0  0  # atno 6908 bound_to 6896
  151.5360  133.3403  159.2962 H   0  0  0  0  0  0  0  0  0  0  0  0  # atno 6909 bound_to 6896
  145.3220  140.9423  143.2710 H   0  0  0  0  0  0  0  0  0  0  0  0  # atno 7974 bound_to 7965
  154.7518  140.0487  157.0899 H   0  0  0  0  0  0  0  0  0  0  0  0  # atno 8008 bound_to 7997
  155.0048  140.3129  155.4833 H   0  0  0  0  0  0  0  0  0  0  0  0  # atno 8009 bound_to 7997
  156.2886  140.2195  156.5159 H   0  0  0  0  0  0  0  0  0  0  0  0  # atno 8010 bound_to 7997
  139.7153  143.9043  152.2484 H   0  0  0  0  0  0  0  0  0  0  0  0  # atno 10167 bound_to 10162
  156.5878  130.4791  149.6292 H   0  0  0  0  0  0  0  0  0  0  0  0  # atno 10718 bound_to 10713
  154.1877  135.6432  153.5051 H   0  0  0  0  0  0  0  0  0  0  0  0  # atno 10763 bound_to 10752
  153.0043  135.5421  154.6448 H   0  0  0  0  0  0  0  0  0  0  0  0  # atno 10764 bound_to 10752
  154.5829  135.2927  155.0687 H   0  0  0  0  0  0  0  0  0  0  0  0  # atno 10765 bound_to 10752
  140.5885  134.5069  157.5189 H   0  0  0  0  0  0  0  0  0  0  0  0  # atno 11005 bound_to 11000
  144.8932  139.4747  143.6668 LP  0  0  0  0  0  0  0  0  0  0  0  0  # atno 17320 bound_to 7965
  146.3079  139.7642  142.9042 LP  0  0  0  0  0  0  0  0  0  0  0  0  # atno 17321 bound_to 7965
  139.8923  144.6958  150.8756 LP  0  0  0  0  0  0  0  0  0  0  0  0  # atno 17342 bound_to 10162
  140.7742  143.3577  151.1890 LP  0  0  0  0  0  0  0  0  0  0  0  0  # atno 17343 bound_to 10162
  156.2576  130.6943  151.1701 LP  0  0  0  0  0  0  0  0  0  0  0  0  # atno 17370 bound_to 10713
  157.7311  131.0611  150.5694 LP  0  0  0  0  0  0  0  0  0  0  0  0  # atno 17371 bound_to 10713
  139.9285  134.8009  156.0999 LP  0  0  0  0  0  0  0  0  0  0  0  0  # atno 17394 bound_to 11000
  141.0950  133.6699  156.2626 LP  0  0  0  0  0  0  0  0  0  0  0  0  # atno 17395 bound_to 11000

$$$$
