AV-unprocessed.smi:2278|AV-procd|sdf|9181|dock7
  -GOLD-   2272012393D 1   1.00000     0.00000
 Structure written by MMmdl.
 46 47  0  0  0  0  0  0  0  0  2 V2000
  152.1360  139.5925  155.9648 C   0  0  0  0  0  0  0  0  0  0  0  0
  150.7592  139.7884  155.3555 C   0  0  0  0  0  0  0  0  0  0  0  0
  150.2396  138.6867  154.6700 N   0  0  0  0  0  0  0  0  0  0  0  0
  149.0709  138.7606  154.1227 C   0  0  0  0  0  0  0  0  0  0  0  0
  148.2918  139.9277  154.1972 N   0  0  0  0  0  0  0  0  0  0  0  0
  146.9750  139.8709  153.5376 C   0  0  0  0  0  0  0  0  0  0  0  0
  146.8351  138.6631  152.5831 C   0  0  2  0  0  0  0  0  0  0  0  0
  146.1845  139.1156  151.4126 O   0  0  0  0  0  0  0  0  0  0  0  0
  146.0158  137.4956  153.1766 C   0  0  0  0  0  0  0  0  0  0  0  0
  146.2142  136.2222  152.4382 N   0  3  2  0  0  0  0  0  0  0  0  0
  145.2479  136.0642  151.3213 C   0  0  0  0  0  0  0  0  0  0  0  0
  145.5609  134.8098  150.4856 C   0  0  0  0  0  0  0  0  0  0  0  0
  145.6092  133.5327  151.3445 C   0  0  2  0  0  0  0  0  0  0  0  0
  144.2137  133.0556  151.7839 C   0  0  0  0  0  0  0  0  0  0  0  0
  146.5645  133.7517  152.5317 C   0  0  0  0  0  0  0  0  0  0  0  0
  146.2264  135.0272  153.3234 C   0  0  0  0  0  0  0  0  0  0  0  0
  148.7282  141.0505  154.8389 C   0  0  0  0  0  0  0  0  0  0  0  0
  148.0389  142.0704  154.8994 O   0  0  0  0  0  0  0  0  0  0  0  0
  150.0588  140.9506  155.4595 C   0  0  0  0  0  0  0  0  0  0  0  0
  150.5707  142.1809  156.1982 C   0  0  0  0  0  0  0  0  0  0  0  0
  152.8397  140.3208  155.5607 H   0  0  0  0  0  0  0  0  0  0  0  0
  152.5278  138.5970  155.7511 H   0  0  0  0  0  0  0  0  0  0  0  0
  152.0949  139.7103  157.0479 H   0  0  0  0  0  0  0  0  0  0  0  0
  148.6189  137.9296  153.5781 H   0  0  0  0  0  0  0  0  0  0  0  0
  146.1643  139.8612  154.2687 H   0  0  0  0  0  0  0  0  0  0  0  0
  146.8190  140.7960  152.9783 H   0  0  0  0  0  0  0  0  0  0  0  0
  147.8303  138.3278  152.2932 H   0  0  0  0  0  0  0  0  0  0  0  0
  145.3582  139.5053  151.6566 H   0  0  0  0  0  0  0  0  0  0  0  0
  146.2693  137.3277  154.2232 H   0  0  0  0  0  0  0  0  0  0  0  0
  144.9609  137.7745  153.1613 H   0  0  0  0  0  0  0  0  0  0  0  0
  144.2323  136.0194  151.7171 H   0  0  0  0  0  0  0  0  0  0  0  0
  145.2923  136.9397  150.6723 H   0  0  0  0  0  0  0  0  0  0  0  0
  144.8288  134.7000  149.6850 H   0  0  0  0  0  0  0  0  0  0  0  0
  146.5259  134.9458  149.9950 H   0  0  0  0  0  0  0  0  0  0  0  0
  146.0270  132.7362  150.7274 H   0  0  0  0  0  0  0  0  0  0  0  0
  143.7036  133.7902  152.4065 H   0  0  0  0  0  0  0  0  0  0  0  0
  144.2805  132.1299  152.3561 H   0  0  0  0  0  0  0  0  0  0  0  0
  143.5787  132.8589  150.9200 H   0  0  0  0  0  0  0  0  0  0  0  0
  146.5498  132.8852  153.1938 H   0  0  0  0  0  0  0  0  0  0  0  0
  147.5866  133.8284  152.1584 H   0  0  0  0  0  0  0  0  0  0  0  0
  146.9626  135.1498  154.1167 H   0  0  0  0  0  0  0  0  0  0  0  0
  145.2578  134.9245  153.8146 H   0  0  0  0  0  0  0  0  0  0  0  0
  149.8880  142.4441  157.0067 H   0  0  0  0  0  0  0  0  0  0  0  0
  150.6315  143.0302  155.5170 H   0  0  0  0  0  0  0  0  0  0  0  0
  151.5576  142.0403  156.6362 H   0  0  0  0  0  0  0  0  0  0  0  0
  147.1274  136.2863  152.0109 H   0  0  0  0  0  0  0  0  0  0  0  0
  1  2  1  0  0  0  0
  1 21  1  0  0  0  0
  1 22  1  0  0  0  0
  1 23  1  0  0  0  0
  2 19  2  0  0  0  0
  2  3  1  0  0  0  0
  3  4  2  0  0  0  0
  4  5  1  0  0  0  0
  4 24  1  0  0  0  0
  5  6  1  0  0  0  0
  5 17  1  0  0  0  0
  6  7  1  0  0  0  0
  6 25  1  0  0  0  0
  6 26  1  0  0  0  0
  7  8  1  0  0  0  0
  7  9  1  0  0  0  0
  7 27  1  0  0  0  0
  8 28  1  0  0  0  0
  9 10  1  0  0  0  0
  9 29  1  0  0  0  0
  9 30  1  0  0  0  0
 10 16  1  0  0  0  0
 10 11  1  0  0  0  0
 10 46  1  0  0  0  0
 11 12  1  0  0  0  0
 11 31  1  0  0  0  0
 11 32  1  0  0  0  0
 12 13  1  0  0  0  0
 12 33  1  0  0  0  0
 12 34  1  0  0  0  0
 13 14  1  0  0  0  0
 13 15  1  0  0  0  0
 13 35  1  0  0  0  0
 14 36  1  0  0  0  0
 14 37  1  0  0  0  0
 14 38  1  0  0  0  0
 15 16  1  0  0  0  0
 15 39  1  0  0  0  0
 15 40  1  0  0  0  0
 16 41  1  0  0  0  0
 16 42  1  0  0  0  0
 17 18  2  0  0  0  0
 17 19  1  0  0  0  0
 19 20  1  0  0  0  0
 20 43  1  0  0  0  0
 20 44  1  0  0  0  0
 20 45  1  0  0  0  0
M  CHG  1  10   1
M  END
> <s_m_source_file>
AV-unprocessed.smi

> <i_m_source_file_index>
2278

> <i_lp_mmshare_version>
43012

> <i_f3d_flags>
0

> <s_epik_input>
W0NIM11jMW5bY0hdbihjKD1PKWMxW0NIM10pW0NIMl1bQ0BIXShbT0hdKVtDSDJdTjJbQ0gyXVtDSDJdW0NIXShbQ0gzXSlbQ0gyXVtDSDJdMg==

> <s_epik_cmdline>
J2VwaWtfcHl0aG9uJywgJy1waCcsICc3LjAnLCAnLXRuJywgJzgnLCAnLW1hJywgJzIwMCcsICctbWV0YWxfYmluZGluZycsICctaW1hZScsICc8aW5maWxlLm1hZT4nLCAnLW9tYWUnLCAnPG91dGZpbGUubWFlPic=

> <r_lp_tautomer_probability>
1

> <r_epik_Ionization_Penalty>
0.00139489

> <r_epik_Ionization_Penalty_Charging>
0.00136819

> <r_epik_Ionization_Penalty_Neutral>
2.66975e-05

> <r_epik_State_Penalty>
0.000910892

> <r_epik_Charging_Adjusted_Penalty>
0.00227908

> <i_epik_Tot_Q>
1

> <i_epik_Tot_abs_Q>
1

> <r_epik_Metal_State_Penalty>
-0

> <b_epik_Metal_Only>
0

> <s_lp_Force_Field>
OPLS_2005

> <r_lp_Energy>
30.3115

> <b_lp_Chiralities_Consistent>
1

> <s_lp_Variant>
AV-unprocessed.smi:2278-3

> <Gold.Version>
5.8.1

> <Gold.Id.Protein>
6NUR|6NUR_protein|mol2

> <Gold.PLP.Fitness>
44.3614

> <Gold.PLP.PLP>
-36.2356

> <Gold.PLP.part.hbond>
-3.0000

> <Gold.PLP.part.metal>
0.0000

> <Gold.PLP.part.buried>
-2.7152

> <Gold.PLP.part.nonpolar>
-32.6555

> <Gold.PLP.part.repulsive>
1.8352

> <Gold.PLP.ligand.clash>
1.2155

> <Gold.PLP.ligand.torsion>
1.3430

> <Gold.PLP.Chemscore.Hbond>
3.0000

> <Gold.PLP.Chemscore.CHOScore>
1.0000

> <Gold.PLP.Chemscore.Metal>
0.0000

> <Gold.Chemscore.Hbonds>
donor molecule, donor type, donor heavy atom, donor atom, acceptor molecule, acceptor atom, score
      L1  H     8    28       P1 10175  0.88
      L1  H    10    46       P1  7948  2.00
      L1  C     4    24       P1  7948  1.00

> <Gold.PLP.Chemscore.Internal.Correction>
0.0274

> <Gold.Rescore>
     Score         DG    S(hbond)    S(metal)    S(lipo)     H(rot)  DE(clash)    DE(int)     intcor
     13.52     -15.18       1.97        0.00      74.67       2.20       0.18       1.48       ----

> <Gold.Chemscore.Fitness>
13.5169

> <Gold.Chemscore.DG>
-15.1839

> <Gold.Chemscore.ZeroCoef>
-5.4800

> <Gold.Chemscore.Hbond>
1.9749

> <Gold.Chemscore.Metal>
0.0000

> <Gold.Chemscore.Lipo>
74.6675

> <Gold.Chemscore.Internal_Hbond>
0.0000

> <Gold.Chemscore.DEClash>
0.1834

> <Gold.Chemscore.DEInternal>
1.4836

> <Gold.Chemscore.Rot>
2.1986

> <Gold.Chemscore.Internal.Correction>
   9.000000E+99

> <Gold.Chemscore.Hbonds>
donor molecule, donor type, donor heavy atom, donor atom, acceptor molecule, acceptor atom, score
      L1  H     8    28       P1 10175  0.64
      L1  H    10    46       P1  7948  1.00

> <Gold.Chemscore.Hbond.Weighted>
-6.5963

> <Gold.Chemscore.Metal.Weighted>
-0.0000

> <Gold.Chemscore.Lipo.Weighted>
-8.7361

> <Gold.Chemscore.Internal_Hbond.Weighted>
0.0000

> <Gold.Chemscore.DEClash.Weighted>
0.1834

> <Gold.Chemscore.DEInternal.Weighted>
1.4836

> <Gold.Chemscore.Rot.Weighted>
5.6285

> <Gold.Chemscore.Internal.Correction.Weighted>
   9.000000E+99

> <Gold.Protein.RotatedTorsions>
[ 6907 6896 6895 6894 ] final -128.64 input  -60.11 | X-H torsion
[ 7974 7965 7964 7962 ] final  119.84 input  175.53 | X-H torsion
[ 8008 7997 7996 7995 ] final  -90.89 input   59.86 | X-H torsion
[ 10167 10162 10161 10158 ] final  107.40 input  -65.29 | X-H torsion
[ 10718 10713 10712 10709 ] final  -82.87 input   66.30 | X-H torsion
[ 10763 10752 10751 10750 ] final -153.87 input  -60.55 | X-H torsion
[ 11005 11000 10999 10996 ] final  -51.91 input  -57.11 | X-H torsion

> <Gold.Protein.ActiveResidues>
 VAL166  LYS551  ARG553  GLY616  TRP617  ASP618  TYR619  PRO620  LYS621  CYS622 
 ASP623  PHE694  ASN695  SER759  ASP760  ASP761  ALA762  ILE779  LEU786  VAL792 
 PHE793  MET794  SER795  GLU796  ALA797  LYS798  CYS799  TRP800  GLU811  SER814 

> <Gold.Protein.RotatedAtoms>
  150.9201  133.6891  159.2833 H   0  0  0  0  0  0  0  0  0  0  0  0  # atno 6907 bound_to 6896
  151.4348  135.1012  159.9662 H   0  0  0  0  0  0  0  0  0  0  0  0  # atno 6908 bound_to 6896
  152.4975  133.8623  159.7311 H   0  0  0  0  0  0  0  0  0  0  0  0  # atno 6909 bound_to 6896
  145.1383  139.3284  143.4629 H   0  0  0  0  0  0  0  0  0  0  0  0  # atno 7974 bound_to 7965
  154.7040  140.0525  157.0486 H   0  0  0  0  0  0  0  0  0  0  0  0  # atno 8008 bound_to 7997
  155.0645  140.3193  155.4631 H   0  0  0  0  0  0  0  0  0  0  0  0  # atno 8009 bound_to 7997
  156.2769  140.2093  156.5773 H   0  0  0  0  0  0  0  0  0  0  0  0  # atno 8010 bound_to 7997
  139.6930  144.7105  151.1315 H   0  0  0  0  0  0  0  0  0  0  0  0  # atno 10167 bound_to 10162
  156.0026  130.4647  150.4170 H   0  0  0  0  0  0  0  0  0  0  0  0  # atno 10718 bound_to 10713
  154.7898  135.3203  154.7803 H   0  0  0  0  0  0  0  0  0  0  0  0  # atno 10763 bound_to 10752
  153.8495  135.6863  153.4798 H   0  0  0  0  0  0  0  0  0  0  0  0  # atno 10764 bound_to 10752
  153.1564  135.4678  154.9650 H   0  0  0  0  0  0  0  0  0  0  0  0  # atno 10765 bound_to 10752
  141.0896  133.6635  156.3946 H   0  0  0  0  0  0  0  0  0  0  0  0  # atno 11005 bound_to 11000
  146.3507  140.1409  142.8594 LP  0  0  0  0  0  0  0  0  0  0  0  0  # atno 17320 bound_to 7965
  145.0560  140.9053  143.4967 LP  0  0  0  0  0  0  0  0  0  0  0  0  # atno 17321 bound_to 7965
  140.7688  143.5531  150.9182 LP  0  0  0  0  0  0  0  0  0  0  0  0  # atno 17342 bound_to 10162
  139.9210  143.6606  152.3097 LP  0  0  0  0  0  0  0  0  0  0  0  0  # atno 17343 bound_to 10162
  157.2229  131.0486  151.2536 LP  0  0  0  0  0  0  0  0  0  0  0  0  # atno 17370 bound_to 10713
  157.3783  130.7218  149.6612 LP  0  0  0  0  0  0  0  0  0  0  0  0  # atno 17371 bound_to 10713
  140.5283  134.6238  157.5341 LP  0  0  0  0  0  0  0  0  0  0  0  0  # atno 17394 bound_to 11000
  139.9720  134.7278  156.0023 LP  0  0  0  0  0  0  0  0  0  0  0  0  # atno 17395 bound_to 11000

$$$$
