AV-unprocessed.smi:1218|AV-procd|sdf|5107|dock6
  -GOLD-   22720 4163D 1   1.00000     0.00000
 Structure written by MMmdl.
 45 46  0  0  0  0  0  0  0  0  2 V2000
  145.5745  131.2133  150.7982 C   0  0  0  0  0  0  0  0  0  0  0  0
  145.4179  132.6531  151.3103 C   0  0  0  0  0  0  0  0  0  0  0  0
  144.6147  133.4953  150.3048 C   0  0  0  0  0  0  0  0  0  0  0  0
  146.7996  133.2745  151.6095 C   0  0  0  0  0  0  0  0  0  0  0  0
  147.6600  132.4111  152.4643 N   0  3  2  0  0  0  0  0  0  0  0  0
  146.9014  131.6455  153.4828 C   0  0  0  0  0  0  0  0  0  0  0  0
  146.5191  132.5390  154.6758 C   0  0  0  0  0  0  0  0  0  0  0  0
  147.6971  133.1104  155.2297 O   0  0  0  0  0  0  0  0  0  0  0  0
  148.3872  133.9515  154.3101 C   0  0  1  0  0  0  0  0  0  0  0  0
  149.6025  134.5738  155.0214 C   0  0  0  0  0  0  0  0  0  0  0  0
  149.8666  135.9332  154.5617 N   0  0  0  0  0  0  0  0  0  0  0  0
  150.8513  136.7266  155.0105 C   0  0  0  0  0  0  0  0  0  0  0  0
  151.6485  136.3832  155.8841 O   0  0  0  0  0  0  0  0  0  0  0  0
  150.9395  138.1190  154.3765 C   0  0  0  0  0  0  0  0  0  0  0  0
  151.0364  139.1704  155.3759 N   0  0  0  0  0  0  0  0  0  0  0  0
  151.6543  139.1288  156.6091 C   0  0  0  0  0  0  0  0  0  0  0  0
  151.4903  140.3545  157.1880 C   0  0  0  0  0  0  0  0  0  0  0  0
  150.7530  141.0902  156.2185 C   0  0  0  0  0  0  0  0  0  0  0  0
  150.4855  140.3803  155.1342 N   0  0  0  0  0  0  0  0  0  0  0  0
  148.8163  133.1012  153.0931 C   0  0  0  0  0  0  0  0  0  0  0  0
  146.1389  131.1817  149.8656 H   0  0  0  0  0  0  0  0  0  0  0  0
  144.6030  130.7534  150.6142 H   0  0  0  0  0  0  0  0  0  0  0  0
  146.0981  130.5910  151.5248 H   0  0  0  0  0  0  0  0  0  0  0  0
  144.8412  132.5934  152.2325 H   0  0  0  0  0  0  0  0  0  0  0  0
  145.1424  133.5901  149.3552 H   0  0  0  0  0  0  0  0  0  0  0  0
  144.4268  134.5001  150.6838 H   0  0  0  0  0  0  0  0  0  0  0  0
  143.6450  133.0403  150.1005 H   0  0  0  0  0  0  0  0  0  0  0  0
  147.3167  133.5131  150.6803 H   0  0  0  0  0  0  0  0  0  0  0  0
  146.6372  134.2290  152.1125 H   0  0  0  0  0  0  0  0  0  0  0  0
  146.0176  131.1831  153.0421 H   0  0  0  0  0  0  0  0  0  0  0  0
  147.5299  130.8265  153.8351 H   0  0  0  0  0  0  0  0  0  0  0  0
  145.8200  133.3227  154.3803 H   0  0  0  0  0  0  0  0  0  0  0  0
  146.0231  131.9452  155.4439 H   0  0  0  0  0  0  0  0  0  0  0  0
  147.7255  134.7570  153.9884 H   0  0  0  0  0  0  0  0  0  0  0  0
  149.4738  134.5469  156.1049 H   0  0  0  0  0  0  0  0  0  0  0  0
  150.4932  133.9838  154.8041 H   0  0  0  0  0  0  0  0  0  0  0  0
  149.2578  136.2974  153.8429 H   0  0  0  0  0  0  0  0  0  0  0  0
  151.8119  138.1865  153.7250 H   0  0  0  0  0  0  0  0  0  0  0  0
  150.0592  138.2854  153.7537 H   0  0  0  0  0  0  0  0  0  0  0  0
  152.1512  138.2395  156.9682 H   0  0  0  0  0  0  0  0  0  0  0  0
  151.8435  140.6771  158.1561 H   0  0  0  0  0  0  0  0  0  0  0  0
  150.4083  142.1125  156.2693 H   0  0  0  0  0  0  0  0  0  0  0  0
  149.5227  132.3372  153.4209 H   0  0  0  0  0  0  0  0  0  0  0  0
  149.3519  133.7114  152.3672 H   0  0  0  0  0  0  0  0  0  0  0  0
  148.0439  131.7218  151.8336 H   0  0  0  0  0  0  0  0  0  0  0  0
  1  2  1  0  0  0  0
  1 21  1  0  0  0  0
  1 22  1  0  0  0  0
  1 23  1  0  0  0  0
  2  3  1  0  0  0  0
  2  4  1  0  0  0  0
  2 24  1  0  0  0  0
  3 25  1  0  0  0  0
  3 26  1  0  0  0  0
  3 27  1  0  0  0  0
  4  5  1  0  0  0  0
  4 28  1  0  0  0  0
  4 29  1  0  0  0  0
  5 20  1  0  0  0  0
  5  6  1  0  0  0  0
  5 45  1  0  0  0  0
  6  7  1  0  0  0  0
  6 30  1  0  0  0  0
  6 31  1  0  0  0  0
  7  8  1  0  0  0  0
  7 32  1  0  0  0  0
  7 33  1  0  0  0  0
  8  9  1  0  0  0  0
  9 10  1  0  0  0  0
  9 20  1  0  0  0  0
  9 34  1  0  0  0  0
 10 11  1  0  0  0  0
 10 35  1  0  0  0  0
 10 36  1  0  0  0  0
 11 12  1  0  0  0  0
 11 37  1  0  0  0  0
 12 13  2  0  0  0  0
 12 14  1  0  0  0  0
 14 15  1  0  0  0  0
 14 38  1  0  0  0  0
 14 39  1  0  0  0  0
 15 19  1  0  0  0  0
 15 16  1  0  0  0  0
 16 17  2  0  0  0  0
 16 40  1  0  0  0  0
 17 18  1  0  0  0  0
 17 41  1  0  0  0  0
 18 19  2  0  0  0  0
 18 42  1  0  0  0  0
 20 43  1  0  0  0  0
 20 44  1  0  0  0  0
M  CHG  1   5   1
M  END
> <s_m_source_file>
AV-unprocessed.smi

> <i_m_source_file_index>
1218

> <i_lp_mmshare_version>
43012

> <i_f3d_flags>
0

> <s_epik_input>
W0NIM11bQ0hdKFtDSDNdKVtDSDJdTjFbQ0gyXVtDSDJdT1tDQEhdKFtDSDJdMSlbQ0gyXVtOSF1DKD1PKVtDSDJdbjJbY0hdW2NIXVtjSF1uMg==

> <s_epik_cmdline>
J2VwaWtfcHl0aG9uJywgJy1waCcsICc3LjAnLCAnLXRuJywgJzgnLCAnLW1hJywgJzIwMCcsICctbWV0YWxfYmluZGluZycsICctaW1hZScsICc8aW5maWxlLm1hZT4nLCAnLW9tYWUnLCAnPG91dGZpbGUubWFlPic=

> <r_lp_tautomer_probability>
1

> <r_epik_Ionization_Penalty>
0.0995066

> <r_epik_Ionization_Penalty_Charging>
0.0994921

> <r_epik_Ionization_Penalty_Neutral>
1.44634e-05

> <r_epik_State_Penalty>
0.0895432

> <r_epik_Charging_Adjusted_Penalty>
0.189035

> <i_epik_Tot_Q>
1

> <i_epik_Tot_abs_Q>
1

> <r_epik_Metal_State_Penalty>
0.0895432

> <b_epik_Metal_Only>
0

> <s_lp_Force_Field>
OPLS_2005

> <r_lp_Energy>
22.0385

> <b_lp_Chiralities_Consistent>
1

> <s_lp_Variant>
AV-unprocessed.smi:1218-2

> <Gold.Version>
5.8.1

> <Gold.Id.Protein>
6NUR|6NUR_protein|mol2

> <Gold.PLP.Fitness>
48.0504

> <Gold.PLP.PLP>
-38.6674

> <Gold.PLP.part.hbond>
-4.8231

> <Gold.PLP.part.metal>
0.0000

> <Gold.PLP.part.buried>
-4.0133

> <Gold.PLP.part.nonpolar>
-29.2870

> <Gold.PLP.part.repulsive>
0.2041

> <Gold.PLP.ligand.clash>
0.0000

> <Gold.PLP.ligand.torsion>
1.1787

> <Gold.PLP.Chemscore.Hbond>
3.8640

> <Gold.PLP.Chemscore.CHOScore>
0.0000

> <Gold.PLP.Chemscore.Metal>
0.0000

> <Gold.Chemscore.Hbonds>
donor molecule, donor type, donor heavy atom, donor atom, acceptor molecule, acceptor atom, score
      L1  H     5    45       P1 10747  1.00
      L1  H    11    37       P1  7948  0.80
      P1  H  7989  7998       L1    19  0.85
      P1  H 10752 10764       L1    13  1.00

> <Gold.PLP.Chemscore.Internal.Correction>
0.1485

> <Gold.Rescore>
     Score         DG    S(hbond)    S(metal)    S(lipo)     H(rot)  DE(clash)    DE(int)     intcor
     19.82     -21.93       3.52        0.00      82.92       1.96       0.05       2.06       ----

> <Gold.Chemscore.Fitness>
19.8158

> <Gold.Chemscore.DG>
-21.9256

> <Gold.Chemscore.ZeroCoef>
-5.4800

> <Gold.Chemscore.Hbond>
3.5234

> <Gold.Chemscore.Metal>
0.0000

> <Gold.Chemscore.Lipo>
82.9173

> <Gold.Chemscore.Internal_Hbond>
0.0000

> <Gold.Chemscore.DEClash>
0.0504

> <Gold.Chemscore.DEInternal>
2.0595

> <Gold.Chemscore.Rot>
1.9624

> <Gold.Chemscore.Internal.Correction>
   9.000000E+99

> <Gold.Chemscore.Hbonds>
donor molecule, donor type, donor heavy atom, donor atom, acceptor molecule, acceptor atom, score
      L1  H     5    45       P1 10747  0.95
      L1  H    11    37       P1  7948  0.70
      P1  H  7989  7998       L1    19  0.14
      P1  H 10752 10764       L1    13  0.25

> <Gold.Chemscore.Hbond.Weighted>
-11.7680

> <Gold.Chemscore.Metal.Weighted>
-0.0000

> <Gold.Chemscore.Lipo.Weighted>
-9.7013

> <Gold.Chemscore.Internal_Hbond.Weighted>
0.0000

> <Gold.Chemscore.DEClash.Weighted>
0.0504

> <Gold.Chemscore.DEInternal.Weighted>
2.0595

> <Gold.Chemscore.Rot.Weighted>
5.0237

> <Gold.Chemscore.Internal.Correction.Weighted>
   9.000000E+99

> <Gold.Protein.RotatedTorsions>
[ 6907 6896 6895 6894 ] final -129.43 input  -60.11 | X-H torsion
[ 7974 7965 7964 7962 ] final  -65.28 input  175.53 | X-H torsion
[ 8008 7997 7996 7995 ] final  102.47 input   59.86 | X-H torsion
[ 10167 10162 10161 10158 ] final -117.16 input  -65.29 | X-H torsion
[ 10718 10713 10712 10709 ] final  -78.73 input   66.30 | X-H torsion
[ 10763 10752 10751 10750 ] final  -47.07 input  -60.55 | X-H torsion
[ 11005 11000 10999 10996 ] final  129.29 input  -57.11 | X-H torsion

> <Gold.Protein.ActiveResidues>
 VAL166  LYS551  ARG553  GLY616  TRP617  ASP618  TYR619  PRO620  LYS621  CYS622 
 ASP623  PHE694  ASN695  SER759  ASP760  ASP761  ALA762  ILE779  LEU786  VAL792 
 PHE793  MET794  SER795  GLU796  ALA797  LYS798  CYS799  TRP800  GLU811  SER814 

> <Gold.Protein.RotatedAtoms>
  150.9286  133.6794  159.2815 H   0  0  0  0  0  0  0  0  0  0  0  0  # atno 6907 bound_to 6896
  151.4224  135.0998  159.9627 H   0  0  0  0  0  0  0  0  0  0  0  0  # atno 6908 bound_to 6896
  152.5015  133.8735  159.7365 H   0  0  0  0  0  0  0  0  0  0  0  0  # atno 6909 bound_to 6896
  145.7562  140.8884  143.0453 H   0  0  0  0  0  0  0  0  0  0  0  0  # atno 7974 bound_to 7965
  156.1396  140.3180  155.8475 H   0  0  0  0  0  0  0  0  0  0  0  0  # atno 8008 bound_to 7997
  155.4179  140.0510  157.3044 H   0  0  0  0  0  0  0  0  0  0  0  0  # atno 8009 bound_to 7997
  154.4965  140.2113  155.9448 H   0  0  0  0  0  0  0  0  0  0  0  0  # atno 8010 bound_to 7997
  140.0714  143.4874  152.1977 H   0  0  0  0  0  0  0  0  0  0  0  0  # atno 10167 bound_to 10162
  156.0110  130.4526  150.3541 H   0  0  0  0  0  0  0  0  0  0  0  0  # atno 10718 bound_to 10713
  154.0554  135.6625  153.4805 H   0  0  0  0  0  0  0  0  0  0  0  0  # atno 10763 bound_to 10752
  153.0447  135.5122  154.7710 H   0  0  0  0  0  0  0  0  0  0  0  0  # atno 10764 bound_to 10752
  154.6730  135.3032  154.9683 H   0  0  0  0  0  0  0  0  0  0  0  0  # atno 10765 bound_to 10752
  139.9607  134.9603  156.9126 H   0  0  0  0  0  0  0  0  0  0  0  0  # atno 11005 bound_to 11000
  144.6839  139.9660  143.7481 LP  0  0  0  0  0  0  0  0  0  0  0  0  # atno 17320 bound_to 7965
  146.0308  139.3333  143.0756 LP  0  0  0  0  0  0  0  0  0  0  0  0  # atno 17321 bound_to 7965
  139.5834  144.7520  151.3582 LP  0  0  0  0  0  0  0  0  0  0  0  0  # atno 17342 bound_to 10162
  140.7124  143.7357  150.7591 LP  0  0  0  0  0  0  0  0  0  0  0  0  # atno 17343 bound_to 10162
  157.1633  131.0350  151.2831 LP  0  0  0  0  0  0  0  0  0  0  0  0  # atno 17370 bound_to 10713
  157.4293  130.7481  149.6976 LP  0  0  0  0  0  0  0  0  0  0  0  0  # atno 17371 bound_to 10713
  140.5507  134.0630  155.7368 LP  0  0  0  0  0  0  0  0  0  0  0  0  # atno 17394 bound_to 11000
  141.1284  133.9344  157.2587 LP  0  0  0  0  0  0  0  0  0  0  0  0  # atno 17395 bound_to 11000

$$$$
