AV-unprocessed.smi:3249|AV-procd|sdf|12424|dock9
  -GOLD-   2272018313D 1   1.00000     0.00000
 Structure written by MMmdl.
 44 45  0  0  0  0  0  0  0  0  2 V2000
  152.7391  136.9236  155.4400 C   0  0  0  0  0  0  0  0  0  0  0  0
  152.0501  138.1979  155.0451 C   0  0  0  0  0  0  0  0  0  0  0  0
  152.6175  139.4978  154.9232 C   0  0  0  0  0  0  0  0  0  0  0  0
  151.7342  140.4110  154.5546 N   0  0  0  0  0  0  0  0  0  0  0  0
  150.5739  139.7298  154.4251 N   0  0  0  0  0  0  0  0  0  0  0  0
  149.3554  140.4244  154.0289 C   0  0  1  0  0  0  0  0  0  0  0  0
  148.2523  139.4012  153.6968 C   0  0  0  0  0  0  0  0  0  0  0  0
  148.9101  141.4725  155.0846 C   0  0  1  0  0  0  0  0  0  0  0  0
  147.9355  140.9002  156.1300 C   0  0  0  0  0  0  0  0  0  0  0  0
  150.0876  142.0311  155.7865 N   0  3  0  0  0  0  0  0  0  0  0  0
  150.5808  141.2186  156.9177 C   0  0  0  0  0  0  0  0  0  0  0  0
  151.7741  141.8963  157.6052 C   0  0  1  0  0  0  0  0  0  0  0  0
  151.5433  143.4079  157.7963 C   0  0  0  0  0  0  0  0  0  0  0  0
  152.7100  144.0387  158.5649 C   0  0  0  0  0  0  0  0  0  0  0  0
  152.9440  143.2703  159.8699 C   0  0  0  0  0  0  0  0  0  0  0  0
  153.0956  141.7677  159.5850 C   0  0  0  0  0  0  0  0  0  0  0  0
  151.9520  141.2884  158.8833 O   0  0  0  0  0  0  0  0  0  0  0  0
  150.7379  138.3917  154.7181 C   0  0  0  0  0  0  0  0  0  0  0  0
  153.7192  137.1117  155.8791 H   0  0  0  0  0  0  0  0  0  0  0  0
  152.8915  136.2676  154.5830 H   0  0  0  0  0  0  0  0  0  0  0  0
  152.1610  136.3639  156.1756 H   0  0  0  0  0  0  0  0  0  0  0  0
  153.6397  139.8032  155.0915 H   0  0  0  0  0  0  0  0  0  0  0  0
  149.5909  140.9599  153.1077 H   0  0  0  0  0  0  0  0  0  0  0  0
  147.3787  139.8818  153.2567 H   0  0  0  0  0  0  0  0  0  0  0  0
  147.9229  138.8644  154.5871 H   0  0  0  0  0  0  0  0  0  0  0  0
  148.6084  138.6628  152.9776 H   0  0  0  0  0  0  0  0  0  0  0  0
  148.3864  142.2808  154.5709 H   0  0  0  0  0  0  0  0  0  0  0  0
  147.0015  140.5688  155.6758 H   0  0  0  0  0  0  0  0  0  0  0  0
  147.6764  141.6527  156.8754 H   0  0  0  0  0  0  0  0  0  0  0  0
  148.3712  140.0491  156.6544 H   0  0  0  0  0  0  0  0  0  0  0  0
  150.8407  142.1213  155.1193 H   0  0  0  0  0  0  0  0  0  0  0  0
  149.7704  141.0865  157.6355 H   0  0  0  0  0  0  0  0  0  0  0  0
  150.8607  140.2261  156.5618 H   0  0  0  0  0  0  0  0  0  0  0  0
  152.6693  141.7411  156.9999 H   0  0  0  0  0  0  0  0  0  0  0  0
  151.4267  143.8996  156.8299 H   0  0  0  0  0  0  0  0  0  0  0  0
  150.6148  143.5728  158.3447 H   0  0  0  0  0  0  0  0  0  0  0  0
  153.6126  144.0081  157.9533 H   0  0  0  0  0  0  0  0  0  0  0  0
  152.5062  145.0894  158.7728 H   0  0  0  0  0  0  0  0  0  0  0  0
  153.8301  143.6507  160.3787 H   0  0  0  0  0  0  0  0  0  0  0  0
  152.1024  143.4299  160.5453 H   0  0  0  0  0  0  0  0  0  0  0  0
  153.9997  141.5697  159.0070 H   0  0  0  0  0  0  0  0  0  0  0  0
  153.1904  141.2172  160.5211 H   0  0  0  0  0  0  0  0  0  0  0  0
  149.9153  137.6933  154.6705 H   0  0  0  0  0  0  0  0  0  0  0  0
  149.8500  142.9520  156.1259 H   0  0  0  0  0  0  0  0  0  0  0  0
  1  2  1  0  0  0  0
  1 19  1  0  0  0  0
  1 20  1  0  0  0  0
  1 21  1  0  0  0  0
  2 18  2  0  0  0  0
  2  3  1  0  0  0  0
  3  4  2  0  0  0  0
  3 22  1  0  0  0  0
  4  5  1  0  0  0  0
  5  6  1  0  0  0  0
  5 18  1  0  0  0  0
  6  7  1  0  0  0  0
  6  8  1  0  0  0  0
  6 23  1  0  0  0  0
  7 24  1  0  0  0  0
  7 25  1  0  0  0  0
  7 26  1  0  0  0  0
  8  9  1  0  0  0  0
  8 10  1  0  0  0  0
  8 27  1  0  0  0  0
  9 28  1  0  0  0  0
  9 29  1  0  0  0  0
  9 30  1  0  0  0  0
 10 11  1  0  0  0  0
 10 31  1  0  0  0  0
 10 44  1  0  0  0  0
 11 12  1  0  0  0  0
 11 32  1  0  0  0  0
 11 33  1  0  0  0  0
 12 17  1  0  0  0  0
 12 13  1  0  0  0  0
 12 34  1  0  0  0  0
 13 14  1  0  0  0  0
 13 35  1  0  0  0  0
 13 36  1  0  0  0  0
 14 15  1  0  0  0  0
 14 37  1  0  0  0  0
 14 38  1  0  0  0  0
 15 16  1  0  0  0  0
 15 39  1  0  0  0  0
 15 40  1  0  0  0  0
 16 17  1  0  0  0  0
 16 41  1  0  0  0  0
 16 42  1  0  0  0  0
 18 43  1  0  0  0  0
M  CHG  1  10   1
M  END
> <s_m_source_file>
AV-unprocessed.smi

> <i_m_source_file_index>
3249

> <i_lp_mmshare_version>
43012

> <i_f3d_flags>
0

> <s_epik_input>
W0NIM11jMVtjSF1ubihbY0hdMSlbQ0BIXShbQ0gzXSlbQ0BIXShbQ0gzXSlbTkhdW0NIMl1bQ0BASF0yW0NIMl1bQ0gyXVtDSDJdW0NIMl1PMg==

> <s_epik_cmdline>
J2VwaWtfcHl0aG9uJywgJy1waCcsICc3LjAnLCAnLXRuJywgJzgnLCAnLW1hJywgJzIwMCcsICctbWV0YWxfYmluZGluZycsICctaW1hZScsICc8aW5maWxlLm1hZT4nLCAnLW9tYWUnLCAnPG91dGZpbGUubWFlPic=

> <r_lp_tautomer_probability>
1

> <r_epik_Ionization_Penalty>
0.00659207

> <r_epik_Ionization_Penalty_Charging>
0.00656881

> <r_epik_Ionization_Penalty_Neutral>
2.32662e-05

> <r_epik_State_Penalty>
0.0048654

> <r_epik_Charging_Adjusted_Penalty>
0.0114342

> <i_epik_Tot_Q>
1

> <i_epik_Tot_abs_Q>
1

> <r_epik_Metal_State_Penalty>
-0

> <b_epik_Metal_Only>
0

> <s_lp_Force_Field>
OPLS_2005

> <r_lp_Energy>
18.7987

> <b_lp_Chiralities_Consistent>
1

> <s_lp_Variant>
AV-unprocessed.smi:3249-8

> <Gold.Version>
5.8.1

> <Gold.Id.Protein>
6NUR|6NUR_protein|mol2

> <Gold.PLP.Fitness>
44.5971

> <Gold.PLP.PLP>
-37.7848

> <Gold.PLP.part.hbond>
-2.0000

> <Gold.PLP.part.metal>
0.0000

> <Gold.PLP.part.buried>
-1.9076

> <Gold.PLP.part.nonpolar>
-34.6542

> <Gold.PLP.part.repulsive>
0.2137

> <Gold.PLP.ligand.clash>
0.0000

> <Gold.PLP.ligand.torsion>
1.1385

> <Gold.PLP.Chemscore.Hbond>
3.0000

> <Gold.PLP.Chemscore.CHOScore>
0.0000

> <Gold.PLP.Chemscore.Metal>
0.0000

> <Gold.Chemscore.Hbonds>
donor molecule, donor type, donor heavy atom, donor atom, acceptor molecule, acceptor atom, score
      L1  H    10    44       P1  8028  1.63
      P1  H  7989  7998       L1     4  0.02

> <Gold.PLP.Chemscore.Internal.Correction>
0.0893

> <Gold.Rescore>
     Score         DG    S(hbond)    S(metal)    S(lipo)     H(rot)  DE(clash)    DE(int)     intcor
     18.88     -20.59       1.93        0.00     107.45       1.53       0.12       1.59       ----

> <Gold.Chemscore.Fitness>
18.8765

> <Gold.Chemscore.DG>
-20.5872

> <Gold.Chemscore.ZeroCoef>
-5.4800

> <Gold.Chemscore.Hbond>
1.9342

> <Gold.Chemscore.Metal>
0.0000

> <Gold.Chemscore.Lipo>
107.4544

> <Gold.Chemscore.Internal_Hbond>
0.0000

> <Gold.Chemscore.DEClash>
0.1244

> <Gold.Chemscore.DEInternal>
1.5863

> <Gold.Chemscore.Rot>
1.5333

> <Gold.Chemscore.Internal.Correction>
   9.000000E+99

> <Gold.Chemscore.Hbonds>
donor molecule, donor type, donor heavy atom, donor atom, acceptor molecule, acceptor atom, score
      L1  H    10    44       P1  8028  0.77
      P1  H  7989  7998       L1     4  0.01

> <Gold.Chemscore.Hbond.Weighted>
-6.4602

> <Gold.Chemscore.Metal.Weighted>
-0.0000

> <Gold.Chemscore.Lipo.Weighted>
-12.5722

> <Gold.Chemscore.Internal_Hbond.Weighted>
0.0000

> <Gold.Chemscore.DEClash.Weighted>
0.1244

> <Gold.Chemscore.DEInternal.Weighted>
1.5863

> <Gold.Chemscore.Rot.Weighted>
3.9252

> <Gold.Chemscore.Internal.Correction.Weighted>
   9.000000E+99

> <Gold.Protein.RotatedTorsions>
[ 6907 6896 6895 6894 ] final -138.04 input  -60.11 | X-H torsion
[ 7974 7965 7964 7962 ] final -129.20 input  175.53 | X-H torsion
[ 8008 7997 7996 7995 ] final    2.79 input   59.86 | X-H torsion
[ 10167 10162 10161 10158 ] final  -63.04 input  -65.29 | X-H torsion
[ 10718 10713 10712 10709 ] final  131.68 input   66.30 | X-H torsion
[ 10763 10752 10751 10750 ] final   92.82 input  -60.55 | X-H torsion
[ 11005 11000 10999 10996 ] final -161.45 input  -57.11 | X-H torsion

> <Gold.Protein.ActiveResidues>
 VAL166  LYS551  ARG553  GLY616  TRP617  ASP618  TYR619  PRO620  LYS621  CYS622 
 ASP623  PHE694  ASN695  SER759  ASP760  ASP761  ALA762  ILE779  LEU786  VAL792 
 PHE793  MET794  SER795  GLU796  ALA797  LYS798  CYS799  TRP800  GLU811  SER814 

> <Gold.Protein.RotatedAtoms>
  151.0300  133.5799  159.2661 H   0  0  0  0  0  0  0  0  0  0  0  0  # atno 6907 bound_to 6896
  151.2884  135.0734  159.9205 H   0  0  0  0  0  0  0  0  0  0  0  0  # atno 6908 bound_to 6896
  152.5342  134.0002  159.7945 H   0  0  0  0  0  0  0  0  0  0  0  0  # atno 6909 bound_to 6896
  144.9595  140.7432  143.4738 H   0  0  0  0  0  0  0  0  0  0  0  0  # atno 7974 bound_to 7965
  154.6958  140.2663  155.6767 H   0  0  0  0  0  0  0  0  0  0  0  0  # atno 8008 bound_to 7997
  156.2748  140.2782  156.1475 H   0  0  0  0  0  0  0  0  0  0  0  0  # atno 8009 bound_to 7997
  155.0833  140.0373  157.2636 H   0  0  0  0  0  0  0  0  0  0  0  0  # atno 8010 bound_to 7997
  140.5898  143.2340  151.6164 H   0  0  0  0  0  0  0  0  0  0  0  0  # atno 10167 bound_to 10162
  157.4944  131.1092  150.9513 H   0  0  0  0  0  0  0  0  0  0  0  0  # atno 10718 bound_to 10713
  153.2234  135.4347  155.0515 H   0  0  0  0  0  0  0  0  0  0  0  0  # atno 10763 bound_to 10752
  154.8261  135.3362  154.6893 H   0  0  0  0  0  0  0  0  0  0  0  0  # atno 10764 bound_to 10752
  153.7324  135.7010  153.5042 H   0  0  0  0  0  0  0  0  0  0  0  0  # atno 10765 bound_to 10752
  140.6202  134.4758  157.5223 H   0  0  0  0  0  0  0  0  0  0  0  0  # atno 11005 bound_to 11000
  145.2721  139.1950  143.4836 LP  0  0  0  0  0  0  0  0  0  0  0  0  # atno 17320 bound_to 7965
  146.3348  140.2669  142.8604 LP  0  0  0  0  0  0  0  0  0  0  0  0  # atno 17321 bound_to 7965
  139.5220  144.3175  152.0939 LP  0  0  0  0  0  0  0  0  0  0  0  0  # atno 17342 bound_to 10162
  140.2338  144.4341  150.6288 LP  0  0  0  0  0  0  0  0  0  0  0  0  # atno 17343 bound_to 10162
  157.0204  130.5671  149.5330 LP  0  0  0  0  0  0  0  0  0  0  0  0  # atno 17370 bound_to 10713
  156.0192  130.5287  150.8225 LP  0  0  0  0  0  0  0  0  0  0  0  0  # atno 17371 bound_to 10713
  139.9156  134.8252  156.1377 LP  0  0  0  0  0  0  0  0  0  0  0  0  # atno 17394 bound_to 11000
  141.0748  133.6780  156.2213 LP  0  0  0  0  0  0  0  0  0  0  0  0  # atno 17395 bound_to 11000

$$$$
