AV-unprocessed.smi:2953|AV-procd|sdf|11295|dock5
  -GOLD-   2272016193D 1   1.00000     0.00000
 Structure written by MMmdl.
 46 48  0  0  0  0  0  0  0  0  2 V2000
  152.4749  141.2653  160.9070 C   0  0  0  0  0  0  0  0  0  0  0  0
  151.7797  142.4893  160.3408 C   0  0  0  0  0  0  0  0  0  0  0  0
  151.9610  143.7422  160.9635 C   0  0  0  0  0  0  0  0  0  0  0  0
  151.3224  144.8868  160.4536 C   0  0  0  0  0  0  0  0  0  0  0  0
  150.4997  144.7812  159.3183 C   0  0  0  0  0  0  0  0  0  0  0  0
  150.3149  143.5335  158.6932 C   0  0  0  0  0  0  0  0  0  0  0  0
  150.9531  142.3716  159.1988 C   0  0  0  0  0  0  0  0  0  0  0  0
  150.8146  141.1175  158.6397 O   0  0  0  0  0  0  0  0  0  0  0  0
  149.9351  140.9623  157.5360 C   0  0  0  0  0  0  0  0  0  0  0  0
  150.7744  140.8704  156.2563 C   0  0  0  0  0  0  0  0  0  0  0  0
  150.1100  140.0630  155.2248 N   0  0  0  0  0  0  0  0  0  0  0  0
  150.4725  138.8731  154.6633 C   0  0  0  0  0  0  0  0  0  0  0  0
  151.6849  138.0553  155.0121 C   0  0  2  0  0  0  0  0  0  0  0  0
  151.6194  137.4810  156.4402 C   0  0  0  0  0  0  0  0  0  0  0  0
  152.9314  138.7836  154.7862 N   0  0  0  0  0  0  0  0  0  0  0  0
  154.1472  138.3901  155.1897 C   0  0  0  0  0  0  0  0  0  0  0  0
  154.3446  137.3485  155.8092 O   0  0  0  0  0  0  0  0  0  0  0  0
  149.5002  138.5452  153.7630 N   0  3  0  0  0  0  0  0  0  0  0  0
  148.5231  139.5405  153.7348 C   0  0  0  0  0  0  0  0  0  0  0  0
  147.3588  139.6548  152.9815 C   0  0  0  0  0  0  0  0  0  0  0  0
  146.5762  140.8082  153.1977 C   0  0  0  0  0  0  0  0  0  0  0  0
  146.9608  141.7922  154.1317 C   0  0  0  0  0  0  0  0  0  0  0  0
  148.1430  141.6643  154.8906 C   0  0  0  0  0  0  0  0  0  0  0  0
  148.9098  140.5204  154.6710 C   0  0  0  0  0  0  0  0  0  0  0  0
  153.1672  141.5331  161.7054 H   0  0  0  0  0  0  0  0  0  0  0  0
  153.0412  140.7536  160.1285 H   0  0  0  0  0  0  0  0  0  0  0  0
  151.7407  140.5691  161.3128 H   0  0  0  0  0  0  0  0  0  0  0  0
  152.5911  143.8306  161.8365 H   0  0  0  0  0  0  0  0  0  0  0  0
  151.4630  145.8441  160.9332 H   0  0  0  0  0  0  0  0  0  0  0  0
  150.0082  145.6593  158.9259 H   0  0  0  0  0  0  0  0  0  0  0  0
  149.6752  143.4956  157.8249 H   0  0  0  0  0  0  0  0  0  0  0  0
  149.3376  140.0569  157.6538 H   0  0  0  0  0  0  0  0  0  0  0  0
  149.2568  141.8149  157.4709 H   0  0  0  0  0  0  0  0  0  0  0  0
  150.9468  141.8660  155.8469 H   0  0  0  0  0  0  0  0  0  0  0  0
  151.7585  140.4464  156.4592 H   0  0  0  0  0  0  0  0  0  0  0  0
  151.7058  137.2069  154.3272 H   0  0  0  0  0  0  0  0  0  0  0  0
  150.7336  136.8583  156.5700 H   0  0  0  0  0  0  0  0  0  0  0  0
  151.5865  138.2662  157.1963 H   0  0  0  0  0  0  0  0  0  0  0  0
  152.4895  136.8581  156.6504 H   0  0  0  0  0  0  0  0  0  0  0  0
  152.8615  139.6643  154.2968 H   0  0  0  0  0  0  0  0  0  0  0  0
  154.9303  139.1083  154.9004 H   0  0  0  0  0  0  0  0  0  0  0  0
  147.0621  138.9026  152.2652 H   0  0  0  0  0  0  0  0  0  0  0  0
  145.6628  140.9407  152.6360 H   0  0  0  0  0  0  0  0  0  0  0  0
  146.3364  142.6631  154.2698 H   0  0  0  0  0  0  0  0  0  0  0  0
  148.4293  142.4239  155.6032 H   0  0  0  0  0  0  0  0  0  0  0  0
  149.5091  137.6989  153.2083 H   0  0  0  0  0  0  0  0  0  0  0  0
  1  2  1  0  0  0  0
  1 25  1  0  0  0  0
  1 26  1  0  0  0  0
  1 27  1  0  0  0  0
  2  7  1  0  0  0  0
  2  3  2  0  0  0  0
  3  4  1  0  0  0  0
  3 28  1  0  0  0  0
  4  5  2  0  0  0  0
  4 29  1  0  0  0  0
  5  6  1  0  0  0  0
  5 30  1  0  0  0  0
  6  7  2  0  0  0  0
  6 31  1  0  0  0  0
  7  8  1  0  0  0  0
  8  9  1  0  0  0  0
  9 10  1  0  0  0  0
  9 32  1  0  0  0  0
  9 33  1  0  0  0  0
 10 11  1  0  0  0  0
 10 34  1  0  0  0  0
 10 35  1  0  0  0  0
 11 24  1  0  0  0  0
 11 12  1  0  0  0  0
 12 13  1  0  0  0  0
 12 18  2  0  0  0  0
 13 14  1  0  0  0  0
 13 15  1  0  0  0  0
 13 36  1  0  0  0  0
 14 37  1  0  0  0  0
 14 38  1  0  0  0  0
 14 39  1  0  0  0  0
 15 16  1  0  0  0  0
 15 40  1  0  0  0  0
 16 17  2  0  0  0  0
 16 41  1  0  0  0  0
 18 19  1  0  0  0  0
 18 46  1  0  0  0  0
 19 24  2  0  0  0  0
 19 20  1  0  0  0  0
 20 21  2  0  0  0  0
 20 42  1  0  0  0  0
 21 22  1  0  0  0  0
 21 43  1  0  0  0  0
 22 23  2  0  0  0  0
 22 44  1  0  0  0  0
 23 24  1  0  0  0  0
 23 45  1  0  0  0  0
M  CHG  1  18   1
M  END
> <s_m_source_file>
AV-unprocessed.smi

> <i_m_source_file_index>
2953

> <i_lp_mmshare_version>
43012

> <i_f3d_flags>
0

> <s_epik_input>
W0NIM11jMVtjSF1bY0hdW2NIXVtjSF1jMU9bQ0gyXVtDSDJdbihjKG4yKVtDQEhdKFtDSDNdKVtOSF1bQ0hdPU8pYyhjMjMpW2NIXVtjSF1bY0hdW2NIXTM=

> <s_epik_cmdline>
J2VwaWtfcHl0aG9uJywgJy1waCcsICc3LjAnLCAnLXRuJywgJzgnLCAnLW1hJywgJzIwMCcsICctbWV0YWxfYmluZGluZycsICctaW1hZScsICc8aW5maWxlLm1hZT4nLCAnLW9tYWUnLCAnPG91dGZpbGUubWFlPic=

> <r_lp_tautomer_probability>
1

> <r_epik_Ionization_Penalty>
1.14644

> <r_epik_Ionization_Penalty_Charging>
1.14644

> <r_epik_Ionization_Penalty_Neutral>
5.5802e-08

> <r_epik_State_Penalty>
1.20743

> <r_epik_Charging_Adjusted_Penalty>
2.35387

> <i_epik_Tot_Q>
1

> <i_epik_Tot_abs_Q>
1

> <r_epik_Metal_State_Penalty>
1.28856

> <b_epik_Metal_Only>
0

> <s_lp_Force_Field>
OPLS_2005

> <r_lp_Energy>
18.7543

> <b_lp_Chiralities_Consistent>
1

> <s_lp_Variant>
AV-unprocessed.smi:2953-3

> <Gold.Version>
5.8.1

> <Gold.Id.Protein>
6NUR|6NUR_protein|mol2

> <Gold.PLP.Fitness>
54.6985

> <Gold.PLP.PLP>
-50.1188

> <Gold.PLP.part.hbond>
-3.4459

> <Gold.PLP.part.metal>
0.0000

> <Gold.PLP.part.buried>
5.7563

> <Gold.PLP.part.nonpolar>
-52.8384

> <Gold.PLP.part.repulsive>
0.3255

> <Gold.PLP.ligand.clash>
0.0000

> <Gold.PLP.ligand.torsion>
0.7592

> <Gold.PLP.Chemscore.Hbond>
2.0000

> <Gold.PLP.Chemscore.CHOScore>
0.0000

> <Gold.PLP.Chemscore.Metal>
0.0000

> <Gold.Chemscore.Hbonds>
donor molecule, donor type, donor heavy atom, donor atom, acceptor molecule, acceptor atom, score
      L1  H    18    46       P1  7948  1.98
      P1  H 10752 10764       L1    17  0.13

> <Gold.PLP.Chemscore.Internal.Correction>
0.0981

> <Gold.Rescore>
     Score         DG    S(hbond)    S(metal)    S(lipo)     H(rot)  DE(clash)    DE(int)     intcor
     15.04     -18.43       0.95        0.00     134.24       2.32       1.45       1.94       ----

> <Gold.Chemscore.Fitness>
15.0354

> <Gold.Chemscore.DG>
-18.4255

> <Gold.Chemscore.ZeroCoef>
-5.4800

> <Gold.Chemscore.Hbond>
0.9534

> <Gold.Chemscore.Metal>
0.0000

> <Gold.Chemscore.Lipo>
134.2412

> <Gold.Chemscore.Internal_Hbond>
0.0000

> <Gold.Chemscore.DEClash>
1.4539

> <Gold.Chemscore.DEInternal>
1.9363

> <Gold.Chemscore.Rot>
2.3223

> <Gold.Chemscore.Internal.Correction>
   9.000000E+99

> <Gold.Chemscore.Hbonds>
donor molecule, donor type, donor heavy atom, donor atom, acceptor molecule, acceptor atom, score
      L1  H    18    46       P1  7948  0.81
      P1  H 10752 10764       L1    17  0.13

> <Gold.Chemscore.Hbond.Weighted>
-3.1843

> <Gold.Chemscore.Metal.Weighted>
-0.0000

> <Gold.Chemscore.Lipo.Weighted>
-15.7062

> <Gold.Chemscore.Internal_Hbond.Weighted>
0.0000

> <Gold.Chemscore.DEClash.Weighted>
1.4539

> <Gold.Chemscore.DEInternal.Weighted>
1.9363

> <Gold.Chemscore.Rot.Weighted>
5.9450

> <Gold.Chemscore.Internal.Correction.Weighted>
   9.000000E+99

> <Gold.Protein.RotatedTorsions>
[ 6907 6896 6895 6894 ] final   79.45 input  -60.11 | X-H torsion
[ 7974 7965 7964 7962 ] final  139.21 input  175.53 | X-H torsion
[ 8008 7997 7996 7995 ] final  -79.03 input   59.86 | X-H torsion
[ 10167 10162 10161 10158 ] final   67.91 input  -65.29 | X-H torsion
[ 10718 10713 10712 10709 ] final  122.45 input   66.30 | X-H torsion
[ 10763 10752 10751 10750 ] final    6.27 input  -60.55 | X-H torsion
[ 11005 11000 10999 10996 ] final   74.47 input  -57.11 | X-H torsion

> <Gold.Protein.ActiveResidues>
 VAL166  LYS551  ARG553  GLY616  TRP617  ASP618  TYR619  PRO620  LYS621  CYS622 
 ASP623  PHE694  ASN695  SER759  ASP760  ASP761  ALA762  ILE779  LEU786  VAL792 
 PHE793  MET794  SER795  GLU796  ALA797  LYS798  CYS799  TRP800  GLU811  SER814 

> <Gold.Protein.RotatedAtoms>
  152.5199  134.3509  159.9250 H   0  0  0  0  0  0  0  0  0  0  0  0  # atno 6907 bound_to 6896
  151.3460  133.3937  159.2683 H   0  0  0  0  0  0  0  0  0  0  0  0  # atno 6908 bound_to 6896
  150.9765  134.9147  159.7877 H   0  0  0  0  0  0  0  0  0  0  0  0  # atno 6909 bound_to 6896
  144.9300  139.5059  143.5622 H   0  0  0  0  0  0  0  0  0  0  0  0  # atno 7974 bound_to 7965
  154.5745  140.0685  156.9014 H   0  0  0  0  0  0  0  0  0  0  0  0  # atno 8008 bound_to 7997
  155.2573  140.3356  155.4258 H   0  0  0  0  0  0  0  0  0  0  0  0  # atno 8009 bound_to 7997
  156.2144  140.1772  156.7608 H   0  0  0  0  0  0  0  0  0  0  0  0  # atno 8010 bound_to 7997
  140.0844  144.5042  150.7140 H   0  0  0  0  0  0  0  0  0  0  0  0  # atno 10167 bound_to 10162
  157.5741  131.1081  150.8312 H   0  0  0  0  0  0  0  0  0  0  0  0  # atno 10718 bound_to 10713
  153.2496  135.6912  153.7693 H   0  0  0  0  0  0  0  0  0  0  0  0  # atno 10763 bound_to 10752
  153.6792  135.3331  155.3175 H   0  0  0  0  0  0  0  0  0  0  0  0  # atno 10764 bound_to 10752
  154.8389  135.4518  154.1448 H   0  0  0  0  0  0  0  0  0  0  0  0  # atno 10765 bound_to 10752
  139.9390  134.7435  156.1151 H   0  0  0  0  0  0  0  0  0  0  0  0  # atno 11005 bound_to 11000
  146.3243  139.8244  142.8920 LP  0  0  0  0  0  0  0  0  0  0  0  0  # atno 17320 bound_to 7965
  145.3157  141.0231  143.3529 LP  0  0  0  0  0  0  0  0  0  0  0  0  # atno 17321 bound_to 7965
  140.7061  143.2469  151.4722 LP  0  0  0  0  0  0  0  0  0  0  0  0  # atno 17342 bound_to 10162
  139.5760  144.1817  152.1904 LP  0  0  0  0  0  0  0  0  0  0  0  0  # atno 17343 bound_to 10162
  156.8776  130.5168  149.5293 LP  0  0  0  0  0  0  0  0  0  0  0  0  # atno 17370 bound_to 10713
  156.0786  130.5802  150.9520 LP  0  0  0  0  0  0  0  0  0  0  0  0  # atno 17371 bound_to 10713
  141.1016  133.6675  156.2767 LP  0  0  0  0  0  0  0  0  0  0  0  0  # atno 17394 bound_to 11000
  140.6002  134.5563  157.5516 LP  0  0  0  0  0  0  0  0  0  0  0  0  # atno 17395 bound_to 11000

$$$$
