AV-unprocessed.smi:679|AV-procd|sdf|3320|dock6
  -GOLD-   22720 0283D 1   1.00000     0.00000
 Structure written by MMmdl.
 41 43  0  0  0  0  0  0  0  0  1 V2000
  144.1907  132.0947  150.3451 C   0  0  0  0  0  0  0  0  0  0  0  0
  145.6216  131.8432  149.8651 C   0  0  0  0  0  0  0  0  0  0  0  0
  146.4712  132.8189  150.4431 O   0  0  0  0  0  0  0  0  0  0  0  0
  146.4131  132.8378  151.8605 C   0  0  1  0  0  0  0  0  0  0  0  0
  147.7467  133.1350  152.5526 C   0  0  0  0  0  0  0  0  0  0  0  0
  146.9239  133.9476  153.5547 C   0  0  1  0  0  0  0  0  0  0  0  0
  147.6218  135.1483  154.0017 N   0  0  0  0  0  0  0  0  0  0  0  0
  147.4518  135.7256  155.2000 C   0  0  0  0  0  0  0  0  0  0  0  0
  146.6714  135.2971  156.0508 O   0  0  0  0  0  0  0  0  0  0  0  0
  148.2817  136.9830  155.4733 C   0  0  0  0  0  0  0  0  0  0  0  0
  149.6955  136.6760  155.5894 N   0  0  0  0  0  0  0  0  0  0  0  0
  150.6885  136.7632  154.7018 C   0  0  0  0  0  0  0  0  0  0  0  0
  151.8461  136.3880  155.2246 N   0  0  0  0  0  0  0  0  0  0  0  0
  151.5096  136.0526  156.5256 N   0  0  0  0  0  0  0  0  0  0  0  0
  150.2349  136.2221  156.7482 N   0  0  0  0  0  0  0  0  0  0  0  0
  145.8736  134.1716  152.4348 C   0  0  0  0  0  0  0  0  0  0  0  0
  145.9762  135.4129  151.5380 C   0  0  0  0  0  0  0  0  0  0  0  0
  144.6608  135.5002  150.7607 C   0  0  0  0  0  0  0  0  0  0  0  0
  143.6280  134.7603  151.6173 C   0  0  0  0  0  0  0  0  0  0  0  0
  144.3982  134.2031  152.8195 C   0  0  0  0  0  0  0  0  0  0  0  0
  143.5022  131.3637  149.9209 H   0  0  0  0  0  0  0  0  0  0  0  0
  143.8487  133.0873  150.0511 H   0  0  0  0  0  0  0  0  0  0  0  0
  144.1254  132.0259  151.4313 H   0  0  0  0  0  0  0  0  0  0  0  0
  145.9430  130.8428  150.1585 H   0  0  0  0  0  0  0  0  0  0  0  0
  145.6639  131.8985  148.7765 H   0  0  0  0  0  0  0  0  0  0  0  0
  145.9029  131.9683  152.2821 H   0  0  0  0  0  0  0  0  0  0  0  0
  148.2473  132.2622  152.9723 H   0  0  0  0  0  0  0  0  0  0  0  0
  148.4216  133.7381  151.9424 H   0  0  0  0  0  0  0  0  0  0  0  0
  146.5447  133.3229  154.3671 H   0  0  0  0  0  0  0  0  0  0  0  0
  148.2797  135.5637  153.3580 H   0  0  0  0  0  0  0  0  0  0  0  0
  148.1417  137.7210  154.6816 H   0  0  0  0  0  0  0  0  0  0  0  0
  147.9449  137.4406  156.4041 H   0  0  0  0  0  0  0  0  0  0  0  0
  150.5645  137.1020  153.6839 H   0  0  0  0  0  0  0  0  0  0  0  0
  146.0789  136.3144  152.1425 H   0  0  0  0  0  0  0  0  0  0  0  0
  146.8357  135.3854  150.8674 H   0  0  0  0  0  0  0  0  0  0  0  0
  144.3735  136.5342  150.5672 H   0  0  0  0  0  0  0  0  0  0  0  0
  144.7630  135.0019  149.7958 H   0  0  0  0  0  0  0  0  0  0  0  0
  142.8195  135.4181  151.9379 H   0  0  0  0  0  0  0  0  0  0  0  0
  143.1817  133.9484  151.0419 H   0  0  0  0  0  0  0  0  0  0  0  0
  144.0221  133.2221  153.1111 H   0  0  0  0  0  0  0  0  0  0  0  0
  144.2519  134.8602  153.6773 H   0  0  0  0  0  0  0  0  0  0  0  0
  1  2  1  0  0  0  0
  1 21  1  0  0  0  0
  1 22  1  0  0  0  0
  1 23  1  0  0  0  0
  2  3  1  0  0  0  0
  2 24  1  0  0  0  0
  2 25  1  0  0  0  0
  3  4  1  0  0  0  0
  4 16  1  0  0  0  0
  4  5  1  0  0  0  0
  4 26  1  0  0  0  0
  5  6  1  0  0  0  0
  5 27  1  0  0  0  0
  5 28  1  0  0  0  0
  6  7  1  0  0  0  0
  6 16  1  0  0  0  0
  6 29  1  0  0  0  0
  7  8  1  0  0  0  0
  7 30  1  0  0  0  0
  8  9  2  0  0  0  0
  8 10  1  0  0  0  0
 10 11  1  0  0  0  0
 10 31  1  0  0  0  0
 10 32  1  0  0  0  0
 11 15  1  0  0  0  0
 11 12  1  0  0  0  0
 12 13  2  0  0  0  0
 12 33  1  0  0  0  0
 13 14  1  0  0  0  0
 14 15  2  0  0  0  0
 16 20  1  0  0  0  0
 16 17  1  0  0  0  0
 17 18  1  0  0  0  0
 17 34  1  0  0  0  0
 17 35  1  0  0  0  0
 18 19  1  0  0  0  0
 18 36  1  0  0  0  0
 18 37  1  0  0  0  0
 19 20  1  0  0  0  0
 19 38  1  0  0  0  0
 19 39  1  0  0  0  0
 20 40  1  0  0  0  0
 20 41  1  0  0  0  0
M  END
> <s_m_source_file>
AV-unprocessed.smi

> <i_m_source_file_index>
679

> <i_lp_mmshare_version>
43012

> <i_f3d_flags>
0

> <s_epik_input>
W0NIMl0xW0NIMl1bQ0gyXVtDSDJdQzEyW0NASF0oT1tDSDJdW0NIM10pW0NIMl1bQ0BIXTJbTkhdQyg9TylbQ0gyXW4zW2NIXW5ubjM=

> <s_epik_cmdline>
J2VwaWtfcHl0aG9uJywgJy1waCcsICc3LjAnLCAnLXRuJywgJzgnLCAnLW1hJywgJzIwMCcsICctbWV0YWxfYmluZGluZycsICctaW1hZScsICc8aW5maWxlLm1hZT4nLCAnLW9tYWUnLCAnPG91dGZpbGUubWFlPic=

> <r_lp_tautomer_probability>
1

> <r_epik_Ionization_Penalty>
7.96741e-07

> <r_epik_Ionization_Penalty_Charging>
0

> <r_epik_Ionization_Penalty_Neutral>
7.96741e-07

> <r_epik_State_Penalty>
-0

> <r_epik_Charging_Adjusted_Penalty>
0

> <i_epik_Tot_Q>
0

> <i_epik_Tot_abs_Q>
0

> <r_epik_Metal_State_Penalty>
-0

> <b_epik_Metal_Only>
0

> <s_lp_Force_Field>
OPLS_2005

> <r_lp_Energy>
38.413

> <b_lp_Chiralities_Consistent>
1

> <s_lp_Variant>
AV-unprocessed.smi:679-2

> <Gold.Version>
5.8.1

> <Gold.Id.Protein>
6NUR|6NUR_protein|mol2

> <Gold.PLP.Fitness>
35.2854

> <Gold.PLP.PLP>
-27.9399

> <Gold.PLP.part.hbond>
-1.9701

> <Gold.PLP.part.metal>
0.0000

> <Gold.PLP.part.buried>
-4.6057

> <Gold.PLP.part.nonpolar>
-23.4724

> <Gold.PLP.part.repulsive>
0.3082

> <Gold.PLP.ligand.clash>
0.0000

> <Gold.PLP.ligand.torsion>
1.2388

> <Gold.PLP.Chemscore.Hbond>
1.9920

> <Gold.PLP.Chemscore.CHOScore>
1.1718

> <Gold.PLP.Chemscore.Metal>
0.0000

> <Gold.Chemscore.Hbonds>
donor molecule, donor type, donor heavy atom, donor atom, acceptor molecule, acceptor atom, score
      L1  H     7    30       P1  7948  1.00
      P1  H 10752 10763       L1    13  0.99
      L1  C    12    33       P1  7948  0.59
      L1  C    12    33       P1  7949  0.59

> <Gold.PLP.Chemscore.Internal.Correction>
0.3317

> <Gold.Rescore>
     Score         DG    S(hbond)    S(metal)    S(lipo)     H(rot)  DE(clash)    DE(int)     intcor
     12.37     -13.61       1.97        0.00      65.85       2.41       0.02       1.22       ----

> <Gold.Chemscore.Fitness>
12.3667

> <Gold.Chemscore.DG>
-13.6127

> <Gold.Chemscore.ZeroCoef>
-5.4800

> <Gold.Chemscore.Hbond>
1.9744

> <Gold.Chemscore.Metal>
0.0000

> <Gold.Chemscore.Lipo>
65.8543

> <Gold.Chemscore.Internal_Hbond>
0.0000

> <Gold.Chemscore.DEClash>
0.0233

> <Gold.Chemscore.DEInternal>
1.2228

> <Gold.Chemscore.Rot>
2.4089

> <Gold.Chemscore.Internal.Correction>
   9.000000E+99

> <Gold.Chemscore.Hbonds>
donor molecule, donor type, donor heavy atom, donor atom, acceptor molecule, acceptor atom, score
      L1  H     7    30       P1  7948  1.00
      P1  H 10752 10763       L1    13  0.31

> <Gold.Chemscore.Hbond.Weighted>
-6.5946

> <Gold.Chemscore.Metal.Weighted>
-0.0000

> <Gold.Chemscore.Lipo.Weighted>
-7.7050

> <Gold.Chemscore.Internal_Hbond.Weighted>
0.0000

> <Gold.Chemscore.DEClash.Weighted>
0.0233

> <Gold.Chemscore.DEInternal.Weighted>
1.2228

> <Gold.Chemscore.Rot.Weighted>
6.1668

> <Gold.Chemscore.Internal.Correction.Weighted>
   9.000000E+99

> <Gold.Protein.RotatedTorsions>
[ 6907 6896 6895 6894 ] final -107.76 input  -60.11 | X-H torsion
[ 7974 7965 7964 7962 ] final   99.93 input  175.53 | X-H torsion
[ 8008 7997 7996 7995 ] final -116.52 input   59.86 | X-H torsion
[ 10167 10162 10161 10158 ] final  -74.93 input  -65.29 | X-H torsion
[ 10718 10713 10712 10709 ] final    6.50 input   66.30 | X-H torsion
[ 10763 10752 10751 10750 ] final   85.47 input  -60.55 | X-H torsion
[ 11005 11000 10999 10996 ] final -109.75 input  -57.11 | X-H torsion

> <Gold.Protein.ActiveResidues>
 VAL166  LYS551  ARG553  GLY616  TRP617  ASP618  TYR619  PRO620  LYS621  CYS622 
 ASP623  PHE694  ASN695  SER759  ASP760  ASP761  ALA762  ILE779  LEU786  VAL792 
 PHE793  MET794  SER795  GLU796  ALA797  LYS798  CYS799  TRP800  GLU811  SER814 

> <Gold.Protein.RotatedAtoms>
  150.7462  133.9778  159.3566 H   0  0  0  0  0  0  0  0  0  0  0  0  # atno 6907 bound_to 6896
  151.7717  135.0782  160.0370 H   0  0  0  0  0  0  0  0  0  0  0  0  # atno 6908 bound_to 6896
  152.3334  133.5947  159.5862 H   0  0  0  0  0  0  0  0  0  0  0  0  # atno 6909 bound_to 6896
  145.3923  139.2361  143.3345 H   0  0  0  0  0  0  0  0  0  0  0  0  # atno 7974 bound_to 7965
  155.0692  140.0393  157.2603 H   0  0  0  0  0  0  0  0  0  0  0  0  # atno 8008 bound_to 7997
  154.6997  140.2670  155.6707 H   0  0  0  0  0  0  0  0  0  0  0  0  # atno 8009 bound_to 7997
  156.2756  140.2743  156.1603 H   0  0  0  0  0  0  0  0  0  0  0  0  # atno 8010 bound_to 7997
  140.4986  143.2365  151.7790 H   0  0  0  0  0  0  0  0  0  0  0  0  # atno 10167 bound_to 10162
  156.9230  130.5798  149.5648 H   0  0  0  0  0  0  0  0  0  0  0  0  # atno 10718 bound_to 10713
  153.1478  135.4616  154.9592 H   0  0  0  0  0  0  0  0  0  0  0  0  # atno 10763 bound_to 10752
  154.7800  135.3185  154.8012 H   0  0  0  0  0  0  0  0  0  0  0  0  # atno 10764 bound_to 10752
  153.8522  135.6920  153.4845 H   0  0  0  0  0  0  0  0  0  0  0  0  # atno 10765 bound_to 10752
  141.0830  133.9186  157.2246 H   0  0  0  0  0  0  0  0  0  0  0  0  # atno 11005 bound_to 11000
  146.2791  140.4608  142.8783 LP  0  0  0  0  0  0  0  0  0  0  0  0  # atno 17320 bound_to 7965
  144.8431  140.6888  143.6216 LP  0  0  0  0  0  0  0  0  0  0  0  0  # atno 17321 bound_to 7965
  139.4867  144.4553  151.9605 LP  0  0  0  0  0  0  0  0  0  0  0  0  # atno 17342 bound_to 10162
  140.3642  144.2936  150.5929 LP  0  0  0  0  0  0  0  0  0  0  0  0  # atno 17343 bound_to 10162
  156.0482  130.5555  150.8929 LP  0  0  0  0  0  0  0  0  0  0  0  0  # atno 17370 bound_to 10713
  157.5895  131.0945  150.9141 LP  0  0  0  0  0  0  0  0  0  0  0  0  # atno 17371 bound_to 10713
  139.9646  135.0145  156.9352 LP  0  0  0  0  0  0  0  0  0  0  0  0  # atno 17394 bound_to 11000
  140.5425  134.0706  155.7345 LP  0  0  0  0  0  0  0  0  0  0  0  0  # atno 17395 bound_to 11000

$$$$
