AV-unprocessed.smi:3331|AV-procd|sdf|12823|dock4
  -GOLD-   2272019203D 1   1.00000     0.00000
 Structure written by MMmdl.
 46 47  0  0  0  0  0  0  0  0  1 V2000
  147.0294  142.3750  154.0933 C   0  0  0  0  0  0  0  0  0  0  0  0
  147.8726  141.2246  154.6604 C   0  0  2  0  0  0  0  0  0  0  0  0
  149.2673  141.7152  155.1148 C   0  0  0  0  0  0  0  0  0  0  0  0
  150.1983  140.5637  155.5593 C   0  0  1  0  0  0  0  0  0  0  0  0
  149.8524  140.0497  156.9681 C   0  0  0  0  0  0  0  0  0  0  0  0
  150.1937  139.4456  154.4938 C   0  0  0  0  0  0  0  0  0  0  0  0
  148.8144  138.9980  154.2534 N   0  0  0  0  0  0  0  0  0  0  0  0
  148.2777  137.8027  154.6086 C   0  0  0  0  0  0  0  0  0  0  0  0
  148.9294  136.9550  155.2225 O   0  0  0  0  0  0  0  0  0  0  0  0
  146.8139  137.4602  154.2416 C   0  0  2  0  0  0  0  0  0  0  0  0
  146.0549  136.9937  155.4936 C   0  0  0  0  0  0  0  0  0  0  0  0
  146.7017  136.4361  153.1861 N   0  0  0  0  0  0  0  0  0  0  0  0
  145.3833  136.3845  152.5626 C   0  0  0  0  0  0  0  0  0  0  0  0
  145.5292  135.9690  151.0928 C   0  0  0  0  0  0  0  0  0  0  0  0
  145.4229  134.5317  150.9357 N   0  0  0  0  0  0  0  0  0  0  0  0
  144.3365  133.7947  150.5145 C   0  0  0  0  0  0  0  0  0  0  0  0
  144.7053  132.4801  150.5347 C   0  0  0  0  0  0  0  0  0  0  0  0
  146.0531  132.5145  150.9902 C   0  0  0  0  0  0  0  0  0  0  0  0
  146.4796  133.7441  151.2305 N   0  0  0  0  0  0  0  0  0  0  0  0
  148.0139  140.0700  153.6457 C   0  0  0  0  0  0  0  0  0  0  0  0
  147.4910  142.8049  153.2038 H   0  0  0  0  0  0  0  0  0  0  0  0
  146.9114  143.1732  154.8267 H   0  0  0  0  0  0  0  0  0  0  0  0
  146.0319  142.0319  153.8173 H   0  0  0  0  0  0  0  0  0  0  0  0
  147.3465  140.8388  155.5349 H   0  0  0  0  0  0  0  0  0  0  0  0
  149.7409  142.2381  154.2826 H   0  0  0  0  0  0  0  0  0  0  0  0
  149.1694  142.4520  155.9130 H   0  0  0  0  0  0  0  0  0  0  0  0
  151.2117  140.9630  155.6139 H   0  0  0  0  0  0  0  0  0  0  0  0
  148.8423  139.6439  157.0180 H   0  0  0  0  0  0  0  0  0  0  0  0
  149.9206  140.8508  157.7040 H   0  0  0  0  0  0  0  0  0  0  0  0
  150.5410  139.2633  157.2778 H   0  0  0  0  0  0  0  0  0  0  0  0
  150.5947  139.8401  153.5589 H   0  0  0  0  0  0  0  0  0  0  0  0
  150.8824  138.6471  154.7618 H   0  0  0  0  0  0  0  0  0  0  0  0
  146.3105  138.3424  153.8521 H   0  0  0  0  0  0  0  0  0  0  0  0
  146.0768  137.7504  156.2788 H   0  0  0  0  0  0  0  0  0  0  0  0
  146.4828  136.0777  155.9029 H   0  0  0  0  0  0  0  0  0  0  0  0
  145.0075  136.7954  155.2638 H   0  0  0  0  0  0  0  0  0  0  0  0
  147.4142  136.5536  152.4797 H   0  0  0  0  0  0  0  0  0  0  0  0
  144.7550  135.6669  153.0926 H   0  0  0  0  0  0  0  0  0  0  0  0
  144.8873  137.3540  152.6165 H   0  0  0  0  0  0  0  0  0  0  0  0
  144.7549  136.4392  150.4846 H   0  0  0  0  0  0  0  0  0  0  0  0
  146.4901  136.2961  150.6923 H   0  0  0  0  0  0  0  0  0  0  0  0
  143.4020  134.2618  150.2406 H   0  0  0  0  0  0  0  0  0  0  0  0
  144.1038  131.6246  150.2665 H   0  0  0  0  0  0  0  0  0  0  0  0
  146.7293  131.6883  151.1529 H   0  0  0  0  0  0  0  0  0  0  0  0
  147.0258  139.7326  153.3295 H   0  0  0  0  0  0  0  0  0  0  0  0
  148.5065  140.4211  152.7378 H   0  0  0  0  0  0  0  0  0  0  0  0
  1  2  1  0  0  0  0
  1 21  1  0  0  0  0
  1 22  1  0  0  0  0
  1 23  1  0  0  0  0
  2 20  1  0  0  0  0
  2  3  1  0  0  0  0
  2 24  1  0  0  0  0
  3  4  1  0  0  0  0
  3 25  1  0  0  0  0
  3 26  1  0  0  0  0
  4  5  1  0  0  0  0
  4  6  1  0  0  0  0
  4 27  1  0  0  0  0
  5 28  1  0  0  0  0
  5 29  1  0  0  0  0
  5 30  1  0  0  0  0
  6  7  1  0  0  0  0
  6 31  1  0  0  0  0
  6 32  1  0  0  0  0
  7  8  1  0  0  0  0
  7 20  1  0  0  0  0
  8  9  2  0  0  0  0
  8 10  1  0  0  0  0
 10 11  1  0  0  0  0
 10 12  1  0  0  0  0
 10 33  1  0  0  0  0
 11 34  1  0  0  0  0
 11 35  1  0  0  0  0
 11 36  1  0  0  0  0
 12 13  1  0  0  0  0
 12 37  1  0  0  0  0
 13 14  1  0  0  0  0
 13 38  1  0  0  0  0
 13 39  1  0  0  0  0
 14 15  1  0  0  0  0
 14 40  1  0  0  0  0
 14 41  1  0  0  0  0
 15 19  1  0  0  0  0
 15 16  1  0  0  0  0
 16 17  2  0  0  0  0
 16 42  1  0  0  0  0
 17 18  1  0  0  0  0
 17 43  1  0  0  0  0
 18 19  2  0  0  0  0
 18 44  1  0  0  0  0
 20 45  1  0  0  0  0
 20 46  1  0  0  0  0
M  END
> <s_m_source_file>
AV-unprocessed.smi

> <i_m_source_file_index>
3331

> <i_lp_mmshare_version>
43012

> <i_f3d_flags>
0

> <s_epik_input>
W0NIM11bQ0BASF0xW0NIMl1bQ0BASF0oW0NIM10pW0NIMl1OKFtDSDJdMSlDKD1PKVtDQEhdKFtDSDNdKVtOSF1bQ0gyXVtDSDJdbjJbY0hdW2NIXVtjSF1uMg==

> <s_epik_cmdline>
J2VwaWtfcHl0aG9uJywgJy1waCcsICc3LjAnLCAnLXRuJywgJzgnLCAnLW1hJywgJzIwMCcsICctbWV0YWxfYmluZGluZycsICctaW1hZScsICc8aW5maWxlLm1hZT4nLCAnLW9tYWUnLCAnPG91dGZpbGUubWFlPic=

> <r_lp_tautomer_probability>
1

> <r_epik_Ionization_Penalty>
0.767994

> <r_epik_Ionization_Penalty_Charging>
0

> <r_epik_Ionization_Penalty_Neutral>
0.767994

> <r_epik_State_Penalty>
0.795453

> <r_epik_Charging_Adjusted_Penalty>
0.795453

> <i_epik_Tot_Q>
0

> <i_epik_Tot_abs_Q>
0

> <r_epik_Metal_State_Penalty>
0.794784

> <b_epik_Metal_Only>
0

> <s_lp_Force_Field>
OPLS_2005

> <r_lp_Energy>
29.1229

> <b_lp_Chiralities_Consistent>
1

> <s_lp_Variant>
AV-unprocessed.smi:3331-7

> <Gold.Version>
5.8.1

> <Gold.Id.Protein>
6NUR|6NUR_protein|mol2

> <Gold.PLP.Fitness>
40.3580

> <Gold.PLP.PLP>
-33.2689

> <Gold.PLP.part.hbond>
-1.0000

> <Gold.PLP.part.metal>
0.0000

> <Gold.PLP.part.buried>
-2.4714

> <Gold.PLP.part.nonpolar>
-30.9864

> <Gold.PLP.part.repulsive>
0.3156

> <Gold.PLP.ligand.clash>
0.0000

> <Gold.PLP.ligand.torsion>
0.9789

> <Gold.PLP.Chemscore.Hbond>
1.0000

> <Gold.PLP.Chemscore.CHOScore>
2.0000

> <Gold.PLP.Chemscore.Metal>
0.0000

> <Gold.Chemscore.Hbonds>
donor molecule, donor type, donor heavy atom, donor atom, acceptor molecule, acceptor atom, score
      L1  H    12    37       P1  7948  1.00
      L1  C    16    42       P1 10186  1.00
      L1  C    18    44       P1 10747  0.95

> <Gold.PLP.Chemscore.Internal.Correction>
0.0470

> <Gold.Rescore>
     Score         DG    S(hbond)    S(metal)    S(lipo)     H(rot)  DE(clash)    DE(int)     intcor
     13.00     -13.99       0.98        0.00      81.31       1.66       0.23       0.76       ----

> <Gold.Chemscore.Fitness>
12.9956

> <Gold.Chemscore.DG>
-13.9886

> <Gold.Chemscore.ZeroCoef>
-5.4800

> <Gold.Chemscore.Hbond>
0.9752

> <Gold.Chemscore.Metal>
0.0000

> <Gold.Chemscore.Lipo>
81.3114

> <Gold.Chemscore.Internal_Hbond>
0.0000

> <Gold.Chemscore.DEClash>
0.2317

> <Gold.Chemscore.DEInternal>
0.7612

> <Gold.Chemscore.Rot>
1.6649

> <Gold.Chemscore.Internal.Correction>
   9.000000E+99

> <Gold.Chemscore.Hbonds>
donor molecule, donor type, donor heavy atom, donor atom, acceptor molecule, acceptor atom, score
      L1  H    12    37       P1  7948  0.96

> <Gold.Chemscore.Hbond.Weighted>
-3.2572

> <Gold.Chemscore.Metal.Weighted>
-0.0000

> <Gold.Chemscore.Lipo.Weighted>
-9.5134

> <Gold.Chemscore.Internal_Hbond.Weighted>
0.0000

> <Gold.Chemscore.DEClash.Weighted>
0.2317

> <Gold.Chemscore.DEInternal.Weighted>
0.7612

> <Gold.Chemscore.Rot.Weighted>
4.2621

> <Gold.Chemscore.Internal.Correction.Weighted>
   9.000000E+99

> <Gold.Protein.RotatedTorsions>
[ 6907 6896 6895 6894 ] final   29.17 input  -60.11 | X-H torsion
[ 7974 7965 7964 7962 ] final  -46.21 input  175.53 | X-H torsion
[ 8008 7997 7996 7995 ] final -132.36 input   59.86 | X-H torsion
[ 10167 10162 10161 10158 ] final -136.29 input  -65.29 | X-H torsion
[ 10718 10713 10712 10709 ] final  110.61 input   66.30 | X-H torsion
[ 10763 10752 10751 10750 ] final  153.84 input  -60.55 | X-H torsion
[ 11005 11000 10999 10996 ] final   82.93 input  -57.11 | X-H torsion

> <Gold.Protein.ActiveResidues>
 VAL166  LYS551  ARG553  GLY616  TRP617  ASP618  TYR619  PRO620  LYS621  CYS622 
 ASP623  PHE694  ASN695  SER759  ASP760  ASP761  ALA762  ILE779  LEU786  VAL792 
 PHE793  MET794  SER795  GLU796  ALA797  LYS798  CYS799  TRP800  GLU811  SER814 

> <Gold.Protein.RotatedAtoms>
  152.0277  134.9786  160.0571 H   0  0  0  0  0  0  0  0  0  0  0  0  # atno 6907 bound_to 6896
  152.1275  133.4384  159.4713 H   0  0  0  0  0  0  0  0  0  0  0  0  # atno 6908 bound_to 6896
  150.6853  134.2379  159.4504 H   0  0  0  0  0  0  0  0  0  0  0  0  # atno 6909 bound_to 6896
  145.9742  140.7351  142.9395 H   0  0  0  0  0  0  0  0  0  0  0  0  # atno 7974 bound_to 7965
  155.3277  140.0465  157.3041 H   0  0  0  0  0  0  0  0  0  0  0  0  # atno 8008 bound_to 7997
  154.5345  140.2268  155.8712 H   0  0  0  0  0  0  0  0  0  0  0  0  # atno 8009 bound_to 7997
  156.1822  140.3071  155.9176 H   0  0  0  0  0  0  0  0  0  0  0  0  # atno 8010 bound_to 7997
  139.8692  143.6978  152.2642 H   0  0  0  0  0  0  0  0  0  0  0  0  # atno 10167 bound_to 10162
  157.6486  131.0936  150.6627 H   0  0  0  0  0  0  0  0  0  0  0  0  # atno 10718 bound_to 10713
  154.1427  135.2820  155.3156 H   0  0  0  0  0  0  0  0  0  0  0  0  # atno 10763 bound_to 10752
  154.6275  135.5446  153.7647 H   0  0  0  0  0  0  0  0  0  0  0  0  # atno 10764 bound_to 10752
  153.0245  135.6454  154.1573 H   0  0  0  0  0  0  0  0  0  0  0  0  # atno 10765 bound_to 10752
  139.9047  134.8108  156.2241 H   0  0  0  0  0  0  0  0  0  0  0  0  # atno 11005 bound_to 11000
  144.6844  140.2800  143.7293 LP  0  0  0  0  0  0  0  0  0  0  0  0  # atno 17320 bound_to 7965
  145.7863  139.1910  143.2129 LP  0  0  0  0  0  0  0  0  0  0  0  0  # atno 17321 bound_to 7965
  139.7300  144.7584  151.0818 LP  0  0  0  0  0  0  0  0  0  0  0  0  # atno 17342 bound_to 10162
  140.7763  143.5100  150.9664 LP  0  0  0  0  0  0  0  0  0  0  0  0  # atno 17343 bound_to 10162
  156.6941  130.4604  149.5591 LP  0  0  0  0  0  0  0  0  0  0  0  0  # atno 17370 bound_to 10713
  156.1841  130.6518  151.0986 LP  0  0  0  0  0  0  0  0  0  0  0  0  # atno 17371 bound_to 10713
  141.0387  133.6949  156.1558 LP  0  0  0  0  0  0  0  0  0  0  0  0  # atno 17394 bound_to 11000
  140.6988  134.4586  157.5587 LP  0  0  0  0  0  0  0  0  0  0  0  0  # atno 17395 bound_to 11000

$$$$
