AV-unprocessed.smi:2855|AV-procd|sdf|10992|dock3
  -GOLD-   2272015443D 1   1.00000     0.00000
 Structure written by MMmdl.
 46 47  0  0  0  0  0  0  0  0  2 V2000
  151.6564  144.1111  159.4600 C   0  0  0  0  0  0  0  0  0  0  0  0
  150.9725  143.0098  158.6377 C   0  0  1  0  0  0  0  0  0  0  0  0
  149.4417  143.1125  158.7191 C   0  0  0  0  0  0  0  0  0  0  0  0
  148.7522  142.0131  157.8961 C   0  0  0  0  0  0  0  0  0  0  0  0
  149.1878  142.0199  156.4080 C   0  0  2  0  0  0  0  0  0  0  0  0
  148.4583  140.9165  155.5789 C   0  0  0  0  0  0  0  0  0  0  0  0
  148.8513  140.9263  154.0888 C   0  0  0  0  0  0  0  0  0  0  0  0
  146.9243  141.0152  155.6872 C   0  0  0  0  0  0  0  0  0  0  0  0
  150.7396  141.9529  156.3139 C   0  0  2  0  0  0  0  0  0  0  0  0
  151.2138  140.6250  156.6926 N   0  0  0  0  0  0  0  0  0  0  0  0
  151.7634  139.7048  155.8841 C   0  0  0  0  0  0  0  0  0  0  0  0
  151.9735  139.9029  154.6880 O   0  0  0  0  0  0  0  0  0  0  0  0
  152.1363  138.3468  156.5038 C   0  0  0  0  0  0  0  0  0  0  0  0
  151.2789  137.9406  157.6336 N   0  0  0  0  0  0  0  0  0  0  0  0
  149.8881  137.9361  157.4264 C   0  0  0  0  0  0  0  0  0  0  0  0
  149.0283  137.5421  158.3850 C   0  0  0  0  0  0  0  0  0  0  0  0
  149.5731  137.1124  159.6668 C   0  0  0  0  0  0  0  0  0  0  0  0
  148.8030  136.7475  160.5529 O   0  0  0  0  0  0  0  0  0  0  0  0
  150.9295  137.1351  159.8196 N   0  5  0  0  0  0  0  0  0  0  0  0
  151.7924  137.5346  158.8347 C   0  0  0  0  0  0  0  0  0  0  0  0
  153.0140  137.5303  158.9873 O   0  0  0  0  0  0  0  0  0  0  0  0
  151.4194  143.0464  157.1655 C   0  0  0  0  0  0  0  0  0  0  0  0
  151.3979  145.1031  159.0884 H   0  0  0  0  0  0  0  0  0  0  0  0
  152.7416  144.0126  159.4203 H   0  0  0  0  0  0  0  0  0  0  0  0
  151.3596  144.0597  160.5079 H   0  0  0  0  0  0  0  0  0  0  0  0
  151.2716  142.0514  159.0647 H   0  0  0  0  0  0  0  0  0  0  0  0
  149.1194  143.0431  159.7585 H   0  0  0  0  0  0  0  0  0  0  0  0
  149.1169  144.0903  158.3606 H   0  0  0  0  0  0  0  0  0  0  0  0
  148.9635  141.0390  158.3401 H   0  0  0  0  0  0  0  0  0  0  0  0
  147.6771  142.1606  157.9850 H   0  0  0  0  0  0  0  0  0  0  0  0
  148.8906  142.9836  155.9912 H   0  0  0  0  0  0  0  0  0  0  0  0
  148.7410  139.9411  155.9772 H   0  0  0  0  0  0  0  0  0  0  0  0
  148.6771  141.9040  153.6387 H   0  0  0  0  0  0  0  0  0  0  0  0
  148.2729  140.1938  153.5254 H   0  0  0  0  0  0  0  0  0  0  0  0
  149.8997  140.6675  153.9423 H   0  0  0  0  0  0  0  0  0  0  0  0
  146.5681  142.0016  155.3889 H   0  0  0  0  0  0  0  0  0  0  0  0
  146.5703  140.8188  156.6982 H   0  0  0  0  0  0  0  0  0  0  0  0
  146.4381  140.2809  155.0442 H   0  0  0  0  0  0  0  0  0  0  0  0
  151.0310  142.1349  155.2789 H   0  0  0  0  0  0  0  0  0  0  0  0
  151.0775  140.3624  157.6583 H   0  0  0  0  0  0  0  0  0  0  0  0
  152.1162  137.5877  155.7201 H   0  0  0  0  0  0  0  0  0  0  0  0
  153.1779  138.3962  156.8242 H   0  0  0  0  0  0  0  0  0  0  0  0
  149.5684  138.2598  156.4466 H   0  0  0  0  0  0  0  0  0  0  0  0
  147.9627  137.5398  158.2083 H   0  0  0  0  0  0  0  0  0  0  0  0
  151.1815  144.0228  156.7414 H   0  0  0  0  0  0  0  0  0  0  0  0
  152.5040  142.9500  157.1018 H   0  0  0  0  0  0  0  0  0  0  0  0
  1  2  1  0  0  0  0
  1 23  1  0  0  0  0
  1 24  1  0  0  0  0
  1 25  1  0  0  0  0
  2 22  1  0  0  0  0
  2  3  1  0  0  0  0
  2 26  1  0  0  0  0
  3  4  1  0  0  0  0
  3 27  1  0  0  0  0
  3 28  1  0  0  0  0
  4  5  1  0  0  0  0
  4 29  1  0  0  0  0
  4 30  1  0  0  0  0
  5  6  1  0  0  0  0
  5  9  1  0  0  0  0
  5 31  1  0  0  0  0
  6  7  1  0  0  0  0
  6  8  1  0  0  0  0
  6 32  1  0  0  0  0
  7 33  1  0  0  0  0
  7 34  1  0  0  0  0
  7 35  1  0  0  0  0
  8 36  1  0  0  0  0
  8 37  1  0  0  0  0
  8 38  1  0  0  0  0
  9 10  1  0  0  0  0
  9 22  1  0  0  0  0
  9 39  1  0  0  0  0
 10 11  1  0  0  0  0
 10 40  1  0  0  0  0
 11 12  2  0  0  0  0
 11 13  1  0  0  0  0
 13 14  1  0  0  0  0
 13 41  1  0  0  0  0
 13 42  1  0  0  0  0
 14 20  1  0  0  0  0
 14 15  1  0  0  0  0
 15 16  2  0  0  0  0
 15 43  1  0  0  0  0
 16 17  1  0  0  0  0
 16 44  1  0  0  0  0
 17 18  2  0  0  0  0
 17 19  1  0  0  0  0
 19 20  1  0  0  0  0
 20 21  2  0  0  0  0
 22 45  1  0  0  0  0
 22 46  1  0  0  0  0
M  CHG  1  19  -1
M  END
> <s_m_source_file>
AV-unprocessed.smi

> <i_m_source_file_index>
2855

> <i_lp_mmshare_version>
43012

> <i_f3d_flags>
0

> <s_epik_input>
W0NIM11bQ0BASF0xW0NIMl1bQ0gyXVtDQEBIXShbQ0hdKFtDSDNdKVtDSDNdKVtDQEhdKFtDSDJdMSlbTkhdQyg9TylbQ0gyXW4yW2NIXVtjSF1jKD1PKVtuSF1jMj1P

> <s_epik_cmdline>
J2VwaWtfcHl0aG9uJywgJy1waCcsICc3LjAnLCAnLXRuJywgJzgnLCAnLW1hJywgJzIwMCcsICctbWV0YWxfYmluZGluZycsICctaW1hZScsICc8aW5maWxlLm1hZT4nLCAnLW9tYWUnLCAnPG91dGZpbGUubWFlPic=

> <r_lp_tautomer_probability>
0.999537

> <r_epik_Ionization_Penalty>
3.12102

> <r_epik_Ionization_Penalty_Charging>
2.9581e-08

> <r_epik_Ionization_Penalty_Neutral>
3.12102

> <r_epik_State_Penalty>
3.12011

> <r_epik_Charging_Adjusted_Penalty>
3.12011

> <i_epik_Tot_Q>
-1

> <i_epik_Tot_abs_Q>
1

> <r_epik_Metal_State_Penalty>
0.463583

> <b_epik_Metal_Only>
1

> <s_lp_Force_Field>
OPLS_2005

> <r_lp_Energy>
20.8659

> <b_lp_Chiralities_Consistent>
1

> <s_lp_Variant>
AV-unprocessed.smi:2855-16

> <Gold.Version>
5.8.1

> <Gold.Id.Protein>
6NUR|6NUR_protein|mol2

> <Gold.PLP.Fitness>
39.1862

> <Gold.PLP.PLP>
-28.8620

> <Gold.PLP.part.hbond>
-2.8672

> <Gold.PLP.part.metal>
0.0000

> <Gold.PLP.part.buried>
-1.4312

> <Gold.PLP.part.nonpolar>
-24.4045

> <Gold.PLP.part.repulsive>
0.1642

> <Gold.PLP.ligand.clash>
0.0000

> <Gold.PLP.ligand.torsion>
0.5019

> <Gold.PLP.Chemscore.Hbond>
3.7600

> <Gold.PLP.Chemscore.CHOScore>
0.0000

> <Gold.PLP.Chemscore.Metal>
0.0000

> <Gold.Chemscore.Hbonds>
donor molecule, donor type, donor heavy atom, donor atom, acceptor molecule, acceptor atom, score
      P1  H  6896  6907       L1    19  2.00
      P1  H  6931  6943       L1    18  0.85
      P1  H  7989  7998       L1    12  0.88

> <Gold.PLP.Chemscore.Internal.Correction>
0.0479

> <Gold.Rescore>
     Score         DG    S(hbond)    S(metal)    S(lipo)     H(rot)  DE(clash)    DE(int)     intcor
     12.68     -13.66       1.28        0.00      73.13       1.81       0.47       0.52       ----

> <Gold.Chemscore.Fitness>
12.6753

> <Gold.Chemscore.DG>
-13.6620

> <Gold.Chemscore.ZeroCoef>
-5.4800

> <Gold.Chemscore.Hbond>
1.2751

> <Gold.Chemscore.Metal>
0.0000

> <Gold.Chemscore.Lipo>
73.1328

> <Gold.Chemscore.Internal_Hbond>
0.0000

> <Gold.Chemscore.DEClash>
0.4671

> <Gold.Chemscore.DEInternal>
0.5197

> <Gold.Chemscore.Rot>
1.8100

> <Gold.Chemscore.Internal.Correction>
   9.000000E+99

> <Gold.Chemscore.Hbonds>
donor molecule, donor type, donor heavy atom, donor atom, acceptor molecule, acceptor atom, score
      P1  H  6896  6907       L1    19  0.08
      P1  H  6931  6943       L1    18  0.21
      P1  H  7989  7998       L1    12  0.82

> <Gold.Chemscore.Hbond.Weighted>
-4.2589

> <Gold.Chemscore.Metal.Weighted>
-0.0000

> <Gold.Chemscore.Lipo.Weighted>
-8.5565

> <Gold.Chemscore.Internal_Hbond.Weighted>
0.0000

> <Gold.Chemscore.DEClash.Weighted>
0.4671

> <Gold.Chemscore.DEInternal.Weighted>
0.5197

> <Gold.Chemscore.Rot.Weighted>
4.6335

> <Gold.Chemscore.Internal.Correction.Weighted>
   9.000000E+99

> <Gold.Protein.RotatedTorsions>
[ 6907 6896 6895 6894 ] final  -15.70 input  -60.11 | X-H torsion
[ 7974 7965 7964 7962 ] final  -76.72 input  175.53 | X-H torsion
[ 8008 7997 7996 7995 ] final -125.00 input   59.86 | X-H torsion
[ 10167 10162 10161 10158 ] final   66.03 input  -65.29 | X-H torsion
[ 10718 10713 10712 10709 ] final  103.29 input   66.30 | X-H torsion
[ 10763 10752 10751 10750 ] final  -68.13 input  -60.55 | X-H torsion
[ 11005 11000 10999 10996 ] final -158.25 input  -57.11 | X-H torsion

> <Gold.Protein.ActiveResidues>
 VAL166  LYS551  ARG553  GLY616  TRP617  ASP618  TYR619  PRO620  LYS621  CYS622 
 ASP623  PHE694  ASN695  SER759  ASP760  ASP761  ALA762  ILE779  LEU786  VAL792 
 PHE793  MET794  SER795  GLU796  ALA797  LYS798  CYS799  TRP800  GLU811  SER814 

> <Gold.Protein.RotatedAtoms>
  151.3200  135.0816  159.9302 H   0  0  0  0  0  0  0  0  0  0  0  0  # atno 6907 bound_to 6896
  152.5259  133.9649  159.7745 H   0  0  0  0  0  0  0  0  0  0  0  0  # atno 6908 bound_to 6896
  150.9968  133.6043  159.2730 H   0  0  0  0  0  0  0  0  0  0  0  0  # atno 6909 bound_to 6896
  145.6091  140.9391  143.1199 H   0  0  0  0  0  0  0  0  0  0  0  0  # atno 7974 bound_to 7965
  155.2061  140.0417  157.2925 H   0  0  0  0  0  0  0  0  0  0  0  0  # atno 8008 bound_to 7997
  154.6042  140.2460  155.7723 H   0  0  0  0  0  0  0  0  0  0  0  0  # atno 8009 bound_to 7997
  156.2340  140.2928  156.0272 H   0  0  0  0  0  0  0  0  0  0  0  0  # atno 8010 bound_to 7997
  140.1049  144.4871  150.7014 H   0  0  0  0  0  0  0  0  0  0  0  0  # atno 10167 bound_to 10162
  157.6777  131.0775  150.5532 H   0  0  0  0  0  0  0  0  0  0  0  0  # atno 10718 bound_to 10713
  154.3846  135.6066  153.5809 H   0  0  0  0  0  0  0  0  0  0  0  0  # atno 10763 bound_to 10752
  152.9788  135.5869  154.4370 H   0  0  0  0  0  0  0  0  0  0  0  0  # atno 10764 bound_to 10752
  154.4144  135.2845  155.1994 H   0  0  0  0  0  0  0  0  0  0  0  0  # atno 10765 bound_to 10752
  140.6557  134.4403  157.5235 H   0  0  0  0  0  0  0  0  0  0  0  0  # atno 11005 bound_to 11000
  144.7277  139.7822  143.7359 LP  0  0  0  0  0  0  0  0  0  0  0  0  # atno 17320 bound_to 7965
  146.1518  139.4603  143.0044 LP  0  0  0  0  0  0  0  0  0  0  0  0  # atno 17321 bound_to 7965
  140.6958  143.2403  151.5005 LP  0  0  0  0  0  0  0  0  0  0  0  0  # atno 17342 bound_to 10162
  139.5651  144.2062  152.1752 LP  0  0  0  0  0  0  0  0  0  0  0  0  # atno 17343 bound_to 10162
  156.5837  130.4311  149.5966 LP  0  0  0  0  0  0  0  0  0  0  0  0  # atno 17370 bound_to 10713
  156.2641  130.6979  151.1756 LP  0  0  0  0  0  0  0  0  0  0  0  0  # atno 17371 bound_to 10713
  139.9030  134.8512  156.1817 LP  0  0  0  0  0  0  0  0  0  0  0  0  # atno 17394 bound_to 11000
  141.0503  133.6892  156.1760 LP  0  0  0  0  0  0  0  0  0  0  0  0  # atno 17395 bound_to 11000

$$$$
