AV-unprocessed.smi:3112|AV-procd|sdf|11844|dock5
  -GOLD-   2272017223D 1   1.00000     0.00000
 Structure written by MMmdl.
 36 36  0  0  0  0  0  0  0  0  1 V2000
  147.2102  140.2624  153.5491 C   0  0  0  0  0  0  0  0  0  0  0  0
  148.6441  140.2984  154.0959 C   0  0  0  0  0  0  0  0  0  0  0  0
  148.9213  141.5125  155.0047 C   0  0  2  0  0  0  0  0  0  0  0  0
  148.7902  142.6900  154.2349 O   0  0  0  0  0  0  0  0  0  0  0  0
  150.3386  141.5067  155.6021 C   0  0  0  0  0  0  0  0  0  0  0  0
  150.5652  142.6794  156.4487 N   0  0  0  0  0  0  0  0  0  0  0  0
  150.6535  142.3977  157.8849 C   0  0  2  0  0  0  0  0  0  0  0  0
  149.2362  142.0810  158.3986 C   0  0  0  0  0  0  0  0  0  0  0  0
  151.3166  143.5718  158.6664 C   0  0  2  0  0  0  0  0  0  0  0  0
  152.2556  144.4513  157.8197 C   0  0  0  0  0  0  0  0  0  0  0  0
  152.0264  143.1008  159.8498 N   0  0  0  0  0  0  0  0  0  0  0  0
  153.1076  142.2457  159.9125 C   0  0  0  0  0  0  0  0  0  0  0  0
  153.4345  142.0953  161.2295 C   0  0  0  0  0  0  0  0  0  0  0  0
  152.4832  142.9065  161.9083 C   0  0  0  0  0  0  0  0  0  0  0  0
  151.6427  143.5070  161.0818 N   0  0  0  0  0  0  0  0  0  0  0  0
  147.0519  139.3746  152.9367 H   0  0  0  0  0  0  0  0  0  0  0  0
  146.9969  141.1328  152.9283 H   0  0  0  0  0  0  0  0  0  0  0  0
  146.4807  140.2407  154.3594 H   0  0  0  0  0  0  0  0  0  0  0  0
  148.8138  139.3781  154.6555 H   0  0  0  0  0  0  0  0  0  0  0  0
  149.3535  140.2824  153.2675 H   0  0  0  0  0  0  0  0  0  0  0  0
  148.1877  141.5531  155.8111 H   0  0  0  0  0  0  0  0  0  0  0  0
  149.0337  143.4282  154.7725 H   0  0  0  0  0  0  0  0  0  0  0  0
  150.4884  140.5940  156.1805 H   0  0  0  0  0  0  0  0  0  0  0  0
  151.0666  141.4736  154.7939 H   0  0  0  0  0  0  0  0  0  0  0  0
  149.8197  143.3484  156.2849 H   0  0  0  0  0  0  0  0  0  0  0  0
  151.2479  141.4959  158.0398 H   0  0  0  0  0  0  0  0  0  0  0  0
  149.2449  141.7383  159.4333 H   0  0  0  0  0  0  0  0  0  0  0  0
  148.7746  141.2880  157.8090 H   0  0  0  0  0  0  0  0  0  0  0  0
  148.5883  142.9564  158.3423 H   0  0  0  0  0  0  0  0  0  0  0  0
  150.5160  144.2186  159.0294 H   0  0  0  0  0  0  0  0  0  0  0  0
  151.7005  145.0271  157.0800 H   0  0  0  0  0  0  0  0  0  0  0  0
  153.0037  143.8539  157.2978 H   0  0  0  0  0  0  0  0  0  0  0  0
  152.7838  145.1730  158.4437 H   0  0  0  0  0  0  0  0  0  0  0  0
  153.5508  141.8210  159.0239 H   0  0  0  0  0  0  0  0  0  0  0  0
  154.2316  141.4969  161.6452 H   0  0  0  0  0  0  0  0  0  0  0  0
  152.3791  143.0761  162.9700 H   0  0  0  0  0  0  0  0  0  0  0  0
  1  2  1  0  0  0  0
  1 16  1  0  0  0  0
  1 17  1  0  0  0  0
  1 18  1  0  0  0  0
  2  3  1  0  0  0  0
  2 19  1  0  0  0  0
  2 20  1  0  0  0  0
  3  4  1  0  0  0  0
  3  5  1  0  0  0  0
  3 21  1  0  0  0  0
  4 22  1  0  0  0  0
  5  6  1  0  0  0  0
  5 23  1  0  0  0  0
  5 24  1  0  0  0  0
  6  7  1  0  0  0  0
  6 25  1  0  0  0  0
  7  8  1  0  0  0  0
  7  9  1  0  0  0  0
  7 26  1  0  0  0  0
  8 27  1  0  0  0  0
  8 28  1  0  0  0  0
  8 29  1  0  0  0  0
  9 10  1  0  0  0  0
  9 11  1  0  0  0  0
  9 30  1  0  0  0  0
 10 31  1  0  0  0  0
 10 32  1  0  0  0  0
 10 33  1  0  0  0  0
 11 15  1  0  0  0  0
 11 12  1  0  0  0  0
 12 13  2  0  0  0  0
 12 34  1  0  0  0  0
 13 14  1  0  0  0  0
 13 35  1  0  0  0  0
 14 15  2  0  0  0  0
 14 36  1  0  0  0  0
M  END
> <s_m_source_file>
AV-unprocessed.smi

> <i_m_source_file_index>
3112

> <i_lp_mmshare_version>
43012

> <i_f3d_flags>
0

> <s_epik_input>
W0NIM11bQ0gyXVtDQEhdKFtPSF0pW0NIMl1bTkhdW0NASF0oW0NIM10pW0NASF0oW0NIM10pbjFbY0hdW2NIXVtjSF1uMQ==

> <s_epik_cmdline>
J2VwaWtfcHl0aG9uJywgJy1waCcsICc3LjAnLCAnLXRuJywgJzgnLCAnLW1hJywgJzIwMCcsICctbWV0YWxfYmluZGluZycsICctaW1hZScsICc8aW5maWxlLm1hZT4nLCAnLW9tYWUnLCAnPG91dGZpbGUubWFlPic=

> <r_lp_tautomer_probability>
1

> <r_epik_Ionization_Penalty>
2.16876

> <r_epik_Ionization_Penalty_Charging>
0

> <r_epik_Ionization_Penalty_Neutral>
2.16876

> <r_epik_State_Penalty>
2.30854

> <r_epik_Charging_Adjusted_Penalty>
2.30854

> <i_epik_Tot_Q>
0

> <i_epik_Tot_abs_Q>
0

> <r_epik_Metal_State_Penalty>
2.3073

> <b_epik_Metal_Only>
0

> <s_lp_Force_Field>
OPLS_2005

> <r_lp_Energy>
16.1769

> <b_lp_Chiralities_Consistent>
1

> <s_lp_Variant>
AV-unprocessed.smi:3112-9

> <Gold.Version>
5.8.1

> <Gold.Id.Protein>
6NUR|6NUR_protein|mol2

> <Gold.PLP.Fitness>
44.6661

> <Gold.PLP.PLP>
-40.8564

> <Gold.PLP.part.hbond>
-3.5515

> <Gold.PLP.part.metal>
0.0000

> <Gold.PLP.part.buried>
-3.2628

> <Gold.PLP.part.nonpolar>
-33.0600

> <Gold.PLP.part.repulsive>
0.1277

> <Gold.PLP.ligand.clash>
0.0000

> <Gold.PLP.ligand.torsion>
1.3145

> <Gold.PLP.Chemscore.Hbond>
2.0965

> <Gold.PLP.Chemscore.CHOScore>
0.0000

> <Gold.PLP.Chemscore.Metal>
0.0000

> <Gold.Chemscore.Hbonds>
donor molecule, donor type, donor heavy atom, donor atom, acceptor molecule, acceptor atom, score
      L1  H     4    22       P1  8028  1.00
      L1  H     6    25       P1  8028  1.00
      P1  H  8011  8017       L1     4  0.02

> <Gold.PLP.Chemscore.Internal.Correction>
0.1493

> <Gold.Rescore>
     Score         DG    S(hbond)    S(metal)    S(lipo)     H(rot)  DE(clash)    DE(int)     intcor
     16.82     -18.13       2.12        0.00      98.22       2.31       0.08       1.24       ----

> <Gold.Chemscore.Fitness>
16.8202

> <Gold.Chemscore.DG>
-18.1343

> <Gold.Chemscore.ZeroCoef>
-5.4800

> <Gold.Chemscore.Hbond>
2.1192

> <Gold.Chemscore.Metal>
0.0000

> <Gold.Chemscore.Lipo>
98.2223

> <Gold.Chemscore.Internal_Hbond>
0.0000

> <Gold.Chemscore.DEClash>
0.0752

> <Gold.Chemscore.DEInternal>
1.2390

> <Gold.Chemscore.Rot>
2.3108

> <Gold.Chemscore.Internal.Correction>
   9.000000E+99

> <Gold.Chemscore.Hbonds>
donor molecule, donor type, donor heavy atom, donor atom, acceptor molecule, acceptor atom, score
      L1  H     4    22       P1  8028  0.95
      L1  H     6    25       P1  8028  1.00
      P1  H  8011  8017       L1     4  0.04

> <Gold.Chemscore.Hbond.Weighted>
-7.0780

> <Gold.Chemscore.Metal.Weighted>
-0.0000

> <Gold.Chemscore.Lipo.Weighted>
-11.4920

> <Gold.Chemscore.Internal_Hbond.Weighted>
0.0000

> <Gold.Chemscore.DEClash.Weighted>
0.0752

> <Gold.Chemscore.DEInternal.Weighted>
1.2390

> <Gold.Chemscore.Rot.Weighted>
5.9157

> <Gold.Chemscore.Internal.Correction.Weighted>
   9.000000E+99

> <Gold.Protein.RotatedTorsions>
[ 6907 6896 6895 6894 ] final -137.10 input  -60.11 | X-H torsion
[ 7974 7965 7964 7962 ] final -103.77 input  175.53 | X-H torsion
[ 8008 7997 7996 7995 ] final  132.70 input   59.86 | X-H torsion
[ 10167 10162 10161 10158 ] final   83.74 input  -65.29 | X-H torsion
[ 10718 10713 10712 10709 ] final -152.60 input   66.30 | X-H torsion
[ 10763 10752 10751 10750 ] final  -39.56 input  -60.55 | X-H torsion
[ 11005 11000 10999 10996 ] final   88.50 input  -57.11 | X-H torsion

> <Gold.Protein.ActiveResidues>
 VAL166  LYS551  ARG553  GLY616  TRP617  ASP618  TYR619  PRO620  LYS621  CYS622 
 ASP623  PHE694  ASN695  SER759  ASP760  ASP761  ALA762  ILE779  LEU786  VAL792 
 PHE793  MET794  SER795  GLU796  ALA797  LYS798  CYS799  TRP800  GLU811  SER814 

> <Gold.Protein.RotatedAtoms>
  151.0183  133.5900  159.2674 H   0  0  0  0  0  0  0  0  0  0  0  0  # atno 6907 bound_to 6896
  151.3026  135.0772  159.9254 H   0  0  0  0  0  0  0  0  0  0  0  0  # atno 6908 bound_to 6896
  152.5317  133.9862  159.7884 H   0  0  0  0  0  0  0  0  0  0  0  0  # atno 6909 bound_to 6896
  145.2517  140.9240  143.3091 H   0  0  0  0  0  0  0  0  0  0  0  0  # atno 7974 bound_to 7965
  156.2985  140.2540  156.3132 H   0  0  0  0  0  0  0  0  0  0  0  0  # atno 8008 bound_to 7997
  154.9306  140.0398  157.2065 H   0  0  0  0  0  0  0  0  0  0  0  0  # atno 8009 bound_to 7997
  154.8221  140.2862  155.5784 H   0  0  0  0  0  0  0  0  0  0  0  0  # atno 8010 bound_to 7997
  139.9152  144.6247  150.8496 H   0  0  0  0  0  0  0  0  0  0  0  0  # atno 10167 bound_to 10162
  156.4747  130.8275  151.2503 H   0  0  0  0  0  0  0  0  0  0  0  0  # atno 10718 bound_to 10713
  153.9314  135.6771  153.4745 H   0  0  0  0  0  0  0  0  0  0  0  0  # atno 10763 bound_to 10752
  153.0978  135.4843  154.8808 H   0  0  0  0  0  0  0  0  0  0  0  0  # atno 10764 bound_to 10752
  154.7426  135.3164  154.8659 H   0  0  0  0  0  0  0  0  0  0  0  0  # atno 10765 bound_to 10752
  139.8895  134.8491  156.3009 H   0  0  0  0  0  0  0  0  0  0  0  0  # atno 11005 bound_to 11000
  144.9497  139.4097  143.6408 LP  0  0  0  0  0  0  0  0  0  0  0  0  # atno 17320 bound_to 7965
  146.3300  139.8498  142.8875 LP  0  0  0  0  0  0  0  0  0  0  0  0  # atno 17321 bound_to 7965
  140.7676  143.3336  151.2356 LP  0  0  0  0  0  0  0  0  0  0  0  0  # atno 17342 bound_to 10162
  139.6908  143.9695  152.2858 LP  0  0  0  0  0  0  0  0  0  0  0  0  # atno 17343 bound_to 10162
  157.7488  131.0065  150.3153 LP  0  0  0  0  0  0  0  0  0  0  0  0  # atno 17370 bound_to 10713
  156.3582  130.3842  149.7272 LP  0  0  0  0  0  0  0  0  0  0  0  0  # atno 17371 bound_to 10713
  140.9914  133.7206  156.0819 LP  0  0  0  0  0  0  0  0  0  0  0  0  # atno 17394 bound_to 11000
  140.7620  134.3928  157.5524 LP  0  0  0  0  0  0  0  0  0  0  0  0  # atno 17395 bound_to 11000

$$$$
