AV-unprocessed.smi:2079|AV-procd|sdf|8476|dock3
  -GOLD-   2272011183D 1   1.00000     0.00000
 Structure written by MMmdl.
 42 43  0  0  0  0  0  0  0  0  2 V2000
  150.0995  142.3696  157.6018 C   0  0  0  0  0  0  0  0  0  0  0  0
  150.0755  141.5050  156.3881 C   0  0  0  0  0  0  0  0  0  0  0  0
  149.0786  141.1326  155.5305 C   0  0  0  0  0  0  0  0  0  0  0  0
  149.7530  140.2975  154.6004 C   0  0  0  0  0  0  0  0  0  0  0  0
  149.0544  139.6914  153.5252 N   0  0  0  0  0  0  0  0  0  0  0  0
  147.8237  139.1522  153.5508 C   0  0  0  0  0  0  0  0  0  0  0  0
  147.0967  139.0860  154.5427 O   0  0  0  0  0  0  0  0  0  0  0  0
  147.4699  138.6795  152.3467 N   0  0  0  0  0  0  0  0  0  0  0  0
  146.1898  138.0481  152.0477 C   0  0  0  0  0  0  0  0  0  0  0  0
  145.9285  136.8390  152.9684 C   0  0  0  0  0  0  0  0  0  0  0  0
  146.3370  135.5392  152.3704 N   0  3  1  0  0  0  0  0  0  0  0  0
  146.4300  134.4639  153.3951 C   0  0  0  0  0  0  0  0  0  0  0  0
  147.0533  133.1847  152.8151 C   0  0  0  0  0  0  0  0  0  0  0  0
  146.2736  132.7007  151.5884 C   0  0  0  0  0  0  0  0  0  0  0  0
  146.1791  133.8302  150.5540 C   0  0  0  0  0  0  0  0  0  0  0  0
  145.5752  135.1196  151.1506 C   0  0  1  0  0  0  0  0  0  0  0  0
  144.0531  134.9987  151.3800 C   0  0  0  0  0  0  0  0  0  0  0  0
  151.0446  140.1724  154.8651 N   0  0  0  0  0  0  0  0  0  0  0  0
  151.2577  140.9450  156.0128 O   0  0  0  0  0  0  0  0  0  0  0  0
  149.2286  143.0247  157.6302 H   0  0  0  0  0  0  0  0  0  0  0  0
  150.9922  142.9951  157.6151 H   0  0  0  0  0  0  0  0  0  0  0  0
  150.0972  141.7628  158.5075 H   0  0  0  0  0  0  0  0  0  0  0  0
  148.0363  141.4131  155.5668 H   0  0  0  0  0  0  0  0  0  0  0  0
  149.5414  139.6742  152.6415 H   0  0  0  0  0  0  0  0  0  0  0  0
  148.1241  138.7741  151.5834 H   0  0  0  0  0  0  0  0  0  0  0  0
  145.4051  138.7995  152.1374 H   0  0  0  0  0  0  0  0  0  0  0  0
  146.2011  137.7283  151.0053 H   0  0  0  0  0  0  0  0  0  0  0  0
  146.5007  136.9900  153.8849 H   0  0  0  0  0  0  0  0  0  0  0  0
  144.8836  136.7962  153.2762 H   0  0  0  0  0  0  0  0  0  0  0  0
  147.0449  134.8052  154.2286 H   0  0  0  0  0  0  0  0  0  0  0  0
  145.4427  134.2526  153.8070 H   0  0  0  0  0  0  0  0  0  0  0  0
  148.0912  133.3755  152.5385 H   0  0  0  0  0  0  0  0  0  0  0  0
  147.0747  132.4030  153.5750 H   0  0  0  0  0  0  0  0  0  0  0  0
  146.7642  131.8305  151.1509 H   0  0  0  0  0  0  0  0  0  0  0  0
  145.2756  132.3769  151.8852 H   0  0  0  0  0  0  0  0  0  0  0  0
  147.1788  134.0462  150.1741 H   0  0  0  0  0  0  0  0  0  0  0  0
  145.5956  133.5007  149.6935 H   0  0  0  0  0  0  0  0  0  0  0  0
  145.7184  135.8851  150.3891 H   0  0  0  0  0  0  0  0  0  0  0  0
  143.5530  134.6629  150.4712 H   0  0  0  0  0  0  0  0  0  0  0  0
  143.6057  135.9564  151.6450 H   0  0  0  0  0  0  0  0  0  0  0  0
  143.8064  134.2862  152.1664 H   0  0  0  0  0  0  0  0  0  0  0  0
  147.2859  135.6804  152.0545 H   0  0  0  0  0  0  0  0  0  0  0  0
  1  2  1  0  0  0  0
  1 20  1  0  0  0  0
  1 21  1  0  0  0  0
  1 22  1  0  0  0  0
  2 19  1  0  0  0  0
  2  3  2  0  0  0  0
  3  4  1  0  0  0  0
  3 23  1  0  0  0  0
  4  5  1  0  0  0  0
  4 18  2  0  0  0  0
  5  6  1  0  0  0  0
  5 24  1  0  0  0  0
  6  7  2  0  0  0  0
  6  8  1  0  0  0  0
  8  9  1  0  0  0  0
  8 25  1  0  0  0  0
  9 10  1  0  0  0  0
  9 26  1  0  0  0  0
  9 27  1  0  0  0  0
 10 11  1  0  0  0  0
 10 28  1  0  0  0  0
 10 29  1  0  0  0  0
 11 16  1  0  0  0  0
 11 12  1  0  0  0  0
 11 42  1  0  0  0  0
 12 13  1  0  0  0  0
 12 30  1  0  0  0  0
 12 31  1  0  0  0  0
 13 14  1  0  0  0  0
 13 32  1  0  0  0  0
 13 33  1  0  0  0  0
 14 15  1  0  0  0  0
 14 34  1  0  0  0  0
 14 35  1  0  0  0  0
 15 16  1  0  0  0  0
 15 36  1  0  0  0  0
 15 37  1  0  0  0  0
 16 17  1  0  0  0  0
 16 38  1  0  0  0  0
 17 39  1  0  0  0  0
 17 40  1  0  0  0  0
 17 41  1  0  0  0  0
 18 19  1  0  0  0  0
M  CHG  1  11   1
M  END
> <s_m_source_file>
AV-unprocessed.smi

> <i_m_source_file_index>
2079

> <i_lp_mmshare_version>
43012

> <i_f3d_flags>
0

> <s_epik_input>
W0NIM11jMVtjSF1jKG5vMSlbTkhdQyg9TylbTkhdW0NIMl1bQ0gyXU4yW0NIMl1bQ0gyXVtDSDJdW0NIMl1bQ0BIXTJbQ0gzXQ==

> <s_epik_cmdline>
J2VwaWtfcHl0aG9uJywgJy1waCcsICc3LjAnLCAnLXRuJywgJzgnLCAnLW1hJywgJzIwMCcsICctbWV0YWxfYmluZGluZycsICctaW1hZScsICc8aW5maWxlLm1hZT4nLCAnLW9tYWUnLCAnPG91dGZpbGUubWFlPic=

> <r_epik_Ionization_Penalty>
0.00265971

> <r_epik_Ionization_Penalty_Charging>
0.00262393

> <r_epik_Ionization_Penalty_Neutral>
3.57846e-05

> <r_epik_State_Penalty>
0.00182566

> <r_epik_Charging_Adjusted_Penalty>
0.00444959

> <i_epik_Tot_Q>
1

> <i_epik_Tot_abs_Q>
1

> <r_epik_Metal_State_Penalty>
0.0216344

> <b_epik_Metal_Only>
0

> <s_lp_Force_Field>
OPLS_2005

> <r_lp_Energy>
16.3098

> <b_lp_Chiralities_Consistent>
1

> <s_lp_Variant>
AV-unprocessed.smi:2079-2

> <Gold.Version>
5.8.1

> <Gold.Id.Protein>
6NUR|6NUR_protein|mol2

> <Gold.PLP.Fitness>
45.0327

> <Gold.PLP.PLP>
-31.9650

> <Gold.PLP.part.hbond>
-4.9795

> <Gold.PLP.part.metal>
0.0000

> <Gold.PLP.part.buried>
-3.2584

> <Gold.PLP.part.nonpolar>
-23.4952

> <Gold.PLP.part.repulsive>
0.4076

> <Gold.PLP.ligand.clash>
0.0000

> <Gold.PLP.ligand.torsion>
0.6174

> <Gold.PLP.Chemscore.Hbond>
4.7520

> <Gold.PLP.Chemscore.CHOScore>
0.0000

> <Gold.PLP.Chemscore.Metal>
0.0000

> <Gold.Chemscore.Hbonds>
donor molecule, donor type, donor heavy atom, donor atom, acceptor molecule, acceptor atom, score
      L1  H     5    24       P1  7957  0.99
      L1  H     8    25       P1  7957  0.72
      L1  H    11    42       P1  7948  2.00
      P1  H  7989  7998       L1    18  0.90

> <Gold.PLP.Chemscore.Internal.Correction>
0.0466

> <Gold.Rescore>
     Score         DG    S(hbond)    S(metal)    S(lipo)     H(rot)  DE(clash)    DE(int)     intcor
     16.27     -18.41       2.92        0.00      61.59       1.57       0.35       1.78       ----

> <Gold.Chemscore.Fitness>
16.2734

> <Gold.Chemscore.DG>
-18.4087

> <Gold.Chemscore.ZeroCoef>
-5.4800

> <Gold.Chemscore.Hbond>
2.9164

> <Gold.Chemscore.Metal>
0.0000

> <Gold.Chemscore.Lipo>
61.5944

> <Gold.Chemscore.Internal_Hbond>
0.0000

> <Gold.Chemscore.DEClash>
0.3512

> <Gold.Chemscore.DEInternal>
1.7842

> <Gold.Chemscore.Rot>
1.5697

> <Gold.Chemscore.Internal.Correction>
   9.000000E+99

> <Gold.Chemscore.Hbonds>
donor molecule, donor type, donor heavy atom, donor atom, acceptor molecule, acceptor atom, score
      L1  H     5    24       P1  7957  0.88
      L1  H     8    25       P1  7957  0.46
      L1  H    11    42       P1  7948  1.00
      P1  H  7989  7998       L1    18  0.15

> <Gold.Chemscore.Hbond.Weighted>
-9.7406

> <Gold.Chemscore.Metal.Weighted>
-0.0000

> <Gold.Chemscore.Lipo.Weighted>
-7.2065

> <Gold.Chemscore.Internal_Hbond.Weighted>
0.0000

> <Gold.Chemscore.DEClash.Weighted>
0.3512

> <Gold.Chemscore.DEInternal.Weighted>
1.7842

> <Gold.Chemscore.Rot.Weighted>
4.0185

> <Gold.Chemscore.Internal.Correction.Weighted>
   9.000000E+99

> <Gold.Protein.RotatedTorsions>
[ 6907 6896 6895 6894 ] final   56.88 input  -60.11 | X-H torsion
[ 7974 7965 7964 7962 ] final  166.41 input  175.53 | X-H torsion
[ 8008 7997 7996 7995 ] final -145.92 input   59.86 | X-H torsion
[ 10167 10162 10161 10158 ] final  -50.41 input  -65.29 | X-H torsion
[ 10718 10713 10712 10709 ] final  -11.01 input   66.30 | X-H torsion
[ 10763 10752 10751 10750 ] final  -31.42 input  -60.55 | X-H torsion
[ 11005 11000 10999 10996 ] final  -44.47 input  -57.11 | X-H torsion

> <Gold.Protein.ActiveResidues>
 VAL166  LYS551  ARG553  GLY616  TRP617  ASP618  TYR619  PRO620  LYS621  CYS622 
 ASP623  PHE694  ASN695  SER759  ASP760  ASP761  ALA762  ILE779  LEU786  VAL792 
 PHE793  MET794  SER795  GLU796  ALA797  LYS798  CYS799  TRP800  GLU811  SER814 

> <Gold.Protein.RotatedAtoms>
  152.3678  134.6778  160.0185 H   0  0  0  0  0  0  0  0  0  0  0  0  # atno 6907 bound_to 6896
  151.7081  133.3306  159.3292 H   0  0  0  0  0  0  0  0  0  0  0  0  # atno 6908 bound_to 6896
  150.7651  134.6491  159.6323 H   0  0  0  0  0  0  0  0  0  0  0  0  # atno 6909 bound_to 6896
  144.7464  139.8611  143.6381 H   0  0  0  0  0  0  0  0  0  0  0  0  # atno 7974 bound_to 7965
  155.5509  140.0616  157.2850 H   0  0  0  0  0  0  0  0  0  0  0  0  # atno 8008 bound_to 7997
  154.4421  140.1902  156.0730 H   0  0  0  0  0  0  0  0  0  0  0  0  # atno 8009 bound_to 7997
  156.0516  140.3283  155.7362 H   0  0  0  0  0  0  0  0  0  0  0  0  # atno 8010 bound_to 7997
  140.6639  143.2659  151.4355 H   0  0  0  0  0  0  0  0  0  0  0  0  # atno 10167 bound_to 10162
  156.6652  130.4993  149.6017 H   0  0  0  0  0  0  0  0  0  0  0  0  # atno 10718 bound_to 10713
  153.7971  135.6893  153.4862 H   0  0  0  0  0  0  0  0  0  0  0  0  # atno 10763 bound_to 10752
  153.1712  135.4542  154.9903 H   0  0  0  0  0  0  0  0  0  0  0  0  # atno 10764 bound_to 10752
  154.8021  135.3342  154.7463 H   0  0  0  0  0  0  0  0  0  0  0  0  # atno 10765 bound_to 10752
  141.0452  133.6764  156.2877 H   0  0  0  0  0  0  0  0  0  0  0  0  # atno 11005 bound_to 11000
  146.1348  139.4391  143.0146 LP  0  0  0  0  0  0  0  0  0  0  0  0  # atno 17320 bound_to 7965
  145.7109  141.0106  143.1454 LP  0  0  0  0  0  0  0  0  0  0  0  0  # atno 17321 bound_to 7965
  139.5881  144.1559  152.2054 LP  0  0  0  0  0  0  0  0  0  0  0  0  # atno 17342 bound_to 10162
  140.0905  144.5624  150.7058 LP  0  0  0  0  0  0  0  0  0  0  0  0  # atno 17343 bound_to 10162
  156.1980  130.6602  151.1136 LP  0  0  0  0  0  0  0  0  0  0  0  0  # atno 17370 bound_to 10713
  157.7096  131.0740  150.6547 LP  0  0  0  0  0  0  0  0  0  0  0  0  # atno 17371 bound_to 10713
  140.6159  134.5411  157.5540 LP  0  0  0  0  0  0  0  0  0  0  0  0  # atno 17394 bound_to 11000
  139.9306  134.7970  156.0941 LP  0  0  0  0  0  0  0  0  0  0  0  0  # atno 17395 bound_to 11000

$$$$
