AV-unprocessed.smi:2822|AV-procd|sdf|10866|dock1
  -GOLD-   2272015313D 1   1.00000     0.00000
 Structure written by MMmdl.
 41 43  0  0  0  0  0  0  0  0  3 V2000
  149.9453  139.6536  154.6893 Cl  0  0  0  0  0  0  0  0  0  0  0  0
  148.6632  140.7115  154.2135 C   0  0  0  0  0  0  0  0  0  0  0  0
  148.5936  142.0045  154.7718 C   0  0  0  0  0  0  0  0  0  0  0  0
  147.5985  142.8429  154.4124 N   0  3  0  0  0  0  0  0  0  0  0  0
  146.6424  142.5002  153.5235 C   0  0  0  0  0  0  0  0  0  0  0  0
  146.6578  141.2208  152.9310 C   0  0  0  0  0  0  0  0  0  0  0  0
  147.6813  140.3034  153.2768 C   0  0  0  0  0  0  0  0  0  0  0  0
  147.7539  139.0152  152.7248 N   0  0  0  0  0  0  0  0  0  0  0  0
  146.7375  138.5220  151.8081 C   0  0  0  0  0  0  0  0  0  0  0  0
  145.6065  137.7972  152.5660 C   0  0  2  0  0  0  0  0  0  0  0  0
  146.1186  136.7559  153.5796 C   0  0  0  0  0  0  0  0  0  0  0  0
  146.6578  135.5538  152.9007 N   0  3  1  0  0  0  0  0  0  0  0  0
  147.1793  134.5536  153.8670 C   0  0  0  0  0  0  0  0  0  0  0  0
  147.8112  133.3551  153.1414 C   0  0  0  0  0  0  0  0  0  0  0  0
  146.8078  132.7137  152.1753 C   0  0  0  0  0  0  0  0  0  0  0  0
  146.2680  133.7710  151.2034 C   0  0  0  0  0  0  0  0  0  0  0  0
  145.6638  134.9725  151.9583 C   0  0  2  0  0  0  0  0  0  0  0  0
  145.1737  136.0525  150.9755 C   0  0  0  0  0  0  0  0  0  0  0  0
  144.6689  137.1791  151.6845 O   0  0  0  0  0  0  0  0  0  0  0  0
  149.3015  142.3899  155.4913 H   0  0  0  0  0  0  0  0  0  0  0  0
  145.8990  143.2555  153.3126 H   0  0  0  0  0  0  0  0  0  0  0  0
  145.8869  140.9666  152.2189 H   0  0  0  0  0  0  0  0  0  0  0  0
  148.4180  138.3548  153.1053 H   0  0  0  0  0  0  0  0  0  0  0  0
  146.3451  139.3425  151.2077 H   0  0  0  0  0  0  0  0  0  0  0  0
  147.2118  137.8250  151.1163 H   0  0  0  0  0  0  0  0  0  0  0  0
  145.0541  138.5525  153.1268 H   0  0  0  0  0  0  0  0  0  0  0  0
  146.8838  137.1987  154.2185 H   0  0  0  0  0  0  0  0  0  0  0  0
  145.2990  136.4547  154.2342 H   0  0  0  0  0  0  0  0  0  0  0  0
  147.9239  135.0225  154.5111 H   0  0  0  0  0  0  0  0  0  0  0  0
  146.3693  134.2132  154.5142 H   0  0  0  0  0  0  0  0  0  0  0  0
  148.6955  133.6812  152.5922 H   0  0  0  0  0  0  0  0  0  0  0  0
  148.1521  132.6172  153.8680 H   0  0  0  0  0  0  0  0  0  0  0  0
  147.2817  131.9011  151.6238 H   0  0  0  0  0  0  0  0  0  0  0  0
  145.9835  132.2718  152.7368 H   0  0  0  0  0  0  0  0  0  0  0  0
  147.0757  134.1104  150.5533 H   0  0  0  0  0  0  0  0  0  0  0  0
  145.5172  133.3215  150.5525 H   0  0  0  0  0  0  0  0  0  0  0  0
  144.8086  134.6252  152.5414 H   0  0  0  0  0  0  0  0  0  0  0  0
  145.9671  136.3538  150.2913 H   0  0  0  0  0  0  0  0  0  0  0  0
  144.3710  135.6537  150.3547 H   0  0  0  0  0  0  0  0  0  0  0  0
  147.4436  135.8576  152.3438 H   0  0  0  0  0  0  0  0  0  0  0  0
  147.5689  143.7743  154.8288 H   0  0  0  0  0  0  0  0  0  0  0  0
  1  2  1  0  0  0  0
  2  7  1  0  0  0  0
  2  3  2  0  0  0  0
  3  4  1  0  0  0  0
  3 20  1  0  0  0  0
  4  5  2  0  0  0  0
  4 41  1  0  0  0  0
  5  6  1  0  0  0  0
  5 21  1  0  0  0  0
  6  7  2  0  0  0  0
  6 22  1  0  0  0  0
  7  8  1  0  0  0  0
  8  9  1  0  0  0  0
  8 23  1  0  0  0  0
  9 10  1  0  0  0  0
  9 24  1  0  0  0  0
  9 25  1  0  0  0  0
 10 19  1  0  0  0  0
 10 11  1  0  0  0  0
 10 26  1  0  0  0  0
 11 12  1  0  0  0  0
 11 27  1  0  0  0  0
 11 28  1  0  0  0  0
 12 17  1  0  0  0  0
 12 13  1  0  0  0  0
 12 40  1  0  0  0  0
 13 14  1  0  0  0  0
 13 29  1  0  0  0  0
 13 30  1  0  0  0  0
 14 15  1  0  0  0  0
 14 31  1  0  0  0  0
 14 32  1  0  0  0  0
 15 16  1  0  0  0  0
 15 33  1  0  0  0  0
 15 34  1  0  0  0  0
 16 17  1  0  0  0  0
 16 35  1  0  0  0  0
 16 36  1  0  0  0  0
 17 18  1  0  0  0  0
 17 37  1  0  0  0  0
 18 19  1  0  0  0  0
 18 38  1  0  0  0  0
 18 39  1  0  0  0  0
M  CHG  1   4   1
M  CHG  1  12   1
M  END
> <s_m_source_file>
AV-unprocessed.smi

> <i_m_source_file_index>
2822

> <i_lp_mmshare_version>
43012

> <i_f3d_flags>
0

> <s_epik_input>
Q2xjMVtjSF1uW2NIXVtjSF1jMVtOSF1bQ0gyXVtDQEhdKFtDSDJdMilPW0NIMl1bQ0BASF0oTjIzKVtDSDJdW0NIMl1bQ0gyXVtDSDJdMw==

> <s_epik_cmdline>
J2VwaWtfcHl0aG9uJywgJy1waCcsICc3LjAnLCAnLXRuJywgJzgnLCAnLW1hJywgJzIwMCcsICctbWV0YWxfYmluZGluZycsICctaW1hZScsICc8aW5maWxlLm1hZT4nLCAnLW9tYWUnLCAnPG91dGZpbGUubWFlPic=

> <r_lp_tautomer_probability>
1

> <r_epik_Ionization_Penalty>
0.254999

> <r_epik_Ionization_Penalty_Charging>
0.254956

> <r_epik_Ionization_Penalty_Neutral>
4.33524e-05

> <r_epik_State_Penalty>
0.230978

> <r_epik_Charging_Adjusted_Penalty>
0.485934

> <i_epik_Tot_Q>
2

> <i_epik_Tot_abs_Q>
2

> <r_epik_Metal_State_Penalty>
3.47007

> <b_epik_Metal_Only>
0

> <s_lp_Force_Field>
OPLS_2005

> <r_lp_Energy>
41.9654

> <b_lp_Chiralities_Consistent>
1

> <s_lp_Variant>
AV-unprocessed.smi:2822-7

> <Gold.Version>
5.8.1

> <Gold.Id.Protein>
6NUR|6NUR_protein|mol2

> <Gold.PLP.Fitness>
48.8682

> <Gold.PLP.PLP>
-36.0134

> <Gold.PLP.part.hbond>
-4.0000

> <Gold.PLP.part.metal>
0.0000

> <Gold.PLP.part.buried>
1.0233

> <Gold.PLP.part.nonpolar>
-33.6526

> <Gold.PLP.part.repulsive>
1.1159

> <Gold.PLP.ligand.clash>
0.0000

> <Gold.PLP.ligand.torsion>
0.2297

> <Gold.PLP.Chemscore.Hbond>
4.4352

> <Gold.PLP.Chemscore.CHOScore>
0.0000

> <Gold.PLP.Chemscore.Metal>
0.0000

> <Gold.Chemscore.Hbonds>
donor molecule, donor type, donor heavy atom, donor atom, acceptor molecule, acceptor atom, score
      L1  H     4    41       P1  8028  0.87
      L1  H    12    40       P1  7948  2.00

> <Gold.PLP.Chemscore.Internal.Correction>
0.0085

> <Gold.Rescore>
     Score         DG    S(hbond)    S(metal)    S(lipo)     H(rot)  DE(clash)    DE(int)     intcor
     16.49     -20.81       2.20        0.00      94.26       1.20       4.12       0.19       ----

> <Gold.Chemscore.Fitness>
16.4912

> <Gold.Chemscore.DG>
-20.8073

> <Gold.Chemscore.ZeroCoef>
-5.4800

> <Gold.Chemscore.Hbond>
2.2041

> <Gold.Chemscore.Metal>
0.0000

> <Gold.Chemscore.Lipo>
94.2552

> <Gold.Chemscore.Internal_Hbond>
0.0000

> <Gold.Chemscore.DEClash>
4.1249

> <Gold.Chemscore.DEInternal>
0.1912

> <Gold.Chemscore.Rot>
1.1962

> <Gold.Chemscore.Internal.Correction>
   9.000000E+99

> <Gold.Chemscore.Hbonds>
donor molecule, donor type, donor heavy atom, donor atom, acceptor molecule, acceptor atom, score
      L1  H     4    41       P1  8028  0.05
      L1  H     8    23       P1  7948  0.01
      L1  H    12    40       P1  7948  0.99

> <Gold.Chemscore.Hbond.Weighted>
-7.3618

> <Gold.Chemscore.Metal.Weighted>
-0.0000

> <Gold.Chemscore.Lipo.Weighted>
-11.0279

> <Gold.Chemscore.Internal_Hbond.Weighted>
0.0000

> <Gold.Chemscore.DEClash.Weighted>
4.1249

> <Gold.Chemscore.DEInternal.Weighted>
0.1912

> <Gold.Chemscore.Rot.Weighted>
3.0623

> <Gold.Chemscore.Internal.Correction.Weighted>
   9.000000E+99

> <Gold.Protein.RotatedTorsions>
[ 6907 6896 6895 6894 ] final   65.99 input  -60.11 | X-H torsion
[ 7974 7965 7964 7962 ] final  -30.03 input  175.53 | X-H torsion
[ 8008 7997 7996 7995 ] final -148.82 input   59.86 | X-H torsion
[ 10167 10162 10161 10158 ] final  149.17 input  -65.29 | X-H torsion
[ 10718 10713 10712 10709 ] final -103.26 input   66.30 | X-H torsion
[ 10763 10752 10751 10750 ] final  -96.88 input  -60.55 | X-H torsion
[ 11005 11000 10999 10996 ] final -174.92 input  -57.11 | X-H torsion

> <Gold.Protein.ActiveResidues>
 VAL166  LYS551  ARG553  GLY616  TRP617  ASP618  TYR619  PRO620  LYS621  CYS622 
 ASP623  PHE694  ASN695  SER759  ASP760  ASP761  ALA762  ILE779  LEU786  VAL792 
 PHE793  MET794  SER795  GLU796  ALA797  LYS798  CYS799  TRP800  GLU811  SER814 

> <Gold.Protein.RotatedAtoms>
  152.4449  134.5516  159.9868 H   0  0  0  0  0  0  0  0  0  0  0  0  # atno 6907 bound_to 6896
  151.5604  133.3398  159.2978 H   0  0  0  0  0  0  0  0  0  0  0  0  # atno 6908 bound_to 6896
  150.8362  134.7669  159.6959 H   0  0  0  0  0  0  0  0  0  0  0  0  # atno 6909 bound_to 6896
  146.1173  140.5489  142.8751 H   0  0  0  0  0  0  0  0  0  0  0  0  # atno 7974 bound_to 7965
  155.5977  140.0659  157.2741 H   0  0  0  0  0  0  0  0  0  0  0  0  # atno 8008 bound_to 7997
  154.4287  140.1824  156.1188 H   0  0  0  0  0  0  0  0  0  0  0  0  # atno 8009 bound_to 7997
  156.0183  140.3319  155.7016 H   0  0  0  0  0  0  0  0  0  0  0  0  # atno 8010 bound_to 7997
  139.4865  144.5623  151.7209 H   0  0  0  0  0  0  0  0  0  0  0  0  # atno 10167 bound_to 10162
  156.0259  130.5459  150.7228 H   0  0  0  0  0  0  0  0  0  0  0  0  # atno 10718 bound_to 10713
  154.7279  135.5067  153.8915 H   0  0  0  0  0  0  0  0  0  0  0  0  # atno 10763 bound_to 10752
  153.0922  135.6662  153.9841 H   0  0  0  0  0  0  0  0  0  0  0  0  # atno 10764 bound_to 10752
  153.9649  135.3044  155.3410 H   0  0  0  0  0  0  0  0  0  0  0  0  # atno 10765 bound_to 10752
  140.4691  134.6182  157.4874 H   0  0  0  0  0  0  0  0  0  0  0  0  # atno 11005 bound_to 11000
  144.7564  140.5318  143.6766 LP  0  0  0  0  0  0  0  0  0  0  0  0  # atno 17320 bound_to 7965
  145.5540  139.1477  143.3378 LP  0  0  0  0  0  0  0  0  0  0  0  0  # atno 17321 bound_to 7965
  140.5194  144.0902  150.6018 LP  0  0  0  0  0  0  0  0  0  0  0  0  # atno 17342 bound_to 10162
  140.3855  143.2780  152.0121 LP  0  0  0  0  0  0  0  0  0  0  0  0  # atno 17343 bound_to 10162
  157.4839  131.0905  151.0504 LP  0  0  0  0  0  0  0  0  0  0  0  0  # atno 17370 bound_to 10713
  157.0930  130.5950  149.5443 LP  0  0  0  0  0  0  0  0  0  0  0  0  # atno 17371 bound_to 10713
  139.9896  134.7006  155.9712 LP  0  0  0  0  0  0  0  0  0  0  0  0  # atno 17394 bound_to 11000
  141.1585  133.6540  156.4241 LP  0  0  0  0  0  0  0  0  0  0  0  0  # atno 17395 bound_to 11000

$$$$
