AV-unprocessed.smi:2690|AV-procd|sdf|10388|dock3
  -GOLD-   2272014423D 1   1.00000     0.00000
 Structure written by MMmdl.
 47 49  0  0  0  0  0  0  0  0  1 V2000
  153.0716  142.8740  161.7148 C   0  0  0  0  0  0  0  0  0  0  0  0
  152.8544  142.7239  160.2025 C   0  0  2  0  0  0  0  0  0  0  0  0
  151.8973  143.7992  159.6600 C   0  0  0  0  0  0  0  0  0  0  0  0
  151.6862  143.6611  158.1417 C   0  0  0  0  0  0  0  0  0  0  0  0
  151.2102  142.2493  157.7185 C   0  0  1  0  0  0  0  0  0  0  0  0
  149.8992  142.0536  158.2200 O   0  0  0  0  0  0  0  0  0  0  0  0
  151.1553  142.0844  156.1786 C   0  0  0  0  0  0  0  0  0  0  0  0
  150.7907  140.7473  155.7353 N   0  0  0  0  0  0  0  0  0  0  0  0
  149.5363  140.1803  155.7785 C   0  0  0  0  0  0  0  0  0  0  0  0
  149.4591  138.9608  155.3190 N   0  0  0  0  0  0  0  0  0  0  0  0
  150.7613  138.6626  154.9388 C   0  0  0  0  0  0  0  0  0  0  0  0
  151.3815  137.5233  154.3639 C   0  0  0  0  0  0  0  0  0  0  0  0
  150.6657  136.4135  154.0748 N   0  0  0  0  0  0  0  0  0  0  0  0
  150.9648  135.1301  154.7038 C   0  0  0  0  0  0  0  0  0  0  0  0
  150.0542  134.0174  154.1583 C   0  0  0  0  0  0  0  0  0  0  0  0
  150.8310  135.2512  156.2273 C   0  0  0  0  0  0  0  0  0  0  0  0
  152.7169  137.5869  154.1195 N   0  0  0  0  0  0  0  0  0  0  0  0
  153.4012  138.6957  154.4190 C   0  0  0  0  0  0  0  0  0  0  0  0
  152.9545  139.8328  154.9574 N   0  0  0  0  0  0  0  0  0  0  0  0
  151.6138  139.7712  155.2006 C   0  0  0  0  0  0  0  0  0  0  0  0
  152.1269  141.1638  158.3279 C   0  0  0  0  0  0  0  0  0  0  0  0
  152.3282  141.3231  159.8453 C   0  0  0  0  0  0  0  0  0  0  0  0
  152.1361  142.7582  162.2632 H   0  0  0  0  0  0  0  0  0  0  0  0
  153.4809  143.8549  161.9579 H   0  0  0  0  0  0  0  0  0  0  0  0
  153.7705  142.1246  162.0874 H   0  0  0  0  0  0  0  0  0  0  0  0
  153.8224  142.8557  159.7167 H   0  0  0  0  0  0  0  0  0  0  0  0
  150.9365  143.7304  160.1718 H   0  0  0  0  0  0  0  0  0  0  0  0
  152.2904  144.7921  159.8805 H   0  0  0  0  0  0  0  0  0  0  0  0
  150.9781  144.4219  157.8116 H   0  0  0  0  0  0  0  0  0  0  0  0
  152.6276  143.8857  157.6386 H   0  0  0  0  0  0  0  0  0  0  0  0
  149.6821  141.1376  158.1385 H   0  0  0  0  0  0  0  0  0  0  0  0
  150.4399  142.7891  155.7529 H   0  0  0  0  0  0  0  0  0  0  0  0
  152.1220  142.3334  155.7381 H   0  0  0  0  0  0  0  0  0  0  0  0
  148.6732  140.7064  156.1603 H   0  0  0  0  0  0  0  0  0  0  0  0
  149.9644  136.3911  153.3485 H   0  0  0  0  0  0  0  0  0  0  0  0
  152.0020  134.8663  154.4939 H   0  0  0  0  0  0  0  0  0  0  0  0
  150.2840  133.0595  154.6252 H   0  0  0  0  0  0  0  0  0  0  0  0
  150.1749  133.8911  153.0823 H   0  0  0  0  0  0  0  0  0  0  0  0
  149.0033  134.2363  154.3500 H   0  0  0  0  0  0  0  0  0  0  0  0
  151.0781  134.3097  156.7185 H   0  0  0  0  0  0  0  0  0  0  0  0
  149.8155  135.5219  156.5186 H   0  0  0  0  0  0  0  0  0  0  0  0
  151.5053  136.0128  156.6207 H   0  0  0  0  0  0  0  0  0  0  0  0
  154.4574  138.6678  154.1953 H   0  0  0  0  0  0  0  0  0  0  0  0
  151.7283  140.1709  158.1147 H   0  0  0  0  0  0  0  0  0  0  0  0
  153.1034  141.2058  157.8437 H   0  0  0  0  0  0  0  0  0  0  0  0
  153.0253  140.5626  160.1990 H   0  0  0  0  0  0  0  0  0  0  0  0
  151.3861  141.1384  160.3635 H   0  0  0  0  0  0  0  0  0  0  0  0
  1  2  1  0  0  0  0
  1 23  1  0  0  0  0
  1 24  1  0  0  0  0
  1 25  1  0  0  0  0
  2 22  1  0  0  0  0
  2  3  1  0  0  0  0
  2 26  1  0  0  0  0
  3  4  1  0  0  0  0
  3 27  1  0  0  0  0
  3 28  1  0  0  0  0
  4  5  1  0  0  0  0
  4 29  1  0  0  0  0
  4 30  1  0  0  0  0
  5  6  1  0  0  0  0
  5  7  1  0  0  0  0
  5 21  1  0  0  0  0
  6 31  1  0  0  0  0
  7  8  1  0  0  0  0
  7 32  1  0  0  0  0
  7 33  1  0  0  0  0
  8 20  1  0  0  0  0
  8  9  1  0  0  0  0
  9 10  2  0  0  0  0
  9 34  1  0  0  0  0
 10 11  1  0  0  0  0
 11 20  2  0  0  0  0
 11 12  1  0  0  0  0
 12 13  1  0  0  0  0
 12 17  2  0  0  0  0
 13 14  1  0  0  0  0
 13 35  1  0  0  0  0
 14 15  1  0  0  0  0
 14 16  1  0  0  0  0
 14 36  1  0  0  0  0
 15 37  1  0  0  0  0
 15 38  1  0  0  0  0
 15 39  1  0  0  0  0
 16 40  1  0  0  0  0
 16 41  1  0  0  0  0
 16 42  1  0  0  0  0
 17 18  1  0  0  0  0
 18 19  2  0  0  0  0
 18 43  1  0  0  0  0
 19 20  1  0  0  0  0
 21 22  1  0  0  0  0
 21 44  1  0  0  0  0
 21 45  1  0  0  0  0
 22 46  1  0  0  0  0
 22 47  1  0  0  0  0
M  END
> <s_m_source_file>
AV-unprocessed.smi

> <i_m_source_file_index>
2690

> <i_lp_mmshare_version>
43012

> <i_f3d_flags>
0

> <s_epik_input>
W0NIMl0xW0NIMl1bQ0BIXShbQ0gzXSlbQ0gyXVtDSDJdW0NAQF0xKFtPSF0pW0NIMl1uKFtjSF1uMiljKGMyMyluW2NIXW5jM1tOSF1bQ0hdKFtDSDNdKVtDSDNd

> <s_epik_cmdline>
J2VwaWtfcHl0aG9uJywgJy1waCcsICc3LjAnLCAnLXRuJywgJzgnLCAnLW1hJywgJzIwMCcsICctbWV0YWxfYmluZGluZycsICctaW1hZScsICc8aW5maWxlLm1hZT4nLCAnLW9tYWUnLCAnPG91dGZpbGUubWFlPic=

> <r_lp_tautomer_probability>
1

> <r_epik_Ionization_Penalty>
0.00225104

> <r_epik_Ionization_Penalty_Charging>
0

> <r_epik_Ionization_Penalty_Neutral>
0.00225104

> <r_epik_State_Penalty>
-0

> <r_epik_Charging_Adjusted_Penalty>
0

> <i_epik_Tot_Q>
0

> <i_epik_Tot_abs_Q>
0

> <r_epik_Metal_State_Penalty>
-0

> <b_epik_Metal_Only>
0

> <s_lp_Force_Field>
OPLS_2005

> <r_lp_Energy>
15.1895

> <b_lp_Chiralities_Consistent>
1

> <s_lp_Variant>
AV-unprocessed.smi:2690-1

> <Gold.Version>
5.8.1

> <Gold.Id.Protein>
6NUR|6NUR_protein|mol2

> <Gold.PLP.Fitness>
54.6383

> <Gold.PLP.PLP>
-48.0098

> <Gold.PLP.part.hbond>
-5.0000

> <Gold.PLP.part.metal>
0.0000

> <Gold.PLP.part.buried>
-5.1486

> <Gold.PLP.part.nonpolar>
-38.2628

> <Gold.PLP.part.repulsive>
0.2518

> <Gold.PLP.ligand.clash>
0.0000

> <Gold.PLP.ligand.torsion>
0.7761

> <Gold.PLP.Chemscore.Hbond>
2.7040

> <Gold.PLP.Chemscore.CHOScore>
0.0000

> <Gold.PLP.Chemscore.Metal>
0.0000

> <Gold.Chemscore.Hbonds>
donor molecule, donor type, donor heavy atom, donor atom, acceptor molecule, acceptor atom, score
      L1  H    13    35       P1  7948  0.70
      P1  H  7997  8008       L1    19  0.95
      P1  H 10752 10763       L1    17  0.35

> <Gold.PLP.Chemscore.Internal.Correction>
0.0687

> <Gold.Rescore>
     Score         DG    S(hbond)    S(metal)    S(lipo)     H(rot)  DE(clash)    DE(int)     intcor
     17.25     -18.64       2.15        0.00      95.97       2.05       0.34       1.04       ----

> <Gold.Chemscore.Fitness>
17.2547

> <Gold.Chemscore.DG>
-18.6394

> <Gold.Chemscore.ZeroCoef>
-5.4800

> <Gold.Chemscore.Hbond>
2.1515

> <Gold.Chemscore.Metal>
0.0000

> <Gold.Chemscore.Lipo>
95.9655

> <Gold.Chemscore.Internal_Hbond>
0.0000

> <Gold.Chemscore.DEClash>
0.3438

> <Gold.Chemscore.DEInternal>
1.0409

> <Gold.Chemscore.Rot>
2.0526

> <Gold.Chemscore.Internal.Correction>
   9.000000E+99

> <Gold.Chemscore.Hbonds>
donor molecule, donor type, donor heavy atom, donor atom, acceptor molecule, acceptor atom, score
      L1  H    13    35       P1  7948  0.07
      P1  H  7997  8008       L1    19  0.21
      P1  H 10752 10763       L1    17  0.04

> <Gold.Chemscore.Hbond.Weighted>
-7.1861

> <Gold.Chemscore.Metal.Weighted>
-0.0000

> <Gold.Chemscore.Lipo.Weighted>
-11.2280

> <Gold.Chemscore.Internal_Hbond.Weighted>
0.0000

> <Gold.Chemscore.DEClash.Weighted>
0.3438

> <Gold.Chemscore.DEInternal.Weighted>
1.0409

> <Gold.Chemscore.Rot.Weighted>
5.2546

> <Gold.Chemscore.Internal.Correction.Weighted>
   9.000000E+99

> <Gold.Protein.RotatedTorsions>
[ 6907 6896 6895 6894 ] final  141.52 input  -60.11 | X-H torsion
[ 7974 7965 7964 7962 ] final  -69.45 input  175.53 | X-H torsion
[ 8008 7997 7996 7995 ] final  -34.85 input   59.86 | X-H torsion
[ 10167 10162 10161 10158 ] final -107.51 input  -65.29 | X-H torsion
[ 10718 10713 10712 10709 ] final   95.77 input   66.30 | X-H torsion
[ 10763 10752 10751 10750 ] final   41.11 input  -60.55 | X-H torsion
[ 11005 11000 10999 10996 ] final    1.97 input  -57.11 | X-H torsion

> <Gold.Protein.ActiveResidues>
 VAL166  LYS551  ARG553  GLY616  TRP617  ASP618  TYR619  PRO620  LYS621  CYS622 
 ASP623  PHE694  ASN695  SER759  ASP760  ASP761  ALA762  ILE779  LEU786  VAL792 
 PHE793  MET794  SER795  GLU796  ALA797  LYS798  CYS799  TRP800  GLU811  SER814 

> <Gold.Protein.RotatedAtoms>
  152.2300  133.5051  159.5210 H   0  0  0  0  0  0  0  0  0  0  0  0  # atno 6907 bound_to 6896
  150.7035  134.1229  159.4050 H   0  0  0  0  0  0  0  0  0  0  0  0  # atno 6908 bound_to 6896
  151.9150  135.0322  160.0568 H   0  0  0  0  0  0  0  0  0  0  0  0  # atno 6909 bound_to 6896
  145.7036  140.9107  143.0718 H   0  0  0  0  0  0  0  0  0  0  0  0  # atno 7974 bound_to 7965
  154.4110  140.1673  156.2116 H   0  0  0  0  0  0  0  0  0  0  0  0  # atno 8008 bound_to 7997
  155.9439  140.3406  155.6327 H   0  0  0  0  0  0  0  0  0  0  0  0  # atno 8009 bound_to 7997
  155.6954  140.0739  157.2422 H   0  0  0  0  0  0  0  0  0  0  0  0  # atno 8010 bound_to 7997
  140.1762  143.4003  152.1317 H   0  0  0  0  0  0  0  0  0  0  0  0  # atno 10167 bound_to 10162
  157.6935  131.0556  150.4390 H   0  0  0  0  0  0  0  0  0  0  0  0  # atno 10718 bound_to 10713
  152.9917  135.6171  154.2735 H   0  0  0  0  0  0  0  0  0  0  0  0  # atno 10763 bound_to 10752
  154.2467  135.2786  155.2834 H   0  0  0  0  0  0  0  0  0  0  0  0  # atno 10764 bound_to 10752
  154.5323  135.5784  153.6827 H   0  0  0  0  0  0  0  0  0  0  0  0  # atno 10765 bound_to 10752
  140.6095  133.9762  155.8170 H   0  0  0  0  0  0  0  0  0  0  0  0  # atno 11005 bound_to 11000
  144.6961  139.8980  143.7457 LP  0  0  0  0  0  0  0  0  0  0  0  0  # atno 17320 bound_to 7965
  146.0776  139.3764  143.0484 LP  0  0  0  0  0  0  0  0  0  0  0  0  # atno 17321 bound_to 7965
  139.5316  144.7165  151.5036 LP  0  0  0  0  0  0  0  0  0  0  0  0  # atno 17342 bound_to 10162
  140.6550  143.8618  150.6825 LP  0  0  0  0  0  0  0  0  0  0  0  0  # atno 17343 bound_to 10162
  156.4750  130.4061  149.6495 LP  0  0  0  0  0  0  0  0  0  0  0  0  # atno 17370 bound_to 10713
  156.3561  130.7457  151.2423 LP  0  0  0  0  0  0  0  0  0  0  0  0  # atno 17371 bound_to 10713
  141.0818  134.0051  157.3375 LP  0  0  0  0  0  0  0  0  0  0  0  0  # atno 17394 bound_to 11000
  139.9198  135.0200  156.8021 LP  0  0  0  0  0  0  0  0  0  0  0  0  # atno 17395 bound_to 11000

$$$$
