AV-unprocessed.smi:34|AV-procd|sdf|229|dock2
  -GOLD-   2262015553D 1   1.00000     0.00000
 Structure written by MMmdl.
 55 59  0  0  0  0  0  0  0  0  1 V2000
  150.9116  142.5973  156.9989 O   0  0  0  0  0  0  0  0  0  0  0  0
  151.2859  141.8729  157.9217 C   0  0  0  0  0  0  0  0  0  0  0  0
  151.2198  140.4244  157.8441 N   0  0  0  0  0  0  0  0  0  0  0  0
  150.8264  139.6610  156.7979 C   0  0  0  0  0  0  0  0  0  0  0  0
  150.7542  140.1443  155.5298 N   0  0  0  0  0  0  0  0  0  0  0  0
  150.3562  139.3519  154.5308 C   0  0  0  0  0  0  0  0  0  0  0  0
  149.9930  138.0693  154.5810 N   0  0  0  0  0  0  0  0  0  0  0  0
  150.0679  137.5720  155.8486 C   0  0  0  0  0  0  0  0  0  0  0  0
  150.4763  138.3005  157.0007 C   0  0  0  0  0  0  0  0  0  0  0  0
  150.4325  137.4772  158.1180 N   0  0  0  0  0  0  0  0  0  0  0  0
  150.0167  136.3315  157.6497 C   0  0  0  0  0  0  0  0  0  0  0  0
  149.7664  136.2997  156.2958 N   0  0  0  0  0  0  0  0  0  0  0  0
  149.2683  135.1329  155.4983 C   0  0  2  0  0  0  0  0  0  0  0  0
  148.2156  134.5057  156.1711 O   0  0  0  0  0  0  0  0  0  0  0  0
  148.3349  133.0810  156.0997 C   0  0  2  0  0  0  0  0  0  0  0  0
  148.6204  132.5351  157.5080 C   0  0  0  0  0  0  0  0  0  0  0  0
  148.1337  133.4603  158.4670 O   0  0  0  0  0  0  0  0  0  0  0  0
  147.7696  133.0385  159.6939 C   0  0  0  0  0  0  0  0  0  0  0  0
  147.5454  131.8589  159.9731 O   0  0  0  0  0  0  0  0  0  0  0  0
  147.6791  134.1492  160.6847 C   0  0  0  0  0  0  0  0  0  0  0  0
  147.7949  135.4867  160.2390 C   0  0  0  0  0  0  0  0  0  0  0  0
  147.7080  136.5566  161.1510 C   0  0  0  0  0  0  0  0  0  0  0  0
  147.5045  136.3021  162.5196 C   0  0  0  0  0  0  0  0  0  0  0  0
  147.3881  134.9763  162.9754 C   0  0  0  0  0  0  0  0  0  0  0  0
  147.4740  133.9051  162.0649 C   0  0  0  0  0  0  0  0  0  0  0  0
  149.4742  132.8433  155.1022 C   0  0  2  0  0  0  0  0  0  0  0  0
  150.1336  131.6938  155.2578 F   0  0  0  0  0  0  0  0  0  0  0  0
  150.3485  134.0747  155.2412 C   0  0  2  0  0  0  0  0  0  0  0  0
  151.2891  133.9613  156.2953 O   0  0  0  0  0  0  0  0  0  0  0  0
  151.7520  142.4397  159.2306 C   0  0  0  0  0  0  0  0  0  0  0  0
  151.4334  143.7720  159.5766 C   0  0  0  0  0  0  0  0  0  0  0  0
  151.8756  144.3166  160.7980 C   0  0  0  0  0  0  0  0  0  0  0  0
  152.6482  143.5364  161.6788 C   0  0  0  0  0  0  0  0  0  0  0  0
  152.9813  142.2124  161.3359 C   0  0  0  0  0  0  0  0  0  0  0  0
  152.5384  141.6660  160.1154 C   0  0  0  0  0  0  0  0  0  0  0  0
  151.4954  139.9252  158.6771 H   0  0  0  0  0  0  0  0  0  0  0  0
  150.3221  139.8102  153.5531 H   0  0  0  0  0  0  0  0  0  0  0  0
  149.8729  135.4709  158.2869 H   0  0  0  0  0  0  0  0  0  0  0  0
  148.8838  135.5690  154.5752 H   0  0  0  0  0  0  0  0  0  0  0  0
  147.4085  132.6465  155.7219 H   0  0  0  0  0  0  0  0  0  0  0  0
  148.1132  131.5813  157.6558 H   0  0  0  0  0  0  0  0  0  0  0  0
  149.6875  132.3583  157.6410 H   0  0  0  0  0  0  0  0  0  0  0  0
  147.9496  135.7063  159.1926 H   0  0  0  0  0  0  0  0  0  0  0  0
  147.7967  137.5737  160.7989 H   0  0  0  0  0  0  0  0  0  0  0  0
  147.4376  137.1224  163.2191 H   0  0  0  0  0  0  0  0  0  0  0  0
  147.2315  134.7794  164.0257 H   0  0  0  0  0  0  0  0  0  0  0  0
  147.3794  132.8997  162.4480 H   0  0  0  0  0  0  0  0  0  0  0  0
  149.0581  132.8201  154.0939 H   0  0  0  0  0  0  0  0  0  0  0  0
  150.8833  134.3080  154.3200 H   0  0  0  0  0  0  0  0  0  0  0  0
  152.1141  134.3159  156.0006 H   0  0  0  0  0  0  0  0  0  0  0  0
  150.8420  144.3837  158.9108 H   0  0  0  0  0  0  0  0  0  0  0  0
  151.6220  145.3335  161.0579 H   0  0  0  0  0  0  0  0  0  0  0  0
  152.9880  143.9546  162.6149 H   0  0  0  0  0  0  0  0  0  0  0  0
  153.5795  141.6154  162.0084 H   0  0  0  0  0  0  0  0  0  0  0  0
  152.8122  140.6507  159.8674 H   0  0  0  0  0  0  0  0  0  0  0  0
  1  2  2  0  0  0  0
  2  3  1  0  0  0  0
  2 30  1  0  0  0  0
  3  4  1  0  0  0  0
  3 36  1  0  0  0  0
  4  9  1  0  0  0  0
  4  5  2  0  0  0  0
  5  6  1  0  0  0  0
  6  7  2  0  0  0  0
  6 37  1  0  0  0  0
  7  8  1  0  0  0  0
  8 12  1  0  0  0  0
  8  9  2  0  0  0  0
  9 10  1  0  0  0  0
 10 11  2  0  0  0  0
 11 12  1  0  0  0  0
 11 38  1  0  0  0  0
 12 13  1  0  0  0  0
 13 28  1  0  0  0  0
 13 14  1  0  0  0  0
 13 39  1  0  0  0  0
 14 15  1  0  0  0  0
 15 16  1  0  0  0  0
 15 26  1  0  0  0  0
 15 40  1  0  0  0  0
 16 17  1  0  0  0  0
 16 41  1  0  0  0  0
 16 42  1  0  0  0  0
 17 18  1  0  0  0  0
 18 19  2  0  0  0  0
 18 20  1  0  0  0  0
 20 25  1  0  0  0  0
 20 21  2  0  0  0  0
 21 22  1  0  0  0  0
 21 43  1  0  0  0  0
 22 23  2  0  0  0  0
 22 44  1  0  0  0  0
 23 24  1  0  0  0  0
 23 45  1  0  0  0  0
 24 25  2  0  0  0  0
 24 46  1  0  0  0  0
 25 47  1  0  0  0  0
 26 27  1  0  0  0  0
 26 28  1  0  0  0  0
 26 48  1  0  0  0  0
 28 29  1  0  0  0  0
 28 49  1  0  0  0  0
 29 50  1  0  0  0  0
 30 35  1  0  0  0  0
 30 31  2  0  0  0  0
 31 32  1  0  0  0  0
 31 51  1  0  0  0  0
 32 33  2  0  0  0  0
 32 52  1  0  0  0  0
 33 34  1  0  0  0  0
 33 53  1  0  0  0  0
 34 35  2  0  0  0  0
 34 54  1  0  0  0  0
 35 55  1  0  0  0  0
M  END
> <s_m_source_file>
AV-unprocessed.smi

> <i_m_source_file_index>
34

> <i_lp_mmshare_version>
43012

> <i_f3d_flags>
0

> <s_epik_input>
W2NIXTFbY0hdW2NIXVtjSF1bY0hdYzFDKD1PKVtOSF1jKG5bY0hdbjIpYyhjMjMpbltjSF1uM1tDQEBIXTRPW0NASF0oW0NAQEhdKEYpW0NASF00W09IXSlbQ0gyXU9DKD1PKWM1W2NIXVtjSF1bY0hdW2NIXVtjSF01

> <s_epik_cmdline>
J2VwaWtfcHl0aG9uJywgJy1waCcsICc3LjAnLCAnLXRuJywgJzgnLCAnLW1hJywgJzIwMCcsICctbWV0YWxfYmluZGluZycsICctaW1hZScsICc8aW5maWxlLm1hZT4nLCAnLW9tYWUnLCAnPG91dGZpbGUubWFlPic=

> <r_lp_tautomer_probability>
1

> <r_epik_Ionization_Penalty>
0.00257489

> <r_epik_Ionization_Penalty_Charging>
0

> <r_epik_Ionization_Penalty_Neutral>
0.00257489

> <r_epik_State_Penalty>
0.00519398

> <r_epik_Charging_Adjusted_Penalty>
0.00519398

> <i_epik_Tot_Q>
0

> <i_epik_Tot_abs_Q>
0

> <r_epik_Metal_State_Penalty>
0.335891

> <b_epik_Metal_Only>
0

> <s_epik_Chemistry_Notes>
This compound has an ester and may undergo hydrolysis at high or low pH. This compound contains an acetal/aminal-like group ( X-CH(R)-Y where X, Y are N, S, or O) that may be acid/base labile, releasing an aldehyde.

> <s_lp_Force_Field>
OPLS_2005

> <r_lp_Energy>
55.6649

> <b_lp_Chiralities_Consistent>
1

> <s_lp_Variant>
AV-unprocessed.smi:34-15

> <Gold.Version>
5.8.1

> <Gold.Id.Protein>
6NUR|6NUR_protein|mol2

> <Gold.PLP.Fitness>
57.5167

> <Gold.PLP.PLP>
-56.8893

> <Gold.PLP.part.hbond>
-0.2932

> <Gold.PLP.part.metal>
0.0000

> <Gold.PLP.part.buried>
-8.3889

> <Gold.PLP.part.nonpolar>
-48.6157

> <Gold.PLP.part.repulsive>
0.4208

> <Gold.PLP.ligand.clash>
0.0000

> <Gold.PLP.ligand.torsion>
1.5579

> <Gold.PLP.Chemscore.Hbond>
0.0000

> <Gold.PLP.Chemscore.CHOScore>
1.0000

> <Gold.PLP.Chemscore.Metal>
0.0000

> <Gold.Chemscore.Hbonds>
donor molecule, donor type, donor heavy atom, donor atom, acceptor molecule, acceptor atom, score
      L1  C     6    37       P1  7957  1.00

> <Gold.PLP.Chemscore.Internal.Correction>
0.7432

> <Gold.Rescore>
     Score         DG    S(hbond)    S(metal)    S(lipo)     H(rot)  DE(clash)    DE(int)     intcor
     10.17     -14.19       0.00        0.00     133.97       2.72       0.02       4.00       ----

> <Gold.Chemscore.Fitness>
10.1679

> <Gold.Chemscore.DG>
-14.1875

> <Gold.Chemscore.ZeroCoef>
-5.4800

> <Gold.Chemscore.Hbond>
0.0000

> <Gold.Chemscore.Metal>
0.0000

> <Gold.Chemscore.Lipo>
133.9706

> <Gold.Chemscore.Internal_Hbond>
0.0000

> <Gold.Chemscore.DEClash>
0.0153

> <Gold.Chemscore.DEInternal>
4.0043

> <Gold.Chemscore.Rot>
2.7215

> <Gold.Chemscore.Internal.Correction>
   9.000000E+99

> <Gold.Chemscore.Hbond.Weighted>
-0.0000

> <Gold.Chemscore.Metal.Weighted>
-0.0000

> <Gold.Chemscore.Lipo.Weighted>
-15.6746

> <Gold.Chemscore.Internal_Hbond.Weighted>
0.0000

> <Gold.Chemscore.DEClash.Weighted>
0.0153

> <Gold.Chemscore.DEInternal.Weighted>
4.0043

> <Gold.Chemscore.Rot.Weighted>
6.9670

> <Gold.Chemscore.Internal.Correction.Weighted>
   9.000000E+99

> <Gold.Protein.RotatedTorsions>
[ 6907 6896 6895 6894 ] final   44.55 input  -60.11 | X-H torsion
[ 7974 7965 7964 7962 ] final  -19.20 input  175.53 | X-H torsion
[ 8008 7997 7996 7995 ] final   53.62 input   59.86 | X-H torsion
[ 10167 10162 10161 10158 ] final -102.85 input  -65.29 | X-H torsion
[ 10718 10713 10712 10709 ] final  120.87 input   66.30 | X-H torsion
[ 10763 10752 10751 10750 ] final  -11.20 input  -60.55 | X-H torsion
[ 11005 11000 10999 10996 ] final -119.12 input  -57.11 | X-H torsion

> <Gold.Protein.ActiveResidues>
 VAL166  LYS551  ARG553  GLY616  TRP617  ASP618  TYR619  PRO620  LYS621  CYS622 
 ASP623  PHE694  ASN695  SER759  ASP760  ASP761  ALA762  ILE779  LEU786  VAL792 
 PHE793  MET794  SER795  GLU796  ALA797  LYS798  CYS799  TRP800  GLU811  SER814 

> <Gold.Protein.RotatedAtoms>
  152.2339  134.8295  160.0469 H   0  0  0  0  0  0  0  0  0  0  0  0  # atno 6907 bound_to 6896
  151.9034  133.3538  159.3847 H   0  0  0  0  0  0  0  0  0  0  0  0  # atno 6908 bound_to 6896
  150.7033  134.4730  159.5478 H   0  0  0  0  0  0  0  0  0  0  0  0  # atno 6909 bound_to 6896
  146.1853  140.4029  142.8478 H   0  0  0  0  0  0  0  0  0  0  0  0  # atno 7974 bound_to 7965
  155.4713  140.3465  155.4326 H   0  0  0  0  0  0  0  0  0  0  0  0  # atno 8008 bound_to 7997
  156.1098  140.1458  156.9382 H   0  0  0  0  0  0  0  0  0  0  0  0  # atno 8009 bound_to 7997
  154.4749  140.0888  156.7215 H   0  0  0  0  0  0  0  0  0  0  0  0  # atno 8010 bound_to 7997
  140.2262  143.3639  152.0926 H   0  0  0  0  0  0  0  0  0  0  0  0  # atno 10167 bound_to 10162
  157.5859  131.1070  150.8095 H   0  0  0  0  0  0  0  0  0  0  0  0  # atno 10718 bound_to 10713
  153.4803  135.7017  153.5942 H   0  0  0  0  0  0  0  0  0  0  0  0  # atno 10763 bound_to 10752
  153.4158  135.3837  155.2080 H   0  0  0  0  0  0  0  0  0  0  0  0  # atno 10764 bound_to 10752
  154.8722  135.3916  154.4251 H   0  0  0  0  0  0  0  0  0  0  0  0  # atno 10765 bound_to 10752
  141.0238  134.0084  157.3244 H   0  0  0  0  0  0  0  0  0  0  0  0  # atno 11005 bound_to 11000
  144.8387  140.6822  143.6244 LP  0  0  0  0  0  0  0  0  0  0  0  0  # atno 17320 bound_to 7965
  145.3956  139.1608  143.4205 LP  0  0  0  0  0  0  0  0  0  0  0  0  # atno 17321 bound_to 7965
  139.5126  144.6919  151.5735 LP  0  0  0  0  0  0  0  0  0  0  0  0  # atno 17342 bound_to 10162
  140.6218  143.9243  150.6533 LP  0  0  0  0  0  0  0  0  0  0  0  0  # atno 17343 bound_to 10162
  156.8529  130.5087  149.5310 LP  0  0  0  0  0  0  0  0  0  0  0  0  # atno 17370 bound_to 10713
  156.0908  130.5894  150.9730 LP  0  0  0  0  0  0  0  0  0  0  0  0  # atno 17371 bound_to 10713
  139.9163  135.0197  156.7892 LP  0  0  0  0  0  0  0  0  0  0  0  0  # atno 17394 bound_to 11000
  140.6527  133.9717  155.7763 LP  0  0  0  0  0  0  0  0  0  0  0  0  # atno 17395 bound_to 11000

$$$$
