AV-unprocessed.smi:1512|AV-procd|sdf|6107|dock7
  -GOLD-   22720 6243D 1   1.00000     0.00000
 Structure written by MMmdl.
 44 46  0  0  0  0  0  0  0  0  3 V2000
  152.7081  138.7692  154.9021 C   0  0  0  0  0  0  0  0  0  0  0  0
  151.2198  139.0702  155.1423 C   0  0  1  0  0  0  0  0  0  0  0  0
  150.6299  137.9473  155.8693 N   0  0  0  0  0  0  0  0  0  0  0  0
  150.6888  136.6562  155.5082 C   0  0  0  0  0  0  0  0  0  0  0  0
  151.3161  136.2501  154.5293 O   0  0  0  0  0  0  0  0  0  0  0  0
  149.9178  135.6724  156.3989 C   0  0  0  0  0  0  0  0  0  0  0  0
  149.7904  134.3363  155.7917 N   0  0  0  0  0  0  0  0  0  0  0  0
  149.0683  134.2480  154.5868 C   0  0  0  0  0  0  0  0  0  0  0  0
  148.8791  133.0789  153.9584 C   0  0  0  0  0  0  0  0  0  0  0  0
  149.4420  131.8882  154.5469 C   0  0  0  0  0  0  0  0  0  0  0  0
  150.1416  131.9484  155.7033 C   0  0  0  0  0  0  0  0  0  0  0  0
  150.6821  130.7187  156.2357 N   0  3  0  0  0  0  0  0  0  0  0  0
  151.2791  130.7483  157.3075 O   0  0  0  0  0  0  0  0  0  0  0  0
  150.5368  129.6861  155.5879 O   0  5  0  0  0  0  0  0  0  0  0  0
  150.3422  133.2378  156.3963 C   0  0  0  0  0  0  0  0  0  0  0  0
  150.9572  133.3364  157.4603 O   0  0  0  0  0  0  0  0  0  0  0  0
  151.0040  140.3839  155.9343 C   0  0  1  0  0  0  0  0  0  0  0  0
  149.5137  140.7073  156.2021 C   0  0  0  0  0  0  0  0  0  0  0  0
  149.4609  140.9044  157.7277 C   0  0  2  0  0  0  0  0  0  0  0  0
  150.1946  142.2039  158.1051 C   0  0  0  0  0  0  0  0  0  0  0  0
  151.6724  141.8336  157.8813 C   0  0  0  0  0  0  0  0  0  0  0  0
  151.5857  140.3817  157.3731 C   0  0  1  0  0  0  0  0  0  0  0  0
  150.4334  139.8360  158.2089 C   0  0  0  0  0  0  0  0  0  0  0  0
  153.1864  139.5534  154.3158 H   0  0  0  0  0  0  0  0  0  0  0  0
  152.8343  137.8341  154.3551 H   0  0  0  0  0  0  0  0  0  0  0  0
  153.2524  138.6798  155.8429 H   0  0  0  0  0  0  0  0  0  0  0  0
  150.7427  139.1734  154.1667 H   0  0  0  0  0  0  0  0  0  0  0  0
  150.0955  138.1782  156.6942 H   0  0  0  0  0  0  0  0  0  0  0  0
  150.4277  135.6177  157.3616 H   0  0  0  0  0  0  0  0  0  0  0  0
  148.9263  136.0715  156.6222 H   0  0  0  0  0  0  0  0  0  0  0  0
  148.6741  135.1823  154.2142 H   0  0  0  0  0  0  0  0  0  0  0  0
  148.3181  133.0292  153.0367 H   0  0  0  0  0  0  0  0  0  0  0  0
  149.3024  130.9430  154.0425 H   0  0  0  0  0  0  0  0  0  0  0  0
  151.4600  141.1963  155.3659 H   0  0  0  0  0  0  0  0  0  0  0  0
  149.1771  141.5906  155.6582 H   0  0  0  0  0  0  0  0  0  0  0  0
  148.8652  139.8782  155.9164 H   0  0  0  0  0  0  0  0  0  0  0  0
  148.4553  140.8330  158.1431 H   0  0  0  0  0  0  0  0  0  0  0  0
  149.8794  143.0488  157.4916 H   0  0  0  0  0  0  0  0  0  0  0  0
  150.0184  142.4625  159.1499 H   0  0  0  0  0  0  0  0  0  0  0  0
  152.1675  142.4968  157.1711 H   0  0  0  0  0  0  0  0  0  0  0  0
  152.2250  141.8812  158.8206 H   0  0  0  0  0  0  0  0  0  0  0  0
  152.5256  139.8423  157.4887 H   0  0  0  0  0  0  0  0  0  0  0  0
  150.6221  139.8743  159.2833 H   0  0  0  0  0  0  0  0  0  0  0  0
  150.1373  138.8223  157.9352 H   0  0  0  0  0  0  0  0  0  0  0  0
  1  2  1  0  0  0  0
  1 24  1  0  0  0  0
  1 25  1  0  0  0  0
  1 26  1  0  0  0  0
  2  3  1  0  0  0  0
  2 17  1  0  0  0  0
  2 27  1  0  0  0  0
  3  4  1  0  0  0  0
  3 28  1  0  0  0  0
  4  5  2  0  0  0  0
  4  6  1  0  0  0  0
  6  7  1  0  0  0  0
  6 29  1  0  0  0  0
  6 30  1  0  0  0  0
  7 15  1  0  0  0  0
  7  8  1  0  0  0  0
  8  9  2  0  0  0  0
  8 31  1  0  0  0  0
  9 10  1  0  0  0  0
  9 32  1  0  0  0  0
 10 11  2  0  0  0  0
 10 33  1  0  0  0  0
 11 12  1  0  0  0  0
 11 15  1  0  0  0  0
 12 13  2  0  0  0  0
 12 14  1  0  0  0  0
 15 16  2  0  0  0  0
 17 22  1  0  0  0  0
 17 18  1  0  0  0  0
 17 34  1  0  0  0  0
 18 19  1  0  0  0  0
 18 35  1  0  0  0  0
 18 36  1  0  0  0  0
 19 23  1  0  0  0  0
 19 20  1  0  0  0  0
 19 37  1  0  0  0  0
 20 21  1  0  0  0  0
 20 38  1  0  0  0  0
 20 39  1  0  0  0  0
 21 22  1  0  0  0  0
 21 40  1  0  0  0  0
 21 41  1  0  0  0  0
 22 23  1  0  0  0  0
 22 42  1  0  0  0  0
 23 43  1  0  0  0  0
 23 44  1  0  0  0  0
M  CHG  1  12   1
M  CHG  1  14  -1
M  END
> <s_m_source_file>
AV-unprocessed.smi

> <i_m_source_file_index>
1512

> <i_lp_mmshare_version>
43012

> <i_f3d_flags>
0

> <s_epik_input>
W0NIMl0xW0NIMl1bQ0BIXShbQ0gyXTIpW0NAQEhdKFtDSDJdW0NAQEhdMTIpW0NASF0oW0NIM10pW05IXUMoPU8pW0NIMl1uM1tjSF1bY0hdW2NIXWMoW04rXSg9TylbTy1dKWMzPU8=

> <s_epik_cmdline>
J2VwaWtfcHl0aG9uJywgJy1waCcsICc3LjAnLCAnLXRuJywgJzgnLCAnLW1hJywgJzIwMCcsICctbWV0YWxfYmluZGluZycsICctaW1hZScsICc8aW5maWxlLm1hZT4nLCAnLW9tYWUnLCAnPG91dGZpbGUubWFlPic=

> <r_lp_tautomer_probability>
1

> <r_epik_Ionization_Penalty>
2.17697e-08

> <r_epik_Ionization_Penalty_Charging>
1.42735e-10

> <r_epik_Ionization_Penalty_Neutral>
2.16269e-08

> <r_epik_State_Penalty>
-0

> <r_epik_Charging_Adjusted_Penalty>
1.42735e-10

> <i_epik_Tot_Q>
0

> <i_epik_Tot_abs_Q>
2

> <r_epik_Metal_State_Penalty>
-0

> <b_epik_Metal_Only>
0

> <s_lp_Force_Field>
OPLS_2005

> <r_lp_Energy>
63.9552

> <b_lp_Chiralities_Consistent>
1

> <s_lp_Variant>
AV-unprocessed.smi:1512-8

> <Gold.Version>
5.8.1

> <Gold.Id.Protein>
6NUR|6NUR_protein|mol2

> <Gold.PLP.Fitness>
45.3552

> <Gold.PLP.PLP>
-37.5015

> <Gold.PLP.part.hbond>
-2.0000

> <Gold.PLP.part.metal>
0.0000

> <Gold.PLP.part.buried>
-6.2243

> <Gold.PLP.part.nonpolar>
-31.4477

> <Gold.PLP.part.repulsive>
1.4552

> <Gold.PLP.ligand.clash>
0.0000

> <Gold.PLP.ligand.torsion>
0.1788

> <Gold.PLP.Chemscore.Hbond>
1.7200

> <Gold.PLP.Chemscore.CHOScore>
1.0000

> <Gold.PLP.Chemscore.Metal>
0.0000

> <Gold.Chemscore.Hbonds>
donor molecule, donor type, donor heavy atom, donor atom, acceptor molecule, acceptor atom, score
      P1  H  6896  6909       L1    16  0.74
      P1  H 10752 10763       L1     5  1.00
      L1  C     8    31       P1  7948  0.86

> <Gold.PLP.Chemscore.Internal.Correction>
0.0514

> <Gold.Rescore>
     Score         DG    S(hbond)    S(metal)    S(lipo)     H(rot)  DE(clash)    DE(int)     intcor
     12.21     -16.03       1.71        0.00      79.56       1.75       0.07       3.75       ----

> <Gold.Chemscore.Fitness>
12.2060

> <Gold.Chemscore.DG>
-16.0346

> <Gold.Chemscore.ZeroCoef>
-5.4800

> <Gold.Chemscore.Hbond>
1.7124

> <Gold.Chemscore.Metal>
0.0000

> <Gold.Chemscore.Lipo>
79.5609

> <Gold.Chemscore.Internal_Hbond>
0.0000

> <Gold.Chemscore.DEClash>
0.0743

> <Gold.Chemscore.DEInternal>
3.7543

> <Gold.Chemscore.Rot>
1.7474

> <Gold.Chemscore.Internal.Correction>
   9.000000E+99

> <Gold.Chemscore.Hbonds>
donor molecule, donor type, donor heavy atom, donor atom, acceptor molecule, acceptor atom, score
      P1  H  6896  6909       L1    16  0.74
      P1  H 10752 10763       L1     5  0.97

> <Gold.Chemscore.Hbond.Weighted>
-5.7193

> <Gold.Chemscore.Metal.Weighted>
-0.0000

> <Gold.Chemscore.Lipo.Weighted>
-9.3086

> <Gold.Chemscore.Internal_Hbond.Weighted>
0.0000

> <Gold.Chemscore.DEClash.Weighted>
0.0743

> <Gold.Chemscore.DEInternal.Weighted>
3.7543

> <Gold.Chemscore.Rot.Weighted>
4.4733

> <Gold.Chemscore.Internal.Correction.Weighted>
   9.000000E+99

> <Gold.Protein.RotatedTorsions>
[ 6907 6896 6895 6894 ] final  -40.43 input  -60.11 | X-H torsion
[ 7974 7965 7964 7962 ] final  104.45 input  175.53 | X-H torsion
[ 8008 7997 7996 7995 ] final -171.57 input   59.86 | X-H torsion
[ 10167 10162 10161 10158 ] final  -49.89 input  -65.29 | X-H torsion
[ 10718 10713 10712 10709 ] final  -14.29 input   66.30 | X-H torsion
[ 10763 10752 10751 10750 ] final   31.49 input  -60.55 | X-H torsion
[ 11005 11000 10999 10996 ] final  -49.13 input  -57.11 | X-H torsion

> <Gold.Protein.ActiveResidues>
 VAL166  LYS551  ARG553  GLY616  TRP617  ASP618  TYR619  PRO620  LYS621  CYS622 
 ASP623  PHE694  ASN695  SER759  ASP760  ASP761  ALA762  ILE779  LEU786  VAL792 
 PHE793  MET794  SER795  GLU796  ALA797  LYS798  CYS799  TRP800  GLU811  SER814 

> <Gold.Protein.RotatedAtoms>
  150.9785  134.9145  159.7829 H   0  0  0  0  0  0  0  0  0  0  0  0  # atno 6907 bound_to 6896
  152.5214  134.3443  159.9238 H   0  0  0  0  0  0  0  0  0  0  0  0  # atno 6908 bound_to 6896
  151.3451  133.3906  159.2709 H   0  0  0  0  0  0  0  0  0  0  0  0  # atno 6909 bound_to 6896
  145.3326  139.2483  143.3652 H   0  0  0  0  0  0  0  0  0  0  0  0  # atno 7974 bound_to 7965
  155.9333  140.1095  157.1115 H   0  0  0  0  0  0  0  0  0  0  0  0  # atno 8008 bound_to 7997
  154.4075  140.1233  156.4896 H   0  0  0  0  0  0  0  0  0  0  0  0  # atno 8009 bound_to 7997
  155.7053  140.3471  155.4953 H   0  0  0  0  0  0  0  0  0  0  0  0  # atno 8010 bound_to 7997
  140.6664  143.2679  151.4280 H   0  0  0  0  0  0  0  0  0  0  0  0  # atno 10167 bound_to 10162
  156.6181  130.4868  149.6175 H   0  0  0  0  0  0  0  0  0  0  0  0  # atno 10718 bound_to 10713
  153.0313  135.6437  154.1208 H   0  0  0  0  0  0  0  0  0  0  0  0  # atno 10763 bound_to 10752
  154.0930  135.2865  155.3269 H   0  0  0  0  0  0  0  0  0  0  0  0  # atno 10764 bound_to 10752
  154.6452  135.5446  153.7899 H   0  0  0  0  0  0  0  0  0  0  0  0  # atno 10765 bound_to 10752
  141.0741  133.6671  156.3541 H   0  0  0  0  0  0  0  0  0  0  0  0  # atno 11005 bound_to 11000
  146.3039  140.3907  142.8694 LP  0  0  0  0  0  0  0  0  0  0  0  0  # atno 17320 bound_to 7965
  144.8852  140.7453  143.5961 LP  0  0  0  0  0  0  0  0  0  0  0  0  # atno 17321 bound_to 7965
  139.5914  144.1491  152.2092 LP  0  0  0  0  0  0  0  0  0  0  0  0  # atno 17342 bound_to 10162
  140.0847  144.5671  150.7097 LP  0  0  0  0  0  0  0  0  0  0  0  0  # atno 17343 bound_to 10162
  156.2334  130.6808  151.1486 LP  0  0  0  0  0  0  0  0  0  0  0  0  # atno 17370 bound_to 10713
  157.7235  131.0665  150.6032 LP  0  0  0  0  0  0  0  0  0  0  0  0  # atno 17371 bound_to 10713
  140.5611  134.5933  157.5434 LP  0  0  0  0  0  0  0  0  0  0  0  0  # atno 17394 bound_to 11000
  139.9553  134.7545  156.0355 LP  0  0  0  0  0  0  0  0  0  0  0  0  # atno 17395 bound_to 11000

$$$$
