AV-unprocessed.smi:3150|AV-procd|sdf|12013|dock1
  -GOLD-   2272017423D 1   1.00000     0.00000
 Structure written by MMmdl.
 32 33  0  0  0  0  0  0  0  0  2 V2000
  152.4258  139.2172  155.0704 C   0  0  0  0  0  0  0  0  0  0  0  0
  151.0228  139.6022  155.5623 C   0  0  2  0  0  0  0  0  0  0  0  0
  150.3149  140.1528  154.4540 O   0  0  0  0  0  0  0  0  0  0  0  0
  148.9023  140.2208  154.6065 C   0  0  0  0  0  0  0  0  0  0  0  0
  148.3739  141.3434  153.7398 C   0  0  0  0  0  0  0  0  0  0  0  0
  147.1482  142.1270  154.1518 C   0  0  0  0  0  0  0  0  0  0  0  0
  147.0752  141.1768  152.9840 C   0  0  0  0  0  0  0  0  0  0  0  0
  151.0953  140.6178  156.7141 C   0  0  0  0  0  0  0  0  0  0  0  0
  150.2382  141.4977  156.8062 O   0  0  0  0  0  0  0  0  0  0  0  0
  152.1185  140.4496  157.5719 N   0  0  0  0  0  0  0  0  0  0  0  0
  152.4563  141.2186  158.7196 C   0  0  0  0  0  0  0  0  0  0  0  0
  151.8128  142.3655  159.0539 N   0  0  0  0  0  0  0  0  0  0  0  0
  152.1946  143.0401  160.1577 C   0  0  0  0  0  0  0  0  0  0  0  0
  153.2399  142.6167  160.9971 C   0  0  0  0  0  0  0  0  0  0  0  0
  153.9153  141.4299  160.6648 C   0  0  0  0  0  0  0  0  0  0  0  0
  153.5222  140.7182  159.5135 C   0  0  0  0  0  0  0  0  0  0  0  0
  154.1802  139.5622  159.1908 O   0  5  0  0  0  0  0  0  0  0  0  0
  153.0261  138.7956  155.8775 H   0  0  0  0  0  0  0  0  0  0  0  0
  152.9607  140.0781  154.6676 H   0  0  0  0  0  0  0  0  0  0  0  0
  152.3654  138.4685  154.2803 H   0  0  0  0  0  0  0  0  0  0  0  0
  150.5170  138.6944  155.8976 H   0  0  0  0  0  0  0  0  0  0  0  0
  148.4409  139.2852  154.2876 H   0  0  0  0  0  0  0  0  0  0  0  0
  148.6188  140.3971  155.6450 H   0  0  0  0  0  0  0  0  0  0  0  0
  149.1517  141.9022  153.2225 H   0  0  0  0  0  0  0  0  0  0  0  0
  146.6442  141.8341  155.0709 H   0  0  0  0  0  0  0  0  0  0  0  0
  147.1390  143.1933  153.9349 H   0  0  0  0  0  0  0  0  0  0  0  0
  147.0170  141.6078  151.9866 H   0  0  0  0  0  0  0  0  0  0  0  0
  146.5209  140.2509  153.1249 H   0  0  0  0  0  0  0  0  0  0  0  0
  152.7446  139.6802  157.3818 H   0  0  0  0  0  0  0  0  0  0  0  0
  151.6493  143.9459  160.3781 H   0  0  0  0  0  0  0  0  0  0  0  0
  153.5157  143.1860  161.8720 H   0  0  0  0  0  0  0  0  0  0  0  0
  154.7240  141.0724  161.2856 H   0  0  0  0  0  0  0  0  0  0  0  0
  1  2  1  0  0  0  0
  1 18  1  0  0  0  0
  1 19  1  0  0  0  0
  1 20  1  0  0  0  0
  2  3  1  0  0  0  0
  2  8  1  0  0  0  0
  2 21  1  0  0  0  0
  3  4  1  0  0  0  0
  4  5  1  0  0  0  0
  4 22  1  0  0  0  0
  4 23  1  0  0  0  0
  5  7  1  0  0  0  0
  5  6  1  0  0  0  0
  5 24  1  0  0  0  0
  6  7  1  0  0  0  0
  6 25  1  0  0  0  0
  6 26  1  0  0  0  0
  7 27  1  0  0  0  0
  7 28  1  0  0  0  0
  8  9  2  0  0  0  0
  8 10  1  0  0  0  0
 10 29  1  0  0  0  0
 10 11  1  0  0  0  0
 11 16  2  0  0  0  0
 11 12  1  0  0  0  0
 12 13  2  0  0  0  0
 13 30  1  0  0  0  0
 13 14  1  0  0  0  0
 14 31  1  0  0  0  0
 14 15  2  0  0  0  0
 15 16  1  0  0  0  0
 15 32  1  0  0  0  0
 16 17  1  0  0  0  0
M  CHG  1  17  -1
M  END
> <s_m_source_file>
AV-unprocessed.smi

> <i_m_source_file_index>
3150

> <i_lp_mmshare_version>
43012

> <i_f3d_flags>
0

> <s_epik_input>
W0NIMl0xW0NIMl1bQ0hdMVtDSDJdT1tDQEBIXShbQ0gzXSlDKD1PKVtOSF1jMm5bY0hdW2NIXVtjSF1jMltPSF0=

> <s_epik_cmdline>
J2VwaWtfcHl0aG9uJywgJy1waCcsICc3LjAnLCAnLXRuJywgJzgnLCAnLW1hJywgJzIwMCcsICctbWV0YWxfYmluZGluZycsICctaW1hZScsICc8aW5maWxlLm1hZT4nLCAnLW9tYWUnLCAnPG91dGZpbGUubWFlPic=

> <r_epik_Ionization_Penalty>
4.12024

> <r_epik_Ionization_Penalty_Charging>
2.08551

> <r_epik_Ionization_Penalty_Neutral>
2.03473

> <r_epik_State_Penalty>
2.65726

> <r_epik_Charging_Adjusted_Penalty>
4.74277

> <i_epik_Tot_Q>
-1

> <i_epik_Tot_abs_Q>
1

> <r_epik_Metal_State_Penalty>
0.600747

> <b_epik_Metal_Only>
0

> <s_lp_Force_Field>
OPLS_2005

> <r_lp_Energy>
13.9624

> <b_lp_Chiralities_Consistent>
1

> <s_lp_Variant>
AV-unprocessed.smi:3150-7

> <Gold.Version>
5.8.1

> <Gold.Id.Protein>
6NUR|6NUR_protein|mol2

> <Gold.PLP.Fitness>
43.3884

> <Gold.PLP.PLP>
-36.6484

> <Gold.PLP.part.hbond>
-2.0000

> <Gold.PLP.part.metal>
0.0000

> <Gold.PLP.part.buried>
-3.0891

> <Gold.PLP.part.nonpolar>
-31.0271

> <Gold.PLP.part.repulsive>
0.2629

> <Gold.PLP.ligand.clash>
0.0000

> <Gold.PLP.ligand.torsion>
1.4482

> <Gold.PLP.Chemscore.Hbond>
3.0000

> <Gold.PLP.Chemscore.CHOScore>
0.0000

> <Gold.PLP.Chemscore.Metal>
0.0000

> <Gold.Chemscore.Hbonds>
donor molecule, donor type, donor heavy atom, donor atom, acceptor molecule, acceptor atom, score
      P1  H  7989  7998       L1     3  1.00
      P1  H  7997  8009       L1    17  1.53

> <Gold.PLP.Chemscore.Internal.Correction>
0.6364

> <Gold.Rescore>
     Score         DG    S(hbond)    S(metal)    S(lipo)     H(rot)  DE(clash)    DE(int)     intcor
     12.07     -16.26       1.45        0.00      86.57       1.64       0.08       4.11       ----

> <Gold.Chemscore.Fitness>
12.0707

> <Gold.Chemscore.DG>
-16.2579

> <Gold.Chemscore.ZeroCoef>
-5.4800

> <Gold.Chemscore.Hbond>
1.4503

> <Gold.Chemscore.Metal>
0.0000

> <Gold.Chemscore.Lipo>
86.5711

> <Gold.Chemscore.Internal_Hbond>
0.0000

> <Gold.Chemscore.DEClash>
0.0780

> <Gold.Chemscore.DEInternal>
4.1092

> <Gold.Chemscore.Rot>
1.6387

> <Gold.Chemscore.Internal.Correction>
   9.000000E+99

> <Gold.Chemscore.Hbonds>
donor molecule, donor type, donor heavy atom, donor atom, acceptor molecule, acceptor atom, score
      P1  H  7989  7998       L1     3  0.39
      P1  H  7997  8009       L1    17  0.33

> <Gold.Chemscore.Hbond.Weighted>
-4.8441

> <Gold.Chemscore.Metal.Weighted>
-0.0000

> <Gold.Chemscore.Lipo.Weighted>
-10.1288

> <Gold.Chemscore.Internal_Hbond.Weighted>
0.0000

> <Gold.Chemscore.DEClash.Weighted>
0.0780

> <Gold.Chemscore.DEInternal.Weighted>
4.1092

> <Gold.Chemscore.Rot.Weighted>
4.1950

> <Gold.Chemscore.Internal.Correction.Weighted>
   9.000000E+99

> <Gold.Protein.RotatedTorsions>
[ 6907 6896 6895 6894 ] final    3.00 input  -60.11 | X-H torsion
[ 7974 7965 7964 7962 ] final   -3.37 input  175.53 | X-H torsion
[ 8008 7997 7996 7995 ] final  117.48 input   59.86 | X-H torsion
[ 10167 10162 10161 10158 ] final   23.15 input  -65.29 | X-H torsion
[ 10718 10713 10712 10709 ] final  157.16 input   66.30 | X-H torsion
[ 10763 10752 10751 10750 ] final  118.46 input  -60.55 | X-H torsion
[ 11005 11000 10999 10996 ] final  127.48 input  -57.11 | X-H torsion

> <Gold.Protein.ActiveResidues>
 VAL166  LYS551  ARG553  GLY616  TRP617  ASP618  TYR619  PRO620  LYS621  CYS622 
 ASP623  PHE694  ASN695  SER759  ASP760  ASP761  ALA762  ILE779  LEU786  VAL792 
 PHE793  MET794  SER795  GLU796  ALA797  LYS798  CYS799  TRP800  GLU811  SER814 

> <Gold.Protein.RotatedAtoms>
  151.6179  135.1034  160.0095 H   0  0  0  0  0  0  0  0  0  0  0  0  # atno 6907 bound_to 6896
  152.4173  133.7055  159.6459 H   0  0  0  0  0  0  0  0  0  0  0  0  # atno 6908 bound_to 6896
  150.8061  133.8434  159.3226 H   0  0  0  0  0  0  0  0  0  0  0  0  # atno 6909 bound_to 6896
  146.2390  140.1711  142.8332 H   0  0  0  0  0  0  0  0  0  0  0  0  # atno 7974 bound_to 7965
  156.2496  140.2895  156.0686 H   0  0  0  0  0  0  0  0  0  0  0  0  # atno 8008 bound_to 7997
  155.1696  140.0401  157.2877 H   0  0  0  0  0  0  0  0  0  0  0  0  # atno 8009 bound_to 7997
  154.6335  140.2505  155.7413 H   0  0  0  0  0  0  0  0  0  0  0  0  # atno 8010 bound_to 7997
  140.5292  143.9871  150.6456 H   0  0  0  0  0  0  0  0  0  0  0  0  # atno 10167 bound_to 10162
  157.1952  131.0664  151.2056 H   0  0  0  0  0  0  0  0  0  0  0  0  # atno 10718 bound_to 10713
  153.5680  135.3507  155.2826 H   0  0  0  0  0  0  0  0  0  0  0  0  # atno 10763 bound_to 10752
  154.8686  135.4152  154.2756 H   0  0  0  0  0  0  0  0  0  0  0  0  # atno 10764 bound_to 10752
  153.3516  135.7055  153.6853 H   0  0  0  0  0  0  0  0  0  0  0  0  # atno 10765 bound_to 10752
  139.9510  134.9622  156.8861 H   0  0  0  0  0  0  0  0  0  0  0  0  # atno 11005 bound_to 11000
  145.0011  140.8633  143.5281 LP  0  0  0  0  0  0  0  0  0  0  0  0  # atno 17320 bound_to 7965
  145.1730  139.2393  143.5332 LP  0  0  0  0  0  0  0  0  0  0  0  0  # atno 17321 bound_to 7965
  140.3241  143.3118  152.0754 LP  0  0  0  0  0  0  0  0  0  0  0  0  # atno 17342 bound_to 10162
  139.4948  144.6554  151.6585 LP  0  0  0  0  0  0  0  0  0  0  0  0  # atno 17343 bound_to 10162
  157.3821  130.7237  149.6637 LP  0  0  0  0  0  0  0  0  0  0  0  0  # atno 17370 bound_to 10713
  155.9707  130.4169  150.4256 LP  0  0  0  0  0  0  0  0  0  0  0  0  # atno 17371 bound_to 10713
  140.5719  134.0435  155.7433 LP  0  0  0  0  0  0  0  0  0  0  0  0  # atno 17394 bound_to 11000
  141.1172  133.9520  157.2799 LP  0  0  0  0  0  0  0  0  0  0  0  0  # atno 17395 bound_to 11000

$$$$
