AV-unprocessed.smi:1349|AV-procd|sdf|5518|dock8
  -GOLD-   22720 5103D 1   1.00000     0.00000
 Structure written by MMmdl.
 42 44  0  0  0  0  0  0  0  0  1 V2000
  150.5700  135.9586  158.7441 O   0  0  0  0  0  0  0  0  0  0  0  0
  151.0326  137.2366  159.1285 C   0  0  0  0  0  0  0  0  0  0  0  0
  152.1122  137.7384  158.1585 C   0  0  0  0  0  0  0  0  0  0  0  0
  153.4717  137.0441  158.3476 C   0  0  0  0  0  0  0  0  0  0  0  0
  153.9608  137.1120  159.7660 C   0  0  0  0  0  0  0  0  0  0  0  0
  153.9760  136.0214  160.5347 N   0  0  0  0  0  0  0  0  0  0  0  0
  154.4630  136.4962  161.7352 C   0  0  0  0  0  0  0  0  0  0  0  0
  154.7022  135.8288  162.9579 C   0  0  0  0  0  0  0  0  0  0  0  0
  155.2109  136.5336  164.0684 C   0  0  0  0  0  0  0  0  0  0  0  0
  155.4879  137.9126  163.9719 C   0  0  0  0  0  0  0  0  0  0  0  0
  155.2584  138.5957  162.7618 C   0  0  0  0  0  0  0  0  0  0  0  0
  154.7495  137.8875  161.6561 C   0  0  0  0  0  0  0  0  0  0  0  0
  154.4215  138.2500  160.3525 N   0  0  0  0  0  0  0  0  0  0  0  0
  154.5713  139.5888  159.7950 C   0  0  0  0  0  0  0  0  0  0  0  0
  153.4254  140.5268  160.1974 C   0  0  0  0  0  0  0  0  0  0  0  0
  153.0963  141.3933  159.1199 O   0  0  0  0  0  0  0  0  0  0  0  0
  152.6796  142.6735  159.4201 C   0  0  0  0  0  0  0  0  0  0  0  0
  152.4444  143.5452  158.3362 C   0  0  0  0  0  0  0  0  0  0  0  0
  152.0175  144.8694  158.5530 C   0  0  0  0  0  0  0  0  0  0  0  0
  151.8185  145.3384  159.8642 C   0  0  0  0  0  0  0  0  0  0  0  0
  152.0481  144.4808  160.9558 C   0  0  0  0  0  0  0  0  0  0  0  0
  152.4766  143.1566  160.7382 C   0  0  0  0  0  0  0  0  0  0  0  0
  149.7924  136.0659  158.2178 H   0  0  0  0  0  0  0  0  0  0  0  0
  150.1851  137.9225  159.1299 H   0  0  0  0  0  0  0  0  0  0  0  0
  151.4160  137.1946  160.1485 H   0  0  0  0  0  0  0  0  0  0  0  0
  151.7700  137.6178  157.1310 H   0  0  0  0  0  0  0  0  0  0  0  0
  152.2394  138.8114  158.3063 H   0  0  0  0  0  0  0  0  0  0  0  0
  153.3887  135.9938  158.0662 H   0  0  0  0  0  0  0  0  0  0  0  0
  154.1986  137.4768  157.6649 H   0  0  0  0  0  0  0  0  0  0  0  0
  154.4931  134.7726  163.0409 H   0  0  0  0  0  0  0  0  0  0  0  0
  155.3894  136.0135  164.9983 H   0  0  0  0  0  0  0  0  0  0  0  0
  155.8769  138.4460  164.8270 H   0  0  0  0  0  0  0  0  0  0  0  0
  155.4699  139.6518  162.6854 H   0  0  0  0  0  0  0  0  0  0  0  0
  155.5132  140.0000  160.1589 H   0  0  0  0  0  0  0  0  0  0  0  0
  154.6786  139.5422  158.7130 H   0  0  0  0  0  0  0  0  0  0  0  0
  152.5557  139.9346  160.4866 H   0  0  0  0  0  0  0  0  0  0  0  0
  153.7345  141.1137  161.0634 H   0  0  0  0  0  0  0  0  0  0  0  0
  152.5952  143.1984  157.3254 H   0  0  0  0  0  0  0  0  0  0  0  0
  151.8433  145.5249  157.7127 H   0  0  0  0  0  0  0  0  0  0  0  0
  151.4908  146.3538  160.0325 H   0  0  0  0  0  0  0  0  0  0  0  0
  151.8953  144.8388  161.9631 H   0  0  0  0  0  0  0  0  0  0  0  0
  152.6415  142.5312  161.6021 H   0  0  0  0  0  0  0  0  0  0  0  0
  1  2  1  0  0  0  0
  1 23  1  0  0  0  0
  2  3  1  0  0  0  0
  2 24  1  0  0  0  0
  2 25  1  0  0  0  0
  3  4  1  0  0  0  0
  3 26  1  0  0  0  0
  3 27  1  0  0  0  0
  4  5  1  0  0  0  0
  4 28  1  0  0  0  0
  4 29  1  0  0  0  0
  5 13  1  0  0  0  0
  5  6  2  0  0  0  0
  6  7  1  0  0  0  0
  7 12  2  0  0  0  0
  7  8  1  0  0  0  0
  8  9  2  0  0  0  0
  8 30  1  0  0  0  0
  9 10  1  0  0  0  0
  9 31  1  0  0  0  0
 10 11  2  0  0  0  0
 10 32  1  0  0  0  0
 11 12  1  0  0  0  0
 11 33  1  0  0  0  0
 12 13  1  0  0  0  0
 13 14  1  0  0  0  0
 14 15  1  0  0  0  0
 14 34  1  0  0  0  0
 14 35  1  0  0  0  0
 15 16  1  0  0  0  0
 15 36  1  0  0  0  0
 15 37  1  0  0  0  0
 16 17  1  0  0  0  0
 17 22  1  0  0  0  0
 17 18  2  0  0  0  0
 18 19  1  0  0  0  0
 18 38  1  0  0  0  0
 19 20  2  0  0  0  0
 19 39  1  0  0  0  0
 20 21  1  0  0  0  0
 20 40  1  0  0  0  0
 21 22  2  0  0  0  0
 21 41  1  0  0  0  0
 22 42  1  0  0  0  0
M  END
> <s_m_source_file>
AV-unprocessed.smi

> <i_m_source_file_index>
1349

> <i_lp_mmshare_version>
43012

> <i_f3d_flags>
0

> <s_epik_input>
W09IXVtDSDJdW0NIMl1bQ0gyXWMobjEpbihjKGMxMilbY0hdW2NIXVtjSF1bY0hdMilbQ0gyXVtDSDJdT2MzW2NIXVtjSF1bY0hdW2NIXVtjSF0z

> <s_epik_cmdline>
J2VwaWtfcHl0aG9uJywgJy1waCcsICc3LjAnLCAnLXRuJywgJzgnLCAnLW1hJywgJzIwMCcsICctbWV0YWxfYmluZGluZycsICctaW1hZScsICc8aW5maWxlLm1hZT4nLCAnLW9tYWUnLCAnPG91dGZpbGUubWFlPic=

> <r_lp_tautomer_probability>
1

> <r_epik_Ionization_Penalty>
0.159315

> <r_epik_Ionization_Penalty_Charging>
0

> <r_epik_Ionization_Penalty_Neutral>
0.159315

> <r_epik_State_Penalty>
0.148622

> <r_epik_Charging_Adjusted_Penalty>
0.148622

> <i_epik_Tot_Q>
0

> <i_epik_Tot_abs_Q>
0

> <r_epik_Metal_State_Penalty>
0.0001689

> <b_epik_Metal_Only>
0

> <s_lp_Force_Field>
OPLS_2005

> <r_lp_Energy>
15.4549

> <b_lp_Chiralities_Consistent>
1

> <s_lp_Variant>
AV-unprocessed.smi:1349-1

> <Gold.Version>
5.8.1

> <Gold.Id.Protein>
6NUR|6NUR_protein|mol2

> <Gold.PLP.Fitness>
54.4164

> <Gold.PLP.PLP>
-50.3351

> <Gold.PLP.part.hbond>
-2.0000

> <Gold.PLP.part.metal>
0.0000

> <Gold.PLP.part.buried>
-5.9298

> <Gold.PLP.part.nonpolar>
-43.2269

> <Gold.PLP.part.repulsive>
0.0000

> <Gold.PLP.ligand.clash>
0.0000

> <Gold.PLP.ligand.torsion>
0.9636

> <Gold.PLP.Chemscore.Hbond>
1.9673

> <Gold.PLP.Chemscore.CHOScore>
0.0000

> <Gold.PLP.Chemscore.Metal>
0.0000

> <Gold.Chemscore.Hbonds>
donor molecule, donor type, donor heavy atom, donor atom, acceptor molecule, acceptor atom, score
      P1  H  6896  6908       L1     1  0.74
      P1  H  6896  6909       L1     6  0.81

> <Gold.PLP.Chemscore.Internal.Correction>
0.1067

> <Gold.Rescore>
     Score         DG    S(hbond)    S(metal)    S(lipo)     H(rot)  DE(clash)    DE(int)     intcor
     21.96     -22.94       1.90        0.00     147.85       2.42       0.06       0.92       ----

> <Gold.Chemscore.Fitness>
21.9589

> <Gold.Chemscore.DG>
-22.9400

> <Gold.Chemscore.ZeroCoef>
-5.4800

> <Gold.Chemscore.Hbond>
1.9034

> <Gold.Chemscore.Metal>
0.0000

> <Gold.Chemscore.Lipo>
147.8471

> <Gold.Chemscore.Internal_Hbond>
0.0000

> <Gold.Chemscore.DEClash>
0.0580

> <Gold.Chemscore.DEInternal>
0.9230

> <Gold.Chemscore.Rot>
2.4201

> <Gold.Chemscore.Internal.Correction>
   9.000000E+99

> <Gold.Chemscore.Hbonds>
donor molecule, donor type, donor heavy atom, donor atom, acceptor molecule, acceptor atom, score
      P1  H  6896  6908       L1     1  0.69
      P1  H  6896  6909       L1     6  0.69

> <Gold.Chemscore.Hbond.Weighted>
-6.3573

> <Gold.Chemscore.Metal.Weighted>
-0.0000

> <Gold.Chemscore.Lipo.Weighted>
-17.2981

> <Gold.Chemscore.Internal_Hbond.Weighted>
0.0000

> <Gold.Chemscore.DEClash.Weighted>
0.0580

> <Gold.Chemscore.DEInternal.Weighted>
0.9230

> <Gold.Chemscore.Rot.Weighted>
6.1954

> <Gold.Chemscore.Internal.Correction.Weighted>
   9.000000E+99

> <Gold.Protein.RotatedTorsions>
[ 6907 6896 6895 6894 ] final -178.08 input  -60.11 | X-H torsion
[ 7974 7965 7964 7962 ] final -141.85 input  175.53 | X-H torsion
[ 8008 7997 7996 7995 ] final  100.71 input   59.86 | X-H torsion
[ 10167 10162 10161 10158 ] final  135.18 input  -65.29 | X-H torsion
[ 10718 10713 10712 10709 ] final  129.00 input   66.30 | X-H torsion
[ 10763 10752 10751 10750 ] final   56.16 input  -60.55 | X-H torsion
[ 11005 11000 10999 10996 ] final  144.67 input  -57.11 | X-H torsion

> <Gold.Protein.ActiveResidues>
 VAL166  LYS551  ARG553  GLY616  TRP617  ASP618  TYR619  PRO620  LYS621  CYS622 
 ASP623  PHE694  ASN695  SER759  ASP760  ASP761  ALA762  ILE779  LEU786  VAL792 
 PHE793  MET794  SER795  GLU796  ALA797  LYS798  CYS799  TRP800  GLU811  SER814 

> <Gold.Protein.RotatedAtoms>
  151.6314  133.3332  159.3109 H   0  0  0  0  0  0  0  0  0  0  0  0  # atno 6907 bound_to 6896
  150.8054  134.7180  159.6651 H   0  0  0  0  0  0  0  0  0  0  0  0  # atno 6908 bound_to 6896
  152.4149  134.6063  160.0065 H   0  0  0  0  0  0  0  0  0  0  0  0  # atno 6909 bound_to 6896
  144.8488  140.6030  143.5404 H   0  0  0  0  0  0  0  0  0  0  0  0  # atno 7974 bound_to 7965
  156.1229  140.3209  155.8235 H   0  0  0  0  0  0  0  0  0  0  0  0  # atno 8008 bound_to 7997
  155.4471  140.0529  157.3022 H   0  0  0  0  0  0  0  0  0  0  0  0  # atno 8009 bound_to 7997
  154.4841  140.2065  155.9709 H   0  0  0  0  0  0  0  0  0  0  0  0  # atno 8010 bound_to 7997
  139.5227  144.6530  151.5246 H   0  0  0  0  0  0  0  0  0  0  0  0  # atno 10167 bound_to 10162
  157.5194  131.1098  150.9176 H   0  0  0  0  0  0  0  0  0  0  0  0  # atno 10718 bound_to 10713
  152.9827  135.5686  154.5184 H   0  0  0  0  0  0  0  0  0  0  0  0  # atno 10763 bound_to 10752
  154.4676  135.2783  155.1668 H   0  0  0  0  0  0  0  0  0  0  0  0  # atno 10764 bound_to 10752
  154.3230  135.6265  153.5569 H   0  0  0  0  0  0  0  0  0  0  0  0  # atno 10765 bound_to 10752
  140.0651  134.9183  157.1250 H   0  0  0  0  0  0  0  0  0  0  0  0  # atno 11005 bound_to 11000
  145.4542  139.1520  143.3901 LP  0  0  0  0  0  0  0  0  0  0  0  0  # atno 17320 bound_to 7965
  146.2767  140.4670  142.8792 LP  0  0  0  0  0  0  0  0  0  0  0  0  # atno 17321 bound_to 7965
  140.6343  143.9014  150.6633 LP  0  0  0  0  0  0  0  0  0  0  0  0  # atno 17342 bound_to 10162
  140.2328  143.3722  152.1551 LP  0  0  0  0  0  0  0  0  0  0  0  0  # atno 17343 bound_to 10162
  156.9791  130.5520  149.5295 LP  0  0  0  0  0  0  0  0  0  0  0  0  # atno 17370 bound_to 10713
  156.0343  130.5432  150.8614 LP  0  0  0  0  0  0  0  0  0  0  0  0  # atno 17371 bound_to 10713
  140.3712  134.2388  155.7178 LP  0  0  0  0  0  0  0  0  0  0  0  0  # atno 17394 bound_to 11000
  141.1989  133.8024  157.0560 LP  0  0  0  0  0  0  0  0  0  0  0  0  # atno 17395 bound_to 11000

$$$$
