AV-unprocessed.smi:434|AV-procd|sdf|2552|dock7
  -GOLD-   2262022523D 1   1.00000     0.00000
 Structure written by MMmdl.
 39 41  0  0  0  0  0  0  0  0  1 V2000
  151.2705  139.7695  155.7573 C   0  0  0  0  0  0  0  0  0  0  0  0
  151.7045  140.4953  156.9911 C   0  0  0  0  0  0  0  0  0  0  0  0
  151.3810  141.7684  157.2184 N   0  0  0  0  0  0  0  0  0  0  0  0
  151.9834  142.0212  158.4359 C   0  0  0  0  0  0  0  0  0  0  0  0
  152.0099  143.1961  159.2213 C   0  0  0  0  0  0  0  0  0  0  0  0
  152.7010  143.2174  160.4505 C   0  0  0  0  0  0  0  0  0  0  0  0
  153.3740  142.0673  160.9112 C   0  0  0  0  0  0  0  0  0  0  0  0
  153.3600  140.8862  160.1447 C   0  0  0  0  0  0  0  0  0  0  0  0
  152.6683  140.8696  158.9186 C   0  0  0  0  0  0  0  0  0  0  0  0
  152.4567  139.8960  157.9466 N   0  0  0  0  0  0  0  0  0  0  0  0
  152.9500  138.5249  157.9684 C   0  0  0  0  0  0  0  0  0  0  0  0
  152.2296  137.6495  159.0137 C   0  0  2  0  0  0  0  0  0  0  0  0
  152.8607  136.3851  159.0724 O   0  0  0  0  0  0  0  0  0  0  0  0
  150.7484  137.4375  158.6636 C   0  0  0  0  0  0  0  0  0  0  0  0
  150.1146  136.7587  159.7350 O   0  0  0  0  0  0  0  0  0  0  0  0
  148.7549  136.4634  159.4690 C   0  0  0  0  0  0  0  0  0  0  0  0
  148.1242  136.1500  160.7832 C   0  0  0  0  0  0  0  0  0  0  0  0
  147.7685  134.9836  161.4026 C   0  0  0  0  0  0  0  0  0  0  0  0
  147.2065  135.3507  162.6567 C   0  0  0  0  0  0  0  0  0  0  0  0
  147.2609  136.7145  162.7086 C   0  0  0  0  0  0  0  0  0  0  0  0
  147.8182  137.2180  161.5733 O   0  0  0  0  0  0  0  0  0  0  0  0
  150.6267  140.4039  155.1470 H   0  0  0  0  0  0  0  0  0  0  0  0
  150.7135  138.8704  156.0193 H   0  0  0  0  0  0  0  0  0  0  0  0
  152.1384  139.4877  155.1609 H   0  0  0  0  0  0  0  0  0  0  0  0
  151.4968  144.0821  158.8778 H   0  0  0  0  0  0  0  0  0  0  0  0
  152.7145  144.1204  161.0432 H   0  0  0  0  0  0  0  0  0  0  0  0
  153.9004  142.0917  161.8543 H   0  0  0  0  0  0  0  0  0  0  0  0
  153.8718  140.0029  160.4969 H   0  0  0  0  0  0  0  0  0  0  0  0
  152.8354  138.0971  156.9721 H   0  0  0  0  0  0  0  0  0  0  0  0
  154.0228  138.5438  158.1654 H   0  0  0  0  0  0  0  0  0  0  0  0
  152.3060  138.1247  159.9920 H   0  0  0  0  0  0  0  0  0  0  0  0
  153.3263  136.2449  158.2619 H   0  0  0  0  0  0  0  0  0  0  0  0
  150.2570  138.4035  158.5368 H   0  0  0  0  0  0  0  0  0  0  0  0
  150.6386  136.8940  157.7233 H   0  0  0  0  0  0  0  0  0  0  0  0
  148.2577  137.3151  159.0023 H   0  0  0  0  0  0  0  0  0  0  0  0
  148.6712  135.6109  158.7937 H   0  0  0  0  0  0  0  0  0  0  0  0
  147.8989  133.9889  161.0029 H   0  0  0  0  0  0  0  0  0  0  0  0
  146.8127  134.7000  163.4233 H   0  0  0  0  0  0  0  0  0  0  0  0
  146.9627  137.4498  163.4414 H   0  0  0  0  0  0  0  0  0  0  0  0
  1  2  1  0  0  0  0
  1 22  1  0  0  0  0
  1 23  1  0  0  0  0
  1 24  1  0  0  0  0
  2 10  1  0  0  0  0
  2  3  2  0  0  0  0
  3  4  1  0  0  0  0
  4  9  2  0  0  0  0
  4  5  1  0  0  0  0
  5  6  2  0  0  0  0
  5 25  1  0  0  0  0
  6  7  1  0  0  0  0
  6 26  1  0  0  0  0
  7  8  2  0  0  0  0
  7 27  1  0  0  0  0
  8  9  1  0  0  0  0
  8 28  1  0  0  0  0
  9 10  1  0  0  0  0
 10 11  1  0  0  0  0
 11 12  1  0  0  0  0
 11 29  1  0  0  0  0
 11 30  1  0  0  0  0
 12 13  1  0  0  0  0
 12 14  1  0  0  0  0
 12 31  1  0  0  0  0
 13 32  1  0  0  0  0
 14 15  1  0  0  0  0
 14 33  1  0  0  0  0
 14 34  1  0  0  0  0
 15 16  1  0  0  0  0
 16 17  1  0  0  0  0
 16 35  1  0  0  0  0
 16 36  1  0  0  0  0
 17 21  1  0  0  0  0
 17 18  2  0  0  0  0
 18 19  1  0  0  0  0
 18 37  1  0  0  0  0
 19 20  2  0  0  0  0
 19 38  1  0  0  0  0
 20 21  1  0  0  0  0
 20 39  1  0  0  0  0
M  END
> <s_m_source_file>
AV-unprocessed.smi

> <i_m_source_file_index>
434

> <i_lp_mmshare_version>
43012

> <i_f3d_flags>
0

> <s_epik_input>
W2NIXTFbY0hdW2NIXVtjSF1jKGMxMiluKGMobjIpW0NIM10pW0NIMl1bQ0BIXShbT0hdKVtDSDJdT1tDSDJdYzNbY0hdW2NIXVtjSF1vMw==

> <s_epik_cmdline>
J2VwaWtfcHl0aG9uJywgJy1waCcsICc3LjAnLCAnLXRuJywgJzgnLCAnLW1hJywgJzIwMCcsICctbWV0YWxfYmluZGluZycsICctaW1hZScsICc8aW5maWxlLm1hZT4nLCAnLW9tYWUnLCAnPG91dGZpbGUubWFlPic=

> <r_epik_Ionization_Penalty>
0.126634

> <r_epik_Ionization_Penalty_Charging>
0

> <r_epik_Ionization_Penalty_Neutral>
0.126634

> <r_epik_State_Penalty>
0.116082

> <r_epik_Charging_Adjusted_Penalty>
0.116082

> <i_epik_Tot_Q>
0

> <i_epik_Tot_abs_Q>
0

> <r_epik_Metal_State_Penalty>
0.00012822

> <b_epik_Metal_Only>
0

> <s_lp_Force_Field>
OPLS_2005

> <r_lp_Energy>
9.40114

> <b_lp_Chiralities_Consistent>
1

> <s_lp_Variant>
AV-unprocessed.smi:434-1

> <Gold.Version>
5.8.1

> <Gold.Id.Protein>
6NUR|6NUR_protein|mol2

> <Gold.PLP.Fitness>
56.3589

> <Gold.PLP.PLP>
-48.1387

> <Gold.PLP.part.hbond>
-4.0000

> <Gold.PLP.part.metal>
0.0000

> <Gold.PLP.part.buried>
-4.9462

> <Gold.PLP.part.nonpolar>
-39.1917

> <Gold.PLP.part.repulsive>
0.0404

> <Gold.PLP.ligand.clash>
0.0000

> <Gold.PLP.ligand.torsion>
0.4722

> <Gold.PLP.Chemscore.Hbond>
3.0456

> <Gold.PLP.Chemscore.CHOScore>
0.0000

> <Gold.PLP.Chemscore.Metal>
0.0000

> <Gold.Chemscore.Hbonds>
donor molecule, donor type, donor heavy atom, donor atom, acceptor molecule, acceptor atom, score
      P1  H  6896  6907       L1    13  0.44
      P1  H  6896  6909       L1    15  0.89
      P1  H  6931  6943       L1    21  1.00
      P1  H  6934  6947       L1    21  0.69

> <Gold.PLP.Chemscore.Internal.Correction>
0.0279

> <Gold.Rescore>
     Score         DG    S(hbond)    S(metal)    S(lipo)     H(rot)  DE(clash)    DE(int)     intcor
     20.90     -21.46       2.62        0.00     113.44       2.36       0.05       0.51       ----

> <Gold.Chemscore.Fitness>
20.9022

> <Gold.Chemscore.DG>
-21.4587

> <Gold.Chemscore.ZeroCoef>
-5.4800

> <Gold.Chemscore.Hbond>
2.6184

> <Gold.Chemscore.Metal>
0.0000

> <Gold.Chemscore.Lipo>
113.4389

> <Gold.Chemscore.Internal_Hbond>
0.0000

> <Gold.Chemscore.DEClash>
0.0456

> <Gold.Chemscore.DEInternal>
0.5109

> <Gold.Chemscore.Rot>
2.3591

> <Gold.Chemscore.Internal.Correction>
   9.000000E+99

> <Gold.Chemscore.Hbonds>
donor molecule, donor type, donor heavy atom, donor atom, acceptor molecule, acceptor atom, score
      P1  H  6896  6907       L1    13  0.29
      P1  H  6896  6909       L1    15  0.09
      P1  H  6931  6943       L1    21  0.71
      P1  H  6934  6947       L1    21  0.64

> <Gold.Chemscore.Hbond.Weighted>
-8.7456

> <Gold.Chemscore.Metal.Weighted>
-0.0000

> <Gold.Chemscore.Lipo.Weighted>
-13.2723

> <Gold.Chemscore.Internal_Hbond.Weighted>
0.0000

> <Gold.Chemscore.DEClash.Weighted>
0.0456

> <Gold.Chemscore.DEInternal.Weighted>
0.5109

> <Gold.Chemscore.Rot.Weighted>
6.0393

> <Gold.Chemscore.Internal.Correction.Weighted>
   9.000000E+99

> <Gold.Protein.RotatedTorsions>
[ 6907 6896 6895 6894 ] final   68.06 input  -60.11 | X-H torsion
[ 7974 7965 7964 7962 ] final  142.61 input  175.53 | X-H torsion
[ 8008 7997 7996 7995 ] final  -64.13 input   59.86 | X-H torsion
[ 10167 10162 10161 10158 ] final   30.58 input  -65.29 | X-H torsion
[ 10718 10713 10712 10709 ] final  153.52 input   66.30 | X-H torsion
[ 10763 10752 10751 10750 ] final  116.09 input  -60.55 | X-H torsion
[ 11005 11000 10999 10996 ] final  -33.54 input  -57.11 | X-H torsion

> <Gold.Protein.ActiveResidues>
 VAL166  LYS551  ARG553  GLY616  TRP617  ASP618  TYR619  PRO620  LYS621  CYS622 
 ASP623  PHE694  ASN695  SER759  ASP760  ASP761  ALA762  ILE779  LEU786  VAL792 
 PHE793  MET794  SER795  GLU796  ALA797  LYS798  CYS799  TRP800  GLU811  SER814 

> <Gold.Protein.RotatedAtoms>
  152.4594  134.5217  159.9784 H   0  0  0  0  0  0  0  0  0  0  0  0  # atno 6907 bound_to 6896
  151.5270  133.3450  159.2919 H   0  0  0  0  0  0  0  0  0  0  0  0  # atno 6908 bound_to 6896
  150.8551  134.7918  159.7102 H   0  0  0  0  0  0  0  0  0  0  0  0  # atno 6909 bound_to 6896
  144.8992  139.5446  143.5761 H   0  0  0  0  0  0  0  0  0  0  0  0  # atno 7974 bound_to 7965
  154.4594  140.0960  156.6849 H   0  0  0  0  0  0  0  0  0  0  0  0  # atno 8008 bound_to 7997
  155.5041  140.3474  155.4358 H   0  0  0  0  0  0  0  0  0  0  0  0  # atno 8009 bound_to 7997
  156.0840  140.1380  156.9665 H   0  0  0  0  0  0  0  0  0  0  0  0  # atno 8010 bound_to 7997
  140.4665  144.0827  150.6226 H   0  0  0  0  0  0  0  0  0  0  0  0  # atno 10167 bound_to 10162
  157.2437  131.0764  151.1776 H   0  0  0  0  0  0  0  0  0  0  0  0  # atno 10718 bound_to 10713
  153.5320  135.3576  155.2680 H   0  0  0  0  0  0  0  0  0  0  0  0  # atno 10763 bound_to 10752
  154.8726  135.4070  154.3140 H   0  0  0  0  0  0  0  0  0  0  0  0  # atno 10764 bound_to 10752
  153.3831  135.7069  153.6618 H   0  0  0  0  0  0  0  0  0  0  0  0  # atno 10765 bound_to 10752
  140.9643  133.7146  156.1420 H   0  0  0  0  0  0  0  0  0  0  0  0  # atno 11005 bound_to 11000
  146.3099  139.7709  142.9028 LP  0  0  0  0  0  0  0  0  0  0  0  0  # atno 17320 bound_to 7965
  145.3645  141.0332  143.3266 LP  0  0  0  0  0  0  0  0  0  0  0  0  # atno 17321 bound_to 7965
  140.4030  143.2694  151.9925 LP  0  0  0  0  0  0  0  0  0  0  0  0  # atno 17342 bound_to 10162
  139.4813  144.5981  151.7653 LP  0  0  0  0  0  0  0  0  0  0  0  0  # atno 17343 bound_to 10162
  157.3352  130.7005  149.6348 LP  0  0  0  0  0  0  0  0  0  0  0  0  # atno 17370 bound_to 10713
  155.9669  130.4296  150.4839 LP  0  0  0  0  0  0  0  0  0  0  0  0  # atno 17371 bound_to 10713
  140.7422  134.4138  157.5553 LP  0  0  0  0  0  0  0  0  0  0  0  0  # atno 17394 bound_to 11000
  139.8889  134.8844  156.2449 LP  0  0  0  0  0  0  0  0  0  0  0  0  # atno 17395 bound_to 11000

$$$$
