AV-unprocessed.smi:3267|AV-procd|sdf|12504|dock6
  -GOLD-   2272018413D 1   1.00000     0.00000
 Structure written by MMmdl.
 38 39  0  0  0  0  0  0  0  0  1 V2000
  147.6593  140.6209  153.6159 C   0  0  0  0  0  0  0  0  0  0  0  0
  148.2974  139.3139  154.1075 C   0  0  2  0  0  0  0  0  0  0  0  0
  149.8439  139.3804  154.0831 C   0  0  0  0  0  0  0  0  0  0  0  0
  150.3725  140.1907  155.1640 N   0  0  0  0  0  0  0  0  0  0  0  0
  151.2694  139.8302  156.1471 C   0  0  0  0  0  0  0  0  0  0  0  0
  151.4612  140.9237  156.9421 C   0  0  0  0  0  0  0  0  0  0  0  0
  150.6258  141.9166  156.3579 C   0  0  0  0  0  0  0  0  0  0  0  0
  149.9740  141.4743  155.2945 N   0  0  0  0  0  0  0  0  0  0  0  0
  147.8118  138.2074  153.2865 N   0  0  0  0  0  0  0  0  0  0  0  0
  146.5323  137.8204  153.1858 C   0  0  0  0  0  0  0  0  0  0  0  0
  145.5970  138.3642  153.7733 O   0  0  0  0  0  0  0  0  0  0  0  0
  146.3956  136.7658  152.3708 N   0  0  0  0  0  0  0  0  0  0  0  0
  145.1289  136.1209  152.0450 C   0  0  0  0  0  0  0  0  0  0  0  0
  145.3077  135.0461  150.9606 C   0  0  2  0  0  0  0  0  0  0  0  0
  144.0935  134.1345  150.7958 C   0  0  0  0  0  0  0  0  0  0  0  0
  144.7214  132.8934  150.2046 C   0  0  0  0  0  0  0  0  0  0  0  0
  146.0440  132.8230  150.9620 C   0  0  0  0  0  0  0  0  0  0  0  0
  146.3805  134.1679  151.2948 O   0  0  0  0  0  0  0  0  0  0  0  0
  147.9714  141.4628  154.2348 H   0  0  0  0  0  0  0  0  0  0  0  0
  146.5708  140.5680  153.6589 H   0  0  0  0  0  0  0  0  0  0  0  0
  147.9431  140.8411  152.5862 H   0  0  0  0  0  0  0  0  0  0  0  0
  147.9504  139.1575  155.1312 H   0  0  0  0  0  0  0  0  0  0  0  0
  150.2877  138.3861  154.1563 H   0  0  0  0  0  0  0  0  0  0  0  0
  150.2034  139.7935  153.1392 H   0  0  0  0  0  0  0  0  0  0  0  0
  151.6888  138.8362  156.1993 H   0  0  0  0  0  0  0  0  0  0  0  0
  152.0998  141.0021  157.8093 H   0  0  0  0  0  0  0  0  0  0  0  0
  150.4745  142.9384  156.6726 H   0  0  0  0  0  0  0  0  0  0  0  0
  148.5043  137.6970  152.7581 H   0  0  0  0  0  0  0  0  0  0  0  0
  147.2233  136.3900  151.9318 H   0  0  0  0  0  0  0  0  0  0  0  0
  144.7243  135.6738  152.9536 H   0  0  0  0  0  0  0  0  0  0  0  0
  144.4033  136.8684  151.7194 H   0  0  0  0  0  0  0  0  0  0  0  0
  145.5359  135.5062  149.9977 H   0  0  0  0  0  0  0  0  0  0  0  0
  143.6504  133.9018  151.7651 H   0  0  0  0  0  0  0  0  0  0  0  0
  143.3206  134.5674  150.1604 H   0  0  0  0  0  0  0  0  0  0  0  0
  144.1095  131.9997  150.3296 H   0  0  0  0  0  0  0  0  0  0  0  0
  144.9050  133.0382  149.1391 H   0  0  0  0  0  0  0  0  0  0  0  0
  145.9240  132.2584  151.8871 H   0  0  0  0  0  0  0  0  0  0  0  0
  146.8316  132.3485  150.3763 H   0  0  0  0  0  0  0  0  0  0  0  0
  1  2  1  0  0  0  0
  1 19  1  0  0  0  0
  1 20  1  0  0  0  0
  1 21  1  0  0  0  0
  2  3  1  0  0  0  0
  2  9  1  0  0  0  0
  2 22  1  0  0  0  0
  3  4  1  0  0  0  0
  3 23  1  0  0  0  0
  3 24  1  0  0  0  0
  4  8  1  0  0  0  0
  4  5  1  0  0  0  0
  5  6  2  0  0  0  0
  5 25  1  0  0  0  0
  6  7  1  0  0  0  0
  6 26  1  0  0  0  0
  7  8  2  0  0  0  0
  7 27  1  0  0  0  0
  9 10  1  0  0  0  0
  9 28  1  0  0  0  0
 10 11  2  0  0  0  0
 10 12  1  0  0  0  0
 12 13  1  0  0  0  0
 12 29  1  0  0  0  0
 13 14  1  0  0  0  0
 13 30  1  0  0  0  0
 13 31  1  0  0  0  0
 14 18  1  0  0  0  0
 14 15  1  0  0  0  0
 14 32  1  0  0  0  0
 15 16  1  0  0  0  0
 15 33  1  0  0  0  0
 15 34  1  0  0  0  0
 16 17  1  0  0  0  0
 16 35  1  0  0  0  0
 16 36  1  0  0  0  0
 17 18  1  0  0  0  0
 17 37  1  0  0  0  0
 17 38  1  0  0  0  0
M  END
> <s_m_source_file>
AV-unprocessed.smi

> <i_m_source_file_index>
3267

> <i_lp_mmshare_version>
43012

> <i_f3d_flags>
0

> <s_epik_input>
bjFbY0hdW2NIXVtjSF1uMVtDSDJdW0NAQEhdKFtDSDNdKVtOSF1DKD1PKVtOSF1bQ0gyXVtDQEBIXTJbQ0gyXVtDSDJdW0NIMl1PMg==

> <s_epik_cmdline>
J2VwaWtfcHl0aG9uJywgJy1waCcsICc3LjAnLCAnLXRuJywgJzgnLCAnLW1hJywgJzIwMCcsICctbWV0YWxfYmluZGluZycsICctaW1hZScsICc8aW5maWxlLm1hZT4nLCAnLW9tYWUnLCAnPG91dGZpbGUubWFlPic=

> <r_lp_tautomer_probability>
1

> <r_epik_Ionization_Penalty>
6.24796e-05

> <r_epik_Ionization_Penalty_Charging>
0

> <r_epik_Ionization_Penalty_Neutral>
6.24796e-05

> <r_epik_State_Penalty>
-0

> <r_epik_Charging_Adjusted_Penalty>
0

> <i_epik_Tot_Q>
0

> <i_epik_Tot_abs_Q>
0

> <r_epik_Metal_State_Penalty>
-0

> <b_epik_Metal_Only>
0

> <s_lp_Force_Field>
OPLS_2005

> <r_lp_Energy>
17.87

> <b_lp_Chiralities_Consistent>
1

> <s_lp_Variant>
AV-unprocessed.smi:3267-1

> <Gold.Version>
5.8.1

> <Gold.Id.Protein>
6NUR|6NUR_protein|mol2

> <Gold.PLP.Fitness>
39.3792

> <Gold.PLP.PLP>
-30.8249

> <Gold.PLP.part.hbond>
-2.5563

> <Gold.PLP.part.metal>
0.0000

> <Gold.PLP.part.buried>
-1.5476

> <Gold.PLP.part.nonpolar>
-27.3196

> <Gold.PLP.part.repulsive>
0.5961

> <Gold.PLP.ligand.clash>
0.0000

> <Gold.PLP.ligand.torsion>
0.2330

> <Gold.PLP.Chemscore.Hbond>
2.0000

> <Gold.PLP.Chemscore.CHOScore>
1.0000

> <Gold.PLP.Chemscore.Metal>
0.0000

> <Gold.Chemscore.Hbonds>
donor molecule, donor type, donor heavy atom, donor atom, acceptor molecule, acceptor atom, score
      L1  H     9    28       P1  7948  1.00
      L1  H    12    29       P1  7948  1.00
      L1  C     7    27       P1  8028  0.84

> <Gold.PLP.Chemscore.Internal.Correction>
0.0203

> <Gold.Rescore>
     Score         DG    S(hbond)    S(metal)    S(lipo)     H(rot)  DE(clash)    DE(int)     intcor
     14.82     -15.21       1.94        0.00      68.83       1.87       0.04       0.35       ----

> <Gold.Chemscore.Fitness>
14.8172

> <Gold.Chemscore.DG>
-15.2112

> <Gold.Chemscore.ZeroCoef>
-5.4800

> <Gold.Chemscore.Hbond>
1.9375

> <Gold.Chemscore.Metal>
0.0000

> <Gold.Chemscore.Lipo>
68.8297

> <Gold.Chemscore.Internal_Hbond>
0.0000

> <Gold.Chemscore.DEClash>
0.0402

> <Gold.Chemscore.DEInternal>
0.3538

> <Gold.Chemscore.Rot>
1.8724

> <Gold.Chemscore.Internal.Correction>
   9.000000E+99

> <Gold.Chemscore.Hbonds>
donor molecule, donor type, donor heavy atom, donor atom, acceptor molecule, acceptor atom, score
      L1  H     9    28       P1  7948  0.94
      L1  H    12    29       P1  7948  0.96

> <Gold.Chemscore.Hbond.Weighted>
-6.4714

> <Gold.Chemscore.Metal.Weighted>
-0.0000

> <Gold.Chemscore.Lipo.Weighted>
-8.0531

> <Gold.Chemscore.Internal_Hbond.Weighted>
0.0000

> <Gold.Chemscore.DEClash.Weighted>
0.0402

> <Gold.Chemscore.DEInternal.Weighted>
0.3538

> <Gold.Chemscore.Rot.Weighted>
4.7933

> <Gold.Chemscore.Internal.Correction.Weighted>
   9.000000E+99

> <Gold.Protein.RotatedTorsions>
[ 6907 6896 6895 6894 ] final   33.32 input  -60.11 | X-H torsion
[ 7974 7965 7964 7962 ] final -103.92 input  175.53 | X-H torsion
[ 8008 7997 7996 7995 ] final   39.86 input   59.86 | X-H torsion
[ 10167 10162 10161 10158 ] final -151.96 input  -65.29 | X-H torsion
[ 10718 10713 10712 10709 ] final -102.29 input   66.30 | X-H torsion
[ 10763 10752 10751 10750 ] final  122.23 input  -60.55 | X-H torsion
[ 11005 11000 10999 10996 ] final -107.15 input  -57.11 | X-H torsion

> <Gold.Protein.ActiveResidues>
 VAL166  LYS551  ARG553  GLY616  TRP617  ASP618  TYR619  PRO620  LYS621  CYS622 
 ASP623  PHE694  ASN695  SER759  ASP760  ASP761  ALA762  ILE779  LEU786  VAL792 
 PHE793  MET794  SER795  GLU796  ALA797  LYS798  CYS799  TRP800  GLU811  SER814 

> <Gold.Protein.RotatedAtoms>
  152.0868  134.9434  160.0572 H   0  0  0  0  0  0  0  0  0  0  0  0  # atno 6907 bound_to 6896
  152.0701  133.4098  159.4464 H   0  0  0  0  0  0  0  0  0  0  0  0  # atno 6908 bound_to 6896
  150.6836  134.3021  159.4754 H   0  0  0  0  0  0  0  0  0  0  0  0  # atno 6909 bound_to 6896
  145.2498  140.9234  143.3102 H   0  0  0  0  0  0  0  0  0  0  0  0  # atno 7974 bound_to 7965
  155.2435  140.3347  155.4289 H   0  0  0  0  0  0  0  0  0  0  0  0  # atno 8008 bound_to 7997
  156.2246  140.1823  156.7440 H   0  0  0  0  0  0  0  0  0  0  0  0  # atno 8009 bound_to 7997
  154.5878  140.0643  156.9181 H   0  0  0  0  0  0  0  0  0  0  0  0  # atno 8010 bound_to 7997
  139.7222  143.8939  152.2507 H   0  0  0  0  0  0  0  0  0  0  0  0  # atno 10167 bound_to 10162
  156.0224  130.5413  150.7087 H   0  0  0  0  0  0  0  0  0  0  0  0  # atno 10718 bound_to 10713
  153.6265  135.3404  155.3028 H   0  0  0  0  0  0  0  0  0  0  0  0  # atno 10763 bound_to 10752
  154.8589  135.4285  154.2151 H   0  0  0  0  0  0  0  0  0  0  0  0  # atno 10764 bound_to 10752
  153.3037  135.7026  153.7253 H   0  0  0  0  0  0  0  0  0  0  0  0  # atno 10765 bound_to 10752
  141.0969  133.8955  157.1941 H   0  0  0  0  0  0  0  0  0  0  0  0  # atno 11005 bound_to 11000
  144.9513  139.4079  143.6401 LP  0  0  0  0  0  0  0  0  0  0  0  0  # atno 17320 bound_to 7965
  146.3306  139.8522  142.8871 LP  0  0  0  0  0  0  0  0  0  0  0  0  # atno 17321 bound_to 7965
  139.8838  144.7003  150.8847 LP  0  0  0  0  0  0  0  0  0  0  0  0  # atno 17342 bound_to 10162
  140.7756  143.3640  151.1775 LP  0  0  0  0  0  0  0  0  0  0  0  0  # atno 17343 bound_to 10162
  157.4731  131.0895  151.0621 LP  0  0  0  0  0  0  0  0  0  0  0  0  # atno 17370 bound_to 10713
  157.1075  130.6008  149.5474 LP  0  0  0  0  0  0  0  0  0  0  0  0  # atno 17371 bound_to 10713
  139.9808  135.0099  156.9745 LP  0  0  0  0  0  0  0  0  0  0  0  0  # atno 17394 bound_to 11000
  140.5118  134.0994  155.7272 LP  0  0  0  0  0  0  0  0  0  0  0  0  # atno 17395 bound_to 11000

$$$$
