AV-unprocessed.smi:1401|AV-procd|sdf|5689|dock6
  -GOLD-   22720 5313D 1   1.00000     0.00000
 Structure written by MMmdl.
 48 50  0  0  0  0  0  0  0  0  1 V2000
  155.1383  138.8908  164.5120 C   0  0  0  0  0  0  0  0  0  0  0  0
  154.7230  138.1803  163.2524 C   0  0  0  0  0  0  0  0  0  0  0  0
  154.3763  138.9243  162.2546 N   0  0  0  0  0  0  0  0  0  0  0  0
  153.9531  138.3762  161.0583 N   0  0  0  0  0  0  0  0  0  0  0  0
  153.4949  139.3783  160.0803 C   0  0  0  0  0  0  0  0  0  0  0  0
  153.6827  140.8330  160.5470 C   0  0  0  0  0  0  0  0  0  0  0  0
  154.8194  141.2721  160.7171 O   0  0  0  0  0  0  0  0  0  0  0  0
  152.5758  141.5534  160.7924 N   0  0  0  0  0  0  0  0  0  0  0  0
  152.5152  142.8678  161.4193 C   0  0  1  0  0  0  0  0  0  0  0  0
  153.3439  142.8812  162.7152 C   0  0  0  0  0  0  0  0  0  0  0  0
  153.0061  143.9307  160.4073 C   0  0  2  0  0  0  0  0  0  0  0  0
  152.4396  145.3500  160.6322 C   0  0  0  0  0  0  0  0  0  0  0  0
  151.9255  145.7420  159.2335 C   0  0  2  0  0  0  0  0  0  0  0  0
  150.6354  144.9570  158.9301 C   0  0  0  0  0  0  0  0  0  0  0  0
  151.1572  143.5296  158.6843 C   0  0  0  0  0  0  0  0  0  0  0  0
  152.6747  143.6790  158.9133 C   0  0  1  0  0  0  0  0  0  0  0  0
  152.9317  145.0578  158.3156 C   0  0  0  0  0  0  0  0  0  0  0  0
  153.8766  137.0380  160.8030 C   0  0  0  0  0  0  0  0  0  0  0  0
  153.4757  136.5902  159.7281 O   0  0  0  0  0  0  0  0  0  0  0  0
  154.2870  136.2008  161.9329 C   0  0  0  0  0  0  0  0  0  0  0  0
  154.2190  134.7926  161.7093 C   0  0  0  0  0  0  0  0  0  0  0  0
  154.1445  133.6529  161.5213 N   0  0  0  0  0  0  0  0  0  0  0  0
  154.6905  136.7283  163.1158 C   0  0  0  0  0  0  0  0  0  0  0  0
  155.1097  135.9036  164.3249 C   0  0  0  0  0  0  0  0  0  0  0  0
  156.1671  138.6441  164.7748 H   0  0  0  0  0  0  0  0  0  0  0  0
  154.4965  138.6049  165.3456 H   0  0  0  0  0  0  0  0  0  0  0  0
  155.0749  139.9751  164.4072 H   0  0  0  0  0  0  0  0  0  0  0  0
  154.0453  139.2455  159.1470 H   0  0  0  0  0  0  0  0  0  0  0  0
  152.4463  139.2296  159.8184 H   0  0  0  0  0  0  0  0  0  0  0  0
  151.6883  141.1097  160.6059 H   0  0  0  0  0  0  0  0  0  0  0  0
  151.4761  143.0794  161.6765 H   0  0  0  0  0  0  0  0  0  0  0  0
  153.3016  143.8567  163.1999 H   0  0  0  0  0  0  0  0  0  0  0  0
  154.3921  142.6532  162.5189 H   0  0  0  0  0  0  0  0  0  0  0  0
  152.9731  142.1470  163.4307 H   0  0  0  0  0  0  0  0  0  0  0  0
  154.0938  143.9832  160.4845 H   0  0  0  0  0  0  0  0  0  0  0  0
  151.6443  145.3806  161.3779 H   0  0  0  0  0  0  0  0  0  0  0  0
  153.2281  146.0266  160.9639 H   0  0  0  0  0  0  0  0  0  0  0  0
  151.8258  146.8182  159.0900 H   0  0  0  0  0  0  0  0  0  0  0  0
  149.9198  145.0029  159.7520 H   0  0  0  0  0  0  0  0  0  0  0  0
  150.1440  145.3439  158.0365 H   0  0  0  0  0  0  0  0  0  0  0  0
  150.6923  142.7911  159.3367 H   0  0  0  0  0  0  0  0  0  0  0  0
  150.9568  143.2245  157.6565 H   0  0  0  0  0  0  0  0  0  0  0  0
  153.2645  142.8799  158.4634 H   0  0  0  0  0  0  0  0  0  0  0  0
  152.6713  145.1273  157.2578 H   0  0  0  0  0  0  0  0  0  0  0  0
  153.9556  145.4092  158.4557 H   0  0  0  0  0  0  0  0  0  0  0  0
  155.0728  134.8325  164.1280 H   0  0  0  0  0  0  0  0  0  0  0  0
  154.4501  136.1044  165.1702 H   0  0  0  0  0  0  0  0  0  0  0  0
  156.1312  136.1466  164.6195 H   0  0  0  0  0  0  0  0  0  0  0  0
  1  2  1  0  0  0  0
  1 25  1  0  0  0  0
  1 26  1  0  0  0  0
  1 27  1  0  0  0  0
  2 23  1  0  0  0  0
  2  3  2  0  0  0  0
  3  4  1  0  0  0  0
  4  5  1  0  0  0  0
  4 18  1  0  0  0  0
  5  6  1  0  0  0  0
  5 28  1  0  0  0  0
  5 29  1  0  0  0  0
  6  7  2  0  0  0  0
  6  8  1  0  0  0  0
  8  9  1  0  0  0  0
  8 30  1  0  0  0  0
  9 10  1  0  0  0  0
  9 11  1  0  0  0  0
  9 31  1  0  0  0  0
 10 32  1  0  0  0  0
 10 33  1  0  0  0  0
 10 34  1  0  0  0  0
 11 16  1  0  0  0  0
 11 12  1  0  0  0  0
 11 35  1  0  0  0  0
 12 13  1  0  0  0  0
 12 36  1  0  0  0  0
 12 37  1  0  0  0  0
 13 17  1  0  0  0  0
 13 14  1  0  0  0  0
 13 38  1  0  0  0  0
 14 15  1  0  0  0  0
 14 39  1  0  0  0  0
 14 40  1  0  0  0  0
 15 16  1  0  0  0  0
 15 41  1  0  0  0  0
 15 42  1  0  0  0  0
 16 17  1  0  0  0  0
 16 43  1  0  0  0  0
 17 44  1  0  0  0  0
 17 45  1  0  0  0  0
 18 19  2  0  0  0  0
 18 20  1  0  0  0  0
 20 21  1  0  0  0  0
 20 23  2  0  0  0  0
 21 22  3  0  0  0  0
 23 24  1  0  0  0  0
 24 46  1  0  0  0  0
 24 47  1  0  0  0  0
 24 48  1  0  0  0  0
M  END
> <s_m_source_file>
AV-unprocessed.smi

> <i_m_source_file_index>
1401

> <i_lp_mmshare_version>
43012

> <i_f3d_flags>
0

> <s_epik_input>
TiNDYyhjMVtDSDNdKWMoPU8pbihuYzFbQ0gzXSlbQ0gyXUMoPU8pW05IXVtDQEhdKFtDSDNdKVtDQEhdKFtDSDJdW0NASF0yMylbQ0BIXShbQ0gyXTMpW0NIMl1bQ0gyXTI=

> <s_epik_cmdline>
J2VwaWtfcHl0aG9uJywgJy1waCcsICc3LjAnLCAnLXRuJywgJzgnLCAnLW1hJywgJzIwMCcsICctbWV0YWxfYmluZGluZycsICctaW1hZScsICc8aW5maWxlLm1hZT4nLCAnLW9tYWUnLCAnPG91dGZpbGUubWFlPic=

> <r_lp_tautomer_probability>
1

> <r_epik_Ionization_Penalty>
2.16501e-08

> <r_epik_Ionization_Penalty_Charging>
2.29436e-11

> <r_epik_Ionization_Penalty_Neutral>
2.16271e-08

> <r_epik_State_Penalty>
-0

> <r_epik_Charging_Adjusted_Penalty>
2.29436e-11

> <i_epik_Tot_Q>
0

> <i_epik_Tot_abs_Q>
0

> <r_epik_Metal_State_Penalty>
-0

> <b_epik_Metal_Only>
0

> <s_lp_Force_Field>
OPLS_2005

> <r_lp_Energy>
65.4856

> <b_lp_Chiralities_Consistent>
1

> <s_lp_Variant>
AV-unprocessed.smi:1401-2

> <Gold.Version>
5.8.1

> <Gold.Id.Protein>
6NUR|6NUR_protein|mol2

> <Gold.PLP.Fitness>
50.7719

> <Gold.PLP.PLP>
-49.2491

> <Gold.PLP.part.hbond>
-1.4077

> <Gold.PLP.part.metal>
0.0000

> <Gold.PLP.part.buried>
-5.7533

> <Gold.PLP.part.nonpolar>
-42.3477

> <Gold.PLP.part.repulsive>
0.1338

> <Gold.PLP.ligand.clash>
0.0000

> <Gold.PLP.ligand.torsion>
0.7413

> <Gold.PLP.Chemscore.Hbond>
0.9913

> <Gold.PLP.Chemscore.CHOScore>
0.0000

> <Gold.PLP.Chemscore.Metal>
0.0000

> <Gold.Chemscore.Hbonds>
donor molecule, donor type, donor heavy atom, donor atom, acceptor molecule, acceptor atom, score
      P1  H  6896  6907       L1    19  0.80

> <Gold.PLP.Chemscore.Internal.Correction>
0.0317

> <Gold.Rescore>
     Score         DG    S(hbond)    S(metal)    S(lipo)     H(rot)  DE(clash)    DE(int)     intcor
     17.99     -20.85       0.99        0.00     138.62       1.63       0.61       2.24       ----

> <Gold.Chemscore.Fitness>
17.9949

> <Gold.Chemscore.DG>
-20.8470

> <Gold.Chemscore.ZeroCoef>
-5.4800

> <Gold.Chemscore.Hbond>
0.9930

> <Gold.Chemscore.Metal>
0.0000

> <Gold.Chemscore.Lipo>
138.6177

> <Gold.Chemscore.Internal_Hbond>
0.0000

> <Gold.Chemscore.DEClash>
0.6092

> <Gold.Chemscore.DEInternal>
2.2429

> <Gold.Chemscore.Rot>
1.6281

> <Gold.Chemscore.Internal.Correction>
   9.000000E+99

> <Gold.Chemscore.Hbonds>
donor molecule, donor type, donor heavy atom, donor atom, acceptor molecule, acceptor atom, score
      P1  H  6896  6907       L1    19  0.62

> <Gold.Chemscore.Hbond.Weighted>
-3.3165

> <Gold.Chemscore.Metal.Weighted>
-0.0000

> <Gold.Chemscore.Lipo.Weighted>
-16.2183

> <Gold.Chemscore.Internal_Hbond.Weighted>
0.0000

> <Gold.Chemscore.DEClash.Weighted>
0.6092

> <Gold.Chemscore.DEInternal.Weighted>
2.2429

> <Gold.Chemscore.Rot.Weighted>
4.1678

> <Gold.Chemscore.Internal.Correction.Weighted>
   9.000000E+99

> <Gold.Protein.RotatedTorsions>
[ 6907 6896 6895 6894 ] final   47.03 input  -60.11 | X-H torsion
[ 7974 7965 7964 7962 ] final -156.19 input  175.53 | X-H torsion
[ 8008 7997 7996 7995 ] final   51.55 input   59.86 | X-H torsion
[ 10167 10162 10161 10158 ] final   85.62 input  -65.29 | X-H torsion
[ 10718 10713 10712 10709 ] final  -84.67 input   66.30 | X-H torsion
[ 10763 10752 10751 10750 ] final  -14.28 input  -60.55 | X-H torsion
[ 11005 11000 10999 10996 ] final   87.70 input  -57.11 | X-H torsion

> <Gold.Protein.ActiveResidues>
 VAL166  LYS551  ARG553  GLY616  TRP617  ASP618  TYR619  PRO620  LYS621  CYS622 
 ASP623  PHE694  ASN695  SER759  ASP760  ASP761  ALA762  ILE779  LEU786  VAL792 
 PHE793  MET794  SER795  GLU796  ALA797  LYS798  CYS799  TRP800  GLU811  SER814 

> <Gold.Protein.RotatedAtoms>
  152.2633  134.8011  160.0426 H   0  0  0  0  0  0  0  0  0  0  0  0  # atno 6907 bound_to 6896
  151.8649  133.3459  159.3724 H   0  0  0  0  0  0  0  0  0  0  0  0  # atno 6908 bound_to 6896
  150.7124  134.5097  159.5645 H   0  0  0  0  0  0  0  0  0  0  0  0  # atno 6909 bound_to 6896
  144.7604  140.4144  143.5980 H   0  0  0  0  0  0  0  0  0  0  0  0  # atno 7974 bound_to 7965
  155.4372  140.3453  155.4286 H   0  0  0  0  0  0  0  0  0  0  0  0  # atno 8008 bound_to 7997
  156.1301  140.1511  156.9109 H   0  0  0  0  0  0  0  0  0  0  0  0  # atno 8009 bound_to 7997
  154.4888  140.0847  156.7527 H   0  0  0  0  0  0  0  0  0  0  0  0  # atno 8010 bound_to 7997
  139.8959  144.6358  150.8689 H   0  0  0  0  0  0  0  0  0  0  0  0  # atno 10167 bound_to 10162
  156.0004  130.4705  150.4445 H   0  0  0  0  0  0  0  0  0  0  0  0  # atno 10718 bound_to 10713
  153.5258  135.7015  153.5708 H   0  0  0  0  0  0  0  0  0  0  0  0  # atno 10763 bound_to 10752
  153.3737  135.3938  155.1807 H   0  0  0  0  0  0  0  0  0  0  0  0  # atno 10764 bound_to 10752
  154.8690  135.3818  154.4751 H   0  0  0  0  0  0  0  0  0  0  0  0  # atno 10765 bound_to 10752
  139.8913  134.8439  156.2897 H   0  0  0  0  0  0  0  0  0  0  0  0  # atno 11005 bound_to 11000
  145.6637  139.1586  143.2793 LP  0  0  0  0  0  0  0  0  0  0  0  0  # atno 17320 bound_to 7965
  146.1661  140.6715  142.9255 LP  0  0  0  0  0  0  0  0  0  0  0  0  # atno 17321 bound_to 7965
  140.7717  143.3474  151.2084 LP  0  0  0  0  0  0  0  0  0  0  0  0  # atno 17342 bound_to 10162
  139.7068  143.9442  152.2930 LP  0  0  0  0  0  0  0  0  0  0  0  0  # atno 17343 bound_to 10162
  157.2483  131.0540  151.2395 LP  0  0  0  0  0  0  0  0  0  0  0  0  # atno 17370 bound_to 10713
  157.3553  130.7103  149.6467 LP  0  0  0  0  0  0  0  0  0  0  0  0  # atno 17371 bound_to 10713
  140.9984  133.7166  156.0922 LP  0  0  0  0  0  0  0  0  0  0  0  0  # atno 17394 bound_to 11000
  140.7531  134.4023  157.5538 LP  0  0  0  0  0  0  0  0  0  0  0  0  # atno 17395 bound_to 11000

$$$$
