AV-unprocessed.smi:1889|AV-procd|sdf|7662|dock10
  -GOLD-   22720 9393D 1   1.00000     0.00000
 Structure written by MMmdl.
 35 36  0  0  0  0  0  0  0  0  2 V2000
  151.5855  145.3512  159.4174 C   0  0  0  0  0  0  0  0  0  0  0  0
  151.4136  144.2853  158.3298 C   0  0  0  0  0  0  0  0  0  0  0  0
  151.3522  142.8628  158.9035 C   0  0  0  0  0  0  0  0  0  0  0  0
  151.5578  141.8157  157.8604 C   0  0  0  0  0  0  0  0  0  0  0  0
  152.4261  140.8111  158.0037 N   0  0  0  0  0  0  0  0  0  0  0  0
  152.4591  139.9858  156.8893 N   0  0  0  0  0  0  0  0  0  0  0  0
  151.6358  140.3892  155.9113 C   0  0  0  0  0  0  0  0  0  0  0  0
  151.5202  139.7250  154.7494 N   0  5  0  0  0  0  0  0  0  0  0  0
  151.5035  138.3726  154.7425 C   0  0  0  0  0  0  0  0  0  0  0  0
  152.1730  137.6363  154.0139 O   0  0  0  0  0  0  0  0  0  0  0  0
  150.6582  137.8386  155.6338 N   0  0  0  0  0  0  0  0  0  0  0  0
  150.4456  136.4110  155.8391 C   0  0  0  0  0  0  0  0  0  0  0  0
  150.6675  136.0243  157.3109 C   0  0  1  0  0  0  0  0  0  0  0  0
  150.4298  137.1655  158.2932 C   0  0  0  0  0  0  0  0  0  0  0  0
  149.7513  136.4999  159.4955 C   0  0  0  0  0  0  0  0  0  0  0  0
  149.8004  135.1043  159.2356 O   0  0  0  0  0  0  0  0  0  0  0  0
  149.7315  134.9338  157.8303 C   0  0  0  0  0  0  0  0  0  0  0  0
  150.7232  141.8429  156.3163 S   0  0  0  0  0  0  0  0  0  0  0  0
  151.6305  146.3485  158.9796 H   0  0  0  0  0  0  0  0  0  0  0  0
  152.5049  145.1931  159.9815 H   0  0  0  0  0  0  0  0  0  0  0  0
  150.7525  145.3337  160.1206 H   0  0  0  0  0  0  0  0  0  0  0  0
  150.5035  144.4916  157.7653 H   0  0  0  0  0  0  0  0  0  0  0  0
  152.2395  144.3580  157.6213 H   0  0  0  0  0  0  0  0  0  0  0  0
  152.1080  142.7376  159.6799 H   0  0  0  0  0  0  0  0  0  0  0  0
  150.3856  142.6921  159.3788 H   0  0  0  0  0  0  0  0  0  0  0  0
  150.1269  138.4723  156.2126 H   0  0  0  0  0  0  0  0  0  0  0  0
  149.4288  136.1568  155.5370 H   0  0  0  0  0  0  0  0  0  0  0  0
  151.1225  135.8457  155.1963 H   0  0  0  0  0  0  0  0  0  0  0  0
  151.6939  135.6772  157.4403 H   0  0  0  0  0  0  0  0  0  0  0  0
  151.3695  137.6440  158.5706 H   0  0  0  0  0  0  0  0  0  0  0  0
  149.7781  137.9336  157.8742 H   0  0  0  0  0  0  0  0  0  0  0  0
  150.2441  136.7374  160.4385 H   0  0  0  0  0  0  0  0  0  0  0  0
  148.7094  136.8147  159.5681 H   0  0  0  0  0  0  0  0  0  0  0  0
  148.7065  135.0925  157.4902 H   0  0  0  0  0  0  0  0  0  0  0  0
  150.0436  133.9324  157.5330 H   0  0  0  0  0  0  0  0  0  0  0  0
  1  2  1  0  0  0  0
  1 19  1  0  0  0  0
  1 20  1  0  0  0  0
  1 21  1  0  0  0  0
  2  3  1  0  0  0  0
  2 22  1  0  0  0  0
  2 23  1  0  0  0  0
  3  4  1  0  0  0  0
  3 24  1  0  0  0  0
  3 25  1  0  0  0  0
  4 18  1  0  0  0  0
  4  5  2  0  0  0  0
  5  6  1  0  0  0  0
  6  7  2  0  0  0  0
  7  8  1  0  0  0  0
  7 18  1  0  0  0  0
  8  9  1  0  0  0  0
  9 10  2  0  0  0  0
  9 11  1  0  0  0  0
 11 12  1  0  0  0  0
 11 26  1  0  0  0  0
 12 13  1  0  0  0  0
 12 27  1  0  0  0  0
 12 28  1  0  0  0  0
 13 17  1  0  0  0  0
 13 14  1  0  0  0  0
 13 29  1  0  0  0  0
 14 15  1  0  0  0  0
 14 30  1  0  0  0  0
 14 31  1  0  0  0  0
 15 16  1  0  0  0  0
 15 32  1  0  0  0  0
 15 33  1  0  0  0  0
 16 17  1  0  0  0  0
 17 34  1  0  0  0  0
 17 35  1  0  0  0  0
M  CHG  1   8  -1
M  END
> <s_m_source_file>
AV-unprocessed.smi

> <i_m_source_file_index>
1889

> <i_lp_mmshare_version>
43012

> <i_f3d_flags>
0

> <s_epik_input>
W0NIM11bQ0gyXVtDSDJdYzFubmMoczEpW05IXUMoPU8pW05IXVtDSDJdW0NAQEhdMltDSDJdW0NIMl1PW0NIMl0y

> <s_epik_cmdline>
J2VwaWtfcHl0aG9uJywgJy1waCcsICc3LjAnLCAnLXRuJywgJzgnLCAnLW1hJywgJzIwMCcsICctbWV0YWxfYmluZGluZycsICctaW1hZScsICc8aW5maWxlLm1hZT4nLCAnLW9tYWUnLCAnPG91dGZpbGUubWFlPic=

> <r_lp_tautomer_probability>
1

> <r_epik_Ionization_Penalty>
4.29669

> <r_epik_Ionization_Penalty_Charging>
4.28522

> <r_epik_Ionization_Penalty_Neutral>
0.0114689

> <r_epik_State_Penalty>
4.28479

> <r_epik_Charging_Adjusted_Penalty>
8.57002

> <i_epik_Tot_Q>
-1

> <i_epik_Tot_abs_Q>
1

> <r_epik_Metal_State_Penalty>
0.72177

> <b_epik_Metal_Only>
1

> <s_lp_Force_Field>
OPLS_2005

> <r_lp_Energy>
12.2609

> <b_lp_Chiralities_Consistent>
1

> <s_lp_Variant>
AV-unprocessed.smi:1889-4

> <Gold.Version>
5.8.1

> <Gold.Id.Protein>
6NUR|6NUR_protein|mol2

> <Gold.PLP.Fitness>
41.3993

> <Gold.PLP.PLP>
-32.9694

> <Gold.PLP.part.hbond>
-4.0000

> <Gold.PLP.part.metal>
0.0000

> <Gold.PLP.part.buried>
-6.6712

> <Gold.PLP.part.nonpolar>
-22.6117

> <Gold.PLP.part.repulsive>
0.2388

> <Gold.PLP.ligand.clash>
0.1601

> <Gold.PLP.ligand.torsion>
1.4110

> <Gold.PLP.Chemscore.Hbond>
3.8000

> <Gold.PLP.Chemscore.CHOScore>
0.0000

> <Gold.PLP.Chemscore.Metal>
0.0000

> <Gold.Chemscore.Hbonds>
donor molecule, donor type, donor heavy atom, donor atom, acceptor molecule, acceptor atom, score
      P1  H  7989  7998       L1     8  1.00
      P1  H  7997  8010       L1     6  0.75
      P1  H 10752 10765       L1    10  0.70

> <Gold.PLP.Chemscore.Internal.Correction>
0.0121

> <Gold.Rescore>
     Score         DG    S(hbond)    S(metal)    S(lipo)     H(rot)  DE(clash)    DE(int)     intcor
     13.88     -15.04       1.76        0.00      66.26       1.59       0.01       1.15       ----

> <Gold.Chemscore.Fitness>
13.8779

> <Gold.Chemscore.DG>
-15.0355

> <Gold.Chemscore.ZeroCoef>
-5.4800

> <Gold.Chemscore.Hbond>
1.7604

> <Gold.Chemscore.Metal>
0.0000

> <Gold.Chemscore.Lipo>
66.2556

> <Gold.Chemscore.Internal_Hbond>
0.0000

> <Gold.Chemscore.DEClash>
0.0060

> <Gold.Chemscore.DEInternal>
1.1517

> <Gold.Chemscore.Rot>
1.5922

> <Gold.Chemscore.Internal.Correction>
   9.000000E+99

> <Gold.Chemscore.Hbonds>
donor molecule, donor type, donor heavy atom, donor atom, acceptor molecule, acceptor atom, score
      P1  H  6896  6908       L1    16  0.01
      P1  H  7989  7998       L1     8  0.65
      P1  H  7997  8010       L1     6  0.09
      P1  H 10752 10765       L1    10  0.68

> <Gold.Chemscore.Hbond.Weighted>
-5.8797

> <Gold.Chemscore.Metal.Weighted>
-0.0000

> <Gold.Chemscore.Lipo.Weighted>
-7.7519

> <Gold.Chemscore.Internal_Hbond.Weighted>
0.0000

> <Gold.Chemscore.DEClash.Weighted>
0.0060

> <Gold.Chemscore.DEInternal.Weighted>
1.1517

> <Gold.Chemscore.Rot.Weighted>
4.0761

> <Gold.Chemscore.Internal.Correction.Weighted>
   9.000000E+99

> <Gold.Protein.RotatedTorsions>
[ 6907 6896 6895 6894 ] final  170.74 input  -60.11 | X-H torsion
[ 7974 7965 7964 7962 ] final   85.91 input  175.53 | X-H torsion
[ 8008 7997 7996 7995 ] final   59.73 input   59.86 | X-H torsion
[ 10167 10162 10161 10158 ] final -147.78 input  -65.29 | X-H torsion
[ 10718 10713 10712 10709 ] final -138.26 input   66.30 | X-H torsion
[ 10763 10752 10751 10750 ] final  150.33 input  -60.55 | X-H torsion
[ 11005 11000 10999 10996 ] final -118.24 input  -57.11 | X-H torsion

> <Gold.Protein.ActiveResidues>
 VAL166  LYS551  ARG553  GLY616  TRP617  ASP618  TYR619  PRO620  LYS621  CYS622 
 ASP623  PHE694  ASN695  SER759  ASP760  ASP761  ALA762  ILE779  LEU786  VAL792 
 PHE793  MET794  SER795  GLU796  ALA797  LYS798  CYS799  TRP800  GLU811  SER814 

> <Gold.Protein.RotatedAtoms>
  151.8113  133.3382  159.3556 H   0  0  0  0  0  0  0  0  0  0  0  0  # atno 6907 bound_to 6896
  150.7325  134.5661  159.5876 H   0  0  0  0  0  0  0  0  0  0  0  0  # atno 6908 bound_to 6896
  152.3072  134.7541  160.0396 H   0  0  0  0  0  0  0  0  0  0  0  0  # atno 6909 bound_to 6896
  145.5792  139.2323  143.2362 H   0  0  0  0  0  0  0  0  0  0  0  0  # atno 7974 bound_to 7965
  155.5709  140.3490  155.4515 H   0  0  0  0  0  0  0  0  0  0  0  0  # atno 8008 bound_to 7997
  156.0445  140.1303  157.0144 H   0  0  0  0  0  0  0  0  0  0  0  0  # atno 8009 bound_to 7997
  154.4406  140.1017  156.6271 H   0  0  0  0  0  0  0  0  0  0  0  0  # atno 8010 bound_to 7997
  139.7590  143.8404  152.2603 H   0  0  0  0  0  0  0  0  0  0  0  0  # atno 10167 bound_to 10162
  156.2974  130.7409  151.1452 H   0  0  0  0  0  0  0  0  0  0  0  0  # atno 10718 bound_to 10713
  154.0857  135.2856  155.3281 H   0  0  0  0  0  0  0  0  0  0  0  0  # atno 10763 bound_to 10752
  154.6654  135.5319  153.8073 H   0  0  0  0  0  0  0  0  0  0  0  0  # atno 10764 bound_to 10752
  153.0432  135.6544  154.1029 H   0  0  0  0  0  0  0  0  0  0  0  0  # atno 10765 bound_to 10752
  141.0299  133.9996  157.3158 H   0  0  0  0  0  0  0  0  0  0  0  0  # atno 11005 bound_to 11000
  146.1728  140.6618  142.9225 LP  0  0  0  0  0  0  0  0  0  0  0  0  # atno 17320 bound_to 7965
  144.7402  140.4920  143.6875 LP  0  0  0  0  0  0  0  0  0  0  0  0  # atno 17321 bound_to 7965
  139.8405  144.7212  150.9337 LP  0  0  0  0  0  0  0  0  0  0  0  0  # atno 17342 bound_to 10162
  140.7805  143.3988  151.1185 LP  0  0  0  0  0  0  0  0  0  0  0  0  # atno 17343 bound_to 10162
  157.7359  131.0568  150.5444 LP  0  0  0  0  0  0  0  0  0  0  0  0  # atno 17370 bound_to 10713
  156.5568  130.4245  149.6081 LP  0  0  0  0  0  0  0  0  0  0  0  0  # atno 17371 bound_to 10713
  139.9201  135.0200  156.8032 LP  0  0  0  0  0  0  0  0  0  0  0  0  # atno 17394 bound_to 11000
  140.6424  133.9806  155.7714 LP  0  0  0  0  0  0  0  0  0  0  0  0  # atno 17395 bound_to 11000

$$$$
