AV-unprocessed.smi:283|AV-procd|sdf|2136|dock3
  -GOLD-   2262021453D 1   1.00000     0.00000
 Structure written by MMmdl.
 48 51  0  0  0  0  0  0  0  0  1 V2000
  147.3112  136.0054  158.0437 C   0  0  0  0  0  0  0  0  0  0  0  0
  147.3666  134.6274  158.7167 C   0  0  1  0  0  0  0  0  0  0  0  0
  148.5477  133.9022  158.2536 N   0  0  0  0  0  0  0  0  0  0  0  0
  148.6797  133.5229  156.9632 C   0  0  0  0  0  0  0  0  0  0  0  0
  149.9526  133.4381  156.5099 N   0  0  0  0  0  0  0  0  0  0  0  0
  150.1925  133.0558  155.2534 C   0  0  0  0  0  0  0  0  0  0  0  0
  149.3182  132.7241  154.3031 N   0  0  0  0  0  0  0  0  0  0  0  0
  148.0304  132.8200  154.7429 C   0  0  0  0  0  0  0  0  0  0  0  0
  147.6265  133.2132  156.0521 C   0  0  0  0  0  0  0  0  0  0  0  0
  146.2387  133.2051  156.1247 N   0  0  0  0  0  0  0  0  0  0  0  0
  145.8531  132.8180  154.9408 C   0  0  0  0  0  0  0  0  0  0  0  0
  146.8653  132.5612  154.0451 N   0  0  0  0  0  0  0  0  0  0  0  0
  146.7116  132.0998  152.6255 C   0  0  1  0  0  0  0  0  0  0  0  0
  145.3725  131.7966  152.3663 O   0  0  0  0  0  0  0  0  0  0  0  0
  144.8532  132.6532  151.3500 C   0  0  2  0  0  0  0  0  0  0  0  0
  143.7197  131.9659  150.5701 C   0  0  0  0  0  0  0  0  0  0  0  0
  143.3544  132.7541  149.4577 O   0  0  0  0  0  0  0  0  0  0  0  0
  146.0906  133.0352  150.5275 C   0  0  2  0  0  0  0  0  0  0  0  0
  146.4178  132.0224  149.5927 O   0  0  0  0  0  0  0  0  0  0  0  0
  147.1693  133.1500  151.5930 C   0  0  1  0  0  0  0  0  0  0  0  0
  147.2245  134.4707  152.1041 O   0  0  0  0  0  0  0  0  0  0  0  0
  147.2597  134.7753  160.2373 C   0  0  0  0  0  0  0  0  0  0  0  0
  147.2825  136.0619  160.8251 C   0  0  0  0  0  0  0  0  0  0  0  0
  147.1811  136.2166  162.2201 C   0  0  0  0  0  0  0  0  0  0  0  0
  147.0466  135.0855  163.0446 C   0  0  0  0  0  0  0  0  0  0  0  0
  147.0086  133.8015  162.4707 C   0  0  0  0  0  0  0  0  0  0  0  0
  147.1104  133.6406  161.0743 C   0  0  0  0  0  0  0  0  0  0  0  0
  147.0430  132.0396  160.4246 Cl  0  0  0  0  0  0  0  0  0  0  0  0
  147.2933  131.1788  152.5742 H   0  0  0  0  0  0  0  0  0  0  0  0
  144.4768  133.5653  151.8150 H   0  0  0  0  0  0  0  0  0  0  0  0
  145.9440  133.9661  149.9780 H   0  0  0  0  0  0  0  0  0  0  0  0
  148.1597  132.8906  151.2169 H   0  0  0  0  0  0  0  0  0  0  0  0
  146.3936  136.5335  158.3048 H   0  0  0  0  0  0  0  0  0  0  0  0
  147.3385  135.9140  156.9575 H   0  0  0  0  0  0  0  0  0  0  0  0
  148.1519  136.6302  158.3475 H   0  0  0  0  0  0  0  0  0  0  0  0
  146.5072  134.0672  158.3527 H   0  0  0  0  0  0  0  0  0  0  0  0
  149.0950  133.4787  158.9888 H   0  0  0  0  0  0  0  0  0  0  0  0
  151.2333  133.0078  154.9685 H   0  0  0  0  0  0  0  0  0  0  0  0
  144.8090  132.7061  154.6869 H   0  0  0  0  0  0  0  0  0  0  0  0
  144.0562  131.0009  150.1894 H   0  0  0  0  0  0  0  0  0  0  0  0
  142.8520  131.7827  151.2043 H   0  0  0  0  0  0  0  0  0  0  0  0
  142.7191  133.3942  149.7404 H   0  0  0  0  0  0  0  0  0  0  0  0
  147.1718  131.5510  149.9126 H   0  0  0  0  0  0  0  0  0  0  0  0
  148.0565  134.8497  151.8647 H   0  0  0  0  0  0  0  0  0  0  0  0
  147.3789  136.9428  160.2076 H   0  0  0  0  0  0  0  0  0  0  0  0
  147.2036  137.2043  162.6568 H   0  0  0  0  0  0  0  0  0  0  0  0
  146.9665  135.2024  164.1151 H   0  0  0  0  0  0  0  0  0  0  0  0
  146.8969  132.9353  163.1061 H   0  0  0  0  0  0  0  0  0  0  0  0
  1  2  1  0  0  0  0
  1 33  1  0  0  0  0
  1 34  1  0  0  0  0
  1 35  1  0  0  0  0
  2  3  1  0  0  0  0
  2 22  1  0  0  0  0
  2 36  1  0  0  0  0
  3  4  1  0  0  0  0
  3 37  1  0  0  0  0
  4  9  1  0  0  0  0
  4  5  2  0  0  0  0
  5  6  1  0  0  0  0
  6  7  2  0  0  0  0
  6 38  1  0  0  0  0
  7  8  1  0  0  0  0
  8 12  1  0  0  0  0
  8  9  2  0  0  0  0
  9 10  1  0  0  0  0
 10 11  2  0  0  0  0
 11 12  1  0  0  0  0
 11 39  1  0  0  0  0
 12 13  1  0  0  0  0
 13 29  1  0  0  0  0
 13 20  1  0  0  0  0
 13 14  1  0  0  0  0
 14 15  1  0  0  0  0
 15 30  1  0  0  0  0
 15 16  1  0  0  0  0
 15 18  1  0  0  0  0
 16 17  1  0  0  0  0
 16 40  1  0  0  0  0
 16 41  1  0  0  0  0
 17 42  1  0  0  0  0
 18 31  1  0  0  0  0
 18 19  1  0  0  0  0
 18 20  1  0  0  0  0
 19 43  1  0  0  0  0
 20 32  1  0  0  0  0
 20 21  1  0  0  0  0
 21 44  1  0  0  0  0
 22 27  1  0  0  0  0
 22 23  2  0  0  0  0
 23 24  1  0  0  0  0
 23 45  1  0  0  0  0
 24 25  2  0  0  0  0
 24 46  1  0  0  0  0
 25 26  1  0  0  0  0
 25 47  1  0  0  0  0
 26 27  2  0  0  0  0
 26 48  1  0  0  0  0
 27 28  1  0  0  0  0
M  END
> <s_m_source_file>
AV-unprocessed.smi

> <i_m_source_file_index>
283

> <i_lp_mmshare_version>
43012

> <i_f3d_flags>
0

> <s_epik_input>
Q2xjMVtjSF1bY0hdW2NIXVtjSF1jMVtDQEhdKFtDSDNdKVtOSF1jKG5bY0hdbjIpYyhjMjMpbltjSF1uM1tDQEBIXTRPW0NASF0oW0NIMl1bT0hdKVtDQEBIXShbT0hdKVtDQEhdNFtPSF0=

> <s_epik_cmdline>
J2VwaWtfcHl0aG9uJywgJy1waCcsICc3LjAnLCAnLXRuJywgJzgnLCAnLW1hJywgJzIwMCcsICctbWV0YWxfYmluZGluZycsICctaW1hZScsICc8aW5maWxlLm1hZT4nLCAnLW9tYWUnLCAnPG91dGZpbGUubWFlPic=

> <r_lp_tautomer_probability>
1

> <r_epik_Ionization_Penalty>
0.000266407

> <r_epik_Ionization_Penalty_Charging>
0

> <r_epik_Ionization_Penalty_Neutral>
0.000266407

> <r_epik_State_Penalty>
-0

> <r_epik_Charging_Adjusted_Penalty>
0

> <i_epik_Tot_Q>
0

> <i_epik_Tot_abs_Q>
0

> <r_epik_Metal_State_Penalty>
-0

> <b_epik_Metal_Only>
0

> <s_epik_Chemistry_Notes>
This compound contains an acetal/aminal-like group ( X-CH(R)-Y where X, Y are N, S, or O) that may be acid/base labile, releasing an aldehyde.

> <s_lp_Force_Field>
OPLS_2005

> <r_lp_Energy>
46.6605

> <b_lp_Chiralities_Consistent>
1

> <s_lp_Variant>
AV-unprocessed.smi:283-12

> <Gold.Version>
5.8.1

> <Gold.Id.Protein>
6NUR|6NUR_protein|mol2

> <Gold.PLP.Fitness>
53.3297

> <Gold.PLP.PLP>
-42.1335

> <Gold.PLP.part.hbond>
-2.7795

> <Gold.PLP.part.metal>
0.0000

> <Gold.PLP.part.buried>
-6.7015

> <Gold.PLP.part.nonpolar>
-31.5256

> <Gold.PLP.part.repulsive>
0.4212

> <Gold.PLP.ligand.clash>
0.0000

> <Gold.PLP.ligand.torsion>
0.4301

> <Gold.PLP.Chemscore.Hbond>
2.9913

> <Gold.PLP.Chemscore.CHOScore>
1.0000

> <Gold.PLP.Chemscore.Metal>
0.0000

> <Gold.Chemscore.Hbonds>
donor molecule, donor type, donor heavy atom, donor atom, acceptor molecule, acceptor atom, score
      L1  H    17    42       P1 10186  1.00
      L1  H    19    43       P1 10747  1.00
      L1  H    21    44       P1  7948  0.90
      L1  C    11    39       P1 10957  1.00

> <Gold.PLP.Chemscore.Internal.Correction>
0.0826

> <Gold.Rescore>
     Score         DG    S(hbond)    S(metal)    S(lipo)     H(rot)  DE(clash)    DE(int)     intcor
     13.53     -13.79       2.65        0.00      85.14       4.10       0.00       0.26       ----

> <Gold.Chemscore.Fitness>
13.5327

> <Gold.Chemscore.DG>
-13.7934

> <Gold.Chemscore.ZeroCoef>
-5.4800

> <Gold.Chemscore.Hbond>
2.6468

> <Gold.Chemscore.Metal>
0.0000

> <Gold.Chemscore.Lipo>
85.1366

> <Gold.Chemscore.Internal_Hbond>
0.0000

> <Gold.Chemscore.DEClash>
0.0021

> <Gold.Chemscore.DEInternal>
0.2586

> <Gold.Chemscore.Rot>
4.0968

> <Gold.Chemscore.Internal.Correction>
   9.000000E+99

> <Gold.Chemscore.Hbonds>
donor molecule, donor type, donor heavy atom, donor atom, acceptor molecule, acceptor atom, score
      L1  H    17    42       P1 10186  0.93
      L1  H    19    43       P1 10747  0.99
      L1  H    21    44       P1  7948  0.19

> <Gold.Chemscore.Hbond.Weighted>
-8.8404

> <Gold.Chemscore.Metal.Weighted>
-0.0000

> <Gold.Chemscore.Lipo.Weighted>
-9.9610

> <Gold.Chemscore.Internal_Hbond.Weighted>
0.0000

> <Gold.Chemscore.DEClash.Weighted>
0.0021

> <Gold.Chemscore.DEInternal.Weighted>
0.2586

> <Gold.Chemscore.Rot.Weighted>
10.4879

> <Gold.Chemscore.Internal.Correction.Weighted>
   9.000000E+99

> <Gold.Protein.RotatedTorsions>
[ 6907 6896 6895 6894 ] final -118.09 input  -60.11 | X-H torsion
[ 7974 7965 7964 7962 ] final  -30.43 input  175.53 | X-H torsion
[ 8008 7997 7996 7995 ] final  150.45 input   59.86 | X-H torsion
[ 10167 10162 10161 10158 ] final  143.50 input  -65.29 | X-H torsion
[ 10718 10713 10712 10709 ] final  -71.82 input   66.30 | X-H torsion
[ 10763 10752 10751 10750 ] final   14.03 input  -60.55 | X-H torsion
[ 11005 11000 10999 10996 ] final   31.01 input  -57.11 | X-H torsion

> <Gold.Protein.ActiveResidues>
 VAL166  LYS551  ARG553  GLY616  TRP617  ASP618  TYR619  PRO620  LYS621  CYS622 
 ASP623  PHE694  ASN695  SER759  ASP760  ASP761  ALA762  ILE779  LEU786  VAL792 
 PHE793  MET794  SER795  GLU796  ALA797  LYS798  CYS799  TRP800  GLU811  SER814 

> <Gold.Protein.RotatedAtoms>
  150.8191  133.8285  159.3146 H   0  0  0  0  0  0  0  0  0  0  0  0  # atno 6907 bound_to 6896
  151.6048  135.1043  160.0078 H   0  0  0  0  0  0  0  0  0  0  0  0  # atno 6908 bound_to 6896
  152.4281  133.7189  159.6578 H   0  0  0  0  0  0  0  0  0  0  0  0  # atno 6909 bound_to 6896
  146.1143  140.5539  142.8764 H   0  0  0  0  0  0  0  0  0  0  0  0  # atno 7974 bound_to 7965
  156.2715  140.2074  156.6020 H   0  0  0  0  0  0  0  0  0  0  0  0  # atno 8008 bound_to 7997
  154.6899  140.0531  157.0377 H   0  0  0  0  0  0  0  0  0  0  0  0  # atno 8009 bound_to 7997
  155.0881  140.3193  155.4584 H   0  0  0  0  0  0  0  0  0  0  0  0  # atno 8010 bound_to 7997
  139.4968  144.6036  151.6427 H   0  0  0  0  0  0  0  0  0  0  0  0  # atno 10167 bound_to 10162
  156.0346  130.4359  150.2500 H   0  0  0  0  0  0  0  0  0  0  0  0  # atno 10718 bound_to 10713
  153.1662  135.6804  153.8672 H   0  0  0  0  0  0  0  0  0  0  0  0  # atno 10763 bound_to 10752
  153.8051  135.3150  155.3395 H   0  0  0  0  0  0  0  0  0  0  0  0  # atno 10764 bound_to 10752
  154.7967  135.4803  154.0268 H   0  0  0  0  0  0  0  0  0  0  0  0  # atno 10765 bound_to 10752
  140.2884  134.2893  155.7782 H   0  0  0  0  0  0  0  0  0  0  0  0  # atno 11005 bound_to 11000
  144.7539  140.5260  143.6782 LP  0  0  0  0  0  0  0  0  0  0  0  0  # atno 17320 bound_to 7965
  145.5598  139.1479  143.3347 LP  0  0  0  0  0  0  0  0  0  0  0  0  # atno 17321 bound_to 7965
  140.5692  144.0137  150.6208 LP  0  0  0  0  0  0  0  0  0  0  0  0  # atno 17342 bound_to 10162
  140.3249  143.3114  152.0746 LP  0  0  0  0  0  0  0  0  0  0  0  0  # atno 17343 bound_to 10162
  157.0600  131.0087  151.3225 LP  0  0  0  0  0  0  0  0  0  0  0  0  # atno 17370 bound_to 10713
  157.5077  130.7919  149.7672 LP  0  0  0  0  0  0  0  0  0  0  0  0  # atno 17371 bound_to 10713
  141.2151  133.7569  156.9587 LP  0  0  0  0  0  0  0  0  0  0  0  0  # atno 17394 bound_to 11000
  140.1218  134.9412  157.2214 LP  0  0  0  0  0  0  0  0  0  0  0  0  # atno 17395 bound_to 11000

$$$$
