AV-unprocessed.smi:2822|AV-procd|sdf|10877|dock5
  -GOLD-   2272015323D 1   1.00000     0.00000
 Structure written by MMmdl.
 40 42  0  0  0  0  0  0  0  0  2 V2000
  149.5376  138.6273  154.1987 Cl  0  0  0  0  0  0  0  0  0  0  0  0
  148.2687  139.7745  154.4511 C   0  0  0  0  0  0  0  0  0  0  0  0
  147.2032  139.8367  153.5292 C   0  0  0  0  0  0  0  0  0  0  0  0
  146.2038  140.7259  153.7102 N   0  3  0  0  0  0  0  0  0  0  0  0
  146.1699  141.5818  154.7532 C   0  0  0  0  0  0  0  0  0  0  0  0
  147.2067  141.5683  155.7079 C   0  0  0  0  0  0  0  0  0  0  0  0
  148.2779  140.6510  155.5642 C   0  0  0  0  0  0  0  0  0  0  0  0
  149.3385  140.5874  156.4807 N   0  0  0  0  0  0  0  0  0  0  0  0
  149.7092  141.7438  157.2818 C   0  0  0  0  0  0  0  0  0  0  0  0
  151.1975  142.0978  157.1032 C   0  0  1  0  0  0  0  0  0  0  0  0
  151.5606  143.4720  157.6966 C   0  0  0  0  0  0  0  0  0  0  0  0
  151.5592  143.4753  159.1546 N   0  0  0  0  0  0  0  0  0  0  0  0
  151.9290  144.7909  159.6761 C   0  0  0  0  0  0  0  0  0  0  0  0
  151.9146  144.8424  161.2118 C   0  0  0  0  0  0  0  0  0  0  0  0
  152.8391  143.7617  161.7893 C   0  0  0  0  0  0  0  0  0  0  0  0
  152.4751  142.3901  161.2016 C   0  0  0  0  0  0  0  0  0  0  0  0
  152.4607  142.4355  159.6593 C   0  0  1  0  0  0  0  0  0  0  0  0
  152.0892  141.0544  159.0841 C   0  0  0  0  0  0  0  0  0  0  0  0
  152.0546  141.0989  157.6596 O   0  0  0  0  0  0  0  0  0  0  0  0
  147.1213  139.2047  152.6570 H   0  0  0  0  0  0  0  0  0  0  0  0
  145.3208  142.2484  154.7928 H   0  0  0  0  0  0  0  0  0  0  0  0
  147.1643  142.2627  156.5337 H   0  0  0  0  0  0  0  0  0  0  0  0
  149.7056  139.6845  156.7479 H   0  0  0  0  0  0  0  0  0  0  0  0
  149.0985  142.5898  156.9646 H   0  0  0  0  0  0  0  0  0  0  0  0
  149.4766  141.5624  158.3311 H   0  0  0  0  0  0  0  0  0  0  0  0
  151.4045  142.1346  156.0330 H   0  0  0  0  0  0  0  0  0  0  0  0
  152.5497  143.7582  157.3355 H   0  0  0  0  0  0  0  0  0  0  0  0
  150.8682  144.2271  157.3225 H   0  0  0  0  0  0  0  0  0  0  0  0
  152.9212  145.0667  159.3150 H   0  0  0  0  0  0  0  0  0  0  0  0
  151.2409  145.5440  159.2899 H   0  0  0  0  0  0  0  0  0  0  0  0
  152.2264  145.8281  161.5581 H   0  0  0  0  0  0  0  0  0  0  0  0
  150.8972  144.6907  161.5746 H   0  0  0  0  0  0  0  0  0  0  0  0
  153.8761  143.9993  161.5484 H   0  0  0  0  0  0  0  0  0  0  0  0
  152.7663  143.7412  162.8768 H   0  0  0  0  0  0  0  0  0  0  0  0
  153.1847  141.6393  161.5514 H   0  0  0  0  0  0  0  0  0  0  0  0
  151.4948  142.0865  161.5715 H   0  0  0  0  0  0  0  0  0  0  0  0
  153.4736  142.6665  159.3250 H   0  0  0  0  0  0  0  0  0  0  0  0
  152.8271  140.3105  159.3852 H   0  0  0  0  0  0  0  0  0  0  0  0
  151.1298  140.7128  159.4735 H   0  0  0  0  0  0  0  0  0  0  0  0
  145.4434  140.7520  153.0301 H   0  0  0  0  0  0  0  0  0  0  0  0
  1  2  1  0  0  0  0
  2  7  1  0  0  0  0
  2  3  2  0  0  0  0
  3  4  1  0  0  0  0
  3 20  1  0  0  0  0
  4  5  2  0  0  0  0
  4 40  1  0  0  0  0
  5  6  1  0  0  0  0
  5 21  1  0  0  0  0
  6  7  2  0  0  0  0
  6 22  1  0  0  0  0
  7  8  1  0  0  0  0
  8  9  1  0  0  0  0
  8 23  1  0  0  0  0
  9 10  1  0  0  0  0
  9 24  1  0  0  0  0
  9 25  1  0  0  0  0
 10 19  1  0  0  0  0
 10 11  1  0  0  0  0
 10 26  1  0  0  0  0
 11 12  1  0  0  0  0
 11 27  1  0  0  0  0
 11 28  1  0  0  0  0
 12 17  1  0  0  0  0
 12 13  1  0  0  0  0
 13 14  1  0  0  0  0
 13 29  1  0  0  0  0
 13 30  1  0  0  0  0
 14 15  1  0  0  0  0
 14 31  1  0  0  0  0
 14 32  1  0  0  0  0
 15 16  1  0  0  0  0
 15 33  1  0  0  0  0
 15 34  1  0  0  0  0
 16 17  1  0  0  0  0
 16 35  1  0  0  0  0
 16 36  1  0  0  0  0
 17 18  1  0  0  0  0
 17 37  1  0  0  0  0
 18 19  1  0  0  0  0
 18 38  1  0  0  0  0
 18 39  1  0  0  0  0
M  CHG  1   4   1
M  END
> <s_m_source_file>
AV-unprocessed.smi

> <i_m_source_file_index>
2822

> <i_lp_mmshare_version>
43012

> <i_f3d_flags>
0

> <s_epik_input>
Q2xjMVtjSF1uW2NIXVtjSF1jMVtOSF1bQ0gyXVtDQEhdKFtDSDJdMilPW0NIMl1bQ0BASF0oTjIzKVtDSDJdW0NIMl1bQ0gyXVtDSDJdMw==

> <s_epik_cmdline>
J2VwaWtfcHl0aG9uJywgJy1waCcsICc3LjAnLCAnLXRuJywgJzgnLCAnLW1hJywgJzIwMCcsICctbWV0YWxfYmluZGluZycsICctaW1hZScsICc8aW5maWxlLm1hZT4nLCAnLW9tYWUnLCAnPG91dGZpbGUubWFlPic=

> <r_epik_Ionization_Penalty>
1.37653

> <r_epik_Ionization_Penalty_Charging>
0.152973

> <r_epik_Ionization_Penalty_Neutral>
1.22356

> <r_epik_State_Penalty>
1.42693

> <r_epik_Charging_Adjusted_Penalty>
1.5799

> <i_epik_Tot_Q>
1

> <i_epik_Tot_abs_Q>
1

> <r_epik_Metal_State_Penalty>
4.59822

> <b_epik_Metal_Only>
0

> <s_lp_Force_Field>
OPLS_2005

> <r_lp_Energy>
45.6855

> <b_lp_Chiralities_Consistent>
1

> <s_lp_Variant>
AV-unprocessed.smi:2822-18

> <Gold.Version>
5.8.1

> <Gold.Id.Protein>
6NUR|6NUR_protein|mol2

> <Gold.PLP.Fitness>
41.7634

> <Gold.PLP.PLP>
-36.3995

> <Gold.PLP.part.hbond>
-1.0000

> <Gold.PLP.part.metal>
0.0000

> <Gold.PLP.part.buried>
-3.4779

> <Gold.PLP.part.nonpolar>
-31.8195

> <Gold.PLP.part.repulsive>
0.0606

> <Gold.PLP.ligand.clash>
0.0000

> <Gold.PLP.ligand.torsion>
0.2006

> <Gold.PLP.Chemscore.Hbond>
1.9200

> <Gold.PLP.Chemscore.CHOScore>
0.0000

> <Gold.PLP.Chemscore.Metal>
0.0000

> <Gold.Chemscore.Hbonds>
donor molecule, donor type, donor heavy atom, donor atom, acceptor molecule, acceptor atom, score
      L1  H     4    40       P1 10175  2.00

> <Gold.PLP.Chemscore.Internal.Correction>
0.0051

> <Gold.Rescore>
     Score         DG    S(hbond)    S(metal)    S(lipo)     H(rot)  DE(clash)    DE(int)     intcor
     18.77     -19.19       0.97        0.00     115.40       1.18       0.31       0.11       ----

> <Gold.Chemscore.Fitness>
18.7741

> <Gold.Chemscore.DG>
-19.1888

> <Gold.Chemscore.ZeroCoef>
-5.4800

> <Gold.Chemscore.Hbond>
0.9653

> <Gold.Chemscore.Metal>
0.0000

> <Gold.Chemscore.Lipo>
115.4039

> <Gold.Chemscore.Internal_Hbond>
0.0000

> <Gold.Chemscore.DEClash>
0.3075

> <Gold.Chemscore.DEInternal>
0.1072

> <Gold.Chemscore.Rot>
1.1788

> <Gold.Chemscore.Internal.Correction>
   9.000000E+99

> <Gold.Chemscore.Hbonds>
donor molecule, donor type, donor heavy atom, donor atom, acceptor molecule, acceptor atom, score
      L1  H     4    40       P1 10175  0.64

> <Gold.Chemscore.Hbond.Weighted>
-3.2242

> <Gold.Chemscore.Metal.Weighted>
-0.0000

> <Gold.Chemscore.Lipo.Weighted>
-13.5023

> <Gold.Chemscore.Internal_Hbond.Weighted>
0.0000

> <Gold.Chemscore.DEClash.Weighted>
0.3075

> <Gold.Chemscore.DEInternal.Weighted>
0.1072

> <Gold.Chemscore.Rot.Weighted>
3.0177

> <Gold.Chemscore.Internal.Correction.Weighted>
   9.000000E+99

> <Gold.Protein.RotatedTorsions>
[ 6907 6896 6895 6894 ] final   74.56 input  -60.11 | X-H torsion
[ 7974 7965 7964 7962 ] final  148.57 input  175.53 | X-H torsion
[ 8008 7997 7996 7995 ] final -153.65 input   59.86 | X-H torsion
[ 10167 10162 10161 10158 ] final   17.21 input  -65.29 | X-H torsion
[ 10718 10713 10712 10709 ] final -107.60 input   66.30 | X-H torsion
[ 10763 10752 10751 10750 ] final  -10.65 input  -60.55 | X-H torsion
[ 11005 11000 10999 10996 ] final  -57.27 input  -57.11 | X-H torsion

> <Gold.Protein.ActiveResidues>
 VAL166  LYS551  ARG553  GLY616  TRP617  ASP618  TYR619  PRO620  LYS621  CYS622 
 ASP623  PHE694  ASN695  SER759  ASP760  ASP761  ALA762  ILE779  LEU786  VAL792 
 PHE793  MET794  SER795  GLU796  ALA797  LYS798  CYS799  TRP800  GLU811  SER814 

> <Gold.Protein.RotatedAtoms>
  152.4982  134.4253  159.9493 H   0  0  0  0  0  0  0  0  0  0  0  0  # atno 6907 bound_to 6896
  151.4228  133.3687  159.2766 H   0  0  0  0  0  0  0  0  0  0  0  0  # atno 6908 bound_to 6896
  150.9210  134.8650  159.7548 H   0  0  0  0  0  0  0  0  0  0  0  0  # atno 6909 bound_to 6896
  144.8504  139.6171  143.5976 H   0  0  0  0  0  0  0  0  0  0  0  0  # atno 7974 bound_to 7965
  155.6742  140.0737  157.2509 H   0  0  0  0  0  0  0  0  0  0  0  0  # atno 8008 bound_to 7997
  154.4117  140.1693  156.1963 H   0  0  0  0  0  0  0  0  0  0  0  0  # atno 8009 bound_to 7997
  155.9590  140.3371  155.6477 H   0  0  0  0  0  0  0  0  0  0  0  0  # atno 8010 bound_to 7997
  140.5742  143.9103  150.6737 H   0  0  0  0  0  0  0  0  0  0  0  0  # atno 10167 bound_to 10162
  156.0444  130.5670  150.7843 H   0  0  0  0  0  0  0  0  0  0  0  0  # atno 10718 bound_to 10713
  153.4723  135.7017  153.5986 H   0  0  0  0  0  0  0  0  0  0  0  0  # atno 10763 bound_to 10752
  153.4235  135.3819  155.2126 H   0  0  0  0  0  0  0  0  0  0  0  0  # atno 10764 bound_to 10752
  154.8725  135.3933  154.4162 H   0  0  0  0  0  0  0  0  0  0  0  0  # atno 10765 bound_to 10752
  141.1157  133.6610  156.4745 H   0  0  0  0  0  0  0  0  0  0  0  0  # atno 11005 bound_to 11000
  146.2779  139.6801  142.9249 LP  0  0  0  0  0  0  0  0  0  0  0  0  # atno 17320 bound_to 7965
  145.4512  141.0428  143.2803 LP  0  0  0  0  0  0  0  0  0  0  0  0  # atno 17321 bound_to 7965
  140.2586  143.3540  152.1342 LP  0  0  0  0  0  0  0  0  0  0  0  0  # atno 17342 bound_to 10162
  139.5134  144.6931  151.5704 LP  0  0  0  0  0  0  0  0  0  0  0  0  # atno 17343 bound_to 10162
  157.5302  131.0936  150.9965 LP  0  0  0  0  0  0  0  0  0  0  0  0  # atno 17370 bound_to 10713
  157.0273  130.5697  149.5338 LP  0  0  0  0  0  0  0  0  0  0  0  0  # atno 17371 bound_to 10713
  140.4651  134.6805  157.5103 LP  0  0  0  0  0  0  0  0  0  0  0  0  # atno 17394 bound_to 11000
  140.0078  134.6736  155.9427 LP  0  0  0  0  0  0  0  0  0  0  0  0  # atno 17395 bound_to 11000

$$$$
