AV-unprocessed.smi:1598|AV-procd|sdf|6422|dock8
  -GOLD-   22720 7 63D 1   1.00000     0.00000
 Structure written by MMmdl.
 39 39  0  0  0  0  0  0  0  0  1 V2000
  145.9195  138.2522  152.9377 C   0  0  0  0  0  0  0  0  0  0  0  0
  147.1415  138.9683  152.9711 O   0  0  0  0  0  0  0  0  0  0  0  0
  147.5630  139.2624  154.2927 C   0  0  0  0  0  0  0  0  0  0  0  0
  148.5187  140.4655  154.2715 C   0  0  1  0  0  0  0  0  0  0  0  0
  147.9757  141.6199  153.4125 C   0  0  0  0  0  0  0  0  0  0  0  0
  148.7373  140.9213  155.6400 N   0  0  0  0  0  0  0  0  0  0  0  0
  149.9316  141.0745  156.2379 C   0  0  0  0  0  0  0  0  0  0  0  0
  150.9973  140.8464  155.6672 O   0  0  0  0  0  0  0  0  0  0  0  0
  149.9559  141.5625  157.6994 C   0  0  0  0  0  0  0  0  0  0  0  0
  151.0621  141.0213  158.5329 N   0  0  0  0  0  0  0  0  0  0  0  0
  152.0733  141.8982  159.0379 C   0  0  0  0  0  0  0  0  0  0  0  0
  151.9718  143.4058  158.7634 C   0  0  0  0  0  0  0  0  0  0  0  0
  152.9942  144.0647  159.3106 F   0  0  0  0  0  0  0  0  0  0  0  0
  152.0092  143.6525  157.4537 F   0  0  0  0  0  0  0  0  0  0  0  0
  150.8623  143.9341  159.2790 F   0  0  0  0  0  0  0  0  0  0  0  0
  153.0814  141.4007  159.7778 C   0  0  0  0  0  0  0  0  0  0  0  0
  153.1493  139.9924  160.0545 C   0  0  0  0  0  0  0  0  0  0  0  0
  152.1989  139.1504  159.5895 C   0  0  0  0  0  0  0  0  0  0  0  0
  152.2236  137.6929  159.8513 C   0  0  0  0  0  0  0  0  0  0  0  0
  153.4486  137.1895  160.0488 N   0  0  0  0  0  0  0  0  0  0  0  0
  151.2566  136.9332  159.9044 O   0  0  0  0  0  0  0  0  0  0  0  0
  151.0673  139.6652  158.7761 C   0  0  0  0  0  0  0  0  0  0  0  0
  150.1605  138.9545  158.3320 O   0  0  0  0  0  0  0  0  0  0  0  0
  145.6425  138.0493  151.9034 H   0  0  0  0  0  0  0  0  0  0  0  0
  145.1133  138.8270  153.3954 H   0  0  0  0  0  0  0  0  0  0  0  0
  146.0075  137.2965  153.4560 H   0  0  0  0  0  0  0  0  0  0  0  0
  146.7007  139.4730  154.9278 H   0  0  0  0  0  0  0  0  0  0  0  0
  148.0710  138.3913  154.7108 H   0  0  0  0  0  0  0  0  0  0  0  0
  149.4705  140.1312  153.8545 H   0  0  0  0  0  0  0  0  0  0  0  0
  147.8158  141.3022  152.3821 H   0  0  0  0  0  0  0  0  0  0  0  0
  148.6728  142.4581  153.3905 H   0  0  0  0  0  0  0  0  0  0  0  0
  147.0245  141.9881  153.7982 H   0  0  0  0  0  0  0  0  0  0  0  0
  147.9114  141.1311  156.1810 H   0  0  0  0  0  0  0  0  0  0  0  0
  149.9957  142.6533  157.6824 H   0  0  0  0  0  0  0  0  0  0  0  0
  148.9773  141.3744  158.1306 H   0  0  0  0  0  0  0  0  0  0  0  0
  153.8497  142.0455  160.1782 H   0  0  0  0  0  0  0  0  0  0  0  0
  153.9848  139.6461  160.6445 H   0  0  0  0  0  0  0  0  0  0  0  0
  153.5680  136.2047  160.2348 H   0  0  0  0  0  0  0  0  0  0  0  0
  154.2510  137.8011  160.0105 H   0  0  0  0  0  0  0  0  0  0  0  0
  1  2  1  0  0  0  0
  1 24  1  0  0  0  0
  1 25  1  0  0  0  0
  1 26  1  0  0  0  0
  2  3  1  0  0  0  0
  3  4  1  0  0  0  0
  3 27  1  0  0  0  0
  3 28  1  0  0  0  0
  4  5  1  0  0  0  0
  4  6  1  0  0  0  0
  4 29  1  0  0  0  0
  5 30  1  0  0  0  0
  5 31  1  0  0  0  0
  5 32  1  0  0  0  0
  6  7  1  0  0  0  0
  6 33  1  0  0  0  0
  7  8  2  0  0  0  0
  7  9  1  0  0  0  0
  9 10  1  0  0  0  0
  9 34  1  0  0  0  0
  9 35  1  0  0  0  0
 10 22  1  0  0  0  0
 10 11  1  0  0  0  0
 11 12  1  0  0  0  0
 11 16  2  0  0  0  0
 12 13  1  0  0  0  0
 12 14  1  0  0  0  0
 12 15  1  0  0  0  0
 16 17  1  0  0  0  0
 16 36  1  0  0  0  0
 17 18  2  0  0  0  0
 17 37  1  0  0  0  0
 18 19  1  0  0  0  0
 18 22  1  0  0  0  0
 19 20  1  0  0  0  0
 19 21  2  0  0  0  0
 20 38  1  0  0  0  0
 20 39  1  0  0  0  0
 22 23  2  0  0  0  0
M  END
> <s_m_source_file>
AV-unprocessed.smi

> <i_m_source_file_index>
1598

> <i_lp_mmshare_version>
43012

> <i_f3d_flags>
0

> <s_epik_input>
W0NIM11PW0NIMl1bQ0BIXShbQ0gzXSlbTkhdQyg9TylbQ0gyXW4xYyhDKEYpKEYpRilbY0hdW2NIXWMoYzE9TylDKD1PKVtOSDJd

> <s_epik_cmdline>
J2VwaWtfcHl0aG9uJywgJy1waCcsICc3LjAnLCAnLXRuJywgJzgnLCAnLW1hJywgJzIwMCcsICctbWV0YWxfYmluZGluZycsICctaW1hZScsICc8aW5maWxlLm1hZT4nLCAnLW9tYWUnLCAnPG91dGZpbGUubWFlPic=

> <r_lp_tautomer_probability>
1

> <r_epik_Ionization_Penalty>
2.07884e-06

> <r_epik_Ionization_Penalty_Charging>
8.00383e-10

> <r_epik_Ionization_Penalty_Neutral>
2.07804e-06

> <r_epik_State_Penalty>
-0

> <r_epik_Charging_Adjusted_Penalty>
8.00383e-10

> <i_epik_Tot_Q>
0

> <i_epik_Tot_abs_Q>
0

> <r_epik_Metal_State_Penalty>
-0

> <b_epik_Metal_Only>
0

> <s_lp_Force_Field>
OPLS_2005

> <r_lp_Energy>
25.2492

> <b_lp_Chiralities_Consistent>
1

> <s_lp_Variant>
AV-unprocessed.smi:1598-2

> <Gold.Version>
5.8.1

> <Gold.Id.Protein>
6NUR|6NUR_protein|mol2

> <Gold.PLP.Fitness>
42.3231

> <Gold.PLP.PLP>
-39.9093

> <Gold.PLP.part.hbond>
-2.0000

> <Gold.PLP.part.metal>
0.0000

> <Gold.PLP.part.buried>
-6.4007

> <Gold.PLP.part.nonpolar>
-32.7456

> <Gold.PLP.part.repulsive>
0.4159

> <Gold.PLP.ligand.clash>
3.8851

> <Gold.PLP.ligand.torsion>
0.9566

> <Gold.PLP.Chemscore.Hbond>
1.3952

> <Gold.PLP.Chemscore.CHOScore>
0.0000

> <Gold.PLP.Chemscore.Metal>
0.0000

> <Gold.Chemscore.Hbonds>
donor molecule, donor type, donor heavy atom, donor atom, acceptor molecule, acceptor atom, score
      P1  H  6896  6908       L1    21  1.00
      P1  H  7989  7998       L1     8  0.34

> <Gold.PLP.Chemscore.Internal.Correction>
4.0265

> <Gold.Rescore>
     Score         DG    S(hbond)    S(metal)    S(lipo)     H(rot)  DE(clash)    DE(int)     intcor
      8.05     -13.44       1.77        0.00      70.75       2.43       0.31       5.07       ----

> <Gold.Chemscore.Fitness>
8.0517

> <Gold.Chemscore.DG>
-13.4356

> <Gold.Chemscore.ZeroCoef>
-5.4800

> <Gold.Chemscore.Hbond>
1.7651

> <Gold.Chemscore.Metal>
0.0000

> <Gold.Chemscore.Lipo>
70.7528

> <Gold.Chemscore.Internal_Hbond>
0.0000

> <Gold.Chemscore.DEClash>
0.3092

> <Gold.Chemscore.DEInternal>
5.0747

> <Gold.Chemscore.Rot>
2.4289

> <Gold.Chemscore.Internal.Correction>
   9.000000E+99

> <Gold.Chemscore.Hbonds>
donor molecule, donor type, donor heavy atom, donor atom, acceptor molecule, acceptor atom, score
      P1  H  6896  6908       L1    21  0.90
      P1  H  7989  7998       L1     8  0.35

> <Gold.Chemscore.Hbond.Weighted>
-5.8955

> <Gold.Chemscore.Metal.Weighted>
-0.0000

> <Gold.Chemscore.Lipo.Weighted>
-8.2781

> <Gold.Chemscore.Internal_Hbond.Weighted>
0.0000

> <Gold.Chemscore.DEClash.Weighted>
0.3092

> <Gold.Chemscore.DEInternal.Weighted>
5.0747

> <Gold.Chemscore.Rot.Weighted>
6.2180

> <Gold.Chemscore.Internal.Correction.Weighted>
   9.000000E+99

> <Gold.Protein.RotatedTorsions>
[ 6907 6896 6895 6894 ] final -112.79 input  -60.11 | X-H torsion
[ 7974 7965 7964 7962 ] final  104.73 input  175.53 | X-H torsion
[ 8008 7997 7996 7995 ] final -177.01 input   59.86 | X-H torsion
[ 10167 10162 10161 10158 ] final -109.60 input  -65.29 | X-H torsion
[ 10718 10713 10712 10709 ] final -107.99 input   66.30 | X-H torsion
[ 10763 10752 10751 10750 ] final -166.53 input  -60.55 | X-H torsion
[ 11005 11000 10999 10996 ] final  157.43 input  -57.11 | X-H torsion

> <Gold.Protein.ActiveResidues>
 VAL166  LYS551  ARG553  GLY616  TRP617  ASP618  TYR619  PRO620  LYS621  CYS622 
 ASP623  PHE694  ASN695  SER759  ASP760  ASP761  ALA762  ILE779  LEU786  VAL792 
 PHE793  MET794  SER795  GLU796  ALA797  LYS798  CYS799  TRP800  GLU811  SER814 

> <Gold.Protein.RotatedAtoms>
  150.7783  133.9039  159.3349 H   0  0  0  0  0  0  0  0  0  0  0  0  # atno 6907 bound_to 6896
  151.6908  135.0945  160.0242 H   0  0  0  0  0  0  0  0  0  0  0  0  # atno 6908 bound_to 6896
  152.3826  133.6529  159.6209 H   0  0  0  0  0  0  0  0  0  0  0  0  # atno 6909 bound_to 6896
  145.3289  139.2492  143.3671 H   0  0  0  0  0  0  0  0  0  0  0  0  # atno 7974 bound_to 7965
  156.0017  140.1222  157.0540 H   0  0  0  0  0  0  0  0  0  0  0  0  # atno 8008 bound_to 7997
  154.4245  140.1105  156.5775 H   0  0  0  0  0  0  0  0  0  0  0  0  # atno 8009 bound_to 7997
  155.6203  140.3472  155.4652 H   0  0  0  0  0  0  0  0  0  0  0  0  # atno 8010 bound_to 7997
  140.1535  143.4179  152.1477 H   0  0  0  0  0  0  0  0  0  0  0  0  # atno 10167 bound_to 10162
  156.0463  130.5690  150.7899 H   0  0  0  0  0  0  0  0  0  0  0  0  # atno 10718 bound_to 10713
  154.6823  135.2956  154.9595 H   0  0  0  0  0  0  0  0  0  0  0  0  # atno 10763 bound_to 10752
  154.0586  135.6634  153.4813 H   0  0  0  0  0  0  0  0  0  0  0  0  # atno 10764 bound_to 10752
  153.0556  135.5147  154.7873 H   0  0  0  0  0  0  0  0  0  0  0  0  # atno 10765 bound_to 10752
  140.1768  134.8504  157.2756 H   0  0  0  0  0  0  0  0  0  0  0  0  # atno 11005 bound_to 11000
  146.3053  140.3863  142.8689 LP  0  0  0  0  0  0  0  0  0  0  0  0  # atno 17320 bound_to 7965
  144.8880  140.7486  143.5945 LP  0  0  0  0  0  0  0  0  0  0  0  0  # atno 17321 bound_to 7965
  139.5414  144.7260  151.4720 LP  0  0  0  0  0  0  0  0  0  0  0  0  # atno 17342 bound_to 10162
  140.6688  143.8340  150.6973 LP  0  0  0  0  0  0  0  0  0  0  0  0  # atno 17343 bound_to 10162
  157.5342  131.0938  150.9914 LP  0  0  0  0  0  0  0  0  0  0  0  0  # atno 17370 bound_to 10713
  157.0213  130.5675  149.5331 LP  0  0  0  0  0  0  0  0  0  0  0  0  # atno 17371 bound_to 10713
  140.2313  134.3906  155.7520 LP  0  0  0  0  0  0  0  0  0  0  0  0  # atno 17394 bound_to 11000
  141.2221  133.7216  156.8645 LP  0  0  0  0  0  0  0  0  0  0  0  0  # atno 17395 bound_to 11000

$$$$
