AV-unprocessed.smi:4|AV-procd|sdf|33|dock9
  -GOLD-   2262015143D 1   1.00000     0.00000
 Structure written by MMmdl.
 44 45  0  0  0  0  0  0  0  0  2 V2000
  144.9336  135.1460  150.4727 C   0  0  0  0  0  0  0  0  0  0  0  0
  144.8477  134.6610  151.9435 C   0  0  0  0  0  0  0  0  0  0  0  0
  144.6236  135.9433  152.7864 C   0  0  0  0  0  0  0  0  0  0  0  0
  143.6028  133.7382  152.0019 C   0  0  0  0  0  0  0  0  0  0  0  0
  146.0655  133.9438  152.3775 N   0  0  0  0  0  0  0  0  0  0  0  0
  146.9723  134.4424  153.3162 C   0  0  0  0  0  0  0  0  0  0  0  0
  148.0875  133.7921  153.7365 C   0  0  0  0  0  0  0  0  0  0  0  0
  149.0446  134.4144  154.7473 C   0  0  0  0  0  0  0  0  0  0  0  0
  149.2481  135.8590  154.5019 N   0  3  0  0  0  0  0  0  0  0  0  0
  150.5024  136.4269  155.0428 C   0  0  0  0  0  0  0  0  0  0  0  0
  150.6848  137.8890  154.6215 C   0  0  0  0  0  0  0  0  0  0  0  0
  149.8258  138.0978  153.5190 O   0  0  0  0  0  0  0  0  0  0  0  0
  150.5402  138.9471  155.7308 C   0  0  0  0  0  0  0  0  0  0  0  0
  152.0638  138.9906  155.8496 C   0  0  0  0  0  0  0  0  0  0  0  0
  152.1227  138.4111  154.4361 C   0  0  0  0  0  0  0  0  0  0  0  0
  148.4114  132.4829  153.1695 C   0  0  0  0  0  0  0  0  0  0  0  0
  149.3921  131.8005  153.4606 O   0  0  0  0  0  0  0  0  0  0  0  0
  147.4956  132.0091  152.2335 N   0  0  0  0  0  0  0  0  0  0  0  0
  146.3421  132.6662  151.8115 C   0  0  0  0  0  0  0  0  0  0  0  0
  145.6323  132.1079  150.9770 O   0  0  0  0  0  0  0  0  0  0  0  0
  147.6830  131.1056  151.8226 H   0  0  0  0  0  0  0  0  0  0  0  0
  144.0261  135.6736  150.1758 H   0  0  0  0  0  0  0  0  0  0  0  0
  145.0481  134.3161  149.7739 H   0  0  0  0  0  0  0  0  0  0  0  0
  145.7577  135.8442  150.3197 H   0  0  0  0  0  0  0  0  0  0  0  0
  145.5158  136.5704  152.7931 H   0  0  0  0  0  0  0  0  0  0  0  0
  144.3546  135.7429  153.8218 H   0  0  0  0  0  0  0  0  0  0  0  0
  143.8096  136.5441  152.3792 H   0  0  0  0  0  0  0  0  0  0  0  0
  142.7346  134.2204  151.5514 H   0  0  0  0  0  0  0  0  0  0  0  0
  143.3032  133.4743  153.0144 H   0  0  0  0  0  0  0  0  0  0  0  0
  143.7749  132.8094  151.4568 H   0  0  0  0  0  0  0  0  0  0  0  0
  146.8171  135.4065  153.7718 H   0  0  0  0  0  0  0  0  0  0  0  0
  148.7122  134.2472  155.7728 H   0  0  0  0  0  0  0  0  0  0  0  0
  150.0133  133.9213  154.6605 H   0  0  0  0  0  0  0  0  0  0  0  0
  149.2544  136.0062  153.5027 H   0  0  0  0  0  0  0  0  0  0  0  0
  150.5030  136.3487  156.1303 H   0  0  0  0  0  0  0  0  0  0  0  0
  151.3379  135.8217  154.6886 H   0  0  0  0  0  0  0  0  0  0  0  0
  149.7893  137.2847  153.0377 H   0  0  0  0  0  0  0  0  0  0  0  0
  150.1191  139.8895  155.3752 H   0  0  0  0  0  0  0  0  0  0  0  0
  150.0315  138.6007  156.6311 H   0  0  0  0  0  0  0  0  0  0  0  0
  152.4858  139.9909  155.9514 H   0  0  0  0  0  0  0  0  0  0  0  0
  152.4502  138.3063  156.6064 H   0  0  0  0  0  0  0  0  0  0  0  0
  152.8816  137.6396  154.3028 H   0  0  0  0  0  0  0  0  0  0  0  0
  152.2031  139.1829  153.6683 H   0  0  0  0  0  0  0  0  0  0  0  0
  148.4708  136.3717  154.8935 H   0  0  0  0  0  0  0  0  0  0  0  0
  1  2  1  0  0  0  0
  1 22  1  0  0  0  0
  1 23  1  0  0  0  0
  1 24  1  0  0  0  0
  2  3  1  0  0  0  0
  2  4  1  0  0  0  0
  2  5  1  0  0  0  0
  3 25  1  0  0  0  0
  3 26  1  0  0  0  0
  3 27  1  0  0  0  0
  4 28  1  0  0  0  0
  4 29  1  0  0  0  0
  4 30  1  0  0  0  0
  5 19  1  0  0  0  0
  5  6  1  0  0  0  0
  6  7  2  0  0  0  0
  6 31  1  0  0  0  0
  7  8  1  0  0  0  0
  7 16  1  0  0  0  0
  8  9  1  0  0  0  0
  8 32  1  0  0  0  0
  8 33  1  0  0  0  0
  9 10  1  0  0  0  0
  9 34  1  0  0  0  0
  9 44  1  0  0  0  0
 10 11  1  0  0  0  0
 10 35  1  0  0  0  0
 10 36  1  0  0  0  0
 11 15  1  0  0  0  0
 11 12  1  0  0  0  0
 11 13  1  0  0  0  0
 12 37  1  0  0  0  0
 13 14  1  0  0  0  0
 13 38  1  0  0  0  0
 13 39  1  0  0  0  0
 14 15  1  0  0  0  0
 14 40  1  0  0  0  0
 14 41  1  0  0  0  0
 15 42  1  0  0  0  0
 15 43  1  0  0  0  0
 16 17  2  0  0  0  0
 16 18  1  0  0  0  0
 18 21  1  0  0  0  0
 18 19  1  0  0  0  0
 19 20  2  0  0  0  0
M  CHG  1   9   1
M  END
> <s_m_source_file>
AV-unprocessed.smi

> <i_m_source_file_index>
4

> <i_lp_mmshare_version>
43012

> <i_f3d_flags>
0

> <s_epik_input>
W0NIM11DKFtDSDNdKShbQ0gzXSluMVtjSF1jKGMoPU8pW25IXWMxPU8pW0NIMl1bTkhdW0NIMl1DMihbT0hdKVtDSDJdW0NIMl1bQ0gyXTI=

> <s_epik_cmdline>
J2VwaWtfcHl0aG9uJywgJy1waCcsICc3LjAnLCAnLXRuJywgJzgnLCAnLW1hJywgJzIwMCcsICctbWV0YWxfYmluZGluZycsICctaW1hZScsICc8aW5maWxlLm1hZT4nLCAnLW9tYWUnLCAnPG91dGZpbGUubWFlPic=

> <r_lp_tautomer_probability>
0.999537

> <r_epik_Ionization_Penalty>
0.0188443

> <r_epik_Ionization_Penalty_Charging>
0.0188443

> <r_epik_Ionization_Penalty_Neutral>
1.97485e-08

> <r_epik_State_Penalty>
0.0134361

> <r_epik_Charging_Adjusted_Penalty>
0.0322804

> <i_epik_Tot_Q>
1

> <i_epik_Tot_abs_Q>
1

> <r_epik_Metal_State_Penalty>
0.855907

> <b_epik_Metal_Only>
0

> <s_lp_Force_Field>
OPLS_2005

> <r_lp_Energy>
23.9463

> <b_lp_Chiralities_Consistent>
1

> <s_lp_Variant>
AV-unprocessed.smi:4-1

> <Gold.Version>
5.8.1

> <Gold.Id.Protein>
6NUR|6NUR_protein|mol2

> <Gold.PLP.Fitness>
40.9536

> <Gold.PLP.PLP>
-33.9708

> <Gold.PLP.part.hbond>
-4.4468

> <Gold.PLP.part.metal>
0.0000

> <Gold.PLP.part.buried>
-1.7762

> <Gold.PLP.part.nonpolar>
-27.0123

> <Gold.PLP.part.repulsive>
0.2305

> <Gold.PLP.ligand.clash>
0.0000

> <Gold.PLP.ligand.torsion>
1.4562

> <Gold.PLP.Chemscore.Hbond>
3.2475

> <Gold.PLP.Chemscore.CHOScore>
0.0000

> <Gold.PLP.Chemscore.Metal>
0.0000

> <Gold.Chemscore.Hbonds>
donor molecule, donor type, donor heavy atom, donor atom, acceptor molecule, acceptor atom, score
      L1  H     9    34       P1  7948  2.00
      L1  H    12    37       P1  7948  1.00
      L1  H    18    21       P1 10747  0.46

> <Gold.PLP.Chemscore.Internal.Correction>
0.1527

> <Gold.Rescore>
     Score         DG    S(hbond)    S(metal)    S(lipo)     H(rot)  DE(clash)    DE(int)     intcor
     10.72     -14.64       2.52        0.00      61.83       2.53       0.30       3.63       ----

> <Gold.Chemscore.Fitness>
10.7181

> <Gold.Chemscore.DG>
-14.6433

> <Gold.Chemscore.ZeroCoef>
-5.4800

> <Gold.Chemscore.Hbond>
2.5166

> <Gold.Chemscore.Metal>
0.0000

> <Gold.Chemscore.Lipo>
61.8333

> <Gold.Chemscore.Internal_Hbond>
0.0000

> <Gold.Chemscore.DEClash>
0.2985

> <Gold.Chemscore.DEInternal>
3.6267

> <Gold.Chemscore.Rot>
2.5300

> <Gold.Chemscore.Internal.Correction>
   9.000000E+99

> <Gold.Chemscore.Hbonds>
donor molecule, donor type, donor heavy atom, donor atom, acceptor molecule, acceptor atom, score
      L1  H     9    34       P1  7948  0.74
      L1  H    12    37       P1  7948  0.37
      L1  H    18    21       P1 10747  0.43

> <Gold.Chemscore.Hbond.Weighted>
-8.4055

> <Gold.Chemscore.Metal.Weighted>
-0.0000

> <Gold.Chemscore.Lipo.Weighted>
-7.2345

> <Gold.Chemscore.Internal_Hbond.Weighted>
0.0000

> <Gold.Chemscore.DEClash.Weighted>
0.2985

> <Gold.Chemscore.DEInternal.Weighted>
3.6267

> <Gold.Chemscore.Rot.Weighted>
6.4768

> <Gold.Chemscore.Internal.Correction.Weighted>
   9.000000E+99

> <Gold.Protein.RotatedTorsions>
[ 6907 6896 6895 6894 ] final  -47.29 input  -60.11 | X-H torsion
[ 7974 7965 7964 7962 ] final  110.58 input  175.53 | X-H torsion
[ 8008 7997 7996 7995 ] final  -64.54 input   59.86 | X-H torsion
[ 10167 10162 10161 10158 ] final   56.29 input  -65.29 | X-H torsion
[ 10718 10713 10712 10709 ] final  -29.08 input   66.30 | X-H torsion
[ 10763 10752 10751 10750 ] final   -7.69 input  -60.55 | X-H torsion
[ 11005 11000 10999 10996 ] final -140.93 input  -57.11 | X-H torsion

> <Gold.Protein.ActiveResidues>
 VAL166  LYS551  ARG553  GLY616  TRP617  ASP618  TYR619  PRO620  LYS621  CYS622 
 ASP623  PHE694  ASN695  SER759  ASP760  ASP761  ALA762  ILE779  LEU786  VAL792 
 PHE793  MET794  SER795  GLU796  ALA797  LYS798  CYS799  TRP800  GLU811  SER814 

> <Gold.Protein.RotatedAtoms>
  150.9023  134.8436  159.7368 H   0  0  0  0  0  0  0  0  0  0  0  0  # atno 6907 bound_to 6896
  152.4899  134.4484  159.9576 H   0  0  0  0  0  0  0  0  0  0  0  0  # atno 6908 bound_to 6896
  151.4534  133.3572  159.2834 H   0  0  0  0  0  0  0  0  0  0  0  0  # atno 6909 bound_to 6896
  145.2531  139.2732  143.4056 H   0  0  0  0  0  0  0  0  0  0  0  0  # atno 7974 bound_to 7965
  154.4617  140.0952  156.6912 H   0  0  0  0  0  0  0  0  0  0  0  0  # atno 8008 bound_to 7997
  155.4974  140.3472  155.4347 H   0  0  0  0  0  0  0  0  0  0  0  0  # atno 8009 bound_to 7997
  156.0883  140.1390  156.9613 H   0  0  0  0  0  0  0  0  0  0  0  0  # atno 8010 bound_to 7997
  140.2103  144.3896  150.6492 H   0  0  0  0  0  0  0  0  0  0  0  0  # atno 10167 bound_to 10162
  156.4170  130.4419  149.7211 H   0  0  0  0  0  0  0  0  0  0  0  0  # atno 10718 bound_to 10713
  153.4299  135.7012  153.6237 H   0  0  0  0  0  0  0  0  0  0  0  0  # atno 10763 bound_to 10752
  153.4656  135.3726  155.2363 H   0  0  0  0  0  0  0  0  0  0  0  0  # atno 10764 bound_to 10752
  154.8725  135.4030  154.3681 H   0  0  0  0  0  0  0  0  0  0  0  0  # atno 10765 bound_to 10752
  140.8374  134.2443  157.4827 H   0  0  0  0  0  0  0  0  0  0  0  0  # atno 11005 bound_to 11000
  146.3297  140.2927  142.8616 LP  0  0  0  0  0  0  0  0  0  0  0  0  # atno 17320 bound_to 7965
  144.9485  140.8153  143.5586 LP  0  0  0  0  0  0  0  0  0  0  0  0  # atno 17321 bound_to 7965
  140.6328  143.2190  151.6459 LP  0  0  0  0  0  0  0  0  0  0  0  0  # atno 17342 bound_to 10162
  139.5182  144.3290  152.0843 LP  0  0  0  0  0  0  0  0  0  0  0  0  # atno 17343 bound_to 10162
  156.4167  130.7749  151.2764 LP  0  0  0  0  0  0  0  0  0  0  0  0  # atno 17370 bound_to 10713
  157.7508  131.0195  150.3670 LP  0  0  0  0  0  0  0  0  0  0  0  0  # atno 17371 bound_to 10713
  139.8704  134.9618  156.4408 LP  0  0  0  0  0  0  0  0  0  0  0  0  # atno 17394 bound_to 11000
  140.8932  133.7833  155.9595 LP  0  0  0  0  0  0  0  0  0  0  0  0  # atno 17395 bound_to 11000

$$$$
