AV-unprocessed.smi:701|AV-procd|sdf|3410|dock10
  -GOLD-   22720 0393D 1   1.00000     0.00000
 Structure written by MMmdl.
 49 51  0  0  0  0  0  0  0  0  1 V2000
  153.9895  141.6520  160.2942 C   0  0  0  0  0  0  0  0  0  0  0  0
  152.5494  142.1551  160.4134 C   0  0  0  0  0  0  0  0  0  0  0  0
  151.7154  141.3435  159.6044 O   0  0  0  0  0  0  0  0  0  0  0  0
  151.9431  141.5212  158.2163 C   0  0  2  0  0  0  0  0  0  0  0  0
  151.1845  142.7045  157.6083 C   0  0  0  0  0  0  0  0  0  0  0  0
  151.0067  141.8146  156.3794 C   0  0  2  0  0  0  0  0  0  0  0  0
  149.7072  141.9903  155.7407 N   0  0  0  0  0  0  0  0  0  0  0  0
  149.2050  141.1659  154.8102 C   0  0  0  0  0  0  0  0  0  0  0  0
  149.7946  140.1601  154.4129 O   0  0  0  0  0  0  0  0  0  0  0  0
  147.8139  141.5186  154.2669 C   0  0  0  0  0  0  0  0  0  0  0  0
  146.9001  140.3674  154.2721 N   0  0  0  0  0  0  0  0  0  0  0  0
  147.0570  139.3408  153.3516 C   0  0  0  0  0  0  0  0  0  0  0  0
  146.2414  138.2612  153.2928 C   0  0  0  0  0  0  0  0  0  0  0  0
  145.1265  138.1259  154.2241 C   0  0  0  0  0  0  0  0  0  0  0  0
  144.3347  137.1864  154.2513 O   0  0  0  0  0  0  0  0  0  0  0  0
  145.0010  139.1796  155.1332 N   0  0  0  0  0  0  0  0  0  0  0  0
  145.8364  140.2957  155.1980 C   0  0  0  0  0  0  0  0  0  0  0  0
  145.6334  141.1719  156.0377 O   0  0  0  0  0  0  0  0  0  0  0  0
  151.1206  140.5705  157.3035 C   0  0  0  0  0  0  0  0  0  0  0  0
  149.7955  140.0091  157.8825 C   0  0  0  0  0  0  0  0  0  0  0  0
  149.9900  138.8491  158.8780 C   0  0  0  0  0  0  0  0  0  0  0  0
  150.8309  137.7198  158.2716 C   0  0  0  0  0  0  0  0  0  0  0  0
  152.1490  138.2576  157.7029 C   0  0  0  0  0  0  0  0  0  0  0  0
  151.8916  139.3881  156.6950 C   0  0  0  0  0  0  0  0  0  0  0  0
  144.2417  139.1308  155.7969 H   0  0  0  0  0  0  0  0  0  0  0  0
  154.6643  142.2535  160.9035 H   0  0  0  0  0  0  0  0  0  0  0  0
  154.3368  141.7006  159.2619 H   0  0  0  0  0  0  0  0  0  0  0  0
  154.0702  140.6168  160.6269 H   0  0  0  0  0  0  0  0  0  0  0  0
  152.2272  142.1138  161.4547 H   0  0  0  0  0  0  0  0  0  0  0  0
  152.4895  143.1952  160.0897 H   0  0  0  0  0  0  0  0  0  0  0  0
  153.0044  141.5245  157.9559 H   0  0  0  0  0  0  0  0  0  0  0  0
  150.2536  142.9351  158.1295 H   0  0  0  0  0  0  0  0  0  0  0  0
  151.7889  143.5965  157.4428 H   0  0  0  0  0  0  0  0  0  0  0  0
  151.8539  141.9119  155.6957 H   0  0  0  0  0  0  0  0  0  0  0  0
  149.1590  142.7907  156.0205 H   0  0  0  0  0  0  0  0  0  0  0  0
  147.4097  142.3276  154.8770 H   0  0  0  0  0  0  0  0  0  0  0  0
  147.8937  141.9311  153.2588 H   0  0  0  0  0  0  0  0  0  0  0  0
  147.8669  139.4012  152.6385 H   0  0  0  0  0  0  0  0  0  0  0  0
  146.4133  137.4942  152.5515 H   0  0  0  0  0  0  0  0  0  0  0  0
  149.2227  140.7961  158.3733 H   0  0  0  0  0  0  0  0  0  0  0  0
  149.1615  139.6513  157.0703 H   0  0  0  0  0  0  0  0  0  0  0  0
  150.4697  139.2072  159.7882 H   0  0  0  0  0  0  0  0  0  0  0  0
  149.0189  138.4604  159.1849 H   0  0  0  0  0  0  0  0  0  0  0  0
  151.0301  136.9556  159.0234 H   0  0  0  0  0  0  0  0  0  0  0  0
  150.2650  137.2327  157.4764 H   0  0  0  0  0  0  0  0  0  0  0  0
  152.7783  138.6256  158.5143 H   0  0  0  0  0  0  0  0  0  0  0  0
  152.7019  137.4496  157.2232 H   0  0  0  0  0  0  0  0  0  0  0  0
  151.3429  138.9877  155.8415 H   0  0  0  0  0  0  0  0  0  0  0  0
  152.8475  139.7260  156.2933 H   0  0  0  0  0  0  0  0  0  0  0  0
  1  2  1  0  0  0  0
  1 26  1  0  0  0  0
  1 27  1  0  0  0  0
  1 28  1  0  0  0  0
  2  3  1  0  0  0  0
  2 29  1  0  0  0  0
  2 30  1  0  0  0  0
  3  4  1  0  0  0  0
  4 19  1  0  0  0  0
  4  5  1  0  0  0  0
  4 31  1  0  0  0  0
  5  6  1  0  0  0  0
  5 32  1  0  0  0  0
  5 33  1  0  0  0  0
  6  7  1  0  0  0  0
  6 19  1  0  0  0  0
  6 34  1  0  0  0  0
  7  8  1  0  0  0  0
  7 35  1  0  0  0  0
  8  9  2  0  0  0  0
  8 10  1  0  0  0  0
 10 11  1  0  0  0  0
 10 36  1  0  0  0  0
 10 37  1  0  0  0  0
 11 17  1  0  0  0  0
 11 12  1  0  0  0  0
 12 13  2  0  0  0  0
 12 38  1  0  0  0  0
 13 14  1  0  0  0  0
 13 39  1  0  0  0  0
 14 15  2  0  0  0  0
 14 16  1  0  0  0  0
 16 25  1  0  0  0  0
 16 17  1  0  0  0  0
 17 18  2  0  0  0  0
 19 24  1  0  0  0  0
 19 20  1  0  0  0  0
 20 21  1  0  0  0  0
 20 40  1  0  0  0  0
 20 41  1  0  0  0  0
 21 22  1  0  0  0  0
 21 42  1  0  0  0  0
 21 43  1  0  0  0  0
 22 23  1  0  0  0  0
 22 44  1  0  0  0  0
 22 45  1  0  0  0  0
 23 24  1  0  0  0  0
 23 46  1  0  0  0  0
 23 47  1  0  0  0  0
 24 48  1  0  0  0  0
 24 49  1  0  0  0  0
M  END
> <s_m_source_file>
AV-unprocessed.smi

> <i_m_source_file_index>
701

> <i_lp_mmshare_version>
43012

> <i_f3d_flags>
0

> <s_epik_input>
W0NIMl0xW0NIMl1bQ0gyXVtDSDJdW0NIMl1DMTJbQ0BIXShPW0NIMl1bQ0gzXSlbQ0gyXVtDQEhdMltOSF1DKD1PKVtDSDJdbjNbY0hdW2NIXWMoPU8pW25IXWMzPU8=

> <s_epik_cmdline>
J2VwaWtfcHl0aG9uJywgJy1waCcsICc3LjAnLCAnLXRuJywgJzgnLCAnLW1hJywgJzIwMCcsICctbWV0YWxfYmluZGluZycsICctaW1hZScsICc8aW5maWxlLm1hZT4nLCAnLW9tYWUnLCAnPG91dGZpbGUubWFlPic=

> <r_lp_tautomer_probability>
0.999537

> <r_epik_Ionization_Penalty>
0.00304597

> <r_epik_Ionization_Penalty_Charging>
0.00304595

> <r_epik_Ionization_Penalty_Neutral>
1.88422e-08

> <r_epik_State_Penalty>
0.00214084

> <r_epik_Charging_Adjusted_Penalty>
0.00518679

> <i_epik_Tot_Q>
0

> <i_epik_Tot_abs_Q>
0

> <r_epik_Metal_State_Penalty>
0.361872

> <b_epik_Metal_Only>
0

> <s_lp_Force_Field>
OPLS_2005

> <r_lp_Energy>
27.3359

> <b_lp_Chiralities_Consistent>
1

> <s_lp_Variant>
AV-unprocessed.smi:701-3

> <Gold.Version>
5.8.1

> <Gold.Id.Protein>
6NUR|6NUR_protein|mol2

> <Gold.PLP.Fitness>
45.5892

> <Gold.PLP.PLP>
-38.4119

> <Gold.PLP.part.hbond>
-2.8278

> <Gold.PLP.part.metal>
0.0000

> <Gold.PLP.part.buried>
-5.9451

> <Gold.PLP.part.nonpolar>
-31.1537

> <Gold.PLP.part.repulsive>
0.8518

> <Gold.PLP.ligand.clash>
0.0000

> <Gold.PLP.ligand.torsion>
0.5217

> <Gold.PLP.Chemscore.Hbond>
1.6320

> <Gold.PLP.Chemscore.CHOScore>
1.0000

> <Gold.PLP.Chemscore.Metal>
0.0000

> <Gold.Chemscore.Hbonds>
donor molecule, donor type, donor heavy atom, donor atom, acceptor molecule, acceptor atom, score
      L1  H     7    35       P1  8028  0.86
      P1  H  7989  7998       L1     9  0.62
      L1  C    12    38       P1  7957  1.00

> <Gold.PLP.Chemscore.Internal.Correction>
0.3246

> <Gold.Rescore>
     Score         DG    S(hbond)    S(metal)    S(lipo)     H(rot)  DE(clash)    DE(int)     intcor
     15.49     -16.18       1.62        0.00      90.87       2.09       0.19       0.51       ----

> <Gold.Chemscore.Fitness>
15.4878

> <Gold.Chemscore.DG>
-16.1786

> <Gold.Chemscore.ZeroCoef>
-5.4800

> <Gold.Chemscore.Hbond>
1.6245

> <Gold.Chemscore.Metal>
0.0000

> <Gold.Chemscore.Lipo>
90.8683

> <Gold.Chemscore.Internal_Hbond>
0.0000

> <Gold.Chemscore.DEClash>
0.1851

> <Gold.Chemscore.DEInternal>
0.5057

> <Gold.Chemscore.Rot>
2.0933

> <Gold.Chemscore.Internal.Correction>
   9.000000E+99

> <Gold.Chemscore.Hbonds>
donor molecule, donor type, donor heavy atom, donor atom, acceptor molecule, acceptor atom, score
      L1  H     7    35       P1  8028  0.83
      P1  H  7989  7998       L1     9  0.33

> <Gold.Chemscore.Hbond.Weighted>
-5.4258

> <Gold.Chemscore.Metal.Weighted>
-0.0000

> <Gold.Chemscore.Lipo.Weighted>
-10.6316

> <Gold.Chemscore.Internal_Hbond.Weighted>
0.0000

> <Gold.Chemscore.DEClash.Weighted>
0.1851

> <Gold.Chemscore.DEInternal.Weighted>
0.5057

> <Gold.Chemscore.Rot.Weighted>
5.3588

> <Gold.Chemscore.Internal.Correction.Weighted>
   9.000000E+99

> <Gold.Protein.RotatedTorsions>
[ 6907 6896 6895 6894 ] final  130.89 input  -60.11 | X-H torsion
[ 7974 7965 7964 7962 ] final  164.92 input  175.53 | X-H torsion
[ 8008 7997 7996 7995 ] final  104.07 input   59.86 | X-H torsion
[ 10167 10162 10161 10158 ] final   91.92 input  -65.29 | X-H torsion
[ 10718 10713 10712 10709 ] final  -46.78 input   66.30 | X-H torsion
[ 10763 10752 10751 10750 ] final  108.04 input  -60.55 | X-H torsion
[ 11005 11000 10999 10996 ] final   62.86 input  -57.11 | X-H torsion

> <Gold.Protein.ActiveResidues>
 VAL166  LYS551  ARG553  GLY616  TRP617  ASP618  TYR619  PRO620  LYS621  CYS622 
 ASP623  PHE694  ASN695  SER759  ASP760  ASP761  ALA762  ILE779  LEU786  VAL792 
 PHE793  MET794  SER795  GLU796  ALA797  LYS798  CYS799  TRP800  GLU811  SER814 

> <Gold.Protein.RotatedAtoms>
  152.3481  133.6146  159.5924 H   0  0  0  0  0  0  0  0  0  0  0  0  # atno 6907 bound_to 6896
  150.7520  133.9617  159.3526 H   0  0  0  0  0  0  0  0  0  0  0  0  # atno 6908 bound_to 6896
  151.7473  135.0841  160.0376 H   0  0  0  0  0  0  0  0  0  0  0  0  # atno 6909 bound_to 6896
  144.7524  139.8396  143.6361 H   0  0  0  0  0  0  0  0  0  0  0  0  # atno 7974 bound_to 7965
  156.1541  140.3154  155.8696 H   0  0  0  0  0  0  0  0  0  0  0  0  # atno 8008 bound_to 7997
  155.3914  140.0494  157.3057 H   0  0  0  0  0  0  0  0  0  0  0  0  # atno 8009 bound_to 7997
  154.5085  140.2156  155.9215 H   0  0  0  0  0  0  0  0  0  0  0  0  # atno 8010 bound_to 7997
  139.8327  144.6679  150.9380 H   0  0  0  0  0  0  0  0  0  0  0  0  # atno 10167 bound_to 10162
  156.2149  130.4162  149.9067 H   0  0  0  0  0  0  0  0  0  0  0  0  # atno 10718 bound_to 10713
  153.4151  135.3825  155.2075 H   0  0  0  0  0  0  0  0  0  0  0  0  # atno 10763 bound_to 10752
  154.8740  135.3803  154.4453 H   0  0  0  0  0  0  0  0  0  0  0  0  # atno 10764 bound_to 10752
  153.4966  135.7088  153.5917 H   0  0  0  0  0  0  0  0  0  0  0  0  # atno 10765 bound_to 10752
  140.0063  134.6364  155.9850 H   0  0  0  0  0  0  0  0  0  0  0  0  # atno 11005 bound_to 11000
  146.1492  139.4570  143.0059 LP  0  0  0  0  0  0  0  0  0  0  0  0  # atno 17320 bound_to 7965
  145.6896  141.0168  143.1562 LP  0  0  0  0  0  0  0  0  0  0  0  0  # atno 17321 bound_to 7965
  140.7805  143.3986  151.1188 LP  0  0  0  0  0  0  0  0  0  0  0  0  # atno 17342 bound_to 10162
  139.7638  143.8595  152.3106 LP  0  0  0  0  0  0  0  0  0  0  0  0  # atno 17343 bound_to 10162
  156.6733  130.8829  151.3565 LP  0  0  0  0  0  0  0  0  0  0  0  0  # atno 17370 bound_to 10713
  157.7058  130.9383  150.0925 LP  0  0  0  0  0  0  0  0  0  0  0  0  # atno 17371 bound_to 10713
  141.1679  133.6537  156.4546 LP  0  0  0  0  0  0  0  0  0  0  0  0  # atno 17394 bound_to 11000
  140.4635  134.6819  157.5096 LP  0  0  0  0  0  0  0  0  0  0  0  0  # atno 17395 bound_to 11000

$$$$
