AV-unprocessed.smi:1101|AV-procd|sdf|4765|dock5
  -GOLD-   22720 3303D 1   1.00000     0.00000
 Structure written by MMmdl.
 41 42  0  0  0  0  0  0  0  0  1 V2000
  154.4486  139.2574  159.7200 C   0  0  0  0  0  0  0  0  0  0  0  0
  154.6046  140.4129  160.7165 C   0  0  0  0  0  0  0  0  0  0  0  0
  153.4007  141.3681  160.7201 C   0  0  2  0  0  0  0  0  0  0  0  0
  153.2704  142.1415  159.3914 C   0  0  0  0  0  0  0  0  0  0  0  0
  152.1223  143.0539  159.4991 N   0  0  0  0  0  0  0  0  0  0  0  0
  150.9302  142.9369  158.8631 C   0  0  0  0  0  0  0  0  0  0  0  0
  149.9507  143.6360  159.1263 O   0  0  0  0  0  0  0  0  0  0  0  0
  150.9063  142.0160  157.8878 N   0  0  0  0  0  0  0  0  0  0  0  0
  149.7641  141.7368  157.0269 C   0  0  0  0  0  0  0  0  0  0  0  0
  150.2174  141.2227  155.6507 C   0  0  0  0  0  0  0  0  0  0  0  0
  149.0582  140.8434  154.7668 C   0  0  0  0  0  0  0  0  0  0  0  0
  148.0247  141.6883  154.2709 C   0  0  0  0  0  0  0  0  0  0  0  0
  147.1587  141.0463  153.5040 N   0  0  0  0  0  0  0  0  0  0  0  0
  147.6060  139.7741  153.4846 N   0  0  0  0  0  0  0  0  0  0  0  0
  146.8841  138.7762  152.7245 C   0  0  0  0  0  0  0  0  0  0  0  0
  148.7489  139.6211  154.2394 C   0  0  0  0  0  0  0  0  0  0  0  0
  152.3473  144.0185  160.5778 C   0  0  0  0  0  0  0  0  0  0  0  0
  152.4961  143.2396  161.8961 C   0  0  0  0  0  0  0  0  0  0  0  0
  153.5701  142.3088  161.7814 O   0  0  0  0  0  0  0  0  0  0  0  0
  155.3244  138.6086  159.7390 H   0  0  0  0  0  0  0  0  0  0  0  0
  154.3311  139.6282  158.7016 H   0  0  0  0  0  0  0  0  0  0  0  0
  153.5781  138.6452  159.9566 H   0  0  0  0  0  0  0  0  0  0  0  0
  154.7593  140.0119  161.7187 H   0  0  0  0  0  0  0  0  0  0  0  0
  155.5079  140.9702  160.4660 H   0  0  0  0  0  0  0  0  0  0  0  0
  152.4907  140.7903  160.8935 H   0  0  0  0  0  0  0  0  0  0  0  0
  154.1736  142.7246  159.2054 H   0  0  0  0  0  0  0  0  0  0  0  0
  153.2002  141.4399  158.5600 H   0  0  0  0  0  0  0  0  0  0  0  0
  151.7480  141.4859  157.7153 H   0  0  0  0  0  0  0  0  0  0  0  0
  149.1123  141.0041  157.5050 H   0  0  0  0  0  0  0  0  0  0  0  0
  149.1817  142.6514  156.9040 H   0  0  0  0  0  0  0  0  0  0  0  0
  150.8244  141.9914  155.1709 H   0  0  0  0  0  0  0  0  0  0  0  0
  150.8842  140.3718  155.7931 H   0  0  0  0  0  0  0  0  0  0  0  0
  147.8832  142.7454  154.4415 H   0  0  0  0  0  0  0  0  0  0  0  0
  147.4150  137.8242  152.7574 H   0  0  0  0  0  0  0  0  0  0  0  0
  146.7944  139.0959  151.6858 H   0  0  0  0  0  0  0  0  0  0  0  0
  145.8874  138.6418  153.1463 H   0  0  0  0  0  0  0  0  0  0  0  0
  149.2460  138.6669  154.3345 H   0  0  0  0  0  0  0  0  0  0  0  0
  153.2547  144.5881  160.3723 H   0  0  0  0  0  0  0  0  0  0  0  0
  151.5450  144.7524  160.6656 H   0  0  0  0  0  0  0  0  0  0  0  0
  152.7076  143.9239  162.7180 H   0  0  0  0  0  0  0  0  0  0  0  0
  151.5725  142.7146  162.1453 H   0  0  0  0  0  0  0  0  0  0  0  0
  1  2  1  0  0  0  0
  1 20  1  0  0  0  0
  1 21  1  0  0  0  0
  1 22  1  0  0  0  0
  2  3  1  0  0  0  0
  2 23  1  0  0  0  0
  2 24  1  0  0  0  0
  3 19  1  0  0  0  0
  3  4  1  0  0  0  0
  3 25  1  0  0  0  0
  4  5  1  0  0  0  0
  4 26  1  0  0  0  0
  4 27  1  0  0  0  0
  5  6  1  0  0  0  0
  5 17  1  0  0  0  0
  6  7  2  0  0  0  0
  6  8  1  0  0  0  0
  8  9  1  0  0  0  0
  8 28  1  0  0  0  0
  9 10  1  0  0  0  0
  9 29  1  0  0  0  0
  9 30  1  0  0  0  0
 10 11  1  0  0  0  0
 10 31  1  0  0  0  0
 10 32  1  0  0  0  0
 11 16  2  0  0  0  0
 11 12  1  0  0  0  0
 12 13  2  0  0  0  0
 12 33  1  0  0  0  0
 13 14  1  0  0  0  0
 14 15  1  0  0  0  0
 14 16  1  0  0  0  0
 15 34  1  0  0  0  0
 15 35  1  0  0  0  0
 15 36  1  0  0  0  0
 16 37  1  0  0  0  0
 17 18  1  0  0  0  0
 17 38  1  0  0  0  0
 17 39  1  0  0  0  0
 18 19  1  0  0  0  0
 18 40  1  0  0  0  0
 18 41  1  0  0  0  0
M  END
> <s_m_source_file>
AV-unprocessed.smi

> <i_m_source_file_index>
1101

> <i_lp_mmshare_version>
43012

> <i_f3d_flags>
0

> <s_epik_input>
W0NIM11bQ0gyXVtDQEBIXTFbQ0gyXU4oW0NIMl1bQ0gyXU8xKUMoPU8pW05IXVtDSDJdW0NIMl1jMltjSF1ubihbQ0gzXSlbY0hdMg==

> <s_epik_cmdline>
J2VwaWtfcHl0aG9uJywgJy1waCcsICc3LjAnLCAnLXRuJywgJzgnLCAnLW1hJywgJzIwMCcsICctbWV0YWxfYmluZGluZycsICctaW1hZScsICc8aW5maWxlLm1hZT4nLCAnLW9tYWUnLCAnPG91dGZpbGUubWFlPic=

> <r_lp_tautomer_probability>
1

> <r_epik_Ionization_Penalty>
0.000536373

> <r_epik_Ionization_Penalty_Charging>
0

> <r_epik_Ionization_Penalty_Neutral>
0.000536373

> <r_epik_State_Penalty>
-0

> <r_epik_Charging_Adjusted_Penalty>
0

> <i_epik_Tot_Q>
0

> <i_epik_Tot_abs_Q>
0

> <r_epik_Metal_State_Penalty>
-0

> <b_epik_Metal_Only>
0

> <s_lp_Force_Field>
OPLS_2005

> <r_lp_Energy>
25.5817

> <b_lp_Chiralities_Consistent>
1

> <s_lp_Variant>
AV-unprocessed.smi:1101-1

> <Gold.Version>
5.8.1

> <Gold.Id.Protein>
6NUR|6NUR_protein|mol2

> <Gold.PLP.Fitness>
44.5510

> <Gold.PLP.PLP>
-41.9659

> <Gold.PLP.part.hbond>
-0.0046

> <Gold.PLP.part.metal>
0.0000

> <Gold.PLP.part.buried>
-3.7821

> <Gold.PLP.part.nonpolar>
-38.5453

> <Gold.PLP.part.repulsive>
0.3831

> <Gold.PLP.ligand.clash>
0.0000

> <Gold.PLP.ligand.torsion>
0.2438

> <Gold.PLP.Chemscore.Hbond>
0.0000

> <Gold.PLP.Chemscore.CHOScore>
1.0000

> <Gold.PLP.Chemscore.Metal>
0.0000

> <Gold.Chemscore.Hbonds>
donor molecule, donor type, donor heavy atom, donor atom, acceptor molecule, acceptor atom, score
      L1  C    12    33       P1  8028  1.00

> <Gold.PLP.Chemscore.Internal.Correction>
0.0728

> <Gold.Rescore>
     Score         DG    S(hbond)    S(metal)    S(lipo)     H(rot)  DE(clash)    DE(int)     intcor
     13.49     -13.84       0.00        0.00     104.39       1.51       0.12       0.22       ----

> <Gold.Chemscore.Fitness>
13.4944

> <Gold.Chemscore.DG>
-13.8382

> <Gold.Chemscore.ZeroCoef>
-5.4800

> <Gold.Chemscore.Hbond>
0.0000

> <Gold.Chemscore.Metal>
0.0000

> <Gold.Chemscore.Lipo>
104.3939

> <Gold.Chemscore.Internal_Hbond>
0.0000

> <Gold.Chemscore.DEClash>
0.1215

> <Gold.Chemscore.DEInternal>
0.2223

> <Gold.Chemscore.Rot>
1.5062

> <Gold.Chemscore.Internal.Correction>
   9.000000E+99

> <Gold.Chemscore.Hbond.Weighted>
-0.0000

> <Gold.Chemscore.Metal.Weighted>
-0.0000

> <Gold.Chemscore.Lipo.Weighted>
-12.2141

> <Gold.Chemscore.Internal_Hbond.Weighted>
0.0000

> <Gold.Chemscore.DEClash.Weighted>
0.1215

> <Gold.Chemscore.DEInternal.Weighted>
0.2223

> <Gold.Chemscore.Rot.Weighted>
3.8558

> <Gold.Chemscore.Internal.Correction.Weighted>
   9.000000E+99

> <Gold.Protein.RotatedTorsions>
[ 6907 6896 6895 6894 ] final  109.90 input  -60.11 | X-H torsion
[ 7974 7965 7964 7962 ] final  123.79 input  175.53 | X-H torsion
[ 8008 7997 7996 7995 ] final    4.67 input   59.86 | X-H torsion
[ 10167 10162 10161 10158 ] final   15.14 input  -65.29 | X-H torsion
[ 10718 10713 10712 10709 ] final  -77.77 input   66.30 | X-H torsion
[ 10763 10752 10751 10750 ] final -147.78 input  -60.55 | X-H torsion
[ 11005 11000 10999 10996 ] final -171.53 input  -57.11 | X-H torsion

> <Gold.Protein.ActiveResidues>
 VAL166  LYS551  ARG553  GLY616  TRP617  ASP618  TYR619  PRO620  LYS621  CYS622 
 ASP623  PHE694  ASN695  SER759  ASP760  ASP761  ALA762  ILE779  LEU786  VAL792 
 PHE793  MET794  SER795  GLU796  ALA797  LYS798  CYS799  TRP800  GLU811  SER814 

> <Gold.Protein.RotatedAtoms>
  152.5046  133.8878  159.7378 H   0  0  0  0  0  0  0  0  0  0  0  0  # atno 6907 bound_to 6896
  150.9324  133.6742  159.2814 H   0  0  0  0  0  0  0  0  0  0  0  0  # atno 6908 bound_to 6896
  151.4082  135.0986  159.9629 H   0  0  0  0  0  0  0  0  0  0  0  0  # atno 6909 bound_to 6896
  145.0919  139.3580  143.4856 H   0  0  0  0  0  0  0  0  0  0  0  0  # atno 7974 bound_to 7965
  154.7188  140.2707  155.6560 H   0  0  0  0  0  0  0  0  0  0  0  0  # atno 8008 bound_to 7997
  156.2817  140.2738  156.1778 H   0  0  0  0  0  0  0  0  0  0  0  0  # atno 8009 bound_to 7997
  155.0535  140.0371  157.2542 H   0  0  0  0  0  0  0  0  0  0  0  0  # atno 8010 bound_to 7997
  140.5887  143.8837  150.6854 H   0  0  0  0  0  0  0  0  0  0  0  0  # atno 10167 bound_to 10162
  156.0135  130.4500  150.3396 H   0  0  0  0  0  0  0  0  0  0  0  0  # atno 10718 bound_to 10713
  154.8268  135.3351  154.6872 H   0  0  0  0  0  0  0  0  0  0  0  0  # atno 10763 bound_to 10752
  153.7497  135.6940  153.4953 H   0  0  0  0  0  0  0  0  0  0  0  0  # atno 10764 bound_to 10752
  153.2185  135.4457  155.0413 H   0  0  0  0  0  0  0  0  0  0  0  0  # atno 10765 bound_to 10752
  140.5072  134.5836  157.5007 H   0  0  0  0  0  0  0  0  0  0  0  0  # atno 11005 bound_to 11000
  146.3531  140.0757  142.8620 LP  0  0  0  0  0  0  0  0  0  0  0  0  # atno 17320 bound_to 7965
  145.1056  140.9373  143.4687 LP  0  0  0  0  0  0  0  0  0  0  0  0  # atno 17321 bound_to 7965
  140.2355  143.3703  152.1530 LP  0  0  0  0  0  0  0  0  0  0  0  0  # atno 17342 bound_to 10162
  139.5214  144.7045  151.5394 LP  0  0  0  0  0  0  0  0  0  0  0  0  # atno 17343 bound_to 10162
  157.1492  131.0316  151.2893 LP  0  0  0  0  0  0  0  0  0  0  0  0  # atno 17370 bound_to 10713
  157.4407  130.7542  149.7067 LP  0  0  0  0  0  0  0  0  0  0  0  0  # atno 17371 bound_to 10713
  139.9679  134.7342  156.0100 LP  0  0  0  0  0  0  0  0  0  0  0  0  # atno 17394 bound_to 11000
  141.1404  133.6566  156.3714 LP  0  0  0  0  0  0  0  0  0  0  0  0  # atno 17395 bound_to 11000

$$$$
