AV-unprocessed.smi:66|AV-procd|sdf|618|dock4
  -GOLD-   2262016513D 1   1.00000     0.00000
 Structure written by MMmdl.
 28 30  0  0  0  0  0  0  0  0  2 V2000
  152.7379  139.5479  155.5925 O   0  0  0  0  0  0  0  0  0  0  0  0
  151.5865  139.9447  155.8748 C   0  0  0  0  0  0  0  0  0  0  0  0
  150.8066  140.5269  155.0881 O   0  5  0  0  0  0  0  0  0  0  0  0
  151.1017  139.6969  157.3109 C   0  0  1  0  0  0  0  0  0  0  0  0
  151.1614  138.2071  157.6880 C   0  0  0  0  0  0  0  0  0  0  0  0
  151.3458  138.2396  159.2018 C   0  0  1  0  0  0  0  0  0  0  0  0
  151.9037  137.0463  159.7099 O   0  0  0  0  0  0  0  0  0  0  0  0
  152.2576  139.4474  159.4132 C   0  0  0  0  0  0  0  0  0  0  0  0
  151.9466  140.3528  158.3143 N   0  0  0  0  0  0  0  0  0  0  0  0
  151.9241  141.6953  158.5276 C   0  0  0  0  0  0  0  0  0  0  0  0
  151.5932  142.5284  157.5049 N   0  0  0  0  0  0  0  0  0  0  0  0
  151.5631  143.8517  157.6870 C   0  0  0  0  0  0  0  0  0  0  0  0
  151.8241  144.5484  158.7948 N   0  0  0  0  0  0  0  0  0  0  0  0
  152.1615  143.7204  159.8218 C   0  0  0  0  0  0  0  0  0  0  0  0
  152.5027  144.0654  161.1119 N   0  0  0  0  0  0  0  0  0  0  0  0
  152.7644  142.8856  161.7631 C   0  0  0  0  0  0  0  0  0  0  0  0
  152.6277  141.8153  161.0280 N   0  0  0  0  0  0  0  0  0  0  0  0
  152.2371  142.2986  159.7809 C   0  0  0  0  0  0  0  0  0  0  0  0
  152.5385  145.0161  161.4496 H   0  0  0  0  0  0  0  0  0  0  0  0
  150.0758  140.0516  157.4215 H   0  0  0  0  0  0  0  0  0  0  0  0
  150.2644  137.6646  157.3881 H   0  0  0  0  0  0  0  0  0  0  0  0
  152.0188  137.7188  157.2203 H   0  0  0  0  0  0  0  0  0  0  0  0
  150.3819  138.4209  159.6796 H   0  0  0  0  0  0  0  0  0  0  0  0
  152.8322  137.0541  159.5338 H   0  0  0  0  0  0  0  0  0  0  0  0
  152.0903  139.8904  160.3958 H   0  0  0  0  0  0  0  0  0  0  0  0
  153.3094  139.1688  159.3372 H   0  0  0  0  0  0  0  0  0  0  0  0
  151.2908  144.4344  156.8195 H   0  0  0  0  0  0  0  0  0  0  0  0
  153.0621  142.8446  162.8006 H   0  0  0  0  0  0  0  0  0  0  0  0
  1  2  2  0  0  0  0
  2  3  1  0  0  0  0
  2  4  1  0  0  0  0
  4  5  1  0  0  0  0
  4 20  1  0  0  0  0
  4  9  1  0  0  0  0
  5  6  1  0  0  0  0
  5 21  1  0  0  0  0
  5 22  1  0  0  0  0
  6  7  1  0  0  0  0
  6  8  1  0  0  0  0
  6 23  1  0  0  0  0
  7 24  1  0  0  0  0
  8 25  1  0  0  0  0
  8 26  1  0  0  0  0
  8  9  1  0  0  0  0
  9 10  1  0  0  0  0
 10 11  1  0  0  0  0
 10 18  2  0  0  0  0
 11 12  2  0  0  0  0
 12 27  1  0  0  0  0
 12 13  1  0  0  0  0
 13 14  2  0  0  0  0
 14 15  1  0  0  0  0
 14 18  1  0  0  0  0
 15 16  1  0  0  0  0
 15 19  1  0  0  0  0
 16 17  2  0  0  0  0
 16 28  1  0  0  0  0
 17 18  1  0  0  0  0
M  CHG  1   3  -1
M  END
> <s_m_source_file>
AV-unprocessed.smi

> <i_m_source_file_index>
66

> <i_lp_mmshare_version>
43012

> <i_f3d_flags>
0

> <s_epik_input>
Tz1DKFtPSF0pW0NAQEhdMVtDSDJdW0NAQEhdKFtPSF0pW0NIMl1OMWMobltjSF1uMiljKGMyMylbbkhdW2NIXW4z

> <s_epik_cmdline>
J2VwaWtfcHl0aG9uJywgJy1waCcsICc3LjAnLCAnLXRuJywgJzgnLCAnLW1hJywgJzIwMCcsICctbWV0YWxfYmluZGluZycsICctaW1hZScsICc8aW5maWxlLm1hZT4nLCAnLW9tYWUnLCAnPG91dGZpbGUubWFlPic=

> <r_lp_tautomer_probability>
0.955585

> <r_epik_Ionization_Penalty>
0.00455415

> <r_epik_Ionization_Penalty_Charging>
0.000248217

> <r_epik_Ionization_Penalty_Neutral>
0.00430593

> <r_epik_State_Penalty>
0.0207074

> <r_epik_Charging_Adjusted_Penalty>
0.0209557

> <i_epik_Tot_Q>
-1

> <i_epik_Tot_abs_Q>
1

> <r_epik_Metal_State_Penalty>
0.337372

> <b_epik_Metal_Only>
0

> <s_lp_Force_Field>
OPLS_2005

> <r_lp_Energy>
25.5493

> <b_lp_Chiralities_Consistent>
1

> <s_lp_Variant>
AV-unprocessed.smi:66-2

> <Gold.Version>
5.8.1

> <Gold.Id.Protein>
6NUR|6NUR_protein|mol2

> <Gold.PLP.Fitness>
47.2979

> <Gold.PLP.PLP>
-32.4478

> <Gold.PLP.part.hbond>
-3.0000

> <Gold.PLP.part.metal>
0.0000

> <Gold.PLP.part.buried>
-4.5839

> <Gold.PLP.part.nonpolar>
-24.2127

> <Gold.PLP.part.repulsive>
0.2461

> <Gold.PLP.ligand.clash>
0.0000

> <Gold.PLP.ligand.torsion>
0.1828

> <Gold.PLP.Chemscore.Hbond>
4.0000

> <Gold.PLP.Chemscore.CHOScore>
1.0000

> <Gold.PLP.Chemscore.Metal>
0.0000

> <Gold.Chemscore.Hbonds>
donor molecule, donor type, donor heavy atom, donor atom, acceptor molecule, acceptor atom, score
      P1  H  6896  6908       L1     7  0.95
      P1  H  7989  7998       L1     3  0.99
      P1  H  7997  8010       L1     1  2.00
      L1  C    12    27       P1  8028  0.70

> <Gold.PLP.Chemscore.Internal.Correction>
0.2158

> <Gold.Rescore>
     Score         DG    S(hbond)    S(metal)    S(lipo)     H(rot)  DE(clash)    DE(int)     intcor
     11.97     -14.12       2.95        0.00      28.67       1.78       0.00       2.14       ----

> <Gold.Chemscore.Fitness>
11.9749

> <Gold.Chemscore.DG>
-14.1190

> <Gold.Chemscore.ZeroCoef>
-5.4800

> <Gold.Chemscore.Hbond>
2.9497

> <Gold.Chemscore.Metal>
0.0000

> <Gold.Chemscore.Lipo>
28.6732

> <Gold.Chemscore.Internal_Hbond>
0.0000

> <Gold.Chemscore.DEClash>
0.0038

> <Gold.Chemscore.DEInternal>
2.1403

> <Gold.Chemscore.Rot>
1.7842

> <Gold.Chemscore.Internal.Correction>
   9.000000E+99

> <Gold.Chemscore.Hbonds>
donor molecule, donor type, donor heavy atom, donor atom, acceptor molecule, acceptor atom, score
      P1  H  6896  6908       L1     7  0.21
      P1  H  7989  7998       L1     3  0.74
      P1  H  7997  8010       L1     1  0.96

> <Gold.Chemscore.Hbond.Weighted>
-9.8519

> <Gold.Chemscore.Metal.Weighted>
-0.0000

> <Gold.Chemscore.Lipo.Weighted>
-3.3548

> <Gold.Chemscore.Internal_Hbond.Weighted>
0.0000

> <Gold.Chemscore.DEClash.Weighted>
0.0038

> <Gold.Chemscore.DEInternal.Weighted>
2.1403

> <Gold.Chemscore.Rot.Weighted>
4.5676

> <Gold.Chemscore.Internal.Correction.Weighted>
   9.000000E+99

> <Gold.Protein.RotatedTorsions>
[ 6907 6896 6895 6894 ] final -114.21 input  -60.11 | X-H torsion
[ 7974 7965 7964 7962 ] final  -37.11 input  175.53 | X-H torsion
[ 8008 7997 7996 7995 ] final  110.30 input   59.86 | X-H torsion
[ 10167 10162 10161 10158 ] final   31.78 input  -65.29 | X-H torsion
[ 10718 10713 10712 10709 ] final   91.72 input   66.30 | X-H torsion
[ 10763 10752 10751 10750 ] final   93.05 input  -60.55 | X-H torsion
[ 11005 11000 10999 10996 ] final  145.18 input  -57.11 | X-H torsion

> <Gold.Protein.ActiveResidues>
 VAL166  LYS551  ARG553  GLY616  TRP617  ASP618  TYR619  PRO620  LYS621  CYS622 
 ASP623  PHE694  ASN695  SER759  ASP760  ASP761  ALA762  ILE779  LEU786  VAL792 
 PHE793  MET794  SER795  GLU796  ALA797  LYS798  CYS799  TRP800  GLU811  SER814 

> <Gold.Protein.RotatedAtoms>
  150.7885  133.8834  159.3292 H   0  0  0  0  0  0  0  0  0  0  0  0  # atno 6907 bound_to 6896
  151.6678  135.0978  160.0201 H   0  0  0  0  0  0  0  0  0  0  0  0  # atno 6908 bound_to 6896
  152.3955  133.6701  159.6308 H   0  0  0  0  0  0  0  0  0  0  0  0  # atno 6909 bound_to 6896
  146.0603  140.6358  142.9000 H   0  0  0  0  0  0  0  0  0  0  0  0  # atno 7974 bound_to 7965
  156.2043  140.3041  155.9593 H   0  0  0  0  0  0  0  0  0  0  0  0  # atno 8008 bound_to 7997
  155.2880  140.0441  157.3038 H   0  0  0  0  0  0  0  0  0  0  0  0  # atno 8009 bound_to 7997
  154.5612  140.2320  155.8342 H   0  0  0  0  0  0  0  0  0  0  0  0  # atno 8010 bound_to 7997
  140.4558  144.0980  150.6201 H   0  0  0  0  0  0  0  0  0  0  0  0  # atno 10167 bound_to 10162
  157.6960  131.0418  150.3773 H   0  0  0  0  0  0  0  0  0  0  0  0  # atno 10718 bound_to 10713
  153.2260  135.4339  155.0543 H   0  0  0  0  0  0  0  0  0  0  0  0  # atno 10763 bound_to 10752
  154.8274  135.3368  154.6857 H   0  0  0  0  0  0  0  0  0  0  0  0  # atno 10764 bound_to 10752
  153.7286  135.7012  153.5051 H   0  0  0  0  0  0  0  0  0  0  0  0  # atno 10765 bound_to 10752
  140.0692  134.9161  157.1316 H   0  0  0  0  0  0  0  0  0  0  0  0  # atno 11005 bound_to 11000
  144.7171  140.4247  143.7036 LP  0  0  0  0  0  0  0  0  0  0  0  0  # atno 17320 bound_to 7965
  145.6572  139.1575  143.2829 LP  0  0  0  0  0  0  0  0  0  0  0  0  # atno 17321 bound_to 7965
  140.4152  143.2637  151.9783 LP  0  0  0  0  0  0  0  0  0  0  0  0  # atno 17342 bound_to 10162
  139.4801  144.5880  151.7821 LP  0  0  0  0  0  0  0  0  0  0  0  0  # atno 17343 bound_to 10162
  156.4191  130.3949  149.6837 LP  0  0  0  0  0  0  0  0  0  0  0  0  # atno 17370 bound_to 10713
  156.4095  130.7715  151.2727 LP  0  0  0  0  0  0  0  0  0  0  0  0  # atno 17371 bound_to 10713
  140.3653  134.2449  155.7183 LP  0  0  0  0  0  0  0  0  0  0  0  0  # atno 17394 bound_to 11000
  141.2005  133.7986  157.0487 LP  0  0  0  0  0  0  0  0  0  0  0  0  # atno 17395 bound_to 11000

$$$$
