AV-unprocessed.smi:2642|AV-procd|sdf|10274|dock3
  -GOLD-   2272014283D 1   1.00000     0.00000
 Structure written by MMmdl.
 32 33  0  0  0  0  0  0  0  0  1 V2000
  144.5269  136.4349  152.6289 O   0  0  0  0  0  0  0  0  0  0  0  0
  145.7116  136.2267  152.3678 C   0  0  0  0  0  0  0  0  0  0  0  0
  146.6752  137.1447  152.5288 N   0  0  0  0  0  0  0  0  0  0  0  0
  146.4602  138.4980  153.0269 C   0  0  0  0  0  0  0  0  0  0  0  0
  147.7239  139.0514  153.7104 C   0  0  0  0  0  0  0  0  0  0  0  0
  147.4117  140.2145  154.5442 N   0  0  0  0  0  0  0  0  0  0  0  0
  146.3800  140.2749  155.3963 C   0  0  0  0  0  0  0  0  0  0  0  0
  145.5369  139.4061  155.6162 O   0  0  0  0  0  0  0  0  0  0  0  0
  146.4059  141.6220  156.0849 C   0  0  0  0  0  0  0  0  0  0  0  0
  147.5820  142.1842  155.4564 N   0  0  0  0  0  0  0  0  0  0  0  0
  148.1414  141.3446  154.5755 C   0  0  0  0  0  0  0  0  0  0  0  0
  149.1537  141.5796  153.9174 O   0  0  0  0  0  0  0  0  0  0  0  0
  146.2078  135.0810  151.8701 N   0  0  0  0  0  0  0  0  0  0  0  0
  145.5196  133.8709  151.5832 C   0  0  0  0  0  0  0  0  0  0  0  0
  146.0696  132.7978  150.8405 C   0  0  0  0  0  0  0  0  0  0  0  0
  145.2769  131.6582  150.6039 C   0  0  0  0  0  0  0  0  0  0  0  0
  143.9636  131.6344  151.1118 C   0  0  0  0  0  0  0  0  0  0  0  0
  143.4224  132.6544  151.8107 N   0  0  0  0  0  0  0  0  0  0  0  0
  144.1880  133.7443  152.0324 C   0  0  0  0  0  0  0  0  0  0  0  0
  147.6220  136.8928  152.2855 H   0  0  0  0  0  0  0  0  0  0  0  0
  146.1486  139.1502  152.2088 H   0  0  0  0  0  0  0  0  0  0  0  0
  145.6316  138.4743  153.7353 H   0  0  0  0  0  0  0  0  0  0  0  0
  148.1930  138.2733  154.3151 H   0  0  0  0  0  0  0  0  0  0  0  0
  148.4672  139.3284  152.9607 H   0  0  0  0  0  0  0  0  0  0  0  0
  145.5121  142.2059  155.8635 H   0  0  0  0  0  0  0  0  0  0  0  0
  146.5340  141.5213  157.1630 H   0  0  0  0  0  0  0  0  0  0  0  0
  147.9337  143.1061  155.6714 H   0  0  0  0  0  0  0  0  0  0  0  0
  147.1860  135.0916  151.6206 H   0  0  0  0  0  0  0  0  0  0  0  0
  147.0694  132.8311  150.4369 H   0  0  0  0  0  0  0  0  0  0  0  0
  145.6660  130.8226  150.0412 H   0  0  0  0  0  0  0  0  0  0  0  0
  143.3290  130.7762  150.9471 H   0  0  0  0  0  0  0  0  0  0  0  0
  143.7205  134.5414  152.5919 H   0  0  0  0  0  0  0  0  0  0  0  0
  1  2  2  0  0  0  0
  2  3  1  0  0  0  0
  2 13  1  0  0  0  0
  3  4  1  0  0  0  0
  3 20  1  0  0  0  0
  4  5  1  0  0  0  0
  4 21  1  0  0  0  0
  4 22  1  0  0  0  0
  5  6  1  0  0  0  0
  5 23  1  0  0  0  0
  5 24  1  0  0  0  0
  6 11  1  0  0  0  0
  6  7  1  0  0  0  0
  7  8  2  0  0  0  0
  7  9  1  0  0  0  0
  9 10  1  0  0  0  0
  9 25  1  0  0  0  0
  9 26  1  0  0  0  0
 10 11  1  0  0  0  0
 10 27  1  0  0  0  0
 11 12  2  0  0  0  0
 13 14  1  0  0  0  0
 13 28  1  0  0  0  0
 14 19  1  0  0  0  0
 14 15  2  0  0  0  0
 15 16  1  0  0  0  0
 15 29  1  0  0  0  0
 16 17  2  0  0  0  0
 16 30  1  0  0  0  0
 17 18  1  0  0  0  0
 17 31  1  0  0  0  0
 18 19  2  0  0  0  0
 19 32  1  0  0  0  0
M  END
> <s_m_source_file>
AV-unprocessed.smi

> <i_m_source_file_index>
2642

> <i_lp_mmshare_version>
43012

> <i_f3d_flags>
0

> <s_epik_input>
W2NIXTFuW2NIXVtjSF1bY0hdYzFbTkhdQyg9TylbTkhdW0NIMl1bQ0gyXU4yQyg9TylbQ0gyXVtOSF1DMj1P

> <s_epik_cmdline>
J2VwaWtfcHl0aG9uJywgJy1waCcsICc3LjAnLCAnLXRuJywgJzgnLCAnLW1hJywgJzIwMCcsICctbWV0YWxfYmluZGluZycsICctaW1hZScsICc8aW5maWxlLm1hZT4nLCAnLW9tYWUnLCAnPG91dGZpbGUubWFlPic=

> <r_lp_tautomer_probability>
1

> <r_epik_Ionization_Penalty>
0.00464634

> <r_epik_Ionization_Penalty_Charging>
0

> <r_epik_Ionization_Penalty_Neutral>
0.00464634

> <r_epik_State_Penalty>
0.00329662

> <r_epik_Charging_Adjusted_Penalty>
0.00329662

> <i_epik_Tot_Q>
0

> <i_epik_Tot_abs_Q>
0

> <r_epik_Metal_State_Penalty>
0.029405

> <b_epik_Metal_Only>
0

> <s_lp_Force_Field>
OPLS_2005

> <r_lp_Energy>
19.2502

> <b_lp_Chiralities_Consistent>
1

> <s_lp_Variant>
AV-unprocessed.smi:2642-1

> <Gold.Version>
5.8.1

> <Gold.Id.Protein>
6NUR|6NUR_protein|mol2

> <Gold.PLP.Fitness>
44.2786

> <Gold.PLP.PLP>
-32.1183

> <Gold.PLP.part.hbond>
-4.9748

> <Gold.PLP.part.metal>
0.0000

> <Gold.PLP.part.buried>
-6.6584

> <Gold.PLP.part.nonpolar>
-23.4316

> <Gold.PLP.part.repulsive>
2.4192

> <Gold.PLP.ligand.clash>
0.0000

> <Gold.PLP.ligand.torsion>
0.4663

> <Gold.PLP.Chemscore.Hbond>
3.4256

> <Gold.PLP.Chemscore.CHOScore>
0.9368

> <Gold.PLP.Chemscore.Metal>
0.0000

> <Gold.Chemscore.Hbonds>
donor molecule, donor type, donor heavy atom, donor atom, acceptor molecule, acceptor atom, score
      L1  H     3    20       P1  7948  1.00
      L1  H    10    27       P1  8028  1.00
      L1  H    13    28       P1  7948  0.79
      P1  H  8011  8017       L1    12  0.67
      L1  C    17    31       P1 10952  0.09

> <Gold.PLP.Chemscore.Internal.Correction>
0.0056

> <Gold.Rescore>
     Score         DG    S(hbond)    S(metal)    S(lipo)     H(rot)  DE(clash)    DE(int)     intcor
     13.54     -17.11       3.14        0.00      52.10       1.93       0.37       3.20       ----

> <Gold.Chemscore.Fitness>
13.5424

> <Gold.Chemscore.DG>
-17.1130

> <Gold.Chemscore.ZeroCoef>
-5.4800

> <Gold.Chemscore.Hbond>
3.1396

> <Gold.Chemscore.Metal>
0.0000

> <Gold.Chemscore.Lipo>
52.1025

> <Gold.Chemscore.Internal_Hbond>
0.0000

> <Gold.Chemscore.DEClash>
0.3662

> <Gold.Chemscore.DEInternal>
3.2044

> <Gold.Chemscore.Rot>
1.9334

> <Gold.Chemscore.Internal.Correction>
   9.000000E+99

> <Gold.Chemscore.Hbonds>
donor molecule, donor type, donor heavy atom, donor atom, acceptor molecule, acceptor atom, score
      L1  H     3    20       P1  7948  0.93
      L1  H    10    27       P1  8028  0.60
      L1  H    13    28       P1  7948  0.67
      P1  H  8011  8017       L1    12  0.66

> <Gold.Chemscore.Hbond.Weighted>
-10.4864

> <Gold.Chemscore.Metal.Weighted>
-0.0000

> <Gold.Chemscore.Lipo.Weighted>
-6.0960

> <Gold.Chemscore.Internal_Hbond.Weighted>
0.0000

> <Gold.Chemscore.DEClash.Weighted>
0.3662

> <Gold.Chemscore.DEInternal.Weighted>
3.2044

> <Gold.Chemscore.Rot.Weighted>
4.9494

> <Gold.Chemscore.Internal.Correction.Weighted>
   9.000000E+99

> <Gold.Protein.RotatedTorsions>
[ 6907 6896 6895 6894 ] final   21.24 input  -60.11 | X-H torsion
[ 7974 7965 7964 7962 ] final  -29.11 input  175.53 | X-H torsion
[ 8008 7997 7996 7995 ] final  155.17 input   59.86 | X-H torsion
[ 10167 10162 10161 10158 ] final   55.69 input  -65.29 | X-H torsion
[ 10718 10713 10712 10709 ] final  -93.32 input   66.30 | X-H torsion
[ 10763 10752 10751 10750 ] final  -11.21 input  -60.55 | X-H torsion
[ 11005 11000 10999 10996 ] final  162.42 input  -57.11 | X-H torsion

> <Gold.Protein.ActiveResidues>
 VAL166  LYS551  ARG553  GLY616  TRP617  ASP618  TYR619  PRO620  LYS621  CYS622 
 ASP623  PHE694  ASN695  SER759  ASP760  ASP761  ALA762  ILE779  LEU786  VAL792 
 PHE793  MET794  SER795  GLU796  ALA797  LYS798  CYS799  TRP800  GLU811  SER814 

> <Gold.Protein.RotatedAtoms>
  151.9088  135.0348  160.0512 H   0  0  0  0  0  0  0  0  0  0  0  0  # atno 6907 bound_to 6896
  152.2297  133.5044  159.5217 H   0  0  0  0  0  0  0  0  0  0  0  0  # atno 6908 bound_to 6896
  150.7022  134.1149  159.4056 H   0  0  0  0  0  0  0  0  0  0  0  0  # atno 6909 bound_to 6896
  146.1240  140.5370  142.8723 H   0  0  0  0  0  0  0  0  0  0  0  0  # atno 7974 bound_to 7965
  156.2492  140.1947  156.6759 H   0  0  0  0  0  0  0  0  0  0  0  0  # atno 8008 bound_to 7997
  154.6358  140.0590  156.9812 H   0  0  0  0  0  0  0  0  0  0  0  0  # atno 8009 bound_to 7997
  155.1640  140.3262  155.4408 H   0  0  0  0  0  0  0  0  0  0  0  0  # atno 8010 bound_to 7997
  140.2167  144.3832  150.6467 H   0  0  0  0  0  0  0  0  0  0  0  0  # atno 10167 bound_to 10162
  156.0012  130.5022  150.5759 H   0  0  0  0  0  0  0  0  0  0  0  0  # atno 10718 bound_to 10713
  153.4804  135.7017  153.5941 H   0  0  0  0  0  0  0  0  0  0  0  0  # atno 10763 bound_to 10752
  153.4157  135.3837  155.2079 H   0  0  0  0  0  0  0  0  0  0  0  0  # atno 10764 bound_to 10752
  154.8722  135.3915  154.4253 H   0  0  0  0  0  0  0  0  0  0  0  0  # atno 10765 bound_to 10752
  140.2255  134.8163  157.3264 H   0  0  0  0  0  0  0  0  0  0  0  0  # atno 11005 bound_to 11000
  144.7624  140.5452  143.6726 LP  0  0  0  0  0  0  0  0  0  0  0  0  # atno 17320 bound_to 7965
  145.5406  139.1475  143.3449 LP  0  0  0  0  0  0  0  0  0  0  0  0  # atno 17321 bound_to 7965
  140.6285  143.2184  151.6547 LP  0  0  0  0  0  0  0  0  0  0  0  0  # atno 17342 bound_to 10162
  139.5159  144.3363  152.0781 LP  0  0  0  0  0  0  0  0  0  0  0  0  # atno 17343 bound_to 10162
  157.3646  131.0755  151.1608 LP  0  0  0  0  0  0  0  0  0  0  0  0  # atno 17370 bound_to 10713
  157.2381  130.6556  149.5878 LP  0  0  0  0  0  0  0  0  0  0  0  0  # atno 17371 bound_to 10713
  140.1804  134.4496  155.7775 LP  0  0  0  0  0  0  0  0  0  0  0  0  # atno 17394 bound_to 11000
  141.2221  133.6981  156.7859 LP  0  0  0  0  0  0  0  0  0  0  0  0  # atno 17395 bound_to 11000

$$$$
