AV-unprocessed.smi:3187|AV-procd|sdf|12178|dock9
  -GOLD-   2272018 13D 1   1.00000     0.00000
 Structure written by MMmdl.
 41 42  0  0  0  0  0  0  0  0  2 V2000
  154.0667  140.2265  160.6354 C   0  0  0  0  0  0  0  0  0  0  0  0
  153.3437  141.5603  160.7392 C   0  0  0  0  0  0  0  0  0  0  0  0
  153.2533  142.2049  161.9193 C   0  0  0  0  0  0  0  0  0  0  0  0
  152.6130  143.5678  162.1164 C   0  0  0  0  0  0  0  0  0  0  0  0
  151.9035  144.0921  160.8569 C   0  0  0  0  0  0  0  0  0  0  0  0
  152.6642  143.7046  159.5765 C   0  0  2  0  0  0  0  0  0  0  0  0
  152.0960  144.4080  158.3318 C   0  0  0  0  0  0  0  0  0  0  0  0
  152.7809  142.1599  159.4432 C   0  0  2  0  0  0  0  0  0  0  0  0
  151.4498  141.4916  159.0086 C   0  0  0  0  0  0  0  0  0  0  0  0
  151.4477  141.0811  157.5917 N   0  3  0  0  0  0  0  0  0  0  0  0
  150.1072  141.0261  156.9747 C   0  0  0  0  0  0  0  0  0  0  0  0
  150.1530  141.4284  155.4925 C   0  0  0  0  0  0  0  0  0  0  0  0
  149.1005  140.7960  154.7202 N   0  0  0  0  0  0  0  0  0  0  0  0
  148.0304  141.4210  154.0934 C   0  0  0  0  0  0  0  0  0  0  0  0
  147.2990  140.4280  153.4815 C   0  0  0  0  0  0  0  0  0  0  0  0
  147.8970  139.1925  153.7186 N   0  0  0  0  0  0  0  0  0  0  0  0
  148.9540  139.4889  154.4627 C   0  0  0  0  0  0  0  0  0  0  0  0
  154.7704  140.2358  159.8028 H   0  0  0  0  0  0  0  0  0  0  0  0
  153.3711  139.4011  160.4956 H   0  0  0  0  0  0  0  0  0  0  0  0
  154.6335  140.0188  161.5438 H   0  0  0  0  0  0  0  0  0  0  0  0
  153.6873  141.7620  162.8041 H   0  0  0  0  0  0  0  0  0  0  0  0
  151.9144  143.5245  162.9522 H   0  0  0  0  0  0  0  0  0  0  0  0
  153.4047  144.2598  162.4048 H   0  0  0  0  0  0  0  0  0  0  0  0
  150.8883  143.6972  160.8173 H   0  0  0  0  0  0  0  0  0  0  0  0
  151.8002  145.1755  160.9272 H   0  0  0  0  0  0  0  0  0  0  0  0
  153.6815  144.0844  159.6893 H   0  0  0  0  0  0  0  0  0  0  0  0
  151.0306  144.2168  158.2046 H   0  0  0  0  0  0  0  0  0  0  0  0
  152.6103  144.0849  157.4263 H   0  0  0  0  0  0  0  0  0  0  0  0
  152.2204  145.4884  158.4096 H   0  0  0  0  0  0  0  0  0  0  0  0
  153.5166  141.9717  158.6599 H   0  0  0  0  0  0  0  0  0  0  0  0
  151.2423  140.6180  159.6270 H   0  0  0  0  0  0  0  0  0  0  0  0
  150.6164  142.1809  159.1398 H   0  0  0  0  0  0  0  0  0  0  0  0
  152.0136  141.7334  157.0674 H   0  0  0  0  0  0  0  0  0  0  0  0
  149.7163  140.0117  157.0626 H   0  0  0  0  0  0  0  0  0  0  0  0
  149.4274  141.6794  157.5236 H   0  0  0  0  0  0  0  0  0  0  0  0
  150.0705  142.5110  155.3866 H   0  0  0  0  0  0  0  0  0  0  0  0
  151.1118  141.1430  155.0579 H   0  0  0  0  0  0  0  0  0  0  0  0
  147.8813  142.4903  154.1321 H   0  0  0  0  0  0  0  0  0  0  0  0
  146.3960  140.5070  152.8940 H   0  0  0  0  0  0  0  0  0  0  0  0
  149.6420  138.7376  154.8228 H   0  0  0  0  0  0  0  0  0  0  0  0
  151.8688  140.1653  157.5281 H   0  0  0  0  0  0  0  0  0  0  0  0
  1  2  1  0  0  0  0
  1 18  1  0  0  0  0
  1 19  1  0  0  0  0
  1 20  1  0  0  0  0
  2  8  1  0  0  0  0
  2  3  2  0  0  0  0
  3  4  1  0  0  0  0
  3 21  1  0  0  0  0
  4  5  1  0  0  0  0
  4 22  1  0  0  0  0
  4 23  1  0  0  0  0
  5  6  1  0  0  0  0
  5 24  1  0  0  0  0
  5 25  1  0  0  0  0
  6  7  1  0  0  0  0
  6  8  1  0  0  0  0
  6 26  1  0  0  0  0
  7 27  1  0  0  0  0
  7 28  1  0  0  0  0
  7 29  1  0  0  0  0
  8  9  1  0  0  0  0
  8 30  1  0  0  0  0
  9 10  1  0  0  0  0
  9 31  1  0  0  0  0
  9 32  1  0  0  0  0
 10 11  1  0  0  0  0
 10 33  1  0  0  0  0
 10 41  1  0  0  0  0
 11 12  1  0  0  0  0
 11 34  1  0  0  0  0
 11 35  1  0  0  0  0
 12 13  1  0  0  0  0
 12 36  1  0  0  0  0
 12 37  1  0  0  0  0
 13 17  1  0  0  0  0
 13 14  1  0  0  0  0
 14 15  2  0  0  0  0
 14 38  1  0  0  0  0
 15 16  1  0  0  0  0
 15 39  1  0  0  0  0
 16 17  2  0  0  0  0
 17 40  1  0  0  0  0
M  CHG  1  10   1
M  END
> <s_m_source_file>
AV-unprocessed.smi

> <i_m_source_file_index>
3187

> <i_lp_mmshare_version>
43012

> <i_f3d_flags>
0

> <s_epik_input>
W0NIM11DMT1bQ0hdW0NIMl1bQ0gyXVtDQEBIXShbQ0gzXSlbQ0BIXTFbQ0gyXVtOSF1bQ0gyXVtDSDJdbjJbY0hdW2NIXW5bY0hdMg==

> <s_epik_cmdline>
J2VwaWtfcHl0aG9uJywgJy1waCcsICc3LjAnLCAnLXRuJywgJzgnLCAnLW1hJywgJzIwMCcsICctbWV0YWxfYmluZGluZycsICctaW1hZScsICc8aW5maWxlLm1hZT4nLCAnLW9tYWUnLCAnPG91dGZpbGUubWFlPic=

> <r_lp_tautomer_probability>
1

> <r_epik_Ionization_Penalty>
0.0501625

> <r_epik_Ionization_Penalty_Charging>
0.0501625

> <r_epik_Ionization_Penalty_Neutral>
0

> <r_epik_State_Penalty>
0.0972392

> <r_epik_Charging_Adjusted_Penalty>
0.147402

> <i_epik_Tot_Q>
1

> <i_epik_Tot_abs_Q>
1

> <r_epik_Metal_State_Penalty>
0.000104376

> <b_epik_Metal_Only>
0

> <s_lp_Force_Field>
OPLS_2005

> <r_lp_Energy>
17.7506

> <b_lp_Chiralities_Consistent>
1

> <s_lp_Variant>
AV-unprocessed.smi:3187-4

> <Gold.Version>
5.8.1

> <Gold.Id.Protein>
6NUR|6NUR_protein|mol2

> <Gold.PLP.Fitness>
50.6436

> <Gold.PLP.PLP>
-47.4464

> <Gold.PLP.part.hbond>
0.0000

> <Gold.PLP.part.metal>
0.0000

> <Gold.PLP.part.buried>
-5.5568

> <Gold.PLP.part.nonpolar>
-42.9867

> <Gold.PLP.part.repulsive>
0.2559

> <Gold.PLP.ligand.clash>
0.0000

> <Gold.PLP.ligand.torsion>
1.2454

> <Gold.PLP.Chemscore.Hbond>
0.0000

> <Gold.PLP.Chemscore.CHOScore>
1.8737

> <Gold.PLP.Chemscore.Metal>
0.0000

> <Gold.Chemscore.Hbonds>
donor molecule, donor type, donor heavy atom, donor atom, acceptor molecule, acceptor atom, score
      L1  C    14    38       P1  8028  0.21
      L1  C    15    39       P1 10175  0.48

> <Gold.PLP.Chemscore.Internal.Correction>
0.0671

> <Gold.Rescore>
     Score         DG    S(hbond)    S(metal)    S(lipo)     H(rot)  DE(clash)    DE(int)     intcor
     14.72     -15.91       0.00        0.00     130.40       1.89       0.01       1.18       ----

> <Gold.Chemscore.Fitness>
14.7164

> <Gold.Chemscore.DG>
-15.9111

> <Gold.Chemscore.ZeroCoef>
-5.4800

> <Gold.Chemscore.Hbond>
0.0000

> <Gold.Chemscore.Metal>
0.0000

> <Gold.Chemscore.Lipo>
130.4046

> <Gold.Chemscore.Internal_Hbond>
0.0000

> <Gold.Chemscore.DEClash>
0.0149

> <Gold.Chemscore.DEInternal>
1.1799

> <Gold.Chemscore.Rot>
1.8853

> <Gold.Chemscore.Internal.Correction>
   9.000000E+99

> <Gold.Chemscore.Hbond.Weighted>
-0.0000

> <Gold.Chemscore.Metal.Weighted>
-0.0000

> <Gold.Chemscore.Lipo.Weighted>
-15.2573

> <Gold.Chemscore.Internal_Hbond.Weighted>
0.0000

> <Gold.Chemscore.DEClash.Weighted>
0.0149

> <Gold.Chemscore.DEInternal.Weighted>
1.1799

> <Gold.Chemscore.Rot.Weighted>
4.8263

> <Gold.Chemscore.Internal.Correction.Weighted>
   9.000000E+99

> <Gold.Protein.RotatedTorsions>
[ 6907 6896 6895 6894 ] final  157.28 input  -60.11 | X-H torsion
[ 7974 7965 7964 7962 ] final   15.98 input  175.53 | X-H torsion
[ 8008 7997 7996 7995 ] final  105.38 input   59.86 | X-H torsion
[ 10167 10162 10161 10158 ] final   28.78 input  -65.29 | X-H torsion
[ 10718 10713 10712 10709 ] final   47.91 input   66.30 | X-H torsion
[ 10763 10752 10751 10750 ] final -167.90 input  -60.55 | X-H torsion
[ 11005 11000 10999 10996 ] final -166.03 input  -57.11 | X-H torsion

> <Gold.Protein.ActiveResidues>
 VAL166  LYS551  ARG553  GLY616  TRP617  ASP618  TYR619  PRO620  LYS621  CYS622 
 ASP623  PHE694  ASN695  SER759  ASP760  ASP761  ALA762  ILE779  LEU786  VAL792 
 PHE793  MET794  SER795  GLU796  ALA797  LYS798  CYS799  TRP800  GLU811  SER814 

> <Gold.Protein.RotatedAtoms>
  152.0174  133.3885  159.4243 H   0  0  0  0  0  0  0  0  0  0  0  0  # atno 6907 bound_to 6896
  150.6893  134.3664  159.4982 H   0  0  0  0  0  0  0  0  0  0  0  0  # atno 6908 bound_to 6896
  152.1433  134.9045  160.0603 H   0  0  0  0  0  0  0  0  0  0  0  0  # atno 6909 bound_to 6896
  146.2263  139.8814  142.8570 H   0  0  0  0  0  0  0  0  0  0  0  0  # atno 7974 bound_to 7965
  156.1654  140.3131  155.8879 H   0  0  0  0  0  0  0  0  0  0  0  0  # atno 8008 bound_to 7997
  155.3698  140.0481  157.3062 H   0  0  0  0  0  0  0  0  0  0  0  0  # atno 8009 bound_to 7997
  154.5187  140.2190  155.9028 H   0  0  0  0  0  0  0  0  0  0  0  0  # atno 8010 bound_to 7997
  140.4823  144.0597  150.6269 H   0  0  0  0  0  0  0  0  0  0  0  0  # atno 10167 bound_to 10162
  157.4633  130.8210  149.7909 H   0  0  0  0  0  0  0  0  0  0  0  0  # atno 10718 bound_to 10713
  154.6684  135.2935  154.9774 H   0  0  0  0  0  0  0  0  0  0  0  0  # atno 10763 bound_to 10752
  154.0810  135.6604  153.4842 H   0  0  0  0  0  0  0  0  0  0  0  0  # atno 10764 bound_to 10752
  153.0472  135.5197  154.7668 H   0  0  0  0  0  0  0  0  0  0  0  0  # atno 10765 bound_to 10752
  140.5690  134.5256  157.5158 H   0  0  0  0  0  0  0  0  0  0  0  0  # atno 11005 bound_to 11000
  145.2508  141.0043  143.3882 LP  0  0  0  0  0  0  0  0  0  0  0  0  # atno 17320 bound_to 7965
  144.9376  139.4226  143.6465 LP  0  0  0  0  0  0  0  0  0  0  0  0  # atno 17321 bound_to 7965
  140.3842  143.2786  152.0135 LP  0  0  0  0  0  0  0  0  0  0  0  0  # atno 17342 bound_to 10162
  139.4835  144.6130  151.7399 LP  0  0  0  0  0  0  0  0  0  0  0  0  # atno 17343 bound_to 10162
  156.0038  130.3866  150.2505 LP  0  0  0  0  0  0  0  0  0  0  0  0  # atno 17370 bound_to 10713
  157.0683  131.0109  151.3199 LP  0  0  0  0  0  0  0  0  0  0  0  0  # atno 17371 bound_to 10713
  139.9371  134.7856  156.0775 LP  0  0  0  0  0  0  0  0  0  0  0  0  # atno 17394 bound_to 11000
  141.1068  133.6657  156.2882 LP  0  0  0  0  0  0  0  0  0  0  0  0  # atno 17395 bound_to 11000

$$$$
