AV-unprocessed.smi:807|AV-procd|sdf|3802|dock8
  -GOLD-   22720 1243D 1   1.00000     0.00000
 Structure written by MMmdl.
 35 37  0  0  0  0  0  0  0  0  1 V2000
  154.4708  136.7885  157.3388 C   0  0  0  0  0  0  0  0  0  0  0  0
  153.1316  137.3301  157.5042 N   0  0  0  0  0  0  0  0  0  0  0  0
  152.5131  138.0305  156.4591 C   0  0  0  0  0  0  0  0  0  0  0  0
  152.4545  137.4862  155.2216 N   0  0  0  0  0  0  0  0  0  0  0  0
  151.8544  138.1929  154.2546 C   0  0  0  0  0  0  0  0  0  0  0  0
  151.2779  139.4028  154.3246 N   0  0  0  0  0  0  0  0  0  0  0  0
  151.3311  139.9502  155.5465 C   0  0  0  0  0  0  0  0  0  0  0  0
  150.8230  141.1866  155.9062 N   0  0  0  0  0  0  0  0  0  0  0  0
  151.1401  141.2441  157.1971 C   0  0  0  0  0  0  0  0  0  0  0  0
  151.7987  140.1926  157.7233 N   0  0  0  0  0  0  0  0  0  0  0  0
  152.2557  140.0547  159.0950 C   0  0  0  0  0  0  0  0  0  0  0  0
  153.3898  141.0425  159.4362 C   0  0  2  0  0  0  0  0  0  0  0  0
  154.2631  140.4070  160.3478 O   0  0  0  0  0  0  0  0  0  0  0  0
  152.8607  142.3726  159.9723 C   0  0  0  0  0  0  0  0  0  0  0  0
  152.2730  143.2923  159.0736 C   0  0  0  0  0  0  0  0  0  0  0  0
  151.7887  144.5332  159.5280 C   0  0  0  0  0  0  0  0  0  0  0  0
  151.8898  144.8702  160.8893 C   0  0  0  0  0  0  0  0  0  0  0  0
  152.4781  143.9663  161.7926 C   0  0  0  0  0  0  0  0  0  0  0  0
  152.9657  142.7221  161.3442 C   0  0  0  0  0  0  0  0  0  0  0  0
  153.6933  141.6659  162.5046 Cl  0  0  0  0  0  0  0  0  0  0  0  0
  151.9426  139.3025  156.6617 C   0  0  0  0  0  0  0  0  0  0  0  0
  154.7937  136.3079  158.2622 H   0  0  0  0  0  0  0  0  0  0  0  0
  155.1815  137.5804  157.1004 H   0  0  0  0  0  0  0  0  0  0  0  0
  154.4924  136.0453  156.5411 H   0  0  0  0  0  0  0  0  0  0  0  0
  152.6911  137.2821  158.4116 H   0  0  0  0  0  0  0  0  0  0  0  0
  151.8306  137.7225  153.2828 H   0  0  0  0  0  0  0  0  0  0  0  0
  150.8873  142.1078  157.7948 H   0  0  0  0  0  0  0  0  0  0  0  0
  151.4065  140.1971  159.7651 H   0  0  0  0  0  0  0  0  0  0  0  0
  152.5891  139.0262  159.2367 H   0  0  0  0  0  0  0  0  0  0  0  0
  153.9921  141.2145  158.5461 H   0  0  0  0  0  0  0  0  0  0  0  0
  154.2854  140.9123  161.1458 H   0  0  0  0  0  0  0  0  0  0  0  0
  152.1941  143.0514  158.0238 H   0  0  0  0  0  0  0  0  0  0  0  0
  151.3413  145.2270  158.8313 H   0  0  0  0  0  0  0  0  0  0  0  0
  151.5199  145.8226  161.2398 H   0  0  0  0  0  0  0  0  0  0  0  0
  152.5586  144.2314  162.8365 H   0  0  0  0  0  0  0  0  0  0  0  0
  1  2  1  0  0  0  0
  1 22  1  0  0  0  0
  1 23  1  0  0  0  0
  1 24  1  0  0  0  0
  2  3  1  0  0  0  0
  2 25  1  0  0  0  0
  3 21  1  0  0  0  0
  3  4  2  0  0  0  0
  4  5  1  0  0  0  0
  5  6  2  0  0  0  0
  5 26  1  0  0  0  0
  6  7  1  0  0  0  0
  7 21  2  0  0  0  0
  7  8  1  0  0  0  0
  8  9  2  0  0  0  0
  9 10  1  0  0  0  0
  9 27  1  0  0  0  0
 10 11  1  0  0  0  0
 10 21  1  0  0  0  0
 11 12  1  0  0  0  0
 11 28  1  0  0  0  0
 11 29  1  0  0  0  0
 12 13  1  0  0  0  0
 12 14  1  0  0  0  0
 12 30  1  0  0  0  0
 13 31  1  0  0  0  0
 14 19  1  0  0  0  0
 14 15  2  0  0  0  0
 15 16  1  0  0  0  0
 15 32  1  0  0  0  0
 16 17  2  0  0  0  0
 16 33  1  0  0  0  0
 17 18  1  0  0  0  0
 17 34  1  0  0  0  0
 18 19  2  0  0  0  0
 18 35  1  0  0  0  0
 19 20  1  0  0  0  0
M  END
> <s_m_source_file>
AV-unprocessed.smi

> <i_m_source_file_index>
807

> <i_lp_mmshare_version>
43012

> <i_f3d_flags>
0

> <s_epik_input>
bjFbY0hdbmMoW05IXVtDSDNdKWMoYzEyKW4oW2NIXW4yKVtDSDJdW0NASF0oW09IXSljM1tjSF1bY0hdW2NIXVtjSF1jM0Ns

> <s_epik_cmdline>
J2VwaWtfcHl0aG9uJywgJy1waCcsICc3LjAnLCAnLXRuJywgJzgnLCAnLW1hJywgJzIwMCcsICctbWV0YWxfYmluZGluZycsICctaW1hZScsICc8aW5maWxlLm1hZT4nLCAnLW9tYWUnLCAnPG91dGZpbGUubWFlPic=

> <r_lp_tautomer_probability>
1

> <r_epik_Ionization_Penalty>
0.00695285

> <r_epik_Ionization_Penalty_Charging>
0

> <r_epik_Ionization_Penalty_Neutral>
0.00695285

> <r_epik_State_Penalty>
-0

> <r_epik_Charging_Adjusted_Penalty>
0

> <i_epik_Tot_Q>
0

> <i_epik_Tot_abs_Q>
0

> <r_epik_Metal_State_Penalty>
-0

> <b_epik_Metal_Only>
0

> <s_lp_Force_Field>
OPLS_2005

> <r_lp_Energy>
11.3951

> <b_lp_Chiralities_Consistent>
1

> <s_lp_Variant>
AV-unprocessed.smi:807-1

> <Gold.Version>
5.8.1

> <Gold.Id.Protein>
6NUR|6NUR_protein|mol2

> <Gold.PLP.Fitness>
50.4136

> <Gold.PLP.PLP>
-45.8149

> <Gold.PLP.part.hbond>
-2.0000

> <Gold.PLP.part.metal>
0.0000

> <Gold.PLP.part.buried>
-6.3977

> <Gold.PLP.part.nonpolar>
-38.0425

> <Gold.PLP.part.repulsive>
0.3697

> <Gold.PLP.ligand.clash>
0.0015

> <Gold.PLP.ligand.torsion>
1.3047

> <Gold.PLP.Chemscore.Hbond>
1.4220

> <Gold.PLP.Chemscore.CHOScore>
0.9711

> <Gold.PLP.Chemscore.Metal>
0.0000

> <Gold.Chemscore.Hbonds>
donor molecule, donor type, donor heavy atom, donor atom, acceptor molecule, acceptor atom, score
      P1  H  7989  7998       L1     6  0.80
      P1  H 10752 10765       L1     4  0.62
      L1  C     5    26       P1  7949  0.89

> <Gold.PLP.Chemscore.Internal.Correction>
0.0303

> <Gold.Rescore>
     Score         DG    S(hbond)    S(metal)    S(lipo)     H(rot)  DE(clash)    DE(int)     intcor
     11.22     -14.47       0.92        0.00     101.21       2.31       0.19       3.06       ----

> <Gold.Chemscore.Fitness>
11.2152

> <Gold.Chemscore.DG>
-14.4702

> <Gold.Chemscore.ZeroCoef>
-5.4800

> <Gold.Chemscore.Hbond>
0.9181

> <Gold.Chemscore.Metal>
0.0000

> <Gold.Chemscore.Lipo>
101.2074

> <Gold.Chemscore.Internal_Hbond>
0.0000

> <Gold.Chemscore.DEClash>
0.1906

> <Gold.Chemscore.DEInternal>
3.0644

> <Gold.Chemscore.Rot>
2.3115

> <Gold.Chemscore.Internal.Correction>
   9.000000E+99

> <Gold.Chemscore.Hbonds>
donor molecule, donor type, donor heavy atom, donor atom, acceptor molecule, acceptor atom, score
      P1  H  7989  7998       L1     6  0.12
      P1  H 10752 10765       L1     4  0.45

> <Gold.Chemscore.Hbond.Weighted>
-3.0664

> <Gold.Chemscore.Metal.Weighted>
-0.0000

> <Gold.Chemscore.Lipo.Weighted>
-11.8413

> <Gold.Chemscore.Internal_Hbond.Weighted>
0.0000

> <Gold.Chemscore.DEClash.Weighted>
0.1906

> <Gold.Chemscore.DEInternal.Weighted>
3.0644

> <Gold.Chemscore.Rot.Weighted>
5.9174

> <Gold.Chemscore.Internal.Correction.Weighted>
   9.000000E+99

> <Gold.Protein.RotatedTorsions>
[ 6907 6896 6895 6894 ] final  176.98 input  -60.11 | X-H torsion
[ 7974 7965 7964 7962 ] final   25.62 input  175.53 | X-H torsion
[ 8008 7997 7996 7995 ] final   48.14 input   59.86 | X-H torsion
[ 10167 10162 10161 10158 ] final  152.32 input  -65.29 | X-H torsion
[ 10718 10713 10712 10709 ] final  -44.38 input   66.30 | X-H torsion
[ 10763 10752 10751 10750 ] final  177.98 input  -60.55 | X-H torsion
[ 11005 11000 10999 10996 ] final  137.05 input  -57.11 | X-H torsion

> <Gold.Protein.ActiveResidues>
 VAL166  LYS551  ARG553  GLY616  TRP617  ASP618  TYR619  PRO620  LYS621  CYS622 
 ASP623  PHE694  ASN695  SER759  ASP760  ASP761  ALA762  ILE779  LEU786  VAL792 
 PHE793  MET794  SER795  GLU796  ALA797  LYS798  CYS799  TRP800  GLU811  SER814 

> <Gold.Protein.RotatedAtoms>
  151.7114  133.3312  159.3291 H   0  0  0  0  0  0  0  0  0  0  0  0  # atno 6907 bound_to 6896
  150.7692  134.6528  159.6307 H   0  0  0  0  0  0  0  0  0  0  0  0  # atno 6908 bound_to 6896
  152.3709  134.6738  160.0228 H   0  0  0  0  0  0  0  0  0  0  0  0  # atno 6909 bound_to 6896
  146.1879  139.7441  142.8853 H   0  0  0  0  0  0  0  0  0  0  0  0  # atno 7974 bound_to 7965
  155.3807  140.3428  155.4246 H   0  0  0  0  0  0  0  0  0  0  0  0  # atno 8008 bound_to 7997
  156.1612  140.1601  156.8642 H   0  0  0  0  0  0  0  0  0  0  0  0  # atno 8009 bound_to 7997
  154.5141  140.0782  156.8029 H   0  0  0  0  0  0  0  0  0  0  0  0  # atno 8010 bound_to 7997
  139.4834  144.5368  151.7632 H   0  0  0  0  0  0  0  0  0  0  0  0  # atno 10167 bound_to 10162
  156.2392  130.4178  149.8781 H   0  0  0  0  0  0  0  0  0  0  0  0  # atno 10718 bound_to 10713
  154.5016  135.2784  155.1416 H   0  0  0  0  0  0  0  0  0  0  0  0  # atno 10763 bound_to 10752
  154.3047  135.6241  153.5443 H   0  0  0  0  0  0  0  0  0  0  0  0  # atno 10764 bound_to 10752
  152.9903  135.5705  154.5460 H   0  0  0  0  0  0  0  0  0  0  0  0  # atno 10765 bound_to 10752
  140.0088  134.9448  157.0232 H   0  0  0  0  0  0  0  0  0  0  0  0  # atno 11005 bound_to 11000
  145.3881  141.0368  143.3139 LP  0  0  0  0  0  0  0  0  0  0  0  0  # atno 17320 bound_to 7965
  144.8432  139.5439  143.6891 LP  0  0  0  0  0  0  0  0  0  0  0  0  # atno 17321 bound_to 7965
  140.4901  144.1322  150.5948 LP  0  0  0  0  0  0  0  0  0  0  0  0  # atno 17342 bound_to 10162
  140.4180  143.2625  151.9750 LP  0  0  0  0  0  0  0  0  0  0  0  0  # atno 17343 bound_to 10162
  156.6369  130.8688  151.3506 LP  0  0  0  0  0  0  0  0  0  0  0  0  # atno 17370 bound_to 10713
  157.7168  130.9507  150.1284 LP  0  0  0  0  0  0  0  0  0  0  0  0  # atno 17371 bound_to 10713
  140.4593  134.1501  155.7189 LP  0  0  0  0  0  0  0  0  0  0  0  0  # atno 17394 bound_to 11000
  141.1696  133.8635  157.1611 LP  0  0  0  0  0  0  0  0  0  0  0  0  # atno 17395 bound_to 11000

$$$$
