AV-unprocessed.smi:462|AV-procd|sdf|2632|dock9
  -GOLD-   2262023 43D 1   1.00000     0.00000
 Structure written by MMmdl.
 46 48  0  0  0  0  0  0  0  0  1 V2000
  154.8585  138.3943  153.7349 C   0  0  0  0  0  0  0  0  0  0  0  0
  154.4185  138.5311  155.0775 O   0  0  0  0  0  0  0  0  0  0  0  0
  153.0610  138.5464  155.3250 C   0  0  0  0  0  0  0  0  0  0  0  0
  152.0764  138.3480  154.3244 C   0  0  0  0  0  0  0  0  0  0  0  0
  150.7089  138.3755  154.6539 C   0  0  0  0  0  0  0  0  0  0  0  0
  150.3099  138.6020  155.9823 C   0  0  0  0  0  0  0  0  0  0  0  0
  151.2783  138.8004  156.9830 C   0  0  0  0  0  0  0  0  0  0  0  0
  152.6584  138.7725  156.6611 C   0  0  0  0  0  0  0  0  0  0  0  0
  153.6633  138.9563  157.5858 O   0  0  0  0  0  0  0  0  0  0  0  0
  153.3172  139.2915  158.9218 C   0  0  0  0  0  0  0  0  0  0  0  0
  154.5943  139.6958  159.6760 C   0  0  0  0  0  0  0  0  0  0  0  0
  154.3179  140.6007  160.7870 N   0  0  0  0  0  0  0  0  0  0  0  0
  154.6968  140.5215  162.0976 C   0  0  0  0  0  0  0  0  0  0  0  0
  155.4813  139.3688  162.7017 C   0  0  0  0  0  0  0  0  0  0  0  0
  155.7523  139.5882  164.2053 C   0  0  0  0  0  0  0  0  0  0  0  0
  154.7406  138.0395  162.4796 C   0  0  0  0  0  0  0  0  0  0  0  0
  156.7793  139.2262  162.1584 O   0  0  0  0  0  0  0  0  0  0  0  0
  154.2051  141.4881  162.8797 N   0  0  0  0  0  0  0  0  0  0  0  0
  153.5145  142.2942  162.0012 C   0  0  0  0  0  0  0  0  0  0  0  0
  152.8041  143.4958  162.2227 C   0  0  0  0  0  0  0  0  0  0  0  0
  152.1590  144.1508  161.1535 C   0  0  0  0  0  0  0  0  0  0  0  0
  152.2117  143.6115  159.8523 C   0  0  0  0  0  0  0  0  0  0  0  0
  152.9100  142.4124  159.6140 C   0  0  0  0  0  0  0  0  0  0  0  0
  153.5602  141.7661  160.6836 C   0  0  0  0  0  0  0  0  0  0  0  0
  155.9483  138.3810  153.7154 H   0  0  0  0  0  0  0  0  0  0  0  0
  154.5277  139.2318  153.1192 H   0  0  0  0  0  0  0  0  0  0  0  0
  154.5100  137.4595  153.2937 H   0  0  0  0  0  0  0  0  0  0  0  0
  152.3450  138.1720  153.2940 H   0  0  0  0  0  0  0  0  0  0  0  0
  149.9653  138.2227  153.8857 H   0  0  0  0  0  0  0  0  0  0  0  0
  149.2600  138.6238  156.2345 H   0  0  0  0  0  0  0  0  0  0  0  0
  150.9370  138.9733  157.9924 H   0  0  0  0  0  0  0  0  0  0  0  0
  152.6090  140.1210  158.9286 H   0  0  0  0  0  0  0  0  0  0  0  0
  152.8452  138.4400  159.4133 H   0  0  0  0  0  0  0  0  0  0  0  0
  155.0769  138.8031  160.0750 H   0  0  0  0  0  0  0  0  0  0  0  0
  155.3259  140.1412  159.0042 H   0  0  0  0  0  0  0  0  0  0  0  0
  154.8260  139.6395  164.7787 H   0  0  0  0  0  0  0  0  0  0  0  0
  156.2995  140.5158  164.3795 H   0  0  0  0  0  0  0  0  0  0  0  0
  156.3421  138.7746  164.6296 H   0  0  0  0  0  0  0  0  0  0  0  0
  153.7497  138.0625  162.9344 H   0  0  0  0  0  0  0  0  0  0  0  0
  155.2831  137.2003  162.9165 H   0  0  0  0  0  0  0  0  0  0  0  0
  154.6083  137.8293  161.4178 H   0  0  0  0  0  0  0  0  0  0  0  0
  157.2237  138.5341  162.6233 H   0  0  0  0  0  0  0  0  0  0  0  0
  152.7573  143.9146  163.2169 H   0  0  0  0  0  0  0  0  0  0  0  0
  151.6211  145.0702  161.3329 H   0  0  0  0  0  0  0  0  0  0  0  0
  151.7167  144.1184  159.0370 H   0  0  0  0  0  0  0  0  0  0  0  0
  152.9534  142.0003  158.6167 H   0  0  0  0  0  0  0  0  0  0  0  0
  1  2  1  0  0  0  0
  1 25  1  0  0  0  0
  1 26  1  0  0  0  0
  1 27  1  0  0  0  0
  2  3  1  0  0  0  0
  3  8  1  0  0  0  0
  3  4  2  0  0  0  0
  4  5  1  0  0  0  0
  4 28  1  0  0  0  0
  5  6  2  0  0  0  0
  5 29  1  0  0  0  0
  6  7  1  0  0  0  0
  6 30  1  0  0  0  0
  7  8  2  0  0  0  0
  7 31  1  0  0  0  0
  8  9  1  0  0  0  0
  9 10  1  0  0  0  0
 10 11  1  0  0  0  0
 10 32  1  0  0  0  0
 10 33  1  0  0  0  0
 11 12  1  0  0  0  0
 11 34  1  0  0  0  0
 11 35  1  0  0  0  0
 12 24  1  0  0  0  0
 12 13  1  0  0  0  0
 13 14  1  0  0  0  0
 13 18  2  0  0  0  0
 14 15  1  0  0  0  0
 14 16  1  0  0  0  0
 14 17  1  0  0  0  0
 15 36  1  0  0  0  0
 15 37  1  0  0  0  0
 15 38  1  0  0  0  0
 16 39  1  0  0  0  0
 16 40  1  0  0  0  0
 16 41  1  0  0  0  0
 17 42  1  0  0  0  0
 18 19  1  0  0  0  0
 19 24  2  0  0  0  0
 19 20  1  0  0  0  0
 20 21  2  0  0  0  0
 20 43  1  0  0  0  0
 21 22  1  0  0  0  0
 21 44  1  0  0  0  0
 22 23  2  0  0  0  0
 22 45  1  0  0  0  0
 23 24  1  0  0  0  0
 23 46  1  0  0  0  0
M  END
> <s_m_source_file>
AV-unprocessed.smi

> <i_m_source_file_index>
462

> <i_lp_mmshare_version>
43012

> <i_f3d_flags>
0

> <s_epik_input>
W0NIM11PYzFbY0hdW2NIXVtjSF1bY0hdYzFPW0NIMl1bQ0gyXW4oYyhuMilDKFtDSDNdKShbQ0gzXSlbT0hdKWMoYzIzKVtjSF1bY0hdW2NIXVtjSF0z

> <s_epik_cmdline>
J2VwaWtfcHl0aG9uJywgJy1waCcsICc3LjAnLCAnLXRuJywgJzgnLCAnLW1hJywgJzIwMCcsICctbWV0YWxfYmluZGluZycsICctaW1hZScsICc8aW5maWxlLm1hZT4nLCAnLW9tYWUnLCAnPG91dGZpbGUubWFlPic=

> <r_lp_tautomer_probability>
1

> <r_epik_Ionization_Penalty>
0.0665975

> <r_epik_Ionization_Penalty_Charging>
0

> <r_epik_Ionization_Penalty_Neutral>
0.0665975

> <r_epik_State_Penalty>
0.0581545

> <r_epik_Charging_Adjusted_Penalty>
0.0581545

> <i_epik_Tot_Q>
0

> <i_epik_Tot_abs_Q>
0

> <r_epik_Metal_State_Penalty>
6.11011e-05

> <b_epik_Metal_Only>
0

> <s_lp_Force_Field>
OPLS_2005

> <r_lp_Energy>
19.5197

> <b_lp_Chiralities_Consistent>
1

> <s_lp_Variant>
AV-unprocessed.smi:462-1

> <Gold.Version>
5.8.1

> <Gold.Id.Protein>
6NUR|6NUR_protein|mol2

> <Gold.PLP.Fitness>
51.7710

> <Gold.PLP.PLP>
-48.1106

> <Gold.PLP.part.hbond>
-2.5120

> <Gold.PLP.part.metal>
0.0000

> <Gold.PLP.part.buried>
-3.4287

> <Gold.PLP.part.nonpolar>
-41.3731

> <Gold.PLP.part.repulsive>
0.0089

> <Gold.PLP.ligand.clash>
0.0000

> <Gold.PLP.ligand.torsion>
0.3443

> <Gold.PLP.Chemscore.Hbond>
1.4160

> <Gold.PLP.Chemscore.CHOScore>
0.0000

> <Gold.PLP.Chemscore.Metal>
0.0000

> <Gold.Chemscore.Hbonds>
donor molecule, donor type, donor heavy atom, donor atom, acceptor molecule, acceptor atom, score
      P1  H  7997  8008       L1     2  0.42
      P1  H  7997  8010       L1     9  1.00

> <Gold.PLP.Chemscore.Internal.Correction>
0.1010

> <Gold.Rescore>
     Score         DG    S(hbond)    S(metal)    S(lipo)     H(rot)  DE(clash)    DE(int)     intcor
     17.94     -19.88       0.94        0.00     145.49       2.25       1.63       0.30       ----

> <Gold.Chemscore.Fitness>
17.9428

> <Gold.Chemscore.DG>
-19.8777

> <Gold.Chemscore.ZeroCoef>
-5.4800

> <Gold.Chemscore.Hbond>
0.9417

> <Gold.Chemscore.Metal>
0.0000

> <Gold.Chemscore.Lipo>
145.4933

> <Gold.Chemscore.Internal_Hbond>
0.0000

> <Gold.Chemscore.DEClash>
1.6324

> <Gold.Chemscore.DEInternal>
0.3025

> <Gold.Chemscore.Rot>
2.2541

> <Gold.Chemscore.Internal.Correction>
   9.000000E+99

> <Gold.Chemscore.Hbonds>
donor molecule, donor type, donor heavy atom, donor atom, acceptor molecule, acceptor atom, score
      P1  H  7997  8008       L1     2  0.06
      P1  H  7997  8010       L1     9  0.45

> <Gold.Chemscore.Hbond.Weighted>
-3.1454

> <Gold.Chemscore.Metal.Weighted>
-0.0000

> <Gold.Chemscore.Lipo.Weighted>
-17.0227

> <Gold.Chemscore.Internal_Hbond.Weighted>
0.0000

> <Gold.Chemscore.DEClash.Weighted>
1.6324

> <Gold.Chemscore.DEInternal.Weighted>
0.3025

> <Gold.Chemscore.Rot.Weighted>
5.7705

> <Gold.Chemscore.Internal.Correction.Weighted>
   9.000000E+99

> <Gold.Protein.RotatedTorsions>
[ 6907 6896 6895 6894 ] final    0.64 input  -60.11 | X-H torsion
[ 7974 7965 7964 7962 ] final -108.99 input  175.53 | X-H torsion
[ 8008 7997 7996 7995 ] final   22.02 input   59.86 | X-H torsion
[ 10167 10162 10161 10158 ] final    6.29 input  -65.29 | X-H torsion
[ 10718 10713 10712 10709 ] final -178.42 input   66.30 | X-H torsion
[ 10763 10752 10751 10750 ] final  136.24 input  -60.55 | X-H torsion
[ 11005 11000 10999 10996 ] final   37.86 input  -57.11 | X-H torsion

> <Gold.Protein.ActiveResidues>
 VAL166  LYS551  ARG553  GLY616  TRP617  ASP618  TYR619  PRO620  LYS621  CYS622 
 ASP623  PHE694  ASN695  SER759  ASP760  ASP761  ALA762  ILE779  LEU786  VAL792 
 PHE793  MET794  SER795  GLU796  ALA797  LYS798  CYS799  TRP800  GLU811  SER814 

> <Gold.Protein.RotatedAtoms>
  151.5798  135.1059  160.0014 H   0  0  0  0  0  0  0  0  0  0  0  0  # atno 6907 bound_to 6896
  152.4360  133.7357  159.6623 H   0  0  0  0  0  0  0  0  0  0  0  0  # atno 6908 bound_to 6896
  150.8257  133.8105  159.3142 H   0  0  0  0  0  0  0  0  0  0  0  0  # atno 6909 bound_to 6896
  145.1860  140.8993  143.3452 H   0  0  0  0  0  0  0  0  0  0  0  0  # atno 7974 bound_to 7965
  154.9594  140.3076  155.5038 H   0  0  0  0  0  0  0  0  0  0  0  0  # atno 8008 bound_to 7997
  156.2979  140.2304  156.4616 H   0  0  0  0  0  0  0  0  0  0  0  0  # atno 8009 bound_to 7997
  154.7979  140.0436  157.1239 H   0  0  0  0  0  0  0  0  0  0  0  0  # atno 8010 bound_to 7997
  140.6436  143.7716  150.7464 H   0  0  0  0  0  0  0  0  0  0  0  0  # atno 10167 bound_to 10162
  156.8441  130.9696  151.3097 H   0  0  0  0  0  0  0  0  0  0  0  0  # atno 10718 bound_to 10713
  153.8533  135.3076  155.3434 H   0  0  0  0  0  0  0  0  0  0  0  0  # atno 10763 bound_to 10752
  154.7882  135.4798  153.9995 H   0  0  0  0  0  0  0  0  0  0  0  0  # atno 10764 bound_to 10752
  153.1505  135.6842  153.8982 H   0  0  0  0  0  0  0  0  0  0  0  0  # atno 10765 bound_to 10752
  140.2184  134.3671  155.8016 H   0  0  0  0  0  0  0  0  0  0  0  0  # atno 11005 bound_to 11000
  145.0088  139.3529  143.6130 LP  0  0  0  0  0  0  0  0  0  0  0  0  # atno 17320 bound_to 7965
  146.3445  139.9342  142.8749 LP  0  0  0  0  0  0  0  0  0  0  0  0  # atno 17321 bound_to 7965
  140.1353  143.4490  152.2229 LP  0  0  0  0  0  0  0  0  0  0  0  0  # atno 17342 bound_to 10162
  139.5645  144.7427  151.4060 LP  0  0  0  0  0  0  0  0  0  0  0  0  # atno 17343 bound_to 10162
  157.6340  130.8751  149.9324 LP  0  0  0  0  0  0  0  0  0  0  0  0  # atno 17370 bound_to 10713
  156.0864  130.3667  150.0479 LP  0  0  0  0  0  0  0  0  0  0  0  0  # atno 17371 bound_to 10713
  141.2224  133.7180  156.8534 LP  0  0  0  0  0  0  0  0  0  0  0  0  # atno 17394 bound_to 11000
  140.1876  134.8988  157.3023 LP  0  0  0  0  0  0  0  0  0  0  0  0  # atno 17395 bound_to 11000

$$$$
