AV-unprocessed.smi:1252|AV-procd|sdf|5265|dock4
  -GOLD-   22720 4383D 1   1.00000     0.00000
 Structure written by MMmdl.
 43 44  0  0  0  0  0  0  0  0  1 V2000
  144.1646  135.8236  151.4046 C   0  0  0  0  0  0  0  0  0  0  0  0
  145.4657  134.9997  151.4946 C   0  0  1  0  0  0  0  0  0  0  0  0
  145.9118  134.7316  152.9426 C   0  0  0  0  0  0  0  0  0  0  0  0
  145.3541  133.8771  153.6319 O   0  0  0  0  0  0  0  0  0  0  0  0
  146.9299  135.4794  153.3917 N   0  0  0  0  0  0  0  0  0  0  0  0
  147.5532  135.3573  154.7045 C   0  0  0  0  0  0  0  0  0  0  0  0
  147.6237  136.7287  155.4352 C   0  0  0  0  0  0  0  0  0  0  0  0
  146.1881  137.3061  155.4703 C   0  0  0  0  0  0  0  0  0  0  0  0
  148.0325  136.4184  156.8987 C   0  0  0  0  0  0  0  0  0  0  0  0
  148.6058  137.6442  154.7884 N   0  0  0  0  0  0  0  0  0  0  0  0
  148.4950  139.0512  155.1914 C   0  0  0  0  0  0  0  0  0  0  0  0
  149.4484  139.9573  154.3945 C   0  0  0  0  0  0  0  0  0  0  0  0
  150.7857  139.4993  154.5515 O   0  0  0  0  0  0  0  0  0  0  0  0
  150.9528  138.1550  154.1176 C   0  0  0  0  0  0  0  0  0  0  0  0
  150.0090  137.2321  154.9075 C   0  0  0  0  0  0  0  0  0  0  0  0
  145.3723  133.7466  150.7531 N   0  0  0  0  0  0  0  0  0  0  0  0
  144.3881  133.2781  149.9823 C   0  0  0  0  0  0  0  0  0  0  0  0
  144.6621  132.1171  149.4042 N   0  0  0  0  0  0  0  0  0  0  0  0
  145.9238  131.9146  149.8872 C   0  0  0  0  0  0  0  0  0  0  0  0
  146.4012  132.8647  150.6907 N   0  0  0  0  0  0  0  0  0  0  0  0
  144.2809  136.7966  151.8829 H   0  0  0  0  0  0  0  0  0  0  0  0
  143.3261  135.3172  151.8845 H   0  0  0  0  0  0  0  0  0  0  0  0
  143.8897  136.0035  150.3649 H   0  0  0  0  0  0  0  0  0  0  0  0
  146.2556  135.5889  151.0257 H   0  0  0  0  0  0  0  0  0  0  0  0
  147.3270  136.1677  152.7686 H   0  0  0  0  0  0  0  0  0  0  0  0
  147.0068  134.6171  155.2895 H   0  0  0  0  0  0  0  0  0  0  0  0
  148.5580  134.9467  154.5871 H   0  0  0  0  0  0  0  0  0  0  0  0
  145.5016  136.6158  155.9618 H   0  0  0  0  0  0  0  0  0  0  0  0
  145.7914  137.4826  154.4707 H   0  0  0  0  0  0  0  0  0  0  0  0
  146.1345  138.2456  156.0196 H   0  0  0  0  0  0  0  0  0  0  0  0
  147.4227  135.6206  157.3245 H   0  0  0  0  0  0  0  0  0  0  0  0
  147.9041  137.2791  157.5549 H   0  0  0  0  0  0  0  0  0  0  0  0
  149.0742  136.1023  156.9696 H   0  0  0  0  0  0  0  0  0  0  0  0
  147.4831  139.4219  155.0404 H   0  0  0  0  0  0  0  0  0  0  0  0
  148.7166  139.1581  156.2534 H   0  0  0  0  0  0  0  0  0  0  0  0
  149.1790  139.9656  153.3370 H   0  0  0  0  0  0  0  0  0  0  0  0
  149.3799  140.9851  154.7506 H   0  0  0  0  0  0  0  0  0  0  0  0
  150.7554  138.0836  153.0469 H   0  0  0  0  0  0  0  0  0  0  0  0
  151.9900  137.8575  154.2721 H   0  0  0  0  0  0  0  0  0  0  0  0
  150.3146  137.2299  155.9538 H   0  0  0  0  0  0  0  0  0  0  0  0
  150.1506  136.2197  154.5334 H   0  0  0  0  0  0  0  0  0  0  0  0
  143.4553  133.8021  149.8336 H   0  0  0  0  0  0  0  0  0  0  0  0
  146.5108  131.0443  149.6333 H   0  0  0  0  0  0  0  0  0  0  0  0
  1  2  1  0  0  0  0
  1 21  1  0  0  0  0
  1 22  1  0  0  0  0
  1 23  1  0  0  0  0
  2  3  1  0  0  0  0
  2 16  1  0  0  0  0
  2 24  1  0  0  0  0
  3  4  2  0  0  0  0
  3  5  1  0  0  0  0
  5  6  1  0  0  0  0
  5 25  1  0  0  0  0
  6  7  1  0  0  0  0
  6 26  1  0  0  0  0
  6 27  1  0  0  0  0
  7  8  1  0  0  0  0
  7  9  1  0  0  0  0
  7 10  1  0  0  0  0
  8 28  1  0  0  0  0
  8 29  1  0  0  0  0
  8 30  1  0  0  0  0
  9 31  1  0  0  0  0
  9 32  1  0  0  0  0
  9 33  1  0  0  0  0
 10 15  1  0  0  0  0
 10 11  1  0  0  0  0
 11 12  1  0  0  0  0
 11 34  1  0  0  0  0
 11 35  1  0  0  0  0
 12 13  1  0  0  0  0
 12 36  1  0  0  0  0
 12 37  1  0  0  0  0
 13 14  1  0  0  0  0
 14 15  1  0  0  0  0
 14 38  1  0  0  0  0
 14 39  1  0  0  0  0
 15 40  1  0  0  0  0
 15 41  1  0  0  0  0
 16 20  1  0  0  0  0
 16 17  1  0  0  0  0
 17 18  2  0  0  0  0
 17 42  1  0  0  0  0
 18 19  1  0  0  0  0
 19 20  2  0  0  0  0
 19 43  1  0  0  0  0
M  END
> <s_m_source_file>
AV-unprocessed.smi

> <i_m_source_file_index>
1252

> <i_lp_mmshare_version>
43012

> <i_f3d_flags>
0

> <s_epik_input>
bjFbY0hdbltjSF1uMVtDQEhdKFtDSDNdKUMoPU8pW05IXVtDSDJdQyhbQ0gzXSkoW0NIM10pTjJbQ0gyXVtDSDJdT1tDSDJdW0NIMl0y

> <s_epik_cmdline>
J2VwaWtfcHl0aG9uJywgJy1waCcsICc3LjAnLCAnLXRuJywgJzgnLCAnLW1hJywgJzIwMCcsICctbWV0YWxfYmluZGluZycsICctaW1hZScsICc8aW5maWxlLm1hZT4nLCAnLW9tYWUnLCAnPG91dGZpbGUubWFlPic=

> <r_lp_tautomer_probability>
1

> <r_epik_Ionization_Penalty>
0.211373

> <r_epik_Ionization_Penalty_Charging>
0

> <r_epik_Ionization_Penalty_Neutral>
0.211373

> <r_epik_State_Penalty>
0.201459

> <r_epik_Charging_Adjusted_Penalty>
0.201459

> <i_epik_Tot_Q>
0

> <i_epik_Tot_abs_Q>
0

> <r_epik_Metal_State_Penalty>
0.201458

> <b_epik_Metal_Only>
0

> <s_lp_Force_Field>
OPLS_2005

> <r_lp_Energy>
47.0271

> <b_lp_Chiralities_Consistent>
1

> <s_lp_Variant>
AV-unprocessed.smi:1252-2

> <Gold.Version>
5.8.1

> <Gold.Id.Protein>
6NUR|6NUR_protein|mol2

> <Gold.PLP.Fitness>
35.0707

> <Gold.PLP.PLP>
-25.9619

> <Gold.PLP.part.hbond>
-2.4187

> <Gold.PLP.part.metal>
0.0000

> <Gold.PLP.part.buried>
-5.6148

> <Gold.PLP.part.nonpolar>
-18.7119

> <Gold.PLP.part.repulsive>
0.7161

> <Gold.PLP.ligand.clash>
0.0000

> <Gold.PLP.ligand.torsion>
0.7417

> <Gold.PLP.Chemscore.Hbond>
1.6240

> <Gold.PLP.Chemscore.CHOScore>
1.8506

> <Gold.PLP.Chemscore.Metal>
0.0000

> <Gold.Chemscore.Hbonds>
donor molecule, donor type, donor heavy atom, donor atom, acceptor molecule, acceptor atom, score
      L1  H     5    25       P1  7948  0.64
      P1  H  7989  7998       L1    13  0.85
      L1  C    17    42       P1 10186  0.98
      L1  C    19    43       P1 10747  0.85

> <Gold.PLP.Chemscore.Internal.Correction>
0.1683

> <Gold.Rescore>
     Score         DG    S(hbond)    S(metal)    S(lipo)     H(rot)  DE(clash)    DE(int)     intcor
      7.68      -8.94       1.68        0.00      36.55       2.52       0.63       0.63       ----

> <Gold.Chemscore.Fitness>
7.6818

> <Gold.Chemscore.DG>
-8.9415

> <Gold.Chemscore.ZeroCoef>
-5.4800

> <Gold.Chemscore.Hbond>
1.6839

> <Gold.Chemscore.Metal>
0.0000

> <Gold.Chemscore.Lipo>
36.5494

> <Gold.Chemscore.Internal_Hbond>
0.0000

> <Gold.Chemscore.DEClash>
0.6307

> <Gold.Chemscore.DEInternal>
0.6289

> <Gold.Chemscore.Rot>
2.5153

> <Gold.Chemscore.Internal.Correction>
   9.000000E+99

> <Gold.Chemscore.Hbonds>
donor molecule, donor type, donor heavy atom, donor atom, acceptor molecule, acceptor atom, score
      L1  H     5    25       P1  7948  0.64
      P1  H  7989  7998       L1    13  0.14

> <Gold.Chemscore.Hbond.Weighted>
-5.6244

> <Gold.Chemscore.Metal.Weighted>
-0.0000

> <Gold.Chemscore.Lipo.Weighted>
-4.2763

> <Gold.Chemscore.Internal_Hbond.Weighted>
0.0000

> <Gold.Chemscore.DEClash.Weighted>
0.6307

> <Gold.Chemscore.DEInternal.Weighted>
0.6289

> <Gold.Chemscore.Rot.Weighted>
6.4392

> <Gold.Chemscore.Internal.Correction.Weighted>
   9.000000E+99

> <Gold.Protein.RotatedTorsions>
[ 6907 6896 6895 6894 ] final  -50.43 input  -60.11 | X-H torsion
[ 7974 7965 7964 7962 ] final    3.28 input  175.53 | X-H torsion
[ 8008 7997 7996 7995 ] final -104.23 input   59.86 | X-H torsion
[ 10167 10162 10161 10158 ] final   60.05 input  -65.29 | X-H torsion
[ 10718 10713 10712 10709 ] final   74.95 input   66.30 | X-H torsion
[ 10763 10752 10751 10750 ] final   80.05 input  -60.55 | X-H torsion
[ 11005 11000 10999 10996 ] final  -70.13 input  -57.11 | X-H torsion

> <Gold.Protein.ActiveResidues>
 VAL166  LYS551  ARG553  GLY616  TRP617  ASP618  TYR619  PRO620  LYS621  CYS622 
 ASP623  PHE694  ASN695  SER759  ASP760  ASP761  ALA762  ILE779  LEU786  VAL792 
 PHE793  MET794  SER795  GLU796  ALA797  LYS798  CYS799  TRP800  GLU811  SER814 

> <Gold.Protein.RotatedAtoms>
  150.8708  134.8082  159.7153 H   0  0  0  0  0  0  0  0  0  0  0  0  # atno 6907 bound_to 6896
  152.4713  134.4949  159.9717 H   0  0  0  0  0  0  0  0  0  0  0  0  # atno 6908 bound_to 6896
  151.5038  133.3460  159.2909 H   0  0  0  0  0  0  0  0  0  0  0  0  # atno 6909 bound_to 6896
  146.2445  140.0709  142.8362 H   0  0  0  0  0  0  0  0  0  0  0  0  # atno 7974 bound_to 7965
  154.8823  140.0419  157.1789 H   0  0  0  0  0  0  0  0  0  0  0  0  # atno 8008 bound_to 7997
  154.8626  140.2946  155.5508 H   0  0  0  0  0  0  0  0  0  0  0  0  # atno 8009 bound_to 7997
  156.2998  140.2444  156.3603 H   0  0  0  0  0  0  0  0  0  0  0  0  # atno 8010 bound_to 7997
  140.1698  144.4288  150.6667 H   0  0  0  0  0  0  0  0  0  0  0  0  # atno 10167 bound_to 10162
  157.6614  130.9702  150.1283 H   0  0  0  0  0  0  0  0  0  0  0  0  # atno 10718 bound_to 10713
  153.1002  135.4817  154.8852 H   0  0  0  0  0  0  0  0  0  0  0  0  # atno 10763 bound_to 10752
  154.7370  135.3073  154.8797 H   0  0  0  0  0  0  0  0  0  0  0  0  # atno 10764 bound_to 10752
  153.9416  135.6833  153.4797 H   0  0  0  0  0  0  0  0  0  0  0  0  # atno 10765 bound_to 10752
  141.1568  133.6782  156.6706 H   0  0  0  0  0  0  0  0  0  0  0  0  # atno 11005 bound_to 11000
  145.0817  140.9225  143.4821 LP  0  0  0  0  0  0  0  0  0  0  0  0  # atno 17320 bound_to 7965
  145.0863  139.2922  143.5757 LP  0  0  0  0  0  0  0  0  0  0  0  0  # atno 17321 bound_to 7965
  140.6589  143.2246  151.5902 LP  0  0  0  0  0  0  0  0  0  0  0  0  # atno 17342 bound_to 10162
  139.5343  144.2826  152.1217 LP  0  0  0  0  0  0  0  0  0  0  0  0  # atno 17343 bound_to 10162
  156.2137  130.3668  149.8640 LP  0  0  0  0  0  0  0  0  0  0  0  0  # atno 17370 bound_to 10713
  156.6511  130.8744  151.3531 LP  0  0  0  0  0  0  0  0  0  0  0  0  # atno 17371 bound_to 10713
  140.3178  134.8033  157.4228 LP  0  0  0  0  0  0  0  0  0  0  0  0  # atno 17394 bound_to 11000
  140.1123  134.5329  155.8255 LP  0  0  0  0  0  0  0  0  0  0  0  0  # atno 17395 bound_to 11000

$$$$
