AV-unprocessed.smi:3274|AV-procd|sdf|12528|dock5
  -GOLD-   2272018443D 1   1.00000     0.00000
 Structure written by MMmdl.
 43 44  0  0  0  0  0  0  0  0  2 V2000
  152.0714  140.1455  157.6515 C   0  0  0  0  0  0  0  0  0  0  0  0
  152.2413  141.2553  158.6748 C   0  0  0  0  0  0  0  0  0  0  0  0
  152.8971  141.0090  159.8250 C   0  0  0  0  0  0  0  0  0  0  0  0
  153.1867  142.0504  160.8811 C   0  0  0  0  0  0  0  0  0  0  0  0
  153.1036  143.4630  160.2981 C   0  0  0  0  0  0  0  0  0  0  0  0
  151.8043  143.6665  159.5017 C   0  0  1  0  0  0  0  0  0  0  0  0
  151.7235  145.1289  159.0210 C   0  0  0  0  0  0  0  0  0  0  0  0
  151.6614  142.6433  158.3325 C   0  0  2  0  0  0  0  0  0  0  0  0
  150.1856  142.5727  157.8585 C   0  0  0  0  0  0  0  0  0  0  0  0
  150.0595  142.1670  156.4412 N   0  3  0  0  0  0  0  0  0  0  0  0
  149.0747  141.0937  156.1690 C   0  0  1  0  0  0  0  0  0  0  0  0
  147.6391  141.5693  156.4501 C   0  0  0  0  0  0  0  0  0  0  0  0
  149.2094  140.6029  154.7144 C   0  0  0  0  0  0  0  0  0  0  0  0
  150.2827  139.6386  154.5539 N   0  0  0  0  0  0  0  0  0  0  0  0
  150.2645  138.3878  154.0903 C   0  0  0  0  0  0  0  0  0  0  0  0
  151.4511  137.7972  154.1000 N   0  0  0  0  0  0  0  0  0  0  0  0
  152.2096  138.8140  154.6074 C   0  0  0  0  0  0  0  0  0  0  0  0
  151.5559  139.9383  154.9017 N   0  0  0  0  0  0  0  0  0  0  0  0
  152.4077  140.4782  156.6695 H   0  0  0  0  0  0  0  0  0  0  0  0
  151.0294  139.8334  157.5850 H   0  0  0  0  0  0  0  0  0  0  0  0
  152.6566  139.2649  157.9186 H   0  0  0  0  0  0  0  0  0  0  0  0
  153.2661  140.0148  160.0329 H   0  0  0  0  0  0  0  0  0  0  0  0
  152.4775  141.9249  161.6999 H   0  0  0  0  0  0  0  0  0  0  0  0
  154.1829  141.8783  161.2899 H   0  0  0  0  0  0  0  0  0  0  0  0
  153.1755  144.1917  161.1065 H   0  0  0  0  0  0  0  0  0  0  0  0
  153.9615  143.6392  159.6473 H   0  0  0  0  0  0  0  0  0  0  0  0
  150.9796  143.5011  160.1974 H   0  0  0  0  0  0  0  0  0  0  0  0
  152.5144  145.3535  158.3046 H   0  0  0  0  0  0  0  0  0  0  0  0
  151.8348  145.8198  159.8573 H   0  0  0  0  0  0  0  0  0  0  0  0
  150.7717  145.3615  158.5462 H   0  0  0  0  0  0  0  0  0  0  0  0
  152.2687  143.0150  157.5055 H   0  0  0  0  0  0  0  0  0  0  0  0
  149.6322  141.8803  158.4947 H   0  0  0  0  0  0  0  0  0  0  0  0
  149.6976  143.5390  157.9641 H   0  0  0  0  0  0  0  0  0  0  0  0
  149.8321  142.9765  155.8816 H   0  0  0  0  0  0  0  0  0  0  0  0
  149.2947  140.2522  156.8281 H   0  0  0  0  0  0  0  0  0  0  0  0
  146.9156  140.7912  156.2049 H   0  0  0  0  0  0  0  0  0  0  0  0
  147.3891  142.4507  155.8584 H   0  0  0  0  0  0  0  0  0  0  0  0
  147.4929  141.8188  157.5009 H   0  0  0  0  0  0  0  0  0  0  0  0
  148.2835  140.1250  154.3915 H   0  0  0  0  0  0  0  0  0  0  0  0
  149.3782  141.4425  154.0376 H   0  0  0  0  0  0  0  0  0  0  0  0
  149.3659  137.8975  153.7452 H   0  0  0  0  0  0  0  0  0  0  0  0
  153.2732  138.7204  154.7719 H   0  0  0  0  0  0  0  0  0  0  0  0
  150.9638  141.8239  156.1486 H   0  0  0  0  0  0  0  0  0  0  0  0
  1  2  1  0  0  0  0
  1 19  1  0  0  0  0
  1 20  1  0  0  0  0
  1 21  1  0  0  0  0
  2  8  1  0  0  0  0
  2  3  2  0  0  0  0
  3  4  1  0  0  0  0
  3 22  1  0  0  0  0
  4  5  1  0  0  0  0
  4 23  1  0  0  0  0
  4 24  1  0  0  0  0
  5  6  1  0  0  0  0
  5 25  1  0  0  0  0
  5 26  1  0  0  0  0
  6  7  1  0  0  0  0
  6  8  1  0  0  0  0
  6 27  1  0  0  0  0
  7 28  1  0  0  0  0
  7 29  1  0  0  0  0
  7 30  1  0  0  0  0
  8  9  1  0  0  0  0
  8 31  1  0  0  0  0
  9 10  1  0  0  0  0
  9 32  1  0  0  0  0
  9 33  1  0  0  0  0
 10 11  1  0  0  0  0
 10 34  1  0  0  0  0
 10 43  1  0  0  0  0
 11 12  1  0  0  0  0
 11 13  1  0  0  0  0
 11 35  1  0  0  0  0
 12 36  1  0  0  0  0
 12 37  1  0  0  0  0
 12 38  1  0  0  0  0
 13 14  1  0  0  0  0
 13 39  1  0  0  0  0
 13 40  1  0  0  0  0
 14 18  1  0  0  0  0
 14 15  1  0  0  0  0
 15 16  2  0  0  0  0
 15 41  1  0  0  0  0
 16 17  1  0  0  0  0
 17 18  2  0  0  0  0
 17 42  1  0  0  0  0
M  CHG  1  10   1
M  END
> <s_m_source_file>
AV-unprocessed.smi

> <i_m_source_file_index>
3274

> <i_lp_mmshare_version>
43012

> <i_f3d_flags>
0

> <s_epik_input>
W0NIM11DMT1bQ0hdW0NIMl1bQ0gyXVtDQEBIXShbQ0gzXSlbQ0BIXTFbQ0gyXVtOSF1bQ0BIXShbQ0gzXSlbQ0gyXW4yW2NIXW5bY0hdbjI=

> <s_epik_cmdline>
J2VwaWtfcHl0aG9uJywgJy1waCcsICc3LjAnLCAnLXRuJywgJzgnLCAnLW1hJywgJzIwMCcsICctbWV0YWxfYmluZGluZycsICctaW1hZScsICc8aW5maWxlLm1hZT4nLCAnLW9tYWUnLCAnPG91dGZpbGUubWFlPic=

> <r_lp_tautomer_probability>
1

> <r_epik_Ionization_Penalty>
0.0017527

> <r_epik_Ionization_Penalty_Charging>
0.00175191

> <r_epik_Ionization_Penalty_Neutral>
7.94565e-07

> <r_epik_State_Penalty>
0.00118605

> <r_epik_Charging_Adjusted_Penalty>
0.00293796

> <i_epik_Tot_Q>
1

> <i_epik_Tot_abs_Q>
1

> <r_epik_Metal_State_Penalty>
-0

> <b_epik_Metal_Only>
0

> <s_lp_Force_Field>
OPLS_2005

> <r_lp_Energy>
17.2451

> <b_lp_Chiralities_Consistent>
1

> <s_lp_Variant>
AV-unprocessed.smi:3274-7

> <Gold.Version>
5.8.1

> <Gold.Id.Protein>
6NUR|6NUR_protein|mol2

> <Gold.PLP.Fitness>
49.5726

> <Gold.PLP.PLP>
-41.1201

> <Gold.PLP.part.hbond>
-2.0000

> <Gold.PLP.part.metal>
0.0000

> <Gold.PLP.part.buried>
-5.9817

> <Gold.PLP.part.nonpolar>
-34.0511

> <Gold.PLP.part.repulsive>
0.3265

> <Gold.PLP.ligand.clash>
0.0000

> <Gold.PLP.ligand.torsion>
0.8839

> <Gold.PLP.Chemscore.Hbond>
2.3840

> <Gold.PLP.Chemscore.CHOScore>
1.0000

> <Gold.PLP.Chemscore.Metal>
0.0000

> <Gold.Chemscore.Hbonds>
donor molecule, donor type, donor heavy atom, donor atom, acceptor molecule, acceptor atom, score
      L1  H    10    34       P1  8028  2.00
      P1  H  7989  7998       L1    18  0.40
      L1  C    15    41       P1  7948  1.00

> <Gold.PLP.Chemscore.Internal.Correction>
0.0684

> <Gold.Rescore>
     Score         DG    S(hbond)    S(metal)    S(lipo)     H(rot)  DE(clash)    DE(int)     intcor
     14.97     -16.16       1.51        0.00      99.79       2.36       0.10       1.09       ----

> <Gold.Chemscore.Fitness>
14.9674

> <Gold.Chemscore.DG>
-16.1576

> <Gold.Chemscore.ZeroCoef>
-5.4800

> <Gold.Chemscore.Hbond>
1.5113

> <Gold.Chemscore.Metal>
0.0000

> <Gold.Chemscore.Lipo>
99.7876

> <Gold.Chemscore.Internal_Hbond>
0.0000

> <Gold.Chemscore.DEClash>
0.1000

> <Gold.Chemscore.DEInternal>
1.0903

> <Gold.Chemscore.Rot>
2.3615

> <Gold.Chemscore.Internal.Correction>
   9.000000E+99

> <Gold.Chemscore.Hbonds>
donor molecule, donor type, donor heavy atom, donor atom, acceptor molecule, acceptor atom, score
      L1  H    10    34       P1  8028  0.92
      P1  H  7989  7998       L1    18  0.01

> <Gold.Chemscore.Hbond.Weighted>
-5.0478

> <Gold.Chemscore.Metal.Weighted>
-0.0000

> <Gold.Chemscore.Lipo.Weighted>
-11.6752

> <Gold.Chemscore.Internal_Hbond.Weighted>
0.0000

> <Gold.Chemscore.DEClash.Weighted>
0.1000

> <Gold.Chemscore.DEInternal.Weighted>
1.0903

> <Gold.Chemscore.Rot.Weighted>
6.0454

> <Gold.Chemscore.Internal.Correction.Weighted>
   9.000000E+99

> <Gold.Protein.RotatedTorsions>
[ 6907 6896 6895 6894 ] final  -53.57 input  -60.11 | X-H torsion
[ 7974 7965 7964 7962 ] final  146.62 input  175.53 | X-H torsion
[ 8008 7997 7996 7995 ] final -134.19 input   59.86 | X-H torsion
[ 10167 10162 10161 10158 ] final   11.27 input  -65.29 | X-H torsion
[ 10718 10713 10712 10709 ] final  -11.58 input   66.30 | X-H torsion
[ 10763 10752 10751 10750 ] final  114.25 input  -60.55 | X-H torsion
[ 11005 11000 10999 10996 ] final  175.97 input  -57.11 | X-H torsion

> <Gold.Protein.ActiveResidues>
 VAL166  LYS551  ARG553  GLY616  TRP617  ASP618  TYR619  PRO620  LYS621  CYS622 
 ASP623  PHE694  ASN695  SER759  ASP760  ASP761  ALA762  ILE779  LEU786  VAL792 
 PHE793  MET794  SER795  GLU796  ALA797  LYS798  CYS799  TRP800  GLU811  SER814 

> <Gold.Protein.RotatedAtoms>
  150.8415  134.7708  159.6935 H   0  0  0  0  0  0  0  0  0  0  0  0  # atno 6907 bound_to 6896
  152.4501  134.5408  159.9848 H   0  0  0  0  0  0  0  0  0  0  0  0  # atno 6908 bound_to 6896
  151.5547  133.3374  159.2995 H   0  0  0  0  0  0  0  0  0  0  0  0  # atno 6909 bound_to 6896
  144.8656  139.5928  143.5910 H   0  0  0  0  0  0  0  0  0  0  0  0  # atno 7974 bound_to 7965
  155.3579  140.0481  157.3046 H   0  0  0  0  0  0  0  0  0  0  0  0  # atno 8008 bound_to 7997
  154.5193  140.2219  155.8970 H   0  0  0  0  0  0  0  0  0  0  0  0  # atno 8009 bound_to 7997
  156.1672  140.3104  155.8915 H   0  0  0  0  0  0  0  0  0  0  0  0  # atno 8010 bound_to 7997
  140.6142  143.8343  150.7099 H   0  0  0  0  0  0  0  0  0  0  0  0  # atno 10167 bound_to 10162
  156.6570  130.4971  149.6043 H   0  0  0  0  0  0  0  0  0  0  0  0  # atno 10718 bound_to 10713
  153.5045  135.3631  155.2556 H   0  0  0  0  0  0  0  0  0  0  0  0  # atno 10763 bound_to 10752
  154.8746  135.4008  154.3440 H   0  0  0  0  0  0  0  0  0  0  0  0  # atno 10764 bound_to 10752
  153.4082  135.7077  153.6444 H   0  0  0  0  0  0  0  0  0  0  0  0  # atno 10765 bound_to 10752
  140.3680  134.7054  157.4374 H   0  0  0  0  0  0  0  0  0  0  0  0  # atno 11005 bound_to 11000
  146.2893  139.7094  142.9172 LP  0  0  0  0  0  0  0  0  0  0  0  0  # atno 17320 bound_to 7965
  145.4228  141.0408  143.2954 LP  0  0  0  0  0  0  0  0  0  0  0  0  # atno 17321 bound_to 7965
  140.1919  143.4030  152.1857 LP  0  0  0  0  0  0  0  0  0  0  0  0  # atno 17342 bound_to 10162
  139.5385  144.7234  151.4812 LP  0  0  0  0  0  0  0  0  0  0  0  0  # atno 17343 bound_to 10162
  156.2040  130.6637  151.1198 LP  0  0  0  0  0  0  0  0  0  0  0  0  # atno 17370 bound_to 10713
  157.7122  131.0728  150.6459 LP  0  0  0  0  0  0  0  0  0  0  0  0  # atno 17371 bound_to 10713
  140.0574  134.6044  155.8789 LP  0  0  0  0  0  0  0  0  0  0  0  0  # atno 17394 bound_to 11000
  141.1963  133.6591  156.5687 LP  0  0  0  0  0  0  0  0  0  0  0  0  # atno 17395 bound_to 11000

$$$$
