AV-unprocessed.smi:171|AV-procd|sdf|1415|dock10
  -GOLD-   2262019183D 1   1.00000     0.00000
 Structure written by MMmdl.
 56 59  0  0  0  0  0  0  0  0  1 V2000
  152.4218  142.8260  158.9742 C   0  0  0  0  0  0  0  0  0  0  0  0
  151.4953  142.3516  157.8434 C   0  0  0  0  0  0  0  0  0  0  0  0
  150.0338  142.3573  158.3180 C   0  0  0  0  0  0  0  0  0  0  0  0
  151.8740  140.9644  157.2735 C   0  0  0  0  0  0  0  0  0  0  0  0
  150.9972  140.4710  156.0821 C   0  0  1  0  0  0  0  0  0  0  0  0
  151.7545  139.6848  154.9823 C   0  0  0  0  0  0  0  0  0  0  0  0
  152.9547  139.8665  154.7895 O   0  0  0  0  0  0  0  0  0  0  0  0
  151.0582  138.8028  154.2428 N   0  0  0  0  0  0  0  0  0  0  0  0
  149.6426  138.4655  154.4131 C   0  0  0  0  0  0  0  0  0  0  0  0
  148.9051  139.3752  155.4185 C   0  0  0  0  0  0  0  0  0  0  0  0
  149.7843  139.7570  156.5209 N   0  0  0  0  0  0  0  0  0  0  0  0
  149.8529  138.8018  157.4879 C   0  0  0  0  0  0  0  0  0  0  0  0
  151.0556  138.3597  157.9434 N   0  0  0  0  0  0  0  0  0  0  0  0
  151.1144  137.4131  158.8839 C   0  0  0  0  0  0  0  0  0  0  0  0
  150.1105  136.7846  159.4976 N   0  0  0  0  0  0  0  0  0  0  0  0
  148.9000  137.2249  159.0478 C   0  0  0  0  0  0  0  0  0  0  0  0
  148.6855  138.2145  158.0483 C   0  0  0  0  0  0  0  0  0  0  0  0
  147.3242  138.3924  157.8425 N   0  0  0  0  0  0  0  0  0  0  0  0
  146.7656  137.5548  158.6730 C   0  0  0  0  0  0  0  0  0  0  0  0
  147.6368  136.8341  159.4624 N   0  0  0  0  0  0  0  0  0  0  0  0
  147.3086  135.8265  160.4657 C   0  0  0  0  0  0  0  0  0  0  0  0
  146.4082  136.3041  161.6403 C   0  0  1  0  0  0  0  0  0  0  0  0
  147.0371  137.4137  162.2591 O   0  0  0  0  0  0  0  0  0  0  0  0
  145.0484  136.7834  161.1475 C   0  0  0  0  0  0  0  0  0  0  0  0
  144.1752  136.6532  162.3853 C   0  0  0  0  0  0  0  0  0  0  0  0
  144.6213  135.4368  162.9568 O   0  0  0  0  0  0  0  0  0  0  0  0
  146.0280  135.2901  162.7605 C   0  0  1  0  0  0  0  0  0  0  0  0
  146.2494  133.7982  162.4716 C   0  0  0  0  0  0  0  0  0  0  0  0
  152.4371  142.1136  159.7996 H   0  0  0  0  0  0  0  0  0  0  0  0
  152.0942  143.7866  159.3723 H   0  0  0  0  0  0  0  0  0  0  0  0
  153.4446  142.9596  158.6233 H   0  0  0  0  0  0  0  0  0  0  0  0
  151.5681  143.0768  157.0320 H   0  0  0  0  0  0  0  0  0  0  0  0
  149.8797  141.6482  159.1321 H   0  0  0  0  0  0  0  0  0  0  0  0
  149.3538  142.0884  157.5091 H   0  0  0  0  0  0  0  0  0  0  0  0
  149.7390  143.3441  158.6764 H   0  0  0  0  0  0  0  0  0  0  0  0
  152.9323  140.9457  157.0085 H   0  0  0  0  0  0  0  0  0  0  0  0
  151.7804  140.2606  158.1014 H   0  0  0  0  0  0  0  0  0  0  0  0
  150.6190  141.3632  155.5815 H   0  0  0  0  0  0  0  0  0  0  0  0
  151.5583  138.3028  153.5219 H   0  0  0  0  0  0  0  0  0  0  0  0
  149.1414  138.4811  153.4454 H   0  0  0  0  0  0  0  0  0  0  0  0
  149.6028  137.4348  154.7669 H   0  0  0  0  0  0  0  0  0  0  0  0
  148.5874  140.2889  154.9140 H   0  0  0  0  0  0  0  0  0  0  0  0
  147.9885  138.8957  155.7647 H   0  0  0  0  0  0  0  0  0  0  0  0
  152.1077  137.1188  159.1891 H   0  0  0  0  0  0  0  0  0  0  0  0
  145.6927  137.4467  158.7264 H   0  0  0  0  0  0  0  0  0  0  0  0
  146.8260  134.9959  159.9486 H   0  0  0  0  0  0  0  0  0  0  0  0
  148.2402  135.4216  160.8615 H   0  0  0  0  0  0  0  0  0  0  0  0
  146.7245  137.4763  163.1488 H   0  0  0  0  0  0  0  0  0  0  0  0
  145.0600  137.7931  160.7349 H   0  0  0  0  0  0  0  0  0  0  0  0
  144.6696  136.1138  160.3739 H   0  0  0  0  0  0  0  0  0  0  0  0
  144.3532  137.4729  163.0830 H   0  0  0  0  0  0  0  0  0  0  0  0
  143.1108  136.6214  162.1517 H   0  0  0  0  0  0  0  0  0  0  0  0
  146.5320  135.5403  163.6956 H   0  0  0  0  0  0  0  0  0  0  0  0
  147.3061  133.5406  162.4860 H   0  0  0  0  0  0  0  0  0  0  0  0
  145.8306  133.5060  161.5085 H   0  0  0  0  0  0  0  0  0  0  0  0
  145.7716  133.1857  163.2365 H   0  0  0  0  0  0  0  0  0  0  0  0
  1  2  1  0  0  0  0
  1 29  1  0  0  0  0
  1 30  1  0  0  0  0
  1 31  1  0  0  0  0
  2  3  1  0  0  0  0
  2  4  1  0  0  0  0
  2 32  1  0  0  0  0
  3 33  1  0  0  0  0
  3 34  1  0  0  0  0
  3 35  1  0  0  0  0
  4  5  1  0  0  0  0
  4 36  1  0  0  0  0
  4 37  1  0  0  0  0
  5 11  1  0  0  0  0
  5  6  1  0  0  0  0
  5 38  1  0  0  0  0
  6  7  2  0  0  0  0
  6  8  1  0  0  0  0
  8  9  1  0  0  0  0
  8 39  1  0  0  0  0
  9 10  1  0  0  0  0
  9 40  1  0  0  0  0
  9 41  1  0  0  0  0
 10 11  1  0  0  0  0
 10 42  1  0  0  0  0
 10 43  1  0  0  0  0
 11 12  1  0  0  0  0
 12 17  1  0  0  0  0
 12 13  2  0  0  0  0
 13 14  1  0  0  0  0
 14 15  2  0  0  0  0
 14 44  1  0  0  0  0
 15 16  1  0  0  0  0
 16 20  1  0  0  0  0
 16 17  2  0  0  0  0
 17 18  1  0  0  0  0
 18 19  2  0  0  0  0
 19 20  1  0  0  0  0
 19 45  1  0  0  0  0
 20 21  1  0  0  0  0
 21 22  1  0  0  0  0
 21 46  1  0  0  0  0
 21 47  1  0  0  0  0
 22 27  1  0  0  0  0
 22 23  1  0  0  0  0
 22 24  1  0  0  0  0
 23 48  1  0  0  0  0
 24 25  1  0  0  0  0
 24 49  1  0  0  0  0
 24 50  1  0  0  0  0
 25 26  1  0  0  0  0
 25 51  1  0  0  0  0
 25 52  1  0  0  0  0
 26 27  1  0  0  0  0
 27 28  1  0  0  0  0
 27 53  1  0  0  0  0
 28 54  1  0  0  0  0
 28 55  1  0  0  0  0
 28 56  1  0  0  0  0
M  END
> <s_m_source_file>
AV-unprocessed.smi

> <i_m_source_file_index>
171

> <i_lp_mmshare_version>
43012

> <i_f3d_flags>
0

> <s_epik_input>
W0NIM11bQ0hdKFtDSDNdKVtDSDJdW0NAQEhdMUMoPU8pW05IXVtDSDJdW0NIMl1OMWMobltjSF1uMiljKGMyMyluW2NIXW4zW0NIMl1bQ0BAXTQoW09IXSlbQ0gyXVtDSDJdT1tDQEhdNFtDSDNd

> <s_epik_cmdline>
J2VwaWtfcHl0aG9uJywgJy1waCcsICc3LjAnLCAnLXRuJywgJzgnLCAnLW1hJywgJzIwMCcsICctbWV0YWxfYmluZGluZycsICctaW1hZScsICc8aW5maWxlLm1hZT4nLCAnLW9tYWUnLCAnPG91dGZpbGUubWFlPic=

> <r_lp_tautomer_probability>
1

> <r_epik_Ionization_Penalty>
0.000670584

> <r_epik_Ionization_Penalty_Charging>
0

> <r_epik_Ionization_Penalty_Neutral>
0.000670584

> <r_epik_State_Penalty>
0.000304767

> <r_epik_Charging_Adjusted_Penalty>
0.000304767

> <i_epik_Tot_Q>
0

> <i_epik_Tot_abs_Q>
0

> <r_epik_Metal_State_Penalty>
-0

> <b_epik_Metal_Only>
0

> <s_lp_Force_Field>
OPLS_2005

> <r_lp_Energy>
47.4038

> <b_lp_Chiralities_Consistent>
1

> <s_lp_Variant>
AV-unprocessed.smi:171-2

> <Gold.Version>
5.8.1

> <Gold.Id.Protein>
6NUR|6NUR_protein|mol2

> <Gold.PLP.Fitness>
46.2003

> <Gold.PLP.PLP>
-37.7166

> <Gold.PLP.part.hbond>
-5.0000

> <Gold.PLP.part.metal>
0.0000

> <Gold.PLP.part.buried>
-0.9184

> <Gold.PLP.part.nonpolar>
-31.2622

> <Gold.PLP.part.repulsive>
0.1913

> <Gold.PLP.ligand.clash>
0.0000

> <Gold.PLP.ligand.torsion>
0.5862

> <Gold.PLP.Chemscore.Hbond>
3.0968

> <Gold.PLP.Chemscore.CHOScore>
0.0000

> <Gold.PLP.Chemscore.Metal>
0.0000

> <Gold.Chemscore.Hbonds>
donor molecule, donor type, donor heavy atom, donor atom, acceptor molecule, acceptor atom, score
      P1  H  6896  6908       L1    15  0.96
      P1  H  6931  6943       L1    23  0.43
      P1  H  6934  6947       L1    23  0.57
      P1  H  7997  8010       L1     7  1.00

> <Gold.PLP.Chemscore.Internal.Correction>
0.3657

> <Gold.Rescore>
     Score         DG    S(hbond)    S(metal)    S(lipo)     H(rot)  DE(clash)    DE(int)     intcor
     12.65     -15.97       2.14        0.00      85.50       2.61       1.27       2.05       ----

> <Gold.Chemscore.Fitness>
12.6516

> <Gold.Chemscore.DG>
-15.9701

> <Gold.Chemscore.ZeroCoef>
-5.4800

> <Gold.Chemscore.Hbond>
2.1441

> <Gold.Chemscore.Metal>
0.0000

> <Gold.Chemscore.Lipo>
85.5001

> <Gold.Chemscore.Internal_Hbond>
0.0000

> <Gold.Chemscore.DEClash>
1.2729

> <Gold.Chemscore.DEInternal>
2.0456

> <Gold.Chemscore.Rot>
2.6074

> <Gold.Chemscore.Internal.Correction>
   9.000000E+99

> <Gold.Chemscore.Hbonds>
donor molecule, donor type, donor heavy atom, donor atom, acceptor molecule, acceptor atom, score
      P1  H  6896  6908       L1    15  0.31
      P1  H  6931  6943       L1    23  0.37
      P1  H  6934  6947       L1    23  0.46
      P1  H  7997  8010       L1     7  1.00

> <Gold.Chemscore.Hbond.Weighted>
-7.1614

> <Gold.Chemscore.Metal.Weighted>
-0.0000

> <Gold.Chemscore.Lipo.Weighted>
-10.0035

> <Gold.Chemscore.Internal_Hbond.Weighted>
0.0000

> <Gold.Chemscore.DEClash.Weighted>
1.2729

> <Gold.Chemscore.DEInternal.Weighted>
2.0456

> <Gold.Chemscore.Rot.Weighted>
6.6748

> <Gold.Chemscore.Internal.Correction.Weighted>
   9.000000E+99

> <Gold.Protein.RotatedTorsions>
[ 6907 6896 6895 6894 ] final -168.85 input  -60.11 | X-H torsion
[ 7974 7965 7964 7962 ] final  -28.69 input  175.53 | X-H torsion
[ 8008 7997 7996 7995 ] final  102.54 input   59.86 | X-H torsion
[ 10167 10162 10161 10158 ] final -174.24 input  -65.29 | X-H torsion
[ 10718 10713 10712 10709 ] final -137.39 input   66.30 | X-H torsion
[ 10763 10752 10751 10750 ] final -119.21 input  -60.55 | X-H torsion
[ 11005 11000 10999 10996 ] final -146.78 input  -57.11 | X-H torsion

> <Gold.Protein.ActiveResidues>
 VAL166  LYS551  ARG553  GLY616  TRP617  ASP618  TYR619  PRO620  LYS621  CYS622 
 ASP623  PHE694  ASN695  SER759  ASP760  ASP761  ALA762  ILE779  LEU786  VAL792 
 PHE793  MET794  SER795  GLU796  ALA797  LYS798  CYS799  TRP800  GLU811  SER814 

> <Gold.Protein.RotatedAtoms>
  151.4821  133.3544  159.2839 H   0  0  0  0  0  0  0  0  0  0  0  0  # atno 6907 bound_to 6896
  150.8890  134.8293  159.7291 H   0  0  0  0  0  0  0  0  0  0  0  0  # atno 6908 bound_to 6896
  152.4811  134.4728  159.9693 H   0  0  0  0  0  0  0  0  0  0  0  0  # atno 6909 bound_to 6896
  146.1270  140.5316  142.8710 H   0  0  0  0  0  0  0  0  0  0  0  0  # atno 7974 bound_to 7965
  156.1402  140.3179  155.8484 H   0  0  0  0  0  0  0  0  0  0  0  0  # atno 8008 bound_to 7997
  155.4168  140.0509  157.3045 H   0  0  0  0  0  0  0  0  0  0  0  0  # atno 8009 bound_to 7997
  154.4970  140.2115  155.9438 H   0  0  0  0  0  0  0  0  0  0  0  0  # atno 8010 bound_to 7997
  139.5644  144.1790  152.1290 H   0  0  0  0  0  0  0  0  0  0  0  0  # atno 10167 bound_to 10162
  156.2875  130.7356  151.1372 H   0  0  0  0  0  0  0  0  0  0  0  0  # atno 10718 bound_to 10713
  154.8611  135.4246  154.2263 H   0  0  0  0  0  0  0  0  0  0  0  0  # atno 10763 bound_to 10752
  153.3257  135.6985  153.6997 H   0  0  0  0  0  0  0  0  0  0  0  0  # atno 10764 bound_to 10752
  153.6034  135.3533  155.2927 H   0  0  0  0  0  0  0  0  0  0  0  0  # atno 10765 bound_to 10752
  140.7784  134.3107  157.5053 H   0  0  0  0  0  0  0  0  0  0  0  0  # atno 11005 bound_to 11000
  144.7652  140.5514  143.6708 LP  0  0  0  0  0  0  0  0  0  0  0  0  # atno 17320 bound_to 7965
  145.5344  139.1475  143.3482 LP  0  0  0  0  0  0  0  0  0  0  0  0  # atno 17321 bound_to 7965
  140.1310  144.5288  150.6802 LP  0  0  0  0  0  0  0  0  0  0  0  0  # atno 17342 bound_to 10162
  140.6927  143.2385  151.5087 LP  0  0  0  0  0  0  0  0  0  0  0  0  # atno 17343 bound_to 10162
  157.7333  131.0592  150.5584 LP  0  0  0  0  0  0  0  0  0  0  0  0  # atno 17370 bound_to 10713
  156.5697  130.4276  149.6025 LP  0  0  0  0  0  0  0  0  0  0  0  0  # atno 17371 bound_to 10713
  139.8746  134.9304  156.3500 LP  0  0  0  0  0  0  0  0  0  0  0  0  # atno 17394 bound_to 11000
  140.9506  133.7453  156.0267 LP  0  0  0  0  0  0  0  0  0  0  0  0  # atno 17395 bound_to 11000

$$$$
