AV-unprocessed.smi:230|AV-procd|sdf|1763|dock1
  -GOLD-   2262020293D 1   1.00000     0.00000
 Structure written by MMmdl.
 56 59  0  0  0  0  0  0  0  0  1 V2000
  150.4118  137.9904  154.8426 C   0  0  0  0  0  0  0  0  0  0  0  0
  149.6539  139.3242  154.7950 C   0  0  0  0  0  0  0  0  0  0  0  0
  148.4346  139.3970  155.7516 C   0  0  2  0  0  0  0  0  0  0  0  0
  148.8869  139.2899  157.2257 C   0  0  0  0  0  0  0  0  0  0  0  0
  147.7713  139.2599  158.1124 O   0  0  0  0  0  0  0  0  0  0  0  0
  146.8350  138.2070  157.8767 C   0  0  0  0  0  0  0  0  0  0  0  0
  147.4505  136.8238  158.1797 C   0  0  0  0  0  0  0  0  0  0  0  0
  145.6706  138.4666  158.8450 C   0  0  0  0  0  0  0  0  0  0  0  0
  146.3391  138.3152  156.4215 C   0  0  0  0  0  0  0  0  0  0  0  0
  147.4515  138.3416  155.4780 N   0  0  0  0  0  0  0  0  0  0  0  0
  146.9852  138.2433  154.2117 C   0  0  0  0  0  0  0  0  0  0  0  0
  147.3692  139.1424  153.2667 N   0  0  0  0  0  0  0  0  0  0  0  0
  146.8948  139.0434  152.0210 C   0  0  0  0  0  0  0  0  0  0  0  0
  146.0436  138.1450  151.5200 N   0  0  0  0  0  0  0  0  0  0  0  0
  145.6532  137.2477  152.4707 C   0  0  0  0  0  0  0  0  0  0  0  0
  146.0691  137.2287  153.8306 C   0  0  0  0  0  0  0  0  0  0  0  0
  145.4635  136.1749  154.5023 N   0  0  0  0  0  0  0  0  0  0  0  0
  144.7334  135.5972  153.5871 C   0  0  0  0  0  0  0  0  0  0  0  0
  144.7935  136.1715  152.3367 N   0  0  0  0  0  0  0  0  0  0  0  0
  144.0904  135.7323  151.1411 C   0  0  0  0  0  0  0  0  0  0  0  0
  144.5061  134.3229  150.6512 C   0  0  0  0  0  0  0  0  0  0  0  0
  144.1841  134.2347  149.2736 O   0  0  0  0  0  0  0  0  0  0  0  0
  146.0272  134.1252  150.8091 C   0  0  0  0  0  0  0  0  0  0  0  0
  146.4616  132.6823  150.4940 C   0  0  0  0  0  0  0  0  0  0  0  0
  145.7343  131.7672  151.3043 O   0  0  0  0  0  0  0  0  0  0  0  0
  144.3349  131.8021  151.0525 C   0  0  0  0  0  0  0  0  0  0  0  0
  143.7683  133.1906  151.3988 C   0  0  0  0  0  0  0  0  0  0  0  0
  151.3097  138.0375  154.2263 H   0  0  0  0  0  0  0  0  0  0  0  0
  149.8060  137.1659  154.4674 H   0  0  0  0  0  0  0  0  0  0  0  0
  150.7211  137.7498  155.8601 H   0  0  0  0  0  0  0  0  0  0  0  0
  150.3735  140.1062  155.0365 H   0  0  0  0  0  0  0  0  0  0  0  0
  149.3318  139.5215  153.7718 H   0  0  0  0  0  0  0  0  0  0  0  0
  147.9386  140.3597  155.6177 H   0  0  0  0  0  0  0  0  0  0  0  0
  149.5190  138.4154  157.3806 H   0  0  0  0  0  0  0  0  0  0  0  0
  149.4913  140.1535  157.5007 H   0  0  0  0  0  0  0  0  0  0  0  0
  146.6975  136.0387  158.1058 H   0  0  0  0  0  0  0  0  0  0  0  0
  147.8631  136.7903  159.1885 H   0  0  0  0  0  0  0  0  0  0  0  0
  148.2490  136.5602  157.4866 H   0  0  0  0  0  0  0  0  0  0  0  0
  144.8803  137.7250  158.7241 H   0  0  0  0  0  0  0  0  0  0  0  0
  145.2291  139.4499  158.6782 H   0  0  0  0  0  0  0  0  0  0  0  0
  146.0046  138.4292  159.8824 H   0  0  0  0  0  0  0  0  0  0  0  0
  145.6708  137.4822  156.1956 H   0  0  0  0  0  0  0  0  0  0  0  0
  145.7560  139.2295  156.2971 H   0  0  0  0  0  0  0  0  0  0  0  0
  147.2479  139.7913  151.3263 H   0  0  0  0  0  0  0  0  0  0  0  0
  144.1307  134.7257  153.7979 H   0  0  0  0  0  0  0  0  0  0  0  0
  143.0191  135.7628  151.3451 H   0  0  0  0  0  0  0  0  0  0  0  0
  144.2687  136.4680  150.3559 H   0  0  0  0  0  0  0  0  0  0  0  0
  144.9693  134.3896  148.7712 H   0  0  0  0  0  0  0  0  0  0  0  0
  146.5728  134.8271  150.1770 H   0  0  0  0  0  0  0  0  0  0  0  0
  146.3152  134.3533  151.8363 H   0  0  0  0  0  0  0  0  0  0  0  0
  146.3151  132.4476  149.4387 H   0  0  0  0  0  0  0  0  0  0  0  0
  147.5257  132.5613  150.6977 H   0  0  0  0  0  0  0  0  0  0  0  0
  144.1342  131.5435  150.0117 H   0  0  0  0  0  0  0  0  0  0  0  0
  143.8505  131.0405  151.6636 H   0  0  0  0  0  0  0  0  0  0  0  0
  143.8675  133.3464  152.4737 H   0  0  0  0  0  0  0  0  0  0  0  0
  142.6993  133.2125  151.1836 H   0  0  0  0  0  0  0  0  0  0  0  0
  1  2  1  0  0  0  0
  1 28  1  0  0  0  0
  1 29  1  0  0  0  0
  1 30  1  0  0  0  0
  2  3  1  0  0  0  0
  2 31  1  0  0  0  0
  2 32  1  0  0  0  0
  3 10  1  0  0  0  0
  3  4  1  0  0  0  0
  3 33  1  0  0  0  0
  4  5  1  0  0  0  0
  4 34  1  0  0  0  0
  4 35  1  0  0  0  0
  5  6  1  0  0  0  0
  6  7  1  0  0  0  0
  6  8  1  0  0  0  0
  6  9  1  0  0  0  0
  7 36  1  0  0  0  0
  7 37  1  0  0  0  0
  7 38  1  0  0  0  0
  8 39  1  0  0  0  0
  8 40  1  0  0  0  0
  8 41  1  0  0  0  0
  9 10  1  0  0  0  0
  9 42  1  0  0  0  0
  9 43  1  0  0  0  0
 10 11  1  0  0  0  0
 11 16  1  0  0  0  0
 11 12  2  0  0  0  0
 12 13  1  0  0  0  0
 13 14  2  0  0  0  0
 13 44  1  0  0  0  0
 14 15  1  0  0  0  0
 15 19  1  0  0  0  0
 15 16  2  0  0  0  0
 16 17  1  0  0  0  0
 17 18  2  0  0  0  0
 18 19  1  0  0  0  0
 18 45  1  0  0  0  0
 19 20  1  0  0  0  0
 20 21  1  0  0  0  0
 20 46  1  0  0  0  0
 20 47  1  0  0  0  0
 21 27  1  0  0  0  0
 21 22  1  0  0  0  0
 21 23  1  0  0  0  0
 22 48  1  0  0  0  0
 23 24  1  0  0  0  0
 23 49  1  0  0  0  0
 23 50  1  0  0  0  0
 24 25  1  0  0  0  0
 24 51  1  0  0  0  0
 24 52  1  0  0  0  0
 25 26  1  0  0  0  0
 26 27  1  0  0  0  0
 26 53  1  0  0  0  0
 26 54  1  0  0  0  0
 27 55  1  0  0  0  0
 27 56  1  0  0  0  0
M  END
> <s_m_source_file>
AV-unprocessed.smi

> <i_m_source_file_index>
230

> <i_lp_mmshare_version>
43012

> <i_f3d_flags>
0

> <s_epik_input>
W0NIM11DMShbQ0gzXSlPW0NIMl1bQ0BASF0oW0NIMl1bQ0gzXSlOKFtDSDJdMSljKG5bY0hdbjIpYyhjMjMpbltjSF1uM1tDSDJdQzQoW09IXSlbQ0gyXVtDSDJdT1tDSDJdW0NIMl00

> <s_epik_cmdline>
J2VwaWtfcHl0aG9uJywgJy1waCcsICc3LjAnLCAnLXRuJywgJzgnLCAnLW1hJywgJzIwMCcsICctbWV0YWxfYmluZGluZycsICctaW1hZScsICc8aW5maWxlLm1hZT4nLCAnLW9tYWUnLCAnPG91dGZpbGUubWFlPic=

> <r_lp_tautomer_probability>
1

> <r_epik_Ionization_Penalty>
0.000120535

> <r_epik_Ionization_Penalty_Charging>
0

> <r_epik_Ionization_Penalty_Neutral>
0.000120535

> <r_epik_State_Penalty>
-0

> <r_epik_Charging_Adjusted_Penalty>
0

> <i_epik_Tot_Q>
0

> <i_epik_Tot_abs_Q>
0

> <r_epik_Metal_State_Penalty>
-0

> <b_epik_Metal_Only>
0

> <s_lp_Force_Field>
OPLS_2005

> <r_lp_Energy>
33.8878

> <b_lp_Chiralities_Consistent>
1

> <s_lp_Variant>
AV-unprocessed.smi:230-1

> <Gold.Version>
5.8.1

> <Gold.Id.Protein>
6NUR|6NUR_protein|mol2

> <Gold.PLP.Fitness>
35.4605

> <Gold.PLP.PLP>
-30.9521

> <Gold.PLP.part.hbond>
-2.5767

> <Gold.PLP.part.metal>
0.0000

> <Gold.PLP.part.buried>
-4.8308

> <Gold.PLP.part.nonpolar>
-26.6837

> <Gold.PLP.part.repulsive>
3.2502

> <Gold.PLP.ligand.clash>
0.0000

> <Gold.PLP.ligand.torsion>
0.4424

> <Gold.PLP.Chemscore.Hbond>
1.0000

> <Gold.PLP.Chemscore.CHOScore>
0.7444

> <Gold.PLP.Chemscore.Metal>
0.0000

> <Gold.Chemscore.Hbonds>
donor molecule, donor type, donor heavy atom, donor atom, acceptor molecule, acceptor atom, score
      L1  H    22    48       P1  7921  1.00
      L1  C    13    44       P1  7957  0.75

> <Gold.PLP.Chemscore.Internal.Correction>
0.1601

> <Gold.Rescore>
     Score         DG    S(hbond)    S(metal)    S(lipo)     H(rot)  DE(clash)    DE(int)     intcor
      7.19     -10.86       1.00        0.00      65.81       2.21       1.84       1.83       ----

> <Gold.Chemscore.Fitness>
7.1910

> <Gold.Chemscore.DG>
-10.8592

> <Gold.Chemscore.ZeroCoef>
-5.4800

> <Gold.Chemscore.Hbond>
0.9997

> <Gold.Chemscore.Metal>
0.0000

> <Gold.Chemscore.Lipo>
65.8095

> <Gold.Chemscore.Internal_Hbond>
0.0000

> <Gold.Chemscore.DEClash>
1.8389

> <Gold.Chemscore.DEInternal>
1.8294

> <Gold.Chemscore.Rot>
2.2107

> <Gold.Chemscore.Internal.Correction>
   9.000000E+99

> <Gold.Chemscore.Hbonds>
donor molecule, donor type, donor heavy atom, donor atom, acceptor molecule, acceptor atom, score
      L1  H    22    48       P1  7921  1.00

> <Gold.Chemscore.Hbond.Weighted>
-3.3390

> <Gold.Chemscore.Metal.Weighted>
-0.0000

> <Gold.Chemscore.Lipo.Weighted>
-7.6997

> <Gold.Chemscore.Internal_Hbond.Weighted>
0.0000

> <Gold.Chemscore.DEClash.Weighted>
1.8389

> <Gold.Chemscore.DEInternal.Weighted>
1.8294

> <Gold.Chemscore.Rot.Weighted>
5.6595

> <Gold.Chemscore.Internal.Correction.Weighted>
   9.000000E+99

> <Gold.Protein.RotatedTorsions>
[ 6907 6896 6895 6894 ] final   15.58 input  -60.11 | X-H torsion
[ 7974 7965 7964 7962 ] final  -47.51 input  175.53 | X-H torsion
[ 8008 7997 7996 7995 ] final -149.86 input   59.86 | X-H torsion
[ 10167 10162 10161 10158 ] final   -0.37 input  -65.29 | X-H torsion
[ 10718 10713 10712 10709 ] final  -45.53 input   66.30 | X-H torsion
[ 10763 10752 10751 10750 ] final  154.10 input  -60.55 | X-H torsion
[ 11005 11000 10999 10996 ] final   33.35 input  -57.11 | X-H torsion

> <Gold.Protein.ActiveResidues>
 VAL166  LYS551  ARG553  GLY616  TRP617  ASP618  TYR619  PRO620  LYS621  CYS622 
 ASP623  PHE694  ASN695  SER759  ASP760  ASP761  ALA762  ILE779  LEU786  VAL792 
 PHE793  MET794  SER795  GLU796  ALA797  LYS798  CYS799  TRP800  GLU811  SER814 

> <Gold.Protein.RotatedAtoms>
  151.8204  135.0653  160.0424 H   0  0  0  0  0  0  0  0  0  0  0  0  # atno 6907 bound_to 6896
  152.2955  133.5599  159.5593 H   0  0  0  0  0  0  0  0  0  0  0  0  # atno 6908 bound_to 6896
  150.7249  134.0283  159.3767 H   0  0  0  0  0  0  0  0  0  0  0  0  # atno 6909 bound_to 6896
  145.9608  140.7481  142.9458 H   0  0  0  0  0  0  0  0  0  0  0  0  # atno 7974 bound_to 7965
  155.6144  140.0675  157.2697 H   0  0  0  0  0  0  0  0  0  0  0  0  # atno 8008 bound_to 7997
  154.4245  140.1795  156.1354 H   0  0  0  0  0  0  0  0  0  0  0  0  # atno 8009 bound_to 7997
  156.0059  140.3331  155.6895 H   0  0  0  0  0  0  0  0  0  0  0  0  # atno 8010 bound_to 7997
  140.6764  143.6902  150.8034 H   0  0  0  0  0  0  0  0  0  0  0  0  # atno 10167 bound_to 10162
  156.2274  130.4170  149.8917 H   0  0  0  0  0  0  0  0  0  0  0  0  # atno 10718 bound_to 10713
  154.1469  135.2817  155.3146 H   0  0  0  0  0  0  0  0  0  0  0  0  # atno 10763 bound_to 10752
  154.6246  135.5456  153.7616 H   0  0  0  0  0  0  0  0  0  0  0  0  # atno 10764 bound_to 10752
  153.0233  135.6447  154.1614 H   0  0  0  0  0  0  0  0  0  0  0  0  # atno 10765 bound_to 10752
  140.2640  134.3159  155.7848 H   0  0  0  0  0  0  0  0  0  0  0  0  # atno 11005 bound_to 11000
  144.6814  140.2588  143.7322 LP  0  0  0  0  0  0  0  0  0  0  0  0  # atno 17320 bound_to 7965
  145.8042  139.1977  143.2030 LP  0  0  0  0  0  0  0  0  0  0  0  0  # atno 17321 bound_to 7965
  140.0596  143.5168  152.2634 LP  0  0  0  0  0  0  0  0  0  0  0  0  # atno 17342 bound_to 10162
  139.6060  144.7596  151.3061 LP  0  0  0  0  0  0  0  0  0  0  0  0  # atno 17343 bound_to 10162
  156.6543  130.8756  151.3536 LP  0  0  0  0  0  0  0  0  0  0  0  0  # atno 17370 bound_to 10713
  157.7117  130.9448  150.1111 LP  0  0  0  0  0  0  0  0  0  0  0  0  # atno 17371 bound_to 10713
  141.2186  133.7427  156.9231 LP  0  0  0  0  0  0  0  0  0  0  0  0  # atno 17394 bound_to 11000
  140.1437  134.9277  157.2501 LP  0  0  0  0  0  0  0  0  0  0  0  0  # atno 17395 bound_to 11000

$$$$
