AV-unprocessed.smi:570|AV-procd|sdf|2961|dock2
  -GOLD-   2262023463D 1   1.00000     0.00000
 Structure written by MMmdl.
 40 41  0  0  0  0  0  0  0  0  1 V2000
  146.7240  137.4249  153.6543 C   0  0  0  0  0  0  0  0  0  0  0  0
  146.7988  138.7425  153.1388 O   0  0  0  0  0  0  0  0  0  0  0  0
  146.9645  139.7152  154.1563 C   0  0  0  0  0  0  0  0  0  0  0  0
  146.8985  141.1093  153.5232 C   0  0  0  0  0  0  0  0  0  0  0  0
  147.1210  142.2334  154.5477 C   0  0  0  0  0  0  0  0  0  0  0  0
  148.3405  142.0178  155.3165 N   0  0  0  0  0  0  0  0  0  0  0  0
  149.4921  141.5400  154.8185 C   0  0  0  0  0  0  0  0  0  0  0  0
  149.6431  141.2168  153.6397 O   0  0  0  0  0  0  0  0  0  0  0  0
  150.5924  141.3277  155.8179 C   0  0  0  0  0  0  0  0  0  0  0  0
  150.7168  142.2706  156.7800 N   0  0  0  0  0  0  0  0  0  0  0  0
  151.6826  142.1302  157.6961 C   0  0  0  0  0  0  0  0  0  0  0  0
  151.7967  143.1257  158.6752 N   0  0  0  0  0  0  0  0  0  0  0  0
  151.3663  144.5049  158.4313 C   0  0  0  0  0  0  0  0  0  0  0  0
  150.8872  145.1691  159.7334 C   0  0  0  0  0  0  0  0  0  0  0  0
  151.9052  145.0828  160.7225 O   0  0  0  0  0  0  0  0  0  0  0  0
  152.2122  143.7306  161.0377 C   0  0  0  0  0  0  0  0  0  0  0  0
  152.7454  143.0126  159.7865 C   0  0  0  0  0  0  0  0  0  0  0  0
  152.5475  141.1096  157.7422 N   0  0  0  0  0  0  0  0  0  0  0  0
  152.4351  140.1478  156.8030 C   0  0  0  0  0  0  0  0  0  0  0  0
  151.4540  140.2001  155.7942 C   0  0  0  0  0  0  0  0  0  0  0  0
  151.3353  138.9136  154.6422 Cl  0  0  0  0  0  0  0  0  0  0  0  0
  146.5964  136.7174  152.8351 H   0  0  0  0  0  0  0  0  0  0  0  0
  145.8752  137.3138  154.3303 H   0  0  0  0  0  0  0  0  0  0  0  0
  147.6360  137.1581  154.1899 H   0  0  0  0  0  0  0  0  0  0  0  0
  146.1803  139.6078  154.9077 H   0  0  0  0  0  0  0  0  0  0  0  0
  147.9241  139.5738  154.6562 H   0  0  0  0  0  0  0  0  0  0  0  0
  147.6474  141.1821  152.7334 H   0  0  0  0  0  0  0  0  0  0  0  0
  145.9281  141.2351  153.0408 H   0  0  0  0  0  0  0  0  0  0  0  0
  147.1559  143.2048  154.0511 H   0  0  0  0  0  0  0  0  0  0  0  0
  146.2839  142.2717  155.2454 H   0  0  0  0  0  0  0  0  0  0  0  0
  148.3061  142.2355  156.3020 H   0  0  0  0  0  0  0  0  0  0  0  0
  152.2043  145.0629  158.0121 H   0  0  0  0  0  0  0  0  0  0  0  0
  150.5557  144.5588  157.7052 H   0  0  0  0  0  0  0  0  0  0  0  0
  150.6559  146.2192  159.5544 H   0  0  0  0  0  0  0  0  0  0  0  0
  149.9710  144.6993  160.0953 H   0  0  0  0  0  0  0  0  0  0  0  0
  152.9629  143.7130  161.8280 H   0  0  0  0  0  0  0  0  0  0  0  0
  151.3273  143.2254  161.4285 H   0  0  0  0  0  0  0  0  0  0  0  0
  152.9489  141.9754  160.0509 H   0  0  0  0  0  0  0  0  0  0  0  0
  153.6950  143.4519  159.4792 H   0  0  0  0  0  0  0  0  0  0  0  0
  153.1312  139.3241  156.8630 H   0  0  0  0  0  0  0  0  0  0  0  0
  1  2  1  0  0  0  0
  1 22  1  0  0  0  0
  1 23  1  0  0  0  0
  1 24  1  0  0  0  0
  2  3  1  0  0  0  0
  3  4  1  0  0  0  0
  3 25  1  0  0  0  0
  3 26  1  0  0  0  0
  4  5  1  0  0  0  0
  4 27  1  0  0  0  0
  4 28  1  0  0  0  0
  5  6  1  0  0  0  0
  5 29  1  0  0  0  0
  5 30  1  0  0  0  0
  6  7  1  0  0  0  0
  6 31  1  0  0  0  0
  7  8  2  0  0  0  0
  7  9  1  0  0  0  0
  9 20  1  0  0  0  0
  9 10  2  0  0  0  0
 10 11  1  0  0  0  0
 11 12  1  0  0  0  0
 11 18  2  0  0  0  0
 12 17  1  0  0  0  0
 12 13  1  0  0  0  0
 13 14  1  0  0  0  0
 13 32  1  0  0  0  0
 13 33  1  0  0  0  0
 14 15  1  0  0  0  0
 14 34  1  0  0  0  0
 14 35  1  0  0  0  0
 15 16  1  0  0  0  0
 16 17  1  0  0  0  0
 16 36  1  0  0  0  0
 16 37  1  0  0  0  0
 17 38  1  0  0  0  0
 17 39  1  0  0  0  0
 18 19  1  0  0  0  0
 19 20  2  0  0  0  0
 19 40  1  0  0  0  0
 20 21  1  0  0  0  0
M  END
> <s_m_source_file>
AV-unprocessed.smi

> <i_m_source_file_index>
570

> <i_lp_mmshare_version>
43012

> <i_f3d_flags>
0

> <s_epik_input>
W0NIM11PW0NIMl1bQ0gyXVtDSDJdW05IXUMoPU8pYzFuYyhuW2NIXWMxQ2wpTjJbQ0gyXVtDSDJdT1tDSDJdW0NIMl0y

> <s_epik_cmdline>
J2VwaWtfcHl0aG9uJywgJy1waCcsICc3LjAnLCAnLXRuJywgJzgnLCAnLW1hJywgJzIwMCcsICctbWV0YWxfYmluZGluZycsICctaW1hZScsICc8aW5maWxlLm1hZT4nLCAnLW9tYWUnLCAnPG91dGZpbGUubWFlPic=

> <r_lp_tautomer_probability>
1

> <r_epik_Ionization_Penalty>
2.32145e-05

> <r_epik_Ionization_Penalty_Charging>
0

> <r_epik_Ionization_Penalty_Neutral>
2.32145e-05

> <r_epik_State_Penalty>
-0

> <r_epik_Charging_Adjusted_Penalty>
0

> <i_epik_Tot_Q>
0

> <i_epik_Tot_abs_Q>
0

> <r_epik_Metal_State_Penalty>
0.0219249

> <b_epik_Metal_Only>
0

> <s_lp_Force_Field>
OPLS_2005

> <r_lp_Energy>
13.2289

> <b_lp_Chiralities_Consistent>
1

> <s_lp_Variant>
AV-unprocessed.smi:570-1

> <Gold.Version>
5.8.1

> <Gold.Id.Protein>
6NUR|6NUR_protein|mol2

> <Gold.PLP.Fitness>
44.0463

> <Gold.PLP.PLP>
-41.7920

> <Gold.PLP.part.hbond>
-3.1166

> <Gold.PLP.part.metal>
0.0000

> <Gold.PLP.part.buried>
-5.0649

> <Gold.PLP.part.nonpolar>
-36.7462

> <Gold.PLP.part.repulsive>
3.3321

> <Gold.PLP.ligand.clash>
0.0330

> <Gold.PLP.ligand.torsion>
0.9080

> <Gold.PLP.Chemscore.Hbond>
1.2880

> <Gold.PLP.Chemscore.CHOScore>
0.0000

> <Gold.PLP.Chemscore.Metal>
0.0000

> <Gold.Chemscore.Hbonds>
donor molecule, donor type, donor heavy atom, donor atom, acceptor molecule, acceptor atom, score
      P1  H  7989  7998       L1     8  0.22
      P1  H  8011  8017       L1     8  0.91

> <Gold.PLP.Chemscore.Internal.Correction>
0.2393

> <Gold.Rescore>
     Score         DG    S(hbond)    S(metal)    S(lipo)     H(rot)  DE(clash)    DE(int)     intcor
     12.01     -15.84       1.16        0.00      91.07       1.63       1.30       2.53       ----

> <Gold.Chemscore.Fitness>
12.0089

> <Gold.Chemscore.DG>
-15.8378

> <Gold.Chemscore.ZeroCoef>
-5.4800

> <Gold.Chemscore.Hbond>
1.1611

> <Gold.Chemscore.Metal>
0.0000

> <Gold.Chemscore.Lipo>
91.0664

> <Gold.Chemscore.Internal_Hbond>
0.0000

> <Gold.Chemscore.DEClash>
1.3037

> <Gold.Chemscore.DEInternal>
2.5252

> <Gold.Chemscore.Rot>
1.6308

> <Gold.Chemscore.Internal.Correction>
   9.000000E+99

> <Gold.Chemscore.Hbonds>
donor molecule, donor type, donor heavy atom, donor atom, acceptor molecule, acceptor atom, score
      P1  H  7989  7998       L1     8  0.10
      P1  H  8011  8017       L1     8  0.89

> <Gold.Chemscore.Hbond.Weighted>
-3.8780

> <Gold.Chemscore.Metal.Weighted>
-0.0000

> <Gold.Chemscore.Lipo.Weighted>
-10.6548

> <Gold.Chemscore.Internal_Hbond.Weighted>
0.0000

> <Gold.Chemscore.DEClash.Weighted>
1.3037

> <Gold.Chemscore.DEInternal.Weighted>
2.5252

> <Gold.Chemscore.Rot.Weighted>
4.1749

> <Gold.Chemscore.Internal.Correction.Weighted>
   9.000000E+99

> <Gold.Protein.RotatedTorsions>
[ 6907 6896 6895 6894 ] final  177.22 input  -60.11 | X-H torsion
[ 7974 7965 7964 7962 ] final   28.15 input  175.53 | X-H torsion
[ 8008 7997 7996 7995 ] final  -71.16 input   59.86 | X-H torsion
[ 10167 10162 10161 10158 ] final   82.12 input  -65.29 | X-H torsion
[ 10718 10713 10712 10709 ] final -167.06 input   66.30 | X-H torsion
[ 10763 10752 10751 10750 ] final -116.16 input  -60.55 | X-H torsion
[ 11005 11000 10999 10996 ] final  151.65 input  -57.11 | X-H torsion

> <Gold.Protein.ActiveResidues>
 VAL166  LYS551  ARG553  GLY616  TRP617  ASP618  TYR619  PRO620  LYS621  CYS622 
 ASP623  PHE694  ASN695  SER759  ASP760  ASP761  ALA762  ILE779  LEU786  VAL792 
 PHE793  MET794  SER795  GLU796  ALA797  LYS798  CYS799  TRP800  GLU811  SER814 

> <Gold.Protein.RotatedAtoms>
  151.7075  133.3312  159.3282 H   0  0  0  0  0  0  0  0  0  0  0  0  # atno 6907 bound_to 6896
  150.7708  134.6561  159.6324 H   0  0  0  0  0  0  0  0  0  0  0  0  # atno 6908 bound_to 6896
  152.3732  134.6706  160.0221 H   0  0  0  0  0  0  0  0  0  0  0  0  # atno 6909 bound_to 6896
  146.1745  139.7095  142.8944 H   0  0  0  0  0  0  0  0  0  0  0  0  # atno 7974 bound_to 7965
  154.5066  140.0821  156.7907 H   0  0  0  0  0  0  0  0  0  0  0  0  # atno 8008 bound_to 7997
  155.3879  140.3431  155.4231 H   0  0  0  0  0  0  0  0  0  0  0  0  # atno 8009 bound_to 7997
  156.1523  140.1562  156.8737 H   0  0  0  0  0  0  0  0  0  0  0  0  # atno 8010 bound_to 7997
  139.9321  144.6145  150.8335 H   0  0  0  0  0  0  0  0  0  0  0  0  # atno 10167 bound_to 10162
  156.6769  130.9106  151.3051 H   0  0  0  0  0  0  0  0  0  0  0  0  # atno 10718 bound_to 10713
  154.8509  135.4355  154.1778 H   0  0  0  0  0  0  0  0  0  0  0  0  # atno 10763 bound_to 10752
  153.2876  135.6959  153.7331 H   0  0  0  0  0  0  0  0  0  0  0  0  # atno 10764 bound_to 10752
  153.6510  135.3451  155.3074 H   0  0  0  0  0  0  0  0  0  0  0  0  # atno 10765 bound_to 10752
  140.1238  134.8847  157.2109 H   0  0  0  0  0  0  0  0  0  0  0  0  # atno 11005 bound_to 11000
  145.4250  141.0410  143.2943 LP  0  0  0  0  0  0  0  0  0  0  0  0  # atno 17320 bound_to 7965
  144.8214  139.5784  143.6985 LP  0  0  0  0  0  0  0  0  0  0  0  0  # atno 17321 bound_to 7965
  140.7634  143.3223  151.2594 LP  0  0  0  0  0  0  0  0  0  0  0  0  # atno 17342 bound_to 10162
  139.6774  143.9914  152.2789 LP  0  0  0  0  0  0  0  0  0  0  0  0  # atno 17343 bound_to 10162
  157.7057  130.9383  150.0925 LP  0  0  0  0  0  0  0  0  0  0  0  0  # atno 17370 bound_to 10713
  156.1897  130.3654  149.8927 LP  0  0  0  0  0  0  0  0  0  0  0  0  # atno 17371 bound_to 10713
  140.2931  134.3218  155.7310 LP  0  0  0  0  0  0  0  0  0  0  0  0  # atno 17394 bound_to 11000
  141.2157  133.7546  156.9532 LP  0  0  0  0  0  0  0  0  0  0  0  0  # atno 17395 bound_to 11000

$$$$
