AV-unprocessed.smi:2975|AV-procd|sdf|11356|dock9
  -GOLD-   2272016273D 1   1.00000     0.00000
 Structure written by MMmdl.
 39 41  0  0  0  0  0  0  0  0  1 V2000
  151.4246  138.4853  158.7690 C   0  0  0  0  0  0  0  0  0  0  0  0
  152.7245  139.2905  158.9075 C   0  0  1  0  0  0  0  0  0  0  0  0
  153.5186  139.0629  157.7620 O   0  0  0  0  0  0  0  0  0  0  0  0
  152.4577  140.7555  159.1196 C   0  0  0  0  0  0  0  0  0  0  0  0
  151.7978  141.4731  158.2069 N   0  0  0  0  0  0  0  0  0  0  0  0
  151.7555  142.7302  158.7730 C   0  0  0  0  0  0  0  0  0  0  0  0
  151.1792  143.9308  158.3001 C   0  0  0  0  0  0  0  0  0  0  0  0
  151.2617  145.1119  159.0660 C   0  0  0  0  0  0  0  0  0  0  0  0
  151.9205  145.1091  160.3124 C   0  0  0  0  0  0  0  0  0  0  0  0
  152.5027  143.9235  160.8004 C   0  0  0  0  0  0  0  0  0  0  0  0
  152.4174  142.7465  160.0320 C   0  0  0  0  0  0  0  0  0  0  0  0
  152.8751  141.4444  160.2160 N   0  0  0  0  0  0  0  0  0  0  0  0
  153.6422  140.9818  161.3657 C   0  0  0  0  0  0  0  0  0  0  0  0
  155.0078  140.4046  160.9675 C   0  0  0  0  0  0  0  0  0  0  0  0
  154.9046  139.0006  160.7730 O   0  0  0  0  0  0  0  0  0  0  0  0
  154.7792  138.1968  161.8868 C   0  0  0  0  0  0  0  0  0  0  0  0
  155.1262  138.6028  163.2010 C   0  0  0  0  0  0  0  0  0  0  0  0
  154.9598  137.7231  164.2883 C   0  0  0  0  0  0  0  0  0  0  0  0
  154.4493  136.4292  164.0788 C   0  0  0  0  0  0  0  0  0  0  0  0
  154.1049  136.0158  162.7790 C   0  0  0  0  0  0  0  0  0  0  0  0
  154.2698  136.8947  161.6911 C   0  0  0  0  0  0  0  0  0  0  0  0
  153.9427  136.4772  160.4450 F   0  0  0  0  0  0  0  0  0  0  0  0
  150.7847  138.6236  159.6404 H   0  0  0  0  0  0  0  0  0  0  0  0
  151.6307  137.4187  158.6746 H   0  0  0  0  0  0  0  0  0  0  0  0
  150.8544  138.7922  157.8916 H   0  0  0  0  0  0  0  0  0  0  0  0
  153.2761  138.8824  159.7513 H   0  0  0  0  0  0  0  0  0  0  0  0
  154.0950  138.3361  157.9424 H   0  0  0  0  0  0  0  0  0  0  0  0
  150.6720  143.9423  157.3468 H   0  0  0  0  0  0  0  0  0  0  0  0
  150.8173  146.0240  158.6954 H   0  0  0  0  0  0  0  0  0  0  0  0
  151.9790  146.0179  160.8934 H   0  0  0  0  0  0  0  0  0  0  0  0
  153.0078  143.9194  161.7548 H   0  0  0  0  0  0  0  0  0  0  0  0
  153.7472  141.7827  162.0964 H   0  0  0  0  0  0  0  0  0  0  0  0
  153.0608  140.2079  161.8675 H   0  0  0  0  0  0  0  0  0  0  0  0
  155.3407  140.8781  160.0426 H   0  0  0  0  0  0  0  0  0  0  0  0
  155.7392  140.6338  161.7442 H   0  0  0  0  0  0  0  0  0  0  0  0
  155.5189  139.5872  163.4042 H   0  0  0  0  0  0  0  0  0  0  0  0
  155.2236  138.0430  165.2857 H   0  0  0  0  0  0  0  0  0  0  0  0
  154.3224  135.7552  164.9132 H   0  0  0  0  0  0  0  0  0  0  0  0
  153.7147  135.0221  162.6149 H   0  0  0  0  0  0  0  0  0  0  0  0
  1  2  1  0  0  0  0
  1 23  1  0  0  0  0
  1 24  1  0  0  0  0
  1 25  1  0  0  0  0
  2  3  1  0  0  0  0
  2  4  1  0  0  0  0
  2 26  1  0  0  0  0
  3 27  1  0  0  0  0
  4 12  1  0  0  0  0
  4  5  2  0  0  0  0
  5  6  1  0  0  0  0
  6 11  2  0  0  0  0
  6  7  1  0  0  0  0
  7  8  2  0  0  0  0
  7 28  1  0  0  0  0
  8  9  1  0  0  0  0
  8 29  1  0  0  0  0
  9 10  2  0  0  0  0
  9 30  1  0  0  0  0
 10 11  1  0  0  0  0
 10 31  1  0  0  0  0
 11 12  1  0  0  0  0
 12 13  1  0  0  0  0
 13 14  1  0  0  0  0
 13 32  1  0  0  0  0
 13 33  1  0  0  0  0
 14 15  1  0  0  0  0
 14 34  1  0  0  0  0
 14 35  1  0  0  0  0
 15 16  1  0  0  0  0
 16 21  1  0  0  0  0
 16 17  2  0  0  0  0
 17 18  1  0  0  0  0
 17 36  1  0  0  0  0
 18 19  2  0  0  0  0
 18 37  1  0  0  0  0
 19 20  1  0  0  0  0
 19 38  1  0  0  0  0
 20 21  2  0  0  0  0
 20 39  1  0  0  0  0
 21 22  1  0  0  0  0
M  END
> <s_m_source_file>
AV-unprocessed.smi

> <i_m_source_file_index>
2975

> <i_lp_mmshare_version>
43012

> <i_f3d_flags>
0

> <s_epik_input>
W2NIXTFbY0hdW2NIXVtjSF1jKGMxMiluKGMobjIpW0NASF0oW0NIM10pW09IXSlbQ0gyXVtDSDJdT2MzW2NIXVtjSF1bY0hdW2NIXWMzRg==

> <s_epik_cmdline>
J2VwaWtfcHl0aG9uJywgJy1waCcsICc3LjAnLCAnLXRuJywgJzgnLCAnLW1hJywgJzIwMCcsICctbWV0YWxfYmluZGluZycsICctaW1hZScsICc8aW5maWxlLm1hZT4nLCAnLW9tYWUnLCAnPG91dGZpbGUubWFlPic=

> <r_lp_tautomer_probability>
1

> <r_epik_Ionization_Penalty>
0.0404035

> <r_epik_Ionization_Penalty_Charging>
0

> <r_epik_Ionization_Penalty_Neutral>
0.0404035

> <r_epik_State_Penalty>
0.0340039

> <r_epik_Charging_Adjusted_Penalty>
0.0340039

> <i_epik_Tot_Q>
0

> <i_epik_Tot_abs_Q>
0

> <r_epik_Metal_State_Penalty>
3.49976e-05

> <b_epik_Metal_Only>
0

> <s_lp_Force_Field>
OPLS_2005

> <r_lp_Energy>
14.7518

> <b_lp_Chiralities_Consistent>
1

> <s_lp_Variant>
AV-unprocessed.smi:2975-2

> <Gold.Version>
5.8.1

> <Gold.Id.Protein>
6NUR|6NUR_protein|mol2

> <Gold.PLP.Fitness>
53.0190

> <Gold.PLP.PLP>
-51.0242

> <Gold.PLP.part.hbond>
-1.0000

> <Gold.PLP.part.metal>
0.0000

> <Gold.PLP.part.buried>
-5.8434

> <Gold.PLP.part.nonpolar>
-43.9209

> <Gold.PLP.part.repulsive>
0.0000

> <Gold.PLP.ligand.clash>
0.0000

> <Gold.PLP.ligand.torsion>
0.5296

> <Gold.PLP.Chemscore.Hbond>
1.0000

> <Gold.PLP.Chemscore.CHOScore>
0.0000

> <Gold.PLP.Chemscore.Metal>
0.0000

> <Gold.Chemscore.Hbonds>
donor molecule, donor type, donor heavy atom, donor atom, acceptor molecule, acceptor atom, score
      P1  H  7997  8009       L1     3  0.75

> <Gold.PLP.Chemscore.Internal.Correction>
0.0541

> <Gold.Rescore>
     Score         DG    S(hbond)    S(metal)    S(lipo)     H(rot)  DE(clash)    DE(int)     intcor
     17.83     -19.83       0.96        0.00     143.48       2.21       0.17       1.83       ----

> <Gold.Chemscore.Fitness>
17.8322

> <Gold.Chemscore.DG>
-19.8333

> <Gold.Chemscore.ZeroCoef>
-5.4800

> <Gold.Chemscore.Hbond>
0.9621

> <Gold.Chemscore.Metal>
0.0000

> <Gold.Chemscore.Lipo>
143.4810

> <Gold.Chemscore.Internal_Hbond>
0.0000

> <Gold.Chemscore.DEClash>
0.1696

> <Gold.Chemscore.DEInternal>
1.8315

> <Gold.Chemscore.Rot>
2.2060

> <Gold.Chemscore.Internal.Correction>
   9.000000E+99

> <Gold.Chemscore.Hbonds>
donor molecule, donor type, donor heavy atom, donor atom, acceptor molecule, acceptor atom, score
      P1  H  7997  8009       L1     3  0.09

> <Gold.Chemscore.Hbond.Weighted>
-3.2133

> <Gold.Chemscore.Metal.Weighted>
-0.0000

> <Gold.Chemscore.Lipo.Weighted>
-16.7873

> <Gold.Chemscore.Internal_Hbond.Weighted>
0.0000

> <Gold.Chemscore.DEClash.Weighted>
0.1696

> <Gold.Chemscore.DEInternal.Weighted>
1.8315

> <Gold.Chemscore.Rot.Weighted>
5.6473

> <Gold.Chemscore.Internal.Correction.Weighted>
   9.000000E+99

> <Gold.Protein.RotatedTorsions>
[ 6907 6896 6895 6894 ] final -159.66 input  -60.11 | X-H torsion
[ 7974 7965 7964 7962 ] final -119.52 input  175.53 | X-H torsion
[ 8008 7997 7996 7995 ] final  148.17 input   59.86 | X-H torsion
[ 10167 10162 10161 10158 ] final  -47.56 input  -65.29 | X-H torsion
[ 10718 10713 10712 10709 ] final   81.83 input   66.30 | X-H torsion
[ 10763 10752 10751 10750 ] final  -42.70 input  -60.55 | X-H torsion
[ 11005 11000 10999 10996 ] final   90.90 input  -57.11 | X-H torsion

> <Gold.Protein.ActiveResidues>
 VAL166  LYS551  ARG553  GLY616  TRP617  ASP618  TYR619  PRO620  LYS621  CYS622 
 ASP623  PHE694  ASN695  SER759  ASP760  ASP761  ALA762  ILE779  LEU786  VAL792 
 PHE793  MET794  SER795  GLU796  ALA797  LYS798  CYS799  TRP800  GLU811  SER814 

> <Gold.Protein.RotatedAtoms>
  151.3371  133.3977  159.2667 H   0  0  0  0  0  0  0  0  0  0  0  0  # atno 6907 bound_to 6896
  150.9908  134.9244  159.7909 H   0  0  0  0  0  0  0  0  0  0  0  0  # atno 6908 bound_to 6896
  152.5246  134.3336  159.9244 H   0  0  0  0  0  0  0  0  0  0  0  0  # atno 6909 bound_to 6896
  145.0616  140.8294  143.4149 H   0  0  0  0  0  0  0  0  0  0  0  0  # atno 7974 bound_to 7965
  156.2800  140.2136  156.5656 H   0  0  0  0  0  0  0  0  0  0  0  0  # atno 8008 bound_to 7997
  154.7177  140.0506  157.0633 H   0  0  0  0  0  0  0  0  0  0  0  0  # atno 8009 bound_to 7997
  155.0520  140.3157  155.4692 H   0  0  0  0  0  0  0  0  0  0  0  0  # atno 8010 bound_to 7997
  140.6769  143.2779  151.3945 H   0  0  0  0  0  0  0  0  0  0  0  0  # atno 10167 bound_to 10162
  157.6843  131.0021  150.2285 H   0  0  0  0  0  0  0  0  0  0  0  0  # atno 10718 bound_to 10713
  153.9835  135.6714  153.4751 H   0  0  0  0  0  0  0  0  0  0  0  0  # atno 10763 bound_to 10752
  153.0738  135.4960  154.8357 H   0  0  0  0  0  0  0  0  0  0  0  0  # atno 10764 bound_to 10752
  154.7151  135.3105  154.9098 H   0  0  0  0  0  0  0  0  0  0  0  0  # atno 10765 bound_to 10752
  139.8848  134.8641  156.3350 H   0  0  0  0  0  0  0  0  0  0  0  0  # atno 11005 bound_to 11000
  145.1402  139.2577  143.5494 LP  0  0  0  0  0  0  0  0  0  0  0  0  # atno 17320 bound_to 7965
  146.3524  140.1077  142.8605 LP  0  0  0  0  0  0  0  0  0  0  0  0  # atno 17321 bound_to 7965
  139.6068  144.1181  152.2257 LP  0  0  0  0  0  0  0  0  0  0  0  0  # atno 17342 bound_to 10162
  140.0583  144.5877  150.7283 LP  0  0  0  0  0  0  0  0  0  0  0  0  # atno 17343 bound_to 10162
  156.2922  130.3747  149.7830 LP  0  0  0  0  0  0  0  0  0  0  0  0  # atno 17370 bound_to 10713
  156.5486  130.8332  151.3292 LP  0  0  0  0  0  0  0  0  0  0  0  0  # atno 17371 bound_to 10713
  140.9697  133.7335  156.0517 LP  0  0  0  0  0  0  0  0  0  0  0  0  # atno 17394 bound_to 11000
  140.7886  134.3643  157.5470 LP  0  0  0  0  0  0  0  0  0  0  0  0  # atno 17395 bound_to 11000

$$$$
