AV-unprocessed.smi:445|AV-procd|sdf|2590|dock4
  -GOLD-   2262022583D 1   1.00000     0.00000
 Structure written by MMmdl.
 44 45  0  0  0  0  0  0  0  0  3 V2000
  151.8133  138.7354  154.7254 C   0  0  0  0  0  0  0  0  0  0  0  0
  151.7733  139.6864  155.9338 C   0  0  1  0  0  0  0  0  0  0  0  0
  150.7709  140.8393  155.7148 C   0  0  0  0  0  0  0  0  0  0  0  0
  150.7665  141.8198  156.8986 C   0  0  0  0  0  0  0  0  0  0  0  0
  150.4879  141.0959  158.2238 C   0  0  0  0  0  0  0  0  0  0  0  0
  151.4893  139.9508  158.4501 C   0  0  0  0  0  0  0  0  0  0  0  0
  151.5047  138.9518  157.2714 C   0  0  1  0  0  0  0  0  0  0  0  0
  150.2581  138.1871  157.2111 N   0  0  0  0  0  0  0  0  0  0  0  0
  149.9321  137.1576  158.0070 C   0  0  0  0  0  0  0  0  0  0  0  0
  150.6769  136.7233  158.8867 O   0  0  0  0  0  0  0  0  0  0  0  0
  148.5543  136.5287  157.7564 C   0  0  0  0  0  0  0  0  0  0  0  0
  148.1684  135.5515  158.7906 N   0  0  0  0  0  0  0  0  0  0  0  0
  148.0459  136.0543  160.0980 C   0  0  0  0  0  0  0  0  0  0  0  0
  147.7099  135.2733  161.1391 C   0  0  0  0  0  0  0  0  0  0  0  0
  147.5987  135.8147  162.4767 N   0  3  0  0  0  0  0  0  0  0  0  0
  147.2849  135.0620  163.3932 O   0  0  0  0  0  0  0  0  0  0  0  0
  147.8204  137.0086  162.6564 O   0  5  0  0  0  0  0  0  0  0  0  0
  147.4675  133.8693  160.8808 C   0  0  0  0  0  0  0  0  0  0  0  0
  147.5868  133.3594  159.6282 C   0  0  0  0  0  0  0  0  0  0  0  0
  147.3495  131.9309  159.3201 C   0  0  0  0  0  0  0  0  0  0  0  0
  147.0732  131.1744  160.3899 N   0  0  0  0  0  0  0  0  0  0  0  0
  147.3832  131.3979  158.2112 O   0  0  0  0  0  0  0  0  0  0  0  0
  147.9677  134.2315  158.4833 C   0  0  0  0  0  0  0  0  0  0  0  0
  148.1091  133.8443  157.3203 O   0  0  0  0  0  0  0  0  0  0  0  0
  150.8426  138.2757  154.5383 H   0  0  0  0  0  0  0  0  0  0  0  0
  152.5375  137.9353  154.8808 H   0  0  0  0  0  0  0  0  0  0  0  0
  152.1029  139.2691  153.8199 H   0  0  0  0  0  0  0  0  0  0  0  0
  152.7653  140.1345  156.0101 H   0  0  0  0  0  0  0  0  0  0  0  0
  151.0190  141.3788  154.8000 H   0  0  0  0  0  0  0  0  0  0  0  0
  149.7668  140.4386  155.5701 H   0  0  0  0  0  0  0  0  0  0  0  0
  151.7309  142.3258  156.9560 H   0  0  0  0  0  0  0  0  0  0  0  0
  150.0192  142.5970  156.7353 H   0  0  0  0  0  0  0  0  0  0  0  0
  150.5411  141.8036  159.0515 H   0  0  0  0  0  0  0  0  0  0  0  0
  149.4705  140.7025  158.2211 H   0  0  0  0  0  0  0  0  0  0  0  0
  152.4880  140.3719  158.5732 H   0  0  0  0  0  0  0  0  0  0  0  0
  151.2648  139.4401  159.3870 H   0  0  0  0  0  0  0  0  0  0  0  0
  152.3210  138.2455  157.4339 H   0  0  0  0  0  0  0  0  0  0  0  0
  149.5877  138.4734  156.5125 H   0  0  0  0  0  0  0  0  0  0  0  0
  147.8059  137.3215  157.7036 H   0  0  0  0  0  0  0  0  0  0  0  0
  148.5529  136.0798  156.7619 H   0  0  0  0  0  0  0  0  0  0  0  0
  148.2539  137.1108  160.1912 H   0  0  0  0  0  0  0  0  0  0  0  0
  147.1890  133.2427  161.7147 H   0  0  0  0  0  0  0  0  0  0  0  0
  146.8946  130.1871  160.2803 H   0  0  0  0  0  0  0  0  0  0  0  0
  147.0426  131.5978  161.3062 H   0  0  0  0  0  0  0  0  0  0  0  0
  1  2  1  0  0  0  0
  1 25  1  0  0  0  0
  1 26  1  0  0  0  0
  1 27  1  0  0  0  0
  2  7  1  0  0  0  0
  2  3  1  0  0  0  0
  2 28  1  0  0  0  0
  3  4  1  0  0  0  0
  3 29  1  0  0  0  0
  3 30  1  0  0  0  0
  4  5  1  0  0  0  0
  4 31  1  0  0  0  0
  4 32  1  0  0  0  0
  5  6  1  0  0  0  0
  5 33  1  0  0  0  0
  5 34  1  0  0  0  0
  6  7  1  0  0  0  0
  6 35  1  0  0  0  0
  6 36  1  0  0  0  0
  7  8  1  0  0  0  0
  7 37  1  0  0  0  0
  8  9  1  0  0  0  0
  8 38  1  0  0  0  0
  9 10  2  0  0  0  0
  9 11  1  0  0  0  0
 11 12  1  0  0  0  0
 11 39  1  0  0  0  0
 11 40  1  0  0  0  0
 12 23  1  0  0  0  0
 12 13  1  0  0  0  0
 13 14  2  0  0  0  0
 13 41  1  0  0  0  0
 14 15  1  0  0  0  0
 14 18  1  0  0  0  0
 15 16  2  0  0  0  0
 15 17  1  0  0  0  0
 18 19  2  0  0  0  0
 18 42  1  0  0  0  0
 19 20  1  0  0  0  0
 19 23  1  0  0  0  0
 20 21  1  0  0  0  0
 20 22  2  0  0  0  0
 21 43  1  0  0  0  0
 21 44  1  0  0  0  0
 23 24  2  0  0  0  0
M  CHG  1  15   1
M  CHG  1  17  -1
M  END
> <s_m_source_file>
AV-unprocessed.smi

> <i_m_source_file_index>
445

> <i_lp_mmshare_version>
43012

> <i_f3d_flags>
0

> <s_epik_input>
W0NIM11bQ0BASF0xW0NIMl1bQ0gyXVtDSDJdW0NIMl1bQ0BIXTFbTkhdQyg9TylbQ0gyXW4yW2NIXWMoW04rXSg9TylbTy1dKVtjSF1jKGMyPU8pQyg9TylbTkgyXQ==

> <s_epik_cmdline>
J2VwaWtfcHl0aG9uJywgJy1waCcsICc3LjAnLCAnLXRuJywgJzgnLCAnLW1hJywgJzIwMCcsICctbWV0YWxfYmluZGluZycsICctaW1hZScsICc8aW5maWxlLm1hZT4nLCAnLW9tYWUnLCAnPG91dGZpbGUubWFlPic=

> <r_lp_tautomer_probability>
1

> <r_epik_Ionization_Penalty>
2.81321e-06

> <r_epik_Ionization_Penalty_Charging>
2.43777e-12

> <r_epik_Ionization_Penalty_Neutral>
2.81321e-06

> <r_epik_State_Penalty>
-0

> <r_epik_Charging_Adjusted_Penalty>
2.43777e-12

> <i_epik_Tot_Q>
0

> <i_epik_Tot_abs_Q>
2

> <r_epik_Metal_State_Penalty>
-0

> <b_epik_Metal_Only>
0

> <s_lp_Force_Field>
OPLS_2005

> <r_lp_Energy>
28.4442

> <b_lp_Chiralities_Consistent>
1

> <s_lp_Variant>
AV-unprocessed.smi:445-2

> <Gold.Version>
5.8.1

> <Gold.Id.Protein>
6NUR|6NUR_protein|mol2

> <Gold.PLP.Fitness>
41.7611

> <Gold.PLP.PLP>
-36.7479

> <Gold.PLP.part.hbond>
-2.9222

> <Gold.PLP.part.metal>
0.0000

> <Gold.PLP.part.buried>
-5.7024

> <Gold.PLP.part.nonpolar>
-27.5563

> <Gold.PLP.part.repulsive>
0.0245

> <Gold.PLP.ligand.clash>
0.0000

> <Gold.PLP.ligand.torsion>
0.3508

> <Gold.PLP.Chemscore.Hbond>
1.8960

> <Gold.PLP.Chemscore.CHOScore>
0.0000

> <Gold.PLP.Chemscore.Metal>
0.0000

> <Gold.Chemscore.Hbonds>
donor molecule, donor type, donor heavy atom, donor atom, acceptor molecule, acceptor atom, score
      P1  H  6896  6908       L1    10  1.00
      P1  H  6931  6943       L1    17  0.90

> <Gold.PLP.Chemscore.Internal.Correction>
0.0268

> <Gold.Rescore>
     Score         DG    S(hbond)    S(metal)    S(lipo)     H(rot)  DE(clash)    DE(int)     intcor
     14.01     -15.99       2.17        0.00      65.44       1.71       0.10       1.88       ----

> <Gold.Chemscore.Fitness>
14.0123

> <Gold.Chemscore.DG>
-15.9922

> <Gold.Chemscore.ZeroCoef>
-5.4800

> <Gold.Chemscore.Hbond>
2.1674

> <Gold.Chemscore.Metal>
0.0000

> <Gold.Chemscore.Lipo>
65.4406

> <Gold.Chemscore.Internal_Hbond>
0.0000

> <Gold.Chemscore.DEClash>
0.1013

> <Gold.Chemscore.DEInternal>
1.8787

> <Gold.Chemscore.Rot>
1.7123

> <Gold.Chemscore.Internal.Correction>
   9.000000E+99

> <Gold.Chemscore.Hbonds>
donor molecule, donor type, donor heavy atom, donor atom, acceptor molecule, acceptor atom, score
      P1  H  6896  6908       L1    10  0.96
      P1  H  6931  6943       L1    17  0.88

> <Gold.Chemscore.Hbond.Weighted>
-7.2391

> <Gold.Chemscore.Metal.Weighted>
-0.0000

> <Gold.Chemscore.Lipo.Weighted>
-7.6566

> <Gold.Chemscore.Internal_Hbond.Weighted>
0.0000

> <Gold.Chemscore.DEClash.Weighted>
0.1013

> <Gold.Chemscore.DEInternal.Weighted>
1.8787

> <Gold.Chemscore.Rot.Weighted>
4.3835

> <Gold.Chemscore.Internal.Correction.Weighted>
   9.000000E+99

> <Gold.Protein.RotatedTorsions>
[ 6907 6896 6895 6894 ] final -157.42 input  -60.11 | X-H torsion
[ 7974 7965 7964 7962 ] final -166.81 input  175.53 | X-H torsion
[ 8008 7997 7996 7995 ] final   45.22 input   59.86 | X-H torsion
[ 10167 10162 10161 10158 ] final  130.96 input  -65.29 | X-H torsion
[ 10718 10713 10712 10709 ] final -119.80 input   66.30 | X-H torsion
[ 10763 10752 10751 10750 ] final -176.94 input  -60.55 | X-H torsion
[ 11005 11000 10999 10996 ] final   82.35 input  -57.11 | X-H torsion

> <Gold.Protein.ActiveResidues>
 VAL166  LYS551  ARG553  GLY616  TRP617  ASP618  TYR619  PRO620  LYS621  CYS622 
 ASP623  PHE694  ASN695  SER759  ASP760  ASP761  ALA762  ILE779  LEU786  VAL792 
 PHE793  MET794  SER795  GLU796  ALA797  LYS798  CYS799  TRP800  GLU811  SER814 

> <Gold.Protein.RotatedAtoms>
  151.3026  133.4115  159.2640 H   0  0  0  0  0  0  0  0  0  0  0  0  # atno 6907 bound_to 6896
  151.0182  134.9449  159.8055 H   0  0  0  0  0  0  0  0  0  0  0  0  # atno 6908 bound_to 6896
  152.5318  134.2990  159.9124 H   0  0  0  0  0  0  0  0  0  0  0  0  # atno 6909 bound_to 6896
  144.7237  140.2612  143.6264 H   0  0  0  0  0  0  0  0  0  0  0  0  # atno 7974 bound_to 7965
  155.3322  140.3403  155.4239 H   0  0  0  0  0  0  0  0  0  0  0  0  # atno 8008 bound_to 7997
  156.1856  140.1679  156.8229 H   0  0  0  0  0  0  0  0  0  0  0  0  # atno 8009 bound_to 7997
  154.5382  140.0730  156.8447 H   0  0  0  0  0  0  0  0  0  0  0  0  # atno 8010 bound_to 7997
  139.5406  144.6726  151.4639 H   0  0  0  0  0  0  0  0  0  0  0  0  # atno 10167 bound_to 10162
  156.1209  130.6322  150.9461 H   0  0  0  0  0  0  0  0  0  0  0  0  # atno 10718 bound_to 10713
  154.5662  135.2824  155.0871 H   0  0  0  0  0  0  0  0  0  0  0  0  # atno 10763 bound_to 10752
  154.2261  135.6382  153.5164 H   0  0  0  0  0  0  0  0  0  0  0  0  # atno 10764 bound_to 10752
  153.0044  135.5526  154.6272 H   0  0  0  0  0  0  0  0  0  0  0  0  # atno 10765 bound_to 10752
  139.9066  134.8065  156.2163 H   0  0  0  0  0  0  0  0  0  0  0  0  # atno 11005 bound_to 11000
  145.8134  139.2013  143.1980 LP  0  0  0  0  0  0  0  0  0  0  0  0  # atno 17320 bound_to 7965
  146.0576  140.8004  142.9750 LP  0  0  0  0  0  0  0  0  0  0  0  0  # atno 17321 bound_to 7965
  140.6633  143.8451  150.6913 LP  0  0  0  0  0  0  0  0  0  0  0  0  # atno 17342 bound_to 10162
  140.1853  143.4081  152.1903 LP  0  0  0  0  0  0  0  0  0  0  0  0  # atno 17343 bound_to 10162
  157.6392  131.0912  150.8286 LP  0  0  0  0  0  0  0  0  0  0  0  0  # atno 17370 bound_to 10713
  156.8383  130.5039  149.5324 LP  0  0  0  0  0  0  0  0  0  0  0  0  # atno 17371 bound_to 10713
  141.0434  133.6926  156.1638 LP  0  0  0  0  0  0  0  0  0  0  0  0  # atno 17394 bound_to 11000
  140.6921  134.4654  157.5588 LP  0  0  0  0  0  0  0  0  0  0  0  0  # atno 17395 bound_to 11000

$$$$
