AV-unprocessed.smi:2275|AV-procd|sdf|9171|dock7
  -GOLD-   2272012383D 1   1.00000     0.00000
 Structure written by MMmdl.
 38 39  0  0  0  0  0  0  0  0  1 V2000
  152.5834  143.8416  161.6058 C   0  0  0  0  0  0  0  0  0  0  0  0
  152.9419  142.5130  160.9639 C   0  0  0  0  0  0  0  0  0  0  0  0
  153.6791  141.6350  161.7640 N   0  0  0  0  0  0  0  0  0  0  0  0
  154.0237  140.4773  161.3026 C   0  0  0  0  0  0  0  0  0  0  0  0
  153.6725  140.0655  160.0070 N   0  0  0  0  0  0  0  0  0  0  0  0
  154.1184  138.7209  159.6074 C   0  0  0  0  0  0  0  0  0  0  0  0
  153.4882  137.6151  160.4836 C   0  0  1  0  0  0  0  0  0  0  0  0
  153.5252  136.3731  159.8103 O   0  0  0  0  0  0  0  0  0  0  0  0
  154.2008  137.4364  161.8344 C   0  0  0  0  0  0  0  0  0  0  0  0
  155.0824  136.3212  161.7731 O   0  0  0  0  0  0  0  0  0  0  0  0
  154.9422  135.3243  162.7144 C   0  0  0  0  0  0  0  0  0  0  0  0
  154.4096  135.6974  163.9658 C   0  0  0  0  0  0  0  0  0  0  0  0
  154.2311  134.7446  164.9870 C   0  0  0  0  0  0  0  0  0  0  0  0
  154.5850  133.4012  164.7647 C   0  0  0  0  0  0  0  0  0  0  0  0
  155.1179  133.0145  163.5211 C   0  0  0  0  0  0  0  0  0  0  0  0
  155.2968  133.9680  162.4997 C   0  0  0  0  0  0  0  0  0  0  0  0
  152.9741  140.8683  159.1530 C   0  0  0  0  0  0  0  0  0  0  0  0
  152.6976  140.5082  158.0071 O   0  0  0  0  0  0  0  0  0  0  0  0
  152.5810  142.1791  159.6949 C   0  0  0  0  0  0  0  0  0  0  0  0
  151.7778  143.0930  158.7778 C   0  0  0  0  0  0  0  0  0  0  0  0
  151.5011  143.9516  161.6756 H   0  0  0  0  0  0  0  0  0  0  0  0
  152.9823  144.6696  161.0195 H   0  0  0  0  0  0  0  0  0  0  0  0
  152.9930  143.9202  162.6136 H   0  0  0  0  0  0  0  0  0  0  0  0
  154.6046  139.7580  161.8827 H   0  0  0  0  0  0  0  0  0  0  0  0
  153.9335  138.5251  158.5490 H   0  0  0  0  0  0  0  0  0  0  0  0
  155.2054  138.6779  159.6982 H   0  0  0  0  0  0  0  0  0  0  0  0
  152.4413  137.8433  160.6882 H   0  0  0  0  0  0  0  0  0  0  0  0
  154.4045  136.2314  159.4939 H   0  0  0  0  0  0  0  0  0  0  0  0
  154.7801  138.3377  162.0416 H   0  0  0  0  0  0  0  0  0  0  0  0
  153.4723  137.3193  162.6389 H   0  0  0  0  0  0  0  0  0  0  0  0
  154.1351  136.7266  164.1452 H   0  0  0  0  0  0  0  0  0  0  0  0
  153.8227  135.0451  165.9406 H   0  0  0  0  0  0  0  0  0  0  0  0
  154.4485  132.6688  165.5468 H   0  0  0  0  0  0  0  0  0  0  0  0
  155.3902  131.9836  163.3494 H   0  0  0  0  0  0  0  0  0  0  0  0
  155.7079  133.6327  161.5598 H   0  0  0  0  0  0  0  0  0  0  0  0
  152.3543  143.3274  157.8823 H   0  0  0  0  0  0  0  0  0  0  0  0
  151.5001  144.0357  159.2463 H   0  0  0  0  0  0  0  0  0  0  0  0
  150.8567  142.5985  158.4673 H   0  0  0  0  0  0  0  0  0  0  0  0
  1  2  1  0  0  0  0
  1 21  1  0  0  0  0
  1 22  1  0  0  0  0
  1 23  1  0  0  0  0
  2 19  2  0  0  0  0
  2  3  1  0  0  0  0
  3  4  2  0  0  0  0
  4  5  1  0  0  0  0
  4 24  1  0  0  0  0
  5  6  1  0  0  0  0
  5 17  1  0  0  0  0
  6  7  1  0  0  0  0
  6 25  1  0  0  0  0
  6 26  1  0  0  0  0
  7  8  1  0  0  0  0
  7  9  1  0  0  0  0
  7 27  1  0  0  0  0
  8 28  1  0  0  0  0
  9 10  1  0  0  0  0
  9 29  1  0  0  0  0
  9 30  1  0  0  0  0
 10 11  1  0  0  0  0
 11 16  1  0  0  0  0
 11 12  2  0  0  0  0
 12 13  1  0  0  0  0
 12 31  1  0  0  0  0
 13 14  2  0  0  0  0
 13 32  1  0  0  0  0
 14 15  1  0  0  0  0
 14 33  1  0  0  0  0
 15 16  2  0  0  0  0
 15 34  1  0  0  0  0
 16 35  1  0  0  0  0
 17 18  2  0  0  0  0
 17 19  1  0  0  0  0
 19 20  1  0  0  0  0
 20 36  1  0  0  0  0
 20 37  1  0  0  0  0
 20 38  1  0  0  0  0
M  END
> <s_m_source_file>
AV-unprocessed.smi

> <i_m_source_file_index>
2275

> <i_lp_mmshare_version>
43012

> <i_f3d_flags>
0

> <s_epik_input>
W0NIM11jMW5bY0hdbihjKD1PKWMxW0NIM10pW0NIMl1bQ0BIXShbT0hdKVtDSDJdT2MyW2NIXVtjSF1bY0hdW2NIXVtjSF0y

> <s_epik_cmdline>
J2VwaWtfcHl0aG9uJywgJy1waCcsICc3LjAnLCAnLXRuJywgJzgnLCAnLW1hJywgJzIwMCcsICctbWV0YWxfYmluZGluZycsICctaW1hZScsICc8aW5maWxlLm1hZT4nLCAnLW9tYWUnLCAnPG91dGZpbGUubWFlPic=

> <r_lp_tautomer_probability>
1

> <r_epik_Ionization_Penalty>
4.18311e-05

> <r_epik_Ionization_Penalty_Charging>
1.04093e-07

> <r_epik_Ionization_Penalty_Neutral>
4.1727e-05

> <r_epik_State_Penalty>
-0

> <r_epik_Charging_Adjusted_Penalty>
1.04093e-07

> <i_epik_Tot_Q>
0

> <i_epik_Tot_abs_Q>
0

> <r_epik_Metal_State_Penalty>
-0

> <b_epik_Metal_Only>
0

> <s_lp_Force_Field>
OPLS_2005

> <r_lp_Energy>
23.5562

> <b_lp_Chiralities_Consistent>
1

> <s_lp_Variant>
AV-unprocessed.smi:2275-2

> <Gold.Version>
5.8.1

> <Gold.Id.Protein>
6NUR|6NUR_protein|mol2

> <Gold.PLP.Fitness>
42.9443

> <Gold.PLP.PLP>
-40.5100

> <Gold.PLP.part.hbond>
-2.0000

> <Gold.PLP.part.metal>
0.0000

> <Gold.PLP.part.buried>
-0.7142

> <Gold.PLP.part.nonpolar>
-36.2035

> <Gold.PLP.part.repulsive>
0.0139

> <Gold.PLP.ligand.clash>
0.0000

> <Gold.PLP.ligand.torsion>
1.4911

> <Gold.PLP.Chemscore.Hbond>
1.7823

> <Gold.PLP.Chemscore.CHOScore>
0.0000

> <Gold.PLP.Chemscore.Metal>
0.0000

> <Gold.Chemscore.Hbonds>
donor molecule, donor type, donor heavy atom, donor atom, acceptor molecule, acceptor atom, score
      P1  H  6896  6908       L1     8  1.00
      P1  H  7997  8010       L1    18  0.57

> <Gold.PLP.Chemscore.Internal.Correction>
0.0694

> <Gold.Rescore>
     Score         DG    S(hbond)    S(metal)    S(lipo)     H(rot)  DE(clash)    DE(int)     intcor
     15.93     -17.45       1.78        0.00     103.62       2.38       0.07       1.45       ----

> <Gold.Chemscore.Fitness>
15.9251

> <Gold.Chemscore.DG>
-17.4470

> <Gold.Chemscore.ZeroCoef>
-5.4800

> <Gold.Chemscore.Hbond>
1.7795

> <Gold.Chemscore.Metal>
0.0000

> <Gold.Chemscore.Lipo>
103.6153

> <Gold.Chemscore.Internal_Hbond>
0.0000

> <Gold.Chemscore.DEClash>
0.0726

> <Gold.Chemscore.DEInternal>
1.4494

> <Gold.Chemscore.Rot>
2.3826

> <Gold.Chemscore.Internal.Correction>
   9.000000E+99

> <Gold.Chemscore.Hbonds>
donor molecule, donor type, donor heavy atom, donor atom, acceptor molecule, acceptor atom, score
      P1  H  6896  6908       L1     8  0.94
      P1  H  7997  8010       L1    18  0.39

> <Gold.Chemscore.Hbond.Weighted>
-5.9436

> <Gold.Chemscore.Metal.Weighted>
-0.0000

> <Gold.Chemscore.Lipo.Weighted>
-12.1230

> <Gold.Chemscore.Internal_Hbond.Weighted>
0.0000

> <Gold.Chemscore.DEClash.Weighted>
0.0726

> <Gold.Chemscore.DEInternal.Weighted>
1.4494

> <Gold.Chemscore.Rot.Weighted>
6.0996

> <Gold.Chemscore.Internal.Correction.Weighted>
   9.000000E+99

> <Gold.Protein.RotatedTorsions>
[ 6907 6896 6895 6894 ] final  -91.33 input  -60.11 | X-H torsion
[ 7974 7965 7964 7962 ] final   61.08 input  175.53 | X-H torsion
[ 8008 7997 7996 7995 ] final   40.77 input   59.86 | X-H torsion
[ 10167 10162 10161 10158 ] final -132.15 input  -65.29 | X-H torsion
[ 10718 10713 10712 10709 ] final  -87.00 input   66.30 | X-H torsion
[ 10763 10752 10751 10750 ] final   13.25 input  -60.55 | X-H torsion
[ 11005 11000 10999 10996 ] final -164.21 input  -57.11 | X-H torsion

> <Gold.Protein.ActiveResidues>
 VAL166  LYS551  ARG553  GLY616  TRP617  ASP618  TYR619  PRO620  LYS621  CYS622 
 ASP623  PHE694  ASN695  SER759  ASP760  ASP761  ALA762  ILE779  LEU786  VAL792 
 PHE793  MET794  SER795  GLU796  ALA797  LYS798  CYS799  TRP800  GLU811  SER814 

> <Gold.Protein.RotatedAtoms>
  150.6891  134.2293  159.4427 H   0  0  0  0  0  0  0  0  0  0  0  0  # atno 6907 bound_to 6896
  152.0244  134.9801  160.0580 H   0  0  0  0  0  0  0  0  0  0  0  0  # atno 6908 bound_to 6896
  152.1365  133.4404  159.4783 H   0  0  0  0  0  0  0  0  0  0  0  0  # atno 6909 bound_to 6896
  145.8888  139.3496  143.0662 H   0  0  0  0  0  0  0  0  0  0  0  0  # atno 7974 bound_to 7965
  155.2587  140.3357  155.4275 H   0  0  0  0  0  0  0  0  0  0  0  0  # atno 8008 bound_to 7997
  156.2184  140.1799  156.7577 H   0  0  0  0  0  0  0  0  0  0  0  0  # atno 8009 bound_to 7997
  154.5788  140.0657  156.9058 H   0  0  0  0  0  0  0  0  0  0  0  0  # atno 8010 bound_to 7997
  139.9116  143.6488  152.2574 H   0  0  0  0  0  0  0  0  0  0  0  0  # atno 10167 bound_to 10162
  155.9987  130.4785  150.4801 H   0  0  0  0  0  0  0  0  0  0  0  0  # atno 10718 bound_to 10713
  153.1740  135.6817  153.8568 H   0  0  0  0  0  0  0  0  0  0  0  0  # atno 10763 bound_to 10752
  153.7922  135.3167  155.3381 H   0  0  0  0  0  0  0  0  0  0  0  0  # atno 10764 bound_to 10752
  154.8017  135.4774  154.0385 H   0  0  0  0  0  0  0  0  0  0  0  0  # atno 10765 bound_to 10752
  140.5894  134.5060  157.5190 H   0  0  0  0  0  0  0  0  0  0  0  0  # atno 11005 bound_to 11000
  145.8934  140.9289  143.0540 LP  0  0  0  0  0  0  0  0  0  0  0  0  # atno 17320 bound_to 7965
  144.6729  140.0936  143.7464 LP  0  0  0  0  0  0  0  0  0  0  0  0  # atno 17321 bound_to 7965
  139.6938  144.7644  151.1392 LP  0  0  0  0  0  0  0  0  0  0  0  0  # atno 17342 bound_to 10162
  140.7684  143.5552  150.9160 LP  0  0  0  0  0  0  0  0  0  0  0  0  # atno 17343 bound_to 10162
  157.2807  131.0606  151.2199 LP  0  0  0  0  0  0  0  0  0  0  0  0  # atno 17370 bound_to 10713
  157.3247  130.6954  149.6289 LP  0  0  0  0  0  0  0  0  0  0  0  0  # atno 17371 bound_to 10713
  139.9281  134.8017  156.1010 LP  0  0  0  0  0  0  0  0  0  0  0  0  # atno 17394 bound_to 11000
  141.0945  133.6701  156.2613 LP  0  0  0  0  0  0  0  0  0  0  0  0  # atno 17395 bound_to 11000

$$$$
