AV-unprocessed.smi:438|AV-procd|sdf|2566|dock6
  -GOLD-   2262022543D 1   1.00000     0.00000
 Structure written by MMmdl.
 48 49  0  0  0  0  0  0  0  0  1 V2000
  145.5955  136.7239  155.8580 C   0  0  0  0  0  0  0  0  0  0  0  0
  146.2255  137.6410  154.8245 C   0  0  0  0  0  0  0  0  0  0  0  0
  147.1453  138.5689  155.3262 N   0  0  0  0  0  0  0  0  0  0  0  0
  147.7620  139.3771  154.5247 C   0  0  0  0  0  0  0  0  0  0  0  0
  149.0167  140.6428  154.8962 S   0  0  0  0  0  0  0  0  0  0  0  0
  150.4992  139.6401  155.2245 C   0  0  0  0  0  0  0  0  0  0  0  0
  151.4895  140.3255  156.1664 C   0  0  0  0  0  0  0  0  0  0  0  0
  152.6172  139.8572  156.3178 O   0  0  0  0  0  0  0  0  0  0  0  0
  151.0337  141.4122  156.8130 N   0  0  0  0  0  0  0  0  0  0  0  0
  151.7048  142.1709  157.8703 C   0  0  1  0  0  0  0  0  0  0  0  0
  151.0926  143.5799  158.0260 C   0  0  0  0  0  0  0  0  0  0  0  0
  151.8690  144.4099  159.0578 C   0  0  0  0  0  0  0  0  0  0  0  0
  151.9411  143.6812  160.4081 C   0  0  0  0  0  0  0  0  0  0  0  0
  152.5532  142.2791  160.2553 C   0  0  0  0  0  0  0  0  0  0  0  0
  151.7832  141.4234  159.2285 C   0  0  2  0  0  0  0  0  0  0  0  0
  152.4174  140.0268  159.1034 C   0  0  0  0  0  0  0  0  0  0  0  0
  147.5009  139.3454  153.1547 N   0  0  0  0  0  0  0  0  0  0  0  0
  146.6251  138.4967  152.5719 C   0  0  0  0  0  0  0  0  0  0  0  0
  146.4487  138.5229  151.3548 O   0  0  0  0  0  0  0  0  0  0  0  0
  145.9367  137.5776  153.4941 C   0  0  0  0  0  0  0  0  0  0  0  0
  144.9532  136.5737  152.8928 C   0  0  0  0  0  0  0  0  0  0  0  0
  145.5336  135.7922  151.7011 C   0  0  0  0  0  0  0  0  0  0  0  0
  146.6858  135.0717  152.0849 O   0  0  0  0  0  0  0  0  0  0  0  0
  144.5079  136.7694  155.8047 H   0  0  0  0  0  0  0  0  0  0  0  0
  145.8920  137.0039  156.8697 H   0  0  0  0  0  0  0  0  0  0  0  0
  145.9102  135.6933  155.6926 H   0  0  0  0  0  0  0  0  0  0  0  0
  150.9764  139.3835  154.2775 H   0  0  0  0  0  0  0  0  0  0  0  0
  150.1843  138.7014  155.6806 H   0  0  0  0  0  0  0  0  0  0  0  0
  150.0905  141.7041  156.6001 H   0  0  0  0  0  0  0  0  0  0  0  0
  152.7265  142.3026  157.5112 H   0  0  0  0  0  0  0  0  0  0  0  0
  151.0945  144.0979  157.0659 H   0  0  0  0  0  0  0  0  0  0  0  0
  150.0496  143.5107  158.3365 H   0  0  0  0  0  0  0  0  0  0  0  0
  152.8776  144.6019  158.6896 H   0  0  0  0  0  0  0  0  0  0  0  0
  151.3942  145.3835  159.1844 H   0  0  0  0  0  0  0  0  0  0  0  0
  152.5298  144.2675  161.1142 H   0  0  0  0  0  0  0  0  0  0  0  0
  150.9403  143.5985  160.8338 H   0  0  0  0  0  0  0  0  0  0  0  0
  153.5963  142.3711  159.9499 H   0  0  0  0  0  0  0  0  0  0  0  0
  152.5603  141.7804  161.2252 H   0  0  0  0  0  0  0  0  0  0  0  0
  150.7722  141.2899  159.6148 H   0  0  0  0  0  0  0  0  0  0  0  0
  153.4276  140.0856  158.6974 H   0  0  0  0  0  0  0  0  0  0  0  0
  151.8328  139.3761  158.4529 H   0  0  0  0  0  0  0  0  0  0  0  0
  152.4780  139.5372  160.0757 H   0  0  0  0  0  0  0  0  0  0  0  0
  147.9963  139.9899  152.5561 H   0  0  0  0  0  0  0  0  0  0  0  0
  144.0305  137.0663  152.5880 H   0  0  0  0  0  0  0  0  0  0  0  0
  144.6532  135.8725  153.6727 H   0  0  0  0  0  0  0  0  0  0  0  0
  144.7992  135.1006  151.2877 H   0  0  0  0  0  0  0  0  0  0  0  0
  145.8070  136.4808  150.9013 H   0  0  0  0  0  0  0  0  0  0  0  0
  147.4390  135.6341  151.9848 H   0  0  0  0  0  0  0  0  0  0  0  0
  1 24  1  0  0  0  0
  1 25  1  0  0  0  0
  1 26  1  0  0  0  0
  1  2  1  0  0  0  0
  2 20  2  0  0  0  0
  2  3  1  0  0  0  0
  3  4  2  0  0  0  0
  4  5  1  0  0  0  0
  4 17  1  0  0  0  0
  5  6  1  0  0  0  0
  6  7  1  0  0  0  0
  6 27  1  0  0  0  0
  6 28  1  0  0  0  0
  7  8  2  0  0  0  0
  7  9  1  0  0  0  0
  9 10  1  0  0  0  0
  9 29  1  0  0  0  0
 10 15  1  0  0  0  0
 10 11  1  0  0  0  0
 10 30  1  0  0  0  0
 11 12  1  0  0  0  0
 11 31  1  0  0  0  0
 11 32  1  0  0  0  0
 12 13  1  0  0  0  0
 12 33  1  0  0  0  0
 12 34  1  0  0  0  0
 13 14  1  0  0  0  0
 13 35  1  0  0  0  0
 13 36  1  0  0  0  0
 14 15  1  0  0  0  0
 14 37  1  0  0  0  0
 14 38  1  0  0  0  0
 15 16  1  0  0  0  0
 15 39  1  0  0  0  0
 16 40  1  0  0  0  0
 16 41  1  0  0  0  0
 16 42  1  0  0  0  0
 17 43  1  0  0  0  0
 17 18  1  0  0  0  0
 18 19  2  0  0  0  0
 18 20  1  0  0  0  0
 20 21  1  0  0  0  0
 21 22  1  0  0  0  0
 21 44  1  0  0  0  0
 21 45  1  0  0  0  0
 22 23  1  0  0  0  0
 22 46  1  0  0  0  0
 22 47  1  0  0  0  0
 23 48  1  0  0  0  0
M  END
> <s_m_source_file>
AV-unprocessed.smi

> <i_m_source_file_index>
438

> <i_lp_mmshare_version>
43012

> <i_f3d_flags>
0

> <s_epik_input>
W09IXVtDSDJdW0NIMl1jMWMoW09IXSluYyhuYzFbQ0gzXSlTW0NIMl1DKD1PKVtOSF1bQ0BASF0yW0NIMl1bQ0gyXVtDSDJdW0NIMl1bQ0BIXTJbQ0gzXQ==

> <s_epik_cmdline>
J2VwaWtfcHl0aG9uJywgJy1waCcsICc3LjAnLCAnLXRuJywgJzgnLCAnLW1hJywgJzIwMCcsICctbWV0YWxfYmluZGluZycsICctaW1hZScsICc8aW5maWxlLm1hZT4nLCAnLW9tYWUnLCAnPG91dGZpbGUubWFlPic=

> <r_lp_tautomer_probability>
0.660323

> <r_epik_Ionization_Penalty>
0.00860626

> <r_epik_Ionization_Penalty_Charging>
0.00860522

> <r_epik_Ionization_Penalty_Neutral>
1.04215e-06

> <r_epik_State_Penalty>
0.156825

> <r_epik_Charging_Adjusted_Penalty>
0.16543

> <i_epik_Tot_Q>
0

> <i_epik_Tot_abs_Q>
0

> <r_epik_Metal_State_Penalty>
0.752038

> <b_epik_Metal_Only>
0

> <s_lp_Force_Field>
OPLS_2005

> <r_lp_Energy>
14.076

> <b_lp_Chiralities_Consistent>
1

> <s_lp_Variant>
AV-unprocessed.smi:438-4

> <Gold.Version>
5.8.1

> <Gold.Id.Protein>
6NUR|6NUR_protein|mol2

> <Gold.PLP.Fitness>
55.5020

> <Gold.PLP.PLP>
-44.8671

> <Gold.PLP.part.hbond>
-3.8870

> <Gold.PLP.part.metal>
0.0000

> <Gold.PLP.part.buried>
-5.7064

> <Gold.PLP.part.nonpolar>
-36.6818

> <Gold.PLP.part.repulsive>
0.6646

> <Gold.PLP.ligand.clash>
0.0000

> <Gold.PLP.ligand.torsion>
0.7397

> <Gold.PLP.Chemscore.Hbond>
4.0000

> <Gold.PLP.Chemscore.CHOScore>
0.0000

> <Gold.PLP.Chemscore.Metal>
0.0000

> <Gold.Chemscore.Hbonds>
donor molecule, donor type, donor heavy atom, donor atom, acceptor molecule, acceptor atom, score
      L1  H    17    43       P1  7957  0.64
      L1  H    23    48       P1  7948  1.00
      P1  H  7954  7966       L1    19  0.21
      P1  H  7997  8010       L1     8  1.00

> <Gold.PLP.Chemscore.Internal.Correction>
0.1143

> <Gold.Rescore>
     Score         DG    S(hbond)    S(metal)    S(lipo)     H(rot)  DE(clash)    DE(int)     intcor
     20.53     -23.01       3.96        0.00      99.60       2.86       0.13       2.36       ----

> <Gold.Chemscore.Fitness>
20.5296

> <Gold.Chemscore.DG>
-23.0110

> <Gold.Chemscore.ZeroCoef>
-5.4800

> <Gold.Chemscore.Hbond>
3.9554

> <Gold.Chemscore.Metal>
0.0000

> <Gold.Chemscore.Lipo>
99.5979

> <Gold.Chemscore.Internal_Hbond>
0.0000

> <Gold.Chemscore.DEClash>
0.1263

> <Gold.Chemscore.DEInternal>
2.3551

> <Gold.Chemscore.Rot>
2.8645

> <Gold.Chemscore.Internal.Correction>
   9.000000E+99

> <Gold.Chemscore.Hbonds>
donor molecule, donor type, donor heavy atom, donor atom, acceptor molecule, acceptor atom, score
      L1  H    17    43       P1  7957  0.62
      L1  H    23    48       P1  7948  0.99
      P1  H  7954  7966       L1    19  0.22
      P1  H  7997  8010       L1     8  1.00

> <Gold.Chemscore.Hbond.Weighted>
-13.2111

> <Gold.Chemscore.Metal.Weighted>
-0.0000

> <Gold.Chemscore.Lipo.Weighted>
-11.6530

> <Gold.Chemscore.Internal_Hbond.Weighted>
0.0000

> <Gold.Chemscore.DEClash.Weighted>
0.1263

> <Gold.Chemscore.DEInternal.Weighted>
2.3551

> <Gold.Chemscore.Rot.Weighted>
7.3331

> <Gold.Chemscore.Internal.Correction.Weighted>
   9.000000E+99

> <Gold.Protein.RotatedTorsions>
[ 6907 6896 6895 6894 ] final -174.73 input  -60.11 | X-H torsion
[ 7974 7965 7964 7962 ] final   -9.83 input  175.53 | X-H torsion
[ 8008 7997 7996 7995 ] final   75.02 input   59.86 | X-H torsion
[ 10167 10162 10161 10158 ] final  -62.49 input  -65.29 | X-H torsion
[ 10718 10713 10712 10709 ] final   34.47 input   66.30 | X-H torsion
[ 10763 10752 10751 10750 ] final  -65.33 input  -60.55 | X-H torsion
[ 11005 11000 10999 10996 ] final -119.80 input  -57.11 | X-H torsion

> <Gold.Protein.ActiveResidues>
 VAL166  LYS551  ARG553  GLY616  TRP617  ASP618  TYR619  PRO620  LYS621  CYS622 
 ASP623  PHE694  ASN695  SER759  ASP760  ASP761  ALA762  ILE779  LEU786  VAL792 
 PHE793  MET794  SER795  GLU796  ALA797  LYS798  CYS799  TRP800  GLU811  SER814 

> <Gold.Protein.RotatedAtoms>
  151.5772  133.3382  159.3000 H   0  0  0  0  0  0  0  0  0  0  0  0  # atno 6907 bound_to 6896
  150.8334  134.7600  159.6884 H   0  0  0  0  0  0  0  0  0  0  0  0  # atno 6908 bound_to 6896
  152.4414  134.5589  159.9940 H   0  0  0  0  0  0  0  0  0  0  0  0  # atno 6909 bound_to 6896
  146.2240  140.2674  142.8355 H   0  0  0  0  0  0  0  0  0  0  0  0  # atno 7974 bound_to 7965
  155.8069  140.3474  155.5435 H   0  0  0  0  0  0  0  0  0  0  0  0  # atno 8008 bound_to 7997
  155.8481  140.0952  157.1713 H   0  0  0  0  0  0  0  0  0  0  0  0  # atno 8009 bound_to 7997
  154.4007  140.1382  156.3797 H   0  0  0  0  0  0  0  0  0  0  0  0  # atno 8010 bound_to 7997
  140.5935  143.2346  151.6086 H   0  0  0  0  0  0  0  0  0  0  0  0  # atno 10167 bound_to 10162
  157.3107  130.7398  149.6723 H   0  0  0  0  0  0  0  0  0  0  0  0  # atno 10718 bound_to 10713
  154.3435  135.6151  153.5608 H   0  0  0  0  0  0  0  0  0  0  0  0  # atno 10763 bound_to 10752
  152.9802  135.5775  154.4826 H   0  0  0  0  0  0  0  0  0  0  0  0  # atno 10764 bound_to 10752
  154.4534  135.2853  155.1742 H   0  0  0  0  0  0  0  0  0  0  0  0  # atno 10765 bound_to 10752
  141.0189  134.0154  157.3310 H   0  0  0  0  0  0  0  0  0  0  0  0  # atno 11005 bound_to 11000
  144.9294  140.7957  143.5699 LP  0  0  0  0  0  0  0  0  0  0  0  0  # atno 17320 bound_to 7965
  145.2616  139.1990  143.4889 LP  0  0  0  0  0  0  0  0  0  0  0  0  # atno 17321 bound_to 7965
  139.5243  144.3108  152.0995 LP  0  0  0  0  0  0  0  0  0  0  0  0  # atno 17342 bound_to 10162
  140.2276  144.4402  150.6314 LP  0  0  0  0  0  0  0  0  0  0  0  0  # atno 17343 bound_to 10162
  155.9677  130.4252  150.4644 LP  0  0  0  0  0  0  0  0  0  0  0  0  # atno 17370 bound_to 10713
  157.2642  131.0573  151.2301 LP  0  0  0  0  0  0  0  0  0  0  0  0  # atno 17371 bound_to 10713
  139.9134  135.0193  156.7783 LP  0  0  0  0  0  0  0  0  0  0  0  0  # atno 17394 bound_to 11000
  140.6607  133.9648  155.7803 LP  0  0  0  0  0  0  0  0  0  0  0  0  # atno 17395 bound_to 11000

$$$$
