AV-unprocessed.smi:1929|AV-procd|sdf|7805|dock9
  -GOLD-   22720 9543D 1   1.00000     0.00000
 Structure written by MMmdl.
 42 43  0  0  0  0  0  0  0  0  3 V2000
  151.9212  139.4052  158.6291 C   0  0  0  0  0  0  0  0  0  0  0  0
  152.4131  139.3996  157.2568 N   0  5  0  0  0  0  0  0  0  0  0  0
  151.7026  139.8827  156.2026 C   0  0  0  0  0  0  0  0  0  0  0  0
  151.8417  139.7065  154.9876 O   0  0  0  0  0  0  0  0  0  0  0  0
  150.5766  140.8100  156.6740 C   0  0  0  0  0  0  0  0  0  0  0  0
  149.2822  140.3829  156.0864 N   0  3  2  0  0  0  0  0  0  0  0  0
  149.2241  140.5456  154.6081 C   0  0  0  0  0  0  0  0  0  0  0  0
  147.9194  139.9672  154.0361 C   0  0  0  0  0  0  0  0  0  0  0  0
  146.6891  140.6065  154.6986 C   0  0  1  0  0  0  0  0  0  0  0  0
  145.4717  139.9729  154.2004 N   0  0  0  0  0  0  0  0  0  0  0  0
  145.2054  138.6600  154.2599 C   0  0  0  0  0  0  0  0  0  0  0  0
  145.9791  137.8336  154.7433 O   0  0  0  0  0  0  0  0  0  0  0  0
  144.0123  138.3801  153.7072 N   0  0  0  0  0  0  0  0  0  0  0  0
  143.3562  137.1234  153.6021 C   0  0  0  0  0  0  0  0  0  0  0  0
  142.1112  137.0849  152.9409 C   0  0  0  0  0  0  0  0  0  0  0  0
  141.4325  135.8538  152.8420 C   0  0  0  0  0  0  0  0  0  0  0  0
  141.9076  134.7011  153.3585 N   0  0  0  0  0  0  0  0  0  0  0  0
  143.0924  134.7424  154.0038 C   0  0  0  0  0  0  0  0  0  0  0  0
  143.8524  135.9193  154.1577 C   0  0  0  0  0  0  0  0  0  0  0  0
  146.7933  140.4613  156.2274 C   0  0  0  0  0  0  0  0  0  0  0  0
  148.1225  141.0294  156.7509 C   0  0  0  0  0  0  0  0  0  0  0  0
  152.6605  139.0107  159.3256 H   0  0  0  0  0  0  0  0  0  0  0  0
  151.0258  138.7951  158.7511 H   0  0  0  0  0  0  0  0  0  0  0  0
  151.6708  140.4072  158.9787 H   0  0  0  0  0  0  0  0  0  0  0  0
  150.5364  140.7291  157.7611 H   0  0  0  0  0  0  0  0  0  0  0  0
  150.7715  141.8618  156.4521 H   0  0  0  0  0  0  0  0  0  0  0  0
  149.3099  141.6032  154.3541 H   0  0  0  0  0  0  0  0  0  0  0  0
  150.0675  140.0406  154.1369 H   0  0  0  0  0  0  0  0  0  0  0  0
  147.8890  140.1266  152.9577 H   0  0  0  0  0  0  0  0  0  0  0  0
  147.9065  138.8870  154.1900 H   0  0  0  0  0  0  0  0  0  0  0  0
  146.6751  141.6677  154.4409 H   0  0  0  0  0  0  0  0  0  0  0  0
  144.7821  140.5790  153.7805 H   0  0  0  0  0  0  0  0  0  0  0  0
  143.5336  139.1527  153.2683 H   0  0  0  0  0  0  0  0  0  0  0  0
  141.6818  137.9783  152.5111 H   0  0  0  0  0  0  0  0  0  0  0  0
  140.4799  135.7946  152.3364 H   0  0  0  0  0  0  0  0  0  0  0  0
  143.4439  133.8089  154.4176 H   0  0  0  0  0  0  0  0  0  0  0  0
  144.7817  135.8759  154.7042 H   0  0  0  0  0  0  0  0  0  0  0  0
  145.9611  140.9725  156.7129 H   0  0  0  0  0  0  0  0  0  0  0  0
  146.7154  139.4094  156.5068 H   0  0  0  0  0  0  0  0  0  0  0  0
  148.1781  140.8698  157.8284 H   0  0  0  0  0  0  0  0  0  0  0  0
  148.1630  142.1073  156.5867 H   0  0  0  0  0  0  0  0  0  0  0  0
  149.2073  139.3939  156.2776 H   0  0  0  0  0  0  0  0  0  0  0  0
  1  2  1  0  0  0  0
  1 22  1  0  0  0  0
  1 23  1  0  0  0  0
  1 24  1  0  0  0  0
  2  3  1  0  0  0  0
  3  4  2  0  0  0  0
  3  5  1  0  0  0  0
  5  6  1  0  0  0  0
  5 25  1  0  0  0  0
  5 26  1  0  0  0  0
  6 21  1  0  0  0  0
  6  7  1  0  0  0  0
  6 42  1  0  0  0  0
  7  8  1  0  0  0  0
  7 27  1  0  0  0  0
  7 28  1  0  0  0  0
  8  9  1  0  0  0  0
  8 29  1  0  0  0  0
  8 30  1  0  0  0  0
  9 10  1  0  0  0  0
  9 20  1  0  0  0  0
  9 31  1  0  0  0  0
 10 11  1  0  0  0  0
 10 32  1  0  0  0  0
 11 12  2  0  0  0  0
 11 13  1  0  0  0  0
 13 14  1  0  0  0  0
 13 33  1  0  0  0  0
 14 19  1  0  0  0  0
 14 15  2  0  0  0  0
 15 16  1  0  0  0  0
 15 34  1  0  0  0  0
 16 17  2  0  0  0  0
 16 35  1  0  0  0  0
 17 18  1  0  0  0  0
 18 19  2  0  0  0  0
 18 36  1  0  0  0  0
 19 37  1  0  0  0  0
 20 21  1  0  0  0  0
 20 38  1  0  0  0  0
 20 39  1  0  0  0  0
 21 40  1  0  0  0  0
 21 41  1  0  0  0  0
M  CHG  1   2  -1
M  CHG  1   6   1
M  END
> <s_m_source_file>
AV-unprocessed.smi

> <i_m_source_file_index>
1929

> <i_lp_mmshare_version>
43012

> <i_f3d_flags>
0

> <s_epik_input>
W0NIM11bTkhdQyg9TylbQ0gyXU4xW0NIMl1bQ0gyXVtDSF0oW0NIMl1bQ0gyXTEpW05IXUMoPU8pW05IXWMyW2NIXVtjSF1uW2NIXVtjSF0y

> <s_epik_cmdline>
J2VwaWtfcHl0aG9uJywgJy1waCcsICc3LjAnLCAnLXRuJywgJzgnLCAnLW1hJywgJzIwMCcsICctbWV0YWxfYmluZGluZycsICctaW1hZScsICc8aW5maWxlLm1hZT4nLCAnLW9tYWUnLCAnPG91dGZpbGUubWFlPic=

> <r_epik_Ionization_Penalty>
6.23856

> <r_epik_Ionization_Penalty_Charging>
6.13946

> <r_epik_Ionization_Penalty_Neutral>
0.0990993

> <r_epik_State_Penalty>
7.04382

> <r_epik_Charging_Adjusted_Penalty>
13.1833

> <i_epik_Tot_Q>
0

> <i_epik_Tot_abs_Q>
2

> <r_epik_Metal_State_Penalty>
3.07449

> <b_epik_Metal_Only>
1

> <s_lp_Force_Field>
OPLS_2005

> <r_lp_Energy>
14.2578

> <b_lp_Chiralities_Consistent>
1

> <s_lp_Variant>
AV-unprocessed.smi:1929-7

> <Gold.Version>
5.8.1

> <Gold.Id.Protein>
6NUR|6NUR_protein|mol2

> <Gold.PLP.Fitness>
44.6568

> <Gold.PLP.PLP>
-23.8058

> <Gold.PLP.part.hbond>
-4.4164

> <Gold.PLP.part.metal>
0.0000

> <Gold.PLP.part.buried>
-1.5510

> <Gold.PLP.part.nonpolar>
-19.9246

> <Gold.PLP.part.repulsive>
0.3205

> <Gold.PLP.ligand.clash>
0.0000

> <Gold.PLP.ligand.torsion>
0.1947

> <Gold.PLP.Chemscore.Hbond>
5.5716

> <Gold.PLP.Chemscore.CHOScore>
1.4935

> <Gold.PLP.Chemscore.Metal>
0.0000

> <Gold.Chemscore.Hbonds>
donor molecule, donor type, donor heavy atom, donor atom, acceptor molecule, acceptor atom, score
      L1  H    10    32       P1 10175  0.75
      L1  H    13    33       P1 10175  0.92
      P1  H  7989  7998       L1     4  0.99
      P1  H  7997  8010       L1     2  1.30
      L1  C    16    35       P1 10187  0.01
      L1  C    18    36       P1 10957  1.00

> <Gold.PLP.Chemscore.Internal.Correction>
0.0453

> <Gold.Rescore>
     Score         DG    S(hbond)    S(metal)    S(lipo)     H(rot)  DE(clash)    DE(int)     intcor
     16.09     -20.17       3.79        0.00      52.98       1.63       0.23       3.85       ----

> <Gold.Chemscore.Fitness>
16.0918

> <Gold.Chemscore.DG>
-20.1703

> <Gold.Chemscore.ZeroCoef>
-5.4800

> <Gold.Chemscore.Hbond>
3.7933

> <Gold.Chemscore.Metal>
0.0000

> <Gold.Chemscore.Lipo>
52.9848

> <Gold.Chemscore.Internal_Hbond>
0.0000

> <Gold.Chemscore.DEClash>
0.2265

> <Gold.Chemscore.DEInternal>
3.8521

> <Gold.Chemscore.Rot>
1.6323

> <Gold.Chemscore.Internal.Correction>
   9.000000E+99

> <Gold.Chemscore.Hbonds>
donor molecule, donor type, donor heavy atom, donor atom, acceptor molecule, acceptor atom, score
      L1  H    10    32       P1 10175  0.74
      L1  H    13    33       P1 10175  0.84
      P1  H  7989  7998       L1     4  0.94
      P1  H  7997  8010       L1     2  0.16

> <Gold.Chemscore.Hbond.Weighted>
-12.6697

> <Gold.Chemscore.Metal.Weighted>
-0.0000

> <Gold.Chemscore.Lipo.Weighted>
-6.1992

> <Gold.Chemscore.Internal_Hbond.Weighted>
0.0000

> <Gold.Chemscore.DEClash.Weighted>
0.2265

> <Gold.Chemscore.DEInternal.Weighted>
3.8521

> <Gold.Chemscore.Rot.Weighted>
4.1786

> <Gold.Chemscore.Internal.Correction.Weighted>
   9.000000E+99

> <Gold.Protein.RotatedTorsions>
[ 6907 6896 6895 6894 ] final  131.86 input  -60.11 | X-H torsion
[ 7974 7965 7964 7962 ] final   -1.75 input  175.53 | X-H torsion
[ 8008 7997 7996 7995 ] final   54.56 input   59.86 | X-H torsion
[ 10167 10162 10161 10158 ] final -168.95 input  -65.29 | X-H torsion
[ 10718 10713 10712 10709 ] final -157.75 input   66.30 | X-H torsion
[ 10763 10752 10751 10750 ] final  119.71 input  -60.55 | X-H torsion
[ 11005 11000 10999 10996 ] final   14.31 input  -57.11 | X-H torsion

> <Gold.Protein.ActiveResidues>
 VAL166  LYS551  ARG553  GLY616  TRP617  ASP618  TYR619  PRO620  LYS621  CYS622 
 ASP623  PHE694  ASN695  SER759  ASP760  ASP761  ALA762  ILE779  LEU786  VAL792 
 PHE793  MET794  SER795  GLU796  ALA797  LYS798  CYS799  TRP800  GLU811  SER814 

> <Gold.Protein.RotatedAtoms>
  152.3383  133.6037  159.5857 H   0  0  0  0  0  0  0  0  0  0  0  0  # atno 6907 bound_to 6896
  150.7463  133.9762  159.3570 H   0  0  0  0  0  0  0  0  0  0  0  0  # atno 6908 bound_to 6896
  151.7629  135.0806  160.0399 H   0  0  0  0  0  0  0  0  0  0  0  0  # atno 6909 bound_to 6896
  146.2413  140.1468  142.8334 H   0  0  0  0  0  0  0  0  0  0  0  0  # atno 7974 bound_to 7965
  155.4867  140.3470  155.4348 H   0  0  0  0  0  0  0  0  0  0  0  0  # atno 8008 bound_to 7997
  156.1004  140.1434  156.9503 H   0  0  0  0  0  0  0  0  0  0  0  0  # atno 8009 bound_to 7997
  154.4690  140.0907  156.7073 H   0  0  0  0  0  0  0  0  0  0  0  0  # atno 8010 bound_to 7997
  139.5953  144.1126  152.1682 H   0  0  0  0  0  0  0  0  0  0  0  0  # atno 10167 bound_to 10162
  156.5447  130.8579  151.2760 H   0  0  0  0  0  0  0  0  0  0  0  0  # atno 10718 bound_to 10713
  153.5872  135.3472  155.2897 H   0  0  0  0  0  0  0  0  0  0  0  0  # atno 10763 bound_to 10752
  154.8658  135.4196  154.2556 H   0  0  0  0  0  0  0  0  0  0  0  0  # atno 10764 bound_to 10752
  153.3355  135.7047  153.6982 H   0  0  0  0  0  0  0  0  0  0  0  0  # atno 10765 bound_to 10752
  140.4709  134.1032  155.7732 H   0  0  0  0  0  0  0  0  0  0  0  0  # atno 11005 bound_to 11000
  145.0201  140.8786  143.5172 LP  0  0  0  0  0  0  0  0  0  0  0  0  # atno 17320 bound_to 7965
  145.1515  139.2512  143.5438 LP  0  0  0  0  0  0  0  0  0  0  0  0  # atno 17321 bound_to 7965
  140.0709  144.5780  150.7192 LP  0  0  0  0  0  0  0  0  0  0  0  0  # atno 17342 bound_to 10162
  140.7207  143.2586  151.4289 LP  0  0  0  0  0  0  0  0  0  0  0  0  # atno 17343 bound_to 10162
  157.7399  130.9840  150.2342 LP  0  0  0  0  0  0  0  0  0  0  0  0  # atno 17370 bound_to 10713
  156.2939  130.3749  149.7814 LP  0  0  0  0  0  0  0  0  0  0  0  0  # atno 17371 bound_to 10713
  141.1577  133.8851  157.1932 LP  0  0  0  0  0  0  0  0  0  0  0  0  # atno 17394 bound_to 11000
  139.9886  135.0073  156.9921 LP  0  0  0  0  0  0  0  0  0  0  0  0  # atno 17395 bound_to 11000

$$$$
