AV-unprocessed.smi:910|AV-procd|sdf|4118|dock5
  -GOLD-   22720 2 13D 1   1.00000     0.00000
 Structure written by MMmdl.
 46 47  0  0  0  0  0  0  0  0  1 V2000
  145.2386  136.3131  149.7375 C   0  0  0  0  0  0  0  0  0  0  0  0
  145.5745  137.2618  150.8450 C   0  0  0  0  0  0  0  0  0  0  0  0
  146.7355  138.0212  150.8346 N   0  0  0  0  0  0  0  0  0  0  0  0
  146.6839  138.7285  151.9647 C   0  0  0  0  0  0  0  0  0  0  0  0
  147.6357  139.6809  152.4072 N   0  0  0  0  0  0  0  0  0  0  0  0
  147.6721  140.2987  153.5989 C   0  0  0  0  0  0  0  0  0  0  0  0
  146.7866  140.2397  154.4527 O   0  0  0  0  0  0  0  0  0  0  0  0
  148.8108  140.9899  153.7565 N   0  0  0  0  0  0  0  0  0  0  0  0
  149.2146  141.6675  154.9846 C   0  0  0  0  0  0  0  0  0  0  0  0
  150.5776  141.1575  155.4779 C   0  0  0  0  0  0  0  0  0  0  0  0
  151.0419  142.0197  156.5052 O   0  0  0  0  0  0  0  0  0  0  0  0
  150.3466  141.9306  157.7421 C   0  0  2  0  0  0  0  0  0  0  0  0
  150.3301  143.3016  158.4541 C   0  0  0  0  0  0  0  0  0  0  0  0
  151.7462  143.7646  158.8370 C   0  0  0  0  0  0  0  0  0  0  0  0
  152.4679  142.7099  159.6888 C   0  0  0  0  0  0  0  0  0  0  0  0
  152.4857  141.3411  158.9897 C   0  0  0  0  0  0  0  0  0  0  0  0
  151.0628  140.8764  158.6160 C   0  0  2  0  0  0  0  0  0  0  0  0
  151.0707  139.4885  157.9565 C   0  0  0  0  0  0  0  0  0  0  0  0
  145.5735  138.4910  152.7120 O   0  0  0  0  0  0  0  0  0  0  0  0
  144.8803  137.5545  151.9919 C   0  0  0  0  0  0  0  0  0  0  0  0
  143.5872  137.0667  152.5515 C   0  0  0  0  0  0  0  0  0  0  0  0
  144.1627  136.1511  149.6664 H   0  0  0  0  0  0  0  0  0  0  0  0
  145.7101  135.3432  149.8967 H   0  0  0  0  0  0  0  0  0  0  0  0
  145.5781  136.6929  148.7734 H   0  0  0  0  0  0  0  0  0  0  0  0
  148.4025  139.8595  151.7760 H   0  0  0  0  0  0  0  0  0  0  0  0
  149.4751  140.9939  152.9966 H   0  0  0  0  0  0  0  0  0  0  0  0
  149.2822  142.7337  154.7681 H   0  0  0  0  0  0  0  0  0  0  0  0
  148.4557  141.5563  155.7608 H   0  0  0  0  0  0  0  0  0  0  0  0
  150.4831  140.1289  155.8261 H   0  0  0  0  0  0  0  0  0  0  0  0
  151.2967  141.1577  154.6580 H   0  0  0  0  0  0  0  0  0  0  0  0
  149.3226  141.5984  157.5616 H   0  0  0  0  0  0  0  0  0  0  0  0
  149.8477  144.0587  157.8372 H   0  0  0  0  0  0  0  0  0  0  0  0
  149.7240  143.2258  159.3577 H   0  0  0  0  0  0  0  0  0  0  0  0
  152.3251  143.9630  157.9351 H   0  0  0  0  0  0  0  0  0  0  0  0
  151.6945  144.7077  159.3814 H   0  0  0  0  0  0  0  0  0  0  0  0
  153.4881  143.0348  159.8955 H   0  0  0  0  0  0  0  0  0  0  0  0
  151.9700  142.6190  160.6549 H   0  0  0  0  0  0  0  0  0  0  0  0
  153.1057  141.3986  158.0939 H   0  0  0  0  0  0  0  0  0  0  0  0
  152.9588  140.6066  159.6424 H   0  0  0  0  0  0  0  0  0  0  0  0
  150.4960  140.7818  159.5434 H   0  0  0  0  0  0  0  0  0  0  0  0
  151.6375  139.4917  157.0250 H   0  0  0  0  0  0  0  0  0  0  0  0
  150.0575  139.1563  157.7288 H   0  0  0  0  0  0  0  0  0  0  0  0
  151.5208  138.7450  158.6148 H   0  0  0  0  0  0  0  0  0  0  0  0
  143.4216  136.0209  152.2923 H   0  0  0  0  0  0  0  0  0  0  0  0
  142.7537  137.6490  152.1586 H   0  0  0  0  0  0  0  0  0  0  0  0
  143.5762  137.1497  153.6386 H   0  0  0  0  0  0  0  0  0  0  0  0
  1  2  1  0  0  0  0
  1 22  1  0  0  0  0
  1 23  1  0  0  0  0
  1 24  1  0  0  0  0
  2 20  2  0  0  0  0
  2  3  1  0  0  0  0
  3  4  2  0  0  0  0
  4  5  1  0  0  0  0
  4 19  1  0  0  0  0
  5  6  1  0  0  0  0
  5 25  1  0  0  0  0
  6  7  2  0  0  0  0
  6  8  1  0  0  0  0
  8  9  1  0  0  0  0
  8 26  1  0  0  0  0
  9 10  1  0  0  0  0
  9 27  1  0  0  0  0
  9 28  1  0  0  0  0
 10 11  1  0  0  0  0
 10 29  1  0  0  0  0
 10 30  1  0  0  0  0
 11 12  1  0  0  0  0
 12 17  1  0  0  0  0
 12 13  1  0  0  0  0
 12 31  1  0  0  0  0
 13 14  1  0  0  0  0
 13 32  1  0  0  0  0
 13 33  1  0  0  0  0
 14 15  1  0  0  0  0
 14 34  1  0  0  0  0
 14 35  1  0  0  0  0
 15 16  1  0  0  0  0
 15 36  1  0  0  0  0
 15 37  1  0  0  0  0
 16 17  1  0  0  0  0
 16 38  1  0  0  0  0
 16 39  1  0  0  0  0
 17 18  1  0  0  0  0
 17 40  1  0  0  0  0
 18 41  1  0  0  0  0
 18 42  1  0  0  0  0
 18 43  1  0  0  0  0
 19 20  1  0  0  0  0
 20 21  1  0  0  0  0
 21 44  1  0  0  0  0
 21 45  1  0  0  0  0
 21 46  1  0  0  0  0
M  END
> <s_m_source_file>
AV-unprocessed.smi

> <i_m_source_file_index>
910

> <i_lp_mmshare_version>
43012

> <i_f3d_flags>
0

> <s_epik_input>
W0NIM11jMW5jKG9jMVtDSDNdKVtOSF1DKD1PKVtOSF1bQ0gyXVtDSDJdT1tDQEBIXTJbQ0gyXVtDSDJdW0NIMl1bQ0gyXVtDQEhdMltDSDNd

> <s_epik_cmdline>
J2VwaWtfcHl0aG9uJywgJy1waCcsICc3LjAnLCAnLXRuJywgJzgnLCAnLW1hJywgJzIwMCcsICctbWV0YWxfYmluZGluZycsICctaW1hZScsICc8aW5maWxlLm1hZT4nLCAnLW9tYWUnLCAnPG91dGZpbGUubWFlPic=

> <r_lp_tautomer_probability>
0.785861

> <r_epik_Ionization_Penalty>
4.15957e-05

> <r_epik_Ionization_Penalty_Charging>
0

> <r_epik_Ionization_Penalty_Neutral>
4.15957e-05

> <r_epik_State_Penalty>
0.0240523

> <r_epik_Charging_Adjusted_Penalty>
0.0240523

> <i_epik_Tot_Q>
0

> <i_epik_Tot_abs_Q>
0

> <r_epik_Metal_State_Penalty>
0.057053

> <b_epik_Metal_Only>
0

> <s_lp_Force_Field>
OPLS_2005

> <r_lp_Energy>
8.47643

> <b_lp_Chiralities_Consistent>
1

> <s_lp_Variant>
AV-unprocessed.smi:910-3

> <Gold.Version>
5.8.1

> <Gold.Id.Protein>
6NUR|6NUR_protein|mol2

> <Gold.PLP.Fitness>
40.6362

> <Gold.PLP.PLP>
-33.1177

> <Gold.PLP.part.hbond>
-2.9433

> <Gold.PLP.part.metal>
0.0000

> <Gold.PLP.part.buried>
1.1220

> <Gold.PLP.part.nonpolar>
-34.3310

> <Gold.PLP.part.repulsive>
4.0784

> <Gold.PLP.ligand.clash>
0.0000

> <Gold.PLP.ligand.torsion>
0.4846

> <Gold.PLP.Chemscore.Hbond>
2.8168

> <Gold.PLP.Chemscore.CHOScore>
0.0000

> <Gold.PLP.Chemscore.Metal>
0.0000

> <Gold.Chemscore.Hbonds>
donor molecule, donor type, donor heavy atom, donor atom, acceptor molecule, acceptor atom, score
      L1  H     5    25       P1  7957  0.52
      L1  H     8    26       P1  7957  0.66
      P1  H  7954  7966       L1     3  1.00

> <Gold.PLP.Chemscore.Internal.Correction>
0.0375

> <Gold.Rescore>
     Score         DG    S(hbond)    S(metal)    S(lipo)     H(rot)  DE(clash)    DE(int)     intcor
     16.02     -20.77       2.57        0.00      93.65       1.66       2.77       1.98       ----

> <Gold.Chemscore.Fitness>
16.0202

> <Gold.Chemscore.DG>
-20.7716

> <Gold.Chemscore.ZeroCoef>
-5.4800

> <Gold.Chemscore.Hbond>
2.5682

> <Gold.Chemscore.Metal>
0.0000

> <Gold.Chemscore.Lipo>
93.6513

> <Gold.Chemscore.Internal_Hbond>
0.0000

> <Gold.Chemscore.DEClash>
2.7724

> <Gold.Chemscore.DEInternal>
1.9790

> <Gold.Chemscore.Rot>
1.6576

> <Gold.Chemscore.Internal.Correction>
   9.000000E+99

> <Gold.Chemscore.Hbonds>
donor molecule, donor type, donor heavy atom, donor atom, acceptor molecule, acceptor atom, score
      L1  H     5    25       P1  7957  0.52
      L1  H     8    26       P1  7957  0.63
      P1  H  7954  7966       L1     3  0.98

> <Gold.Chemscore.Hbond.Weighted>
-8.5779

> <Gold.Chemscore.Metal.Weighted>
-0.0000

> <Gold.Chemscore.Lipo.Weighted>
-10.9572

> <Gold.Chemscore.Internal_Hbond.Weighted>
0.0000

> <Gold.Chemscore.DEClash.Weighted>
2.7724

> <Gold.Chemscore.DEInternal.Weighted>
1.9790

> <Gold.Chemscore.Rot.Weighted>
4.2436

> <Gold.Chemscore.Internal.Correction.Weighted>
   9.000000E+99

> <Gold.Protein.RotatedTorsions>
[ 6907 6896 6895 6894 ] final   78.28 input  -60.11 | X-H torsion
[ 7974 7965 7964 7962 ] final -162.86 input  175.53 | X-H torsion
[ 8008 7997 7996 7995 ] final   41.22 input   59.86 | X-H torsion
[ 10167 10162 10161 10158 ] final  -35.44 input  -65.29 | X-H torsion
[ 10718 10713 10712 10709 ] final  -99.27 input   66.30 | X-H torsion
[ 10763 10752 10751 10750 ] final   79.76 input  -60.55 | X-H torsion
[ 11005 11000 10999 10996 ] final   12.07 input  -57.11 | X-H torsion

> <Gold.Protein.ActiveResidues>
 VAL166  LYS551  ARG553  GLY616  TRP617  ASP618  TYR619  PRO620  LYS621  CYS622 
 ASP623  PHE694  ASN695  SER759  ASP760  ASP761  ALA762  ILE779  LEU786  VAL792 
 PHE793  MET794  SER795  GLU796  ALA797  LYS798  CYS799  TRP800  GLU811  SER814 

> <Gold.Protein.RotatedAtoms>
  152.5153  134.3688  159.9310 H   0  0  0  0  0  0  0  0  0  0  0  0  # atno 6907 bound_to 6896
  151.3641  133.3872  159.2700 H   0  0  0  0  0  0  0  0  0  0  0  0  # atno 6908 bound_to 6896
  150.9628  134.9033  159.7799 H   0  0  0  0  0  0  0  0  0  0  0  0  # atno 6909 bound_to 6896
  144.7344  140.3192  143.6174 H   0  0  0  0  0  0  0  0  0  0  0  0  # atno 7974 bound_to 7965
  155.2660  140.3362  155.4269 H   0  0  0  0  0  0  0  0  0  0  0  0  # atno 8008 bound_to 7997
  156.2154  140.1787  156.7644 H   0  0  0  0  0  0  0  0  0  0  0  0  # atno 8009 bound_to 7997
  154.5745  140.0664  156.8999 H   0  0  0  0  0  0  0  0  0  0  0  0  # atno 8010 bound_to 7997
  140.7165  143.3477  151.2221 H   0  0  0  0  0  0  0  0  0  0  0  0  # atno 10167 bound_to 10162
  156.0129  130.5275  150.6646 H   0  0  0  0  0  0  0  0  0  0  0  0  # atno 10718 bound_to 10713
  153.0979  135.4827  154.8812 H   0  0  0  0  0  0  0  0  0  0  0  0  # atno 10763 bound_to 10752
  154.7345  135.3068  154.8837 H   0  0  0  0  0  0  0  0  0  0  0  0  # atno 10764 bound_to 10752
  153.9463  135.6828  153.4797 H   0  0  0  0  0  0  0  0  0  0  0  0  # atno 10765 bound_to 10752
  140.4961  134.0792  155.7782 H   0  0  0  0  0  0  0  0  0  0  0  0  # atno 11005 bound_to 11000
  145.7586  139.1817  143.2280 LP  0  0  0  0  0  0  0  0  0  0  0  0  # atno 17320 bound_to 7965
  146.1004  140.7550  142.9552 LP  0  0  0  0  0  0  0  0  0  0  0  0  # atno 17321 bound_to 7965
  139.7001  143.9548  152.2901 LP  0  0  0  0  0  0  0  0  0  0  0  0  # atno 17342 bound_to 10162
  139.9238  144.6783  150.8434 LP  0  0  0  0  0  0  0  0  0  0  0  0  # atno 17343 bound_to 10162
  157.4381  131.0858  151.0971 LP  0  0  0  0  0  0  0  0  0  0  0  0  # atno 17370 bound_to 10713
  157.1523  130.6189  149.5586 LP  0  0  0  0  0  0  0  0  0  0  0  0  # atno 17371 bound_to 10713
  141.1459  133.9055  157.2215 LP  0  0  0  0  0  0  0  0  0  0  0  0  # atno 17394 bound_to 11000
  139.9741  135.0119  156.9586 LP  0  0  0  0  0  0  0  0  0  0  0  0  # atno 17395 bound_to 11000

$$$$
