AV-unprocessed.smi:657|AV-procd|sdf|3225|dock1
  -GOLD-   22720 0163D 1   1.00000     0.00000
 Structure written by MMmdl.
 46 47  0  0  0  0  0  0  0  0  1 V2000
  150.9453  137.6091  154.5199 C   0  0  0  0  0  0  0  0  0  0  0  0
  150.3162  138.6433  155.4721 C   0  0  0  0  0  0  0  0  0  0  0  0
  149.6068  137.9648  156.6620 C   0  0  0  0  0  0  0  0  0  0  0  0
  149.4575  139.6022  154.7404 N   0  0  0  0  0  0  0  0  0  0  0  0
  148.1705  139.0269  154.3126 C   0  0  0  0  0  0  0  0  0  0  0  0
  147.4550  139.9540  153.3158 C   0  0  0  0  0  0  0  0  0  0  0  0
  147.1956  141.3278  153.9359 C   0  0  0  0  0  0  0  0  0  0  0  0
  148.5184  141.9061  154.4430 C   0  0  0  0  0  0  0  0  0  0  0  0
  149.2264  140.9256  155.4076 C   0  0  2  0  0  0  0  0  0  0  0  0
  150.4943  141.5972  155.9701 C   0  0  0  0  0  0  0  0  0  0  0  0
  151.5325  140.9496  156.1104 O   0  0  0  0  0  0  0  0  0  0  0  0
  150.3849  142.8910  156.3105 N   0  0  0  0  0  0  0  0  0  0  0  0
  151.4537  143.7035  156.8778 C   0  0  0  0  0  0  0  0  0  0  0  0
  150.9960  144.4253  158.1547 C   0  0  0  0  0  0  0  0  0  0  0  0
  151.6439  143.8398  159.3777 C   0  0  0  0  0  0  0  0  0  0  0  0
  152.5412  142.7361  159.4474 C   0  0  0  0  0  0  0  0  0  0  0  0
  152.9305  142.4670  160.6830 N   0  0  0  0  0  0  0  0  0  0  0  0
  152.2988  143.3858  161.4419 N   0  0  0  0  0  0  0  0  0  0  0  0
  152.4989  143.3869  162.8751 C   0  0  0  0  0  0  0  0  0  0  0  0
  151.5158  144.2275  160.6817 C   0  0  0  0  0  0  0  0  0  0  0  0
  151.7402  137.0604  155.0258 H   0  0  0  0  0  0  0  0  0  0  0  0
  151.3880  138.0919  153.6480 H   0  0  0  0  0  0  0  0  0  0  0  0
  150.2276  136.8676  154.1704 H   0  0  0  0  0  0  0  0  0  0  0  0
  151.1758  139.1796  155.8707 H   0  0  0  0  0  0  0  0  0  0  0  0
  150.3082  137.3434  157.2191 H   0  0  0  0  0  0  0  0  0  0  0  0
  148.7935  137.3155  156.3379 H   0  0  0  0  0  0  0  0  0  0  0  0
  149.1981  138.6916  157.3633 H   0  0  0  0  0  0  0  0  0  0  0  0
  148.3096  138.0659  153.8219 H   0  0  0  0  0  0  0  0  0  0  0  0
  147.5263  138.8485  155.1746 H   0  0  0  0  0  0  0  0  0  0  0  0
  148.0590  140.0617  152.4136 H   0  0  0  0  0  0  0  0  0  0  0  0
  146.5112  139.5059  153.0038 H   0  0  0  0  0  0  0  0  0  0  0  0
  146.7436  141.9970  153.2035 H   0  0  0  0  0  0  0  0  0  0  0  0
  146.4879  141.2366  154.7607 H   0  0  0  0  0  0  0  0  0  0  0  0
  149.1620  142.1249  153.5892 H   0  0  0  0  0  0  0  0  0  0  0  0
  148.3284  142.8592  154.9389 H   0  0  0  0  0  0  0  0  0  0  0  0
  148.5528  140.7629  156.2514 H   0  0  0  0  0  0  0  0  0  0  0  0
  149.4925  143.3426  156.1726 H   0  0  0  0  0  0  0  0  0  0  0  0
  152.2926  143.0443  157.1036 H   0  0  0  0  0  0  0  0  0  0  0  0
  151.8138  144.4213  156.1386 H   0  0  0  0  0  0  0  0  0  0  0  0
  151.2282  145.4880  158.0757 H   0  0  0  0  0  0  0  0  0  0  0  0
  149.9099  144.3646  158.2329 H   0  0  0  0  0  0  0  0  0  0  0  0
  152.9177  142.1254  158.6400 H   0  0  0  0  0  0  0  0  0  0  0  0
  151.9169  144.1867  163.3336 H   0  0  0  0  0  0  0  0  0  0  0  0
  153.5544  143.5427  163.1004 H   0  0  0  0  0  0  0  0  0  0  0  0
  152.1796  142.4318  163.2933 H   0  0  0  0  0  0  0  0  0  0  0  0
  150.9365  145.0236  161.1258 H   0  0  0  0  0  0  0  0  0  0  0  0
  1  2  1  0  0  0  0
  1 21  1  0  0  0  0
  1 22  1  0  0  0  0
  1 23  1  0  0  0  0
  2  3  1  0  0  0  0
  2  4  1  0  0  0  0
  2 24  1  0  0  0  0
  3 25  1  0  0  0  0
  3 26  1  0  0  0  0
  3 27  1  0  0  0  0
  4  9  1  0  0  0  0
  4  5  1  0  0  0  0
  5  6  1  0  0  0  0
  5 28  1  0  0  0  0
  5 29  1  0  0  0  0
  6  7  1  0  0  0  0
  6 30  1  0  0  0  0
  6 31  1  0  0  0  0
  7  8  1  0  0  0  0
  7 32  1  0  0  0  0
  7 33  1  0  0  0  0
  8  9  1  0  0  0  0
  8 34  1  0  0  0  0
  8 35  1  0  0  0  0
  9 10  1  0  0  0  0
  9 36  1  0  0  0  0
 10 11  2  0  0  0  0
 10 12  1  0  0  0  0
 12 13  1  0  0  0  0
 12 37  1  0  0  0  0
 13 14  1  0  0  0  0
 13 38  1  0  0  0  0
 13 39  1  0  0  0  0
 14 15  1  0  0  0  0
 14 40  1  0  0  0  0
 14 41  1  0  0  0  0
 15 20  2  0  0  0  0
 15 16  1  0  0  0  0
 16 17  2  0  0  0  0
 16 42  1  0  0  0  0
 17 18  1  0  0  0  0
 18 19  1  0  0  0  0
 18 20  1  0  0  0  0
 19 43  1  0  0  0  0
 19 44  1  0  0  0  0
 19 45  1  0  0  0  0
 20 46  1  0  0  0  0
M  END
> <s_m_source_file>
AV-unprocessed.smi

> <i_m_source_file_index>
657

> <i_lp_mmshare_version>
43012

> <i_f3d_flags>
0

> <s_epik_input>
W0NIM11bQ0hdKFtDSDNdKU4xW0NIMl1bQ0gyXVtDSDJdW0NIMl1bQ0BIXTFDKD1PKVtOSF1bQ0gyXVtDSDJdYzJbY0hdbm4oW0NIM10pW2NIXTI=

> <s_epik_cmdline>
J2VwaWtfcHl0aG9uJywgJy1waCcsICc3LjAnLCAnLXRuJywgJzgnLCAnLW1hJywgJzIwMCcsICctbWV0YWxfYmluZGluZycsICctaW1hZScsICc8aW5maWxlLm1hZT4nLCAnLW9tYWUnLCAnPG91dGZpbGUubWFlPic=

> <r_lp_tautomer_probability>
1

> <r_epik_Ionization_Penalty>
1.91154

> <r_epik_Ionization_Penalty_Charging>
0

> <r_epik_Ionization_Penalty_Neutral>
1.91154

> <r_epik_State_Penalty>
2.0331

> <r_epik_Charging_Adjusted_Penalty>
2.0331

> <i_epik_Tot_Q>
0

> <i_epik_Tot_abs_Q>
0

> <r_epik_Metal_State_Penalty>
2.04973

> <b_epik_Metal_Only>
0

> <s_lp_Force_Field>
OPLS_2005

> <r_lp_Energy>
15.3254

> <b_lp_Chiralities_Consistent>
1

> <s_lp_Variant>
AV-unprocessed.smi:657-6

> <Gold.Version>
5.8.1

> <Gold.Id.Protein>
6NUR|6NUR_protein|mol2

> <Gold.PLP.Fitness>
40.9055

> <Gold.PLP.PLP>
-42.3996

> <Gold.PLP.part.hbond>
-1.0732

> <Gold.PLP.part.metal>
0.0000

> <Gold.PLP.part.buried>
-2.8322

> <Gold.PLP.part.nonpolar>
-38.2763

> <Gold.PLP.part.repulsive>
0.1911

> <Gold.PLP.ligand.clash>
2.3595

> <Gold.PLP.ligand.torsion>
1.0794

> <Gold.PLP.Chemscore.Hbond>
0.9600

> <Gold.PLP.Chemscore.CHOScore>
0.0000

> <Gold.PLP.Chemscore.Metal>
0.0000

> <Gold.Chemscore.Hbonds>
donor molecule, donor type, donor heavy atom, donor atom, acceptor molecule, acceptor atom, score
      L1  H    12    37       P1  8028  0.80

> <Gold.PLP.Chemscore.Internal.Correction>
0.1443

> <Gold.Rescore>
     Score         DG    S(hbond)    S(metal)    S(lipo)     H(rot)  DE(clash)    DE(int)     intcor
     14.21     -18.70       0.98        0.00     119.57       1.57       1.81       2.68       ----

> <Gold.Chemscore.Fitness>
14.2091

> <Gold.Chemscore.DG>
-18.6996

> <Gold.Chemscore.ZeroCoef>
-5.4800

> <Gold.Chemscore.Hbond>
0.9754

> <Gold.Chemscore.Metal>
0.0000

> <Gold.Chemscore.Lipo>
119.5742

> <Gold.Chemscore.Internal_Hbond>
0.0000

> <Gold.Chemscore.DEClash>
1.8127

> <Gold.Chemscore.DEInternal>
2.6778

> <Gold.Chemscore.Rot>
1.5736

> <Gold.Chemscore.Internal.Correction>
   9.000000E+99

> <Gold.Chemscore.Hbonds>
donor molecule, donor type, donor heavy atom, donor atom, acceptor molecule, acceptor atom, score
      L1  H    12    37       P1  8028  0.78

> <Gold.Chemscore.Hbond.Weighted>
-3.2579

> <Gold.Chemscore.Metal.Weighted>
-0.0000

> <Gold.Chemscore.Lipo.Weighted>
-13.9902

> <Gold.Chemscore.Internal_Hbond.Weighted>
0.0000

> <Gold.Chemscore.DEClash.Weighted>
1.8127

> <Gold.Chemscore.DEInternal.Weighted>
2.6778

> <Gold.Chemscore.Rot.Weighted>
4.0284

> <Gold.Chemscore.Internal.Correction.Weighted>
   9.000000E+99

> <Gold.Protein.RotatedTorsions>
[ 6907 6896 6895 6894 ] final  -86.07 input  -60.11 | X-H torsion
[ 7974 7965 7964 7962 ] final   18.89 input  175.53 | X-H torsion
[ 8008 7997 7996 7995 ] final   15.05 input   59.86 | X-H torsion
[ 10167 10162 10161 10158 ] final  143.87 input  -65.29 | X-H torsion
[ 10718 10713 10712 10709 ] final  159.62 input   66.30 | X-H torsion
[ 10763 10752 10751 10750 ] final -176.88 input  -60.55 | X-H torsion
[ 11005 11000 10999 10996 ] final  -89.57 input  -57.11 | X-H torsion

> <Gold.Protein.ActiveResidues>
 VAL166  LYS551  ARG553  GLY616  TRP617  ASP618  TYR619  PRO620  LYS621  CYS622 
 ASP623  PHE694  ASN695  SER759  ASP760  ASP761  ALA762  ILE779  LEU786  VAL792 
 PHE793  MET794  SER795  GLU796  ALA797  LYS798  CYS799  TRP800  GLU811  SER814 

> <Gold.Protein.RotatedAtoms>
  150.6868  134.3107  159.4744 H   0  0  0  0  0  0  0  0  0  0  0  0  # atno 6907 bound_to 6896
  152.0993  134.9350  160.0579 H   0  0  0  0  0  0  0  0  0  0  0  0  # atno 6908 bound_to 6896
  152.0635  133.4038  159.4465 H   0  0  0  0  0  0  0  0  0  0  0  0  # atno 6909 bound_to 6896
  146.2169  139.8392  142.8644 H   0  0  0  0  0  0  0  0  0  0  0  0  # atno 7974 bound_to 7965
  154.8571  140.2938  155.5562 H   0  0  0  0  0  0  0  0  0  0  0  0  # atno 8008 bound_to 7997
  156.3018  140.2485  156.3472 H   0  0  0  0  0  0  0  0  0  0  0  0  # atno 8009 bound_to 7997
  154.8958  140.0393  157.1854 H   0  0  0  0  0  0  0  0  0  0  0  0  # atno 8010 bound_to 7997
  139.4959  144.6011  151.6479 H   0  0  0  0  0  0  0  0  0  0  0  0  # atno 10167 bound_to 10162
  157.1616  131.0588  151.2229 H   0  0  0  0  0  0  0  0  0  0  0  0  # atno 10718 bound_to 10713
  154.5670  135.2825  155.0864 H   0  0  0  0  0  0  0  0  0  0  0  0  # atno 10763 bound_to 10752
  154.2251  135.6384  153.5161 H   0  0  0  0  0  0  0  0  0  0  0  0  # atno 10764 bound_to 10752
  153.0046  135.5524  154.6281 H   0  0  0  0  0  0  0  0  0  0  0  0  # atno 10765 bound_to 10752
  141.1582  133.7638  156.9614 H   0  0  0  0  0  0  0  0  0  0  0  0  # atno 11005 bound_to 11000
  145.2917  141.0169  143.3659 LP  0  0  0  0  0  0  0  0  0  0  0  0  # atno 17320 bound_to 7965
  144.9073  139.4573  143.6604 LP  0  0  0  0  0  0  0  0  0  0  0  0  # atno 17321 bound_to 7965
  140.5661  144.0188  150.6193 LP  0  0  0  0  0  0  0  0  0  0  0  0  # atno 17342 bound_to 10162
  140.3290  143.3089  152.0707 LP  0  0  0  0  0  0  0  0  0  0  0  0  # atno 17343 bound_to 10162
  157.4127  130.7394  149.6851 LP  0  0  0  0  0  0  0  0  0  0  0  0  # atno 17370 bound_to 10713
  155.9753  130.4091  150.3861 LP  0  0  0  0  0  0  0  0  0  0  0  0  # atno 17371 bound_to 10713
  140.1191  134.9428  157.2177 LP  0  0  0  0  0  0  0  0  0  0  0  0  # atno 17394 bound_to 11000
  140.3095  134.3039  155.7270 LP  0  0  0  0  0  0  0  0  0  0  0  0  # atno 17395 bound_to 11000

$$$$
